=
 OpenBabel11062410393D

 32 35  0  0  1  0  0  0  0  0999 V2000
  161.4170  207.1370  149.1160 C   0  0  0  0  0  0  0  0  0  0  0  0
  161.2690  204.9340  153.5090 C   0  0  0  0  0  3  0  0  0  0  0  0
  160.8270  203.7530  152.9070 C   0  0  0  0  0  3  0  0  0  0  0  0
  162.0180  209.4940  148.9110 C   0  0  0  0  0  0  0  0  0  0  0  0
  161.7880  208.4850  151.1020 C   0  0  0  0  0  3  0  0  0  0  0  0
  162.3580  210.8130  150.9090 O   0  0  0  0  0  1  0  0  0  0  0  0
  161.4700  206.0790  152.7360 C   0  0  0  0  0  3  0  0  0  0  0  0
  161.4710  207.2510  150.5180 C   0  0  0  0  0  0  0  0  0  0  0  0
  161.2310  206.0550  151.3520 C   0  0  0  0  0  0  0  0  0  0  0  0
  160.4430  204.8070  149.2920 C   0  0  0  0  0  2  0  0  0  0  0  0
  162.0520  209.6000  150.3060 C   0  0  0  0  0  0  0  0  0  0  0  0
  160.5830  203.7200  151.5320 C   0  0  0  0  0  3  0  0  0  0  0  0
  160.7930  204.8600  150.7490 C   0  0  0  0  0  0  0  0  0  0  0  0
  161.7000  208.2600  148.3230 C   0  0  0  0  0  3  0  0  0  0  0  0
  161.0980  205.8660  148.5130 N   0  0  0  0  0  0  0  0  0  0  0  0
  161.2860  205.6630  147.0770 C   0  0  2  0  0  3  0  0  0  0  0  0
  160.0530  206.1350  146.3030 C   0  0  0  0  0  2  0  0  0  0  0  0
  161.1840  203.5760  145.5070 C   0  0  0  0  0  3  0  0  0  0  0  0
  161.0750  204.2130  144.3320 C   0  0  0  0  0  3  0  0  0  0  0  0
  161.4110  205.6640  144.1700 C   0  0  0  0  0  2  0  0  0  0  0  0
  160.4010  206.5730  144.8760 C   0  0  0  0  0  2  0  0  0  0  0  0
  161.6840  204.1980  146.7950 C   0  0  1  0  0  3  0  0  0  0  0  0
  163.1830  203.9910  146.9730 C   0  0  0  0  0  2  0  0  0  0  0  0
  163.9020  204.7580  146.0540 O   0  0  0  0  0  1  0  0  0  0  0  0
  162.3000  210.6250  148.1350 O   0  0  0  0  0  0  0  0  0  0  0  0
  161.3230  211.5990  147.7820 C   0  0  0  0  0  2  0  0  0  0  0  0
  160.4040  213.4000  145.4400 C   0  0  0  0  0  0  0  0  0  0  0  0
  162.9420  213.3160  148.0900 O   0  0  0  0  0  0  0  0  0  0  0  0
  161.4900  213.7020  146.3240 N   0  0  0  0  0  2  0  0  0  0  0  0
  159.7050  212.1610  145.5130 N   0  0  0  0  0  1  0  0  0  0  0  0
  160.0620  214.2480  144.5760 O   0  0  0  0  0  0  0  0  0  0  0  0
  161.9740  212.8940  147.4040 C   0  0  0  0  0  0  0  0  0  0  0  0
  1  8  1  0  0  0  0
  3  2  1  0  0  0  0
  4 11  2  0  0  0  0
  7  2  2  0  0  0  0
  8  5  2  0  0  0  0
  8  9  1  0  0  0  0
  9  7  1  0  0  0  0
 10 13  1  0  0  0  0
 11  6  1  0  0  0  0
 11  5  1  0  0  0  0
 12  3  2  0  0  0  0
 13  9  2  0  0  0  0
 13 12  1  0  0  0  0
 14  4  1  0  0  0  0
 14  1  2  0  0  0  0
 15  1  1  0  0  0  0
 15 10  1  0  0  0  0
 16 17  1  6  0  0  0
 16 15  1  0  0  0  0
 18 22  1  0  0  0  0
 19 18  2  0  0  0  0
 20 19  1  0  0  0  0
 20 21  1  0  0  0  0
 21 17  1  0  0  0  0
 22 23  1  6  0  0  0
 22 16  1  0  0  0  0
 24 23  1  0  0  0  0
 25  4  1  0  0  0  0
 26 25  1  0  0  0  0
 27 30  1  0  0  0  0
 27 29  1  0  0  0  0
 29 32  1  0  0  0  0
 31 27  2  0  0  0  0
 32 26  1  0  0  0  0
 32 28  2  0  0  0  0
M  END
>  <MODEL>
1

>  <REMARK>
 VINA RESULT:      -7.5      0.000      0.000
  Name = 
  5 active torsions:
  status: ('A' for Active; 'I' for Inactive)
    1  A    between atoms: C_6  and  N_31
    2  A    between atoms: C_8  and  O_23
    3  A    between atoms: C_19  and  O_23
    4  A    between atoms: C_19  and  C_24
    5  A    between atoms: C_27  and  C_32
                            x       y       z     vdW  Elec       q    Type
                         _______ _______ _______ _____ _____    ______ ____

>  <TORSDO>
F 5

$$$$
=
 OpenBabel11062410393D

 32 35  0  0  1  0  0  0  0  0999 V2000
  161.1380  208.4850  152.2210 C   0  0  0  0  0  0  0  0  0  0  0  0
  160.2240  207.6060  156.9710 C   0  0  0  0  0  3  0  0  0  0  0  0
  160.1670  208.9790  157.2190 C   0  0  0  0  0  3  0  0  0  0  0  0
  161.5560  206.6540  150.6610 C   0  0  0  0  0  0  0  0  0  0  0  0
  161.2800  206.1980  153.0250 C   0  0  0  0  0  3  0  0  0  0  0  0
  161.7140  204.3900  151.4980 O   0  0  0  0  0  1  0  0  0  0  0  0
  160.5340  207.1390  155.6920 C   0  0  0  0  0  3  0  0  0  0  0  0
  161.0870  207.5620  153.2820 C   0  0  0  0  0  0  0  0  0  0  0  0
  160.7900  208.0420  154.6480 C   0  0  0  0  0  0  0  0  0  0  0  0
  161.0720  210.4280  153.8410 C   0  0  0  0  0  2  0  0  0  0  0  0
  161.5200  205.7460  151.7260 C   0  0  0  0  0  0  0  0  0  0  0  0
  160.4240  209.8860  156.1880 C   0  0  0  0  0  3  0  0  0  0  0  0
  160.7230  209.4260  154.9010 C   0  0  0  0  0  0  0  0  0  0  0  0
  161.3640  208.0210  150.9150 C   0  0  0  0  0  3  0  0  0  0  0  0
  160.9310  209.8880  152.4830 N   0  0  0  0  0  0  0  0  0  0  0  0
  160.7270  210.8230  151.3760 C   0  0  2  0  0  3  0  0  0  0  0  0
  162.0380  211.0590  150.6250 C   0  0  0  0  0  2  0  0  0  0  0  0
  160.4390  213.4160  151.2160 C   0  0  0  0  0  3  0  0  0  0  0  0
  160.6860  213.5650  149.9070 C   0  0  0  0  0  3  0  0  0  0  0  0
  160.6430  212.4180  148.9450 C   0  0  0  0  0  2  0  0  0  0  0  0
  161.8020  211.4400  149.1590 C   0  0  0  0  0  2  0  0  0  0  0  0
  160.0530  212.1140  151.8900 C   0  0  1  0  0  3  0  0  0  0  0  0
  158.5410  211.9510  151.9710 C   0  0  0  0  0  2  0  0  0  0  0  0
  158.1100  211.9660  153.2990 O   0  0  0  0  0  1  0  0  0  0  0  0
  161.7850  206.1750  149.3660 O   0  0  0  0  0  0  0  0  0  0  0  0
  160.7660  205.6160  148.5430 C   0  0  0  0  0  2  0  0  0  0  0  0
  161.1210  205.2180  145.4950 C   0  0  0  0  0  0  0  0  0  0  0  0
  161.5420  203.3680  148.6380 O   0  0  0  0  0  0  0  0  0  0  0  0
  161.4050  204.2240  146.4870 N   0  0  0  0  0  2  0  0  0  0  0  0
  160.5410  206.4710  145.8410 N   0  0  0  0  0  1  0  0  0  0  0  0
  161.3850  204.9760  144.2890 O   0  0  0  0  0  0  0  0  0  0  0  0
  161.2340  204.3450  147.9040 C   0  0  0  0  0  0  0  0  0  0  0  0
  1 15  1  0  0  0  0
  1  8  1  0  0  0  0
  2  3  1  0  0  0  0
  4 14  1  0  0  0  0
  4 11  2  0  0  0  0
  5  8  2  0  0  0  0
  6 11  1  0  0  0  0
  7  2  2  0  0  0  0
  8  9  1  0  0  0  0
  9 13  2  0  0  0  0
  9  7  1  0  0  0  0
 10 13  1  0  0  0  0
 11  5  1  0  0  0  0
 12  3  2  0  0  0  0
 13 12  1  0  0  0  0
 14  1  2  0  0  0  0
 15 10  1  0  0  0  0
 16 17  1  1  0  0  0
 16 22  1  0  0  0  0
 16 15  1  0  0  0  0
 18 22  1  0  0  0  0
 19 18  2  0  0  0  0
 20 21  1  0  0  0  0
 20 19  1  0  0  0  0
 21 17  1  0  0  0  0
 22 23  1  6  0  0  0
 23 24  1  0  0  0  0
 25  4  1  0  0  0  0
 26 25  1  0  0  0  0
 27 30  1  0  0  0  0
 27 29  1  0  0  0  0
 29 32  1  0  0  0  0
 31 27  2  0  0  0  0
 32 26  1  0  0  0  0
 32 28  2  0  0  0  0
M  END
>  <MODEL>
2

>  <REMARK>
 VINA RESULT:      -7.3      3.353      7.258
  Name = 
  5 active torsions:
  status: ('A' for Active; 'I' for Inactive)
    1  A    between atoms: C_6  and  N_31
    2  A    between atoms: C_8  and  O_23
    3  A    between atoms: C_19  and  O_23
    4  A    between atoms: C_19  and  C_24
    5  A    between atoms: C_27  and  C_32
                            x       y       z     vdW  Elec       q    Type
                         _______ _______ _______ _____ _____    ______ ____

>  <TORSDO>
F 5

$$$$
=
 OpenBabel11062410393D

 32 35  0  0  1  0  0  0  0  0999 V2000
  161.4800  208.0680  151.8210 C   0  0  0  0  0  0  0  0  0  0  0  0
  160.8670  203.3780  150.4800 C   0  0  0  0  0  3  0  0  0  0  0  0
  160.7010  203.0130  151.8180 C   0  0  0  0  0  3  0  0  0  0  0  0
  161.9850  209.7930  150.1680 C   0  0  0  0  0  0  0  0  0  0  0  0
  161.8590  207.4680  149.4990 C   0  0  0  0  0  3  0  0  0  0  0  0
  162.3800  209.1580  147.8690 O   0  0  0  0  0  1  0  0  0  0  0  0
  161.1570  204.7030  150.1490 C   0  0  0  0  0  3  0  0  0  0  0  0
  161.5590  207.0880  150.8140 C   0  0  0  0  0  0  0  0  0  0  0  0
  161.2840  205.6760  151.1530 C   0  0  0  0  0  0  0  0  0  0  0  0
  161.3180  206.2880  153.6130 C   0  0  0  0  0  2  0  0  0  0  0  0
  162.0780  208.8080  149.1780 C   0  0  0  0  0  0  0  0  0  0  0  0
  160.8290  203.9730  152.8250 C   0  0  0  0  0  3  0  0  0  0  0  0
  161.1080  205.3040  152.5000 C   0  0  0  0  0  0  0  0  0  0  0  0
  161.6860  209.4160  151.4870 C   0  0  0  0  0  3  0  0  0  0  0  0
  161.1630  207.6810  153.1730 N   0  0  0  0  0  0  0  0  0  0  0  0
  160.8270  208.6950  154.1720 C   0  0  2  0  0  3  0  0  0  0  0  0
  161.6090  209.9840  153.9130 C   0  0  0  0  0  2  0  0  0  0  0  0
  161.4880  209.0740  156.6730 C   0  0  0  0  0  3  0  0  0  0  0  0
  161.1240  210.3590  156.7840 C   0  0  0  0  0  3  0  0  0  0  0  0
  160.2080  211.0240  155.8030 C   0  0  0  0  0  2  0  0  0  0  0  0
  160.8720  211.2210  154.4360 C   0  0  0  0  0  2  0  0  0  0  0  0
  161.0120  208.1210  155.5940 C   0  0  1  0  0  3  0  0  0  0  0  0
  159.7810  207.3420  156.0380 C   0  0  0  0  0  2  0  0  0  0  0  0
  160.0100  206.7050  157.2590 O   0  0  0  0  0  1  0  0  0  0  0  0
  162.1960  211.1320  149.8190 O   0  0  0  0  0  0  0  0  0  0  0  0
  161.4090  211.8260  148.8560 C   0  0  0  0  0  2  0  0  0  0  0  0
  160.3510  213.1620  146.2730 C   0  0  0  0  0  0  0  0  0  0  0  0
  163.5240  212.4960  147.9950 O   0  0  0  0  0  0  0  0  0  0  0  0
  161.7320  213.0890  146.6480 N   0  0  0  0  0  2  0  0  0  0  0  0
  159.3370  212.5170  147.0370 N   0  0  0  0  0  1  0  0  0  0  0  0
  160.0280  213.8060  145.2420 O   0  0  0  0  0  0  0  0  0  0  0  0
  162.2780  212.4610  147.8150 C   0  0  0  0  0  0  0  0  0  0  0  0
  1 15  1  0  0  0  0
  2  3  1  0  0  0  0
  3 12  2  0  0  0  0
  4 14  2  0  0  0  0
  5  8  1  0  0  0  0
  6 11  1  0  0  0  0
  7  2  2  0  0  0  0
  7  9  1  0  0  0  0
  8  9  1  0  0  0  0
  8  1  2  0  0  0  0
  9 13  2  0  0  0  0
 11  5  2  0  0  0  0
 11  4  1  0  0  0  0
 13 12  1  0  0  0  0
 13 10  1  0  0  0  0
 14  1  1  0  0  0  0
 15 10  1  0  0  0  0
 16 15  1  6  0  0  0
 16 22  1  0  0  0  0
 17 16  1  0  0  0  0
 17 21  1  0  0  0  0
 18 19  2  0  0  0  0
 20 19  1  0  0  0  0
 21 20  1  0  0  0  0
 22 23  1  1  0  0  0
 22 18  1  0  0  0  0
 23 24  1  0  0  0  0
 25  4  1  0  0  0  0
 26 25  1  0  0  0  0
 27 29  1  0  0  0  0
 27 30  1  0  0  0  0
 29 32  1  0  0  0  0
 31 27  2  0  0  0  0
 32 28  2  0  0  0  0
 32 26  1  0  0  0  0
M  END
>  <MODEL>
3

>  <REMARK>
 VINA RESULT:      -7.1      2.861      6.193
  Name = 
  5 active torsions:
  status: ('A' for Active; 'I' for Inactive)
    1  A    between atoms: C_6  and  N_31
    2  A    between atoms: C_8  and  O_23
    3  A    between atoms: C_19  and  O_23
    4  A    between atoms: C_19  and  C_24
    5  A    between atoms: C_27  and  C_32
                            x       y       z     vdW  Elec       q    Type
                         _______ _______ _______ _____ _____    ______ ____

>  <TORSDO>
F 5

$$$$
=
 OpenBabel11062410393D

 32 35  0  0  1  0  0  0  0  0999 V2000
  161.5920  208.7230  151.9350 C   0  0  0  0  0  0  0  0  0  0  0  0
  160.8300  203.9930  150.8340 C   0  0  0  0  0  3  0  0  0  0  0  0
  160.7820  203.6790  152.1940 C   0  0  0  0  0  3  0  0  0  0  0  0
  161.9590  210.3800  150.1800 C   0  0  0  0  0  0  0  0  0  0  0  0
  161.7570  208.0330  149.6130 C   0  0  0  0  0  3  0  0  0  0  0  0
  162.1410  209.6560  147.8800 O   0  0  0  0  0  1  0  0  0  0  0  0
  161.0980  205.3020  150.4290 C   0  0  0  0  0  3  0  0  0  0  0  0
  161.5740  207.7060  150.9640 C   0  0  0  0  0  0  0  0  0  0  0  0
  161.3210  206.3100  151.3800 C   0  0  0  0  0  0  0  0  0  0  0  0
  161.5800  207.0120  153.8010 C   0  0  0  0  0  2  0  0  0  0  0  0
  161.9560  209.3580  149.2240 C   0  0  0  0  0  0  0  0  0  0  0  0
  161.0070  204.6750  153.1490 C   0  0  0  0  0  3  0  0  0  0  0  0
  161.2640  205.9900  152.7500 C   0  0  0  0  0  0  0  0  0  0  0  0
  161.7770  210.0560  151.5330 C   0  0  0  0  0  3  0  0  0  0  0  0
  161.3960  208.3900  153.3250 N   0  0  0  0  0  0  0  0  0  0  0  0
  161.1580  209.4440  154.3100 C   0  0  2  0  0  3  0  0  0  0  0  0
  161.8190  209.0910  155.6440 C   0  0  0  0  0  2  0  0  0  0  0  0
  159.1070  210.1330  155.7760 C   0  0  0  0  0  3  0  0  0  0  0  0
  159.7470  210.9010  156.6690 C   0  0  0  0  0  3  0  0  0  0  0  0
  161.1230  211.4410  156.4260 C   0  0  0  0  0  2  0  0  0  0  0  0
  162.1880  210.3400  156.4530 C   0  0  0  0  0  2  0  0  0  0  0  0
  159.6460  209.7400  154.4150 C   0  0  1  0  0  3  0  0  0  0  0  0
  159.1990  210.7150  153.3330 C   0  0  0  0  0  2  0  0  0  0  0  0
  158.0920  211.4540  153.7570 O   0  0  0  0  0  1  0  0  0  0  0  0
  162.1470  211.7030  149.7630 O   0  0  0  0  0  0  0  0  0  0  0  0
  161.1830  212.4330  149.0090 C   0  0  0  0  0  2  0  0  0  0  0  0
  159.6460  213.6850  146.6340 C   0  0  0  0  0  0  0  0  0  0  0  0
  163.0840  213.2830  147.8560 O   0  0  0  0  0  0  0  0  0  0  0  0
  161.0680  213.7280  146.7990 N   0  0  0  0  0  2  0  0  0  0  0  0
  158.8140  212.9540  147.5280 N   0  0  0  0  0  1  0  0  0  0  0  0
  159.1200  214.3040  145.6730 O   0  0  0  0  0  0  0  0  0  0  0  0
  161.8320  213.1440  147.8610 C   0  0  0  0  0  0  0  0  0  0  0  0
  1 15  1  0  0  0  0
  2  3  1  0  0  0  0
  3 12  2  0  0  0  0
  4 14  2  0  0  0  0
  5  8  1  0  0  0  0
  6 11  1  0  0  0  0
  7  2  2  0  0  0  0
  7  9  1  0  0  0  0
  8  9  1  0  0  0  0
  8  1  2  0  0  0  0
  9 13  2  0  0  0  0
 11  5  2  0  0  0  0
 11  4  1  0  0  0  0
 13 12  1  0  0  0  0
 13 10  1  0  0  0  0
 14  1  1  0  0  0  0
 15 10  1  0  0  0  0
 16 15  1  6  0  0  0
 16 22  1  0  0  0  0
 16 17  1  0  0  0  0
 17 21  1  0  0  0  0
 18 19  2  0  0  0  0
 20 21  1  0  0  0  0
 20 19  1  0  0  0  0
 22 23  1  6  0  0  0
 22 18  1  0  0  0  0
 23 24  1  0  0  0  0
 25  4  1  0  0  0  0
 26 25  1  0  0  0  0
 27 29  1  0  0  0  0
 27 30  1  0  0  0  0
 28 32  2  0  0  0  0
 29 32  1  0  0  0  0
 31 27  2  0  0  0  0
 32 26  1  0  0  0  0
M  END
>  <MODEL>
4

>  <REMARK>
 VINA RESULT:      -7.0      2.990      6.428
  Name = 
  5 active torsions:
  status: ('A' for Active; 'I' for Inactive)
    1  A    between atoms: C_6  and  N_31
    2  A    between atoms: C_8  and  O_23
    3  A    between atoms: C_19  and  O_23
    4  A    between atoms: C_19  and  C_24
    5  A    between atoms: C_27  and  C_32
                            x       y       z     vdW  Elec       q    Type
                         _______ _______ _______ _____ _____    ______ ____

>  <TORSDO>
F 5

$$$$
=
 OpenBabel11062410393D

 32 35  0  0  1  0  0  0  0  0999 V2000
  161.4090  205.5510  149.5320 C   0  0  0  0  0  0  0  0  0  0  0  0
  161.3510  209.3040  152.7070 C   0  0  0  0  0  3  0  0  0  0  0  0
  161.8150  210.1620  151.7080 C   0  0  0  0  0  3  0  0  0  0  0  0
  160.8250  203.2900  150.2470 C   0  0  0  0  0  0  0  0  0  0  0  0
  160.9530  205.0830  151.8710 C   0  0  0  0  0  3  0  0  0  0  0  0
  160.4000  202.8540  152.5870 O   0  0  0  0  0  1  0  0  0  0  0  0
  161.1890  207.9430  152.4390 C   0  0  0  0  0  3  0  0  0  0  0  0
  161.2920  205.9950  150.8620 C   0  0  0  0  0  0  0  0  0  0  0  0
  161.4900  207.4270  151.1680 C   0  0  0  0  0  0  0  0  0  0  0  0
  162.3660  207.7820  148.8170 C   0  0  0  0  0  2  0  0  0  0  0  0
  160.7290  203.7390  151.5690 C   0  0  0  0  0  0  0  0  0  0  0  0
  162.1210  209.6580  150.4410 C   0  0  0  0  0  3  0  0  0  0  0  0
  161.9500  208.2980  150.1620 C   0  0  0  0  0  0  0  0  0  0  0  0
  161.1650  204.2000  149.2340 C   0  0  0  0  0  3  0  0  0  0  0  0
  161.7490  206.4890  148.4920 N   0  0  0  0  0  0  0  0  0  0  0  0
  161.6260  206.1070  147.0850 C   0  0  2  0  0  3  0  0  0  0  0  0
  160.1720  206.2200  146.6230 C   0  0  0  0  0  2  0  0  0  0  0  0
  161.6070  203.8230  145.8150 C   0  0  0  0  0  3  0  0  0  0  0  0
  161.0850  204.2430  144.6540 C   0  0  0  0  0  3  0  0  0  0  0  0
  161.0490  205.6880  144.2640 C   0  0  0  0  0  2  0  0  0  0  0  0
  160.0640  206.4930  145.1190 C   0  0  0  0  0  2  0  0  0  0  0  0
  162.2540  204.7150  146.8560 C   0  0  1  0  0  3  0  0  0  0  0  0
  163.7600  204.8170  146.6490 C   0  0  0  0  0  2  0  0  0  0  0  0
  164.1600  204.0730  145.5360 O   0  0  0  0  0  1  0  0  0  0  0  0
  160.5820  201.9400  149.9660 O   0  0  0  0  0  0  0  0  0  0  0  0
  160.0730  201.4750  148.7200 C   0  0  0  0  0  2  0  0  0  0  0  0
  160.0000  200.9180  145.6770 C   0  0  0  0  0  0  0  0  0  0  0  0
  162.1090  200.2490  148.6070 O   0  0  0  0  0  0  0  0  0  0  0  0
  161.0410  200.4860  146.5620 N   0  0  0  0  0  2  0  0  0  0  0  0
  158.8320  201.5720  146.1640 N   0  0  0  0  0  1  0  0  0  0  0  0
  160.1180  200.7090  144.4420 O   0  0  0  0  0  0  0  0  0  0  0  0
  161.1120  200.6930  147.9780 C   0  0  0  0  0  0  0  0  0  0  0  0
  1  8  1  0  0  0  0
  3  2  2  0  0  0  0
  4 11  2  0  0  0  0
  7  2  1  0  0  0  0
  8  9  1  0  0  0  0
  8  5  2  0  0  0  0
  9  7  2  0  0  0  0
 10 13  1  0  0  0  0
 11  5  1  0  0  0  0
 11  6  1  0  0  0  0
 12  3  1  0  0  0  0
 13 12  2  0  0  0  0
 13  9  1  0  0  0  0
 14  1  2  0  0  0  0
 14  4  1  0  0  0  0
 15 10  1  0  0  0  0
 15  1  1  0  0  0  0
 16 17  1  1  0  0  0
 16 15  1  0  0  0  0
 18 22  1  0  0  0  0
 19 18  2  0  0  0  0
 20 19  1  0  0  0  0
 20 21  1  0  0  0  0
 21 17  1  0  0  0  0
 22 23  1  6  0  0  0
 22 16  1  0  0  0  0
 24 23  1  0  0  0  0
 25  4  1  0  0  0  0
 26 25  1  0  0  0  0
 27 30  1  0  0  0  0
 27 29  1  0  0  0  0
 29 32  1  0  0  0  0
 31 27  2  0  0  0  0
 32 28  2  0  0  0  0
 32 26  1  0  0  0  0
M  END
>  <MODEL>
5

>  <REMARK>
 VINA RESULT:      -6.9      4.080      6.752
  Name = 
  5 active torsions:
  status: ('A' for Active; 'I' for Inactive)
    1  A    between atoms: C_6  and  N_31
    2  A    between atoms: C_8  and  O_23
    3  A    between atoms: C_19  and  O_23
    4  A    between atoms: C_19  and  C_24
    5  A    between atoms: C_27  and  C_32
                            x       y       z     vdW  Elec       q    Type
                         _______ _______ _______ _____ _____    ______ ____

>  <TORSDO>
F 5

$$$$
=
 OpenBabel11062410393D

 32 35  0  0  1  0  0  0  0  0999 V2000
  160.8880  210.1710  151.3120 C   0  0  0  0  0  0  0  0  0  0  0  0
  162.4410  213.4510  147.9950 C   0  0  0  0  0  3  0  0  0  0  0  0
  161.6960  214.4490  148.6270 C   0  0  0  0  0  3  0  0  0  0  0  0
  161.5280  207.8200  151.1520 C   0  0  0  0  0  0  0  0  0  0  0  0
  162.1680  209.3760  149.4080 C   0  0  0  0  0  3  0  0  0  0  0  0
  162.7830  207.0580  149.2310 O   0  0  0  0  0  1  0  0  0  0  0  0
  162.3850  212.1360  148.4630 C   0  0  0  0  0  3  0  0  0  0  0  0
  161.5380  210.4260  150.0910 C   0  0  0  0  0  0  0  0  0  0  0  0
  161.5820  211.8070  149.5660 C   0  0  0  0  0  0  0  0  0  0  0  0
  159.9010  212.5020  151.3320 C   0  0  0  0  0  2  0  0  0  0  0  0
  162.1570  208.0820  149.9290 C   0  0  0  0  0  0  0  0  0  0  0  0
  160.8900  214.1310  149.7240 C   0  0  0  0  0  3  0  0  0  0  0  0
  160.8380  212.8190  150.2040 C   0  0  0  0  0  0  0  0  0  0  0  0
  160.8950  208.8690  151.8380 C   0  0  0  0  0  3  0  0  0  0  0  0
  160.2460  211.2520  152.0210 N   0  0  0  0  0  0  0  0  0  0  0  0
  159.7920  211.0640  153.3980 C   0  0  2  0  0  3  0  0  0  0  0  0
  158.4480  211.7610  153.6200 C   0  0  0  0  0  2  0  0  0  0  0  0
  160.4560  212.1250  155.6930 C   0  0  0  0  0  3  0  0  0  0  0  0
  159.3820  211.7550  156.4040 C   0  0  0  0  0  3  0  0  0  0  0  0
  158.4510  210.6730  155.9510 C   0  0  0  0  0  2  0  0  0  0  0  0
  157.6280  211.0930  154.7290 C   0  0  0  0  0  2  0  0  0  0  0  0
  160.8980  211.4980  154.3850 C   0  0  1  0  0  3  0  0  0  0  0  0
  161.9040  210.3770  154.6130 C   0  0  0  0  0  2  0  0  0  0  0  0
  162.7880  210.7060  155.6430 O   0  0  0  0  0  1  0  0  0  0  0  0
  161.5420  206.5160  151.6610 O   0  0  0  0  0  0  0  0  0  0  0  0
  160.9780  205.4010  150.9780 C   0  0  0  0  0  2  0  0  0  0  0  0
  160.9130  202.4760  149.9720 C   0  0  0  0  0  0  0  0  0  0  0  0
  160.9440  204.3640  153.1200 O   0  0  0  0  0  0  0  0  0  0  0  0
  160.9240  202.8650  151.3510 N   0  0  0  0  0  2  0  0  0  0  0  0
  160.8280  203.4390  148.9270 N   0  0  0  0  0  1  0  0  0  0  0  0
  160.9740  201.2540  149.6780 O   0  0  0  0  0  0  0  0  0  0  0  0
  160.9270  204.2000  151.8710 C   0  0  0  0  0  0  0  0  0  0  0  0
  1 14  1  0  0  0  0
  1 15  1  0  0  0  0
  2  7  2  0  0  0  0
  2  3  1  0  0  0  0
  3 12  2  0  0  0  0
  4 25  1  0  0  0  0
  4 14  2  0  0  0  0
  5 11  2  0  0  0  0
  5  8  1  0  0  0  0
  6 11  1  0  0  0  0
  7  9  1  0  0  0  0
  8  1  2  0  0  0  0
  9  8  1  0  0  0  0
  9 13  2  0  0  0  0
 10 15  1  0  0  0  0
 11  4  1  0  0  0  0
 12 13  1  0  0  0  0
 13 10  1  0  0  0  0
 16 15  1  6  0  0  0
 16 17  1  0  0  0  0
 16 22  1  0  0  0  0
 17 21  1  0  0  0  0
 18 19  2  0  0  0  0
 20 19  1  0  0  0  0
 21 20  1  0  0  0  0
 22 23  1  1  0  0  0
 22 18  1  0  0  0  0
 23 24  1  0  0  0  0
 26 25  1  0  0  0  0
 26 32  1  0  0  0  0
 27 29  1  0  0  0  0
 29 32  1  0  0  0  0
 30 27  1  0  0  0  0
 31 27  2  0  0  0  0
 32 28  2  0  0  0  0
M  END
>  <MODEL>
6

>  <REMARK>
 VINA RESULT:      -6.0      3.923      9.209
  Name = 
  5 active torsions:
  status: ('A' for Active; 'I' for Inactive)
    1  A    between atoms: C_6  and  N_31
    2  A    between atoms: C_8  and  O_23
    3  A    between atoms: C_19  and  O_23
    4  A    between atoms: C_19  and  C_24
    5  A    between atoms: C_27  and  C_32
                            x       y       z     vdW  Elec       q    Type
                         _______ _______ _______ _____ _____    ______ ____

>  <TORSDO>
F 5

$$$$
=
 OpenBabel11062410393D

 32 35  0  0  1  0  0  0  0  0999 V2000
  161.3680  210.1850  150.8800 C   0  0  0  0  0  0  0  0  0  0  0  0
  162.1230  213.4430  147.2770 C   0  0  0  0  0  3  0  0  0  0  0  0
  161.5720  214.4530  148.0690 C   0  0  0  0  0  3  0  0  0  0  0  0
  161.9070  207.8230  150.5740 C   0  0  0  0  0  0  0  0  0  0  0  0
  162.1300  209.3710  148.7230 C   0  0  0  0  0  3  0  0  0  0  0  0
  162.6410  207.0420  148.4060 O   0  0  0  0  0  1  0  0  0  0  0  0
  162.1590  212.1290  147.7470 C   0  0  0  0  0  3  0  0  0  0  0  0
  161.7050  210.4300  149.5360 C   0  0  0  0  0  0  0  0  0  0  0  0
  161.6440  211.8120  149.0140 C   0  0  0  0  0  0  0  0  0  0  0  0
  160.4580  212.5330  151.1350 C   0  0  0  0  0  2  0  0  0  0  0  0
  162.2230  208.0760  149.2340 C   0  0  0  0  0  0  0  0  0  0  0  0
  161.0540  214.1480  149.3300 C   0  0  0  0  0  3  0  0  0  0  0  0
  161.0970  212.8350  149.8120 C   0  0  0  0  0  0  0  0  0  0  0  0
  161.4800  208.8820  151.3910 C   0  0  0  0  0  3  0  0  0  0  0  0
  160.9380  211.2750  151.7210 N   0  0  0  0  0  0  0  0  0  0  0  0
  160.8300  211.0930  153.1680 C   0  0  2  0  0  3  0  0  0  0  0  0
  162.0550  210.3520  153.7090 C   0  0  0  0  0  2  0  0  0  0  0  0
  159.4660  209.4730  154.7000 C   0  0  0  0  0  3  0  0  0  0  0  0
  160.1610  209.6370  155.8350 C   0  0  0  0  0  3  0  0  0  0  0  0
  161.0870  210.7930  156.0510 C   0  0  0  0  0  2  0  0  0  0  0  0
  162.3400  210.7020  155.1730 C   0  0  0  0  0  2  0  0  0  0  0  0
  159.4830  210.4240  153.5200 C   0  0  1  0  0  3  0  0  0  0  0  0
  158.3650  211.4530  153.6120 C   0  0  0  0  0  2  0  0  0  0  0  0
  158.8210  212.6290  154.2120 O   0  0  0  0  0  1  0  0  0  0  0  0
  162.0210  206.5180  151.0670 O   0  0  0  0  0  0  0  0  0  0  0  0
  161.0340  205.5110  150.8630 C   0  0  0  0  0  2  0  0  0  0  0  0
  161.0380  202.4620  150.3390 C   0  0  0  0  0  0  0  0  0  0  0  0
  161.2060  204.8320  153.1370 O   0  0  0  0  0  0  0  0  0  0  0  0
  161.1300  203.0680  151.6330 N   0  0  0  0  0  2  0  0  0  0  0  0
  160.8300  203.2410  149.1650 N   0  0  0  0  0  1  0  0  0  0  0  0
  161.1360  201.2120  150.2370 O   0  0  0  0  0  0  0  0  0  0  0  0
  161.1060  204.4690  151.9350 C   0  0  0  0  0  0  0  0  0  0  0  0
  1 14  1  0  0  0  0
  1 15  1  0  0  0  0
  2  7  2  0  0  0  0
  2  3  1  0  0  0  0
  3 12  2  0  0  0  0
  4 25  1  0  0  0  0
  4 14  2  0  0  0  0
  5 11  2  0  0  0  0
  5  8  1  0  0  0  0
  6 11  1  0  0  0  0
  7  9  1  0  0  0  0
  8  1  2  0  0  0  0
  9  8  1  0  0  0  0
  9 13  2  0  0  0  0
 10 15  1  0  0  0  0
 11  4  1  0  0  0  0
 12 13  1  0  0  0  0
 13 10  1  0  0  0  0
 16 15  1  6  0  0  0
 16 22  1  0  0  0  0
 16 17  1  0  0  0  0
 17 21  1  0  0  0  0
 18 19  2  0  0  0  0
 19 20  1  0  0  0  0
 21 20  1  0  0  0  0
 22 23  1  1  0  0  0
 22 18  1  0  0  0  0
 23 24  1  0  0  0  0
 26 25  1  0  0  0  0
 26 32  1  0  0  0  0
 27 29  1  0  0  0  0
 29 32  1  0  0  0  0
 30 27  1  0  0  0  0
 31 27  2  0  0  0  0
 32 28  2  0  0  0  0
M  END
>  <MODEL>
7

>  <REMARK>
 VINA RESULT:      -5.9      3.745      9.080
  Name = 
  5 active torsions:
  status: ('A' for Active; 'I' for Inactive)
    1  A    between atoms: C_6  and  N_31
    2  A    between atoms: C_8  and  O_23
    3  A    between atoms: C_19  and  O_23
    4  A    between atoms: C_19  and  C_24
    5  A    between atoms: C_27  and  C_32
                            x       y       z     vdW  Elec       q    Type
                         _______ _______ _______ _____ _____    ______ ____

>  <TORSDO>
F 5

$$$$
=
 OpenBabel11062410393D

 32 35  0  0  1  0  0  0  0  0999 V2000
  161.3120  207.9970  151.1100 C   0  0  0  0  0  0  0  0  0  0  0  0
  161.0280  208.7670  155.9570 C   0  0  0  0  0  3  0  0  0  0  0  0
  160.6870  207.4270  156.1550 C   0  0  0  0  0  3  0  0  0  0  0  0
  161.7960  209.8310  149.5720 C   0  0  0  0  0  0  0  0  0  0  0  0
  161.4930  210.2740  151.9340 C   0  0  0  0  0  3  0  0  0  0  0  0
  161.9460  212.0890  150.4230 O   0  0  0  0  0  1  0  0  0  0  0  0
  161.2120  209.2570  154.6630 C   0  0  0  0  0  3  0  0  0  0  0  0
  161.2780  208.9110  152.1790 C   0  0  0  0  0  0  0  0  0  0  0  0
  161.0550  208.4120  153.5530 C   0  0  0  0  0  0  0  0  0  0  0  0
  160.4580  206.1400  152.6020 C   0  0  0  0  0  2  0  0  0  0  0  0
  161.7420  210.7330  150.6400 C   0  0  0  0  0  0  0  0  0  0  0  0
  160.5260  206.5780  155.0560 C   0  0  0  0  0  3  0  0  0  0  0  0
  160.7190  207.0600  153.7580 C   0  0  0  0  0  0  0  0  0  0  0  0
  161.5800  208.4650  149.8130 C   0  0  0  0  0  3  0  0  0  0  0  0
  161.0990  206.5930  151.3610 N   0  0  0  0  0  0  0  0  0  0  0  0
  161.3810  205.6060  150.3190 C   0  0  2  0  0  3  0  0  0  0  0  0
  160.7240  206.0160  149.0000 C   0  0  0  0  0  2  0  0  0  0  0  0
  160.4530  203.2250  149.7720 C   0  0  0  0  0  3  0  0  0  0  0  0
  160.8860  203.1260  148.5070 C   0  0  0  0  0  3  0  0  0  0  0  0
  161.9550  204.0160  147.9520 C   0  0  0  0  0  2  0  0  0  0  0  0
  161.4740  205.4610  147.7850 C   0  0  0  0  0  2  0  0  0  0  0  0
  160.9890  204.1940  150.8070 C   0  0  1  0  0  3  0  0  0  0  0  0
  162.1040  203.5690  151.6360 C   0  0  0  0  0  2  0  0  0  0  0  0
  161.9540  202.1820  151.7040 O   0  0  0  0  0  1  0  0  0  0  0  0
  162.0610  210.3140  148.2850 O   0  0  0  0  0  0  0  0  0  0  0  0
  161.3450  211.3910  147.6870 C   0  0  0  0  0  2  0  0  0  0  0  0
  160.7330  213.2160  145.2650 C   0  0  0  0  0  0  0  0  0  0  0  0
  163.3960  212.5980  147.7160 O   0  0  0  0  0  0  0  0  0  0  0  0
  161.9410  213.2580  146.0340 N   0  0  0  0  0  2  0  0  0  0  0  0
  159.7320  212.2330  145.5030 N   0  0  0  0  0  1  0  0  0  0  0  0
  160.5560  214.0660  144.3550 O   0  0  0  0  0  0  0  0  0  0  0  0
  162.2870  212.4210  147.1450 C   0  0  0  0  0  0  0  0  0  0  0  0
  1 15  1  0  0  0  0
  1  8  1  0  0  0  0
  2  3  1  0  0  0  0
  4 14  1  0  0  0  0
  4 11  2  0  0  0  0
  5  8  2  0  0  0  0
  6 11  1  0  0  0  0
  7  2  2  0  0  0  0
  8  9  1  0  0  0  0
  9 13  2  0  0  0  0
  9  7  1  0  0  0  0
 10 13  1  0  0  0  0
 11  5  1  0  0  0  0
 12  3  2  0  0  0  0
 13 12  1  0  0  0  0
 14  1  2  0  0  0  0
 15 10  1  0  0  0  0
 16 17  1  6  0  0  0
 16 22  1  0  0  0  0
 16 15  1  0  0  0  0
 18 22  1  0  0  0  0
 19 18  2  0  0  0  0
 20 19  1  0  0  0  0
 21 20  1  0  0  0  0
 21 17  1  0  0  0  0
 22 23  1  6  0  0  0
 23 24  1  0  0  0  0
 25  4  1  0  0  0  0
 26 25  1  0  0  0  0
 27 30  1  0  0  0  0
 27 29  1  0  0  0  0
 29 32  1  0  0  0  0
 31 27  2  0  0  0  0
 32 26  1  0  0  0  0
 32 28  2  0  0  0  0
M  END
>  <MODEL>
8

>  <REMARK>
 VINA RESULT:      -5.9      2.086      3.133
  Name = 
  5 active torsions:
  status: ('A' for Active; 'I' for Inactive)
    1  A    between atoms: C_6  and  N_31
    2  A    between atoms: C_8  and  O_23
    3  A    between atoms: C_19  and  O_23
    4  A    between atoms: C_19  and  C_24
    5  A    between atoms: C_27  and  C_32
                            x       y       z     vdW  Elec       q    Type
                         _______ _______ _______ _____ _____    ______ ____

>  <TORSDO>
F 5

$$$$
=
 OpenBabel11062410393D

 32 35  0  0  1  0  0  0  0  0999 V2000
  161.3810  208.7670  150.9190 C   0  0  0  0  0  0  0  0  0  0  0  0
  162.0260  212.7480  148.1080 C   0  0  0  0  0  3  0  0  0  0  0  0
  161.5810  213.5630  149.1520 C   0  0  0  0  0  3  0  0  0  0  0  0
  161.7860  206.5260  150.0380 C   0  0  0  0  0  0  0  0  0  0  0  0
  161.9480  208.4530  148.5790 C   0  0  0  0  0  3  0  0  0  0  0  0
  162.3260  206.2480  147.6980 O   0  0  0  0  0  1  0  0  0  0  0  0
  162.0350  211.3600  148.2610 C   0  0  0  0  0  3  0  0  0  0  0  0
  161.6320  209.3070  149.6450 C   0  0  0  0  0  0  0  0  0  0  0  0
  161.5980  210.7730  149.4590 C   0  0  0  0  0  0  0  0  0  0  0  0
  160.6020  211.0170  151.7770 C   0  0  0  0  0  2  0  0  0  0  0  0
  162.0170  207.0730  148.7710 C   0  0  0  0  0  0  0  0  0  0  0  0
  161.1410  212.9880  150.3470 C   0  0  0  0  0  3  0  0  0  0  0  0
  161.1580  211.5990  150.5110 C   0  0  0  0  0  0  0  0  0  0  0  0
  161.4690  207.3780  151.1080 C   0  0  0  0  0  3  0  0  0  0  0  0
  161.0640  209.6440  152.0190 N   0  0  0  0  0  0  0  0  0  0  0  0
  161.0520  209.1350  153.3900 C   0  0  2  0  0  3  0  0  0  0  0  0
  160.4560  207.7260  153.4340 C   0  0  0  0  0  2  0  0  0  0  0  0
  159.5520  209.5820  155.4830 C   0  0  0  0  0  3  0  0  0  0  0  0
  159.8930  208.5070  156.2080 C   0  0  0  0  0  3  0  0  0  0  0  0
  161.1190  207.6980  155.9190 C   0  0  0  0  0  2  0  0  0  0  0  0
  160.9960  206.9090  154.6120 C   0  0  0  0  0  2  0  0  0  0  0  0
  160.3520  210.1450  154.3250 C   0  0  1  0  0  3  0  0  0  0  0  0
  161.3180  211.2300  154.7860 C   0  0  0  0  0  2  0  0  0  0  0  0
  162.5950  210.7030  154.9890 O   0  0  0  0  0  1  0  0  0  0  0  0
  161.8750  205.1390  150.2090 O   0  0  0  0  0  0  0  0  0  0  0  0
  160.8310  204.2360  149.8580 C   0  0  0  0  0  2  0  0  0  0  0  0
  161.2060  201.4170  148.6400 C   0  0  0  0  0  0  0  0  0  0  0  0
  160.8870  203.0420  151.9160 O   0  0  0  0  0  0  0  0  0  0  0  0
  161.1260  201.6960  150.0430 N   0  0  0  0  0  2  0  0  0  0  0  0
  161.0140  202.4360  147.6650 N   0  0  0  0  0  1  0  0  0  0  0  0
  161.4470  200.2410  148.2610 O   0  0  0  0  0  0  0  0  0  0  0  0
  160.9260  202.9740  150.6590 C   0  0  0  0  0  0  0  0  0  0  0  0
  1 14  1  0  0  0  0
  1 15  1  0  0  0  0
  2  7  2  0  0  0  0
  2  3  1  0  0  0  0
  3 12  2  0  0  0  0
  4 25  1  0  0  0  0
  4 14  2  0  0  0  0
  5 11  2  0  0  0  0
  5  8  1  0  0  0  0
  6 11  1  0  0  0  0
  7  9  1  0  0  0  0
  8  1  2  0  0  0  0
  9  8  1  0  0  0  0
  9 13  2  0  0  0  0
 10 15  1  0  0  0  0
 11  4  1  0  0  0  0
 12 13  1  0  0  0  0
 13 10  1  0  0  0  0
 16 15  1  6  0  0  0
 16 17  1  0  0  0  0
 16 22  1  0  0  0  0
 17 21  1  0  0  0  0
 18 19  2  0  0  0  0
 20 19  1  0  0  0  0
 21 20  1  0  0  0  0
 22 23  1  1  0  0  0
 22 18  1  0  0  0  0
 23 24  1  0  0  0  0
 26 25  1  0  0  0  0
 26 32  1  0  0  0  0
 27 29  1  0  0  0  0
 29 32  1  0  0  0  0
 30 27  1  0  0  0  0
 31 27  2  0  0  0  0
 32 28  2  0  0  0  0
M  END
>  <MODEL>
9

>  <REMARK>
 VINA RESULT:      -5.7      3.715      8.802
  Name = 
  5 active torsions:
  status: ('A' for Active; 'I' for Inactive)
    1  A    between atoms: C_6  and  N_31
    2  A    between atoms: C_8  and  O_23
    3  A    between atoms: C_19  and  O_23
    4  A    between atoms: C_19  and  C_24
    5  A    between atoms: C_27  and  C_32
                            x       y       z     vdW  Elec       q    Type
                         _______ _______ _______ _____ _____    ______ ____

>  <TORSDO>
F 5

$$$$
