=
 OpenBabel11052423043D

 28 31  0  0  1  0  0  0  0  0999 V2000
  160.3600  211.0650  153.3690 C   0  0  2  0  0  0  0  0  0  0  0  0
  160.1420  209.2640  154.9650 C   0  0  2  0  0  3  0  0  0  0  0  0
  159.4450  209.9360  153.7730 C   0  0  2  0  0  3  0  0  0  0  0  0
  159.3010  209.3200  156.0760 O   0  0  0  0  0  1  0  0  0  0  0  0
  161.3720  210.0730  155.2190 C   0  0  0  0  0  0  0  0  0  0  0  0
  161.5590  209.2410  152.3820 C   0  0  1  0  0  3  0  0  0  0  0  0
  162.5340  210.1890  153.0780 C   0  0  0  0  0  2  0  0  0  0  0  0
  162.2710  209.7390  156.1440 C   0  0  0  0  0  2  0  0  0  0  0  0
  160.1900  209.9210  152.4060 C   0  0  2  0  0  3  0  0  0  0  0  0
  161.6920  210.9720  154.0740 C   0  0  1  0  0  3  0  0  0  0  0  0
  159.0710  212.4640  151.8910 N   0  0  0  0  0  0  0  0  0  0  0  0
  159.7210  212.3600  152.9930 C   0  0  0  0  0  3  0  0  0  0  0  0
  158.4450  213.7070  151.5210 C   0  0  0  0  0  2  0  0  0  0  0  0
  157.6080  213.5220  150.3290 C   0  0  0  0  0  0  0  0  0  0  0  0
  156.9200  213.3710  149.3510 C   0  0  0  0  0  3  0  0  0  0  0  0
  162.0820  208.9670  150.6660 S   0  0  0  0  0  0  0  0  0  0  0  0
  161.6940  207.1820  150.7220 C   0  0  2  0  0  3  0  0  0  0  0  0
  160.6320  206.7630  149.6990 C   0  0  0  0  0  2  0  0  0  0  0  0
  161.5230  203.6140  147.7820 C   0  0  0  0  0  3  0  0  0  0  0  0
  161.1370  205.8560  148.6220 C   0  0  0  0  0  0  0  0  0  0  0  0
  162.1820  205.5320  146.4580 C   0  0  0  0  0  0  0  0  0  0  0  0
  161.0500  204.4680  148.7830 C   0  0  0  0  0  3  0  0  0  0  0  0
  161.7090  206.3860  147.4600 C   0  0  0  0  0  3  0  0  0  0  0  0
  162.7320  206.0470  145.3330 F   0  0  0  0  0  0  0  0  0  0  0  0
  162.0880  204.1470  146.6190 C   0  0  0  0  0  3  0  0  0  0  0  0
  161.4590  206.6430  152.1370 C   0  0  0  0  0  2  0  0  0  0  0  0
  160.9440  204.2340  152.3830 C   0  0  0  0  0  1  0  0  0  0  0  0
  162.0540  205.2610  152.3520 C   0  0  0  0  0  2  0  0  0  0  0  0
  1 12  1  6  0  0  0
  1  3  1  0  0  0  0
  1 10  1  0  0  0  0
  2  5  1  0  0  0  0
  2  4  1  1  0  0  0
  3  2  1  0  0  0  0
  5  8  2  0  0  0  0
  6  9  1  0  0  0  0
  6  7  1  0  0  0  0
  7 10  1  0  0  0  0
  9  1  1  0  0  0  0
  9  3  1  0  0  0  0
 10  5  1  0  0  0  0
 11 12  2  0  0  0  0
 13 11  1  0  0  0  0
 14 13  1  0  0  0  0
 15 14  3  0  0  0  0
 16 17  1  0  0  0  0
 16  6  1  0  0  0  0
 17 26  1  0  0  0  0
 18 17  1  0  0  0  0
 19 22  1  0  0  0  0
 20 22  2  0  0  0  0
 20 18  1  0  0  0  0
 21 25  1  0  0  0  0
 21 23  2  0  0  0  0
 23 20  1  0  0  0  0
 24 21  1  0  0  0  0
 25 19  2  0  0  0  0
 26 28  1  0  0  0  0
 28 27  1  0  0  0  0
M  END
>  <MODEL>
1

>  <REMARK>
 VINA RESULT:      -6.8      0.000      0.000
  Name = 
  9 active torsions:
  status: ('A' for Active; 'I' for Inactive)
    1  A    between atoms: C_1  and  C_11
    2  A    between atoms: C_6  and  N_8
    3  A    between atoms: C_6  and  C_22
    4  A    between atoms: C_9  and  C_18
    5  A    between atoms: C_10  and  S_14
    6  A    between atoms: C_10  and  C_18
    7  A    between atoms: C_10  and  C_25
    8  A    between atoms: S_14  and  C_17
    9  A    between atoms: C_20  and  C_25
                            x       y       z     vdW  Elec       q    Type
                         _______ _______ _______ _____ _____    ______ ____

>  <TORSDO>
F 9

$$$$
=
 OpenBabel11052423043D

 28 31  0  0  1  0  0  0  0  0999 V2000
  160.3810  211.0900  153.3040 C   0  0  2  0  0  0  0  0  0  0  0  0
  160.1450  209.4390  155.0520 C   0  0  2  0  0  3  0  0  0  0  0  0
  159.4430  210.0280  153.8210 C   0  0  2  0  0  3  0  0  0  0  0  0
  159.3300  209.6140  156.1700 O   0  0  0  0  0  1  0  0  0  0  0  0
  161.4030  210.2280  155.2120 C   0  0  0  0  0  0  0  0  0  0  0  0
  161.5040  209.1530  152.4540 C   0  0  1  0  0  3  0  0  0  0  0  0
  162.5220  210.1260  153.0480 C   0  0  0  0  0  2  0  0  0  0  0  0
  162.3130  209.9460  156.1450 C   0  0  0  0  0  2  0  0  0  0  0  0
  160.1570  209.8750  152.4450 C   0  0  2  0  0  3  0  0  0  0  0  0
  161.7250  211.0160  153.9890 C   0  0  1  0  0  3  0  0  0  0  0  0
  158.8630  212.3540  151.9250 N   0  0  0  0  0  0  0  0  0  0  0  0
  159.7720  212.3670  152.8310 C   0  0  0  0  0  3  0  0  0  0  0  0
  158.2640  213.5800  151.4650 C   0  0  0  0  0  2  0  0  0  0  0  0
  157.5910  213.3680  150.1780 C   0  0  0  0  0  0  0  0  0  0  0  0
  157.0390  213.1950  149.1200 C   0  0  0  0  0  3  0  0  0  0  0  0
  161.9820  208.7180  150.7570 S   0  0  0  0  0  0  0  0  0  0  0  0
  161.9270  206.9220  151.0900 C   0  0  2  0  0  3  0  0  0  0  0  0
  160.6720  206.2430  150.5290 C   0  0  0  0  0  2  0  0  0  0  0  0
  161.6340  204.5170  147.2920 C   0  0  0  0  0  3  0  0  0  0  0  0
  160.9490  205.1690  149.5250 C   0  0  0  0  0  0  0  0  0  0  0  0
  161.0300  202.8240  148.9150 C   0  0  0  0  0  0  0  0  0  0  0  0
  161.3760  205.5150  148.2370 C   0  0  0  0  0  3  0  0  0  0  0  0
  160.7720  203.8220  149.8610 C   0  0  0  0  0  3  0  0  0  0  0  0
  160.8620  201.5210  149.2440 F   0  0  0  0  0  0  0  0  0  0  0  0
  161.4620  203.1710  147.6320 C   0  0  0  0  0  3  0  0  0  0  0  0
  162.2540  206.5500  152.5400 C   0  0  0  0  0  2  0  0  0  0  0  0
  160.7060  206.2190  154.4440 C   0  0  0  0  0  1  0  0  0  0  0  0
  161.2270  205.6150  153.1580 C   0  0  0  0  0  2  0  0  0  0  0  0
  1 12  1  6  0  0  0
  1  3  1  0  0  0  0
  1 10  1  0  0  0  0
  2  5  1  0  0  0  0
  2  4  1  1  0  0  0
  3  2  1  0  0  0  0
  5  8  2  0  0  0  0
  6  7  1  0  0  0  0
  7 10  1  0  0  0  0
  9  6  1  0  0  0  0
  9  1  1  0  0  0  0
  9  3  1  0  0  0  0
 10  5  1  0  0  0  0
 11 12  2  0  0  0  0
 13 11  1  0  0  0  0
 14 13  1  0  0  0  0
 15 14  3  0  0  0  0
 16 17  1  0  0  0  0
 16  6  1  0  0  0  0
 17 26  1  0  0  0  0
 18 17  1  0  0  0  0
 19 25  2  0  0  0  0
 19 22  1  0  0  0  0
 20 23  1  0  0  0  0
 20 18  1  0  0  0  0
 21 24  1  0  0  0  0
 21 23  2  0  0  0  0
 22 20  2  0  0  0  0
 25 21  1  0  0  0  0
 26 28  1  0  0  0  0
 28 27  1  0  0  0  0
M  END
>  <MODEL>
2

>  <REMARK>
 VINA RESULT:      -6.7      1.410      1.751
  Name = 
  9 active torsions:
  status: ('A' for Active; 'I' for Inactive)
    1  A    between atoms: C_1  and  C_11
    2  A    between atoms: C_6  and  N_8
    3  A    between atoms: C_6  and  C_22
    4  A    between atoms: C_9  and  C_18
    5  A    between atoms: C_10  and  S_14
    6  A    between atoms: C_10  and  C_18
    7  A    between atoms: C_10  and  C_25
    8  A    between atoms: S_14  and  C_17
    9  A    between atoms: C_20  and  C_25
                            x       y       z     vdW  Elec       q    Type
                         _______ _______ _______ _____ _____    ______ ____

>  <TORSDO>
F 9

$$$$
=
 OpenBabel11052423043D

 28 31  0  0  1  0  0  0  0  0999 V2000
  160.2940  210.9830  153.6580 C   0  0  2  0  0  0  0  0  0  0  0  0
  160.2180  208.9980  155.0340 C   0  0  2  0  0  3  0  0  0  0  0  0
  159.4640  209.7530  153.9300 C   0  0  2  0  0  3  0  0  0  0  0  0
  159.3870  208.8660  156.1460 O   0  0  0  0  0  1  0  0  0  0  0  0
  161.3920  209.8570  155.3770 C   0  0  0  0  0  0  0  0  0  0  0  0
  161.6060  209.3750  152.4620 C   0  0  1  0  0  3  0  0  0  0  0  0
  162.5200  210.3020  153.2620 C   0  0  0  0  0  2  0  0  0  0  0  0
  162.3220  209.4820  156.2550 C   0  0  0  0  0  2  0  0  0  0  0  0
  160.1940  209.9500  152.5680 C   0  0  2  0  0  3  0  0  0  0  0  0
  161.6360  210.9030  154.3450 C   0  0  1  0  0  3  0  0  0  0  0  0
  158.2920  212.2600  153.2490 N   0  0  0  0  0  0  0  0  0  0  0  0
  159.5620  212.2640  153.4370 C   0  0  0  0  0  3  0  0  0  0  0  0
  157.5750  213.4910  153.0400 C   0  0  0  0  0  2  0  0  0  0  0  0
  156.4820  213.6170  154.0120 C   0  0  0  0  0  0  0  0  0  0  0  0
  155.5840  213.7190  154.8100 C   0  0  0  0  0  3  0  0  0  0  0  0
  162.1290  209.3390  150.7250 S   0  0  0  0  0  0  0  0  0  0  0  0
  162.0770  207.5140  150.6370 C   0  0  2  0  0  3  0  0  0  0  0  0
  160.8970  206.9830  149.8150 C   0  0  0  0  0  2  0  0  0  0  0  0
  161.4700  203.7410  147.9320 C   0  0  0  0  0  3  0  0  0  0  0  0
  161.2820  206.0210  148.7350 C   0  0  0  0  0  0  0  0  0  0  0  0
  162.1840  205.5810  146.5280 C   0  0  0  0  0  0  0  0  0  0  0  0
  161.1100  204.6470  148.9350 C   0  0  0  0  0  3  0  0  0  0  0  0
  161.8240  206.4870  147.5310 C   0  0  0  0  0  3  0  0  0  0  0  0
  162.7050  206.0340  145.3630 F   0  0  0  0  0  0  0  0  0  0  0  0
  162.0060  204.2090  146.7280 C   0  0  0  0  0  3  0  0  0  0  0  0
  162.2670  206.8230  151.9920 C   0  0  0  0  0  2  0  0  0  0  0  0
  161.2130  204.6760  152.6330 C   0  0  0  0  0  1  0  0  0  0  0  0
  160.9960  206.1680  152.5060 C   0  0  0  0  0  2  0  0  0  0  0  0
  1 12  1  6  0  0  0
  1  3  1  0  0  0  0
  1 10  1  0  0  0  0
  2  5  1  0  0  0  0
  2  4  1  1  0  0  0
  3  2  1  0  0  0  0
  5  8  2  0  0  0  0
  6  9  1  0  0  0  0
  6  7  1  0  0  0  0
  7 10  1  0  0  0  0
  9  1  1  0  0  0  0
  9  3  1  0  0  0  0
 10  5  1  0  0  0  0
 11 12  2  0  0  0  0
 13 11  1  0  0  0  0
 13 14  1  0  0  0  0
 14 15  3  0  0  0  0
 16  6  1  0  0  0  0
 17 16  1  0  0  0  0
 17 26  1  0  0  0  0
 18 17  1  0  0  0  0
 19 22  1  0  0  0  0
 20 22  2  0  0  0  0
 20 18  1  0  0  0  0
 21 25  1  0  0  0  0
 21 23  2  0  0  0  0
 23 20  1  0  0  0  0
 24 21  1  0  0  0  0
 25 19  2  0  0  0  0
 26 28  1  0  0  0  0
 28 27  1  0  0  0  0
M  END
>  <MODEL>
3

>  <REMARK>
 VINA RESULT:      -6.6      1.166      1.426
  Name = 
  9 active torsions:
  status: ('A' for Active; 'I' for Inactive)
    1  A    between atoms: C_1  and  C_11
    2  A    between atoms: C_6  and  N_8
    3  A    between atoms: C_6  and  C_22
    4  A    between atoms: C_9  and  C_18
    5  A    between atoms: C_10  and  S_14
    6  A    between atoms: C_10  and  C_18
    7  A    between atoms: C_10  and  C_25
    8  A    between atoms: S_14  and  C_17
    9  A    between atoms: C_20  and  C_25
                            x       y       z     vdW  Elec       q    Type
                         _______ _______ _______ _____ _____    ______ ____

>  <TORSDO>
F 9

$$$$
=
 OpenBabel11052423043D

 28 31  0  0  1  0  0  0  0  0999 V2000
  159.3270  212.0690  153.4750 C   0  0  2  0  0  0  0  0  0  0  0  0
  158.4810  210.8920  155.4080 C   0  0  2  0  0  3  0  0  0  0  0  0
  158.1300  211.2950  153.9690 C   0  0  2  0  0  3  0  0  0  0  0  0
  157.5290  211.4260  156.2770 O   0  0  0  0  0  1  0  0  0  0  0  0
  159.8160  211.5030  155.6820 C   0  0  0  0  0  0  0  0  0  0  0  0
  160.2000  209.8490  153.2540 C   0  0  1  0  0  3  0  0  0  0  0  0
  161.2600  210.7680  153.8590 C   0  0  0  0  0  2  0  0  0  0  0  0
  160.4780  211.3010  156.8210 C   0  0  0  0  0  2  0  0  0  0  0  0
  159.0340  210.7420  152.8280 C   0  0  2  0  0  3  0  0  0  0  0  0
  160.4900  211.9490  154.4300 C   0  0  1  0  0  3  0  0  0  0  0  0
  159.2980  213.2840  151.3950 N   0  0  0  0  0  0  0  0  0  0  0  0
  159.0610  213.2880  152.6560 C   0  0  0  0  0  3  0  0  0  0  0  0
  159.0400  214.4530  150.5950 C   0  0  0  0  0  2  0  0  0  0  0  0
  157.7760  214.3010  149.8630 C   0  0  0  0  0  0  0  0  0  0  0  0
  156.7390  214.1750  149.2610 C   0  0  0  0  0  3  0  0  0  0  0  0
  160.8790  208.9890  151.8080 S   0  0  0  0  0  0  0  0  0  0  0  0
  161.6400  207.6700  152.8170 C   0  0  2  0  0  3  0  0  0  0  0  0
  162.5550  206.7430  152.0080 C   0  0  0  0  0  2  0  0  0  0  0  0
  160.6640  204.8470  149.3230 C   0  0  0  0  0  3  0  0  0  0  0  0
  161.8380  205.6450  151.2890 C   0  0  0  0  0  0  0  0  0  0  0  0
  160.9800  203.3780  151.2220 C   0  0  0  0  0  0  0  0  0  0  0  0
  161.3380  205.8680  150.0010 C   0  0  0  0  0  3  0  0  0  0  0  0
  161.6530  204.3990  151.9000 C   0  0  0  0  0  3  0  0  0  0  0  0
  160.8060  202.1730  151.8140 F   0  0  0  0  0  0  0  0  0  0  0  0
  160.4860  203.6010  149.9340 C   0  0  0  0  0  3  0  0  0  0  0  0
  160.6510  206.9420  153.7340 C   0  0  0  0  0  2  0  0  0  0  0  0
  159.7820  207.4170  156.0030 C   0  0  0  0  0  1  0  0  0  0  0  0
  161.0150  207.0540  155.2060 C   0  0  0  0  0  2  0  0  0  0  0  0
  1 12  1  6  0  0  0
  1  3  1  0  0  0  0
  1 10  1  0  0  0  0
  2  5  1  0  0  0  0
  2  4  1  1  0  0  0
  3  2  1  0  0  0  0
  5  8  2  0  0  0  0
  6  7  1  0  0  0  0
  7 10  1  0  0  0  0
  9  6  1  0  0  0  0
  9  1  1  0  0  0  0
  9  3  1  0  0  0  0
 10  5  1  0  0  0  0
 11 12  2  0  0  0  0
 13 11  1  0  0  0  0
 14 13  1  0  0  0  0
 15 14  3  0  0  0  0
 16 17  1  0  0  0  0
 16  6  1  0  0  0  0
 17 26  1  0  0  0  0
 18 17  1  0  0  0  0
 19 25  2  0  0  0  0
 19 22  1  0  0  0  0
 20 23  1  0  0  0  0
 20 18  1  0  0  0  0
 21 24  1  0  0  0  0
 21 23  2  0  0  0  0
 22 20  2  0  0  0  0
 25 21  1  0  0  0  0
 26 28  1  0  0  0  0
 28 27  1  0  0  0  0
M  END
>  <MODEL>
4

>  <REMARK>
 VINA RESULT:      -6.0      2.214      2.959
  Name = 
  9 active torsions:
  status: ('A' for Active; 'I' for Inactive)
    1  A    between atoms: C_1  and  C_11
    2  A    between atoms: C_6  and  N_8
    3  A    between atoms: C_6  and  C_22
    4  A    between atoms: C_9  and  C_18
    5  A    between atoms: C_10  and  S_14
    6  A    between atoms: C_10  and  C_18
    7  A    between atoms: C_10  and  C_25
    8  A    between atoms: S_14  and  C_17
    9  A    between atoms: C_20  and  C_25
                            x       y       z     vdW  Elec       q    Type
                         _______ _______ _______ _____ _____    ______ ____

>  <TORSDO>
F 9

$$$$
=
 OpenBabel11052423043D

 28 31  0  0  1  0  0  0  0  0999 V2000
  161.1070  205.4000  148.2710 C   0  0  2  0  0  0  0  0  0  0  0  0
  160.5670  206.2940  146.0920 C   0  0  2  0  0  3  0  0  0  0  0  0
  159.9890  206.0480  147.4920 C   0  0  2  0  0  3  0  0  0  0  0  0
  159.7930  205.6130  145.1520 O   0  0  0  0  0  1  0  0  0  0  0  0
  161.9470  205.7230  146.1210 C   0  0  0  0  0  0  0  0  0  0  0  0
  161.8620  207.6730  148.3500 C   0  0  1  0  0  3  0  0  0  0  0  0
  163.0370  206.7440  148.0490 C   0  0  0  0  0  2  0  0  0  0  0  0
  162.7860  205.8220  145.0900 C   0  0  0  0  0  2  0  0  0  0  0  0
  160.6690  206.7790  148.6880 C   0  0  2  0  0  3  0  0  0  0  0  0
  162.4120  205.4650  147.5130 C   0  0  1  0  0  3  0  0  0  0  0  0
  160.5480  203.0990  148.7100 N   0  0  0  0  0  0  0  0  0  0  0  0
  160.7430  204.2770  149.1810 C   0  0  0  0  0  3  0  0  0  0  0  0
  160.2010  202.0060  149.5800 C   0  0  0  0  0  2  0  0  0  0  0  0
  161.1460  201.9270  150.7010 C   0  0  0  0  0  0  0  0  0  0  0  0
  161.9220  201.8630  151.6210 C   0  0  0  0  0  3  0  0  0  0  0  0
  162.2600  208.7330  149.7690 S   0  0  0  0  0  0  0  0  0  0  0  0
  161.5020  207.5850  150.9720 C   0  0  2  0  0  3  0  0  0  0  0  0
  160.4300  208.2480  151.8460 C   0  0  0  0  0  2  0  0  0  0  0  0
  162.0580  210.6090  154.3270 C   0  0  0  0  0  3  0  0  0  0  0  0
  160.9470  208.8180  153.1290 C   0  0  0  0  0  0  0  0  0  0  0  0
  161.3100  208.6380  155.5200 C   0  0  0  0  0  0  0  0  0  0  0  0
  161.5700  210.0710  153.1320 C   0  0  0  0  0  3  0  0  0  0  0  0
  160.8220  208.1000  154.3240 C   0  0  0  0  0  3  0  0  0  0  0  0
  161.1860  207.9430  156.6750 F   0  0  0  0  0  0  0  0  0  0  0  0
  161.9270  209.8920  155.5210 C   0  0  0  0  0  3  0  0  0  0  0  0
  162.5180  206.7400  151.7480 C   0  0  0  0  0  2  0  0  0  0  0  0
  161.2220  205.0830  153.0530 C   0  0  0  0  0  1  0  0  0  0  0  0
  162.1180  205.2770  151.8490 C   0  0  0  0  0  2  0  0  0  0  0  0
  1  9  1  0  0  0  0
  1 12  1  1  0  0  0
  2  4  1  6  0  0  0
  2  5  1  0  0  0  0
  2  3  1  0  0  0  0
  3  1  1  0  0  0  0
  3  9  1  0  0  0  0
  5 10  1  0  0  0  0
  6  9  1  0  0  0  0
  6 16  1  0  0  0  0
  7  6  1  0  0  0  0
  8  5  2  0  0  0  0
 10  7  1  0  0  0  0
 10  1  1  0  0  0  0
 11 12  2  0  0  0  0
 11 13  1  0  0  0  0
 13 14  1  0  0  0  0
 14 15  3  0  0  0  0
 16 17  1  0  0  0  0
 17 26  1  0  0  0  0
 17 18  1  0  0  0  0
 18 20  1  0  0  0  0
 19 25  1  0  0  0  0
 20 22  1  0  0  0  0
 20 23  2  0  0  0  0
 21 25  2  0  0  0  0
 21 24  1  0  0  0  0
 22 19  2  0  0  0  0
 23 21  1  0  0  0  0
 26 28  1  0  0  0  0
 28 27  1  0  0  0  0
M  END
>  <MODEL>
5

>  <REMARK>
 VINA RESULT:      -5.9      4.265      8.315
  Name = 
  9 active torsions:
  status: ('A' for Active; 'I' for Inactive)
    1  A    between atoms: C_1  and  C_11
    2  A    between atoms: C_6  and  N_8
    3  A    between atoms: C_6  and  C_22
    4  A    between atoms: C_9  and  C_18
    5  A    between atoms: C_10  and  S_14
    6  A    between atoms: C_10  and  C_18
    7  A    between atoms: C_10  and  C_25
    8  A    between atoms: S_14  and  C_17
    9  A    between atoms: C_20  and  C_25
                            x       y       z     vdW  Elec       q    Type
                         _______ _______ _______ _____ _____    ______ ____

>  <TORSDO>
F 9

$$$$
=
 OpenBabel11052423043D

 28 31  0  0  1  0  0  0  0  0999 V2000
  159.9820  210.7000  154.7930 C   0  0  2  0  0  0  0  0  0  0  0  0
  160.5080  208.5820  155.8290 C   0  0  2  0  0  3  0  0  0  0  0  0
  159.4970  209.2760  154.9060 C   0  0  2  0  0  3  0  0  0  0  0  0
  159.8390  208.0860  156.9490 O   0  0  0  0  0  1  0  0  0  0  0  0
  161.4700  209.6460  156.2440 C   0  0  0  0  0  0  0  0  0  0  0  0
  161.5220  209.6600  153.2820 C   0  0  1  0  0  3  0  0  0  0  0  0
  162.2600  210.6600  154.1710 C   0  0  0  0  0  2  0  0  0  0  0  0
  162.5400  209.3920  156.9970 C   0  0  0  0  0  2  0  0  0  0  0  0
  160.0300  209.8430  153.5570 C   0  0  2  0  0  3  0  0  0  0  0  0
  161.3630  210.8580  155.3840 C   0  0  1  0  0  3  0  0  0  0  0  0
  157.7130  211.4930  154.6230 N   0  0  0  0  0  0  0  0  0  0  0  0
  158.9490  211.7760  154.8240 C   0  0  0  0  0  3  0  0  0  0  0  0
  156.7080  212.5240  154.6550 C   0  0  0  0  0  2  0  0  0  0  0  0
  156.9020  213.4610  153.5430 C   0  0  0  0  0  0  0  0  0  0  0  0
  157.0610  214.2300  152.6280 C   0  0  0  0  0  3  0  0  0  0  0  0
  161.8750  210.0070  151.5360 S   0  0  0  0  0  0  0  0  0  0  0  0
  161.6600  208.2620  151.0370 C   0  0  2  0  0  3  0  0  0  0  0  0
  161.5110  207.3080  152.2270 C   0  0  0  0  0  2  0  0  0  0  0  0
  160.9840  203.5620  152.4880 C   0  0  0  0  0  3  0  0  0  0  0  0
  161.2430  205.8860  151.8480 C   0  0  0  0  0  0  0  0  0  0  0  0
  160.7730  204.2070  150.1630 C   0  0  0  0  0  0  0  0  0  0  0  0
  161.2300  204.8940  152.8360 C   0  0  0  0  0  3  0  0  0  0  0  0
  161.0200  205.5390  150.5100 C   0  0  0  0  0  3  0  0  0  0  0  0
  160.5540  203.8740  148.8690 F   0  0  0  0  0  0  0  0  0  0  0  0
  160.7550  203.2190  151.1520 C   0  0  0  0  0  3  0  0  0  0  0  0
  162.6570  207.7950  149.9710 C   0  0  0  0  0  2  0  0  0  0  0  0
  162.0570  207.1650  147.6530 C   0  0  0  0  0  1  0  0  0  0  0  0
  162.3330  208.3250  148.5840 C   0  0  0  0  0  2  0  0  0  0  0  0
  1 12  1  1  0  0  0
  1  3  1  0  0  0  0
  1 10  1  0  0  0  0
  2  5  1  0  0  0  0
  2  4  1  1  0  0  0
  3  2  1  0  0  0  0
  5  8  2  0  0  0  0
  6  9  1  0  0  0  0
  6  7  1  0  0  0  0
  7 10  1  0  0  0  0
  9  1  1  0  0  0  0
  9  3  1  0  0  0  0
 10  5  1  0  0  0  0
 11 13  1  0  0  0  0
 11 12  2  0  0  0  0
 14 13  1  0  0  0  0
 15 14  3  0  0  0  0
 16  6  1  0  0  0  0
 17 16  1  0  0  0  0
 17 18  1  0  0  0  0
 19 22  1  0  0  0  0
 20 18  1  0  0  0  0
 20 22  2  0  0  0  0
 21 23  2  0  0  0  0
 21 25  1  0  0  0  0
 23 20  1  0  0  0  0
 24 21  1  0  0  0  0
 25 19  2  0  0  0  0
 26 17  1  0  0  0  0
 27 28  1  0  0  0  0
 28 26  1  0  0  0  0
M  END
>  <MODEL>
6

>  <REMARK>
 VINA RESULT:      -5.7      1.914      3.067
  Name = 
  9 active torsions:
  status: ('A' for Active; 'I' for Inactive)
    1  A    between atoms: C_1  and  C_11
    2  A    between atoms: C_6  and  N_8
    3  A    between atoms: C_6  and  C_22
    4  A    between atoms: C_9  and  C_18
    5  A    between atoms: C_10  and  S_14
    6  A    between atoms: C_10  and  C_18
    7  A    between atoms: C_10  and  C_25
    8  A    between atoms: S_14  and  C_17
    9  A    between atoms: C_20  and  C_25
                            x       y       z     vdW  Elec       q    Type
                         _______ _______ _______ _____ _____    ______ ____

>  <TORSDO>
F 9

$$$$
=
 OpenBabel11052423043D

 28 31  0  0  1  0  0  0  0  0999 V2000
  161.4040  205.0990  150.6790 C   0  0  2  0  0  0  0  0  0  0  0  0
  160.5300  206.8220  149.2280 C   0  0  2  0  0  3  0  0  0  0  0  0
  160.1120  205.6530  150.1310 C   0  0  2  0  0  3  0  0  0  0  0  0
  160.0810  206.5780  147.9290 O   0  0  0  0  0  1  0  0  0  0  0  0
  162.0230  206.8350  149.2540 C   0  0  0  0  0  0  0  0  0  0  0  0
  161.1920  207.0220  152.0910 C   0  0  1  0  0  3  0  0  0  0  0  0
  162.6370  206.8830  151.6130 C   0  0  0  0  0  2  0  0  0  0  0  0
  162.7430  207.7710  148.6350 C   0  0  0  0  0  2  0  0  0  0  0  0
  160.4570  205.7580  151.6460 C   0  0  2  0  0  3  0  0  0  0  0  0
  162.5670  206.0110  150.3690 C   0  0  1  0  0  3  0  0  0  0  0  0
  160.7410  202.8590  150.0890 N   0  0  0  0  0  0  0  0  0  0  0  0
  161.5270  203.6150  150.7670 C   0  0  0  0  0  3  0  0  0  0  0  0
  160.8540  201.4260  150.1630 C   0  0  0  0  0  2  0  0  0  0  0  0
  161.2060  200.8740  148.8490 C   0  0  0  0  0  0  0  0  0  0  0  0
  161.4970  200.4200  147.7700 C   0  0  0  0  0  3  0  0  0  0  0  0
  161.1490  207.1560  153.9000 S   0  0  0  0  0  0  0  0  0  0  0  0
  160.8540  208.9590  153.8660 C   0  0  2  0  0  3  0  0  0  0  0  0
  160.4560  209.4780  152.4790 C   0  0  0  0  0  2  0  0  0  0  0  0
  158.1160  212.3400  153.3260 C   0  0  0  0  0  3  0  0  0  0  0  0
  159.8190  210.8320  152.4870 C   0  0  0  0  0  0  0  0  0  0  0  0
  159.7070  213.1130  151.6720 C   0  0  0  0  0  0  0  0  0  0  0  0
  158.7180  211.0780  153.3160 C   0  0  0  0  0  3  0  0  0  0  0  0
  160.3090  211.8510  151.6610 C   0  0  0  0  0  3  0  0  0  0  0  0
  160.1860  214.0980  150.8750 F   0  0  0  0  0  0  0  0  0  0  0  0
  158.6120  213.3580  152.5050 C   0  0  0  0  0  3  0  0  0  0  0  0
  161.9450  209.7800  154.5610 C   0  0  0  0  0  2  0  0  0  0  0  0
  160.3310  209.7800  156.4380 C   0  0  0  0  0  1  0  0  0  0  0  0
  161.4250  210.5680  155.7520 C   0  0  0  0  0  2  0  0  0  0  0  0
  1 12  1  1  0  0  0
  1  9  1  0  0  0  0
  2  4  1  6  0  0  0
  2  5  1  0  0  0  0
  2  3  1  0  0  0  0
  3  1  1  0  0  0  0
  3  9  1  0  0  0  0
  5 10  1  0  0  0  0
  6 16  1  0  0  0  0
  7  6  1  0  0  0  0
  8  5  2  0  0  0  0
  9  6  1  0  0  0  0
 10  1  1  0  0  0  0
 10  7  1  0  0  0  0
 11 13  1  0  0  0  0
 11 12  2  0  0  0  0
 14 13  1  0  0  0  0
 15 14  3  0  0  0  0
 17 16  1  0  0  0  0
 17 26  1  0  0  0  0
 18 20  1  0  0  0  0
 18 17  1  0  0  0  0
 20 22  2  0  0  0  0
 21 25  1  0  0  0  0
 22 19  1  0  0  0  0
 23 21  2  0  0  0  0
 23 20  1  0  0  0  0
 24 21  1  0  0  0  0
 25 19  2  0  0  0  0
 26 28  1  0  0  0  0
 28 27  1  0  0  0  0
M  END
>  <MODEL>
7

>  <REMARK>
 VINA RESULT:      -5.5      3.659      8.085
  Name = 
  9 active torsions:
  status: ('A' for Active; 'I' for Inactive)
    1  A    between atoms: C_1  and  C_11
    2  A    between atoms: C_6  and  N_8
    3  A    between atoms: C_6  and  C_22
    4  A    between atoms: C_9  and  C_18
    5  A    between atoms: C_10  and  S_14
    6  A    between atoms: C_10  and  C_18
    7  A    between atoms: C_10  and  C_25
    8  A    between atoms: S_14  and  C_17
    9  A    between atoms: C_20  and  C_25
                            x       y       z     vdW  Elec       q    Type
                         _______ _______ _______ _____ _____    ______ ____

>  <TORSDO>
F 9

$$$$
=
 OpenBabel11052423043D

 28 31  0  0  1  0  0  0  0  0999 V2000
  158.8310  212.5460  153.7920 C   0  0  2  0  0  0  0  0  0  0  0  0
  157.3280  211.0520  154.9520 C   0  0  2  0  0  3  0  0  0  0  0  0
  158.0600  211.2610  153.6190 C   0  0  2  0  0  3  0  0  0  0  0  0
  155.9530  211.0080  154.7150 O   0  0  0  0  0  1  0  0  0  0  0  0
  157.6610  212.2460  155.7850 C   0  0  0  0  0  0  0  0  0  0  0  0
  160.2730  211.0770  155.0190 C   0  0  1  0  0  3  0  0  0  0  0  0
  160.0950  212.3890  155.7810 C   0  0  0  0  0  2  0  0  0  0  0  0
  157.2550  212.3760  157.0480 C   0  0  0  0  0  2  0  0  0  0  0  0
  159.6180  211.2700  153.6510 C   0  0  2  0  0  3  0  0  0  0  0  0
  158.8170  213.0050  155.2310 C   0  0  1  0  0  3  0  0  0  0  0  0
  159.4630  213.1530  151.5480 N   0  0  0  0  0  0  0  0  0  0  0  0
  158.8610  213.4840  152.6330 C   0  0  0  0  0  3  0  0  0  0  0  0
  159.4930  214.0490  150.4210 C   0  0  0  0  0  2  0  0  0  0  0  0
  160.4660  213.5830  149.4250 C   0  0  0  0  0  0  0  0  0  0  0  0
  161.2640  213.1980  148.6080 C   0  0  0  0  0  3  0  0  0  0  0  0
  162.0390  210.7170  154.8110 S   0  0  0  0  0  0  0  0  0  0  0  0
  161.8240  208.9350  155.1550 C   0  0  2  0  0  3  0  0  0  0  0  0
  160.6700  208.3040  154.3680 C   0  0  0  0  0  2  0  0  0  0  0  0
  161.7180  207.8320  150.7540 C   0  0  0  0  0  3  0  0  0  0  0  0
  161.0820  207.6510  153.0870 C   0  0  0  0  0  0  0  0  0  0  0  0
  161.5870  205.6550  151.8060 C   0  0  0  0  0  0  0  0  0  0  0  0
  161.3350  208.4360  151.9560 C   0  0  0  0  0  3  0  0  0  0  0  0
  161.2030  206.2580  153.0080 C   0  0  0  0  0  3  0  0  0  0  0  0
  161.7070  204.3080  151.7340 F   0  0  0  0  0  0  0  0  0  0  0  0
  161.8440  206.4410  150.6800 C   0  0  0  0  0  3  0  0  0  0  0  0
  161.8390  208.5860  156.6470 C   0  0  0  0  0  2  0  0  0  0  0  0
  160.1080  206.9250  157.2570 C   0  0  0  0  0  1  0  0  0  0  0  0
  160.4460  208.3990  157.2260 C   0  0  0  0  0  2  0  0  0  0  0  0
  1 12  1  6  0  0  0
  1 10  1  0  0  0  0
  2  4  1  6  0  0  0
  2  5  1  0  0  0  0
  3  9  1  0  0  0  0
  3  1  1  0  0  0  0
  3  2  1  0  0  0  0
  5  8  2  0  0  0  0
  6  7  1  0  0  0  0
  9  1  1  0  0  0  0
  9  6  1  0  0  0  0
 10  7  1  0  0  0  0
 10  5  1  0  0  0  0
 11 12  2  0  0  0  0
 13 11  1  0  0  0  0
 14 13  1  0  0  0  0
 15 14  3  0  0  0  0
 16  6  1  0  0  0  0
 16 17  1  0  0  0  0
 17 26  1  0  0  0  0
 18 17  1  0  0  0  0
 19 22  1  0  0  0  0
 20 18  1  0  0  0  0
 21 23  2  0  0  0  0
 22 20  2  0  0  0  0
 23 20  1  0  0  0  0
 24 21  1  0  0  0  0
 25 19  2  0  0  0  0
 25 21  1  0  0  0  0
 26 28  1  0  0  0  0
 28 27  1  0  0  0  0
M  END
>  <MODEL>
8

>  <REMARK>
 VINA RESULT:      -5.4      2.709      4.352
  Name = 
  9 active torsions:
  status: ('A' for Active; 'I' for Inactive)
    1  A    between atoms: C_1  and  C_11
    2  A    between atoms: C_6  and  N_8
    3  A    between atoms: C_6  and  C_22
    4  A    between atoms: C_9  and  C_18
    5  A    between atoms: C_10  and  S_14
    6  A    between atoms: C_10  and  C_18
    7  A    between atoms: C_10  and  C_25
    8  A    between atoms: S_14  and  C_17
    9  A    between atoms: C_20  and  C_25
                            x       y       z     vdW  Elec       q    Type
                         _______ _______ _______ _____ _____    ______ ____

>  <TORSDO>
F 9

$$$$
=
 OpenBabel11052423043D

 28 31  0  0  1  0  0  0  0  0999 V2000
  161.7790  208.1790  151.4380 C   0  0  2  0  0  0  0  0  0  0  0  0
  161.1430  205.9660  152.1670 C   0  0  2  0  0  3  0  0  0  0  0  0
  160.5750  207.3410  151.7910 C   0  0  2  0  0  3  0  0  0  0  0  0
  160.7760  205.6650  153.4800 O   0  0  0  0  0  1  0  0  0  0  0  0
  162.6270  206.1050  152.0750 C   0  0  0  0  0  0  0  0  0  0  0  0
  161.6020  206.9090  149.4150 C   0  0  1  0  0  3  0  0  0  0  0  0
  163.0650  206.9970  149.8490 C   0  0  0  0  0  2  0  0  0  0  0  0
  163.4570  205.0790  152.2640 C   0  0  0  0  0  2  0  0  0  0  0  0
  160.8130  207.8400  150.3350 C   0  0  2  0  0  3  0  0  0  0  0  0
  163.0250  207.3330  151.3320 C   0  0  1  0  0  3  0  0  0  0  0  0
  160.7440  210.0970  152.4650 N   0  0  0  0  0  0  0  0  0  0  0  0
  161.7870  209.5940  151.9110 C   0  0  0  0  0  3  0  0  0  0  0  0
  160.7430  211.4600  152.9310 C   0  0  0  0  0  2  0  0  0  0  0  0
  159.5620  212.1710  152.4240 C   0  0  0  0  0  0  0  0  0  0  0  0
  158.5930  212.7560  152.0100 C   0  0  0  0  0  3  0  0  0  0  0  0
  161.4340  207.4550  147.6920 S   0  0  0  0  0  0  0  0  0  0  0  0
  160.8540  205.8190  147.1200 C   0  0  2  0  0  3  0  0  0  0  0  0
  161.8970  204.7110  147.3070 C   0  0  0  0  0  2  0  0  0  0  0  0
  160.7680  201.2360  148.3230 C   0  0  0  0  0  3  0  0  0  0  0  0
  161.4310  203.5610  148.1430 C   0  0  0  0  0  0  0  0  0  0  0  0
  160.7670  202.6490  150.2900 C   0  0  0  0  0  0  0  0  0  0  0  0
  161.2060  202.3140  147.5480 C   0  0  0  0  0  3  0  0  0  0  0  0
  161.2050  203.7280  149.5150 C   0  0  0  0  0  3  0  0  0  0  0  0
  160.5530  202.8120  151.6170 F   0  0  0  0  0  0  0  0  0  0  0  0
  160.5490  201.4030  149.6940 C   0  0  0  0  0  3  0  0  0  0  0  0
  160.1970  205.8440  145.7360 C   0  0  0  0  0  2  0  0  0  0  0  0
  161.5810  205.4530  143.7210 C   0  0  0  0  0  1  0  0  0  0  0  0
  160.7520  204.7860  144.7970 C   0  0  0  0  0  2  0  0  0  0  0  0
  1  3  1  0  0  0  0
  1 12  1  1  0  0  0
  2  4  1  1  0  0  0
  3  2  1  0  0  0  0
  5  2  1  0  0  0  0
  5  8  2  0  0  0  0
  6  7  1  0  0  0  0
  6  9  1  0  0  0  0
  7 10  1  0  0  0  0
  9  1  1  0  0  0  0
  9  3  1  0  0  0  0
 10  1  1  0  0  0  0
 10  5  1  0  0  0  0
 11 13  1  0  0  0  0
 12 11  2  0  0  0  0
 14 13  1  0  0  0  0
 15 14  3  0  0  0  0
 16  6  1  0  0  0  0
 17 18  1  0  0  0  0
 17 16  1  0  0  0  0
 18 20  1  0  0  0  0
 19 25  1  0  0  0  0
 20 23  2  0  0  0  0
 21 24  1  0  0  0  0
 22 20  1  0  0  0  0
 22 19  2  0  0  0  0
 23 21  1  0  0  0  0
 25 21  2  0  0  0  0
 26 17  1  0  0  0  0
 27 28  1  0  0  0  0
 28 26  1  0  0  0  0
M  END
>  <MODEL>
9

>  <REMARK>
 VINA RESULT:      -5.4      2.486      4.633
  Name = 
  9 active torsions:
  status: ('A' for Active; 'I' for Inactive)
    1  A    between atoms: C_1  and  C_11
    2  A    between atoms: C_6  and  N_8
    3  A    between atoms: C_6  and  C_22
    4  A    between atoms: C_9  and  C_18
    5  A    between atoms: C_10  and  S_14
    6  A    between atoms: C_10  and  C_18
    7  A    between atoms: C_10  and  C_25
    8  A    between atoms: S_14  and  C_17
    9  A    between atoms: C_20  and  C_25
                            x       y       z     vdW  Elec       q    Type
                         _______ _______ _______ _____ _____    ______ ____

>  <TORSDO>
F 9

$$$$
