=
 OpenBabel11062408243D

 32 37  0  0  1  0  0  0  0  0999 V2000
  161.0920  207.3850  149.6930 C   0  0  1  0  0  3  0  0  0  0  0  0
  161.6950  209.5750  152.1750 C   0  0  0  0  0  0  0  0  0  0  0  0
  160.7810  203.5620  149.0560 C   0  0  0  0  0  0  0  0  0  0  0  0
  162.4700  207.7270  149.0930 C   0  0  0  0  0  2  0  0  0  0  0  0
  162.2710  209.6250  150.9680 N   0  0  0  0  0  0  0  0  0  0  0  0
  160.8780  210.6280  152.5910 C   0  0  0  0  0  0  0  0  0  0  0  0
  160.3830  203.2460  147.7990 F   0  0  0  0  0  0  0  0  0  0  0  0
  160.1370  207.0330  156.0650 C   0  0  0  0  0  3  0  0  0  0  0  0
  161.6730  208.3230  152.8610 N   0  0  0  0  0  0  0  0  0  0  0  0
  159.4790  209.4380  155.8880 C   0  0  0  0  0  3  0  0  0  0  0  0
  160.2100  209.4540  154.5740 C   0  0  0  0  0  0  0  0  0  0  0  0
  161.9670  210.5660  150.0600 C   0  0  0  0  0  0  0  0  0  0  0  0
  161.1910  205.2070  150.7740 C   0  0  0  0  0  0  0  0  0  0  0  0
  160.1900  210.5380  153.8500 N   0  0  0  0  0  0  0  0  0  0  0  0
  161.1820  211.6170  150.4250 N   0  0  0  0  0  0  0  0  0  0  0  0
  161.2010  202.5530  149.9330 C   0  0  0  0  0  3  0  0  0  0  0  0
  161.5970  204.2080  151.6650 C   0  0  0  0  0  3  0  0  0  0  0  0
  162.2080  210.2340  148.6470 C   0  0  0  0  0  3  0  0  0  0  0  0
  160.7600  204.8860  149.5020 C   0  0  0  0  0  0  0  0  0  0  0  0
  160.2270  206.2760  148.5190 S   0  0  0  0  0  0  0  0  0  0  0  0
  162.1440  207.1280  152.1390 C   0  0  0  0  0  2  0  0  0  0  0  0
  161.6050  202.8710  151.2450 C   0  0  0  0  0  0  0  0  0  0  0  0
  161.1220  206.6600  151.0750 C   0  0  1  0  0  3  0  0  0  0  0  0
  160.9400  208.2460  154.0960 C   0  0  1  0  0  3  0  0  0  0  0  0
  160.6740  211.6950  151.6930 C   0  0  0  0  0  0  0  0  0  0  0  0
  162.4310  208.9710  148.2170 C   0  0  0  0  0  3  0  0  0  0  0  0
  159.4840  208.0880  156.5580 C   0  0  0  0  0  3  0  0  0  0  0  0
  160.8950  207.1150  154.8060 C   0  0  0  0  0  3  0  0  0  0  0  0
  163.3030  201.2770  152.0780 C   0  0  0  0  0  1  0  0  0  0  0  0
  162.0200  201.8830  152.1420 O   0  0  0  0  0  0  0  0  0  0  0  0
  159.8310  212.8630  152.0730 C   0  0  0  0  0  2  0  0  0  0  0  0
  158.5140  212.6420  151.6720 O   0  0  0  0  0  1  0  0  0  0  0  0
  1  4  1  6  0  0  0
  1 23  1  0  0  0  0
  2  6  2  0  0  0  0
  2  9  1  0  0  0  0
  3 19  2  0  0  0  0
  3 16  1  0  0  0  0
  5  2  1  0  0  0  0
  6 14  1  0  0  0  0
  7  3  1  0  0  0  0
  8 27  1  0  0  0  0
  9 24  1  0  0  0  0
 10 27  2  0  0  0  0
 11 10  1  0  0  0  0
 12 15  1  0  0  0  0
 12  5  2  0  0  0  0
 13 23  1  0  0  0  0
 13 17  2  0  0  0  0
 14 11  2  0  0  0  0
 15 25  2  0  0  0  0
 16 22  2  0  0  0  0
 18 12  1  0  0  0  0
 19 13  1  0  0  0  0
 20 19  1  0  0  0  0
 20  1  1  0  0  0  0
 21  9  1  0  0  0  0
 22 17  1  0  0  0  0
 22 30  1  0  0  0  0
 23 21  1  1  0  0  0
 24 11  1  0  0  0  0
 24 28  1  6  0  0  0
 25 31  1  0  0  0  0
 25  6  1  0  0  0  0
 26 18  2  0  0  0  0
 26  4  1  0  0  0  0
 28  8  2  0  0  0  0
 29 30  1  0  0  0  0
 32 31  1  0  0  0  0
M  END
>  <MODEL>
1

>  <REMARK>
 VINA RESULT:      -6.0      0.000      0.000
  Name = 
  2 active torsions:
  status: ('A' for Active; 'I' for Inactive)
    1  A    between atoms: C_13  and  CA_29
    2  A    between atoms: O_15  and  C_26
                            x       y       z     vdW  Elec       q    Type
                         _______ _______ _______ _____ _____    ______ ____

>  <TORSDO>
F 2

$$$$
=
 OpenBabel11062408243D

 32 37  0  0  1  0  0  0  0  0999 V2000
  160.4430  209.7150  152.7270 C   0  0  1  0  0  3  0  0  0  0  0  0
  162.0150  206.9020  151.7610 C   0  0  0  0  0  0  0  0  0  0  0  0
  159.6890  213.3240  151.4880 C   0  0  0  0  0  0  0  0  0  0  0  0
  161.5420  209.9340  153.7850 C   0  0  0  0  0  2  0  0  0  0  0  0
  162.1340  207.4540  152.9740 N   0  0  0  0  0  0  0  0  0  0  0  0
  161.4640  205.6250  151.6370 C   0  0  0  0  0  0  0  0  0  0  0  0
  158.8560  214.0190  152.3010 F   0  0  0  0  0  0  0  0  0  0  0  0
  161.7650  207.3180  146.8840 C   0  0  0  0  0  3  0  0  0  0  0  0
  162.1570  207.7480  150.6190 N   0  0  0  0  0  0  0  0  0  0  0  0
  161.2390  205.0980  147.9070 C   0  0  0  0  0  2  0  0  0  0  0  0
  161.4620  205.7540  149.2410 C   0  0  0  0  0  0  0  0  0  0  0  0
  161.5900  206.9070  154.0730 C   0  0  0  0  0  0  0  0  0  0  0  0
  160.7780  211.2590  150.8750 C   0  0  0  0  0  0  0  0  0  0  0  0
  161.2580  205.0660  150.3290 N   0  0  0  0  0  0  0  0  0  0  0  0
  161.0510  205.6590  154.0000 N   0  0  0  0  0  0  0  0  0  0  0  0
  160.3260  213.9680  150.4200 C   0  0  0  0  0  3  0  0  0  0  0  0
  161.4070  211.8860  149.7940 C   0  0  0  0  0  3  0  0  0  0  0  0
  161.2980  207.8110  155.1960 C   0  0  0  0  0  3  0  0  0  0  0  0
  159.9100  211.9590  151.6890 C   0  0  0  0  0  0  0  0  0  0  0  0
  159.1540  210.9910  152.9840 S   0  0  0  0  0  0  0  0  0  0  0  0
  162.2690  209.2000  150.8400 C   0  0  0  0  0  2  0  0  0  0  0  0
  161.1840  213.2500  149.5630 C   0  0  0  0  0  0  0  0  0  0  0  0
  160.9110  209.8250  151.2420 C   0  0  1  0  0  3  0  0  0  0  0  0
  161.9010  207.1760  149.3240 C   0  0  0  0  0  0  0  0  0  0  0  0
  161.0260  204.9830  152.8120 C   0  0  0  0  0  0  0  0  0  0  0  0
  161.2770  209.1580  155.0680 C   0  0  0  0  0  3  0  0  0  0  0  0
  161.3940  206.0420  146.7430 C   0  0  0  0  0  3  0  0  0  0  0  0
  162.0370  207.8990  148.2080 C   0  0  0  0  0  3  0  0  0  0  0  0
  162.6890  213.1660  147.6020 C   0  0  0  0  0  1  0  0  0  0  0  0
  161.8230  213.8660  148.4850 O   0  0  0  0  0  0  0  0  0  0  0  0
  160.4450  203.6110  152.7610 C   0  0  0  0  0  2  0  0  0  0  0  0
  161.3260  202.7540  152.1030 O   0  0  0  0  0  1  0  0  0  0  0  0
  1 20  1  0  0  0  0
  1  4  1  1  0  0  0
  2  5  1  0  0  0  0
  3 19  1  0  0  0  0
  3  7  1  0  0  0  0
  4 26  1  0  0  0  0
  5 12  2  0  0  0  0
  6  2  2  0  0  0  0
  6 25  1  0  0  0  0
  8 28  1  0  0  0  0
  9 21  1  0  0  0  0
  9  2  1  0  0  0  0
 10 11  1  0  0  0  0
 11 24  1  0  0  0  0
 11 14  2  0  0  0  0
 12 18  1  0  0  0  0
 13 23  1  0  0  0  0
 13 19  2  0  0  0  0
 14  6  1  0  0  0  0
 15 12  1  0  0  0  0
 16  3  2  0  0  0  0
 17 13  1  0  0  0  0
 19 20  1  0  0  0  0
 22 17  2  0  0  0  0
 22 16  1  0  0  0  0
 23 21  1  1  0  0  0
 23  1  1  0  0  0  0
 24  9  1  0  0  0  0
 25 15  2  0  0  0  0
 26 18  2  0  0  0  0
 27  8  2  0  0  0  0
 27 10  1  0  0  0  0
 28 24  2  0  0  0  0
 29 30  1  0  0  0  0
 30 22  1  0  0  0  0
 31 25  1  0  0  0  0
 32 31  1  0  0  0  0
M  END
>  <MODEL>
2

>  <REMARK>
 VINA RESULT:      -5.7      3.099      7.818
  Name = 
  2 active torsions:
  status: ('A' for Active; 'I' for Inactive)
    1  A    between atoms: C_13  and  CA_29
    2  A    between atoms: O_15  and  C_26
                            x       y       z     vdW  Elec       q    Type
                         _______ _______ _______ _____ _____    ______ ____

>  <TORSDO>
F 2

$$$$
=
 OpenBabel11062408243D

 32 37  0  0  1  0  0  0  0  0999 V2000
  158.4980  211.9520  154.2870 C   0  0  1  0  0  3  0  0  0  0  0  0
  161.1830  209.9520  154.6140 C   0  0  0  0  0  0  0  0  0  0  0  0
  156.4820  213.8710  151.5700 C   0  0  0  0  0  0  0  0  0  0  0  0
  159.2810  213.0750  154.9960 C   0  0  0  0  0  2  0  0  0  0  0  0
  160.9250  211.0030  155.4010 N   0  0  0  0  0  0  0  0  0  0  0  0
  161.2210  208.6710  155.1670 C   0  0  0  0  0  0  0  0  0  0  0  0
  155.3500  214.4530  152.0370 F   0  0  0  0  0  0  0  0  0  0  0  0
  161.3500  207.8760  150.1780 C   0  0  0  0  0  3  0  0  0  0  0  0
  161.0970  210.1320  153.2000 N   0  0  0  0  0  0  0  0  0  0  0  0
  161.6640  206.4100  152.1780 C   0  0  0  0  0  2  0  0  0  0  0  0
  161.4440  207.6420  153.0110 C   0  0  0  0  0  0  0  0  0  0  0  0
  160.5300  210.8700  156.6780 C   0  0  0  0  0  0  0  0  0  0  0  0
  158.3840  212.4220  151.9010 C   0  0  0  0  0  0  0  0  0  0  0  0
  161.4150  207.5340  154.3100 N   0  0  0  0  0  0  0  0  0  0  0  0
  160.5610  209.6400  157.2610 N   0  0  0  0  0  0  0  0  0  0  0  0
  156.9180  214.1330  150.2650 C   0  0  0  0  0  3  0  0  0  0  0  0
  158.8210  212.6610  150.5940 C   0  0  0  0  0  3  0  0  0  0  0  0
  159.7660  211.9840  157.2610 C   0  0  0  0  0  3  0  0  0  0  0  0
  157.2170  212.9920  152.3700 C   0  0  0  0  0  0  0  0  0  0  0  0
  156.7790  212.5360  154.0390 S   0  0  0  0  0  0  0  0  0  0  0  0
  160.5790  211.4150  152.6930 C   0  0  0  0  0  2  0  0  0  0  0  0
  158.0870  213.5230  149.7680 C   0  0  0  0  0  0  0  0  0  0  0  0
  159.0480  211.5310  152.8880 C   0  0  1  0  0  3  0  0  0  0  0  0
  161.2490  208.9710  152.3650 C   0  0  0  0  0  0  0  0  0  0  0  0
  160.9520  208.5430  156.5440 C   0  0  0  0  0  0  0  0  0  0  0  0
  159.2100  212.9640  156.5130 C   0  0  0  0  0  3  0  0  0  0  0  0
  161.5530  206.6620  150.6970 C   0  0  0  0  0  3  0  0  0  0  0  0
  161.2050  209.0650  151.0320 C   0  0  0  0  0  3  0  0  0  0  0  0
  159.9150  213.9040  148.1460 C   0  0  0  0  0  1  0  0  0  0  0  0
  158.5390  213.7600  148.4670 O   0  0  0  0  0  0  0  0  0  0  0  0
  160.9930  207.2100  157.2100 C   0  0  0  0  0  2  0  0  0  0  0  0
  159.7360  206.6120  157.1420 O   0  0  0  0  0  1  0  0  0  0  0  0
  1  4  1  6  0  0  0
  2  6  2  0  0  0  0
  2  5  1  0  0  0  0
  3  7  1  0  0  0  0
  3 19  1  0  0  0  0
  4 26  1  0  0  0  0
  5 12  2  0  0  0  0
  6 25  1  0  0  0  0
  8 27  2  0  0  0  0
  8 28  1  0  0  0  0
  9  2  1  0  0  0  0
 10 11  1  0  0  0  0
 11 14  2  0  0  0  0
 12 18  1  0  0  0  0
 12 15  1  0  0  0  0
 13 19  2  0  0  0  0
 13 23  1  0  0  0  0
 14  6  1  0  0  0  0
 16  3  2  0  0  0  0
 17 13  1  0  0  0  0
 19 20  1  0  0  0  0
 20  1  1  0  0  0  0
 21  9  1  0  0  0  0
 22 16  1  0  0  0  0
 22 17  2  0  0  0  0
 23 21  1  1  0  0  0
 23  1  1  0  0  0  0
 24 11  1  0  0  0  0
 24  9  1  0  0  0  0
 25 31  1  0  0  0  0
 25 15  2  0  0  0  0
 26 18  2  0  0  0  0
 27 10  1  0  0  0  0
 28 24  2  0  0  0  0
 29 30  1  0  0  0  0
 30 22  1  0  0  0  0
 32 31  1  0  0  0  0
M  END
>  <MODEL>
3

>  <REMARK>
 VINA RESULT:      -5.7      3.794      7.991
  Name = 
  2 active torsions:
  status: ('A' for Active; 'I' for Inactive)
    1  A    between atoms: C_13  and  CA_29
    2  A    between atoms: O_15  and  C_26
                            x       y       z     vdW  Elec       q    Type
                         _______ _______ _______ _____ _____    ______ ____

>  <TORSDO>
F 2

$$$$
=
 OpenBabel11062408243D

 32 37  0  0  1  0  0  0  0  0999 V2000
  160.9190  209.7720  150.8860 C   0  0  1  0  0  3  0  0  0  0  0  0
  159.7990  212.9140  151.3240 C   0  0  0  0  0  0  0  0  0  0  0  0
  161.5790  206.5020  152.8850 C   0  0  0  0  0  0  0  0  0  0  0  0
  162.3360  210.3370  150.6660 C   0  0  0  0  0  2  0  0  0  0  0  0
  160.9020  212.5950  150.6370 N   0  0  0  0  0  0  0  0  0  0  0  0
  158.7340  213.5320  150.6660 C   0  0  0  0  0  0  0  0  0  0  0  0
  161.9450  205.4510  152.1110 F   0  0  0  0  0  0  0  0  0  0  0  0
  156.8640  212.3300  155.2050 C   0  0  0  0  0  3  0  0  0  0  0  0
  159.6180  212.3350  152.6160 N   0  0  0  0  0  0  0  0  0  0  0  0
  156.0310  213.7100  153.2930 C   0  0  0  0  0  2  0  0  0  0  0  0
  157.3250  213.3810  152.6020 C   0  0  0  0  0  0  0  0  0  0  0  0
  160.9730  212.6870  149.2990 C   0  0  0  0  0  0  0  0  0  0  0  0
  160.7780  208.7690  153.0990 C   0  0  0  0  0  0  0  0  0  0  0  0
  157.5160  213.7980  151.3820 N   0  0  0  0  0  0  0  0  0  0  0  0
  159.9610  213.2910  148.6180 N   0  0  0  0  0  0  0  0  0  0  0  0
  161.6330  206.3970  154.2810 C   0  0  0  0  0  3  0  0  0  0  0  0
  160.8110  208.6720  154.4950 C   0  0  0  0  0  3  0  0  0  0  0  0
  161.9590  211.8310  148.6210 C   0  0  0  0  0  3  0  0  0  0  0  0
  161.1260  207.6920  152.3090 C   0  0  0  0  0  0  0  0  0  0  0  0
  160.9730  207.9710  150.5540 S   0  0  0  0  0  0  0  0  0  0  0  0
  160.5740  211.3020  153.0540 C   0  0  0  0  0  2  0  0  0  0  0  0
  161.2430  207.4810  155.0930 C   0  0  0  0  0  0  0  0  0  0  0  0
  160.3390  209.9580  152.3240 C   0  0  1  0  0  3  0  0  0  0  0  0
  158.3730  212.5790  153.2940 C   0  0  0  0  0  0  0  0  0  0  0  0
  158.8640  213.7650  149.2820 C   0  0  0  0  0  0  0  0  0  0  0  0
  162.5660  210.7860  149.2290 C   0  0  0  0  0  3  0  0  0  0  0  0
  155.8960  213.0630  154.6480 C   0  0  0  0  0  3  0  0  0  0  0  0
  158.1410  212.0900  154.5160 C   0  0  0  0  0  3  0  0  0  0  0  0
  160.1650  206.9720  157.2610 C   0  0  0  0  0  1  0  0  0  0  0  0
  161.2780  207.3990  156.4870 O   0  0  0  0  0  0  0  0  0  0  0  0
  157.7770  214.4380  148.5160 C   0  0  0  0  0  2  0  0  0  0  0  0
  156.9620  213.4780  147.9170 O   0  0  0  0  0  1  0  0  0  0  0  0
  1  4  1  1  0  0  0
  1 23  1  0  0  0  0
  2  9  1  0  0  0  0
  3 16  1  0  0  0  0
  5  2  1  0  0  0  0
  6  2  2  0  0  0  0
  6 14  1  0  0  0  0
  7  3  1  0  0  0  0
  9 21  1  0  0  0  0
  9 24  1  0  0  0  0
 10 27  1  0  0  0  0
 11 10  1  0  0  0  0
 11 24  1  0  0  0  0
 12  5  2  0  0  0  0
 13 17  2  0  0  0  0
 14 11  2  0  0  0  0
 15 25  2  0  0  0  0
 15 12  1  0  0  0  0
 16 22  2  0  0  0  0
 17 22  1  0  0  0  0
 18 26  2  0  0  0  0
 18 12  1  0  0  0  0
 19  3  2  0  0  0  0
 19 13  1  0  0  0  0
 20  1  1  0  0  0  0
 20 19  1  0  0  0  0
 22 30  1  0  0  0  0
 23 21  1  1  0  0  0
 23 13  1  0  0  0  0
 24 28  2  0  0  0  0
 25  6  1  0  0  0  0
 26  4  1  0  0  0  0
 27  8  2  0  0  0  0
 28  8  1  0  0  0  0
 30 29  1  0  0  0  0
 31 25  1  0  0  0  0
 32 31  1  0  0  0  0
M  END
>  <MODEL>
4

>  <REMARK>
 VINA RESULT:      -5.6      3.070      4.746
  Name = 
  2 active torsions:
  status: ('A' for Active; 'I' for Inactive)
    1  A    between atoms: C_13  and  CA_29
    2  A    between atoms: O_15  and  C_26
                            x       y       z     vdW  Elec       q    Type
                         _______ _______ _______ _____ _____    ______ ____

>  <TORSDO>
F 2

$$$$
=
 OpenBabel11062408243D

 32 37  0  0  1  0  0  0  0  0999 V2000
  160.8360  210.3600  150.8470 C   0  0  1  0  0  3  0  0  0  0  0  0
  159.5460  213.3590  150.0350 C   0  0  0  0  0  0  0  0  0  0  0  0
  161.2300  207.9730  153.8910 C   0  0  0  0  0  0  0  0  0  0  0  0
  162.2490  210.9540  150.6860 C   0  0  0  0  0  2  0  0  0  0  0  0
  160.7670  212.9420  149.6810 N   0  0  0  0  0  0  0  0  0  0  0  0
  158.5990  213.6330  149.0460 C   0  0  0  0  0  0  0  0  0  0  0  0
  161.7700  206.7690  153.5770 F   0  0  0  0  0  0  0  0  0  0  0  0
  155.9680  213.7700  153.3600 C   0  0  0  0  0  3  0  0  0  0  0  0
  159.1510  213.2070  151.3990 N   0  0  0  0  0  0  0  0  0  0  0  0
  155.4540  214.3850  150.9920 C   0  0  0  0  0  2  0  0  0  0  0  0
  156.8640  213.9750  150.6670 C   0  0  0  0  0  0  0  0  0  0  0  0
  161.0790  212.6090  148.4180 C   0  0  0  0  0  0  0  0  0  0  0  0
  160.3250  210.1050  153.2130 C   0  0  0  0  0  0  0  0  0  0  0  0
  157.2620  213.9990  149.4270 N   0  0  0  0  0  0  0  0  0  0  0  0
  160.1900  212.8680  147.4210 N   0  0  0  0  0  0  0  0  0  0  0  0
  161.0310  208.3240  155.2330 C   0  0  0  0  0  3  0  0  0  0  0  0
  160.1040  210.4600  154.5480 C   0  0  0  0  0  3  0  0  0  0  0  0
  162.2030  211.6780  148.2300 C   0  0  0  0  0  3  0  0  0  0  0  0
  160.8500  208.8690  152.8900 C   0  0  0  0  0  0  0  0  0  0  0  0
  161.0130  208.5600  151.1400 S   0  0  0  0  0  0  0  0  0  0  0  0
  160.0450  212.4610  152.3020 C   0  0  0  0  0  2  0  0  0  0  0  0
  160.4600  209.5680  155.5670 C   0  0  0  0  0  0  0  0  0  0  0  0
  159.9960  210.9390  152.0280 C   0  0  1  0  0  3  0  0  0  0  0  0
  157.7940  213.5370  151.7460 C   0  0  0  0  0  0  0  0  0  0  0  0
  158.9730  213.4250  147.7040 C   0  0  0  0  0  0  0  0  0  0  0  0
  162.7230  210.9420  149.2390 C   0  0  0  0  0  3  0  0  0  0  0  0
  155.0940  214.1940  152.4430 C   0  0  0  0  0  3  0  0  0  0  0  0
  157.3590  213.4430  153.0060 C   0  0  0  0  0  3  0  0  0  0  0  0
  159.5140  211.1040  157.2600 C   0  0  0  0  0  1  0  0  0  0  0  0
  160.2410  209.9380  156.8970 O   0  0  0  0  0  0  0  0  0  0  0  0
  158.0230  213.7140  146.5930 C   0  0  0  0  0  2  0  0  0  0  0  0
  157.5840  212.5180  146.0270 O   0  0  0  0  0  1  0  0  0  0  0  0
  1  4  1  1  0  0  0
  1 20  1  0  0  0  0
  1 23  1  0  0  0  0
  2  9  1  0  0  0  0
  3 16  1  0  0  0  0
  5  2  1  0  0  0  0
  6 14  1  0  0  0  0
  6  2  2  0  0  0  0
  7  3  1  0  0  0  0
  9 24  1  0  0  0  0
  9 21  1  0  0  0  0
 10 27  1  0  0  0  0
 11 10  1  0  0  0  0
 11 24  1  0  0  0  0
 12  5  2  0  0  0  0
 13 17  2  0  0  0  0
 14 11  2  0  0  0  0
 15 25  2  0  0  0  0
 15 12  1  0  0  0  0
 16 22  2  0  0  0  0
 17 22  1  0  0  0  0
 18 12  1  0  0  0  0
 18 26  2  0  0  0  0
 19 13  1  0  0  0  0
 19  3  2  0  0  0  0
 20 19  1  0  0  0  0
 22 30  1  0  0  0  0
 23 21  1  1  0  0  0
 23 13  1  0  0  0  0
 24 28  2  0  0  0  0
 25  6  1  0  0  0  0
 26  4  1  0  0  0  0
 27  8  2  0  0  0  0
 28  8  1  0  0  0  0
 30 29  1  0  0  0  0
 31 25  1  0  0  0  0
 32 31  1  0  0  0  0
M  END
>  <MODEL>
5

>  <REMARK>
 VINA RESULT:      -4.6      4.111      6.249
  Name = 
  2 active torsions:
  status: ('A' for Active; 'I' for Inactive)
    1  A    between atoms: C_13  and  CA_29
    2  A    between atoms: O_15  and  C_26
                            x       y       z     vdW  Elec       q    Type
                         _______ _______ _______ _____ _____    ______ ____

>  <TORSDO>
F 2

$$$$
=
 OpenBabel11062408243D

 32 37  0  0  1  0  0  0  0  0999 V2000
  157.8990  212.5020  153.6340 C   0  0  1  0  0  3  0  0  0  0  0  0
  160.7090  210.8920  154.5460 C   0  0  0  0  0  0  0  0  0  0  0  0
  156.1710  214.0040  150.4910 C   0  0  0  0  0  0  0  0  0  0  0  0
  158.4040  213.7510  154.3830 C   0  0  0  0  0  2  0  0  0  0  0  0
  160.1910  211.9360  155.2030 N   0  0  0  0  0  0  0  0  0  0  0  0
  160.8050  209.6550  155.1870 C   0  0  0  0  0  0  0  0  0  0  0  0
  154.9130  214.4530  150.7200 F   0  0  0  0  0  0  0  0  0  0  0  0
  161.9000  208.6430  150.3570 C   0  0  0  0  0  3  0  0  0  0  0  0
  160.8510  210.9900  153.1280 N   0  0  0  0  0  0  0  0  0  0  0  0
  162.0360  207.3300  152.4800 C   0  0  0  0  0  3  0  0  0  0  0  0
  161.5250  208.5610  153.1760 C   0  0  0  0  0  0  0  0  0  0  0  0
  159.5980  211.8140  156.4010 C   0  0  0  0  0  0  0  0  0  0  0  0
  158.1480  212.8360  151.2360 C   0  0  0  0  0  0  0  0  0  0  0  0
  161.2820  208.5130  154.4550 N   0  0  0  0  0  0  0  0  0  0  0  0
  159.6760  210.6290  157.0660 N   0  0  0  0  0  0  0  0  0  0  0  0
  156.7940  214.2580  149.2620 C   0  0  0  0  0  3  0  0  0  0  0  0
  158.7740  213.0670  150.0070 C   0  0  0  0  0  3  0  0  0  0  0  0
  158.6140  212.8440  156.7690 C   0  0  0  0  0  3  0  0  0  0  0  0
  156.8560  213.2700  151.4620 C   0  0  0  0  0  0  0  0  0  0  0  0
  156.1920  212.8410  153.0620 S   0  0  0  0  0  0  0  0  0  0  0  0
  160.2770  212.1670  152.4530 C   0  0  0  0  0  2  0  0  0  0  0  0
  158.0970  213.7840  149.0120 C   0  0  0  0  0  0  0  0  0  0  0  0
  158.7330  212.0900  152.3800 C   0  0  1  0  0  3  0  0  0  0  0  0
  161.2860  209.8200  152.4140 C   0  0  1  0  0  3  0  0  0  0  0  0
  160.3170  209.5590  156.5040 C   0  0  0  0  0  0  0  0  0  0  0  0
  158.0830  213.7060  155.8710 C   0  0  0  0  0  3  0  0  0  0  0  0
  162.1550  207.4930  150.9870 C   0  0  0  0  0  3  0  0  0  0  0  0
  161.4650  209.8430  151.0900 C   0  0  0  0  0  3  0  0  0  0  0  0
  160.0870  213.6450  147.5490 C   0  0  0  0  0  1  0  0  0  0  0  0
  158.7370  214.0150  147.7910 O   0  0  0  0  0  0  0  0  0  0  0  0
  160.4030  208.2770  157.2600 C   0  0  0  0  0  2  0  0  0  0  0  0
  159.6380  207.3040  156.6200 O   0  0  0  0  0  1  0  0  0  0  0  0
  1  4  1  6  0  0  0
  2  6  2  0  0  0  0
  2  5  1  0  0  0  0
  3  7  1  0  0  0  0
  3 19  1  0  0  0  0
  4 26  1  0  0  0  0
  5 12  2  0  0  0  0
  6 25  1  0  0  0  0
  8 27  1  0  0  0  0
  8 28  2  0  0  0  0
  9  2  1  0  0  0  0
 10 11  1  0  0  0  0
 11 14  2  0  0  0  0
 12 18  1  0  0  0  0
 12 15  1  0  0  0  0
 13 19  2  0  0  0  0
 13 23  1  0  0  0  0
 14  6  1  0  0  0  0
 16  3  2  0  0  0  0
 17 13  1  0  0  0  0
 19 20  1  0  0  0  0
 20  1  1  0  0  0  0
 21  9  1  0  0  0  0
 22 16  1  0  0  0  0
 22 17  2  0  0  0  0
 23 21  1  1  0  0  0
 23  1  1  0  0  0  0
 24 28  1  6  0  0  0
 24  9  1  0  0  0  0
 24 11  1  0  0  0  0
 25 15  2  0  0  0  0
 25 31  1  0  0  0  0
 26 18  2  0  0  0  0
 27 10  2  0  0  0  0
 29 30  1  0  0  0  0
 30 22  1  0  0  0  0
 32 31  1  0  0  0  0
M  END
>  <MODEL>
6

>  <REMARK>
 VINA RESULT:      -4.5      3.981      8.051
  Name = 
  2 active torsions:
  status: ('A' for Active; 'I' for Inactive)
    1  A    between atoms: C_13  and  CA_29
    2  A    between atoms: O_15  and  C_26
                            x       y       z     vdW  Elec       q    Type
                         _______ _______ _______ _____ _____    ______ ____

>  <TORSDO>
F 2

$$$$
=
 OpenBabel11062408243D

 32 37  0  0  1  0  0  0  0  0999 V2000
  161.4580  211.2590  149.0540 C   0  0  1  0  0  3  0  0  0  0  0  0
  159.8000  214.0900  148.3090 C   0  0  0  0  0  0  0  0  0  0  0  0
  161.9820  208.7550  151.9830 C   0  0  0  0  0  0  0  0  0  0  0  0
  162.7750  212.0590  149.0410 C   0  0  0  0  0  2  0  0  0  0  0  0
  161.0920  213.8770  148.0310 N   0  0  0  0  0  0  0  0  0  0  0  0
  158.8960  214.2910  147.2630 C   0  0  0  0  0  0  0  0  0  0  0  0
  162.7150  207.6650  151.6470 F   0  0  0  0  0  0  0  0  0  0  0  0
  155.9720  213.7610  151.3510 C   0  0  0  0  0  3  0  0  0  0  0  0
  159.3350  213.7920  149.6250 N   0  0  0  0  0  0  0  0  0  0  0  0
  155.5430  214.4530  148.9870 C   0  0  0  0  0  2  0  0  0  0  0  0
  157.0170  214.2720  148.7560 C   0  0  0  0  0  0  0  0  0  0  0  0
  161.5390  213.6770  146.7810 C   0  0  0  0  0  0  0  0  0  0  0  0
  160.8220  210.7760  151.3530 C   0  0  0  0  0  0  0  0  0  0  0  0
  157.4960  214.4350  147.5540 N   0  0  0  0  0  0  0  0  0  0  0  0
  160.6950  213.8710  145.7310 N   0  0  0  0  0  0  0  0  0  0  0  0
  161.6370  208.9840  153.3210 C   0  0  0  0  0  3  0  0  0  0  0  0
  160.4560  211.0070  152.6830 C   0  0  0  0  0  3  0  0  0  0  0  0
  162.7990  212.9310  146.6340 C   0  0  0  0  0  3  0  0  0  0  0  0
  161.5460  209.6530  151.0050 C   0  0  0  0  0  0  0  0  0  0  0  0
  161.8780  209.4880  149.2600 S   0  0  0  0  0  0  0  0  0  0  0  0
  160.2620  213.1240  150.5550 C   0  0  0  0  0  2  0  0  0  0  0  0
  160.8660  210.1080  153.6770 C   0  0  0  0  0  0  0  0  0  0  0  0
  160.4590  211.6310  150.1940 C   0  0  1  0  0  3  0  0  0  0  0  0
  157.9230  213.9000  149.8800 C   0  0  0  0  0  0  0  0  0  0  0  0
  159.3920  214.2280  145.9460 C   0  0  0  0  0  0  0  0  0  0  0  0
  163.3490  212.2120  147.6380 C   0  0  0  0  0  3  0  0  0  0  0  0
  155.1130  214.1150  150.3920 C   0  0  0  0  0  3  0  0  0  0  0  0
  157.4170  213.6610  151.0930 C   0  0  0  0  0  3  0  0  0  0  0  0
  159.1470  210.5100  155.4110 C   0  0  0  0  0  1  0  0  0  0  0  0
  160.5000  210.3540  155.0030 O   0  0  0  0  0  0  0  0  0  0  0  0
  158.4920  214.4520  144.7790 C   0  0  0  0  0  2  0  0  0  0  0  0
  158.5090  213.3300  143.9520 O   0  0  0  0  0  1  0  0  0  0  0  0
  1  4  1  1  0  0  0
  1 20  1  0  0  0  0
  1 23  1  0  0  0  0
  2  9  1  0  0  0  0
  3 16  1  0  0  0  0
  5  2  1  0  0  0  0
  6 14  1  0  0  0  0
  6  2  2  0  0  0  0
  7  3  1  0  0  0  0
  9 24  1  0  0  0  0
  9 21  1  0  0  0  0
 10 27  1  0  0  0  0
 11 10  1  0  0  0  0
 11 24  1  0  0  0  0
 12  5  2  0  0  0  0
 13 17  2  0  0  0  0
 14 11  2  0  0  0  0
 15 25  2  0  0  0  0
 15 12  1  0  0  0  0
 16 22  2  0  0  0  0
 17 22  1  0  0  0  0
 18 12  1  0  0  0  0
 18 26  2  0  0  0  0
 19 13  1  0  0  0  0
 19  3  2  0  0  0  0
 20 19  1  0  0  0  0
 22 30  1  0  0  0  0
 23 21  1  1  0  0  0
 23 13  1  0  0  0  0
 24 28  2  0  0  0  0
 25  6  1  0  0  0  0
 26  4  1  0  0  0  0
 27  8  2  0  0  0  0
 28  8  1  0  0  0  0
 30 29  1  0  0  0  0
 31 25  1  0  0  0  0
 32 31  1  0  0  0  0
M  END
>  <MODEL>
7

>  <REMARK>
 VINA RESULT:      -3.4      4.220      6.888
  Name = 
  2 active torsions:
  status: ('A' for Active; 'I' for Inactive)
    1  A    between atoms: C_13  and  CA_29
    2  A    between atoms: O_15  and  C_26
                            x       y       z     vdW  Elec       q    Type
                         _______ _______ _______ _____ _____    ______ ____

>  <TORSDO>
F 2

$$$$
