=
 OpenBabel11052423023D

 28 31  0  0  1  0  0  0  0  0999 V2000
  160.8710  207.6050  151.8420 C   0  0  2  0  0  3  0  0  0  0  0  0
  161.1440  206.3050  146.8700 C   0  0  0  0  0  3  0  0  0  0  0  0
  160.7140  202.6820  151.9430 C   0  0  0  0  0  1  0  0  0  0  0  0
  161.2610  203.8990  146.8780 C   0  0  0  0  0  0  0  0  0  0  0  0
  161.1000  205.1230  148.9760 C   0  0  0  0  0  0  0  0  0  0  0  0
  161.1580  205.1100  144.7390 C   0  0  0  0  0  0  0  0  0  0  0  0
  161.1200  205.0910  147.5860 C   0  0  0  0  0  0  0  0  0  0  0  0
  161.5050  202.7160  148.9980 C   0  0  0  0  0  3  0  0  0  0  0  0
  161.1830  203.8800  145.4660 C   0  0  0  0  0  3  0  0  0  0  0  0
  161.0880  205.1250  151.8080 C   0  0  0  0  0  0  0  0  0  0  0  0
  160.9870  206.2440  149.7100 C   0  0  0  0  0  3  0  0  0  0  0  0
  161.3930  202.6800  147.6040 C   0  0  0  0  0  3  0  0  0  0  0  0
  161.7520  206.4020  153.9180 C   0  0  0  0  0  2  0  0  0  0  0  0
  161.1430  203.9230  151.1130 C   0  0  0  0  0  0  0  0  0  0  0  0
  161.0090  205.2590  153.3310 C   0  0  0  0  0  2  0  0  0  0  0  0
  161.2230  205.1780  143.3610 O   0  0  0  0  0  1  0  0  0  0  0  0
  161.1860  206.3210  145.4920 C   0  0  0  0  0  3  0  0  0  0  0  0
  161.2370  203.8700  149.6780 C   0  0  0  0  0  0  0  0  0  0  0  0
  161.2870  207.6450  153.3210 C   0  0  0  0  0  2  0  0  0  0  0  0
  161.0420  206.3100  151.0860 C   0  0  0  0  0  0  0  0  0  0  0  0
  161.2820  208.9360  151.2000 C   0  0  0  0  0  2  0  0  0  0  0  0
  161.9840  209.9010  152.1920 C   0  0  0  0  0  2  0  0  0  0  0  0
  160.9150  210.9660  152.2400 C   0  0  0  0  0  2  0  0  0  0  0  0
  162.0520  210.7210  155.6280 C   0  0  0  0  0  1  0  0  0  0  0  0
  160.2650  211.1610  153.6480 N   0  0  0  0  0  0  0  0  0  0  0  0
  160.1340  212.0920  155.8640 O   0  0  0  0  0  0  0  0  0  0  0  0
  160.7790  211.3900  155.0290 C   0  0  0  0  0  0  0  0  0  0  0  0
  158.9480  211.4370  153.4550 C   0  0  0  0  0  1  0  0  0  0  0  0
  1 21  1  6  0  0  0
  1 19  1  0  0  0  0
  2  7  1  0  0  0  0
  4  7  2  0  0  0  0
  4 12  1  0  0  0  0
  5 18  2  0  0  0  0
  5 11  1  0  0  0  0
  6  9  2  0  0  0  0
  6 17  1  0  0  0  0
  7  5  1  0  0  0  0
  8 18  1  0  0  0  0
  9  4  1  0  0  0  0
 10 15  1  0  0  0  0
 11 20  2  0  0  0  0
 12  8  2  0  0  0  0
 14 10  2  0  0  0  0
 14  3  1  0  0  0  0
 15 13  1  0  0  0  0
 16  6  1  0  0  0  0
 17  2  2  0  0  0  0
 18 14  1  0  0  0  0
 19 13  1  0  0  0  0
 20 10  1  0  0  0  0
 20  1  1  0  0  0  0
 21 22  1  0  0  0  0
 22 23  1  0  0  0  0
 23 25  1  0  0  0  0
 25 27  1  0  0  0  0
 27 24  1  0  0  0  0
 27 26  2  0  0  0  0
 28 25  1  0  0  0  0
M  END
>  <MODEL>
1

>  <REMARK>
 VINA RESULT:     -10.2      0.000      0.000
  Name = 
  4 active torsions:
  status: ('A' for Active; 'I' for Inactive)
    1  A    between atoms: C_1  and  C_2
    2  A    between atoms: C_2  and  C_7
    3  A    between atoms: N_6  and  C_28
    4  A    between atoms: C_7  and  C_28
                            x       y       z     vdW  Elec       q    Type
                         _______ _______ _______ _____ _____    ______ ____

>  <TORSDO>
F 4

$$$$
=
 OpenBabel11052423023D

 28 31  0  0  1  0  0  0  0  0999 V2000
  161.5050  209.3380  150.2050 C   0  0  2  0  0  3  0  0  0  0  0  0
  161.2810  204.6670  148.0550 C   0  0  0  0  0  3  0  0  0  0  0  0
  160.6620  206.3600  154.0380 C   0  0  0  0  0  1  0  0  0  0  0  0
  161.0570  203.1540  149.9160 C   0  0  0  0  0  0  0  0  0  0  0  0
  161.2020  205.5530  150.3010 C   0  0  0  0  0  0  0  0  0  0  0  0
  160.9930  202.2810  147.6160 C   0  0  0  0  0  0  0  0  0  0  0  0
  161.1310  204.4620  149.4420 C   0  0  0  0  0  0  0  0  0  0  0  0
  161.2640  204.0090  152.1910 C   0  0  0  0  0  3  0  0  0  0  0  0
  160.8890  202.0670  149.0250 C   0  0  0  0  0  3  0  0  0  0  0  0
  161.3680  207.7310  152.1030 C   0  0  0  0  0  0  0  0  0  0  0  0
  161.2950  206.8330  149.9000 C   0  0  0  0  0  3  0  0  0  0  0  0
  161.0610  202.9310  151.3230 C   0  0  0  0  0  3  0  0  0  0  0  0
  162.3370  210.0590  152.5120 C   0  0  0  0  0  2  0  0  0  0  0  0
  161.2090  206.4390  152.5860 C   0  0  0  0  0  0  0  0  0  0  0  0
  161.4040  208.9960  152.9640 C   0  0  0  0  0  2  0  0  0  0  0  0
  160.9810  201.2560  146.6900 O   0  0  0  0  0  1  0  0  0  0  0  0
  161.2380  203.6130  147.1670 C   0  0  0  0  0  3  0  0  0  0  0  0
  161.2050  205.2900  151.7200 C   0  0  0  0  0  0  0  0  0  0  0  0
  162.0150  210.4420  151.1460 C   0  0  0  0  0  2  0  0  0  0  0  0
  161.4440  207.9240  150.7290 C   0  0  0  0  0  0  0  0  0  0  0  0
  162.0600  209.6200  148.8030 C   0  0  0  0  0  2  0  0  0  0  0  0
  162.4510  211.1050  148.5880 C   0  0  0  0  0  2  0  0  0  0  0  0
  161.2180  211.5400  147.8330 C   0  0  0  0  0  2  0  0  0  0  0  0
  159.7390  212.2330  144.6460 C   0  0  0  0  0  1  0  0  0  0  0  0
  161.4970  212.5520  146.6740 N   0  0  0  0  0  0  0  0  0  0  0  0
  160.8810  214.2610  145.0950 O   0  0  0  0  0  0  0  0  0  0  0  0
  160.7160  213.0770  145.5170 C   0  0  0  0  0  0  0  0  0  0  0  0
  162.6050  213.2630  147.0110 C   0  0  0  0  0  1  0  0  0  0  0  0
  1 21  1  6  0  0  0
  1 20  1  0  0  0  0
  1 19  1  0  0  0  0
  2  7  1  0  0  0  0
  4 12  1  0  0  0  0
  5 18  1  0  0  0  0
  6  9  2  0  0  0  0
  7  4  2  0  0  0  0
  7  5  1  0  0  0  0
  9  4  1  0  0  0  0
 10 14  1  0  0  0  0
 10 15  1  0  0  0  0
 11  5  2  0  0  0  0
 11 20  1  0  0  0  0
 12  8  2  0  0  0  0
 13 15  1  0  0  0  0
 14  3  1  0  0  0  0
 16  6  1  0  0  0  0
 17  6  1  0  0  0  0
 17  2  2  0  0  0  0
 18  8  1  0  0  0  0
 18 14  2  0  0  0  0
 19 13  1  0  0  0  0
 20 10  2  0  0  0  0
 22 21  1  0  0  0  0
 23 22  1  0  0  0  0
 24 27  1  0  0  0  0
 25 28  1  0  0  0  0
 25 23  1  0  0  0  0
 26 27  2  0  0  0  0
 27 25  1  0  0  0  0
M  END
>  <MODEL>
2

>  <REMARK>
 VINA RESULT:     -10.1      3.466      5.004
  Name = 
  4 active torsions:
  status: ('A' for Active; 'I' for Inactive)
    1  A    between atoms: C_1  and  C_2
    2  A    between atoms: C_2  and  C_7
    3  A    between atoms: N_6  and  C_28
    4  A    between atoms: C_7  and  C_28
                            x       y       z     vdW  Elec       q    Type
                         _______ _______ _______ _____ _____    ______ ____

>  <TORSDO>
F 4

$$$$
=
 OpenBabel11052423023D

 28 31  0  0  1  0  0  0  0  0999 V2000
  160.8310  207.4500  151.8880 C   0  0  2  0  0  3  0  0  0  0  0  0
  161.1190  206.1950  146.9050 C   0  0  0  0  0  3  0  0  0  0  0  0
  160.6800  202.5260  151.9430 C   0  0  0  0  0  1  0  0  0  0  0  0
  161.2380  203.7900  146.8920 C   0  0  0  0  0  0  0  0  0  0  0  0
  161.0700  204.9940  149.0000 C   0  0  0  0  0  0  0  0  0  0  0  0
  161.1400  205.0200  144.7630 C   0  0  0  0  0  0  0  0  0  0  0  0
  161.0940  204.9750  147.6100 C   0  0  0  0  0  0  0  0  0  0  0  0
  161.4780  202.5870  149.0010 C   0  0  0  0  0  3  0  0  0  0  0  0
  161.1640  203.7840  145.4790 C   0  0  0  0  0  3  0  0  0  0  0  0
  161.0510  204.9700  151.8320 C   0  0  0  0  0  0  0  0  0  0  0  0
  160.9540  206.1080  149.7440 C   0  0  0  0  0  3  0  0  0  0  0  0
  161.3700  202.5640  147.6060 C   0  0  0  0  0  3  0  0  0  0  0  0
  161.7080  206.2280  153.9550 C   0  0  0  0  0  2  0  0  0  0  0  0
  161.1090  203.7750  151.1260 C   0  0  0  0  0  0  0  0  0  0  0  0
  160.9680  205.0900  153.3560 C   0  0  0  0  0  2  0  0  0  0  0  0
  161.2090  205.1010  143.3860 O   0  0  0  0  0  1  0  0  0  0  0  0
  161.1640  206.2250  145.5270 C   0  0  0  0  0  3  0  0  0  0  0  0
  161.2070  203.7350  149.6910 C   0  0  0  0  0  0  0  0  0  0  0  0
  161.2430  207.4760  153.3690 C   0  0  0  0  0  2  0  0  0  0  0  0
  161.0050  206.1620  151.1200 C   0  0  0  0  0  0  0  0  0  0  0  0
  161.2420  208.7870  151.2590 C   0  0  0  0  0  2  0  0  0  0  0  0
  161.8880  209.7660  152.2750 C   0  0  0  0  0  2  0  0  0  0  0  0
  160.7500  210.7540  152.3660 C   0  0  0  0  0  2  0  0  0  0  0  0
  157.7610  212.0080  153.8890 C   0  0  0  0  0  1  0  0  0  0  0  0
  160.3020  211.0870  153.8250 N   0  0  0  0  0  0  0  0  0  0  0  0
  158.8270  210.9520  155.7230 O   0  0  0  0  0  0  0  0  0  0  0  0
  158.9920  211.2850  154.5110 C   0  0  0  0  0  0  0  0  0  0  0  0
  161.3680  210.8710  154.6400 C   0  0  0  0  0  1  0  0  0  0  0  0
  1 21  1  6  0  0  0
  1 19  1  0  0  0  0
  2  7  1  0  0  0  0
  4 12  2  0  0  0  0
  4  7  1  0  0  0  0
  5 18  1  0  0  0  0
  5 11  1  0  0  0  0
  6  9  2  0  0  0  0
  6 17  1  0  0  0  0
  7  5  2  0  0  0  0
  8 18  2  0  0  0  0
  9  4  1  0  0  0  0
 10 15  1  0  0  0  0
 11 20  2  0  0  0  0
 12  8  1  0  0  0  0
 14 10  2  0  0  0  0
 14  3  1  0  0  0  0
 15 13  1  0  0  0  0
 16  6  1  0  0  0  0
 17  2  2  0  0  0  0
 18 14  1  0  0  0  0
 19 13  1  0  0  0  0
 20 10  1  0  0  0  0
 20  1  1  0  0  0  0
 21 22  1  0  0  0  0
 22 23  1  0  0  0  0
 23 25  1  0  0  0  0
 24 27  1  0  0  0  0
 25 27  1  0  0  0  0
 25 28  1  0  0  0  0
 27 26  2  0  0  0  0
M  END
>  <MODEL>
3

>  <REMARK>
 VINA RESULT:     -10.0      0.515      1.161
  Name = 
  4 active torsions:
  status: ('A' for Active; 'I' for Inactive)
    1  A    between atoms: C_1  and  C_2
    2  A    between atoms: C_2  and  C_7
    3  A    between atoms: N_6  and  C_28
    4  A    between atoms: C_7  and  C_28
                            x       y       z     vdW  Elec       q    Type
                         _______ _______ _______ _____ _____    ______ ____

>  <TORSDO>
F 4

$$$$
=
 OpenBabel11052423023D

 28 31  0  0  1  0  0  0  0  0999 V2000
  161.2110  208.0410  153.1360 C   0  0  2  0  0  3  0  0  0  0  0  0
  160.9260  203.5760  150.5940 C   0  0  0  0  0  3  0  0  0  0  0  0
  162.2920  209.3010  148.4980 C   0  0  0  0  0  1  0  0  0  0  0  0
  161.2630  204.1710  148.2840 C   0  0  0  0  0  0  0  0  0  0  0  0
  161.3010  205.8890  150.0080 C   0  0  0  0  0  0  0  0  0  0  0  0
  161.0250  201.8040  148.9140 C   0  0  0  0  0  0  0  0  0  0  0  0
  161.2140  204.5550  149.6220 C   0  0  0  0  0  0  0  0  0  0  0  0
  161.3560  206.5250  147.6520 C   0  0  0  0  0  3  0  0  0  0  0  0
  161.2690  202.8030  147.9220 C   0  0  0  0  0  3  0  0  0  0  0  0
  161.4600  208.6230  150.7280 C   0  0  0  0  0  0  0  0  0  0  0  0
  161.2400  206.3190  151.2810 C   0  0  0  0  0  3  0  0  0  0  0  0
  161.4000  205.1760  147.2840 C   0  0  0  0  0  3  0  0  0  0  0  0
  160.6800  210.4200  152.3660 C   0  0  0  0  0  2  0  0  0  0  0  0
  161.5960  208.2440  149.3980 C   0  0  0  0  0  0  0  0  0  0  0  0
  161.5930  210.0540  151.2540 C   0  0  0  0  0  2  0  0  0  0  0  0
  160.8760  200.4630  148.6200 O   0  0  0  0  0  1  0  0  0  0  0  0
  160.8100  202.2440  150.2540 C   0  0  0  0  0  3  0  0  0  0  0  0
  161.4380  206.8800  148.9690 C   0  0  0  0  0  0  0  0  0  0  0  0
  160.8720  209.5010  153.4780 C   0  0  0  0  0  2  0  0  0  0  0  0
  161.2460  207.6370  151.6830 C   0  0  0  0  0  0  0  0  0  0  0  0
  160.5240  207.1420  154.1730 C   0  0  0  0  0  2  0  0  0  0  0  0
  161.0650  207.3470  155.6120 C   0  0  0  0  0  2  0  0  0  0  0  0
  159.8190  207.9460  156.2210 C   0  0  0  0  0  2  0  0  0  0  0  0
  157.9250  210.8500  155.3220 C   0  0  0  0  0  1  0  0  0  0  0  0
  159.9210  209.4760  156.5220 N   0  0  0  0  0  0  0  0  0  0  0  0
  159.0640  211.6010  157.2610 O   0  0  0  0  0  0  0  0  0  0  0  0
  158.9850  210.6350  156.4440 C   0  0  0  0  0  0  0  0  0  0  0  0
  161.0440  209.6730  157.2610 C   0  0  0  0  0  1  0  0  0  0  0  0
  1 19  1  0  0  0  0
  1 21  1  1  0  0  0
  3 14  1  0  0  0  0
  4  7  1  0  0  0  0
  5 11  1  0  0  0  0
  6 17  2  0  0  0  0
  7  5  1  0  0  0  0
  7  2  2  0  0  0  0
  8 18  1  0  0  0  0
  9  4  2  0  0  0  0
  9  6  1  0  0  0  0
 10 15  1  0  0  0  0
 10 20  1  0  0  0  0
 11 20  2  0  0  0  0
 12  8  2  0  0  0  0
 12  4  1  0  0  0  0
 13 19  1  0  0  0  0
 14 10  2  0  0  0  0
 15 13  1  0  0  0  0
 16  6  1  0  0  0  0
 17  2  1  0  0  0  0
 18 14  1  0  0  0  0
 18  5  2  0  0  0  0
 20  1  1  0  0  0  0
 21 22  1  0  0  0  0
 22 23  1  0  0  0  0
 23 25  1  0  0  0  0
 24 27  1  0  0  0  0
 25 28  1  0  0  0  0
 27 25  1  0  0  0  0
 27 26  2  0  0  0  0
M  END
>  <MODEL>
4

>  <REMARK>
 VINA RESULT:      -9.9      2.088      4.033
  Name = 
  4 active torsions:
  status: ('A' for Active; 'I' for Inactive)
    1  A    between atoms: C_1  and  C_2
    2  A    between atoms: C_2  and  C_7
    3  A    between atoms: N_6  and  C_28
    4  A    between atoms: C_7  and  C_28
                            x       y       z     vdW  Elec       q    Type
                         _______ _______ _______ _____ _____    ______ ____

>  <TORSDO>
F 4

$$$$
=
 OpenBabel11052423023D

 28 31  0  0  1  0  0  0  0  0999 V2000
  161.5200  208.7610  149.8060 C   0  0  2  0  0  3  0  0  0  0  0  0
  161.2560  203.7450  148.6860 C   0  0  0  0  0  3  0  0  0  0  0  0
  160.6200  206.6670  154.1730 C   0  0  0  0  0  1  0  0  0  0  0  0
  161.0030  202.6600  150.8220 C   0  0  0  0  0  0  0  0  0  0  0  0
  161.1730  205.0850  150.6940 C   0  0  0  0  0  0  0  0  0  0  0  0
  160.9430  201.3230  148.7560 C   0  0  0  0  0  0  0  0  0  0  0  0
  161.0940  203.8380  150.0830 C   0  0  0  0  0  0  0  0  0  0  0  0
  161.2060  203.9730  152.8670 C   0  0  0  0  0  3  0  0  0  0  0  0
  160.8280  201.4120  150.1780 C   0  0  0  0  0  3  0  0  0  0  0  0
  161.3530  207.5920  151.9980 C   0  0  0  0  0  0  0  0  0  0  0  0
  161.2830  206.2510  150.0340 C   0  0  0  0  0  3  0  0  0  0  0  0
  160.9960  202.7390  152.2440 C   0  0  0  0  0  3  0  0  0  0  0  0
  162.3450  209.9440  151.9160 C   0  0  0  0  0  2  0  0  0  0  0  0
  161.1760  206.4320  152.7410 C   0  0  0  0  0  0  0  0  0  0  0  0
  161.3980  209.0100  152.5740 C   0  0  0  0  0  2  0  0  0  0  0  0
  160.9250  200.1260  148.0680 O   0  0  0  0  0  1  0  0  0  0  0  0
  161.2070  202.5280  148.0400 C   0  0  0  0  0  3  0  0  0  0  0  0
  161.1640  205.1270  152.1370 C   0  0  0  0  0  0  0  0  0  0  0  0
  162.0370  210.0330  150.4970 C   0  0  0  0  0  2  0  0  0  0  0  0
  161.4390  207.4900  150.6160 C   0  0  0  0  0  0  0  0  0  0  0  0
  162.0860  208.7360  148.3800 C   0  0  0  0  0  2  0  0  0  0  0  0
  162.4100  207.3040  147.8770 C   0  0  0  0  0  2  0  0  0  0  0  0
  161.0950  207.0210  147.1910 C   0  0  0  0  0  2  0  0  0  0  0  0
  163.5480  204.7030  145.9940 C   0  0  0  0  0  1  0  0  0  0  0  0
  161.2000  206.0410  145.9780 N   0  0  0  0  0  0  0  0  0  0  0  0
  161.5790  203.8970  144.9520 O   0  0  0  0  0  0  0  0  0  0  0  0
  162.0370  204.8520  145.6470 C   0  0  0  0  0  0  0  0  0  0  0  0
  160.0810  206.2030  145.2240 C   0  0  0  0  0  1  0  0  0  0  0  0
  1 21  1  6  0  0  0
  1 19  1  0  0  0  0
  1 20  1  0  0  0  0
  2  7  1  0  0  0  0
  4 12  1  0  0  0  0
  5 18  1  0  0  0  0
  6  9  2  0  0  0  0
  7  5  1  0  0  0  0
  7  4  2  0  0  0  0
  9  4  1  0  0  0  0
 10 15  1  0  0  0  0
 10 14  1  0  0  0  0
 11 20  1  0  0  0  0
 11  5  2  0  0  0  0
 12  8  2  0  0  0  0
 13 15  1  0  0  0  0
 14  3  1  0  0  0  0
 16  6  1  0  0  0  0
 17  2  2  0  0  0  0
 17  6  1  0  0  0  0
 18 14  2  0  0  0  0
 18  8  1  0  0  0  0
 19 13  1  0  0  0  0
 20 10  2  0  0  0  0
 22 21  1  0  0  0  0
 23 22  1  0  0  0  0
 25 23  1  0  0  0  0
 26 27  2  0  0  0  0
 27 25  1  0  0  0  0
 27 24  1  0  0  0  0
 28 25  1  0  0  0  0
M  END
>  <MODEL>
5

>  <REMARK>
 VINA RESULT:      -9.7      3.504      6.008
  Name = 
  4 active torsions:
  status: ('A' for Active; 'I' for Inactive)
    1  A    between atoms: C_1  and  C_2
    2  A    between atoms: C_2  and  C_7
    3  A    between atoms: N_6  and  C_28
    4  A    between atoms: C_7  and  C_28
                            x       y       z     vdW  Elec       q    Type
                         _______ _______ _______ _____ _____    ______ ____

>  <TORSDO>
F 4

$$$$
=
 OpenBabel11052423023D

 28 31  0  0  1  0  0  0  0  0999 V2000
  160.8590  207.7700  151.9450 C   0  0  2  0  0  3  0  0  0  0  0  0
  161.1910  206.3060  147.0230 C   0  0  0  0  0  3  0  0  0  0  0  0
  160.6130  202.8570  152.2010 C   0  0  0  0  0  1  0  0  0  0  0  0
  161.2650  203.9000  147.1100 C   0  0  0  0  0  0  0  0  0  0  0  0
  161.0910  205.1940  149.1650 C   0  0  0  0  0  0  0  0  0  0  0  0
  161.2190  205.0440  144.9310 C   0  0  0  0  0  0  0  0  0  0  0  0
  161.1340  205.1160  147.7760 C   0  0  0  0  0  0  0  0  0  0  0  0
  161.4530  202.7820  149.2700 C   0  0  0  0  0  3  0  0  0  0  0  0
  161.2100  203.8370  145.6970 C   0  0  0  0  0  3  0  0  0  0  0  0
  161.0320  205.2870  151.9940 C   0  0  0  0  0  0  0  0  0  0  0  0
  160.9860  206.3390  149.8600 C   0  0  0  0  0  3  0  0  0  0  0  0
  161.3630  202.7030  147.8760 C   0  0  0  0  0  3  0  0  0  0  0  0
  161.6840  206.6190  154.0730 C   0  0  0  0  0  2  0  0  0  0  0  0
  161.0770  204.0630  151.3380 C   0  0  0  0  0  0  0  0  0  0  0  0
  160.9300  205.4710  153.5110 C   0  0  0  0  0  2  0  0  0  0  0  0
  161.3090  205.0670  143.5530 O   0  0  0  0  0  1  0  0  0  0  0  0
  161.2560  206.2780  145.6450 C   0  0  0  0  0  3  0  0  0  0  0  0
  161.1940  203.9620  149.9080 C   0  0  0  0  0  0  0  0  0  0  0  0
  161.2510  207.8500  153.4300 C   0  0  0  0  0  2  0  0  0  0  0  0
  161.0190  206.4490  151.2340 C   0  0  0  0  0  0  0  0  0  0  0  0
  161.3040  209.0730  151.2680 C   0  0  0  0  0  2  0  0  0  0  0  0
  161.5480  210.2300  152.2730 C   0  0  0  0  0  2  0  0  0  0  0  0
  160.1220  210.7110  152.3890 C   0  0  0  0  0  2  0  0  0  0  0  0
  161.1520  212.7590  149.6370 C   0  0  0  0  0  1  0  0  0  0  0  0
  159.9090  212.2020  151.9720 N   0  0  0  0  0  0  0  0  0  0  0  0
  159.2770  213.9580  150.4520 O   0  0  0  0  0  0  0  0  0  0  0  0
  160.0370  212.9750  150.7030 C   0  0  0  0  0  0  0  0  0  0  0  0
  159.2000  212.8060  152.9630 C   0  0  0  0  0  1  0  0  0  0  0  0
  1 21  1  6  0  0  0
  1 19  1  0  0  0  0
  2  7  1  0  0  0  0
  4  7  2  0  0  0  0
  4 12  1  0  0  0  0
  5 11  2  0  0  0  0
  5 18  1  0  0  0  0
  6 17  1  0  0  0  0
  6  9  2  0  0  0  0
  7  5  1  0  0  0  0
  8 18  1  0  0  0  0
  9  4  1  0  0  0  0
 10 15  1  0  0  0  0
 11 20  1  0  0  0  0
 12  8  2  0  0  0  0
 14 10  1  0  0  0  0
 14  3  1  0  0  0  0
 15 13  1  0  0  0  0
 16  6  1  0  0  0  0
 17  2  2  0  0  0  0
 18 14  2  0  0  0  0
 19 13  1  0  0  0  0
 20  1  1  0  0  0  0
 20 10  2  0  0  0  0
 21 22  1  0  0  0  0
 22 23  1  0  0  0  0
 24 27  1  0  0  0  0
 25 23  1  0  0  0  0
 25 28  1  0  0  0  0
 26 27  2  0  0  0  0
 27 25  1  0  0  0  0
M  END
>  <MODEL>
6

>  <REMARK>
 VINA RESULT:      -9.5      1.482      1.932
  Name = 
  4 active torsions:
  status: ('A' for Active; 'I' for Inactive)
    1  A    between atoms: C_1  and  C_2
    2  A    between atoms: C_2  and  C_7
    3  A    between atoms: N_6  and  C_28
    4  A    between atoms: C_7  and  C_28
                            x       y       z     vdW  Elec       q    Type
                         _______ _______ _______ _____ _____    ______ ____

>  <TORSDO>
F 4

$$$$
=
 OpenBabel11052423023D

 28 31  0  0  1  0  0  0  0  0999 V2000
  161.4830  204.1620  149.2500 C   0  0  2  0  0  3  0  0  0  0  0  0
  161.8450  209.2640  148.6790 C   0  0  0  0  0  3  0  0  0  0  0  0
  161.4830  205.8280  153.8860 C   0  0  0  0  0  1  0  0  0  0  0  0
  161.6590  210.1390  150.9160 C   0  0  0  0  0  0  0  0  0  0  0  0
  161.5710  207.7360  150.5300 C   0  0  0  0  0  0  0  0  0  0  0  0
  162.0840  211.6690  149.0360 C   0  0  0  0  0  0  0  0  0  0  0  0
  161.7370  209.0370  150.0660 C   0  0  0  0  0  0  0  0  0  0  0  0
  161.0970  208.6330  152.7510 C   0  0  0  0  0  3  0  0  0  0  0  0
  161.9270  211.4440  150.4380 C   0  0  0  0  0  3  0  0  0  0  0  0
  161.2010  205.1140  151.5330 C   0  0  0  0  0  0  0  0  0  0  0  0
  161.6160  206.6400  149.7540 C   0  0  0  0  0  3  0  0  0  0  0  0
  161.3960  209.9230  152.2990 C   0  0  0  0  0  3  0  0  0  0  0  0
  160.2950  202.7770  151.0410 C   0  0  0  0  0  2  0  0  0  0  0  0
  161.2060  206.1980  152.4020 C   0  0  0  0  0  0  0  0  0  0  0  0
  161.0780  203.6480  151.9540 C   0  0  0  0  0  2  0  0  0  0  0  0
  162.2070  212.9270  148.4790 O   0  0  0  0  0  1  0  0  0  0  0  0
  161.9900  210.5380  148.1720 C   0  0  0  0  0  3  0  0  0  0  0  0
  161.3040  207.5550  151.9370 C   0  0  0  0  0  0  0  0  0  0  0  0
  160.8720  202.8270  149.7060 C   0  0  0  0  0  2  0  0  0  0  0  0
  161.3780  205.3490  150.1760 C   0  0  0  0  0  0  0  0  0  0  0  0
  161.2000  204.3230  147.7510 C   0  0  0  0  0  2  0  0  0  0  0  0
  162.2280  205.2350  147.0300 C   0  0  0  0  0  2  0  0  0  0  0  0
  162.5740  204.3030  145.8940 C   0  0  0  0  0  2  0  0  0  0  0  0
  160.4560  201.4790  145.2860 C   0  0  0  0  0  1  0  0  0  0  0  0
  161.3840  203.9930  144.9290 N   0  0  0  0  0  0  0  0  0  0  0  0
  159.1530  203.2540  144.4090 O   0  0  0  0  0  0  0  0  0  0  0  0
  160.2940  202.9760  144.8860 C   0  0  0  0  0  0  0  0  0  0  0  0
  161.2070  205.0830  144.1360 C   0  0  0  0  0  1  0  0  0  0  0  0
  1 21  1  6  0  0  0
  1 19  1  0  0  0  0
  1 20  1  0  0  0  0
  2  7  1  0  0  0  0
  4 12  1  0  0  0  0
  5 18  1  0  0  0  0
  6  9  2  0  0  0  0
  7  5  1  0  0  0  0
  7  4  2  0  0  0  0
  9  4  1  0  0  0  0
 10 15  1  0  0  0  0
 10 14  1  0  0  0  0
 11 20  1  0  0  0  0
 11  5  2  0  0  0  0
 12  8  2  0  0  0  0
 13 15  1  0  0  0  0
 14  3  1  0  0  0  0
 16  6  1  0  0  0  0
 17  2  2  0  0  0  0
 17  6  1  0  0  0  0
 18 14  2  0  0  0  0
 18  8  1  0  0  0  0
 19 13  1  0  0  0  0
 20 10  2  0  0  0  0
 22 21  1  0  0  0  0
 23 22  1  0  0  0  0
 25 23  1  0  0  0  0
 26 27  2  0  0  0  0
 27 25  1  0  0  0  0
 27 24  1  0  0  0  0
 28 25  1  0  0  0  0
M  END
>  <MODEL>
7

>  <REMARK>
 VINA RESULT:      -8.9      3.046      7.597
  Name = 
  4 active torsions:
  status: ('A' for Active; 'I' for Inactive)
    1  A    between atoms: C_1  and  C_2
    2  A    between atoms: C_2  and  C_7
    3  A    between atoms: N_6  and  C_28
    4  A    between atoms: C_7  and  C_28
                            x       y       z     vdW  Elec       q    Type
                         _______ _______ _______ _____ _____    ______ ____

>  <TORSDO>
F 4

$$$$
=
 OpenBabel11052423023D

 28 31  0  0  1  0  0  0  0  0999 V2000
  161.7830  205.5340  146.5020 C   0  0  2  0  0  3  0  0  0  0  0  0
  161.2830  206.5270  151.5270 C   0  0  0  0  0  3  0  0  0  0  0  0
  161.3780  201.0550  148.5130 C   0  0  0  0  0  1  0  0  0  0  0  0
  160.8920  204.3740  152.5340 C   0  0  0  0  0  0  0  0  0  0  0  0
  161.2260  204.5570  150.1300 C   0  0  0  0  0  0  0  0  0  0  0  0
  161.0980  206.3710  153.9580 C   0  0  0  0  0  0  0  0  0  0  0  0
  161.1800  205.1270  151.3980 C   0  0  0  0  0  0  0  0  0  0  0  0
  160.5490  202.4250  151.1080 C   0  0  0  0  0  3  0  0  0  0  0  0
  160.9450  204.9560  153.8230 C   0  0  0  0  0  3  0  0  0  0  0  0
  161.2830  203.3420  147.5730 C   0  0  0  0  0  0  0  0  0  0  0  0
  161.4770  205.2380  148.9980 C   0  0  0  0  0  3  0  0  0  0  0  0
  160.6340  202.9810  152.3890 C   0  0  0  0  0  3  0  0  0  0  0  0
  160.8030  203.6470  145.0830 C   0  0  0  0  0  2  0  0  0  0  0  0
  161.0810  202.5670  148.7080 C   0  0  0  0  0  0  0  0  0  0  0  0
  161.4020  202.8010  146.1460 C   0  0  0  0  0  2  0  0  0  0  0  0
  161.0190  207.0300  155.1690 O   0  0  0  0  0  1  0  0  0  0  0  0
  161.2210  207.1380  152.7620 C   0  0  0  0  0  3  0  0  0  0  0  0
  160.9580  203.1440  150.0200 C   0  0  0  0  0  0  0  0  0  0  0  0
  161.3970  204.9740  145.1230 C   0  0  0  0  0  2  0  0  0  0  0  0
  161.4530  204.7120  147.7240 C   0  0  0  0  0  0  0  0  0  0  0  0
  161.5150  207.0440  146.4900 C   0  0  0  0  0  2  0  0  0  0  0  0
  161.2620  207.6310  147.9040 C   0  0  0  0  0  2  0  0  0  0  0  0
  162.4500  208.5610  147.9610 C   0  0  0  0  0  2  0  0  0  0  0  0
  163.0370  212.0760  147.6110 C   0  0  0  0  0  1  0  0  0  0  0  0
  162.2400  209.8190  148.8650 N   0  0  0  0  0  0  0  0  0  0  0  0
  161.4210  212.0310  149.3430 O   0  0  0  0  0  0  0  0  0  0  0  0
  162.1620  211.2890  148.6310 C   0  0  0  0  0  0  0  0  0  0  0  0
  161.7690  209.3860  150.0640 C   0  0  0  0  0  1  0  0  0  0  0  0
  1 21  1  1  0  0  0
  1 20  1  0  0  0  0
  2 17  1  0  0  0  0
  3 14  1  0  0  0  0
  4  9  2  0  0  0  0
  5  7  1  0  0  0  0
  6 16  1  0  0  0  0
  7  2  2  0  0  0  0
  7  4  1  0  0  0  0
  8 12  2  0  0  0  0
  9  6  1  0  0  0  0
 10 20  2  0  0  0  0
 10 14  1  0  0  0  0
 11  5  2  0  0  0  0
 12  4  1  0  0  0  0
 13 19  1  0  0  0  0
 13 15  1  0  0  0  0
 14 18  2  0  0  0  0
 15 10  1  0  0  0  0
 17  6  2  0  0  0  0
 18  5  1  0  0  0  0
 18  8  1  0  0  0  0
 19  1  1  0  0  0  0
 20 11  1  0  0  0  0
 21 22  1  0  0  0  0
 22 23  1  0  0  0  0
 23 25  1  0  0  0  0
 24 27  1  0  0  0  0
 25 28  1  0  0  0  0
 27 25  1  0  0  0  0
 27 26  2  0  0  0  0
M  END
>  <MODEL>
8

>  <REMARK>
 VINA RESULT:      -8.4      2.889      6.120
  Name = 
  4 active torsions:
  status: ('A' for Active; 'I' for Inactive)
    1  A    between atoms: C_1  and  C_2
    2  A    between atoms: C_2  and  C_7
    3  A    between atoms: N_6  and  C_28
    4  A    between atoms: C_7  and  C_28
                            x       y       z     vdW  Elec       q    Type
                         _______ _______ _______ _____ _____    ______ ____

>  <TORSDO>
F 4

$$$$
=
 OpenBabel11052423023D

 28 31  0  0  1  0  0  0  0  0999 V2000
  161.8640  207.9560  148.7630 C   0  0  2  0  0  3  0  0  0  0  0  0
  161.2050  210.3740  153.2570 C   0  0  0  0  0  3  0  0  0  0  0  0
  161.4780  204.2600  151.9970 C   0  0  0  0  0  1  0  0  0  0  0  0
  160.8220  208.6050  154.8470 C   0  0  0  0  0  0  0  0  0  0  0  0
  161.2210  208.0790  152.5030 C   0  0  0  0  0  0  0  0  0  0  0  0
  160.9530  210.9370  155.6210 C   0  0  0  0  0  0  0  0  0  0  0  0
  161.1290  208.9960  153.5450 C   0  0  0  0  0  0  0  0  0  0  0  0
  160.5520  206.3140  154.0520 C   0  0  0  0  0  3  0  0  0  0  0  0
  160.8280  209.5430  155.9070 C   0  0  0  0  0  3  0  0  0  0  0  0
  161.3720  206.1660  150.4220 C   0  0  0  0  0  0  0  0  0  0  0  0
  161.4930  208.4020  151.2270 C   0  0  0  0  0  3  0  0  0  0  0  0
  160.5910  207.2250  155.1140 C   0  0  0  0  0  3  0  0  0  0  0  0
  160.9580  205.7110  147.9430 C   0  0  0  0  0  2  0  0  0  0  0  0
  161.1500  205.7550  151.7300 C   0  0  0  0  0  0  0  0  0  0  0  0
  161.5400  205.2310  149.2210 C   0  0  0  0  0  2  0  0  0  0  0  0
  160.8280  211.9220  156.5810 O   0  0  0  0  0  1  0  0  0  0  0  0
  161.0970  211.3200  154.2550 C   0  0  0  0  0  3  0  0  0  0  0  0
  160.9800  206.6900  152.8100 C   0  0  0  0  0  0  0  0  0  0  0  0
  161.5280  207.0050  147.6020 C   0  0  0  0  0  2  0  0  0  0  0  0
  161.5140  207.5230  150.1650 C   0  0  0  0  0  0  0  0  0  0  0  0
  161.5720  209.3890  148.2990 C   0  0  0  0  0  2  0  0  0  0  0  0
  162.1970  210.4680  149.2210 C   0  0  0  0  0  2  0  0  0  0  0  0
  162.3190  211.5720  148.1980 C   0  0  0  0  0  2  0  0  0  0  0  0
  160.0580  212.3790  145.5400 C   0  0  0  0  0  1  0  0  0  0  0  0
  161.0420  212.4620  148.0570 N   0  0  0  0  0  0  0  0  0  0  0  0
  158.7500  212.8830  147.4510 O   0  0  0  0  0  0  0  0  0  0  0  0
  159.9160  212.5510  147.0820 C   0  0  0  0  0  0  0  0  0  0  0  0
  160.8380  213.0780  149.2510 C   0  0  0  0  0  1  0  0  0  0  0  0
  1 21  1  6  0  0  0
  1 20  1  0  0  0  0
  2  7  2  0  0  0  0
  2 17  1  0  0  0  0
  4 12  1  0  0  0  0
  4  9  2  0  0  0  0
  5 18  1  0  0  0  0
  5  7  1  0  0  0  0
  6  9  1  0  0  0  0
  6 16  1  0  0  0  0
  7  4  1  0  0  0  0
  8 12  2  0  0  0  0
 10 14  1  0  0  0  0
 11  5  2  0  0  0  0
 13 15  1  0  0  0  0
 14  3  1  0  0  0  0
 14 18  2  0  0  0  0
 15 10  1  0  0  0  0
 17  6  2  0  0  0  0
 18  8  1  0  0  0  0
 19 13  1  0  0  0  0
 19  1  1  0  0  0  0
 20 10  2  0  0  0  0
 20 11  1  0  0  0  0
 21 22  1  0  0  0  0
 23 22  1  0  0  0  0
 24 27  1  0  0  0  0
 25 23  1  0  0  0  0
 25 28  1  0  0  0  0
 27 26  2  0  0  0  0
 27 25  1  0  0  0  0
M  END
>  <MODEL>
9

>  <REMARK>
 VINA RESULT:      -8.4      2.995      7.132
  Name = 
  4 active torsions:
  status: ('A' for Active; 'I' for Inactive)
    1  A    between atoms: C_1  and  C_2
    2  A    between atoms: C_2  and  C_7
    3  A    between atoms: N_6  and  C_28
    4  A    between atoms: C_7  and  C_28
                            x       y       z     vdW  Elec       q    Type
                         _______ _______ _______ _____ _____    ______ ____

>  <TORSDO>
F 4

$$$$
