=
 OpenBabel11052423203D

 27 31  0  0  1  0  0  0  0  0999 V2000
  160.3570  211.0080  151.4700 N   0  0  0  0  0  0  0  0  0  0  0  0
  159.6750  210.5700  152.6890 C   0  0  2  0  0  3  0  0  0  0  0  0
  161.5880  209.1550  152.4270 N   0  0  1  0  0  0  0  0  0  0  0  0
  161.5780  211.7360  156.3020 N   0  0  0  0  0  0  0  0  0  0  0  0
  163.5670  210.6930  157.2610 C   0  0  0  0  0  1  0  0  0  0  0  0
  158.9400  211.6450  153.5440 C   0  0  0  0  0  2  0  0  0  0  0  0
  162.2850  209.8190  155.2190 N   0  0  0  0  0  0  0  0  0  0  0  0
  161.8800  208.2850  149.5850 C   0  0  1  0  0  3  0  0  0  0  0  0
  161.2720  206.7860  153.0200 C   0  0  0  0  0  1  0  0  0  0  0  0
  162.9120  208.0560  148.6740 O   0  0  0  0  0  1  0  0  0  0  0  0
  161.2520  210.2430  154.5770 C   0  0  0  0  0  0  0  0  0  0  0  0
  162.4600  210.7800  156.2730 C   0  0  0  0  0  0  0  0  0  0  0  0
  160.7430  211.4190  155.2040 C   0  0  0  0  0  0  0  0  0  0  0  0
  161.5790  210.2040  151.3780 C   0  0  1  0  0  3  0  0  0  0  0  0
  160.5930  209.5850  153.4070 C   0  0  1  0  0  3  0  0  0  0  0  0
  162.0920  207.4030  150.7980 C   0  0  0  0  0  2  0  0  0  0  0  0
  159.7060  212.1160  154.7580 C   0  0  0  0  0  3  0  0  0  0  0  0
  161.9580  210.5810  149.0800 O   0  0  0  0  0  0  0  0  0  0  0  0
  161.8290  209.7400  149.9570 C   0  0  0  0  0  0  0  0  0  0  0  0
  161.1720  207.8360  151.9230 C   0  0  2  0  0  3  0  0  0  0  0  0
  160.6420  212.4540  151.3450 C   0  0  0  0  0  2  0  0  0  0  0  0
  158.3930  214.4490  148.2520 C   0  0  0  0  0  3  0  0  0  0  0  0
  159.8890  213.2030  150.2730 C   0  0  0  0  0  0  0  0  0  0  0  0
  158.4990  213.3230  150.3930 C   0  0  0  0  0  3  0  0  0  0  0  0
  157.7530  213.9550  149.3930 C   0  0  0  0  0  3  0  0  0  0  0  0
  159.7740  214.2980  148.1060 C   0  0  0  0  0  3  0  0  0  0  0  0
  160.5160  213.6650  149.1070 C   0  0  0  0  0  3  0  0  0  0  0  0
  1  2  1  0  0  0  0
  2 15  1  0  0  0  0
  2  6  1  1  0  0  0
  3 15  1  0  0  0  0
  6 17  1  0  0  0  0
  7 12  1  0  0  0  0
  8 19  1  0  0  0  0
  8 16  1  0  0  0  0
 10  8  1  0  0  0  0
 11 13  1  0  0  0  0
 11  7  2  0  0  0  0
 12  4  2  0  0  0  0
 12  5  1  0  0  0  0
 13  4  1  0  0  0  0
 14  1  1  0  0  0  0
 14  3  1  0  0  0  0
 15 11  1  0  0  0  0
 16 20  1  0  0  0  0
 17 13  2  0  0  0  0
 18 19  2  0  0  0  0
 19 14  1  0  0  0  0
 20  3  1  0  0  0  0
 20  9  1  0  0  0  0
 21  1  1  0  0  0  0
 22 25  1  0  0  0  0
 23 24  1  0  0  0  0
 23 21  1  0  0  0  0
 25 24  2  0  0  0  0
 26 22  2  0  0  0  0
 26 27  1  0  0  0  0
 27 23  2  0  0  0  0
M  END
>  <MODEL>
1

>  <REMARK>
 VINA RESULT:      -5.3      0.000      0.000
  Name = 
  2 active torsions:
  status: ('A' for Active; 'I' for Inactive)
    1  A    between atoms: N_1  and  C_15
    2  A    between atoms: C_9  and  C_15
                            x       y       z     vdW  Elec       q    Type
                         _______ _______ _______ _____ _____    ______ ____

>  <TORSDO>
F 2

$$$$
=
 OpenBabel11052423203D

 27 31  0  0  1  0  0  0  0  0999 V2000
  161.4710  206.1240  151.1260 N   0  0  0  0  0  0  0  0  0  0  0  0
  162.2090  206.9460  152.0870 C   0  0  2  0  0  3  0  0  0  0  0  0
  161.2440  208.4520  150.4960 N   0  0  1  0  0  0  0  0  0  0  0  0
  159.7770  209.0280  154.8770 N   0  0  0  0  0  0  0  0  0  0  0  0
  158.4950  211.0530  154.4100 C   0  0  0  0  0  1  0  0  0  0  0  0
  162.2790  206.4600  153.5650 C   0  0  0  0  0  2  0  0  0  0  0  0
  160.1540  209.9550  152.7920 N   0  0  0  0  0  0  0  0  0  0  0  0
  161.5740  207.4100  147.7160 C   0  0  1  0  0  3  0  0  0  0  0  0
  162.6370  210.3730  149.8390 C   0  0  0  0  0  1  0  0  0  0  0  0
  160.8370  207.3700  146.5320 O   0  0  0  0  0  1  0  0  0  0  0  0
  160.8860  208.8970  152.8600 C   0  0  0  0  0  0  0  0  0  0  0  0
  159.4750  209.9920  154.0580 C   0  0  0  0  0  0  0  0  0  0  0  0
  160.7220  208.2790  154.1360 C   0  0  0  0  0  0  0  0  0  0  0  0
  160.8020  207.0620  150.2210 C   0  0  1  0  0  3  0  0  0  0  0  0
  161.8460  208.4050  151.8260 C   0  0  1  0  0  3  0  0  0  0  0  0
  161.7490  208.8540  148.1380 C   0  0  0  0  0  2  0  0  0  0  0  0
  161.3130  207.1480  154.5010 C   0  0  0  0  0  3  0  0  0  0  0  0
  160.4190  205.5100  148.4860 O   0  0  0  0  0  0  0  0  0  0  0  0
  160.8890  206.5980  148.7810 C   0  0  0  0  0  0  0  0  0  0  0  0
  162.2770  208.9210  149.5580 C   0  0  2  0  0  3  0  0  0  0  0  0
  160.5270  205.1300  151.6810 C   0  0  0  0  0  2  0  0  0  0  0  0
  161.1270  201.0970  150.2760 C   0  0  0  0  0  3  0  0  0  0  0  0
  160.6760  203.7090  151.1960 C   0  0  0  0  0  0  0  0  0  0  0  0
  161.5430  202.8550  151.8890 C   0  0  0  0  0  3  0  0  0  0  0  0
  161.7590  201.5480  151.4390 C   0  0  0  0  0  3  0  0  0  0  0  0
  160.2910  201.9560  149.5580 C   0  0  0  0  0  3  0  0  0  0  0  0
  160.0780  203.2610  150.0100 C   0  0  0  0  0  3  0  0  0  0  0  0
  1 21  1  0  0  0  0
  1  2  1  0  0  0  0
  2  6  1  1  0  0  0
  3 15  1  0  0  0  0
  6 17  1  0  0  0  0
  7 11  2  0  0  0  0
  7 12  1  0  0  0  0
  8 16  1  0  0  0  0
  8 19  1  0  0  0  0
 10  8  1  0  0  0  0
 11 13  1  0  0  0  0
 12  5  1  0  0  0  0
 12  4  2  0  0  0  0
 13 17  2  0  0  0  0
 13  4  1  0  0  0  0
 14  3  1  0  0  0  0
 14  1  1  0  0  0  0
 15  2  1  0  0  0  0
 15 11  1  0  0  0  0
 16 20  1  0  0  0  0
 18 19  2  0  0  0  0
 19 14  1  0  0  0  0
 20  9  1  0  0  0  0
 20  3  1  0  0  0  0
 22 25  1  0  0  0  0
 23 21  1  0  0  0  0
 23 24  1  0  0  0  0
 25 24  2  0  0  0  0
 26 27  1  0  0  0  0
 26 22  2  0  0  0  0
 27 23  2  0  0  0  0
M  END
>  <MODEL>
2

>  <REMARK>
 VINA RESULT:      -4.8      3.200      6.695
  Name = 
  2 active torsions:
  status: ('A' for Active; 'I' for Inactive)
    1  A    between atoms: N_1  and  C_15
    2  A    between atoms: C_9  and  C_15
                            x       y       z     vdW  Elec       q    Type
                         _______ _______ _______ _____ _____    ______ ____

>  <TORSDO>
F 2

$$$$
=
 OpenBabel11052423203D

 27 31  0  0  1  0  0  0  0  0999 V2000
  161.5270  206.2370  150.7840 N   0  0  0  0  0  0  0  0  0  0  0  0
  162.2820  206.4980  152.0110 C   0  0  2  0  0  3  0  0  0  0  0  0
  161.5130  208.6210  151.2150 N   0  0  1  0  0  0  0  0  0  0  0  0
  159.8940  207.3960  155.4050 N   0  0  0  0  0  0  0  0  0  0  0  0
  158.7980  209.5340  155.8460 C   0  0  0  0  0  1  0  0  0  0  0  0
  162.2440  205.4220  153.1370 C   0  0  0  0  0  2  0  0  0  0  0  0
  160.4390  209.0890  153.9260 N   0  0  0  0  0  0  0  0  0  0  0  0
  161.8890  208.8440  148.2610 C   0  0  1  0  0  3  0  0  0  0  0  0
  163.0810  210.5030  151.4610 C   0  0  0  0  0  1  0  0  0  0  0  0
  161.2060  209.3820  147.1690 O   0  0  0  0  0  1  0  0  0  0  0  0
  161.0810  208.0410  153.5380 C   0  0  0  0  0  0  0  0  0  0  0  0
  159.7060  208.6420  155.0790 C   0  0  0  0  0  0  0  0  0  0  0  0
  160.8100  206.9540  154.4220 C   0  0  0  0  0  0  0  0  0  0  0  0
  160.9760  207.5290  150.3650 C   0  0  1  0  0  3  0  0  0  0  0  0
  162.0470  207.9540  152.4010 C   0  0  1  0  0  3  0  0  0  0  0  0
  162.1570  209.9460  149.2640 C   0  0  0  0  0  2  0  0  0  0  0  0
  161.2930  205.7280  154.2700 C   0  0  0  0  0  3  0  0  0  0  0  0
  160.5540  206.9110  148.1280 O   0  0  0  0  0  0  0  0  0  0  0  0
  161.0940  207.7200  148.8670 C   0  0  0  0  0  0  0  0  0  0  0  0
  162.6220  209.3500  150.5790 C   0  0  2  0  0  3  0  0  0  0  0  0
  160.4830  205.1910  150.8490 C   0  0  0  0  0  2  0  0  0  0  0  0
  161.2060  201.4890  148.7590 C   0  0  0  0  0  3  0  0  0  0  0  0
  160.7860  203.8880  150.1530 C   0  0  0  0  0  0  0  0  0  0  0  0
  160.9830  203.9000  148.7680 C   0  0  0  0  0  3  0  0  0  0  0  0
  161.2060  202.7070  148.0730 C   0  0  0  0  0  3  0  0  0  0  0  0
  160.9720  201.4640  150.1360 C   0  0  0  0  0  3  0  0  0  0  0  0
  160.7490  202.6580  150.8270 C   0  0  0  0  0  3  0  0  0  0  0  0
  1 21  1  0  0  0  0
  1  2  1  0  0  0  0
  2 15  1  0  0  0  0
  2  6  1  1  0  0  0
  3 15  1  0  0  0  0
  6 17  1  0  0  0  0
  7 12  1  0  0  0  0
  8 19  1  0  0  0  0
  8 16  1  0  0  0  0
 10  8  1  0  0  0  0
 11  7  2  0  0  0  0
 11 13  1  0  0  0  0
 12  4  2  0  0  0  0
 12  5  1  0  0  0  0
 13  4  1  0  0  0  0
 14  1  1  0  0  0  0
 14  3  1  0  0  0  0
 15 11  1  0  0  0  0
 16 20  1  0  0  0  0
 17 13  2  0  0  0  0
 18 19  2  0  0  0  0
 19 14  1  0  0  0  0
 20  3  1  0  0  0  0
 20  9  1  0  0  0  0
 22 26  1  0  0  0  0
 23 27  1  0  0  0  0
 23 21  1  0  0  0  0
 24 23  2  0  0  0  0
 25 22  2  0  0  0  0
 25 24  1  0  0  0  0
 26 27  2  0  0  0  0
M  END
>  <MODEL>
3

>  <REMARK>
 VINA RESULT:      -4.3      3.313      6.574
  Name = 
  2 active torsions:
  status: ('A' for Active; 'I' for Inactive)
    1  A    between atoms: N_1  and  C_15
    2  A    between atoms: C_9  and  C_15
                            x       y       z     vdW  Elec       q    Type
                         _______ _______ _______ _____ _____    ______ ____

>  <TORSDO>
F 2

$$$$
=
 OpenBabel11052423203D

 27 31  0  0  1  0  0  0  0  0999 V2000
  160.1440  211.1560  153.7590 N   0  0  0  0  0  0  0  0  0  0  0  0
  160.0410  212.6170  153.7340 C   0  0  2  0  0  3  0  0  0  0  0  0
  159.9200  211.8830  151.4590 N   0  0  1  0  0  0  0  0  0  0  0  0
  156.1330  214.1080  153.0040 N   0  0  0  0  0  0  0  0  0  0  0  0
  155.0220  214.1780  150.8300 C   0  0  0  0  0  1  0  0  0  0  0  0
  159.3330  213.3210  154.9290 C   0  0  0  0  0  2  0  0  0  0  0  0
  157.4690  213.5130  151.2120 N   0  0  0  0  0  0  0  0  0  0  0  0
  161.9590  209.7700  150.9170 C   0  0  1  0  0  3  0  0  0  0  0  0
  161.0780  213.2910  149.8040 C   0  0  0  0  0  1  0  0  0  0  0  0
  162.0550  208.5900  150.1780 O   0  0  0  0  0  1  0  0  0  0  0  0
  158.2000  213.4010  152.2680 C   0  0  0  0  0  0  0  0  0  0  0  0
  156.1930  213.9410  151.7150 C   0  0  0  0  0  0  0  0  0  0  0  0
  157.4440  213.7750  153.4190 C   0  0  0  0  0  0  0  0  0  0  0  0
  159.9640  210.7150  152.3730 C   0  0  1  0  0  3  0  0  0  0  0  0
  159.6470  213.0320  152.3200 C   0  0  1  0  0  3  0  0  0  0  0  0
  161.6070  210.9080  149.9820 C   0  0  0  0  0  2  0  0  0  0  0  0
  157.9030  213.7310  154.6630 C   0  0  0  0  0  3  0  0  0  0  0  0
  160.9230  208.5790  152.6610 O   0  0  0  0  0  0  0  0  0  0  0  0
  160.9410  209.6140  152.0130 C   0  0  0  0  0  0  0  0  0  0  0  0
  161.2030  212.1320  150.7820 C   0  0  2  0  0  3  0  0  0  0  0  0
  159.2420  210.4370  154.6840 C   0  0  0  0  0  2  0  0  0  0  0  0
  161.2250  207.6030  157.2610 C   0  0  0  0  0  3  0  0  0  0  0  0
  159.8840  209.4430  155.6200 C   0  0  0  0  0  0  0  0  0  0  0  0
  161.0690  209.8070  156.2700 C   0  0  0  0  0  3  0  0  0  0  0  0
  161.7320  208.8960  157.0990 C   0  0  0  0  0  3  0  0  0  0  0  0
  160.0640  207.2190  156.5850 C   0  0  0  0  0  3  0  0  0  0  0  0
  159.4050  208.1320  155.7570 C   0  0  0  0  0  3  0  0  0  0  0  0
  1 21  1  0  0  0  0
  2  1  1  0  0  0  0
  2  6  1  1  0  0  0
  3 15  1  0  0  0  0
  3 14  1  0  0  0  0
  4 13  1  0  0  0  0
  5 12  1  0  0  0  0
  7 12  1  0  0  0  0
  7 11  2  0  0  0  0
  8 19  1  0  0  0  0
  9 20  1  0  0  0  0
 10  8  1  0  0  0  0
 11 15  1  0  0  0  0
 11 13  1  0  0  0  0
 12  4  2  0  0  0  0
 13 17  2  0  0  0  0
 14  1  1  0  0  0  0
 15  2  1  0  0  0  0
 16 20  1  0  0  0  0
 16  8  1  0  0  0  0
 17  6  1  0  0  0  0
 19 14  1  0  0  0  0
 19 18  2  0  0  0  0
 20  3  1  0  0  0  0
 21 23  1  0  0  0  0
 23 27  2  0  0  0  0
 23 24  1  0  0  0  0
 24 25  2  0  0  0  0
 25 22  1  0  0  0  0
 26 22  2  0  0  0  0
 27 26  1  0  0  0  0
M  END
>  <MODEL>
4

>  <REMARK>
 VINA RESULT:      -3.7      2.477      6.250
  Name = 
  2 active torsions:
  status: ('A' for Active; 'I' for Inactive)
    1  A    between atoms: N_1  and  C_15
    2  A    between atoms: C_9  and  C_15
                            x       y       z     vdW  Elec       q    Type
                         _______ _______ _______ _____ _____    ______ ____

>  <TORSDO>
F 2

$$$$
=
 OpenBabel11052423203D

 27 31  0  0  1  0  0  0  0  0999 V2000
  160.1760  210.5920  156.0330 N   0  0  0  0  0  0  0  0  0  0  0  0
  160.7160  211.8130  155.4320 C   0  0  2  0  0  3  0  0  0  0  0  0
  160.1820  210.3370  153.6240 N   0  0  1  0  0  0  0  0  0  0  0  0
  157.8130  214.3450  153.6460 N   0  0  0  0  0  0  0  0  0  0  0  0
  156.7420  213.9740  151.4820 C   0  0  0  0  0  1  0  0  0  0  0  0
  160.4410  213.1670  156.1500 C   0  0  0  0  0  2  0  0  0  0  0  0
  158.6730  212.5760  152.4290 N   0  0  0  0  0  0  0  0  0  0  0  0
  161.0730  207.5520  154.2320 C   0  0  1  0  0  3  0  0  0  0  0  0
  161.7570  210.3270  151.7320 C   0  0  0  0  0  1  0  0  0  0  0  0
  160.6130  206.2510  154.0280 O   0  0  0  0  0  1  0  0  0  0  0  0
  159.3310  212.6140  153.5360 C   0  0  0  0  0  0  0  0  0  0  0  0
  157.7340  213.6590  152.5430 C   0  0  0  0  0  0  0  0  0  0  0  0
  158.8680  213.7020  154.3350 C   0  0  0  0  0  0  0  0  0  0  0  0
  159.7580  209.7420  154.9160 C   0  0  1  0  0  3  0  0  0  0  0  0
  160.4750  211.7360  153.9270 C   0  0  1  0  0  3  0  0  0  0  0  0
  161.2070  208.2430  152.8900 C   0  0  0  0  0  2  0  0  0  0  0  0
  159.3200  213.9830  155.5500 C   0  0  0  0  0  3  0  0  0  0  0  0
  159.7060  207.7250  156.1390 O   0  0  0  0  0  0  0  0  0  0  0  0
  160.1420  208.2940  155.1500 C   0  0  0  0  0  0  0  0  0  0  0  0
  161.4120  209.7320  153.0900 C   0  0  2  0  0  3  0  0  0  0  0  0
  159.0950  210.7580  157.0300 C   0  0  0  0  0  2  0  0  0  0  0  0
  155.2320  212.1450  155.7060 C   0  0  0  0  0  3  0  0  0  0  0  0
  157.7700  211.2620  156.5140 C   0  0  0  0  0  0  0  0  0  0  0  0
  157.0870  212.2290  157.2610 C   0  0  0  0  0  3  0  0  0  0  0  0
  155.8270  212.6800  156.8520 C   0  0  0  0  0  3  0  0  0  0  0  0
  155.8910  211.1520  154.9770 C   0  0  0  0  0  3  0  0  0  0  0  0
  157.1490  210.7030  155.3880 C   0  0  0  0  0  3  0  0  0  0  0  0
  1 21  1  0  0  0  0
  2  1  1  0  0  0  0
  2  6  1  1  0  0  0
  3 15  1  0  0  0  0
  3 14  1  0  0  0  0
  4 13  1  0  0  0  0
  5 12  1  0  0  0  0
  7 12  1  0  0  0  0
  7 11  2  0  0  0  0
  8 19  1  0  0  0  0
  9 20  1  0  0  0  0
 10  8  1  0  0  0  0
 11 15  1  0  0  0  0
 11 13  1  0  0  0  0
 12  4  2  0  0  0  0
 13 17  2  0  0  0  0
 14 19  1  0  0  0  0
 14  1  1  0  0  0  0
 15  2  1  0  0  0  0
 16 20  1  0  0  0  0
 16  8  1  0  0  0  0
 17  6  1  0  0  0  0
 19 18  2  0  0  0  0
 20  3  1  0  0  0  0
 22 25  1  0  0  0  0
 23 21  1  0  0  0  0
 23 24  1  0  0  0  0
 25 24  2  0  0  0  0
 26 27  1  0  0  0  0
 26 22  2  0  0  0  0
 27 23  2  0  0  0  0
M  END
>  <MODEL>
5

>  <REMARK>
 VINA RESULT:      -3.6      3.087      5.654
  Name = 
  2 active torsions:
  status: ('A' for Active; 'I' for Inactive)
    1  A    between atoms: N_1  and  C_15
    2  A    between atoms: C_9  and  C_15
                            x       y       z     vdW  Elec       q    Type
                         _______ _______ _______ _____ _____    ______ ____

>  <TORSDO>
F 2

$$$$
=
 OpenBabel11052423203D

 27 31  0  0  1  0  0  0  0  0999 V2000
  161.1650  209.8280  152.6980 N   0  0  0  0  0  0  0  0  0  0  0  0
  162.3210  209.4740  151.8720 C   0  0  2  0  0  3  0  0  0  0  0  0
  161.2320  207.4200  152.4440 N   0  0  1  0  0  0  0  0  0  0  0  0
  161.3770  208.3560  147.8860 N   0  0  0  0  0  0  0  0  0  0  0  0
  160.4560  206.2030  147.1940 C   0  0  0  0  0  1  0  0  0  0  0  0
  162.7540  210.4660  150.7530 C   0  0  0  0  0  2  0  0  0  0  0  0
  161.2560  206.7700  149.5630 N   0  0  0  0  0  0  0  0  0  0  0  0
  160.4450  207.4060  155.3250 C   0  0  1  0  0  3  0  0  0  0  0  0
  162.7070  205.5110  152.9350 C   0  0  0  0  0  1  0  0  0  0  0  0
  159.3790  206.9530  156.1040 O   0  0  0  0  0  1  0  0  0  0  0  0
  161.7390  207.8360  150.1020 C   0  0  0  0  0  0  0  0  0  0  0  0
  161.0350  207.1390  148.1930 C   0  0  0  0  0  0  0  0  0  0  0  0
  161.8650  208.8590  149.1150 C   0  0  0  0  0  0  0  0  0  0  0  0
  160.4510  208.5750  152.9530 C   0  0  1  0  0  3  0  0  0  0  0  0
  162.2010  207.9960  151.5140 C   0  0  1  0  0  3  0  0  0  0  0  0
  161.0360  206.2320  154.5710 C   0  0  0  0  0  2  0  0  0  0  0  0
  162.2960  210.0900  149.3630 C   0  0  0  0  0  3  0  0  0  0  0  0
  159.2300  209.3540  154.8160 O   0  0  0  0  0  0  0  0  0  0  0  0
  159.9820  208.4900  154.3920 C   0  0  0  0  0  0  0  0  0  0  0  0
  161.9880  206.7280  153.5000 C   0  0  2  0  0  3  0  0  0  0  0  0
  160.2630  210.8760  152.1720 C   0  0  0  0  0  2  0  0  0  0  0  0
  158.3590  213.2800  155.2060 C   0  0  0  0  0  3  0  0  0  0  0  0
  159.5860  211.7600  153.1910 C   0  0  0  0  0  0  0  0  0  0  0  0
  160.3120  212.1540  154.3210 C   0  0  0  0  0  3  0  0  0  0  0  0
  159.7060  212.9230  155.3200 C   0  0  0  0  0  3  0  0  0  0  0  0
  157.6170  212.8570  154.1000 C   0  0  0  0  0  3  0  0  0  0  0  0
  158.2260  212.0890  153.1030 C   0  0  0  0  0  3  0  0  0  0  0  0
  1 14  1  0  0  0  0
  2  6  1  6  0  0  0
  2  1  1  0  0  0  0
  3 14  1  0  0  0  0
  3 20  1  0  0  0  0
  4 12  2  0  0  0  0
  4 13  1  0  0  0  0
  5 12  1  0  0  0  0
  7 11  2  0  0  0  0
  8 10  1  0  0  0  0
  9 20  1  0  0  0  0
 11 15  1  0  0  0  0
 12  7  1  0  0  0  0
 13 17  2  0  0  0  0
 13 11  1  0  0  0  0
 14 19  1  0  0  0  0
 15  2  1  0  0  0  0
 15  3  1  0  0  0  0
 16  8  1  0  0  0  0
 17  6  1  0  0  0  0
 19 18  2  0  0  0  0
 19  8  1  0  0  0  0
 20 16  1  0  0  0  0
 21  1  1  0  0  0  0
 21 23  1  0  0  0  0
 22 25  1  0  0  0  0
 23 24  1  0  0  0  0
 24 25  2  0  0  0  0
 26 22  2  0  0  0  0
 27 23  2  0  0  0  0
 27 26  1  0  0  0  0
M  END
>  <MODEL>
6

>  <REMARK>
 VINA RESULT:      -3.3      3.217      5.734
  Name = 
  2 active torsions:
  status: ('A' for Active; 'I' for Inactive)
    1  A    between atoms: N_1  and  C_15
    2  A    between atoms: C_9  and  C_15
                            x       y       z     vdW  Elec       q    Type
                         _______ _______ _______ _____ _____    ______ ____

>  <TORSDO>
F 2

$$$$
=
 OpenBabel11052423203D

 27 31  0  0  1  0  0  0  0  0999 V2000
  161.7770  205.4450  148.8960 N   0  0  0  0  0  0  0  0  0  0  0  0
  162.5240  204.8930  147.7640 C   0  0  2  0  0  3  0  0  0  0  0  0
  161.0250  203.1760  148.4980 N   0  0  1  0  0  0  0  0  0  0  0  0
  160.3270  204.6520  144.1380 N   0  0  0  0  0  0  0  0  0  0  0  0
  158.6410  202.9670  143.6080 C   0  0  0  0  0  1  0  0  0  0  0  0
  162.9540  205.8660  146.6260 C   0  0  0  0  0  2  0  0  0  0  0  0
  160.1350  202.9500  145.6910 N   0  0  0  0  0  0  0  0  0  0  0  0
  161.0090  202.9890  151.4790 C   0  0  1  0  0  3  0  0  0  0  0  0
  161.9070  200.8780  148.4540 C   0  0  0  0  0  1  0  0  0  0  0  0
  160.0820  202.7560  152.4960 O   0  0  0  0  0  1  0  0  0  0  0  0
  161.0430  203.7500  146.1340 C   0  0  0  0  0  0  0  0  0  0  0  0
  159.7100  203.5520  144.4580 C   0  0  0  0  0  0  0  0  0  0  0  0
  161.2340  204.8210  145.2110 C   0  0  0  0  0  0  0  0  0  0  0  0
  160.7940  204.4240  149.2680 C   0  0  1  0  0  3  0  0  0  0  0  0
  161.8650  203.5750  147.3700 C   0  0  1  0  0  3  0  0  0  0  0  0
  161.0000  201.8120  150.5260 C   0  0  0  0  0  2  0  0  0  0  0  0
  162.0740  205.8310  145.3990 C   0  0  0  0  0  3  0  0  0  0  0  0
  160.3750  205.2540  151.4360 O   0  0  0  0  0  0  0  0  0  0  0  0
  160.6910  204.2780  150.7730 C   0  0  0  0  0  0  0  0  0  0  0  0
  161.7640  202.1590  149.2630 C   0  0  2  0  0  3  0  0  0  0  0  0
  161.1450  206.7680  148.7010 C   0  0  0  0  0  2  0  0  0  0  0  0
  162.3330  209.9540  151.3550 C   0  0  0  0  0  3  0  0  0  0  0  0
  161.6160  207.8830  149.6020 C   0  0  0  0  0  0  0  0  0  0  0  0
  161.5880  207.6790  150.9870 C   0  0  0  0  0  3  0  0  0  0  0  0
  161.9570  208.7060  151.8610 C   0  0  0  0  0  3  0  0  0  0  0  0
  162.3270  210.1770  149.9760 C   0  0  0  0  0  3  0  0  0  0  0  0
  161.9560  209.1490  149.1040 C   0  0  0  0  0  3  0  0  0  0  0  0
  1 14  1  0  0  0  0
  2  6  1  6  0  0  0
  2  1  1  0  0  0  0
  3 20  1  0  0  0  0
  3 14  1  0  0  0  0
  4 12  2  0  0  0  0
  4 13  1  0  0  0  0
  5 12  1  0  0  0  0
  7 11  2  0  0  0  0
  8 10  1  0  0  0  0
  9 20  1  0  0  0  0
 11 15  1  0  0  0  0
 12  7  1  0  0  0  0
 13 17  2  0  0  0  0
 13 11  1  0  0  0  0
 14 19  1  0  0  0  0
 15  2  1  0  0  0  0
 15  3  1  0  0  0  0
 16  8  1  0  0  0  0
 17  6  1  0  0  0  0
 19 18  2  0  0  0  0
 19  8  1  0  0  0  0
 20 16  1  0  0  0  0
 21  1  1  0  0  0  0
 21 23  1  0  0  0  0
 22 25  1  0  0  0  0
 23 24  1  0  0  0  0
 24 25  2  0  0  0  0
 26 22  2  0  0  0  0
 27 23  2  0  0  0  0
 27 26  1  0  0  0  0
M  END
>  <MODEL>
7

>  <REMARK>
 VINA RESULT:      -3.2      5.301      8.833
  Name = 
  2 active torsions:
  status: ('A' for Active; 'I' for Inactive)
    1  A    between atoms: N_1  and  C_15
    2  A    between atoms: C_9  and  C_15
                            x       y       z     vdW  Elec       q    Type
                         _______ _______ _______ _____ _____    ______ ____

>  <TORSDO>
F 2

$$$$
=
 OpenBabel11052423203D

 27 31  0  0  1  0  0  0  0  0999 V2000
  160.7760  211.9860  150.8050 N   0  0  0  0  0  0  0  0  0  0  0  0
  161.9860  211.1620  150.7630 C   0  0  2  0  0  3  0  0  0  0  0  0
  160.6840  210.3750  152.6110 N   0  0  1  0  0  0  0  0  0  0  0  0
  161.4080  207.2370  149.2490 N   0  0  0  0  0  0  0  0  0  0  0  0
  160.4060  205.3760  150.4720 C   0  0  0  0  0  1  0  0  0  0  0  0
  162.6160  210.8560  149.3720 C   0  0  0  0  0  2  0  0  0  0  0  0
  160.9780  207.6630  151.4810 N   0  0  0  0  0  0  0  0  0  0  0  0
  159.5830  212.6640  154.1820 C   0  0  1  0  0  3  0  0  0  0  0  0
  161.9440  209.7240  154.6240 C   0  0  0  0  0  1  0  0  0  0  0  0
  158.4050  212.9820  154.8600 O   0  0  0  0  0  1  0  0  0  0  0  0
  161.4800  208.7440  150.9910 C   0  0  0  0  0  0  0  0  0  0  0  0
  160.9400  206.7580  150.3650 C   0  0  0  0  0  0  0  0  0  0  0  0
  161.7930  208.5490  149.6130 C   0  0  0  0  0  0  0  0  0  0  0  0
  159.9430  211.4270  151.8730 C   0  0  1  0  0  3  0  0  0  0  0  0
  161.7920  210.0020  151.7350 C   0  0  1  0  0  3  0  0  0  0  0  0
  160.1620  211.3940  154.7710 C   0  0  0  0  0  2  0  0  0  0  0  0
  162.2880  209.4890  148.8180 C   0  0  0  0  0  3  0  0  0  0  0  0
  158.5860  213.3360  152.1600 O   0  0  0  0  0  0  0  0  0  0  0  0
  159.3110  212.5220  152.7100 C   0  0  0  0  0  0  0  0  0  0  0  0
  161.2620  210.8600  153.8750 C   0  0  2  0  0  3  0  0  0  0  0  0
  160.0210  212.1320  149.5410 C   0  0  0  0  0  2  0  0  0  0  0  0
  162.1060  214.0100  146.2650 C   0  0  0  0  0  3  0  0  0  0  0  0
  160.7240  212.8420  148.4110 C   0  0  0  0  0  0  0  0  0  0  0  0
  160.5120  212.3910  147.1030 C   0  0  0  0  0  3  0  0  0  0  0  0
  161.1900  212.9800  146.0310 C   0  0  0  0  0  3  0  0  0  0  0  0
  162.3520  214.4400  147.5710 C   0  0  0  0  0  3  0  0  0  0  0  0
  161.6740  213.8490  148.6410 C   0  0  0  0  0  3  0  0  0  0  0  0
  1 14  1  0  0  0  0
  2  6  1  6  0  0  0
  2  1  1  0  0  0  0
  2 15  1  0  0  0  0
  3 20  1  0  0  0  0
  4 13  1  0  0  0  0
  4 12  2  0  0  0  0
  8 16  1  0  0  0  0
  8 10  1  0  0  0  0
 11  7  2  0  0  0  0
 11 15  1  0  0  0  0
 12  5  1  0  0  0  0
 12  7  1  0  0  0  0
 13 11  1  0  0  0  0
 14  3  1  0  0  0  0
 14 19  1  0  0  0  0
 15  3  1  0  0  0  0
 17  6  1  0  0  0  0
 17 13  2  0  0  0  0
 18 19  2  0  0  0  0
 19  8  1  0  0  0  0
 20  9  1  0  0  0  0
 20 16  1  0  0  0  0
 21  1  1  0  0  0  0
 22 26  1  0  0  0  0
 23 27  1  0  0  0  0
 23 21  1  0  0  0  0
 24 23  2  0  0  0  0
 25 22  2  0  0  0  0
 25 24  1  0  0  0  0
 26 27  2  0  0  0  0
M  END
>  <MODEL>
8

>  <REMARK>
 VINA RESULT:      -2.8      2.586      5.089
  Name = 
  2 active torsions:
  status: ('A' for Active; 'I' for Inactive)
    1  A    between atoms: N_1  and  C_15
    2  A    between atoms: C_9  and  C_15
                            x       y       z     vdW  Elec       q    Type
                         _______ _______ _______ _____ _____    ______ ____

>  <TORSDO>
F 2

$$$$
=
 OpenBabel11052423203D

 27 31  0  0  1  0  0  0  0  0999 V2000
  161.1970  210.5740  151.5980 N   0  0  0  0  0  0  0  0  0  0  0  0
  162.2880  209.6030  151.6930 C   0  0  2  0  0  3  0  0  0  0  0  0
  160.6370  208.9380  153.2940 N   0  0  1  0  0  0  0  0  0  0  0  0
  161.4650  205.8300  149.9270 N   0  0  0  0  0  0  0  0  0  0  0  0
  160.0690  204.0790  150.9030 C   0  0  0  0  0  1  0  0  0  0  0  0
  163.0770  209.2580  150.3950 C   0  0  0  0  0  2  0  0  0  0  0  0
  160.7620  206.2430  152.0910 N   0  0  0  0  0  0  0  0  0  0  0  0
  159.6040  211.3040  154.7940 C   0  0  1  0  0  3  0  0  0  0  0  0
  161.4920  208.0720  155.4350 C   0  0  0  0  0  1  0  0  0  0  0  0
  158.3860  211.7510  155.3090 O   0  0  0  0  0  1  0  0  0  0  0  0
  161.4600  207.2650  151.7310 C   0  0  0  0  0  0  0  0  0  0  0  0
  160.7800  205.3840  150.9400 C   0  0  0  0  0  0  0  0  0  0  0  0
  161.9500  207.0700  150.4050 C   0  0  0  0  0  0  0  0  0  0  0  0
  160.1510  210.0970  152.5060 C   0  0  1  0  0  3  0  0  0  0  0  0
  161.8100  208.4500  152.5710 C   0  0  1  0  0  3  0  0  0  0  0  0
  159.9270  209.9540  155.4010 C   0  0  0  0  0  2  0  0  0  0  0  0
  162.6700  207.9610  149.7350 C   0  0  0  0  0  3  0  0  0  0  0  0
  159.0120  212.1560  152.6830 O   0  0  0  0  0  0  0  0  0  0  0  0
  159.5400  211.2390  153.2940 C   0  0  0  0  0  0  0  0  0  0  0  0
  161.0750  209.3080  154.6500 C   0  0  2  0  0  3  0  0  0  0  0  0
  160.6640  210.8520  150.2460 C   0  0  0  0  0  2  0  0  0  0  0  0
  162.0460  214.3680  148.1660 C   0  0  0  0  0  3  0  0  0  0  0  0
  161.2030  212.0730  149.5440 C   0  0  0  0  0  0  0  0  0  0  0  0
  160.5800  213.3060  149.7740 C   0  0  0  0  0  3  0  0  0  0  0  0
  161.0070  214.4530  149.0970 C   0  0  0  0  0  3  0  0  0  0  0  0
  162.6470  213.1350  147.9020 C   0  0  0  0  0  3  0  0  0  0  0  0
  162.2170  211.9900  148.5790 C   0  0  0  0  0  3  0  0  0  0  0  0
  1  2  1  0  0  0  0
  1 14  1  0  0  0  0
  2  6  1  6  0  0  0
  2 15  1  0  0  0  0
  3 20  1  0  0  0  0
  4 13  1  0  0  0  0
  4 12  2  0  0  0  0
  5 12  1  0  0  0  0
  8 10  1  0  0  0  0
  8 16  1  0  0  0  0
 11  7  2  0  0  0  0
 11 15  1  0  0  0  0
 12  7  1  0  0  0  0
 13 11  1  0  0  0  0
 14 19  1  0  0  0  0
 14  3  1  0  0  0  0
 15  3  1  0  0  0  0
 17  6  1  0  0  0  0
 17 13  2  0  0  0  0
 18 19  2  0  0  0  0
 19  8  1  0  0  0  0
 20 16  1  0  0  0  0
 20  9  1  0  0  0  0
 21  1  1  0  0  0  0
 22 25  1  0  0  0  0
 23 24  1  0  0  0  0
 23 21  1  0  0  0  0
 25 24  2  0  0  0  0
 26 22  2  0  0  0  0
 26 27  1  0  0  0  0
 27 23  2  0  0  0  0
M  END
>  <MODEL>
9

>  <REMARK>
 VINA RESULT:      -2.7      2.470      5.032
  Name = 
  2 active torsions:
  status: ('A' for Active; 'I' for Inactive)
    1  A    between atoms: N_1  and  C_15
    2  A    between atoms: C_9  and  C_15
                            x       y       z     vdW  Elec       q    Type
                         _______ _______ _______ _____ _____    ______ ____

>  <TORSDO>
F 2

$$$$
