=
 OpenBabel11062407483D

 34 37  0  0  1  0  0  0  0  0999 V2000
  160.2060  209.4530  154.0480 C   0  0  0  0  0  0  0  0  0  0  0  0
  160.0680  211.9030  153.4040 C   0  0  2  0  0  3  0  0  0  0  0  0
  160.3050  213.5870  150.9480 O   0  0  0  0  0  0  0  0  0  0  0  0
  159.7080  208.5430  154.7650 O   0  0  0  0  0  0  0  0  0  0  0  0
  161.5080  210.1870  152.0390 C   0  0  0  0  0  2  0  0  0  0  0  0
  160.1990  210.8670  154.5430 C   0  0  2  0  0  3  0  0  0  0  0  0
  160.8700  212.3050  151.0600 C   0  0  0  0  0  3  0  0  0  0  0  0
  158.6010  212.2380  153.0820 C   0  0  2  0  0  3  0  0  0  0  0  0
  160.8080  209.1440  152.7780 N   0  0  0  0  0  0  0  0  0  0  0  0
  159.7290  214.3190  152.0250 C   0  0  0  0  0  2  0  0  0  0  0  0
  158.4390  213.6650  152.5310 C   0  0  1  0  0  3  0  0  0  0  0  0
  160.7980  211.5040  152.1320 C   0  0  0  0  0  0  0  0  0  0  0  0
  157.7830  212.0950  154.2050 O   0  0  0  0  0  1  0  0  0  0  0  0
  156.5100  213.6930  149.2520 C   0  0  0  0  0  0  0  0  0  0  0  0
  155.2370  214.0830  149.6940 C   0  0  0  0  0  3  0  0  0  0  0  0
  157.3270  213.7710  151.5340 C   0  0  0  0  0  0  0  0  0  0  0  0
  155.0110  214.3230  151.0500 C   0  0  0  0  0  3  0  0  0  0  0  0
  157.5530  213.5410  150.1700 C   0  0  0  0  0  3  0  0  0  0  0  0
  156.0560  214.1690  151.9690 C   0  0  0  0  0  3  0  0  0  0  0  0
  156.7510  213.4490  147.8070 C   0  0  0  0  0  1  0  0  0  0  0  0
  161.9490  207.7210  151.2950 O   0  0  0  0  0  0  0  0  0  0  0  0
  161.5440  206.8110  150.2870 C   0  0  1  0  0  3  0  0  0  0  0  0
  160.9880  207.7650  152.3250 C   0  0  1  0  0  3  0  0  0  0  0  0
  161.1080  205.3990  153.2160 C   0  0  0  0  0  2  0  0  0  0  0  0
  161.7690  204.8970  151.9360 C   0  0  0  0  0  2  0  0  0  0  0  0
  161.0150  205.4270  150.7230 C   0  0  0  0  0  2  0  0  0  0  0  0
  161.4170  206.8700  153.4880 C   0  0  0  0  0  2  0  0  0  0  0  0
  160.8260  207.4200  149.2370 O   0  0  0  0  0  0  0  0  0  0  0  0
  161.7230  208.1600  148.4530 C   0  0  0  0  0  2  0  0  0  0  0  0
  162.8990  207.4430  148.2870 F   0  0  0  0  0  0  0  0  0  0  0  0
  161.3560  211.1460  155.5120 C   0  0  2  0  0  3  0  0  0  0  0  0
  162.0700  209.8500  155.8660 C   0  0  0  0  0  1  0  0  0  0  0  0
  159.5440  211.4250  157.2090 C   0  0  0  0  0  1  0  0  0  0  0  0
  160.9240  211.8860  156.7740 C   0  0  0  0  0  2  0  0  0  0  0  0
  1  6  1  0  0  0  0
  1  4  2  0  0  0  0
  2 12  1  6  0  0  0
  2  6  1  0  0  0  0
  3  7  1  0  0  0  0
  3 10  1  0  0  0  0
  5 12  1  0  0  0  0
  5  9  1  0  0  0  0
  6 31  1  6  0  0  0
  7 12  2  0  0  0  0
  8  2  1  0  0  0  0
  8 13  1  1  0  0  0
  9  1  1  0  0  0  0
 10 11  1  0  0  0  0
 11 16  1  6  0  0  0
 11  8  1  0  0  0  0
 14 15  2  0  0  0  0
 14 18  1  0  0  0  0
 15 17  1  0  0  0  0
 16 19  1  0  0  0  0
 17 19  2  0  0  0  0
 18 16  2  0  0  0  0
 20 14  1  0  0  0  0
 21 23  1  0  0  0  0
 22 28  1  1  0  0  0
 22 26  1  0  0  0  0
 22 21  1  0  0  0  0
 23  9  1  1  0  0  0
 23 27  1  0  0  0  0
 24 27  1  0  0  0  0
 25 24  1  0  0  0  0
 26 25  1  0  0  0  0
 29 28  1  0  0  0  0
 30 29  1  0  0  0  0
 31 32  1  1  0  0  0
 31 34  1  0  0  0  0
 34 33  1  0  0  0  0
M  END
>  <MODEL>
1

>  <REMARK>
 VINA RESULT:      -6.7      0.000      0.000
  Name = 
  6 active torsions:
  status: ('A' for Active; 'I' for Inactive)
    1  A    between atoms: C_1  and  C_15
    2  A    between atoms: C_1  and  C_19
    3  A    between atoms: O_3  and  C_13
    4  A    between atoms: O_3  and  C_17
    5  A    between atoms: C_12  and  C_28
    6  A    between atoms: C_14  and  N_25
                            x       y       z     vdW  Elec       q    Type
                         _______ _______ _______ _____ _____    ______ ____

>  <TORSDO>
F 6

$$$$
=
 OpenBabel11062407483D

 34 37  0  0  1  0  0  0  0  0999 V2000
  160.3010  209.2410  153.2540 C   0  0  0  0  0  0  0  0  0  0  0  0
  160.4600  211.6440  152.4580 C   0  0  2  0  0  3  0  0  0  0  0  0
  161.0660  213.1310  149.9390 O   0  0  0  0  0  0  0  0  0  0  0  0
  159.6580  208.4310  153.9760 O   0  0  0  0  0  0  0  0  0  0  0  0
  161.8310  209.7140  151.3290 C   0  0  0  0  0  2  0  0  0  0  0  0
  160.3930  210.6790  153.6620 C   0  0  2  0  0  3  0  0  0  0  0  0
  161.4900  211.8120  150.1750 C   0  0  0  0  0  3  0  0  0  0  0  0
  159.0650  212.0930  151.9870 C   0  0  2  0  0  3  0  0  0  0  0  0
  160.9730  208.7920  152.0630 N   0  0  0  0  0  0  0  0  0  0  0  0
  160.4760  213.9840  150.9160 C   0  0  0  0  0  2  0  0  0  0  0  0
  159.0920  213.4890  151.3410 C   0  0  1  0  0  3  0  0  0  0  0  0
  161.2500  211.0950  151.2820 C   0  0  0  0  0  0  0  0  0  0  0  0
  158.1460  212.1020  153.0400 O   0  0  0  0  0  1  0  0  0  0  0  0
  155.8200  214.0720  149.4880 C   0  0  0  0  0  0  0  0  0  0  0  0
  156.2060  213.7870  148.1700 C   0  0  0  0  0  3  0  0  0  0  0  0
  158.0820  213.6320  150.2450 C   0  0  0  0  0  0  0  0  0  0  0  0
  157.5230  213.4200  147.8900 C   0  0  0  0  0  3  0  0  0  0  0  0
  156.7560  213.9910  150.5240 C   0  0  0  0  0  3  0  0  0  0  0  0
  158.4590  213.3400  148.9270 C   0  0  0  0  0  3  0  0  0  0  0  0
  154.4160  214.4520  149.7850 C   0  0  0  0  0  1  0  0  0  0  0  0
  161.8790  207.2100  150.5800 O   0  0  0  0  0  0  0  0  0  0  0  0
  161.3250  206.2400  149.7070 C   0  0  1  0  0  3  0  0  0  0  0  0
  161.0520  207.3760  151.7090 C   0  0  1  0  0  3  0  0  0  0  0  0
  161.2040  205.0850  152.7750 C   0  0  0  0  0  2  0  0  0  0  0  0
  161.6880  204.4560  151.4730 C   0  0  0  0  0  2  0  0  0  0  0  0
  160.8100  204.9190  150.3170 C   0  0  0  0  0  2  0  0  0  0  0  0
  161.5910  206.5590  152.8840 C   0  0  0  0  0  2  0  0  0  0  0  0
  160.5050  206.7930  148.7020 O   0  0  0  0  0  0  0  0  0  0  0  0
  161.1670  206.6790  147.4710 C   0  0  0  0  0  2  0  0  0  0  0  0
  162.5140  206.9660  147.6370 F   0  0  0  0  0  0  0  0  0  0  0  0
  161.4860  210.9130  154.7130 C   0  0  2  0  0  3  0  0  0  0  0  0
  162.0420  209.5830  155.1990 C   0  0  0  0  0  1  0  0  0  0  0  0
  160.3920  210.8930  156.9580 C   0  0  0  0  0  1  0  0  0  0  0  0
  161.0240  211.7670  155.8900 C   0  0  0  0  0  2  0  0  0  0  0  0
  1  6  1  0  0  0  0
  1  4  2  0  0  0  0
  2 12  1  6  0  0  0
  2  6  1  0  0  0  0
  3  7  1  0  0  0  0
  3 10  1  0  0  0  0
  5  9  1  0  0  0  0
  6 31  1  1  0  0  0
  7 12  2  0  0  0  0
  8  2  1  0  0  0  0
  8 13  1  1  0  0  0
  9  1  1  0  0  0  0
 10 11  1  0  0  0  0
 11 16  1  6  0  0  0
 11  8  1  0  0  0  0
 12  5  1  0  0  0  0
 14 20  1  0  0  0  0
 14 18  1  0  0  0  0
 15 14  2  0  0  0  0
 16 18  2  0  0  0  0
 17 15  1  0  0  0  0
 17 19  2  0  0  0  0
 19 16  1  0  0  0  0
 21 23  1  0  0  0  0
 22 28  1  1  0  0  0
 22 26  1  0  0  0  0
 22 21  1  0  0  0  0
 23  9  1  1  0  0  0
 23 27  1  0  0  0  0
 24 27  1  0  0  0  0
 25 24  1  0  0  0  0
 26 25  1  0  0  0  0
 29 30  1  0  0  0  0
 29 28  1  0  0  0  0
 31 32  1  1  0  0  0
 31 34  1  0  0  0  0
 34 33  1  0  0  0  0
M  END
>  <MODEL>
2

>  <REMARK>
 VINA RESULT:      -5.9      1.003      1.515
  Name = 
  6 active torsions:
  status: ('A' for Active; 'I' for Inactive)
    1  A    between atoms: C_1  and  C_15
    2  A    between atoms: C_1  and  C_19
    3  A    between atoms: O_3  and  C_13
    4  A    between atoms: O_3  and  C_17
    5  A    between atoms: C_12  and  C_28
    6  A    between atoms: C_14  and  N_25
                            x       y       z     vdW  Elec       q    Type
                         _______ _______ _______ _____ _____    ______ ____

>  <TORSDO>
F 6

$$$$
=
 OpenBabel11062407483D

 34 37  0  0  1  0  0  0  0  0999 V2000
  160.5170  211.2710  154.7670 C   0  0  0  0  0  0  0  0  0  0  0  0
  161.4850  208.9430  154.4880 C   0  0  2  0  0  3  0  0  0  0  0  0
  160.5100  206.1300  154.2530 O   0  0  0  0  0  0  0  0  0  0  0  0
  160.6140  212.4800  154.4190 O   0  0  0  0  0  0  0  0  0  0  0  0
  159.1800  209.3570  155.6710 C   0  0  0  0  0  2  0  0  0  0  0  0
  161.7510  210.4240  154.8360 C   0  0  2  0  0  3  0  0  0  0  0  0
  159.7550  207.1590  154.8420 C   0  0  0  0  0  3  0  0  0  0  0  0
  161.6360  208.6580  152.9830 C   0  0  2  0  0  3  0  0  0  0  0  0
  159.2430  210.7090  155.1300 N   0  0  0  0  0  0  0  0  0  0  0  0
  161.8790  206.2370  153.8760 C   0  0  0  0  0  2  0  0  0  0  0  0
  162.0720  207.2090  152.7080 C   0  0  1  0  0  3  0  0  0  0  0  0
  160.1380  208.4370  154.9760 C   0  0  0  0  0  0  0  0  0  0  0  0
  162.5550  209.5250  152.3860 O   0  0  0  0  0  1  0  0  0  0  0  0
  160.8490  204.8140  150.0160 C   0  0  0  0  0  0  0  0  0  0  0  0
  160.5310  205.7110  148.9850 C   0  0  0  0  0  3  0  0  0  0  0  0
  161.5030  206.6720  151.4310 C   0  0  0  0  0  0  0  0  0  0  0  0
  160.7040  207.0830  149.1740 C   0  0  0  0  0  3  0  0  0  0  0  0
  161.3370  205.2940  151.2350 C   0  0  0  0  0  3  0  0  0  0  0  0
  161.1910  207.5630  150.3950 C   0  0  0  0  0  3  0  0  0  0  0  0
  160.6750  203.3540  149.8090 C   0  0  0  0  0  1  0  0  0  0  0  0
  157.4610  211.7030  153.9640 O   0  0  0  0  0  0  0  0  0  0  0  0
  156.9960  213.0330  153.8130 C   0  0  1  0  0  3  0  0  0  0  0  0
  158.0400  211.5320  155.2380 C   0  0  1  0  0  3  0  0  0  0  0  0
  156.0430  211.9140  156.7450 C   0  0  0  0  0  2  0  0  0  0  0  0
  155.2800  212.6330  155.6370 C   0  0  0  0  0  2  0  0  0  0  0  0
  156.1860  213.6590  154.9680 C   0  0  0  0  0  2  0  0  0  0  0  0
  157.0350  210.8910  156.1940 C   0  0  0  0  0  2  0  0  0  0  0  0
  157.9400  213.8920  153.2110 O   0  0  0  0  0  0  0  0  0  0  0  0
  158.2680  213.3810  151.9470 C   0  0  0  0  0  2  0  0  0  0  0  0
  157.1740  213.4890  151.1020 F   0  0  0  0  0  0  0  0  0  0  0  0
  162.5210  210.6300  156.1470 C   0  0  2  0  0  3  0  0  0  0  0  0
  161.7350  211.5380  157.0820 C   0  0  0  0  0  1  0  0  0  0  0  0
  164.5110  211.6490  157.2610 C   0  0  0  0  0  1  0  0  0  0  0  0
  163.9360  211.1620  155.9430 C   0  0  0  0  0  2  0  0  0  0  0  0
  1  6  1  0  0  0  0
  1  9  1  0  0  0  0
  2  6  1  0  0  0  0
  2 12  1  6  0  0  0
  3  7  1  0  0  0  0
  4  1  2  0  0  0  0
  6 31  1  1  0  0  0
  7 12  2  0  0  0  0
  8 13  1  1  0  0  0
  8  2  1  0  0  0  0
  9  5  1  0  0  0  0
 10  3  1  0  0  0  0
 11 16  1  6  0  0  0
 11  8  1  0  0  0  0
 11 10  1  0  0  0  0
 12  5  1  0  0  0  0
 14 18  1  0  0  0  0
 15 17  1  0  0  0  0
 15 14  2  0  0  0  0
 17 19  2  0  0  0  0
 18 16  2  0  0  0  0
 19 16  1  0  0  0  0
 20 14  1  0  0  0  0
 21 23  1  0  0  0  0
 22 28  1  1  0  0  0
 22 21  1  0  0  0  0
 22 26  1  0  0  0  0
 23  9  1  6  0  0  0
 23 27  1  0  0  0  0
 25 24  1  0  0  0  0
 26 25  1  0  0  0  0
 27 24  1  0  0  0  0
 29 28  1  0  0  0  0
 30 29  1  0  0  0  0
 31 32  1  1  0  0  0
 34 31  1  0  0  0  0
 34 33  1  0  0  0  0
M  END
>  <MODEL>
3

>  <REMARK>
 VINA RESULT:      -5.7      2.665      7.144
  Name = 
  6 active torsions:
  status: ('A' for Active; 'I' for Inactive)
    1  A    between atoms: C_1  and  C_15
    2  A    between atoms: C_1  and  C_19
    3  A    between atoms: O_3  and  C_13
    4  A    between atoms: O_3  and  C_17
    5  A    between atoms: C_12  and  C_28
    6  A    between atoms: C_14  and  N_25
                            x       y       z     vdW  Elec       q    Type
                         _______ _______ _______ _____ _____    ______ ____

>  <TORSDO>
F 6

$$$$
=
 OpenBabel11062407483D

 34 37  0  0  1  0  0  0  0  0999 V2000
  160.6480  208.8460  152.1600 C   0  0  0  0  0  0  0  0  0  0  0  0
  160.4380  211.3740  152.2090 C   0  0  2  0  0  3  0  0  0  0  0  0
  160.5560  213.6650  150.2970 O   0  0  0  0  0  0  0  0  0  0  0  0
  160.1940  207.7620  152.6170 O   0  0  0  0  0  0  0  0  0  0  0  0
  161.8640  210.1330  150.3900 C   0  0  0  0  0  2  0  0  0  0  0  0
  160.6290  210.0730  153.0200 C   0  0  2  0  0  3  0  0  0  0  0  0
  161.1500  212.4170  150.0410 C   0  0  0  0  0  3  0  0  0  0  0  0
  158.9550  211.7410  152.0310 C   0  0  2  0  0  3  0  0  0  0  0  0
  161.2120  208.9090  150.8370 N   0  0  0  0  0  0  0  0  0  0  0  0
  160.0020  214.0610  151.5480 C   0  0  0  0  0  2  0  0  0  0  0  0
  158.7450  213.2580  151.8930 C   0  0  1  0  0  3  0  0  0  0  0  0
  161.1310  211.3550  150.8570 C   0  0  0  0  0  0  0  0  0  0  0  0
  158.1790  211.2750  153.0960 O   0  0  0  0  0  1  0  0  0  0  0  0
  156.6450  213.8690  148.7790 C   0  0  0  0  0  0  0  0  0  0  0  0
  155.4550  214.3440  149.3490 C   0  0  0  0  0  3  0  0  0  0  0  0
  157.5970  213.5980  150.9930 C   0  0  0  0  0  0  0  0  0  0  0  0
  155.3370  214.4520  150.7350 C   0  0  0  0  0  3  0  0  0  0  0  0
  157.7150  213.5000  149.6000 C   0  0  0  0  0  3  0  0  0  0  0  0
  156.4080  214.0820  151.5560 C   0  0  0  0  0  3  0  0  0  0  0  0
  156.7720  213.7650  147.3030 C   0  0  0  0  0  1  0  0  0  0  0  0
  160.2390  206.9160  150.0590 O   0  0  0  0  0  0  0  0  0  0  0  0
  160.5860  205.5450  150.1490 C   0  0  1  0  0  3  0  0  0  0  0  0
  161.4040  207.7100  150.0230 C   0  0  1  0  0  3  0  0  0  0  0  0
  162.4530  206.9530  147.8480 C   0  0  0  0  0  2  0  0  0  0  0  0
  161.6330  205.6660  147.8420 C   0  0  0  0  0  2  0  0  0  0  0  0
  161.6920  205.0090  149.2150 C   0  0  0  0  0  2  0  0  0  0  0  0
  161.7420  208.0880  148.5820 C   0  0  0  0  0  2  0  0  0  0  0  0
  160.6400  205.0650  151.4740 O   0  0  0  0  0  0  0  0  0  0  0  0
  161.9480  204.6380  151.7420 C   0  0  0  0  0  2  0  0  0  0  0  0
  162.6970  205.7010  152.2260 F   0  0  0  0  0  0  0  0  0  0  0  0
  161.8130  210.1120  153.9960 C   0  0  2  0  0  3  0  0  0  0  0  0
  162.1210  208.7120  154.5070 C   0  0  0  0  0  1  0  0  0  0  0  0
  160.2810  210.8010  155.8450 C   0  0  0  0  0  1  0  0  0  0  0  0
  161.6070  211.0770  155.1600 C   0  0  0  0  0  2  0  0  0  0  0  0
  1  4  2  0  0  0  0
  1  6  1  0  0  0  0
  2 12  1  6  0  0  0
  2  6  1  0  0  0  0
  3 10  1  0  0  0  0
  5  9  1  0  0  0  0
  5 12  1  0  0  0  0
  6 31  1  6  0  0  0
  7  3  1  0  0  0  0
  7 12  2  0  0  0  0
  8  2  1  0  0  0  0
  8 13  1  1  0  0  0
  9  1  1  0  0  0  0
 10 11  1  0  0  0  0
 11 16  1  6  0  0  0
 11  8  1  0  0  0  0
 14 15  2  0  0  0  0
 14 18  1  0  0  0  0
 15 17  1  0  0  0  0
 16 19  1  0  0  0  0
 17 19  2  0  0  0  0
 18 16  2  0  0  0  0
 20 14  1  0  0  0  0
 21 22  1  0  0  0  0
 22 28  1  1  0  0  0
 23 27  1  6  0  0  0
 23 21  1  0  0  0  0
 23  9  1  0  0  0  0
 24 27  1  0  0  0  0
 25 24  1  0  0  0  0
 25 26  1  0  0  0  0
 26 22  1  0  0  0  0
 28 29  1  0  0  0  0
 29 30  1  0  0  0  0
 31 32  1  1  0  0  0
 31 34  1  0  0  0  0
 34 33  1  0  0  0  0
M  END
>  <MODEL>
4

>  <REMARK>
 VINA RESULT:      -5.0      1.475      2.359
  Name = 
  6 active torsions:
  status: ('A' for Active; 'I' for Inactive)
    1  A    between atoms: C_1  and  C_15
    2  A    between atoms: C_1  and  C_19
    3  A    between atoms: O_3  and  C_13
    4  A    between atoms: O_3  and  C_17
    5  A    between atoms: C_12  and  C_28
    6  A    between atoms: C_14  and  N_25
                            x       y       z     vdW  Elec       q    Type
                         _______ _______ _______ _____ _____    ______ ____

>  <TORSDO>
F 6

$$$$
=
 OpenBabel11062407483D

 34 37  0  0  1  0  0  0  0  0999 V2000
  160.2740  211.6170  154.1180 C   0  0  0  0  0  0  0  0  0  0  0  0
  161.2000  209.3200  154.6670 C   0  0  2  0  0  3  0  0  0  0  0  0
  160.1750  206.5690  155.2210 O   0  0  0  0  0  0  0  0  0  0  0  0
  160.4360  212.6580  153.4240 O   0  0  0  0  0  0  0  0  0  0  0  0
  158.8080  210.0740  155.4360 C   0  0  0  0  0  2  0  0  0  0  0  0
  161.4730  210.8370  154.5640 C   0  0  2  0  0  3  0  0  0  0  0  0
  159.3970  207.7290  155.3870 C   0  0  0  0  0  3  0  0  0  0  0  0
  161.4820  208.5820  153.3460 C   0  0  2  0  0  3  0  0  0  0  0  0
  158.9570  211.1910  154.5120 N   0  0  0  0  0  0  0  0  0  0  0  0
  161.5750  206.5590  154.9630 C   0  0  0  0  0  2  0  0  0  0  0  0
  161.9020  207.1200  153.5760 C   0  0  1  0  0  3  0  0  0  0  0  0
  159.8000  208.9860  155.1560 C   0  0  0  0  0  0  0  0  0  0  0  0
  162.4760  209.2230  152.6020 O   0  0  0  0  0  1  0  0  0  0  0  0
  160.7170  205.8440  150.1930 C   0  0  0  0  0  0  0  0  0  0  0  0
  160.4770  204.4930  150.4870 C   0  0  0  0  0  3  0  0  0  0  0  0
  161.4390  206.2120  152.4790 C   0  0  0  0  0  0  0  0  0  0  0  0
  160.7120  204.0040  151.7730 C   0  0  0  0  0  3  0  0  0  0  0  0
  161.1930  206.7020  151.1890 C   0  0  0  0  0  3  0  0  0  0  0  0
  161.1910  204.8630  152.7680 C   0  0  0  0  0  3  0  0  0  0  0  0
  160.4560  206.3650  148.8270 C   0  0  0  0  0  1  0  0  0  0  0  0
  157.3900  212.6930  155.4130 O   0  0  0  0  0  0  0  0  0  0  0  0
  155.9780  212.6920  155.5420 C   0  0  1  0  0  3  0  0  0  0  0  0
  157.7720  212.0040  154.2440 C   0  0  1  0  0  3  0  0  0  0  0  0
  156.7520  213.4680  152.4500 C   0  0  0  0  0  2  0  0  0  0  0  0
  155.7940  214.1110  153.4480 C   0  0  0  0  0  2  0  0  0  0  0  0
  155.1320  213.0340  154.2970 C   0  0  0  0  0  2  0  0  0  0  0  0
  158.0440  212.9930  153.1110 C   0  0  0  0  0  2  0  0  0  0  0  0
  155.4870  211.6250  156.3230 O   0  0  0  0  0  0  0  0  0  0  0  0
  154.8150  210.7270  155.4810 C   0  0  0  0  0  2  0  0  0  0  0  0
  155.6070  209.6090  155.2630 F   0  0  0  0  0  0  0  0  0  0  0  0
  162.1230  211.4420  155.8150 C   0  0  2  0  0  3  0  0  0  0  0  0
  163.4080  210.6990  156.1520 C   0  0  0  0  0  1  0  0  0  0  0  0
  160.6950  212.8980  157.2570 C   0  0  0  0  0  1  0  0  0  0  0  0
  161.1920  211.4830  157.0230 C   0  0  0  0  0  2  0  0  0  0  0  0
  1  9  1  0  0  0  0
  1  6  1  0  0  0  0
  2 12  1  6  0  0  0
  3  7  1  0  0  0  0
  4  1  2  0  0  0  0
  6  2  1  0  0  0  0
  6 31  1  1  0  0  0
  8 13  1  1  0  0  0
  8 11  1  0  0  0  0
  8  2  1  0  0  0  0
  9  5  1  0  0  0  0
 10  3  1  0  0  0  0
 11 16  1  6  0  0  0
 11 10  1  0  0  0  0
 12  7  2  0  0  0  0
 12  5  1  0  0  0  0
 14 15  2  0  0  0  0
 14 18  1  0  0  0  0
 15 17  1  0  0  0  0
 16 19  1  0  0  0  0
 17 19  2  0  0  0  0
 18 16  2  0  0  0  0
 20 14  1  0  0  0  0
 21 22  1  0  0  0  0
 22 28  1  6  0  0  0
 23 27  1  6  0  0  0
 23  9  1  0  0  0  0
 23 21  1  0  0  0  0
 24 27  1  0  0  0  0
 24 25  1  0  0  0  0
 25 26  1  0  0  0  0
 26 22  1  0  0  0  0
 29 28  1  0  0  0  0
 30 29  1  0  0  0  0
 31 32  1  1  0  0  0
 31 34  1  0  0  0  0
 34 33  1  0  0  0  0
M  END
>  <MODEL>
5

>  <REMARK>
 VINA RESULT:      -4.4      2.732      7.457
  Name = 
  6 active torsions:
  status: ('A' for Active; 'I' for Inactive)
    1  A    between atoms: C_1  and  C_15
    2  A    between atoms: C_1  and  C_19
    3  A    between atoms: O_3  and  C_13
    4  A    between atoms: O_3  and  C_17
    5  A    between atoms: C_12  and  C_28
    6  A    between atoms: C_14  and  N_25
                            x       y       z     vdW  Elec       q    Type
                         _______ _______ _______ _____ _____    ______ ____

>  <TORSDO>
F 6

$$$$
