=
 OpenBabel11062409293D

 34 38  0  0  1  0  0  0  0  0999 V2000
  159.4040  209.5500  155.7510 C   0  0  1  0  0  3  0  0  0  0  0  0
  159.0270  212.7300  153.7900 C   0  0  0  0  0  3  0  0  0  0  0  0
  160.7880  211.9960  155.1440 O   0  0  0  0  0  0  0  0  0  0  0  0
  161.0270  207.7640  154.9590 C   0  0  1  0  0  3  0  0  0  0  0  0
  159.7850  208.5880  154.6150 C   0  0  0  0  0  2  0  0  0  0  0  0
  161.3590  208.7340  157.1340 C   0  0  2  0  0  3  0  0  0  0  0  0
  162.7390  208.9110  157.2610 O   0  0  0  0  0  1  0  0  0  0  0  0
  161.0730  207.4950  156.3950 N   0  0  0  0  0  2  0  0  0  0  0  0
  161.5280  210.9400  155.7620 C   0  0  2  0  0  3  0  0  0  0  0  0
  160.6240  209.9900  156.5800 C   0  0  1  0  0  3  0  0  0  0  0  0
  162.5090  211.5030  156.5790 O   0  0  0  0  0  1  0  0  0  0  0  0
  157.6900  212.6310  153.1360 C   0  0  0  0  0  2  0  0  0  0  0  0
  156.5800  212.7730  154.1240 C   0  0  0  0  0  0  0  0  0  0  0  0
  156.4170  211.8740  155.1030 C   0  0  0  0  0  3  0  0  0  0  0  0
  159.4750  211.8530  154.6880 C   0  0  0  0  0  0  0  0  0  0  0  0
  157.3410  210.7700  155.4310 C   0  0  0  0  0  3  0  0  0  0  0  0
  158.6630  210.7270  155.2160 C   0  0  0  0  0  0  0  0  0  0  0  0
  155.5990  213.8640  153.9270 C   0  0  0  0  0  0  0  0  0  0  0  0
  154.9580  214.4200  155.0290 O   0  0  0  0  0  1  0  0  0  0  0  0
  155.3030  214.3300  152.7180 C   0  0  0  0  0  2  0  0  0  0  0  0
  161.0060  206.4630  154.1750 C   0  0  0  0  0  2  0  0  0  0  0  0
  161.7490  208.0980  150.7770 C   0  0  0  0  0  2  0  0  0  0  0  0
  161.1160  205.4160  151.9260 C   0  0  0  0  0  2  0  0  0  0  0  0
  161.5800  205.9220  147.6750 C   0  0  0  0  0  0  0  0  0  0  0  0
  161.7670  207.0200  148.5240 C   0  0  0  0  0  3  0  0  0  0  0  0
  161.6120  206.8790  149.9070 C   0  0  0  0  0  0  0  0  0  0  0  0
  161.0590  204.5350  149.5910 C   0  0  0  0  0  3  0  0  0  0  0  0
  161.2330  205.6290  150.4430 C   0  0  0  0  0  0  0  0  0  0  0  0
  161.2270  204.6810  148.2110 C   0  0  0  0  0  3  0  0  0  0  0  0
  160.9070  206.7250  152.6810 C   0  0  2  0  0  3  0  0  0  0  0  0
  161.9620  207.7340  152.2440 C   0  0  0  0  0  2  0  0  0  0  0  0
  161.7490  206.0600  146.1970 C   0  0  0  0  0  3  0  0  0  0  0  0
  162.4680  204.9750  145.6920 O   0  0  0  0  0  1  0  0  0  0  0  0
  160.5040  206.1300  145.5730 O   0  0  0  0  0  1  0  0  0  0  0  0
  1  5  1  6  0  0  0
  1 10  1  0  0  0  0
  2 15  2  0  0  0  0
  3  9  1  0  0  0  0
  4 21  1  6  0  0  0
  4  8  1  0  0  0  0
  5  4  1  0  0  0  0
  6  7  1  6  0  0  0
  8  6  1  0  0  0  0
  9 11  1  1  0  0  0
  9 10  1  0  0  0  0
 10  6  1  0  0  0  0
 12  2  1  0  0  0  0
 12 13  1  0  0  0  0
 13 14  2  0  0  0  0
 14 16  1  0  0  0  0
 15  3  1  0  0  0  0
 15 17  1  0  0  0  0
 17 16  2  0  0  0  0
 17  1  1  0  0  0  0
 18 13  1  0  0  0  0
 18 19  1  0  0  0  0
 20 18  2  0  0  0  0
 22 31  1  0  0  0  0
 23 30  1  0  0  0  0
 24 29  2  0  0  0  0
 24 25  1  0  0  0  0
 25 26  2  0  0  0  0
 26 28  1  0  0  0  0
 26 22  1  0  0  0  0
 27 28  2  0  0  0  0
 28 23  1  0  0  0  0
 29 27  1  0  0  0  0
 30 21  1  0  0  0  0
 31 30  1  0  0  0  0
 32 24  1  0  0  0  0
 33 32  1  0  0  0  0
 34 32  1  0  0  0  0
M  END
>  <MODEL>
1

>  <REMARK>
 VINA RESULT:      -9.0      0.000      0.000
  Name = 
  4 active torsions:
  status: ('A' for Active; 'I' for Inactive)
    1  A    between atoms: C_3  and  C_25
    2  A    between atoms: C_7  and  C_11
    3  A    between atoms: C_8  and  C_18
    4  A    between atoms: C_18  and  C_30
                            x       y       z     vdW  Elec       q    Type
                         _______ _______ _______ _____ _____    ______ ____

>  <TORSDO>
F 4

$$$$
=
 OpenBabel11062409293D

 34 38  0  0  1  0  0  0  0  0999 V2000
  160.3300  210.0740  154.3930 C   0  0  1  0  0  3  0  0  0  0  0  0
  157.0470  211.8080  153.8300 C   0  0  0  0  0  3  0  0  0  0  0  0
  158.9420  211.6910  152.4630 O   0  0  0  0  0  0  0  0  0  0  0  0
  160.8880  207.9720  153.0810 C   0  0  1  0  0  3  0  0  0  0  0  0
  159.9200  208.6290  154.0670 C   0  0  0  0  0  2  0  0  0  0  0  0
  162.3330  209.8810  152.8590 C   0  0  2  0  0  3  0  0  0  0  0  0
  162.6620  209.9480  151.5030 O   0  0  0  0  0  1  0  0  0  0  0  0
  162.2430  208.4780  153.2900 N   0  0  0  0  0  2  0  0  0  0  0  0
  160.1410  211.0320  152.0500 C   0  0  2  0  0  3  0  0  0  0  0  0
  161.0920  210.7430  153.2340 C   0  0  1  0  0  3  0  0  0  0  0  0
  160.7800  211.8250  151.0960 O   0  0  0  0  0  1  0  0  0  0  0  0
  156.2430  211.5310  155.0560 C   0  0  0  0  0  2  0  0  0  0  0  0
  156.7620  212.2820  156.2380 C   0  0  0  0  0  0  0  0  0  0  0  0
  157.9890  212.0390  156.7170 C   0  0  0  0  0  3  0  0  0  0  0  0
  158.3320  211.4760  153.7020 C   0  0  0  0  0  0  0  0  0  0  0  0
  159.0070  211.1700  156.0950 C   0  0  0  0  0  3  0  0  0  0  0  0
  159.1420  210.8790  154.7940 C   0  0  0  0  0  0  0  0  0  0  0  0
  155.8470  213.2130  156.9360 C   0  0  0  0  0  0  0  0  0  0  0  0
  154.5600  212.8000  157.2600 O   0  0  0  0  0  1  0  0  0  0  0  0
  156.2190  214.4480  157.2600 C   0  0  0  0  0  2  0  0  0  0  0  0
  160.8510  206.4640  153.2630 C   0  0  0  0  0  2  0  0  0  0  0  0
  161.3520  203.5870  150.7630 C   0  0  0  0  0  2  0  0  0  0  0  0
  160.8420  206.5290  150.7810 C   0  0  0  0  0  2  0  0  0  0  0  0
  161.3980  204.4240  147.0640 C   0  0  0  0  0  0  0  0  0  0  0  0
  161.4190  203.7120  148.2700 C   0  0  0  0  0  3  0  0  0  0  0  0
  161.2490  204.3770  149.4880 C   0  0  0  0  0  0  0  0  0  0  0  0
  161.0580  206.4840  148.2930 C   0  0  0  0  0  3  0  0  0  0  0  0
  161.0890  205.7810  149.5010 C   0  0  0  0  0  0  0  0  0  0  0  0
  161.2160  205.8100  147.0800 C   0  0  0  0  0  3  0  0  0  0  0  0
  161.3160  205.7500  152.0040 C   0  0  2  0  0  3  0  0  0  0  0  0
  160.7530  204.3350  151.9510 C   0  0  0  0  0  2  0  0  0  0  0  0
  161.5710  203.7230  145.7580 C   0  0  0  0  0  3  0  0  0  0  0  0
  160.8580  202.5220  145.7570 O   0  0  0  0  0  1  0  0  0  0  0  0
  161.1270  204.5330  144.7120 O   0  0  0  0  0  1  0  0  0  0  0  0
  1  5  1  6  0  0  0
  1 17  1  0  0  0  0
  2 12  1  0  0  0  0
  3 15  1  0  0  0  0
  4 21  1  1  0  0  0
  4  8  1  0  0  0  0
  4  5  1  0  0  0  0
  6  7  1  6  0  0  0
  6 10  1  0  0  0  0
  6  8  1  0  0  0  0
  9 11  1  6  0  0  0
  9  3  1  0  0  0  0
  9 10  1  0  0  0  0
 10  1  1  0  0  0  0
 12 13  1  0  0  0  0
 13 14  2  0  0  0  0
 13 18  1  0  0  0  0
 15  2  2  0  0  0  0
 15 17  1  0  0  0  0
 16 14  1  0  0  0  0
 17 16  2  0  0  0  0
 18 20  2  0  0  0  0
 18 19  1  0  0  0  0
 22 31  1  0  0  0  0
 23 30  1  0  0  0  0
 24 29  2  0  0  0  0
 24 25  1  0  0  0  0
 25 26  2  0  0  0  0
 26 28  1  0  0  0  0
 26 22  1  0  0  0  0
 27 28  2  0  0  0  0
 28 23  1  0  0  0  0
 29 27  1  0  0  0  0
 30 21  1  0  0  0  0
 31 30  1  0  0  0  0
 32 24  1  0  0  0  0
 33 32  1  0  0  0  0
 34 32  1  0  0  0  0
M  END
>  <MODEL>
2

>  <REMARK>
 VINA RESULT:      -8.9      2.183      2.959
  Name = 
  4 active torsions:
  status: ('A' for Active; 'I' for Inactive)
    1  A    between atoms: C_3  and  C_25
    2  A    between atoms: C_7  and  C_11
    3  A    between atoms: C_8  and  C_18
    4  A    between atoms: C_18  and  C_30
                            x       y       z     vdW  Elec       q    Type
                         _______ _______ _______ _____ _____    ______ ____

>  <TORSDO>
F 4

$$$$
=
 OpenBabel11062409293D

 34 38  0  0  1  0  0  0  0  0999 V2000
  161.8190  208.6230  153.3780 C   0  0  1  0  0  3  0  0  0  0  0  0
  159.0620  211.1370  153.8080 C   0  0  0  0  0  3  0  0  0  0  0  0
  160.1720  210.4370  151.8720 O   0  0  0  0  0  0  0  0  0  0  0  0
  161.3200  206.3750  152.3080 C   0  0  1  0  0  3  0  0  0  0  0  0
  161.0020  207.3250  153.4640 C   0  0  0  0  0  2  0  0  0  0  0  0
  162.9410  207.8110  151.2610 C   0  0  2  0  0  3  0  0  0  0  0  0
  162.7050  207.7070  149.8880 O   0  0  0  0  0  1  0  0  0  0  0  0
  162.7210  206.5110  151.9130 N   0  0  0  0  0  2  0  0  0  0  0  0
  160.9260  209.4570  151.1540 C   0  0  2  0  0  3  0  0  0  0  0  0
  162.1810  208.9950  151.9290 C   0  0  1  0  0  3  0  0  0  0  0  0
  161.2870  209.9910  149.9170 O   0  0  0  0  0  1  0  0  0  0  0  0
  158.7770  211.1600  155.2720 C   0  0  0  0  0  2  0  0  0  0  0  0
  159.8800  211.8120  156.0410 C   0  0  0  0  0  0  0  0  0  0  0  0
  161.1080  211.2790  156.0600 C   0  0  0  0  0  3  0  0  0  0  0  0
  160.0790  210.4660  153.2660 C   0  0  0  0  0  0  0  0  0  0  0  0
  161.5700  210.1330  155.2520 C   0  0  0  0  0  3  0  0  0  0  0  0
  161.1030  209.7400  154.0580 C   0  0  0  0  0  0  0  0  0  0  0  0
  159.5540  212.9940  156.8690 C   0  0  0  0  0  0  0  0  0  0  0  0
  160.5700  213.8600  157.2610 O   0  0  0  0  0  1  0  0  0  0  0  0
  158.3110  213.2560  157.2610 C   0  0  0  0  0  2  0  0  0  0  0  0
  161.0240  204.9460  152.7290 C   0  0  0  0  0  2  0  0  0  0  0  0
  160.7160  201.7430  150.6270 C   0  0  0  0  0  2  0  0  0  0  0  0
  161.0290  204.6890  150.2600 C   0  0  0  0  0  2  0  0  0  0  0  0
  160.9820  202.0500  146.8560 C   0  0  0  0  0  0  0  0  0  0  0  0
  160.8100  201.5200  148.1410 C   0  0  0  0  0  3  0  0  0  0  0  0
  160.8310  202.3590  149.2600 C   0  0  0  0  0  0  0  0  0  0  0  0
  161.2200  204.2660  147.8060 C   0  0  0  0  0  3  0  0  0  0  0  0
  161.0600  203.7430  149.0920 C   0  0  0  0  0  0  0  0  0  0  0  0
  161.1860  203.4230  146.6920 C   0  0  0  0  0  3  0  0  0  0  0  0
  161.2750  203.9760  151.5860 C   0  0  2  0  0  3  0  0  0  0  0  0
  160.3460  202.7720  151.6920 C   0  0  0  0  0  2  0  0  0  0  0  0
  160.9550  201.1650  145.6540 C   0  0  0  0  0  3  0  0  0  0  0  0
  161.1710  199.8370  146.0280 O   0  0  0  0  0  1  0  0  0  0  0  0
  159.7280  201.2750  145.0010 O   0  0  0  0  0  1  0  0  0  0  0  0
  1  5  1  6  0  0  0
  1 17  1  0  0  0  0
  2 12  1  0  0  0  0
  3 15  1  0  0  0  0
  4 21  1  1  0  0  0
  4  5  1  0  0  0  0
  6  7  1  6  0  0  0
  6  8  1  0  0  0  0
  6 10  1  0  0  0  0
  8  4  1  0  0  0  0
  9 11  1  6  0  0  0
  9  3  1  0  0  0  0
  9 10  1  0  0  0  0
 10  1  1  0  0  0  0
 12 13  1  0  0  0  0
 13 14  2  0  0  0  0
 13 18  1  0  0  0  0
 15  2  2  0  0  0  0
 15 17  1  0  0  0  0
 16 14  1  0  0  0  0
 17 16  2  0  0  0  0
 18 20  2  0  0  0  0
 18 19  1  0  0  0  0
 22 31  1  0  0  0  0
 23 30  1  0  0  0  0
 24 25  1  0  0  0  0
 25 26  2  0  0  0  0
 26 22  1  0  0  0  0
 27 28  2  0  0  0  0
 28 26  1  0  0  0  0
 28 23  1  0  0  0  0
 29 24  2  0  0  0  0
 29 27  1  0  0  0  0
 30 31  1  0  0  0  0
 30 21  1  0  0  0  0
 32 33  1  0  0  0  0
 32 24  1  0  0  0  0
 34 32  1  0  0  0  0
M  END
>  <MODEL>
3

>  <REMARK>
 VINA RESULT:      -8.0      2.821      4.443
  Name = 
  4 active torsions:
  status: ('A' for Active; 'I' for Inactive)
    1  A    between atoms: C_3  and  C_25
    2  A    between atoms: C_7  and  C_11
    3  A    between atoms: C_8  and  C_18
    4  A    between atoms: C_18  and  C_30
                            x       y       z     vdW  Elec       q    Type
                         _______ _______ _______ _____ _____    ______ ____

>  <TORSDO>
F 4

$$$$
=
 OpenBabel11062409293D

 34 38  0  0  1  0  0  0  0  0999 V2000
  159.6780  209.3800  153.7340 C   0  0  1  0  0  3  0  0  0  0  0  0
  159.8210  212.5560  155.7330 C   0  0  0  0  0  3  0  0  0  0  0  0
  160.9860  210.5460  156.0130 O   0  0  0  0  0  0  0  0  0  0  0  0
  161.6180  208.7540  152.2200 C   0  0  1  0  0  3  0  0  0  0  0  0
  160.5380  209.7920  152.5300 C   0  0  0  0  0  2  0  0  0  0  0  0
  161.0170  207.2500  153.9970 C   0  0  2  0  0  3  0  0  0  0  0  0
  162.2260  206.7960  154.5310 O   0  0  0  0  0  1  0  0  0  0  0  0
  161.1350  207.4120  152.5410 N   0  0  0  0  0  2  0  0  0  0  0  0
  161.5170  209.3300  155.4820 C   0  0  2  0  0  3  0  0  0  0  0  0
  160.4500  208.5000  154.7330 C   0  0  1  0  0  3  0  0  0  0  0  0
  162.0650  208.5880  156.5290 O   0  0  0  0  0  1  0  0  0  0  0  0
  158.8460  213.4750  155.0780 C   0  0  0  0  0  2  0  0  0  0  0  0
  157.4350  213.0500  155.3210 C   0  0  0  0  0  0  0  0  0  0  0  0
  156.9850  211.8780  154.8550 C   0  0  0  0  0  3  0  0  0  0  0  0
  159.9620  211.2730  155.3990 C   0  0  0  0  0  0  0  0  0  0  0  0
  157.8000  210.8280  154.2130 C   0  0  0  0  0  3  0  0  0  0  0  0
  159.1040  210.5810  154.4050 C   0  0  0  0  0  0  0  0  0  0  0  0
  156.5190  214.0020  155.9870 C   0  0  0  0  0  0  0  0  0  0  0  0
  155.3860  214.4490  155.3170 O   0  0  0  0  0  1  0  0  0  0  0  0
  156.7490  214.4530  157.2170 C   0  0  0  0  0  2  0  0  0  0  0  0
  162.0020  208.8430  150.7520 C   0  0  0  0  0  2  0  0  0  0  0  0
  161.5020  206.4320  147.8010 C   0  0  0  0  0  2  0  0  0  0  0  0
  161.6560  206.3850  150.7820 C   0  0  0  0  0  2  0  0  0  0  0  0
  160.8410  202.7780  148.5750 C   0  0  0  0  0  0  0  0  0  0  0  0
  161.0730  203.9730  147.8820 C   0  0  0  0  0  3  0  0  0  0  0  0
  161.3310  205.1570  148.5800 C   0  0  0  0  0  0  0  0  0  0  0  0
  161.1020  203.9530  150.6780 C   0  0  0  0  0  3  0  0  0  0  0  0
  161.3230  205.1510  149.9920 C   0  0  0  0  0  0  0  0  0  0  0  0
  160.8570  202.7710  149.9720 C   0  0  0  0  0  3  0  0  0  0  0  0
  161.4530  207.6610  149.9710 C   0  0  2  0  0  3  0  0  0  0  0  0
  162.1680  207.5260  148.6310 C   0  0  0  0  0  2  0  0  0  0  0  0
  160.5710  201.5070  147.8400 C   0  0  0  0  0  3  0  0  0  0  0  0
  161.0000  201.6160  146.5150 O   0  0  0  0  0  1  0  0  0  0  0  0
  161.2270  200.4430  148.4590 O   0  0  0  0  0  1  0  0  0  0  0  0
  1  5  1  6  0  0  0
  1 17  1  0  0  0  0
  1 10  1  0  0  0  0
  4 21  1  6  0  0  0
  4  5  1  0  0  0  0
  4  8  1  0  0  0  0
  6  7  1  1  0  0  0
  6 10  1  0  0  0  0
  8  6  1  0  0  0  0
  9  3  1  0  0  0  0
  9 11  1  1  0  0  0
 10  9  1  0  0  0  0
 12 13  1  0  0  0  0
 12  2  1  0  0  0  0
 13 18  1  0  0  0  0
 14 13  2  0  0  0  0
 15  2  2  0  0  0  0
 15  3  1  0  0  0  0
 16 17  2  0  0  0  0
 16 14  1  0  0  0  0
 17 15  1  0  0  0  0
 18 20  2  0  0  0  0
 19 18  1  0  0  0  0
 22 26  1  0  0  0  0
 22 31  1  0  0  0  0
 24 29  1  0  0  0  0
 25 24  2  0  0  0  0
 25 26  1  0  0  0  0
 26 28  2  0  0  0  0
 28 27  1  0  0  0  0
 28 23  1  0  0  0  0
 29 27  2  0  0  0  0
 30 21  1  0  0  0  0
 30 23  1  0  0  0  0
 31 30  1  0  0  0  0
 32 34  1  0  0  0  0
 32 24  1  0  0  0  0
 33 32  1  0  0  0  0
M  END
>  <MODEL>
4

>  <REMARK>
 VINA RESULT:      -7.3      2.013      2.932
  Name = 
  4 active torsions:
  status: ('A' for Active; 'I' for Inactive)
    1  A    between atoms: C_3  and  C_25
    2  A    between atoms: C_7  and  C_11
    3  A    between atoms: C_8  and  C_18
    4  A    between atoms: C_18  and  C_30
                            x       y       z     vdW  Elec       q    Type
                         _______ _______ _______ _____ _____    ______ ____

>  <TORSDO>
F 4

$$$$
=
 OpenBabel11062409293D

 34 38  0  0  1  0  0  0  0  0999 V2000
  159.3880  210.0040  154.3970 C   0  0  1  0  0  3  0  0  0  0  0  0
  158.4880  213.6050  154.9660 C   0  0  0  0  0  3  0  0  0  0  0  0
  160.0990  212.2720  156.0150 O   0  0  0  0  0  0  0  0  0  0  0  0
  161.5730  209.4170  153.2450 C   0  0  1  0  0  3  0  0  0  0  0  0
  160.2340  210.1460  153.1230 C   0  0  0  0  0  2  0  0  0  0  0  0
  161.1990  208.6070  155.4780 C   0  0  2  0  0  3  0  0  0  0  0  0
  162.4210  208.7520  156.1400 O   0  0  0  0  0  1  0  0  0  0  0  0
  161.4250  208.2230  154.0770 N   0  0  0  0  0  2  0  0  0  0  0  0
  160.9810  211.1470  156.0080 C   0  0  2  0  0  3  0  0  0  0  0  0
  160.2520  209.8300  155.6590 C   0  0  1  0  0  3  0  0  0  0  0  0
  161.5890  211.0500  157.2610 O   0  0  0  0  0  1  0  0  0  0  0  0
  157.3830  213.8890  154.0050 C   0  0  0  0  0  2  0  0  0  0  0  0
  156.1130  213.2120  154.4070 C   0  0  0  0  0  0  0  0  0  0  0  0
  156.0350  211.8760  154.4490 C   0  0  0  0  0  3  0  0  0  0  0  0
  158.9920  212.3880  155.1700 C   0  0  0  0  0  0  0  0  0  0  0  0
  157.1590  210.9350  154.2730 C   0  0  0  0  0  3  0  0  0  0  0  0
  158.4540  211.1570  154.5390 C   0  0  0  0  0  0  0  0  0  0  0  0
  154.9160  214.0480  154.6460 C   0  0  0  0  0  0  0  0  0  0  0  0
  154.1230  214.4360  153.5710 O   0  0  0  0  0  1  0  0  0  0  0  0
  154.5730  214.4510  155.8660 C   0  0  0  0  0  2  0  0  0  0  0  0
  162.0740  209.0390  151.8600 C   0  0  0  0  0  2  0  0  0  0  0  0
  161.0690  205.3790  152.4660 C   0  0  0  0  0  2  0  0  0  0  0  0
  161.6480  207.2400  150.2040 C   0  0  0  0  0  2  0  0  0  0  0  0
  160.7500  203.0940  149.4550 C   0  0  0  0  0  0  0  0  0  0  0  0
  160.7310  203.5770  150.7700 C   0  0  0  0  0  3  0  0  0  0  0  0
  161.0280  204.9180  151.0350 C   0  0  0  0  0  0  0  0  0  0  0  0
  161.3880  205.2930  148.6620 C   0  0  0  0  0  3  0  0  0  0  0  0
  161.3820  205.7780  149.9730 C   0  0  0  0  0  0  0  0  0  0  0  0
  161.0780  203.9540  148.4040 C   0  0  0  0  0  3  0  0  0  0  0  0
  162.0240  207.5340  151.6530 C   0  0  2  0  0  3  0  0  0  0  0  0
  160.9950  206.8990  152.5810 C   0  0  0  0  0  2  0  0  0  0  0  0
  160.4280  201.6670  149.1600 C   0  0  0  0  0  3  0  0  0  0  0  0
  161.0670  201.2620  147.9860 O   0  0  0  0  0  1  0  0  0  0  0  0
  160.8310  200.8520  150.2180 O   0  0  0  0  0  1  0  0  0  0  0  0
  1  5  1  6  0  0  0
  1 17  1  0  0  0  0
  1 10  1  0  0  0  0
  2 15  2  0  0  0  0
  4 21  1  6  0  0  0
  4  8  1  0  0  0  0
  5  4  1  0  0  0  0
  6 10  1  0  0  0  0
  6  7  1  6  0  0  0
  8  6  1  0  0  0  0
  9  3  1  0  0  0  0
  9 11  1  1  0  0  0
 10  9  1  0  0  0  0
 12 13  1  0  0  0  0
 12  2  1  0  0  0  0
 13 14  2  0  0  0  0
 13 18  1  0  0  0  0
 15  3  1  0  0  0  0
 16 14  1  0  0  0  0
 16 17  2  0  0  0  0
 17 15  1  0  0  0  0
 18 20  2  0  0  0  0
 19 18  1  0  0  0  0
 22 31  1  0  0  0  0
 23 30  1  0  0  0  0
 24 25  1  0  0  0  0
 25 26  2  0  0  0  0
 26 22  1  0  0  0  0
 27 28  2  0  0  0  0
 28 23  1  0  0  0  0
 28 26  1  0  0  0  0
 29 27  1  0  0  0  0
 29 24  2  0  0  0  0
 30 21  1  0  0  0  0
 30 31  1  0  0  0  0
 32 24  1  0  0  0  0
 32 34  1  0  0  0  0
 33 32  1  0  0  0  0
M  END
>  <MODEL>
5

>  <REMARK>
 VINA RESULT:      -7.2      1.879      2.564
  Name = 
  4 active torsions:
  status: ('A' for Active; 'I' for Inactive)
    1  A    between atoms: C_3  and  C_25
    2  A    between atoms: C_7  and  C_11
    3  A    between atoms: C_8  and  C_18
    4  A    between atoms: C_18  and  C_30
                            x       y       z     vdW  Elec       q    Type
                         _______ _______ _______ _____ _____    ______ ____

>  <TORSDO>
F 4

$$$$
=
 OpenBabel11062409293D

 34 38  0  0  1  0  0  0  0  0999 V2000
  161.5430  209.4600  152.0940 C   0  0  1  0  0  3  0  0  0  0  0  0
  160.3700  206.0930  150.9120 C   0  0  0  0  0  3  0  0  0  0  0  0
  160.8330  206.8520  153.0760 O   0  0  0  0  0  0  0  0  0  0  0  0
  159.9390  210.9920  153.3290 C   0  0  1  0  0  3  0  0  0  0  0  0
  160.2170  210.2330  152.0300 C   0  0  0  0  0  2  0  0  0  0  0  0
  161.9470  210.2880  154.4500 C   0  0  2  0  0  3  0  0  0  0  0  0
  161.5670  210.0180  155.7670 O   0  0  0  0  0  1  0  0  0  0  0  0
  161.1930  211.4390  153.9320 N   0  0  0  0  0  2  0  0  0  0  0  0
  160.9600  207.9160  154.0220 C   0  0  2  0  0  3  0  0  0  0  0  0
  161.9060  209.0340  153.5280 C   0  0  1  0  0  3  0  0  0  0  0  0
  161.4200  207.3870  155.2290 O   0  0  0  0  0  1  0  0  0  0  0  0
  160.2640  206.2140  149.4290 C   0  0  0  0  0  2  0  0  0  0  0  0
  161.6080  206.2900  148.7820 C   0  0  0  0  0  0  0  0  0  0  0  0
  162.4290  207.3180  149.0310 C   0  0  0  0  0  3  0  0  0  0  0  0
  160.8900  207.0400  151.6920 C   0  0  0  0  0  0  0  0  0  0  0  0
  162.2130  208.3770  150.0370 C   0  0  0  0  0  3  0  0  0  0  0  0
  161.5110  208.2860  151.1750 C   0  0  0  0  0  0  0  0  0  0  0  0
  161.9610  205.2650  147.7740 C   0  0  0  0  0  0  0  0  0  0  0  0
  162.7050  205.6280  146.6570 O   0  0  0  0  0  1  0  0  0  0  0  0
  161.5820  203.9970  147.9010 C   0  0  0  0  0  2  0  0  0  0  0  0
  159.0360  212.1790  153.0400 C   0  0  0  0  0  2  0  0  0  0  0  0
  157.3580  213.3650  149.7910 C   0  0  0  0  0  2  0  0  0  0  0  0
  160.0830  212.8260  150.8840 C   0  0  0  0  0  2  0  0  0  0  0  0
  159.5660  214.0250  146.7790 C   0  0  0  0  0  0  0  0  0  0  0  0
  158.4470  213.9260  147.6150 C   0  0  0  0  0  3  0  0  0  0  0  0
  158.5920  213.5300  148.9480 C   0  0  0  0  0  0  0  0  0  0  0  0
  160.9870  213.3080  148.6060 C   0  0  0  0  0  3  0  0  0  0  0  0
  159.8720  213.1960  149.4420 C   0  0  0  0  0  0  0  0  0  0  0  0
  160.8350  213.7160  147.2780 C   0  0  0  0  0  3  0  0  0  0  0  0
  158.8000  212.3350  151.5460 C   0  0  2  0  0  3  0  0  0  0  0  0
  157.6810  213.3360  151.2820 C   0  0  0  0  0  2  0  0  0  0  0  0
  159.4240  214.4530  145.3560 C   0  0  0  0  0  3  0  0  0  0  0  0
  160.6130  214.2200  144.6620 O   0  0  0  0  0  1  0  0  0  0  0  0
  158.3790  213.7600  144.7450 O   0  0  0  0  0  1  0  0  0  0  0  0
  1  5  1  1  0  0  0
  1 10  1  0  0  0  0
  2 15  2  0  0  0  0
  3  9  1  0  0  0  0
  4 21  1  6  0  0  0
  4  8  1  0  0  0  0
  5  4  1  0  0  0  0
  6  7  1  1  0  0  0
  8  6  1  0  0  0  0
  9 11  1  1  0  0  0
 10  9  1  0  0  0  0
 10  6  1  0  0  0  0
 12  2  1  0  0  0  0
 13 14  2  0  0  0  0
 13 12  1  0  0  0  0
 14 16  1  0  0  0  0
 15  3  1  0  0  0  0
 16 17  2  0  0  0  0
 17 15  1  0  0  0  0
 17  1  1  0  0  0  0
 18 20  2  0  0  0  0
 18 13  1  0  0  0  0
 19 18  1  0  0  0  0
 22 31  1  0  0  0  0
 23 30  1  0  0  0  0
 24 29  2  0  0  0  0
 24 25  1  0  0  0  0
 25 26  2  0  0  0  0
 26 28  1  0  0  0  0
 26 22  1  0  0  0  0
 27 28  2  0  0  0  0
 28 23  1  0  0  0  0
 29 27  1  0  0  0  0
 30 21  1  0  0  0  0
 31 30  1  0  0  0  0
 32 24  1  0  0  0  0
 33 32  1  0  0  0  0
 34 32  1  0  0  0  0
M  END
>  <MODEL>
6

>  <REMARK>
 VINA RESULT:      -6.8      3.867      7.624
  Name = 
  4 active torsions:
  status: ('A' for Active; 'I' for Inactive)
    1  A    between atoms: C_3  and  C_25
    2  A    between atoms: C_7  and  C_11
    3  A    between atoms: C_8  and  C_18
    4  A    between atoms: C_18  and  C_30
                            x       y       z     vdW  Elec       q    Type
                         _______ _______ _______ _____ _____    ______ ____

>  <TORSDO>
F 4

$$$$
