=
 OpenBabel11052422113D

 25 28  0  0  1  0  0  0  0  0999 V2000
  161.3880  206.1710  150.5400 C   0  0  0  0  0  0  0  0  0  0  0  0
  161.3450  205.1850  149.4700 C   0  0  0  0  0  0  0  0  0  0  0  0
  161.7650  206.9250  147.7440 C   0  0  0  0  0  2  0  0  0  0  0  0
  161.1400  203.8240  149.4990 C   0  0  0  0  0  0  0  0  0  0  0  0
  160.8070  201.1670  148.8200 C   0  0  0  0  0  3  0  0  0  0  0  0
  161.7870  207.8780  148.8720 N   0  0  0  0  0  0  0  0  0  0  0  0
  161.2050  203.4380  148.1830 C   0  0  0  0  0  0  0  0  0  0  0  0
  161.0430  202.1090  147.8010 C   0  0  0  0  0  3  0  0  0  0  0  0
  161.6650  208.5760  151.1530 N   0  0  0  0  0  0  0  0  0  0  0  0
  161.8880  209.9760  150.8290 C   0  0  0  0  0  1  0  0  0  0  0  0
  161.2220  205.8680  151.8300 C   0  0  0  0  0  3  0  0  0  0  0  0
  160.7410  201.5690  150.1750 C   0  0  0  0  0  3  0  0  0  0  0  0
  161.5180  205.5530  148.1880 N   0  0  0  0  0  0  0  0  0  0  0  0
  161.4380  204.4990  147.3830 N   0  0  0  0  0  0  0  0  0  0  0  0
  161.4790  208.2020  152.5270 C   0  0  0  0  0  3  0  0  0  0  0  0
  160.9080  202.9200  150.5320 C   0  0  0  0  0  3  0  0  0  0  0  0
  161.2740  206.9220  152.8660 C   0  0  0  0  0  0  0  0  0  0  0  0
  161.6230  207.5670  150.1310 C   0  0  0  0  0  0  0  0  0  0  0  0
  161.0670  206.5600  154.2980 C   0  0  0  0  0  2  0  0  0  0  0  0
  160.6140  207.7670  155.1050 C   0  0  1  0  0  3  0  0  0  0  0  0
  159.3780  207.4530  155.8040 N   0  0  0  0  0  1  0  0  0  0  0  0
  161.6980  208.1290  156.1080 C   0  0  0  0  0  2  0  0  0  0  0  0
  162.8800  210.0000  157.2570 C   0  0  0  0  0  1  0  0  0  0  0  0
  161.6240  210.3860  155.2260 N   0  0  0  0  0  1  0  0  0  0  0  0
  161.6550  209.6090  156.4530 C   0  0  1  0  0  3  0  0  0  0  0  0
  1 11  2  0  0  0  0
  2  4  2  0  0  0  0
  2  1  1  0  0  0  0
  3 13  1  0  0  0  0
  3  6  1  0  0  0  0
  4 16  1  0  0  0  0
  5 12  1  0  0  0  0
  6 18  2  0  0  0  0
  7  4  1  0  0  0  0
  8  7  1  0  0  0  0
  8  5  2  0  0  0  0
  9 15  1  0  0  0  0
 10  9  1  0  0  0  0
 11 17  1  0  0  0  0
 12 16  2  0  0  0  0
 13  2  1  0  0  0  0
 14  7  2  0  0  0  0
 14 13  1  0  0  0  0
 15 17  2  0  0  0  0
 17 19  1  0  0  0  0
 18  1  1  0  0  0  0
 18  9  1  0  0  0  0
 19 20  1  0  0  0  0
 20 21  1  1  0  0  0
 20 22  1  0  0  0  0
 22 25  1  0  0  0  0
 24 25  1  0  0  0  0
 25 23  1  6  0  0  0
M  END
>  <MODEL>
1

>  <REMARK>
 VINA RESULT:      -9.6      0.000      0.000
  Name = 
  4 active torsions:
  status: ('A' for Active; 'I' for Inactive)
    1  A    between atoms: C_6  and  C_15
    2  A    between atoms: C_6  and  C_23
    3  A    between atoms: C_12  and  C_21
    4  A    between atoms: C_15  and  C_21
                            x       y       z     vdW  Elec       q    Type
                         _______ _______ _______ _____ _____    ______ ____

>  <TORSDO>
F 4

$$$$
=
 OpenBabel11052422113D

 25 28  0  0  1  0  0  0  0  0999 V2000
  161.5270  206.4860  149.6450 C   0  0  0  0  0  0  0  0  0  0  0  0
  161.4110  205.2010  148.9690 C   0  0  0  0  0  0  0  0  0  0  0  0
  161.8160  206.2470  146.7490 C   0  0  0  0  0  2  0  0  0  0  0  0
  161.1660  203.9380  149.4580 C   0  0  0  0  0  0  0  0  0  0  0  0
  160.7270  201.2230  149.7180 C   0  0  0  0  0  3  0  0  0  0  0  0
  161.9120  207.5190  147.4910 N   0  0  0  0  0  0  0  0  0  0  0  0
  161.1680  203.1330  148.3450 C   0  0  0  0  0  0  0  0  0  0  0  0
  160.9510  201.7610  148.4360 C   0  0  0  0  0  3  0  0  0  0  0  0
  161.9010  208.9440  149.4090 N   0  0  0  0  0  0  0  0  0  0  0  0
  162.1540  210.1440  148.6290 C   0  0  0  0  0  1  0  0  0  0  0  0
  161.4030  206.6370  150.9660 C   0  0  0  0  0  3  0  0  0  0  0  0
  160.7260  202.0570  150.8610 C   0  0  0  0  0  3  0  0  0  0  0  0
  161.5450  205.1120  147.6330 N   0  0  0  0  0  0  0  0  0  0  0  0
  161.4010  203.8550  147.2300 N   0  0  0  0  0  0  0  0  0  0  0  0
  161.7580  209.0570  150.8330 C   0  0  0  0  0  3  0  0  0  0  0  0
  160.9480  203.4410  150.7400 C   0  0  0  0  0  3  0  0  0  0  0  0
  161.5280  207.9740  151.5870 C   0  0  0  0  0  0  0  0  0  0  0  0
  161.7880  207.6530  148.7860 C   0  0  0  0  0  0  0  0  0  0  0  0
  161.3670  208.1200  153.0630 C   0  0  0  0  0  2  0  0  0  0  0  0
  160.7690  206.8610  153.6730 C   0  0  1  0  0  3  0  0  0  0  0  0
  161.7630  205.8000  153.6830 N   0  0  0  0  0  1  0  0  0  0  0  0
  160.3190  207.1620  155.0940 C   0  0  0  0  0  2  0  0  0  0  0  0
  159.8440  209.3910  156.1080 C   0  0  0  0  0  1  0  0  0  0  0  0
  161.8500  208.1660  156.6830 N   0  0  0  0  0  1  0  0  0  0  0  0
  160.9290  208.4600  155.6000 C   0  0  1  0  0  3  0  0  0  0  0  0
  1 11  2  0  0  0  0
  2  4  2  0  0  0  0
  2  1  1  0  0  0  0
  3  6  1  0  0  0  0
  3 13  1  0  0  0  0
  4 16  1  0  0  0  0
  5 12  1  0  0  0  0
  6 18  2  0  0  0  0
  7  8  1  0  0  0  0
  7  4  1  0  0  0  0
  8  5  2  0  0  0  0
  9 15  1  0  0  0  0
 10  9  1  0  0  0  0
 11 17  1  0  0  0  0
 13  2  1  0  0  0  0
 14 13  1  0  0  0  0
 14  7  2  0  0  0  0
 15 17  2  0  0  0  0
 16 12  2  0  0  0  0
 17 19  1  0  0  0  0
 18  9  1  0  0  0  0
 18  1  1  0  0  0  0
 19 20  1  0  0  0  0
 20 21  1  1  0  0  0
 20 22  1  0  0  0  0
 22 25  1  0  0  0  0
 25 23  1  1  0  0  0
 25 24  1  0  0  0  0
M  END
>  <MODEL>
2

>  <REMARK>
 VINA RESULT:      -9.0      1.317      1.677
  Name = 
  4 active torsions:
  status: ('A' for Active; 'I' for Inactive)
    1  A    between atoms: C_6  and  C_15
    2  A    between atoms: C_6  and  C_23
    3  A    between atoms: C_12  and  C_21
    4  A    between atoms: C_15  and  C_21
                            x       y       z     vdW  Elec       q    Type
                         _______ _______ _______ _____ _____    ______ ____

>  <TORSDO>
F 4

$$$$
=
 OpenBabel11052422113D

 25 28  0  0  1  0  0  0  0  0999 V2000
  161.4940  207.2940  151.0350 C   0  0  0  0  0  0  0  0  0  0  0  0
  161.2580  205.8630  151.1650 C   0  0  0  0  0  0  0  0  0  0  0  0
  161.1000  206.0360  153.6410 C   0  0  0  0  0  2  0  0  0  0  0  0
  161.1720  204.8680  150.2180 C   0  0  0  0  0  0  0  0  0  0  0  0
  160.8910  202.4460  148.9180 C   0  0  0  0  0  3  0  0  0  0  0  0
  161.3540  207.4770  153.4440 N   0  0  0  0  0  0  0  0  0  0  0  0
  160.9400  203.7230  150.9410 C   0  0  0  0  0  0  0  0  0  0  0  0
  160.7920  202.4850  150.3230 C   0  0  0  0  0  3  0  0  0  0  0  0
  161.7720  209.4800  152.2100 N   0  0  0  0  0  0  0  0  0  0  0  0
  161.8280  210.3090  153.4030 C   0  0  0  0  0  1  0  0  0  0  0  0
  161.6770  207.9070  149.8630 C   0  0  0  0  0  3  0  0  0  0  0  0
  161.1310  203.6270  148.1780 C   0  0  0  0  0  3  0  0  0  0  0  0
  161.0810  205.3020  152.3750 N   0  0  0  0  0  0  0  0  0  0  0  0
  160.8840  203.9930  152.2610 N   0  0  0  0  0  0  0  0  0  0  0  0
  161.9650  210.0940  150.9260 C   0  0  0  0  0  3  0  0  0  0  0  0
  161.2760  204.8660  148.8300 C   0  0  0  0  0  3  0  0  0  0  0  0
  161.9180  209.3650  149.8030 C   0  0  0  0  0  0  0  0  0  0  0  0
  161.5320  208.0650  152.2890 C   0  0  0  0  0  0  0  0  0  0  0  0
  162.1380  210.0230  148.4830 C   0  0  0  0  0  2  0  0  0  0  0  0
  162.0660  211.5370  148.6110 C   0  0  1  0  0  3  0  0  0  0  0  0
  163.3160  212.1270  148.1570 N   0  0  0  0  0  1  0  0  0  0  0  0
  160.9130  212.0530  147.7650 C   0  0  0  0  0  2  0  0  0  0  0  0
  158.8520  213.4420  147.9660 C   0  0  0  0  0  1  0  0  0  0  0  0
  160.3980  213.2390  149.8150 N   0  0  0  0  0  1  0  0  0  0  0  0
  160.3090  213.3110  148.3680 C   0  0  1  0  0  3  0  0  0  0  0  0
  1  2  1  0  0  0  0
  1 18  1  0  0  0  0
  2 13  1  0  0  0  0
  4  7  1  0  0  0  0
  4  2  2  0  0  0  0
  5  8  2  0  0  0  0
  6  3  1  0  0  0  0
  7 14  2  0  0  0  0
  8  7  1  0  0  0  0
  9 18  1  0  0  0  0
  9 10  1  0  0  0  0
 11  1  2  0  0  0  0
 12 16  2  0  0  0  0
 12  5  1  0  0  0  0
 13  3  1  0  0  0  0
 14 13  1  0  0  0  0
 15  9  1  0  0  0  0
 16  4  1  0  0  0  0
 17 11  1  0  0  0  0
 17 15  2  0  0  0  0
 18  6  2  0  0  0  0
 19 20  1  0  0  0  0
 19 17  1  0  0  0  0
 20 21  1  6  0  0  0
 22 25  1  0  0  0  0
 22 20  1  0  0  0  0
 25 23  1  1  0  0  0
 25 24  1  0  0  0  0
M  END
>  <MODEL>
3

>  <REMARK>
 VINA RESULT:      -8.7      2.654      5.299
  Name = 
  4 active torsions:
  status: ('A' for Active; 'I' for Inactive)
    1  A    between atoms: C_6  and  C_15
    2  A    between atoms: C_6  and  C_23
    3  A    between atoms: C_12  and  C_21
    4  A    between atoms: C_15  and  C_21
                            x       y       z     vdW  Elec       q    Type
                         _______ _______ _______ _____ _____    ______ ____

>  <TORSDO>
F 4

$$$$
=
 OpenBabel11052422113D

 25 28  0  0  1  0  0  0  0  0999 V2000
  161.3710  206.8330  150.1160 C   0  0  0  0  0  0  0  0  0  0  0  0
  161.5050  207.9630  151.0250 C   0  0  0  0  0  0  0  0  0  0  0  0
  162.2800  209.4480  149.1870 C   0  0  0  0  0  2  0  0  0  0  0  0
  161.2720  208.0710  152.3770 C   0  0  0  0  0  0  0  0  0  0  0  0
  161.0230  208.9910  154.9710 C   0  0  0  0  0  3  0  0  0  0  0  0
  162.1330  208.2630  148.3190 N   0  0  0  0  0  0  0  0  0  0  0  0
  161.5790  209.3760  152.6760 C   0  0  0  0  0  0  0  0  0  0  0  0
  161.4660  209.8770  153.9700 C   0  0  0  0  0  3  0  0  0  0  0  0
  161.6170  205.9940  147.7770 N   0  0  0  0  0  0  0  0  0  0  0  0
  161.9540  206.1600  146.3720 C   0  0  0  0  0  1  0  0  0  0  0  0
  160.9560  205.6230  150.5000 C   0  0  0  0  0  3  0  0  0  0  0  0
  160.7080  207.6470  154.6590 C   0  0  0  0  0  3  0  0  0  0  0  0
  161.9290  209.1590  150.5780 N   0  0  0  0  0  0  0  0  0  0  0  0
  161.9800  210.0390  151.5720 N   0  0  0  0  0  0  0  0  0  0  0  0
  161.1690  204.7100  148.2380 C   0  0  0  0  0  3  0  0  0  0  0  0
  160.8320  207.1680  153.3410 C   0  0  0  0  0  3  0  0  0  0  0  0
  160.8460  204.5180  149.5240 C   0  0  0  0  0  0  0  0  0  0  0  0
  161.7260  207.0830  148.7090 C   0  0  0  0  0  0  0  0  0  0  0  0
  160.4000  203.1700  149.9810 C   0  0  0  0  0  2  0  0  0  0  0  0
  161.1420  202.0700  149.2390 C   0  0  1  0  0  3  0  0  0  0  0  0
  161.3890  200.9530  150.1380 N   0  0  0  0  0  1  0  0  0  0  0  0
  160.3000  201.6090  148.0600 C   0  0  0  0  0  2  0  0  0  0  0  0
  161.4900  199.8340  146.7750 C   0  0  0  0  0  1  0  0  0  0  0  0
  160.4560  201.7040  145.6430 N   0  0  0  0  0  1  0  0  0  0  0  0
  161.1670  201.3140  146.8470 C   0  0  1  0  0  3  0  0  0  0  0  0
  1 11  2  0  0  0  0
  1  2  1  0  0  0  0
  2  4  2  0  0  0  0
  3 13  1  0  0  0  0
  4  7  1  0  0  0  0
  4 16  1  0  0  0  0
  6 18  2  0  0  0  0
  6  3  1  0  0  0  0
  7  8  1  0  0  0  0
  8  5  2  0  0  0  0
  9 15  1  0  0  0  0
  9 18  1  0  0  0  0
 10  9  1  0  0  0  0
 12  5  1  0  0  0  0
 13  2  1  0  0  0  0
 13 14  1  0  0  0  0
 14  7  2  0  0  0  0
 15 17  2  0  0  0  0
 16 12  2  0  0  0  0
 17 19  1  0  0  0  0
 17 11  1  0  0  0  0
 18  1  1  0  0  0  0
 20 19  1  0  0  0  0
 20 21  1  1  0  0  0
 22 20  1  0  0  0  0
 24 25  1  0  0  0  0
 25 23  1  6  0  0  0
 25 22  1  0  0  0  0
M  END
>  <MODEL>
4

>  <REMARK>
 VINA RESULT:      -8.5      1.791      7.443
  Name = 
  4 active torsions:
  status: ('A' for Active; 'I' for Inactive)
    1  A    between atoms: C_6  and  C_15
    2  A    between atoms: C_6  and  C_23
    3  A    between atoms: C_12  and  C_21
    4  A    between atoms: C_15  and  C_21
                            x       y       z     vdW  Elec       q    Type
                         _______ _______ _______ _____ _____    ______ ____

>  <TORSDO>
F 4

$$$$
=
 OpenBabel11052422113D

 25 28  0  0  1  0  0  0  0  0999 V2000
  161.2410  207.2880  151.8210 C   0  0  0  0  0  0  0  0  0  0  0  0
  161.2950  208.2810  152.8850 C   0  0  0  0  0  0  0  0  0  0  0  0
  162.2230  209.9970  151.3430 C   0  0  0  0  0  2  0  0  0  0  0  0
  160.9460  208.2050  154.2140 C   0  0  0  0  0  0  0  0  0  0  0  0
  160.4730  208.7610  156.8790 C   0  0  0  0  0  3  0  0  0  0  0  0
  162.1520  208.9450  150.3110 N   0  0  0  0  0  0  0  0  0  0  0  0
  161.2240  209.4530  154.7150 C   0  0  0  0  0  0  0  0  0  0  0  0
  161.0000  209.7710  156.0520 C   0  0  0  0  0  3  0  0  0  0  0  0
  161.6880  206.7770  149.4180 N   0  0  0  0  0  0  0  0  0  0  0  0
  162.1440  207.1320  148.0840 C   0  0  0  0  0  1  0  0  0  0  0  0
  160.7970  206.0410  151.9970 C   0  0  0  0  0  3  0  0  0  0  0  0
  160.1880  207.4770  156.3590 C   0  0  0  0  0  3  0  0  0  0  0  0
  161.7540  209.5220  152.6460 N   0  0  0  0  0  0  0  0  0  0  0  0
  161.7180  210.2570  153.7520 N   0  0  0  0  0  0  0  0  0  0  0  0
  161.2050  205.4470  149.6570 C   0  0  0  0  0  3  0  0  0  0  0  0
  160.4260  207.1820  155.0030 C   0  0  0  0  0  3  0  0  0  0  0  0
  160.7730  205.0830  150.8720 C   0  0  0  0  0  0  0  0  0  0  0  0
  161.7160  207.7260  150.4970 C   0  0  0  0  0  0  0  0  0  0  0  0
  160.2910  203.6900  151.0990 C   0  0  0  0  0  2  0  0  0  0  0  0
  161.0760  202.6970  150.2550 C   0  0  1  0  0  3  0  0  0  0  0  0
  161.8770  201.8450  151.1190 N   0  0  0  0  0  1  0  0  0  0  0  0
  160.1030  201.8500  149.4510 C   0  0  0  0  0  2  0  0  0  0  0  0
  161.4050  202.8160  147.5560 C   0  0  0  0  0  1  0  0  0  0  0  0
  161.4760  200.4450  148.0310 N   0  0  0  0  0  1  0  0  0  0  0  0
  160.6150  201.6140  148.0390 C   0  0  1  0  0  3  0  0  0  0  0  0
  1 11  2  0  0  0  0
  1  2  1  0  0  0  0
  2  4  2  0  0  0  0
  3 13  1  0  0  0  0
  4  7  1  0  0  0  0
  4 16  1  0  0  0  0
  6 18  2  0  0  0  0
  6  3  1  0  0  0  0
  7  8  1  0  0  0  0
  8  5  2  0  0  0  0
  9 15  1  0  0  0  0
  9 18  1  0  0  0  0
 10  9  1  0  0  0  0
 12  5  1  0  0  0  0
 13  2  1  0  0  0  0
 13 14  1  0  0  0  0
 14  7  2  0  0  0  0
 15 17  2  0  0  0  0
 16 12  2  0  0  0  0
 17 19  1  0  0  0  0
 17 11  1  0  0  0  0
 18  1  1  0  0  0  0
 20 19  1  0  0  0  0
 20 21  1  1  0  0  0
 22 20  1  0  0  0  0
 24 25  1  0  0  0  0
 25 23  1  1  0  0  0
 25 22  1  0  0  0  0
M  END
>  <MODEL>
5

>  <REMARK>
 VINA RESULT:      -8.5      1.592      7.310
  Name = 
  4 active torsions:
  status: ('A' for Active; 'I' for Inactive)
    1  A    between atoms: C_6  and  C_15
    2  A    between atoms: C_6  and  C_23
    3  A    between atoms: C_12  and  C_21
    4  A    between atoms: C_15  and  C_21
                            x       y       z     vdW  Elec       q    Type
                         _______ _______ _______ _____ _____    ______ ____

>  <TORSDO>
F 4

$$$$
=
 OpenBabel11052422113D

 25 28  0  0  1  0  0  0  0  0999 V2000
  161.0150  206.2410  150.9960 C   0  0  0  0  0  0  0  0  0  0  0  0
  161.0400  206.9520  152.2670 C   0  0  0  0  0  0  0  0  0  0  0  0
  161.0310  204.8200  153.5470 C   0  0  0  0  0  2  0  0  0  0  0  0
  161.0570  208.2980  152.5530 C   0  0  0  0  0  0  0  0  0  0  0  0
  161.0960  210.7490  153.8270 C   0  0  0  0  0  3  0  0  0  0  0  0
  160.9960  204.1590  152.2280 N   0  0  0  0  0  0  0  0  0  0  0  0
  161.0720  208.3590  153.9250 C   0  0  0  0  0  0  0  0  0  0  0  0
  161.0920  209.5740  154.6030 C   0  0  0  0  0  3  0  0  0  0  0  0
  160.9580  204.0270  149.8430 N   0  0  0  0  0  0  0  0  0  0  0  0
  160.9270  202.5740  149.8350 C   0  0  0  0  0  1  0  0  0  0  0  0
  161.0100  206.8530  149.8090 C   0  0  0  0  0  3  0  0  0  0  0  0
  161.0800  210.6820  152.4140 C   0  0  0  0  0  3  0  0  0  0  0  0
  161.0440  206.2790  153.4320 N   0  0  0  0  0  0  0  0  0  0  0  0
  161.0650  207.1210  154.4600 N   0  0  0  0  0  0  0  0  0  0  0  0
  160.9500  204.7300  148.5910 C   0  0  0  0  0  3  0  0  0  0  0  0
  161.0600  209.4390  151.7550 C   0  0  0  0  0  3  0  0  0  0  0  0
  160.9800  206.0690  148.5560 C   0  0  0  0  0  0  0  0  0  0  0  0
  160.9910  204.7710  151.0720 C   0  0  0  0  0  0  0  0  0  0  0  0
  160.9540  206.7760  147.2430 C   0  0  0  0  0  2  0  0  0  0  0  0
  160.8540  205.7860  146.0930 C   0  0  1  0  0  3  0  0  0  0  0  0
  159.7560  206.1620  145.2170 N   0  0  0  0  0  1  0  0  0  0  0  0
  162.1610  205.7930  145.3160 C   0  0  0  0  0  2  0  0  0  0  0  0
  163.8610  204.2760  146.3310 C   0  0  0  0  0  1  0  0  0  0  0  0
  161.7530  203.4120  145.5200 N   0  0  0  0  0  1  0  0  0  0  0  0
  162.7820  204.4050  145.2730 C   0  0  1  0  0  3  0  0  0  0  0  0
  1 18  1  0  0  0  0
  1  2  1  0  0  0  0
  2  4  2  0  0  0  0
  2 13  1  0  0  0  0
  4  7  1  0  0  0  0
  5  8  2  0  0  0  0
  6  3  1  0  0  0  0
  7 14  2  0  0  0  0
  7  8  1  0  0  0  0
  9 18  1  0  0  0  0
 10  9  1  0  0  0  0
 11  1  2  0  0  0  0
 12  5  1  0  0  0  0
 13  3  1  0  0  0  0
 13 14  1  0  0  0  0
 15  9  1  0  0  0  0
 16 12  2  0  0  0  0
 16  4  1  0  0  0  0
 17 15  2  0  0  0  0
 17 11  1  0  0  0  0
 18  6  2  0  0  0  0
 19 17  1  0  0  0  0
 20 21  1  6  0  0  0
 20 19  1  0  0  0  0
 22 20  1  0  0  0  0
 25 22  1  0  0  0  0
 25 24  1  0  0  0  0
 25 23  1  1  0  0  0
M  END
>  <MODEL>
6

>  <REMARK>
 VINA RESULT:      -8.1      2.191      7.900
  Name = 
  4 active torsions:
  status: ('A' for Active; 'I' for Inactive)
    1  A    between atoms: C_6  and  C_15
    2  A    between atoms: C_6  and  C_23
    3  A    between atoms: C_12  and  C_21
    4  A    between atoms: C_15  and  C_21
                            x       y       z     vdW  Elec       q    Type
                         _______ _______ _______ _____ _____    ______ ____

>  <TORSDO>
F 4

$$$$
=
 OpenBabel11052422113D

 25 28  0  0  1  0  0  0  0  0999 V2000
  161.3190  204.7390  150.1430 C   0  0  0  0  0  0  0  0  0  0  0  0
  161.3520  205.8970  151.0260 C   0  0  0  0  0  0  0  0  0  0  0  0
  160.8310  204.4930  153.0120 C   0  0  0  0  0  2  0  0  0  0  0  0
  161.5890  207.2270  150.7680 C   0  0  0  0  0  0  0  0  0  0  0  0
  161.9550  209.9580  150.9830 C   0  0  0  0  0  3  0  0  0  0  0  0
  160.8010  203.3620  152.0640 N   0  0  0  0  0  0  0  0  0  0  0  0
  161.4840  207.8400  151.9920 C   0  0  0  0  0  0  0  0  0  0  0  0
  161.6620  209.2120  152.1420 C   0  0  0  0  0  3  0  0  0  0  0  0
  160.9660  202.2750  149.9430 N   0  0  0  0  0  0  0  0  0  0  0  0
  160.6700  200.9620  150.4920 C   0  0  0  0  0  1  0  0  0  0  0  0
  161.5380  204.8090  148.8270 C   0  0  0  0  0  3  0  0  0  0  0  0
  162.0620  209.3230  149.7240 C   0  0  0  0  0  3  0  0  0  0  0  0
  161.1220  205.7630  152.3440 N   0  0  0  0  0  0  0  0  0  0  0  0
  161.1990  206.9400  152.9560 N   0  0  0  0  0  0  0  0  0  0  0  0
  161.2060  202.4000  148.5330 C   0  0  0  0  0  3  0  0  0  0  0  0
  161.8760  207.9330  149.6020 C   0  0  0  0  0  3  0  0  0  0  0  0
  161.4850  203.5920  147.9880 C   0  0  0  0  0  0  0  0  0  0  0  0
  161.0180  203.4440  150.7770 C   0  0  0  0  0  0  0  0  0  0  0  0
  161.7140  203.6990  146.5180 C   0  0  0  0  0  2  0  0  0  0  0  0
  162.8630  204.6490  146.2140 C   0  0  1  0  0  3  0  0  0  0  0  0
  163.8830  203.9530  145.4460 N   0  0  0  0  0  1  0  0  0  0  0  0
  162.3330  205.8310  145.4180 C   0  0  0  0  0  2  0  0  0  0  0  0
  159.8720  206.2030  145.2550 C   0  0  0  0  0  1  0  0  0  0  0  0
  161.2060  205.8280  143.2720 N   0  0  0  0  0  1  0  0  0  0  0  0
  161.0610  205.4650  144.6700 C   0  0  1  0  0  3  0  0  0  0  0  0
  1 18  1  0  0  0  0
  1  2  1  0  0  0  0
  2 13  1  0  0  0  0
  4  2  2  0  0  0  0
  4  7  1  0  0  0  0
  5  8  2  0  0  0  0
  6  3  1  0  0  0  0
  7  8  1  0  0  0  0
  7 14  2  0  0  0  0
  9 10  1  0  0  0  0
  9 18  1  0  0  0  0
 11  1  2  0  0  0  0
 12  5  1  0  0  0  0
 13 14  1  0  0  0  0
 13  3  1  0  0  0  0
 15  9  1  0  0  0  0
 16 12  2  0  0  0  0
 16  4  1  0  0  0  0
 17 15  2  0  0  0  0
 17 11  1  0  0  0  0
 18  6  2  0  0  0  0
 19 17  1  0  0  0  0
 20 21  1  6  0  0  0
 20 19  1  0  0  0  0
 22 20  1  0  0  0  0
 24 25  1  0  0  0  0
 25 23  1  1  0  0  0
 25 22  1  0  0  0  0
M  END
>  <MODEL>
7

>  <REMARK>
 VINA RESULT:      -8.0      2.606      7.906
  Name = 
  4 active torsions:
  status: ('A' for Active; 'I' for Inactive)
    1  A    between atoms: C_6  and  C_15
    2  A    between atoms: C_6  and  C_23
    3  A    between atoms: C_12  and  C_21
    4  A    between atoms: C_15  and  C_21
                            x       y       z     vdW  Elec       q    Type
                         _______ _______ _______ _____ _____    ______ ____

>  <TORSDO>
F 4

$$$$
=
 OpenBabel11052422113D

 25 28  0  0  1  0  0  0  0  0999 V2000
  161.2890  205.4000  150.2950 C   0  0  0  0  0  0  0  0  0  0  0  0
  161.1410  204.1320  149.5950 C   0  0  0  0  0  0  0  0  0  0  0  0
  160.7590  202.9110  151.7270 C   0  0  0  0  0  2  0  0  0  0  0  0
  161.2070  203.8230  148.2550 C   0  0  0  0  0  0  0  0  0  0  0  0
  161.2070  202.5160  145.8210 C   0  0  0  0  0  3  0  0  0  0  0  0
  160.9290  204.2240  152.3790 N   0  0  0  0  0  0  0  0  0  0  0  0
  160.9930  202.4670  148.2040 C   0  0  0  0  0  0  0  0  0  0  0  0
  160.9850  201.7740  146.9970 C   0  0  0  0  0  3  0  0  0  0  0  0
  161.3120  206.5800  152.4960 N   0  0  0  0  0  0  0  0  0  0  0  0
  161.2080  206.6140  153.9460 C   0  0  0  0  0  1  0  0  0  0  0  0
  161.5290  206.5600  149.6780 C   0  0  0  0  0  3  0  0  0  0  0  0
  161.4270  203.9120  145.8790 C   0  0  0  0  0  3  0  0  0  0  0  0
  160.9000  202.9950  150.2730 N   0  0  0  0  0  0  0  0  0  0  0  0
  160.8040  201.9640  149.4410 N   0  0  0  0  0  0  0  0  0  0  0  0
  161.5720  207.8010  151.7880 C   0  0  0  0  0  3  0  0  0  0  0  0
  161.4300  204.5880  147.1130 C   0  0  0  0  0  3  0  0  0  0  0  0
  161.6720  207.8110  150.4520 C   0  0  0  0  0  0  0  0  0  0  0  0
  161.1650  205.3530  151.7620 C   0  0  0  0  0  0  0  0  0  0  0  0
  161.9590  209.0910  149.7410 C   0  0  0  0  0  2  0  0  0  0  0  0
  161.7080  210.2860  150.6470 C   0  0  1  0  0  3  0  0  0  0  0  0
  162.7090  210.3220  151.7010 N   0  0  0  0  0  1  0  0  0  0  0  0
  161.7810  211.5600  149.8200 C   0  0  0  0  0  2  0  0  0  0  0  0
  160.8440  211.8280  147.5250 C   0  0  0  0  0  1  0  0  0  0  0  0
  163.2340  211.8280  147.8990 N   0  0  0  0  0  1  0  0  0  0  0  0
  161.9800  211.2480  148.3460 C   0  0  1  0  0  3  0  0  0  0  0  0
  1 18  1  0  0  0  0
  2 13  1  0  0  0  0
  2  1  1  0  0  0  0
  3  6  1  0  0  0  0
  4  2  2  0  0  0  0
  5 12  1  0  0  0  0
  5  8  2  0  0  0  0
  7  4  1  0  0  0  0
  7 14  2  0  0  0  0
  8  7  1  0  0  0  0
  9 10  1  0  0  0  0
 11  1  2  0  0  0  0
 11 17  1  0  0  0  0
 12 16  2  0  0  0  0
 13  3  1  0  0  0  0
 14 13  1  0  0  0  0
 15  9  1  0  0  0  0
 16  4  1  0  0  0  0
 17 15  2  0  0  0  0
 18  6  2  0  0  0  0
 18  9  1  0  0  0  0
 19 17  1  0  0  0  0
 19 20  1  0  0  0  0
 20 21  1  1  0  0  0
 22 20  1  0  0  0  0
 24 25  1  0  0  0  0
 25 23  1  6  0  0  0
 25 22  1  0  0  0  0
M  END
>  <MODEL>
8

>  <REMARK>
 VINA RESULT:      -7.9      2.348      4.719
  Name = 
  4 active torsions:
  status: ('A' for Active; 'I' for Inactive)
    1  A    between atoms: C_6  and  C_15
    2  A    between atoms: C_6  and  C_23
    3  A    between atoms: C_12  and  C_21
    4  A    between atoms: C_15  and  C_21
                            x       y       z     vdW  Elec       q    Type
                         _______ _______ _______ _____ _____    ______ ____

>  <TORSDO>
F 4

$$$$
=
 OpenBabel11052422113D

 25 28  0  0  1  0  0  0  0  0999 V2000
  161.2460  205.3900  150.0410 C   0  0  0  0  0  0  0  0  0  0  0  0
  161.2020  204.4080  148.9660 C   0  0  0  0  0  0  0  0  0  0  0  0
  160.9890  202.5320  150.5840 C   0  0  0  0  0  2  0  0  0  0  0  0
  161.2640  204.5570  147.5990 C   0  0  0  0  0  0  0  0  0  0  0  0
  161.3290  204.1140  144.8730 C   0  0  0  0  0  3  0  0  0  0  0  0
  161.0490  203.5740  151.6280 N   0  0  0  0  0  0  0  0  0  0  0  0
  161.1780  203.2770  147.1090 C   0  0  0  0  0  0  0  0  0  0  0  0
  161.2060  203.0140  145.7430 C   0  0  0  0  0  3  0  0  0  0  0  0
  161.2100  205.7900  152.5050 N   0  0  0  0  0  0  0  0  0  0  0  0
  161.1380  205.3440  153.8870 C   0  0  0  0  0  1  0  0  0  0  0  0
  161.3600  206.7050  149.8350 C   0  0  0  0  0  3  0  0  0  0  0  0
  161.4170  205.4310  145.3820 C   0  0  0  0  0  3  0  0  0  0  0  0
  161.0860  203.0960  149.2370 N   0  0  0  0  0  0  0  0  0  0  0  0
  161.0680  202.3850  148.1140 N   0  0  0  0  0  0  0  0  0  0  0  0
  161.3360  207.1950  152.2340 C   0  0  0  0  0  3  0  0  0  0  0  0
  161.3860  205.6680  146.7690 C   0  0  0  0  0  3  0  0  0  0  0  0
  161.4030  207.6460  150.9740 C   0  0  0  0  0  0  0  0  0  0  0  0
  161.1620  204.8590  151.4120 C   0  0  0  0  0  0  0  0  0  0  0  0
  161.5510  209.1080  150.7180 C   0  0  0  0  0  2  0  0  0  0  0  0
  161.7060  209.8760  152.0220 C   0  0  1  0  0  3  0  0  0  0  0  0
  163.0810  210.3280  152.1630 N   0  0  0  0  0  1  0  0  0  0  0  0
  160.7670  211.0710  152.0100 C   0  0  0  0  0  2  0  0  0  0  0  0
  159.8080  210.5230  154.2460 C   0  0  0  0  0  1  0  0  0  0  0  0
  158.5960  211.9150  152.6820 N   0  0  0  0  0  1  0  0  0  0  0  0
  159.4920  210.7770  152.7840 C   0  0  1  0  0  3  0  0  0  0  0  0
  1 18  1  0  0  0  0
  2 13  1  0  0  0  0
  2  1  1  0  0  0  0
  3  6  1  0  0  0  0
  4  2  2  0  0  0  0
  5 12  1  0  0  0  0
  5  8  2  0  0  0  0
  7  4  1  0  0  0  0
  7 14  2  0  0  0  0
  8  7  1  0  0  0  0
  9 10  1  0  0  0  0
 11  1  2  0  0  0  0
 11 17  1  0  0  0  0
 12 16  2  0  0  0  0
 13  3  1  0  0  0  0
 14 13  1  0  0  0  0
 15  9  1  0  0  0  0
 16  4  1  0  0  0  0
 17 15  2  0  0  0  0
 18  6  2  0  0  0  0
 18  9  1  0  0  0  0
 19 17  1  0  0  0  0
 19 20  1  0  0  0  0
 20 21  1  6  0  0  0
 22 20  1  0  0  0  0
 22 25  1  0  0  0  0
 24 25  1  0  0  0  0
 25 23  1  1  0  0  0
M  END
>  <MODEL>
9

>  <REMARK>
 VINA RESULT:      -7.9      2.308      3.883
  Name = 
  4 active torsions:
  status: ('A' for Active; 'I' for Inactive)
    1  A    between atoms: C_6  and  C_15
    2  A    between atoms: C_6  and  C_23
    3  A    between atoms: C_12  and  C_21
    4  A    between atoms: C_15  and  C_21
                            x       y       z     vdW  Elec       q    Type
                         _______ _______ _______ _____ _____    ______ ____

>  <TORSDO>
F 4

$$$$
