=
 OpenBabel11052422183D

 25 27  0  0  1  0  0  0  0  0999 V2000
  161.5110  204.7160  150.5000 C   0  0  0  0  0  0  0  0  0  0  0  0
  161.5590  206.1710  150.7450 C   0  0  0  0  0  0  0  0  0  0  0  0
  160.6190  204.2820  152.7330 C   0  0  0  0  0  2  0  0  0  0  0  0
  161.1430  204.0820  149.3910 C   0  0  0  0  0  0  0  0  0  0  0  0
  161.1280  205.6520  153.2030 C   0  0  0  0  0  2  0  0  0  0  0  0
  160.8490  202.7100  149.7800 C   0  0  0  0  0  0  0  0  0  0  0  0
  161.3640  208.0200  152.3190 C   0  0  0  0  0  0  0  0  0  0  0  0
  161.1540  208.5630  153.6920 C   0  0  0  0  0  1  0  0  0  0  0  0
  161.7880  207.0860  149.7110 C   0  0  0  0  0  3  0  0  0  0  0  0
  161.5340  203.7500  151.6370 C   0  0  1  0  0  3  0  0  0  0  0  0
  161.0160  202.5220  151.0470 N   0  0  0  0  0  0  0  0  0  0  0  0
  161.5960  208.9200  151.2740 C   0  0  0  0  0  3  0  0  0  0  0  0
  161.8020  208.4560  149.9730 C   0  0  0  0  0  0  0  0  0  0  0  0
  161.3330  206.6350  152.0630 C   0  0  0  0  0  0  0  0  0  0  0  0
  161.3860  200.7650  148.3670 C   0  0  0  0  0  1  0  0  0  0  0  0
  160.2800  201.6660  148.8800 C   0  0  0  0  0  2  0  0  0  0  0  0
  161.9050  204.4610  147.0700 C   0  0  0  0  0  1  0  0  0  0  0  0
  160.7950  204.7030  148.0760 C   0  0  0  0  0  2  0  0  0  0  0  0
  162.0650  209.4220  148.8720 C   0  0  0  0  0  2  0  0  0  0  0  0
  162.0960  210.8400  149.4170 C   0  0  0  0  0  2  0  0  0  0  0  0
  162.0000  211.8480  148.2840 C   0  0  2  0  0  3  0  0  0  0  0  0
  163.3340  212.2680  147.8940 N   0  0  0  0  0  1  0  0  0  0  0  0
  161.2000  213.0400  148.6970 C   0  0  0  0  0  0  0  0  0  0  0  0
  160.5570  213.0160  149.7780 O   0  0  0  0  0  1  0  0  0  0  0  0
  161.1670  214.1770  147.8990 O   0  0  0  0  0  0  0  0  0  0  0  0
  1  2  1  0  0  0  0
  1 10  1  0  0  0  0
  2 14  1  0  0  0  0
  3  5  1  0  0  0  0
  4  6  1  0  0  0  0
  4  1  2  0  0  0  0
  6 11  2  0  0  0  0
  7  8  1  0  0  0  0
  9 13  1  0  0  0  0
  9  2  2  0  0  0  0
 10  3  1  1  0  0  0
 11 10  1  0  0  0  0
 12  7  1  0  0  0  0
 13 12  2  0  0  0  0
 14  7  2  0  0  0  0
 14  5  1  0  0  0  0
 15 16  1  0  0  0  0
 16  6  1  0  0  0  0
 17 18  1  0  0  0  0
 18  4  1  0  0  0  0
 19 20  1  0  0  0  0
 19 13  1  0  0  0  0
 21 22  1  1  0  0  0
 21 23  1  0  0  0  0
 21 20  1  0  0  0  0
 23 24  1  0  0  0  0
 25 23  2  0  0  0  0
M  END
>  <MODEL>
1

>  <REMARK>
 VINA RESULT:      -9.0      0.000      0.000
  Name = 
  6 active torsions:
  status: ('A' for Active; 'I' for Inactive)
    1  A    between atoms: C_2  and  CA_21
    2  A    between atoms: C_5  and  C_22
    3  A    between atoms: C_6  and  C_15
    4  A    between atoms: C_6  and  C_23
    5  A    between atoms: C_10  and  C_11
    6  A    between atoms: C_15  and  CA_21
                            x       y       z     vdW  Elec       q    Type
                         _______ _______ _______ _____ _____    ______ ____

>  <TORSDO>
F 6

$$$$
=
 OpenBabel11052422183D

 25 27  0  0  1  0  0  0  0  0999 V2000
  161.0190  207.4150  151.8550 C   0  0  0  0  0  0  0  0  0  0  0  0
  161.0730  206.3860  150.7980 C   0  0  0  0  0  0  0  0  0  0  0  0
  161.3500  205.7500  153.6120 C   0  0  0  0  0  2  0  0  0  0  0  0
  161.5500  208.6340  151.8430 C   0  0  0  0  0  0  0  0  0  0  0  0
  160.8990  204.6430  152.6480 C   0  0  0  0  0  2  0  0  0  0  0  0
  161.6050  209.0720  153.2300 C   0  0  0  0  0  0  0  0  0  0  0  0
  161.1150  204.0270  150.1950 C   0  0  0  0  0  0  0  0  0  0  0  0
  161.0760  202.5770  150.5470 C   0  0  0  0  0  1  0  0  0  0  0  0
  161.1730  206.7260  149.4440 C   0  0  0  0  0  3  0  0  0  0  0  0
  160.6450  207.0520  153.2530 C   0  0  1  0  0  3  0  0  0  0  0  0
  161.1470  208.1740  154.0380 N   0  0  0  0  0  0  0  0  0  0  0  0
  161.2120  204.3830  148.8470 C   0  0  0  0  0  3  0  0  0  0  0  0
  161.2480  205.7280  148.4710 C   0  0  0  0  0  0  0  0  0  0  0  0
  161.0530  205.0260  151.1860 C   0  0  0  0  0  0  0  0  0  0  0  0
  161.8610  210.5920  155.1520 C   0  0  0  0  0  1  0  0  0  0  0  0
  162.2420  210.3330  153.7080 C   0  0  0  0  0  2  0  0  0  0  0  0
  161.5550  210.6120  150.3610 C   0  0  0  0  0  1  0  0  0  0  0  0
  162.2410  209.3000  150.6960 C   0  0  0  0  0  2  0  0  0  0  0  0
  161.3350  206.0960  147.0320 C   0  0  0  0  0  2  0  0  0  0  0  0
  162.2820  205.1530  146.3080 C   0  0  0  0  0  2  0  0  0  0  0  0
  161.7020  204.7470  144.9630 C   0  0  2  0  0  3  0  0  0  0  0  0
  160.8610  205.8150  144.4550 N   0  0  0  0  0  1  0  0  0  0  0  0
  160.8990  203.4920  145.0850 C   0  0  0  0  0  0  0  0  0  0  0  0
  161.2620  202.5950  145.8900 O   0  0  0  0  0  1  0  0  0  0  0  0
  159.7520  203.3130  144.3220 O   0  0  0  0  0  0  0  0  0  0  0  0
  1 10  1  0  0  0  0
  2 14  1  0  0  0  0
  2  1  1  0  0  0  0
  4  1  2  0  0  0  0
  4  6  1  0  0  0  0
  5  3  1  0  0  0  0
  6 16  1  0  0  0  0
  6 11  2  0  0  0  0
  7  8  1  0  0  0  0
  7 14  2  0  0  0  0
  9  2  2  0  0  0  0
 10  3  1  1  0  0  0
 10 11  1  0  0  0  0
 12  7  1  0  0  0  0
 13 12  2  0  0  0  0
 13  9  1  0  0  0  0
 14  5  1  0  0  0  0
 16 15  1  0  0  0  0
 17 18  1  0  0  0  0
 18  4  1  0  0  0  0
 19 13  1  0  0  0  0
 20 19  1  0  0  0  0
 21 22  1  1  0  0  0
 21 23  1  0  0  0  0
 21 20  1  0  0  0  0
 23 24  1  0  0  0  0
 25 23  2  0  0  0  0
M  END
>  <MODEL>
2

>  <REMARK>
 VINA RESULT:      -8.4      4.001      6.693
  Name = 
  6 active torsions:
  status: ('A' for Active; 'I' for Inactive)
    1  A    between atoms: C_2  and  CA_21
    2  A    between atoms: C_5  and  C_22
    3  A    between atoms: C_6  and  C_15
    4  A    between atoms: C_6  and  C_23
    5  A    between atoms: C_10  and  C_11
    6  A    between atoms: C_15  and  CA_21
                            x       y       z     vdW  Elec       q    Type
                         _______ _______ _______ _____ _____    ______ ____

>  <TORSDO>
F 6

$$$$
=
 OpenBabel11052422183D

 25 27  0  0  1  0  0  0  0  0999 V2000
  160.9790  205.5640  149.7470 C   0  0  0  0  0  0  0  0  0  0  0  0
  161.2010  206.6860  150.6810 C   0  0  0  0  0  0  0  0  0  0  0  0
  161.8710  206.8410  147.8650 C   0  0  0  0  0  2  0  0  0  0  0  0
  161.1800  204.2670  149.9580 C   0  0  0  0  0  0  0  0  0  0  0  0
  161.6340  208.1470  148.6390 C   0  0  0  0  0  2  0  0  0  0  0  0
  161.2420  203.6420  148.6450 C   0  0  0  0  0  0  0  0  0  0  0  0
  161.7880  209.0260  151.0150 C   0  0  0  0  0  0  0  0  0  0  0  0
  162.1480  210.3790  150.5010 C   0  0  0  0  0  1  0  0  0  0  0  0
  161.0950  206.5230  152.0670 C   0  0  0  0  0  3  0  0  0  0  0  0
  160.8310  205.8090  148.2820 C   0  0  1  0  0  3  0  0  0  0  0  0
  161.0980  204.5030  147.6930 N   0  0  0  0  0  0  0  0  0  0  0  0
  161.6750  208.8460  152.3970 C   0  0  0  0  0  3  0  0  0  0  0  0
  161.3360  207.5970  152.9230 C   0  0  0  0  0  0  0  0  0  0  0  0
  161.5600  207.9440  150.1420 C   0  0  0  0  0  0  0  0  0  0  0  0
  160.4040  201.3280  148.7640 C   0  0  0  0  0  1  0  0  0  0  0  0
  161.5780  202.2110  148.3910 C   0  0  0  0  0  2  0  0  0  0  0  0
  160.3480  203.1510  152.0000 C   0  0  0  0  0  1  0  0  0  0  0  0
  161.5790  203.6200  151.2460 C   0  0  0  0  0  2  0  0  0  0  0  0
  161.2030  207.4220  154.3950 C   0  0  0  0  0  2  0  0  0  0  0  0
  160.4630  208.6050  154.9970 C   0  0  0  0  0  2  0  0  0  0  0  0
  161.2830  209.2340  156.1110 C   0  0  2  0  0  3  0  0  0  0  0  0
  160.4250  209.5080  157.2490 N   0  0  0  0  0  1  0  0  0  0  0  0
  161.9240  210.5030  155.6500 C   0  0  0  0  0  0  0  0  0  0  0  0
  163.1430  210.7080  155.8860 O   0  0  0  0  0  1  0  0  0  0  0  0
  161.1850  211.4540  154.9570 O   0  0  0  0  0  0  0  0  0  0  0  0
  1  4  2  0  0  0  0
  1  2  1  0  0  0  0
  2  9  1  0  0  0  0
  3  5  1  0  0  0  0
  4 18  1  0  0  0  0
  5 14  1  0  0  0  0
  6  4  1  0  0  0  0
  7 12  2  0  0  0  0
  8  7  1  0  0  0  0
  9 13  2  0  0  0  0
 10  3  1  6  0  0  0
 10  1  1  0  0  0  0
 11 10  1  0  0  0  0
 11  6  2  0  0  0  0
 12 13  1  0  0  0  0
 13 19  1  0  0  0  0
 14  2  2  0  0  0  0
 14  7  1  0  0  0  0
 16  6  1  0  0  0  0
 16 15  1  0  0  0  0
 18 17  1  0  0  0  0
 19 20  1  0  0  0  0
 20 21  1  0  0  0  0
 21 22  1  1  0  0  0
 23 24  1  0  0  0  0
 23 21  1  0  0  0  0
 25 23  2  0  0  0  0
M  END
>  <MODEL>
3

>  <REMARK>
 VINA RESULT:      -8.4      2.950      4.846
  Name = 
  6 active torsions:
  status: ('A' for Active; 'I' for Inactive)
    1  A    between atoms: C_2  and  CA_21
    2  A    between atoms: C_5  and  C_22
    3  A    between atoms: C_6  and  C_15
    4  A    between atoms: C_6  and  C_23
    5  A    between atoms: C_10  and  C_11
    6  A    between atoms: C_15  and  CA_21
                            x       y       z     vdW  Elec       q    Type
                         _______ _______ _______ _____ _____    ______ ____

>  <TORSDO>
F 6

$$$$
=
 OpenBabel11052422183D

 25 27  0  0  1  0  0  0  0  0999 V2000
  161.6610  205.5500  150.7710 C   0  0  0  0  0  0  0  0  0  0  0  0
  161.7280  207.0230  150.8470 C   0  0  0  0  0  0  0  0  0  0  0  0
  160.8720  205.3800  153.0770 C   0  0  0  0  0  2  0  0  0  0  0  0
  161.2390  204.7990  149.7580 C   0  0  0  0  0  0  0  0  0  0  0  0
  161.4100  206.7890  153.3640 C   0  0  0  0  0  2  0  0  0  0  0  0
  160.9550  203.4830  150.3130 C   0  0  0  0  0  0  0  0  0  0  0  0
  161.6170  209.0390  152.2090 C   0  0  0  0  0  0  0  0  0  0  0  0
  161.4750  209.7360  153.5200 C   0  0  0  0  0  1  0  0  0  0  0  0
  161.9150  207.8130  149.7070 C   0  0  0  0  0  3  0  0  0  0  0  0
  161.7320  204.7180  152.0070 C   0  0  1  0  0  3  0  0  0  0  0  0
  161.1800  203.4370  151.5850 N   0  0  0  0  0  0  0  0  0  0  0  0
  161.8060  209.8130  151.0600 C   0  0  0  0  0  3  0  0  0  0  0  0
  161.9480  209.2030  149.8110 C   0  0  0  0  0  0  0  0  0  0  0  0
  161.5670  207.6350  152.1130 C   0  0  0  0  0  0  0  0  0  0  0  0
  161.0630  201.0580  149.8900 C   0  0  0  0  0  1  0  0  0  0  0  0
  160.3400  202.3500  149.5640 C   0  0  0  0  0  2  0  0  0  0  0  0
  161.8690  204.8600  147.3690 C   0  0  0  0  0  1  0  0  0  0  0  0
  160.8330  205.2720  148.3990 C   0  0  0  0  0  2  0  0  0  0  0  0
  162.1650  210.0360  148.5970 C   0  0  0  0  0  2  0  0  0  0  0  0
  162.0390  211.5100  148.9450 C   0  0  0  0  0  2  0  0  0  0  0  0
  162.1830  212.3660  147.6970 C   0  0  2  0  0  3  0  0  0  0  0  0
  162.8610  213.6040  148.0350 N   0  0  0  0  0  1  0  0  0  0  0  0
  160.8470  212.6710  147.1030 C   0  0  0  0  0  0  0  0  0  0  0  0
  160.6930  212.6180  145.8550 O   0  0  0  0  0  0  0  0  0  0  0  0
  159.7740  213.0080  147.9180 O   0  0  0  0  0  1  0  0  0  0  0  0
  1  2  1  0  0  0  0
  1 10  1  0  0  0  0
  2 14  1  0  0  0  0
  3  5  1  0  0  0  0
  4  6  1  0  0  0  0
  4  1  2  0  0  0  0
  6 11  2  0  0  0  0
  7  8  1  0  0  0  0
  9 13  1  0  0  0  0
  9  2  2  0  0  0  0
 10  3  1  1  0  0  0
 11 10  1  0  0  0  0
 12  7  1  0  0  0  0
 13 12  2  0  0  0  0
 14  7  2  0  0  0  0
 14  5  1  0  0  0  0
 16 15  1  0  0  0  0
 16  6  1  0  0  0  0
 17 18  1  0  0  0  0
 18  4  1  0  0  0  0
 19 20  1  0  0  0  0
 19 13  1  0  0  0  0
 21 22  1  1  0  0  0
 21 20  1  0  0  0  0
 23 21  1  0  0  0  0
 23 25  1  0  0  0  0
 24 23  2  0  0  0  0
M  END
>  <MODEL>
4

>  <REMARK>
 VINA RESULT:      -8.3      1.111      1.319
  Name = 
  6 active torsions:
  status: ('A' for Active; 'I' for Inactive)
    1  A    between atoms: C_2  and  CA_21
    2  A    between atoms: C_5  and  C_22
    3  A    between atoms: C_6  and  C_15
    4  A    between atoms: C_6  and  C_23
    5  A    between atoms: C_10  and  C_11
    6  A    between atoms: C_15  and  CA_21
                            x       y       z     vdW  Elec       q    Type
                         _______ _______ _______ _____ _____    ______ ____

>  <TORSDO>
F 6

$$$$
=
 OpenBabel11052422183D

 25 27  0  0  1  0  0  0  0  0999 V2000
  161.5290  204.1140  147.4970 C   0  0  0  0  0  0  0  0  0  0  0  0
  161.3250  203.6960  148.8980 C   0  0  0  0  0  0  0  0  0  0  0  0
  160.7680  201.9520  146.6510 C   0  0  0  0  0  2  0  0  0  0  0  0
  161.2590  205.2920  146.9440 C   0  0  0  0  0  0  0  0  0  0  0  0
  161.0380  201.3200  148.0240 C   0  0  0  0  0  2  0  0  0  0  0  0
  161.2170  205.0720  145.5050 C   0  0  0  0  0  0  0  0  0  0  0  0
  160.8370  201.9140  150.4840 C   0  0  0  0  0  0  0  0  0  0  0  0
  160.5610  200.4850  150.8150 C   0  0  0  0  0  1  0  0  0  0  0  0
  161.3720  204.6130  149.9550 C   0  0  0  0  0  3  0  0  0  0  0  0
  161.7420  203.1010  146.4220 C   0  0  1  0  0  3  0  0  0  0  0  0
  161.4370  203.8350  145.2010 N   0  0  0  0  0  0  0  0  0  0  0  0
  160.8890  202.8420  151.5280 C   0  0  0  0  0  3  0  0  0  0  0  0
  161.1490  204.1890  151.2650 C   0  0  0  0  0  0  0  0  0  0  0  0
  161.0460  202.3330  149.1560 C   0  0  0  0  0  0  0  0  0  0  0  0
  161.4300  205.7450  143.1450 C   0  0  0  0  0  1  0  0  0  0  0  0
  160.8240  206.0910  144.4910 C   0  0  0  0  0  2  0  0  0  0  0  0
  161.9590  207.4150  148.0000 C   0  0  0  0  0  1  0  0  0  0  0  0
  160.7820  206.5240  147.6450 C   0  0  0  0  0  2  0  0  0  0  0  0
  161.2190  205.1660  152.3860 C   0  0  0  0  0  2  0  0  0  0  0  0
  161.1130  206.5840  151.8510 C   0  0  0  0  0  2  0  0  0  0  0  0
  161.5590  207.5850  152.9040 C   0  0  2  0  0  3  0  0  0  0  0  0
  160.8150  207.3620  154.1300 N   0  0  0  0  0  1  0  0  0  0  0  0
  161.3420  208.9860  152.4340 C   0  0  0  0  0  0  0  0  0  0  0  0
  160.1770  209.4620  152.4080 O   0  0  0  0  0  1  0  0  0  0  0  0
  162.4170  209.7690  152.0310 O   0  0  0  0  0  0  0  0  0  0  0  0
  1  2  1  0  0  0  0
  2 14  2  0  0  0  0
  2  9  1  0  0  0  0
  3  5  1  0  0  0  0
  4  1  2  0  0  0  0
  4 18  1  0  0  0  0
  5 14  1  0  0  0  0
  6  4  1  0  0  0  0
  7  8  1  0  0  0  0
  7 12  2  0  0  0  0
  9 13  2  0  0  0  0
 10  3  1  1  0  0  0
 10  1  1  0  0  0  0
 11  6  2  0  0  0  0
 11 10  1  0  0  0  0
 13 12  1  0  0  0  0
 13 19  1  0  0  0  0
 14  7  1  0  0  0  0
 15 16  1  0  0  0  0
 16  6  1  0  0  0  0
 18 17  1  0  0  0  0
 20 19  1  0  0  0  0
 20 21  1  0  0  0  0
 21 22  1  1  0  0  0
 23 21  1  0  0  0  0
 24 23  1  0  0  0  0
 25 23  2  0  0  0  0
M  END
>  <MODEL>
5

>  <REMARK>
 VINA RESULT:      -8.2      3.151      5.535
  Name = 
  6 active torsions:
  status: ('A' for Active; 'I' for Inactive)
    1  A    between atoms: C_2  and  CA_21
    2  A    between atoms: C_5  and  C_22
    3  A    between atoms: C_6  and  C_15
    4  A    between atoms: C_6  and  C_23
    5  A    between atoms: C_10  and  C_11
    6  A    between atoms: C_15  and  CA_21
                            x       y       z     vdW  Elec       q    Type
                         _______ _______ _______ _____ _____    ______ ____

>  <TORSDO>
F 6

$$$$
=
 OpenBabel11052422183D

 25 27  0  0  1  0  0  0  0  0999 V2000
  161.5060  205.7540  150.9100 C   0  0  0  0  0  0  0  0  0  0  0  0
  161.2670  206.8450  151.8760 C   0  0  0  0  0  0  0  0  0  0  0  0
  160.8170  204.0560  152.5260 C   0  0  0  0  0  2  0  0  0  0  0  0
  161.2280  205.7340  149.6100 C   0  0  0  0  0  0  0  0  0  0  0  0
  161.0570  205.0490  153.6720 C   0  0  0  0  0  2  0  0  0  0  0  0
  161.2360  204.3340  149.2100 C   0  0  0  0  0  0  0  0  0  0  0  0
  160.7680  207.5230  154.1610 C   0  0  0  0  0  0  0  0  0  0  0  0
  160.5110  207.2180  155.5990 C   0  0  0  0  0  1  0  0  0  0  0  0
  161.2620  208.1880  151.4840 C   0  0  0  0  0  3  0  0  0  0  0  0
  161.7740  204.3640  151.3800 C   0  0  1  0  0  3  0  0  0  0  0  0
  161.4910  203.5490  150.2050 N   0  0  0  0  0  0  0  0  0  0  0  0
  160.7680  208.8600  153.7530 C   0  0  0  0  0  3  0  0  0  0  0  0
  161.0080  209.1930  152.4180 C   0  0  0  0  0  0  0  0  0  0  0  0
  161.0090  206.5000  153.2240 C   0  0  0  0  0  0  0  0  0  0  0  0
  161.9930  204.0330  146.8850 C   0  0  0  0  0  1  0  0  0  0  0  0
  160.8530  203.8230  147.8620 C   0  0  0  0  0  2  0  0  0  0  0  0
  161.8420  207.5470  148.0470 C   0  0  0  0  0  1  0  0  0  0  0  0
  160.7050  206.8670  148.7860 C   0  0  0  0  0  2  0  0  0  0  0  0
  161.0220  210.6210  151.9990 C   0  0  0  0  0  2  0  0  0  0  0  0
  160.2860  211.4730  153.0190 C   0  0  0  0  0  2  0  0  0  0  0  0
  158.8130  211.5800  152.6600 C   0  0  2  0  0  3  0  0  0  0  0  0
  158.6130  212.7030  151.7630 N   0  0  0  0  0  1  0  0  0  0  0  0
  157.9770  211.7620  153.8850 C   0  0  0  0  0  0  0  0  0  0  0  0
  157.0290  212.5880  153.8750 O   0  0  0  0  0  0  0  0  0  0  0  0
  158.2370  211.0200  155.0310 O   0  0  0  0  0  1  0  0  0  0  0  0
  1 10  1  0  0  0  0
  1  2  1  0  0  0  0
  2 14  1  0  0  0  0
  3  5  1  0  0  0  0
  4  1  2  0  0  0  0
  6  4  1  0  0  0  0
  6 11  2  0  0  0  0
  7  8  1  0  0  0  0
  9  2  2  0  0  0  0
  9 13  1  0  0  0  0
 10  3  1  1  0  0  0
 11 10  1  0  0  0  0
 12  7  1  0  0  0  0
 13 12  2  0  0  0  0
 14  5  1  0  0  0  0
 14  7  2  0  0  0  0
 15 16  1  0  0  0  0
 16  6  1  0  0  0  0
 17 18  1  0  0  0  0
 18  4  1  0  0  0  0
 19 13  1  0  0  0  0
 19 20  1  0  0  0  0
 21 22  1  6  0  0  0
 21 20  1  0  0  0  0
 21 23  1  0  0  0  0
 23 25  1  0  0  0  0
 24 23  2  0  0  0  0
M  END
>  <MODEL>
6

>  <REMARK>
 VINA RESULT:      -7.9      2.817      3.525
  Name = 
  6 active torsions:
  status: ('A' for Active; 'I' for Inactive)
    1  A    between atoms: C_2  and  CA_21
    2  A    between atoms: C_5  and  C_22
    3  A    between atoms: C_6  and  C_15
    4  A    between atoms: C_6  and  C_23
    5  A    between atoms: C_10  and  C_11
    6  A    between atoms: C_15  and  CA_21
                            x       y       z     vdW  Elec       q    Type
                         _______ _______ _______ _____ _____    ______ ____

>  <TORSDO>
F 6

$$$$
=
 OpenBabel11052422183D

 25 27  0  0  1  0  0  0  0  0999 V2000
  161.0100  204.9830  149.5000 C   0  0  0  0  0  0  0  0  0  0  0  0
  161.2830  206.3350  150.0280 C   0  0  0  0  0  0  0  0  0  0  0  0
  161.9040  205.5660  147.3020 C   0  0  0  0  0  2  0  0  0  0  0  0
  161.1790  203.8140  150.1110 C   0  0  0  0  0  0  0  0  0  0  0  0
  161.7190  207.0570  147.6230 C   0  0  0  0  0  2  0  0  0  0  0  0
  161.1980  202.8020  149.0640 C   0  0  0  0  0  0  0  0  0  0  0  0
  161.9420  208.6390  149.5960 C   0  0  0  0  0  0  0  0  0  0  0  0
  162.3320  209.7460  148.6750 C   0  0  0  0  0  1  0  0  0  0  0  0
  161.1980  206.6230  151.3940 C   0  0  0  0  0  3  0  0  0  0  0  0
  160.8420  204.7550  148.0350 C   0  0  1  0  0  3  0  0  0  0  0  0
  161.0600  203.3220  147.8890 N   0  0  0  0  0  0  0  0  0  0  0  0
  161.8510  208.9110  150.9640 C   0  0  0  0  0  3  0  0  0  0  0  0
  161.4870  207.9050  151.8630 C   0  0  0  0  0  0  0  0  0  0  0  0
  161.6670  207.3440  149.1140 C   0  0  0  0  0  0  0  0  0  0  0  0
  161.2050  200.5790  148.0030 C   0  0  0  0  0  1  0  0  0  0  0  0
  161.4870  201.3540  149.2740 C   0  0  0  0  0  2  0  0  0  0  0  0
  160.3770  203.2040  152.3680 C   0  0  0  0  0  1  0  0  0  0  0  0
  161.5830  203.5950  151.5340 C   0  0  0  0  0  2  0  0  0  0  0  0
  161.3760  208.2100  153.3150 C   0  0  0  0  0  2  0  0  0  0  0  0
  160.9070  209.6420  153.5140 C   0  0  0  0  0  2  0  0  0  0  0  0
  161.2900  210.1400  154.8980 C   0  0  2  0  0  3  0  0  0  0  0  0
  161.5820  209.0070  155.7570 N   0  0  0  0  0  1  0  0  0  0  0  0
  160.1870  210.9520  155.4970 C   0  0  0  0  0  0  0  0  0  0  0  0
  159.0800  210.4090  155.7510 O   0  0  0  0  0  0  0  0  0  0  0  0
  160.3780  212.2980  155.7790 O   0  0  0  0  0  1  0  0  0  0  0  0
  1  2  1  0  0  0  0
  1  4  2  0  0  0  0
  2  9  1  0  0  0  0
  3  5  1  0  0  0  0
  4 18  1  0  0  0  0
  5 14  1  0  0  0  0
  6 16  1  0  0  0  0
  6  4  1  0  0  0  0
  7 12  2  0  0  0  0
  8  7  1  0  0  0  0
  9 13  2  0  0  0  0
 10  3  1  6  0  0  0
 10  1  1  0  0  0  0
 11 10  1  0  0  0  0
 11  6  2  0  0  0  0
 12 13  1  0  0  0  0
 13 19  1  0  0  0  0
 14  7  1  0  0  0  0
 14  2  2  0  0  0  0
 15 16  1  0  0  0  0
 18 17  1  0  0  0  0
 19 20  1  0  0  0  0
 20 21  1  0  0  0  0
 21 23  1  0  0  0  0
 21 22  1  1  0  0  0
 23 24  2  0  0  0  0
 23 25  1  0  0  0  0
M  END
>  <MODEL>
7

>  <REMARK>
 VINA RESULT:      -7.9      2.975      4.568
  Name = 
  6 active torsions:
  status: ('A' for Active; 'I' for Inactive)
    1  A    between atoms: C_2  and  CA_21
    2  A    between atoms: C_5  and  C_22
    3  A    between atoms: C_6  and  C_15
    4  A    between atoms: C_6  and  C_23
    5  A    between atoms: C_10  and  C_11
    6  A    between atoms: C_15  and  CA_21
                            x       y       z     vdW  Elec       q    Type
                         _______ _______ _______ _____ _____    ______ ____

>  <TORSDO>
F 6

$$$$
=
 OpenBabel11052422183D

 25 27  0  0  1  0  0  0  0  0999 V2000
  161.5470  204.0670  148.4460 C   0  0  0  0  0  0  0  0  0  0  0  0
  161.4970  205.0360  149.5580 C   0  0  0  0  0  0  0  0  0  0  0  0
  160.5660  202.3040  149.8240 C   0  0  0  0  0  2  0  0  0  0  0  0
  161.2770  204.2760  147.1610 C   0  0  0  0  0  0  0  0  0  0  0  0
  160.9690  203.0710  151.0920 C   0  0  0  0  0  2  0  0  0  0  0  0
  161.0420  202.9660  146.5710 C   0  0  0  0  0  0  0  0  0  0  0  0
  161.1120  205.4640  151.9250 C   0  0  0  0  0  0  0  0  0  0  0  0
  160.7990  205.0100  153.3110 C   0  0  0  0  0  1  0  0  0  0  0  0
  161.7270  206.4020  149.3570 C   0  0  0  0  0  3  0  0  0  0  0  0
  161.5670  202.5990  148.7140 C   0  0  1  0  0  3  0  0  0  0  0  0
  161.1530  202.0180  147.4430 N   0  0  0  0  0  0  0  0  0  0  0  0
  161.3470  206.8250  151.7060 C   0  0  0  0  0  3  0  0  0  0  0  0
  161.6470  207.2950  150.4250 C   0  0  0  0  0  0  0  0  0  0  0  0
  161.1760  204.5560  150.8500 C   0  0  0  0  0  0  0  0  0  0  0  0
  159.9560  201.3480  145.0650 C   0  0  0  0  0  1  0  0  0  0  0  0
  160.5840  202.7230  145.1730 C   0  0  0  0  0  2  0  0  0  0  0  0
  162.0800  205.9860  145.5670 C   0  0  0  0  0  1  0  0  0  0  0  0
  160.9620  205.5870  146.5130 C   0  0  0  0  0  2  0  0  0  0  0  0
  161.9120  208.7430  150.2070 C   0  0  0  0  0  2  0  0  0  0  0  0
  162.2340  209.4200  151.5290 C   0  0  0  0  0  2  0  0  0  0  0  0
  160.9940  210.0850  152.1030 C   0  0  2  0  0  3  0  0  0  0  0  0
  160.8200  211.3920  151.4970 N   0  0  0  0  0  1  0  0  0  0  0  0
  161.1040  210.2300  153.5860 C   0  0  0  0  0  0  0  0  0  0  0  0
  160.9700  211.3650  154.1130 O   0  0  0  0  0  0  0  0  0  0  0  0
  161.3470  209.1200  154.3860 O   0  0  0  0  0  1  0  0  0  0  0  0
  1 10  1  0  0  0  0
  1  2  1  0  0  0  0
  2 14  1  0  0  0  0
  3  5  1  0  0  0  0
  4  1  2  0  0  0  0
  6  4  1  0  0  0  0
  6 11  2  0  0  0  0
  7  8  1  0  0  0  0
  9  2  2  0  0  0  0
  9 13  1  0  0  0  0
 10  3  1  1  0  0  0
 11 10  1  0  0  0  0
 12  7  1  0  0  0  0
 13 12  2  0  0  0  0
 14  5  1  0  0  0  0
 14  7  2  0  0  0  0
 15 16  1  0  0  0  0
 16  6  1  0  0  0  0
 17 18  1  0  0  0  0
 18  4  1  0  0  0  0
 19 13  1  0  0  0  0
 19 20  1  0  0  0  0
 20 21  1  0  0  0  0
 21 22  1  6  0  0  0
 21 23  1  0  0  0  0
 23 24  2  0  0  0  0
 23 25  1  0  0  0  0
M  END
>  <MODEL>
8

>  <REMARK>
 VINA RESULT:      -7.8      2.536      3.502
  Name = 
  6 active torsions:
  status: ('A' for Active; 'I' for Inactive)
    1  A    between atoms: C_2  and  CA_21
    2  A    between atoms: C_5  and  C_22
    3  A    between atoms: C_6  and  C_15
    4  A    between atoms: C_6  and  C_23
    5  A    between atoms: C_10  and  C_11
    6  A    between atoms: C_15  and  CA_21
                            x       y       z     vdW  Elec       q    Type
                         _______ _______ _______ _____ _____    ______ ____

>  <TORSDO>
F 6

$$$$
=
 OpenBabel11052422183D

 25 27  0  0  1  0  0  0  0  0999 V2000
  161.1730  208.8180  154.0670 C   0  0  0  0  0  0  0  0  0  0  0  0
  161.2150  207.8880  152.9210 C   0  0  0  0  0  0  0  0  0  0  0  0
  161.0430  210.7630  152.5940 C   0  0  0  0  0  2  0  0  0  0  0  0
  160.5150  208.6790  155.2140 C   0  0  0  0  0  0  0  0  0  0  0  0
  161.5970  209.9220  151.4350 C   0  0  0  0  0  2  0  0  0  0  0  0
  160.4310  210.0070  155.8030 C   0  0  0  0  0  0  0  0  0  0  0  0
  161.4170  207.5630  150.5160 C   0  0  0  0  0  0  0  0  0  0  0  0
  161.6140  208.0780  149.1290 C   0  0  0  0  0  1  0  0  0  0  0  0
  161.0620  206.5070  153.0870 C   0  0  0  0  0  3  0  0  0  0  0  0
  161.6010  210.2390  153.9110 C   0  0  1  0  0  3  0  0  0  0  0  0
  160.9930  210.9020  155.0580 N   0  0  0  0  0  0  0  0  0  0  0  0
  161.2650  206.1850  150.7000 C   0  0  0  0  0  3  0  0  0  0  0  0
  161.0810  205.6580  151.9800 C   0  0  0  0  0  0  0  0  0  0  0  0
  161.3850  208.4300  151.6250 C   0  0  0  0  0  0  0  0  0  0  0  0
  158.6050  211.3850  156.7200 C   0  0  0  0  0  1  0  0  0  0  0  0
  159.6690  210.3530  157.0380 C   0  0  0  0  0  2  0  0  0  0  0  0
  160.3170  206.9440  156.9630 C   0  0  0  0  0  1  0  0  0  0  0  0
  159.7430  207.4810  155.6650 C   0  0  0  0  0  2  0  0  0  0  0  0
  160.9370  204.1880  152.1650 C   0  0  0  0  0  2  0  0  0  0  0  0
  161.6620  203.4470  151.0540 C   0  0  0  0  0  2  0  0  0  0  0  0
  160.6700  202.7060  150.1740 C   0  0  2  0  0  3  0  0  0  0  0  0
  160.7210  201.2870  150.4750 N   0  0  0  0  0  1  0  0  0  0  0  0
  160.9760  202.9220  148.7270 C   0  0  0  0  0  0  0  0  0  0  0  0
  161.0250  201.9360  147.9460 O   0  0  0  0  0  0  0  0  0  0  0  0
  161.1990  204.2030  148.2380 O   0  0  0  0  0  1  0  0  0  0  0  0
  1  4  2  0  0  0  0
  2  9  1  0  0  0  0
  2  1  1  0  0  0  0
  4 18  1  0  0  0  0
  4  6  1  0  0  0  0
  5 14  1  0  0  0  0
  5  3  1  0  0  0  0
  6 16  1  0  0  0  0
  7 12  2  0  0  0  0
  7 14  1  0  0  0  0
  8  7  1  0  0  0  0
 10  3  1  6  0  0  0
 10  1  1  0  0  0  0
 10 11  1  0  0  0  0
 11  6  2  0  0  0  0
 12 13  1  0  0  0  0
 13 19  1  0  0  0  0
 13  9  2  0  0  0  0
 14  2  2  0  0  0  0
 15 16  1  0  0  0  0
 18 17  1  0  0  0  0
 20 19  1  0  0  0  0
 21 22  1  1  0  0  0
 21 20  1  0  0  0  0
 23 21  1  0  0  0  0
 24 23  2  0  0  0  0
 25 23  1  0  0  0  0
M  END
>  <MODEL>
9

>  <REMARK>
 VINA RESULT:      -7.8      3.768      7.987
  Name = 
  6 active torsions:
  status: ('A' for Active; 'I' for Inactive)
    1  A    between atoms: C_2  and  CA_21
    2  A    between atoms: C_5  and  C_22
    3  A    between atoms: C_6  and  C_15
    4  A    between atoms: C_6  and  C_23
    5  A    between atoms: C_10  and  C_11
    6  A    between atoms: C_15  and  CA_21
                            x       y       z     vdW  Elec       q    Type
                         _______ _______ _______ _____ _____    ______ ____

>  <TORSDO>
F 6

$$$$
