=
 OpenBabel11062407563D

 34 39  0  0  1  0  0  0  0  0999 V2000
  158.1830  212.2250  154.0770 C   0  0  0  0  0  0  0  0  0  0  0  0
  159.5700  212.6560  152.1230 C   0  0  0  0  0  0  0  0  0  0  0  0
  160.5400  211.2570  153.9950 C   0  0  1  0  0  3  0  0  0  0  0  0
  161.1330  208.8240  154.0750 N   0  0  0  0  0  0  0  0  0  0  0  0
  157.2990  213.4900  152.2070 C   0  0  0  0  0  3  0  0  0  0  0  0
  158.5130  213.3540  151.5350 C   0  0  0  0  0  3  0  0  0  0  0  0
  160.5080  209.5580  152.0450 C   0  0  0  0  0  3  0  0  0  0  0  0
  159.4120  212.0680  153.3930 C   0  0  0  0  0  0  0  0  0  0  0  0
  161.2310  207.7810  153.2370 C   0  0  0  0  0  3  0  0  0  0  0  0
  157.1400  212.9390  153.4800 C   0  0  0  0  0  3  0  0  0  0  0  0
  160.4270  211.1570  155.5300 C   0  0  2  0  0  3  0  0  0  0  0  0
  158.0030  211.7770  155.5010 C   0  0  0  0  0  2  0  0  0  0  0  0
  160.7780  212.5550  151.4390 O   0  0  0  0  0  1  0  0  0  0  0  0
  161.3790  208.7760  155.5140 C   0  0  0  0  0  2  0  0  0  0  0  0
  161.4630  210.1860  156.1220 C   0  0  1  0  0  3  0  0  0  0  0  0
  160.8590  208.2210  151.9810 C   0  0  0  0  0  0  0  0  0  0  0  0
  160.6730  209.8840  153.3820 C   0  0  0  0  0  0  0  0  0  0  0  0
  159.0180  210.7220  155.9240 C   0  0  0  0  0  2  0  0  0  0  0  0
  164.9200  211.2640  154.9270 C   0  0  0  0  0  0  0  0  0  0  0  0
  165.4380  211.8310  156.0940 C   0  0  0  0  0  3  0  0  0  0  0  0
  162.8550  210.7450  156.0960 C   0  0  0  0  0  0  0  0  0  0  0  0
  164.6680  211.8610  157.2610 C   0  0  0  0  0  3  0  0  0  0  0  0
  163.6320  210.7240  154.9270 C   0  0  0  0  0  3  0  0  0  0  0  0
  163.3780  211.3210  157.2590 C   0  0  0  0  0  3  0  0  0  0  0  0
  165.6660  211.2400  153.7960 F   0  0  0  0  0  0  0  0  0  0  0  0
  160.8240  207.3860  150.7510 C   0  0  0  0  0  2  0  0  0  0  0  0
  161.8070  206.3650  150.8380 O   0  0  0  0  0  0  0  0  0  0  0  0
  161.6340  205.0840  147.8890 S   0  0  0  0  0  0  0  0  0  0  0  0
  161.5550  204.9990  150.6450 C   0  0  0  0  0  0  0  0  0  0  0  0
  161.2820  204.3690  149.3190 C   0  0  0  0  0  0  0  0  0  0  0  0
  160.6690  202.2770  150.4000 C   0  0  0  0  0  3  0  0  0  0  0  0
  161.3220  202.7340  151.6770 C   0  0  0  0  0  2  0  0  0  0  0  0
  161.5270  204.2260  151.7360 C   0  0  0  0  0  3  0  0  0  0  0  0
  160.6980  203.0200  149.2930 C   0  0  0  0  0  3  0  0  0  0  0  0
  1 12  1  0  0  0  0
  2  8  1  0  0  0  0
  3 17  1  6  0  0  0
  3 11  1  0  0  0  0
  4 14  1  0  0  0  0
  5 10  2  0  0  0  0
  6  2  2  0  0  0  0
  6  5  1  0  0  0  0
  7 17  2  0  0  0  0
  8  3  1  0  0  0  0
  8  1  2  0  0  0  0
  9  4  1  0  0  0  0
 10  1  1  0  0  0  0
 11 18  1  6  0  0  0
 11 15  1  0  0  0  0
 12 18  1  0  0  0  0
 13  2  1  0  0  0  0
 14 15  1  0  0  0  0
 15 21  1  6  0  0  0
 16  7  1  0  0  0  0
 16  9  2  0  0  0  0
 17  4  1  0  0  0  0
 19 20  1  0  0  0  0
 20 22  2  0  0  0  0
 21 24  2  0  0  0  0
 23 19  2  0  0  0  0
 23 21  1  0  0  0  0
 24 22  1  0  0  0  0
 25 19  1  0  0  0  0
 26 27  1  0  0  0  0
 26 16  1  0  0  0  0
 28 30  2  0  0  0  0
 29 27  1  0  0  0  0
 29 33  2  0  0  0  0
 30 29  1  0  0  0  0
 31 32  1  0  0  0  0
 32 33  1  0  0  0  0
 34 30  1  0  0  0  0
 34 31  2  0  0  0  0
M  END
>  <MODEL>
1

>  <REMARK>
 VINA RESULT:      -5.9      0.000      0.000
  Name = 
  4 active torsions:
  status: ('A' for Active; 'I' for Inactive)
    1  A    between atoms: O_3  and  C_13
    2  A    between atoms: O_3  and  C_17
    3  A    between atoms: C_12  and  C_28
    4  A    between atoms: C_17  and  C_29
                            x       y       z     vdW  Elec       q    Type
                         _______ _______ _______ _____ _____    ______ ____

>  <TORSDO>
F 4

$$$$
=
 OpenBabel11062407563D

 34 39  0  0  1  0  0  0  0  0999 V2000
  161.4660  213.4960  146.0220 C   0  0  0  0  0  0  0  0  0  0  0  0
  159.1170  212.8600  146.1110 C   0  0  0  0  0  0  0  0  0  0  0  0
  160.6830  211.9050  147.8550 C   0  0  1  0  0  3  0  0  0  0  0  0
  160.8270  212.3200  150.3220 N   0  0  0  0  0  0  0  0  0  0  0  0
  159.8870  214.4290  144.4360 C   0  0  0  0  0  3  0  0  0  0  0  0
  158.8560  213.6970  145.0240 C   0  0  0  0  0  3  0  0  0  0  0  0
  159.0700  213.2990  149.3190 C   0  0  0  0  0  3  0  0  0  0  0  0
  160.4210  212.7630  146.6350 C   0  0  0  0  0  0  0  0  0  0  0  0
  160.1300  212.9460  151.2820 C   0  0  0  0  0  3  0  0  0  0  0  0
  161.1900  214.3180  144.9260 C   0  0  0  0  0  3  0  0  0  0  0  0
  162.1630  211.4840  147.9610 C   0  0  2  0  0  3  0  0  0  0  0  0
  162.9050  213.3070  146.4150 C   0  0  0  0  0  2  0  0  0  0  0  0
  158.0730  212.1240  146.6640 O   0  0  0  0  0  1  0  0  0  0  0  0
  162.0870  211.6100  150.5200 C   0  0  0  0  0  2  0  0  0  0  0  0
  162.4650  210.7700  149.2890 C   0  0  1  0  0  3  0  0  0  0  0  0
  159.0400  213.5450  150.6810 C   0  0  0  0  0  0  0  0  0  0  0  0
  160.2210  212.5490  149.1400 C   0  0  0  0  0  0  0  0  0  0  0  0
  163.0670  212.7040  147.8050 C   0  0  0  0  0  2  0  0  0  0  0  0
  161.2140  207.3210  148.2490 C   0  0  0  0  0  0  0  0  0  0  0  0
  160.8550  206.7860  149.4890 C   0  0  0  0  0  3  0  0  0  0  0  0
  161.8960  209.3830  149.3380 C   0  0  0  0  0  0  0  0  0  0  0  0
  161.0180  207.5420  150.6530 C   0  0  0  0  0  3  0  0  0  0  0  0
  161.7340  208.6150  148.1730 C   0  0  0  0  0  3  0  0  0  0  0  0
  161.5410  208.8370  150.5760 C   0  0  0  0  0  3  0  0  0  0  0  0
  161.0590  206.5860  147.1220 F   0  0  0  0  0  0  0  0  0  0  0  0
  158.0010  214.3450  151.3820 C   0  0  0  0  0  2  0  0  0  0  0  0
  158.2270  214.2980  152.7830 O   0  0  0  0  0  0  0  0  0  0  0  0
  159.7600  212.4260  154.9080 S   0  0  0  0  0  0  0  0  0  0  0  0
  157.5260  213.4730  153.6750 C   0  0  0  0  0  0  0  0  0  0  0  0
  158.1610  212.4510  154.5570 C   0  0  0  0  0  0  0  0  0  0  0  0
  155.9770  211.5730  155.1720 C   0  0  0  0  0  3  0  0  0  0  0  0
  155.3170  212.8180  154.6450 C   0  0  0  0  0  2  0  0  0  0  0  0
  156.1950  213.5990  153.7010 C   0  0  0  0  0  3  0  0  0  0  0  0
  157.3030  211.4290  155.1750 C   0  0  0  0  0  3  0  0  0  0  0  0
  1 12  1  0  0  0  0
  1  8  1  0  0  0  0
  2  8  2  0  0  0  0
  2 13  1  0  0  0  0
  3  8  1  6  0  0  0
  3 11  1  0  0  0  0
  3 17  1  0  0  0  0
  4 14  1  0  0  0  0
  4  9  1  0  0  0  0
  5 10  1  0  0  0  0
  5  6  2  0  0  0  0
  6  2  1  0  0  0  0
  7 16  1  0  0  0  0
 10  1  2  0  0  0  0
 11 18  1  1  0  0  0
 11 15  1  0  0  0  0
 12 18  1  0  0  0  0
 15 21  1  6  0  0  0
 15 14  1  0  0  0  0
 16  9  2  0  0  0  0
 16 26  1  0  0  0  0
 17  7  2  0  0  0  0
 17  4  1  0  0  0  0
 19 20  1  0  0  0  0
 20 22  2  0  0  0  0
 21 24  2  0  0  0  0
 23 19  2  0  0  0  0
 23 21  1  0  0  0  0
 24 22  1  0  0  0  0
 25 19  1  0  0  0  0
 26 27  1  0  0  0  0
 27 29  1  0  0  0  0
 29 33  2  0  0  0  0
 29 30  1  0  0  0  0
 30 28  2  0  0  0  0
 30 34  1  0  0  0  0
 31 34  2  0  0  0  0
 32 31  1  0  0  0  0
 33 32  1  0  0  0  0
M  END
>  <MODEL>
2

>  <REMARK>
 VINA RESULT:      -4.7      4.551      8.313
  Name = 
  4 active torsions:
  status: ('A' for Active; 'I' for Inactive)
    1  A    between atoms: O_3  and  C_13
    2  A    between atoms: O_3  and  C_17
    3  A    between atoms: C_12  and  C_28
    4  A    between atoms: C_17  and  C_29
                            x       y       z     vdW  Elec       q    Type
                         _______ _______ _______ _____ _____    ______ ____

>  <TORSDO>
F 4

$$$$
=
 OpenBabel11062407563D

 34 39  0  0  1  0  0  0  0  0999 V2000
  161.5170  210.0050  156.5370 C   0  0  0  0  0  0  0  0  0  0  0  0
  160.5270  208.1480  155.3110 C   0  0  0  0  0  0  0  0  0  0  0  0
  159.8110  210.4990  154.7090 C   0  0  1  0  0  3  0  0  0  0  0  0
  160.2240  211.8520  152.6400 N   0  0  0  0  0  0  0  0  0  0  0  0
  162.2090  207.7280  157.0010 C   0  0  0  0  0  3  0  0  0  0  0  0
  161.3230  207.2560  156.0330 C   0  0  0  0  0  3  0  0  0  0  0  0
  160.9280  209.7220  152.5100 C   0  0  0  0  0  3  0  0  0  0  0  0
  160.6280  209.5340  155.5420 C   0  0  0  0  0  0  0  0  0  0  0  0
  160.7280  211.6830  151.4080 C   0  0  0  0  0  3  0  0  0  0  0  0
  162.2950  209.0970  157.2610 C   0  0  0  0  0  3  0  0  0  0  0  0
  159.6210  211.8580  155.4140 C   0  0  2  0  0  3  0  0  0  0  0  0
  161.5480  211.4480  156.9570 C   0  0  0  0  0  2  0  0  0  0  0  0
  159.6360  207.6480  154.3670 O   0  0  0  0  0  1  0  0  0  0  0  0
  159.7140  213.1090  153.1780 C   0  0  0  0  0  2  0  0  0  0  0  0
  158.9520  212.8950  154.4960 C   0  0  1  0  0  3  0  0  0  0  0  0
  161.1570  210.3730  151.3110 C   0  0  0  0  0  0  0  0  0  0  0  0
  160.3660  210.6950  153.3180 C   0  0  0  0  0  0  0  0  0  0  0  0
  160.9660  212.3850  155.9050 C   0  0  0  0  0  2  0  0  0  0  0  0
  155.5380  211.1950  154.5300 C   0  0  0  0  0  0  0  0  0  0  0  0
  154.7570  212.1580  153.8840 C   0  0  0  0  0  3  0  0  0  0  0  0
  157.4930  212.6150  154.2830 C   0  0  0  0  0  0  0  0  0  0  0  0
  155.3380  213.3490  153.4400 C   0  0  0  0  0  3  0  0  0  0  0  0
  156.9010  211.4240  154.7300 C   0  0  0  0  0  3  0  0  0  0  0  0
  156.7040  213.5770  153.6430 C   0  0  0  0  0  3  0  0  0  0  0  0
  154.9730  210.0420  154.9630 F   0  0  0  0  0  0  0  0  0  0  0  0
  161.7820  209.7590  150.1090 C   0  0  0  0  0  2  0  0  0  0  0  0
  162.2030  208.4370  150.4110 O   0  0  0  0  0  0  0  0  0  0  0  0
  161.5600  205.8080  152.1560 S   0  0  0  0  0  0  0  0  0  0  0  0
  161.6710  207.2800  149.8260 C   0  0  0  0  0  0  0  0  0  0  0  0
  161.5180  205.9710  150.5280 C   0  0  0  0  0  0  0  0  0  0  0  0
  160.9410  204.8750  148.4330 C   0  0  0  0  0  3  0  0  0  0  0  0
  160.6800  206.2120  147.7940 C   0  0  0  0  0  2  0  0  0  0  0  0
  161.3140  207.3590  148.5400 C   0  0  0  0  0  3  0  0  0  0  0  0
  161.2810  204.7670  149.7180 C   0  0  0  0  0  3  0  0  0  0  0  0
  1 12  1  0  0  0  0
  1 10  1  0  0  0  0
  2  8  1  0  0  0  0
  2  6  2  0  0  0  0
  3 17  1  6  0  0  0
  3 11  1  0  0  0  0
  3  8  1  0  0  0  0
  4 14  1  0  0  0  0
  4 17  1  0  0  0  0
  5 10  2  0  0  0  0
  6  5  1  0  0  0  0
  7 17  2  0  0  0  0
  8  1  2  0  0  0  0
  9  4  1  0  0  0  0
 11 18  1  6  0  0  0
 13  2  1  0  0  0  0
 14 15  1  0  0  0  0
 15 21  1  6  0  0  0
 15 11  1  0  0  0  0
 16  9  2  0  0  0  0
 16  7  1  0  0  0  0
 18 12  1  0  0  0  0
 19 23  1  0  0  0  0
 19 25  1  0  0  0  0
 20 19  2  0  0  0  0
 21 23  2  0  0  0  0
 22 24  2  0  0  0  0
 22 20  1  0  0  0  0
 24 21  1  0  0  0  0
 26 27  1  0  0  0  0
 26 16  1  0  0  0  0
 29 27  1  0  0  0  0
 29 30  1  0  0  0  0
 30 28  2  0  0  0  0
 31 34  2  0  0  0  0
 32 31  1  0  0  0  0
 32 33  1  0  0  0  0
 33 29  2  0  0  0  0
 34 30  1  0  0  0  0
M  END
>  <MODEL>
3

>  <REMARK>
 VINA RESULT:      -4.6      2.866      5.637
  Name = 
  4 active torsions:
  status: ('A' for Active; 'I' for Inactive)
    1  A    between atoms: O_3  and  C_13
    2  A    between atoms: O_3  and  C_17
    3  A    between atoms: C_12  and  C_28
    4  A    between atoms: C_17  and  C_29
                            x       y       z     vdW  Elec       q    Type
                         _______ _______ _______ _____ _____    ______ ____

>  <TORSDO>
F 4

$$$$
=
 OpenBabel11062407563D

 34 39  0  0  1  0  0  0  0  0999 V2000
  161.6370  209.3610  156.4180 C   0  0  0  0  0  0  0  0  0  0  0  0
  160.2160  207.6210  155.4760 C   0  0  0  0  0  0  0  0  0  0  0  0
  160.0160  209.9660  154.5460 C   0  0  1  0  0  3  0  0  0  0  0  0
  160.6420  210.8900  152.3020 N   0  0  0  0  0  0  0  0  0  0  0  0
  161.8250  207.0730  157.2010 C   0  0  0  0  0  3  0  0  0  0  0  0
  160.8210  206.6820  156.3150 C   0  0  0  0  0  3  0  0  0  0  0  0
  160.8530  208.6600  152.4760 C   0  0  0  0  0  3  0  0  0  0  0  0
  160.6300  208.9680  155.5050 C   0  0  0  0  0  0  0  0  0  0  0  0
  161.0510  210.4440  151.1050 C   0  0  0  0  0  3  0  0  0  0  0  0
  162.2210  208.4100  157.2610 C   0  0  0  0  0  3  0  0  0  0  0  0
  160.1580  211.4170  155.0490 C   0  0  2  0  0  3  0  0  0  0  0  0
  162.0020  210.8040  156.6260 C   0  0  0  0  0  2  0  0  0  0  0  0
  159.2020  207.2070  154.6180 O   0  0  0  0  0  1  0  0  0  0  0  0
  160.4430  212.2930  152.6570 C   0  0  0  0  0  2  0  0  0  0  0  0
  159.7010  212.4400  153.9950 C   0  0  1  0  0  3  0  0  0  0  0  0
  161.1750  209.0710  151.1940 C   0  0  0  0  0  0  0  0  0  0  0  0
  160.5490  209.8380  153.1390 C   0  0  0  0  0  0  0  0  0  0  0  0
  161.6030  211.6920  155.4530 C   0  0  0  0  0  2  0  0  0  0  0  0
  156.0020  211.5480  154.2570 C   0  0  0  0  0  0  0  0  0  0  0  0
  155.4280  212.5840  153.5170 C   0  0  0  0  0  3  0  0  0  0  0  0
  158.2100  212.4680  153.8310 C   0  0  0  0  0  0  0  0  0  0  0  0
  156.2380  213.5640  152.9360 C   0  0  0  0  0  3  0  0  0  0  0  0
  157.3890  211.4900  154.4160 C   0  0  0  0  0  3  0  0  0  0  0  0
  157.6270  213.5060  153.0960 C   0  0  0  0  0  3  0  0  0  0  0  0
  155.2150  210.6010  154.8230 F   0  0  0  0  0  0  0  0  0  0  0  0
  161.6050  208.1710  150.0910 C   0  0  0  0  0  2  0  0  0  0  0  0
  160.6130  207.1790  149.8680 O   0  0  0  0  0  0  0  0  0  0  0  0
  161.6510  205.7320  147.1850 S   0  0  0  0  0  0  0  0  0  0  0  0
  160.8620  205.8000  149.8280 C   0  0  0  0  0  0  0  0  0  0  0  0
  161.1670  205.0330  148.5840 C   0  0  0  0  0  0  0  0  0  0  0  0
  160.9690  202.9300  149.7920 C   0  0  0  0  0  3  0  0  0  0  0  0
  161.0780  203.6600  151.1030 C   0  0  0  0  0  2  0  0  0  0  0  0
  160.7840  205.1340  150.9850 C   0  0  0  0  0  3  0  0  0  0  0  0
  161.0630  203.5670  148.6240 C   0  0  0  0  0  3  0  0  0  0  0  0
  1 12  1  0  0  0  0
  1 10  1  0  0  0  0
  2  8  1  0  0  0  0
  2  6  2  0  0  0  0
  3 17  1  6  0  0  0
  3 11  1  0  0  0  0
  3  8  1  0  0  0  0
  4 14  1  0  0  0  0
  4 17  1  0  0  0  0
  5 10  2  0  0  0  0
  6  5  1  0  0  0  0
  7 17  2  0  0  0  0
  8  1  2  0  0  0  0
  9 16  2  0  0  0  0
  9  4  1  0  0  0  0
 11 18  1  6  0  0  0
 13  2  1  0  0  0  0
 14 15  1  0  0  0  0
 15 21  1  6  0  0  0
 15 11  1  0  0  0  0
 16  7  1  0  0  0  0
 18 12  1  0  0  0  0
 19 23  1  0  0  0  0
 19 25  1  0  0  0  0
 20 19  2  0  0  0  0
 21 23  2  0  0  0  0
 22 24  2  0  0  0  0
 22 20  1  0  0  0  0
 24 21  1  0  0  0  0
 26 16  1  0  0  0  0
 27 26  1  0  0  0  0
 28 30  2  0  0  0  0
 29 27  1  0  0  0  0
 29 33  2  0  0  0  0
 30 34  1  0  0  0  0
 30 29  1  0  0  0  0
 31 32  1  0  0  0  0
 33 32  1  0  0  0  0
 34 31  2  0  0  0  0
M  END
>  <MODEL>
4

>  <REMARK>
 VINA RESULT:      -4.5      2.542      5.294
  Name = 
  4 active torsions:
  status: ('A' for Active; 'I' for Inactive)
    1  A    between atoms: O_3  and  C_13
    2  A    between atoms: O_3  and  C_17
    3  A    between atoms: C_12  and  C_28
    4  A    between atoms: C_17  and  C_29
                            x       y       z     vdW  Elec       q    Type
                         _______ _______ _______ _____ _____    ______ ____

>  <TORSDO>
F 4

$$$$
=
 OpenBabel11062407563D

 34 39  0  0  1  0  0  0  0  0999 V2000
  161.5600  209.9240  156.5230 C   0  0  0  0  0  0  0  0  0  0  0  0
  160.4790  208.0510  155.4030 C   0  0  0  0  0  0  0  0  0  0  0  0
  159.8160  210.3980  154.7250 C   0  0  1  0  0  3  0  0  0  0  0  0
  160.2070  211.6520  152.5910 N   0  0  0  0  0  0  0  0  0  0  0  0
  162.1970  207.6480  157.0600 C   0  0  0  0  0  3  0  0  0  0  0  0
  161.2690  207.1650  156.1380 C   0  0  0  0  0  3  0  0  0  0  0  0
  160.8440  209.4980  152.5290 C   0  0  0  0  0  3  0  0  0  0  0  0
  160.6280  209.4420  155.5730 C   0  0  0  0  0  0  0  0  0  0  0  0
  160.6690  211.4180  151.3530 C   0  0  0  0  0  3  0  0  0  0  0  0
  162.3320  209.0220  157.2610 C   0  0  0  0  0  3  0  0  0  0  0  0
  159.6880  211.7890  155.3780 C   0  0  2  0  0  3  0  0  0  0  0  0
  161.6470  211.3820  156.8810 C   0  0  0  0  0  2  0  0  0  0  0  0
  159.5450  207.5420  154.5060 O   0  0  0  0  0  1  0  0  0  0  0  0
  159.7510  212.9450  153.0910 C   0  0  0  0  0  2  0  0  0  0  0  0
  159.0230  212.8080  154.4380 C   0  0  1  0  0  3  0  0  0  0  0  0
  161.0560  210.0930  151.2980 C   0  0  0  0  0  0  0  0  0  0  0  0
  160.3350  210.5200  153.3120 C   0  0  0  0  0  0  0  0  0  0  0  0
  161.0620  212.2930  155.8090 C   0  0  0  0  0  2  0  0  0  0  0  0
  155.5830  211.1630  154.5250 C   0  0  0  0  0  0  0  0  0  0  0  0
  154.7910  212.1780  153.9830 C   0  0  0  0  0  3  0  0  0  0  0  0
  157.5500  212.5660  154.2780 C   0  0  0  0  0  0  0  0  0  0  0  0
  155.3720  213.3870  153.5920 C   0  0  0  0  0  3  0  0  0  0  0  0
  156.9590  211.3560  154.6730 C   0  0  0  0  0  3  0  0  0  0  0  0
  156.7500  213.5810  153.7420 C   0  0  0  0  0  3  0  0  0  0  0  0
  155.0190  209.9920  154.9080 F   0  0  0  0  0  0  0  0  0  0  0  0
  161.6270  209.4120  150.1050 C   0  0  0  0  0  2  0  0  0  0  0  0
  162.4170  208.3070  150.5180 O   0  0  0  0  0  0  0  0  0  0  0  0
  161.9230  206.8140  147.7070 S   0  0  0  0  0  0  0  0  0  0  0  0
  162.0050  206.9680  150.4600 C   0  0  0  0  0  0  0  0  0  0  0  0
  161.5830  206.2660  149.2120 C   0  0  0  0  0  0  0  0  0  0  0  0
  160.8100  204.3560  150.5060 C   0  0  0  0  0  3  0  0  0  0  0  0
  161.5860  204.8380  151.7010 C   0  0  0  0  0  2  0  0  0  0  0  0
  161.9590  206.2960  151.6160 C   0  0  0  0  0  3  0  0  0  0  0  0
  160.8530  204.9960  149.3370 C   0  0  0  0  0  3  0  0  0  0  0  0
  1 12  1  0  0  0  0
  1 10  1  0  0  0  0
  2  8  1  0  0  0  0
  2  6  2  0  0  0  0
  3 17  1  6  0  0  0
  3 11  1  0  0  0  0
  3  8  1  0  0  0  0
  4 14  1  0  0  0  0
  4 17  1  0  0  0  0
  5 10  2  0  0  0  0
  6  5  1  0  0  0  0
  7 17  2  0  0  0  0
  8  1  2  0  0  0  0
  9  4  1  0  0  0  0
 11 18  1  6  0  0  0
 13  2  1  0  0  0  0
 14 15  1  0  0  0  0
 15 21  1  6  0  0  0
 15 11  1  0  0  0  0
 16  9  2  0  0  0  0
 16  7  1  0  0  0  0
 18 12  1  0  0  0  0
 19 23  1  0  0  0  0
 19 25  1  0  0  0  0
 20 19  2  0  0  0  0
 21 23  2  0  0  0  0
 22 24  2  0  0  0  0
 22 20  1  0  0  0  0
 24 21  1  0  0  0  0
 26 27  1  0  0  0  0
 26 16  1  0  0  0  0
 28 30  2  0  0  0  0
 29 27  1  0  0  0  0
 29 33  2  0  0  0  0
 30 34  1  0  0  0  0
 30 29  1  0  0  0  0
 31 32  1  0  0  0  0
 33 32  1  0  0  0  0
 34 31  2  0  0  0  0
M  END
>  <MODEL>
5

>  <REMARK>
 VINA RESULT:      -4.5      2.698      5.455
  Name = 
  4 active torsions:
  status: ('A' for Active; 'I' for Inactive)
    1  A    between atoms: O_3  and  C_13
    2  A    between atoms: O_3  and  C_17
    3  A    between atoms: C_12  and  C_28
    4  A    between atoms: C_17  and  C_29
                            x       y       z     vdW  Elec       q    Type
                         _______ _______ _______ _____ _____    ______ ____

>  <TORSDO>
F 4

$$$$
=
 OpenBabel11062407563D

 34 39  0  0  1  0  0  0  0  0999 V2000
  159.1830  212.5370  150.9240 C   0  0  0  0  0  0  0  0  0  0  0  0
  161.4180  212.3010  149.9860 C   0  0  0  0  0  0  0  0  0  0  0  0
  160.9020  211.1220  152.1650 C   0  0  1  0  0  3  0  0  0  0  0  0
  160.6930  208.6800  152.6900 N   0  0  0  0  0  0  0  0  0  0  0  0
  159.7310  213.5710  148.8010 C   0  0  0  0  0  3  0  0  0  0  0  0
  161.0290  213.0690  148.8860 C   0  0  0  0  0  3  0  0  0  0  0  0
  161.3910  209.1210  150.6000 C   0  0  0  0  0  3  0  0  0  0  0  0
  160.4930  212.0100  151.0090 C   0  0  0  0  0  0  0  0  0  0  0  0
  160.9110  207.4980  152.0950 C   0  0  0  0  0  3  0  0  0  0  0  0
  158.8150  213.3160  149.8230 C   0  0  0  0  0  3  0  0  0  0  0  0
  160.0150  211.3420  153.4080 C   0  0  2  0  0  3  0  0  0  0  0  0
  158.2030  212.4150  152.0580 C   0  0  0  0  0  2  0  0  0  0  0  0
  162.7250  211.8310  150.0560 O   0  0  0  0  0  1  0  0  0  0  0  0
  160.1640  208.8610  154.0390 C   0  0  0  0  0  2  0  0  0  0  0  0
  160.3100  210.3160  154.5150 C   0  0  1  0  0  3  0  0  0  0  0  0
  161.3500  207.7540  150.8100 C   0  0  0  0  0  0  0  0  0  0  0  0
  160.9470  209.6580  151.7970 C   0  0  0  0  0  0  0  0  0  0  0  0
  158.5420  211.2810  153.0170 C   0  0  0  0  0  2  0  0  0  0  0  0
  164.0150  210.9770  155.1360 C   0  0  0  0  0  0  0  0  0  0  0  0
  164.0350  211.0770  156.5290 C   0  0  0  0  0  3  0  0  0  0  0  0
  161.6210  210.5710  155.2010 C   0  0  0  0  0  0  0  0  0  0  0  0
  162.8530  210.9280  157.2600 C   0  0  0  0  0  3  0  0  0  0  0  0
  162.8110  210.7270  154.4730 C   0  0  0  0  0  3  0  0  0  0  0  0
  161.6480  210.6790  156.5950 C   0  0  0  0  0  3  0  0  0  0  0  0
  165.1610  211.1260  154.4280 F   0  0  0  0  0  0  0  0  0  0  0  0
  161.7100  206.7230  149.8010 C   0  0  0  0  0  2  0  0  0  0  0  0
  160.6650  205.7670  149.7010 O   0  0  0  0  0  0  0  0  0  0  0  0
  161.8670  204.3590  147.0660 S   0  0  0  0  0  0  0  0  0  0  0  0
  160.8580  204.3800  149.6330 C   0  0  0  0  0  0  0  0  0  0  0  0
  161.2370  203.6390  148.3940 C   0  0  0  0  0  0  0  0  0  0  0  0
  160.8480  201.5100  149.5060 C   0  0  0  0  0  3  0  0  0  0  0  0
  160.8740  202.1940  150.8460 C   0  0  0  0  0  2  0  0  0  0  0  0
  160.6530  203.6820  150.7550 C   0  0  0  0  0  3  0  0  0  0  0  0
  161.0680  202.1780  148.3740 C   0  0  0  0  0  3  0  0  0  0  0  0
  1  8  1  0  0  0  0
  1 12  1  0  0  0  0
  2 13  1  0  0  0  0
  2  8  2  0  0  0  0
  3  8  1  6  0  0  0
  3 11  1  0  0  0  0
  4 14  1  0  0  0  0
  5  6  2  0  0  0  0
  5 10  1  0  0  0  0
  6  2  1  0  0  0  0
  7 16  1  0  0  0  0
  7 17  2  0  0  0  0
  9  4  1  0  0  0  0
 10  1  2  0  0  0  0
 11 18  1  6  0  0  0
 11 15  1  0  0  0  0
 12 18  1  0  0  0  0
 14 15  1  0  0  0  0
 15 21  1  6  0  0  0
 16  9  2  0  0  0  0
 17  3  1  0  0  0  0
 17  4  1  0  0  0  0
 19 20  1  0  0  0  0
 20 22  2  0  0  0  0
 21 24  2  0  0  0  0
 23 19  2  0  0  0  0
 23 21  1  0  0  0  0
 24 22  1  0  0  0  0
 25 19  1  0  0  0  0
 26 16  1  0  0  0  0
 27 26  1  0  0  0  0
 28 30  2  0  0  0  0
 29 27  1  0  0  0  0
 29 33  2  0  0  0  0
 30 29  1  0  0  0  0
 31 32  1  0  0  0  0
 33 32  1  0  0  0  0
 34 30  1  0  0  0  0
 34 31  2  0  0  0  0
M  END
>  <MODEL>
6

>  <REMARK>
 VINA RESULT:      -4.4      1.501      2.164
  Name = 
  4 active torsions:
  status: ('A' for Active; 'I' for Inactive)
    1  A    between atoms: O_3  and  C_13
    2  A    between atoms: O_3  and  C_17
    3  A    between atoms: C_12  and  C_28
    4  A    between atoms: C_17  and  C_29
                            x       y       z     vdW  Elec       q    Type
                         _______ _______ _______ _____ _____    ______ ____

>  <TORSDO>
F 4

$$$$
=
 OpenBabel11062407563D

 34 39  0  0  1  0  0  0  0  0999 V2000
  161.7630  209.0550  155.9150 C   0  0  0  0  0  0  0  0  0  0  0  0
  159.8260  207.7200  155.2840 C   0  0  0  0  0  0  0  0  0  0  0  0
  160.4980  209.6420  153.7810 C   0  0  1  0  0  3  0  0  0  0  0  0
  161.4480  209.6460  151.4630 N   0  0  0  0  0  0  0  0  0  0  0  0
  161.1040  207.1480  157.2600 C   0  0  0  0  0  3  0  0  0  0  0  0
  160.0400  206.8980  156.3940 C   0  0  0  0  0  3  0  0  0  0  0  0
  160.8400  207.6160  152.2110 C   0  0  0  0  0  3  0  0  0  0  0  0
  160.6960  208.7970  155.0220 C   0  0  0  0  0  0  0  0  0  0  0  0
  161.6870  208.7770  150.4680 C   0  0  0  0  0  3  0  0  0  0  0  0
  161.9530  208.2310  157.0280 C   0  0  0  0  0  3  0  0  0  0  0  0
  161.1440  211.0360  153.9190 C   0  0  2  0  0  3  0  0  0  0  0  0
  162.6200  210.2840  155.7950 C   0  0  0  0  0  2  0  0  0  0  0  0
  158.7450  207.4600  154.4480 O   0  0  0  0  0  1  0  0  0  0  0  0
  161.7610  211.0710  151.4310 C   0  0  0  0  0  2  0  0  0  0  0  0
  161.1020  211.8230  152.5990 C   0  0  1  0  0  3  0  0  0  0  0  0
  161.3080  207.5240  150.9120 C   0  0  0  0  0  0  0  0  0  0  0  0
  160.9700  208.9600  152.5200 C   0  0  0  0  0  0  0  0  0  0  0  0
  162.5850  210.8990  154.4010 C   0  0  0  0  0  2  0  0  0  0  0  0
  157.4640  212.9210  152.9190 C   0  0  0  0  0  0  0  0  0  0  0  0
  157.1730  213.2630  151.5960 C   0  0  0  0  0  3  0  0  0  0  0  0
  159.7230  212.3140  152.2660 C   0  0  0  0  0  0  0  0  0  0  0  0
  158.1540  213.1350  150.6080 C   0  0  0  0  0  3  0  0  0  0  0  0
  158.7350  212.4490  153.2550 C   0  0  0  0  0  3  0  0  0  0  0  0
  159.4270  212.6640  150.9450 C   0  0  0  0  0  3  0  0  0  0  0  0
  156.5140  213.0490  153.8770 F   0  0  0  0  0  0  0  0  0  0  0  0
  161.4020  206.2670  150.1230 C   0  0  0  0  0  2  0  0  0  0  0  0
  160.5440  206.3450  148.9950 O   0  0  0  0  0  0  0  0  0  0  0  0
  161.1260  203.1870  148.7620 S   0  0  0  0  0  0  0  0  0  0  0  0
  160.7970  205.7350  147.7580 C   0  0  0  0  0  0  0  0  0  0  0  0
  161.2510  204.3230  147.5890 C   0  0  0  0  0  0  0  0  0  0  0  0
  161.6620  204.7010  145.2210 C   0  0  0  0  0  3  0  0  0  0  0  0
  160.8370  205.9580  145.2680 C   0  0  0  0  0  2  0  0  0  0  0  0
  160.6510  206.4920  146.6660 C   0  0  0  0  0  3  0  0  0  0  0  0
  161.8090  203.9180  146.2910 C   0  0  0  0  0  3  0  0  0  0  0  0
  1 10  1  0  0  0  0
  2  6  2  0  0  0  0
  3 17  1  6  0  0  0
  3 11  1  0  0  0  0
  3  8  1  0  0  0  0
  4 17  1  0  0  0  0
  6  5  1  0  0  0  0
  7 17  2  0  0  0  0
  8  2  1  0  0  0  0
  8  1  2  0  0  0  0
  9 16  2  0  0  0  0
  9  4  1  0  0  0  0
 10  5  2  0  0  0  0
 11 18  1  6  0  0  0
 12  1  1  0  0  0  0
 13  2  1  0  0  0  0
 14  4  1  0  0  0  0
 14 15  1  0  0  0  0
 15 21  1  6  0  0  0
 15 11  1  0  0  0  0
 16  7  1  0  0  0  0
 18 12  1  0  0  0  0
 19 23  1  0  0  0  0
 19 25  1  0  0  0  0
 20 19  2  0  0  0  0
 21 23  2  0  0  0  0
 22 24  2  0  0  0  0
 22 20  1  0  0  0  0
 24 21  1  0  0  0  0
 26 16  1  0  0  0  0
 27 26  1  0  0  0  0
 29 27  1  0  0  0  0
 30 29  1  0  0  0  0
 30 28  2  0  0  0  0
 31 32  1  0  0  0  0
 31 34  2  0  0  0  0
 32 33  1  0  0  0  0
 33 29  2  0  0  0  0
 34 30  1  0  0  0  0
M  END
>  <MODEL>
7

>  <REMARK>
 VINA RESULT:      -3.7      2.675      5.479
  Name = 
  4 active torsions:
  status: ('A' for Active; 'I' for Inactive)
    1  A    between atoms: O_3  and  C_13
    2  A    between atoms: O_3  and  C_17
    3  A    between atoms: C_12  and  C_28
    4  A    between atoms: C_17  and  C_29
                            x       y       z     vdW  Elec       q    Type
                         _______ _______ _______ _____ _____    ______ ____

>  <TORSDO>
F 4

$$$$
