=
 OpenBabel11062409483D

 34 40  0  0  1  0  0  0  0  0999 V2000
  160.2420  211.3910  154.0750 C   0  0  2  0  0  0  0  0  0  0  0  0
  157.4380  212.6110  152.2310 C   0  0  0  0  0  3  0  0  0  0  0  0
  158.1290  212.3530  154.6580 N   0  0  0  0  0  0  0  0  0  0  0  0
  160.5200  209.8980  153.8930 C   0  0  2  0  0  3  0  0  0  0  0  0
  161.6500  210.8670  154.2480 C   0  0  0  0  0  2  0  0  0  0  0  0
  159.3010  211.6660  155.2260 C   0  0  2  0  0  3  0  0  0  0  0  0
  157.5830  212.9930  150.9620 C   0  0  0  0  0  3  0  0  0  0  0  0
  158.7910  213.6040  150.3560 C   0  0  0  0  0  0  0  0  0  0  0  0
  160.0520  213.3200  150.7230 C   0  0  0  0  0  3  0  0  0  0  0  0
  158.4930  212.8070  153.2830 C   0  0  1  0  0  3  0  0  0  0  0  0
  160.5060  212.4770  151.8430 C   0  0  0  0  0  3  0  0  0  0  0  0
  159.7760  212.1710  152.9150 C   0  0  0  0  0  0  0  0  0  0  0  0
  162.4360  209.0810  149.5350 C   0  0  0  0  0  2  0  0  0  0  0  0
  161.7830  208.4620  152.3290 C   0  0  1  0  0  3  0  0  0  0  0  0
  160.9130  205.6210  149.1970 C   0  0  0  0  0  0  0  0  0  0  0  0
  161.5040  206.8560  148.8750 C   0  0  0  0  0  3  0  0  0  0  0  0
  161.7830  207.7870  149.8800 C   0  0  0  0  0  0  0  0  0  0  0  0
  160.6660  209.4780  152.4370 C   0  0  2  0  0  3  0  0  0  0  0  0
  160.9010  206.2560  151.5390 C   0  0  0  0  0  3  0  0  0  0  0  0
  161.4830  207.4880  151.2200 C   0  0  0  0  0  0  0  0  0  0  0  0
  160.6170  205.3280  150.5340 C   0  0  0  0  0  3  0  0  0  0  0  0
  162.0090  209.9210  151.8870 C   0  0  2  0  0  3  0  0  0  0  0  0
  161.8420  210.1960  150.3870 C   0  0  0  0  0  2  0  0  0  0  0  0
  160.6280  204.6690  148.2150 O   0  0  0  0  0  0  0  0  0  0  0  0
  160.9720  202.2990  148.3200 C   0  0  0  0  0  1  0  0  0  0  0  0
  161.5330  203.6290  147.8690 C   0  0  0  0  0  2  0  0  0  0  0  0
  158.5990  214.4000  149.1010 C   0  0  0  0  0  3  0  0  0  0  0  0
  159.6990  214.0850  148.0990 C   0  0  0  0  0  2  0  0  0  0  0  0
  158.3240  213.4830  147.9190 C   0  0  0  0  0  2  0  0  0  0  0  0
  159.7960  214.0030  156.2880 C   0  0  0  0  0  1  0  0  0  0  0  0
  159.9380  212.5160  156.2910 C   0  0  0  0  0  0  0  0  0  0  0  0
  160.5660  211.9760  157.1870 O   0  0  0  0  0  0  0  0  0  0  0  0
  157.0470  211.3700  154.6690 C   0  0  0  0  0  2  0  0  0  0  0  0
  156.5500  211.2410  155.9650 O   0  0  0  0  0  1  0  0  0  0  0  0
  1  5  1  1  0  0  0
  1  6  1  0  0  0  0
  3 33  1  0  0  0  0
  3  6  1  0  0  0  0
  4  1  1  0  0  0  0
  4  5  1  1  0  0  0
  6 31  1  1  0  0  0
  7  2  2  0  0  0  0
  8  9  2  0  0  0  0
  8  7  1  0  0  0  0
  9 11  1  0  0  0  0
 10  2  1  6  0  0  0
 10  3  1  0  0  0  0
 11 12  2  0  0  0  0
 12 10  1  0  0  0  0
 12  1  1  0  0  0  0
 13 17  1  0  0  0  0
 13 23  1  0  0  0  0
 14 20  1  6  0  0  0
 14 18  1  0  0  0  0
 15 21  1  0  0  0  0
 16 15  2  0  0  0  0
 16 17  1  0  0  0  0
 17 20  2  0  0  0  0
 18  4  1  1  0  0  0
 20 19  1  0  0  0  0
 21 19  2  0  0  0  0
 22 23  1  6  0  0  0
 22 14  1  0  0  0  0
 22 18  1  0  0  0  0
 24 15  1  0  0  0  0
 26 24  1  0  0  0  0
 26 25  1  0  0  0  0
 27  8  1  0  0  0  0
 28 27  1  0  0  0  0
 29 28  1  0  0  0  0
 29 27  1  0  0  0  0
 30 31  1  0  0  0  0
 31 32  2  0  0  0  0
 33 34  1  0  0  0  0
M  END
>  <MODEL>
1

>  <REMARK>
 VINA RESULT:      -6.6      0.000      0.000
  Name = 
  6 active torsions:
  status: ('A' for Active; 'I' for Inactive)
    1  A    between atoms: C_3  and  C_25
    2  A    between atoms: N_5  and  C_19
    3  A    between atoms: C_7  and  O_11
    4  A    between atoms: C_8  and  C_18
    5  A    between atoms: O_11  and  C_21
    6  A    between atoms: C_12  and  C_20
                            x       y       z     vdW  Elec       q    Type
                         _______ _______ _______ _____ _____    ______ ____

>  <TORSDO>
F 6

$$$$
=
 OpenBabel11062409483D

 34 40  0  0  1  0  0  0  0  0999 V2000
  160.6560  209.8820  154.4190 C   0  0  2  0  0  0  0  0  0  0  0  0
  158.3750  211.8850  152.5400 C   0  0  0  0  0  3  0  0  0  0  0  0
  158.8430  211.3430  154.9730 N   0  0  0  0  0  0  0  0  0  0  0  0
  160.5400  208.3780  154.1620 C   0  0  2  0  0  3  0  0  0  0  0  0
  161.8650  208.9940  154.6160 C   0  0  0  0  0  2  0  0  0  0  0  0
  159.7610  210.3440  155.5460 C   0  0  2  0  0  3  0  0  0  0  0  0
  158.6830  212.2720  151.3020 C   0  0  0  0  0  3  0  0  0  0  0  0
  160.0390  212.5680  150.7810 C   0  0  0  0  0  0  0  0  0  0  0  0
  161.1600  211.9420  151.1800 C   0  0  0  0  0  3  0  0  0  0  0  0
  159.3870  211.7460  153.6420 C   0  0  1  0  0  3  0  0  0  0  0  0
  161.3160  210.9590  152.2660 C   0  0  0  0  0  3  0  0  0  0  0  0
  160.4750  210.8090  153.2880 C   0  0  0  0  0  0  0  0  0  0  0  0
  162.3340  207.7160  149.7250 C   0  0  0  0  0  2  0  0  0  0  0  0
  161.7770  207.0080  152.5200 C   0  0  1  0  0  3  0  0  0  0  0  0
  160.8580  204.2410  149.3370 C   0  0  0  0  0  0  0  0  0  0  0  0
  161.4180  205.4940  149.0320 C   0  0  0  0  0  3  0  0  0  0  0  0
  161.7130  206.4020  150.0530 C   0  0  0  0  0  0  0  0  0  0  0  0
  160.6480  208.0010  152.6910 C   0  0  2  0  0  3  0  0  0  0  0  0
  160.9080  204.8100  151.6940 C   0  0  0  0  0  3  0  0  0  0  0  0
  161.4600  206.0600  151.3930 C   0  0  0  0  0  0  0  0  0  0  0  0
  160.6080  203.9060  150.6720 C   0  0  0  0  0  3  0  0  0  0  0  0
  161.9660  208.4820  152.1130 C   0  0  2  0  0  3  0  0  0  0  0  0
  161.7480  208.7960  150.6260 C   0  0  0  0  0  2  0  0  0  0  0  0
  160.5580  203.3110  148.3360 O   0  0  0  0  0  0  0  0  0  0  0  0
  161.2710  201.0530  148.7020 C   0  0  0  0  0  1  0  0  0  0  0  0
  160.0940  201.9990  148.6230 C   0  0  0  0  0  2  0  0  0  0  0  0
  160.1320  213.4430  149.5670 C   0  0  0  0  0  3  0  0  0  0  0  0
  161.2250  212.9450  148.6360 C   0  0  0  0  0  2  0  0  0  0  0  0
  159.7760  212.6600  148.3120 C   0  0  0  0  0  2  0  0  0  0  0  0
  160.3030  212.3480  157.1340 C   0  0  0  0  0  1  0  0  0  0  0  0
  160.5420  210.9440  156.6820 C   0  0  0  0  0  0  0  0  0  0  0  0
  161.3710  210.2610  157.2610 O   0  0  0  0  0  0  0  0  0  0  0  0
  157.5410  210.6830  154.8840 C   0  0  0  0  0  2  0  0  0  0  0  0
  156.5560  211.5310  155.3880 O   0  0  0  0  0  1  0  0  0  0  0  0
  1  5  1  1  0  0  0
  1  6  1  0  0  0  0
  3  6  1  0  0  0  0
  4  1  1  0  0  0  0
  4  5  1  1  0  0  0
  6 31  1  1  0  0  0
  7  2  2  0  0  0  0
  8  9  2  0  0  0  0
  8  7  1  0  0  0  0
  9 11  1  0  0  0  0
 10  2  1  6  0  0  0
 10  3  1  0  0  0  0
 11 12  2  0  0  0  0
 12 10  1  0  0  0  0
 12  1  1  0  0  0  0
 13 17  1  0  0  0  0
 13 23  1  0  0  0  0
 14 20  1  6  0  0  0
 14 18  1  0  0  0  0
 15 21  1  0  0  0  0
 16 15  2  0  0  0  0
 16 17  1  0  0  0  0
 17 20  2  0  0  0  0
 18  4  1  1  0  0  0
 20 19  1  0  0  0  0
 21 19  2  0  0  0  0
 22 23  1  6  0  0  0
 22 14  1  0  0  0  0
 22 18  1  0  0  0  0
 24 26  1  0  0  0  0
 24 15  1  0  0  0  0
 26 25  1  0  0  0  0
 27  8  1  0  0  0  0
 28 27  1  0  0  0  0
 29 28  1  0  0  0  0
 29 27  1  0  0  0  0
 31 30  1  0  0  0  0
 31 32  2  0  0  0  0
 33  3  1  0  0  0  0
 33 34  1  0  0  0  0
M  END
>  <MODEL>
2

>  <REMARK>
 VINA RESULT:      -4.7      1.267      1.560
  Name = 
  6 active torsions:
  status: ('A' for Active; 'I' for Inactive)
    1  A    between atoms: C_3  and  C_25
    2  A    between atoms: N_5  and  C_19
    3  A    between atoms: C_7  and  O_11
    4  A    between atoms: C_8  and  C_18
    5  A    between atoms: O_11  and  C_21
    6  A    between atoms: C_12  and  C_20
                            x       y       z     vdW  Elec       q    Type
                         _______ _______ _______ _____ _____    ______ ____

>  <TORSDO>
F 6

$$$$
=
 OpenBabel11062409483D

 34 40  0  0  1  0  0  0  0  0999 V2000
  161.1670  210.3670  154.9750 C   0  0  2  0  0  0  0  0  0  0  0  0
  159.8830  211.3130  151.7810 C   0  0  0  0  0  3  0  0  0  0  0  0
  159.5190  211.9280  154.2150 N   0  0  0  0  0  0  0  0  0  0  0  0
  160.9030  208.9100  155.3600 C   0  0  2  0  0  3  0  0  0  0  0  0
  162.1120  209.6600  155.9220 C   0  0  0  0  0  2  0  0  0  0  0  0
  160.0610  211.2920  155.4280 C   0  0  2  0  0  3  0  0  0  0  0  0
  160.5990  211.0970  150.6780 C   0  0  0  0  0  3  0  0  0  0  0  0
  162.0770  211.1200  150.5670 C   0  0  0  0  0  0  0  0  0  0  0  0
  162.9190  210.7380  151.5420 C   0  0  0  0  0  3  0  0  0  0  0  0
  160.4880  211.6830  153.1060 C   0  0  1  0  0  3  0  0  0  0  0  0
  162.5930  210.3520  152.9260 C   0  0  0  0  0  3  0  0  0  0  0  0
  161.4740  210.6830  153.5700 C   0  0  0  0  0  0  0  0  0  0  0  0
  161.2530  204.9040  152.6820 C   0  0  0  0  0  2  0  0  0  0  0  0
  160.2240  207.5570  153.4070 C   0  0  1  0  0  3  0  0  0  0  0  0
  161.6570  206.7830  149.4100 C   0  0  0  0  0  0  0  0  0  0  0  0
  161.6930  205.7610  150.3730 C   0  0  0  0  0  3  0  0  0  0  0  0
  161.2390  206.0010  151.6740 C   0  0  0  0  0  0  0  0  0  0  0  0
  161.3820  207.9080  154.3180 C   0  0  2  0  0  3  0  0  0  0  0  0
  160.6930  208.2810  151.0570 C   0  0  0  0  0  3  0  0  0  0  0  0
  160.7340  207.2660  152.0200 C   0  0  0  0  0  0  0  0  0  0  0  0
  161.1530  208.0410  149.7590 C   0  0  0  0  0  3  0  0  0  0  0  0
  160.6830  206.5740  154.5010 C   0  0  2  0  0  3  0  0  0  0  0  0
  161.6420  205.4670  154.0430 C   0  0  0  0  0  2  0  0  0  0  0  0
  162.0990  206.5690  148.1000 O   0  0  0  0  0  0  0  0  0  0  0  0
  162.6400  204.8170  146.5580 C   0  0  0  0  0  1  0  0  0  0  0  0
  161.5340  205.5790  147.2530 C   0  0  0  0  0  2  0  0  0  0  0  0
  162.6590  211.3510  149.2050 C   0  0  0  0  0  3  0  0  0  0  0  0
  161.5620  211.3480  148.1520 C   0  0  0  0  0  2  0  0  0  0  0  0
  162.1500  212.6600  148.6190 C   0  0  0  0  0  2  0  0  0  0  0  0
  160.0510  213.7440  156.3330 C   0  0  0  0  0  1  0  0  0  0  0  0
  160.5530  212.3380  156.3900 C   0  0  0  0  0  0  0  0  0  0  0  0
  161.3620  212.0250  157.2480 O   0  0  0  0  0  0  0  0  0  0  0  0
  158.2170  211.3040  153.9860 C   0  0  0  0  0  2  0  0  0  0  0  0
  157.2060  212.2040  154.3200 O   0  0  0  0  0  1  0  0  0  0  0  0
  1  4  1  0  0  0  0
  1  6  1  0  0  0  0
  1  5  1  1  0  0  0
  3  6  1  0  0  0  0
  4  5  1  1  0  0  0
  6 31  1  1  0  0  0
  7  2  2  0  0  0  0
  8  7  1  0  0  0  0
  8  9  2  0  0  0  0
  9 11  1  0  0  0  0
 10  2  1  6  0  0  0
 10 12  1  0  0  0  0
 10  3  1  0  0  0  0
 11 12  2  0  0  0  0
 12  1  1  0  0  0  0
 13 23  1  0  0  0  0
 14 20  1  6  0  0  0
 14 18  1  0  0  0  0
 14 22  1  0  0  0  0
 15 21  2  0  0  0  0
 15 16  1  0  0  0  0
 16 17  2  0  0  0  0
 17 20  1  0  0  0  0
 17 13  1  0  0  0  0
 18 22  1  0  0  0  0
 18  4  1  1  0  0  0
 19 20  2  0  0  0  0
 21 19  1  0  0  0  0
 22 23  1  6  0  0  0
 24 15  1  0  0  0  0
 25 26  1  0  0  0  0
 26 24  1  0  0  0  0
 27  8  1  0  0  0  0
 28 29  1  0  0  0  0
 28 27  1  0  0  0  0
 29 27  1  0  0  0  0
 30 31  1  0  0  0  0
 31 32  2  0  0  0  0
 33  3  1  0  0  0  0
 33 34  1  0  0  0  0
M  END
>  <MODEL>
3

>  <REMARK>
 VINA RESULT:      -4.2      1.917      2.924
  Name = 
  6 active torsions:
  status: ('A' for Active; 'I' for Inactive)
    1  A    between atoms: C_3  and  C_25
    2  A    between atoms: N_5  and  C_19
    3  A    between atoms: C_7  and  O_11
    4  A    between atoms: C_8  and  C_18
    5  A    between atoms: O_11  and  C_21
    6  A    between atoms: C_12  and  C_20
                            x       y       z     vdW  Elec       q    Type
                         _______ _______ _______ _____ _____    ______ ____

>  <TORSDO>
F 6

$$$$
