=
 OpenBabel11062408223D

 32 37  0  0  1  0  0  0  0  0999 V2000
  161.1920  206.2480  151.2710 C   0  0  0  0  0  0  0  0  0  0  0  0
  161.1570  204.5040  149.5330 N   0  0  0  0  0  0  0  0  0  0  0  0
  161.1260  206.5980  152.6280 C   0  0  0  0  0  3  0  0  0  0  0  0
  161.1880  204.8840  150.9170 C   0  0  0  0  0  0  0  0  0  0  0  0
  161.0840  203.1120  149.1650 C   0  0  0  0  0  0  0  0  0  0  0  0
  162.1810  205.7660  145.0140 C   0  0  0  0  0  3  0  0  0  0  0  0
  161.2930  205.5310  148.5350 C   0  0  0  0  0  0  0  0  0  0  0  0
  161.9350  203.3900  145.5910 C   0  0  0  0  0  3  0  0  0  0  0  0
  161.1180  203.7820  146.7900 C   0  0  0  0  0  0  0  0  0  0  0  0
  161.2270  203.8950  151.9180 C   0  0  0  0  0  0  0  0  0  0  0  0
  161.1140  202.7520  147.8810 C   0  0  0  0  0  3  0  0  0  0  0  0
  161.4720  202.4600  151.5550 C   0  0  0  0  0  2  0  0  0  0  0  0
  161.1920  204.2650  153.2640 C   0  0  0  0  0  3  0  0  0  0  0  0
  161.3580  206.9030  148.9460 N   0  0  0  0  0  0  0  0  0  0  0  0
  161.2930  207.2780  150.1930 C   0  0  0  0  0  0  0  0  0  0  0  0
  161.3970  205.1970  147.2430 C   0  0  0  0  0  0  0  0  0  0  0  0
  160.8450  202.0670  150.2160 C   0  0  1  0  0  3  0  0  0  0  0  0
  161.1160  205.6140  153.6180 C   0  0  0  0  0  3  0  0  0  0  0  0
  162.3830  204.3240  144.7420 C   0  0  0  0  0  3  0  0  0  0  0  0
  161.7280  206.1870  146.2000 C   0  0  0  0  0  2  0  0  0  0  0  0
  162.0470  210.9900  149.8870 C   0  0  0  0  0  0  0  0  0  0  0  0
  162.5940  211.8570  149.0010 F   0  0  0  0  0  0  0  0  0  0  0  0
  161.3720  208.7300  150.4920 C   0  0  0  0  0  0  0  0  0  0  0  0
  161.5790  211.4620  151.1140 C   0  0  0  0  0  3  0  0  0  0  0  0
  160.9150  209.2200  151.7250 C   0  0  0  0  0  3  0  0  0  0  0  0
  161.9510  209.6300  149.5740 C   0  0  0  0  0  0  0  0  0  0  0  0
  162.3990  209.1960  148.3680 F   0  0  0  0  0  0  0  0  0  0  0  0
  161.0100  210.5780  152.0420 C   0  0  0  0  0  0  0  0  0  0  0  0
  161.2080  210.7510  154.5010 C   0  0  0  0  0  1  0  0  0  0  0  0
  160.5340  211.0190  153.2790 O   0  0  0  0  0  0  0  0  0  0  0  0
  159.4720  201.8730  150.3800 O   0  0  0  0  0  0  0  0  0  0  0  0
  159.1530  200.9720  149.4740 O   0  0  0  0  0  1  0  0  0  0  0  0
  1  3  2  0  0  0  0
  2  4  1  0  0  0  0
  3 18  1  0  0  0  0
  4  1  1  0  0  0  0
  4 10  2  0  0  0  0
  5  2  1  0  0  0  0
  5 17  1  0  0  0  0
  6 20  1  0  0  0  0
  7 14  1  0  0  0  0
  7  2  1  0  0  0  0
  8  9  2  0  0  0  0
  9 16  1  0  0  0  0
  9 11  1  0  0  0  0
 10 13  1  0  0  0  0
 11  5  2  0  0  0  0
 12 10  1  0  0  0  0
 13 18  2  0  0  0  0
 14 15  2  0  0  0  0
 15 23  1  0  0  0  0
 15  1  1  0  0  0  0
 16  7  2  0  0  0  0
 17 31  1  1  0  0  0
 17 12  1  0  0  0  0
 19  6  2  0  0  0  0
 19  8  1  0  0  0  0
 20 16  1  0  0  0  0
 21 24  1  0  0  0  0
 22 21  1  0  0  0  0
 23 25  2  0  0  0  0
 24 28  2  0  0  0  0
 25 28  1  0  0  0  0
 26 21  2  0  0  0  0
 26 23  1  0  0  0  0
 27 26  1  0  0  0  0
 28 30  1  0  0  0  0
 30 29  1  0  0  0  0
 32 31  1  0  0  0  0
M  END
>  <MODEL>
1

>  <REMARK>
 VINA RESULT:      -8.7      0.000      0.000
  Name = 
  3 active torsions:
  status: ('A' for Active; 'I' for Inactive)
    1  A    between atoms: O_13  and  C_29
    2  A    between atoms: O_15  and  C_26
    3  A    between atoms: C_16  and  C_27
                            x       y       z     vdW  Elec       q    Type
                         _______ _______ _______ _____ _____    ______ ____

>  <TORSDO>
F 3

$$$$
=
 OpenBabel11062408223D

 32 37  0  0  1  0  0  0  0  0999 V2000
  161.3270  207.4200  150.2920 C   0  0  0  0  0  0  0  0  0  0  0  0
  161.0180  208.8830  152.2470 N   0  0  0  0  0  0  0  0  0  0  0  0
  161.5990  207.2800  148.9230 C   0  0  0  0  0  3  0  0  0  0  0  0
  161.3870  208.7030  150.8720 C   0  0  0  0  0  0  0  0  0  0  0  0
  161.0110  210.2030  152.8290 C   0  0  0  0  0  0  0  0  0  0  0  0
  160.5910  206.8480  156.5760 C   0  0  0  0  0  3  0  0  0  0  0  0
  160.7490  207.7180  153.0460 C   0  0  0  0  0  0  0  0  0  0  0  0
  160.7990  209.2890  156.3910 C   0  0  0  0  0  3  0  0  0  0  0  0
  160.3050  209.2090  154.9740 C   0  0  1  0  0  3  0  0  0  0  0  0
  161.8180  209.8040  150.1080 C   0  0  0  0  0  0  0  0  0  0  0  0
  160.7260  210.3690  154.1220 C   0  0  0  0  0  3  0  0  0  0  0  0
  162.1220  211.1140  150.7730 C   0  0  0  0  0  2  0  0  0  0  0  0
  162.1140  209.6380  148.7540 C   0  0  0  0  0  3  0  0  0  0  0  0
  160.7630  206.4250  152.4260 N   0  0  0  0  0  0  0  0  0  0  0  0
  161.0020  206.2450  151.1570 C   0  0  0  0  0  0  0  0  0  0  0  0
  160.5300  207.8450  154.3610 C   0  0  0  0  0  0  0  0  0  0  0  0
  161.1990  211.4100  151.9570 C   0  0  1  0  0  3  0  0  0  0  0  0
  161.9810  208.3820  148.1560 C   0  0  0  0  0  3  0  0  0  0  0  0
  160.8790  208.1850  157.1440 C   0  0  0  0  0  3  0  0  0  0  0  0
  160.4380  206.6780  155.2570 C   0  0  0  0  0  3  0  0  0  0  0  0
  160.9470  202.4490  150.9940 C   0  0  0  0  0  0  0  0  0  0  0  0
  160.8760  201.3860  151.8320 F   0  0  0  0  0  0  0  0  0  0  0  0
  160.9890  204.8570  150.6320 C   0  0  0  0  0  0  0  0  0  0  0  0
  161.0420  202.2380  149.6170 C   0  0  0  0  0  3  0  0  0  0  0  0
  161.0930  204.6260  149.2520 C   0  0  0  0  0  3  0  0  0  0  0  0
  160.9250  203.7520  151.5050 C   0  0  0  0  0  0  0  0  0  0  0  0
  160.8170  203.9330  152.8460 F   0  0  0  0  0  0  0  0  0  0  0  0
  161.1160  203.3260  148.7380 C   0  0  0  0  0  0  0  0  0  0  0  0
  161.6720  204.1680  146.4790 C   0  0  0  0  0  1  0  0  0  0  0  0
  161.2140  203.1470  147.3550 O   0  0  0  0  0  0  0  0  0  0  0  0
  159.9580  211.8460  151.4870 O   0  0  0  0  0  0  0  0  0  0  0  0
  159.8610  213.0900  151.9080 O   0  0  0  0  0  1  0  0  0  0  0  0
  1  4  2  0  0  0  0
  1 15  1  0  0  0  0
  2  5  1  0  0  0  0
  2  7  1  0  0  0  0
  3  1  1  0  0  0  0
  4  2  1  0  0  0  0
  5 11  2  0  0  0  0
  6 19  1  0  0  0  0
  7 16  2  0  0  0  0
  8 19  2  0  0  0  0
  9 11  1  6  0  0  0
  9  8  1  0  0  0  0
 10 12  1  0  0  0  0
 10  4  1  0  0  0  0
 12 17  1  0  0  0  0
 13 10  2  0  0  0  0
 14  7  1  0  0  0  0
 15 14  2  0  0  0  0
 16  9  1  0  0  0  0
 16 20  1  0  0  0  0
 17 31  1  6  0  0  0
 17  5  1  0  0  0  0
 18 13  1  0  0  0  0
 18  3  2  0  0  0  0
 20  6  2  0  0  0  0
 21 26  1  0  0  0  0
 21 22  1  0  0  0  0
 23 15  1  0  0  0  0
 23 26  2  0  0  0  0
 24 21  2  0  0  0  0
 25 23  1  0  0  0  0
 26 27  1  0  0  0  0
 28 25  2  0  0  0  0
 28 24  1  0  0  0  0
 29 30  1  0  0  0  0
 30 28  1  0  0  0  0
 31 32  1  0  0  0  0
M  END
>  <MODEL>
2

>  <REMARK>
 VINA RESULT:      -8.6      2.704      8.276
  Name = 
  3 active torsions:
  status: ('A' for Active; 'I' for Inactive)
    1  A    between atoms: O_13  and  C_29
    2  A    between atoms: O_15  and  C_26
    3  A    between atoms: C_16  and  C_27
                            x       y       z     vdW  Elec       q    Type
                         _______ _______ _______ _____ _____    ______ ____

>  <TORSDO>
F 3

$$$$
=
 OpenBabel11062408223D

 32 37  0  0  1  0  0  0  0  0999 V2000
  161.3980  206.7230  151.2250 C   0  0  0  0  0  0  0  0  0  0  0  0
  161.4080  209.1750  151.4430 N   0  0  0  0  0  0  0  0  0  0  0  0
  161.3510  205.4590  151.8330 C   0  0  0  0  0  3  0  0  0  0  0  0
  161.2660  207.8720  152.0290 C   0  0  0  0  0  0  0  0  0  0  0  0
  161.3410  210.3530  152.2710 C   0  0  0  0  0  0  0  0  0  0  0  0
  161.0870  211.8220  147.4480 C   0  0  0  0  0  3  0  0  0  0  0  0
  161.5230  209.2770  150.0130 C   0  0  0  0  0  0  0  0  0  0  0  0
  160.9530  212.9110  149.6470 C   0  0  0  0  0  3  0  0  0  0  0  0
  161.6700  211.7380  150.2540 C   0  0  0  0  0  0  0  0  0  0  0  0
  160.9830  207.7450  153.4020 C   0  0  0  0  0  0  0  0  0  0  0  0
  161.4130  211.5680  151.7230 C   0  0  0  0  0  3  0  0  0  0  0  0
  160.5970  208.9490  154.2100 C   0  0  0  0  0  2  0  0  0  0  0  0
  160.9100  206.4770  153.9820 C   0  0  0  0  0  3  0  0  0  0  0  0
  161.5890  208.0790  149.2280 N   0  0  0  0  0  0  0  0  0  0  0  0
  161.5580  206.8830  149.7470 C   0  0  0  0  0  0  0  0  0  0  0  0
  161.5260  210.4810  149.4270 C   0  0  0  0  0  0  0  0  0  0  0  0
  161.3190  210.2220  153.7660 C   0  0  1  0  0  3  0  0  0  0  0  0
  161.1180  205.3370  153.2040 C   0  0  0  0  0  3  0  0  0  0  0  0
  160.7320  212.9600  148.3270 C   0  0  0  0  0  3  0  0  0  0  0  0
  161.4500  210.6410  147.9630 C   0  0  0  0  0  2  0  0  0  0  0  0
  162.1680  204.7580  146.6570 C   0  0  0  0  0  0  0  0  0  0  0  0
  162.6600  204.8890  145.4010 F   0  0  0  0  0  0  0  0  0  0  0  0
  161.6330  205.7190  148.8300 C   0  0  0  0  0  0  0  0  0  0  0  0
  161.6960  203.5160  147.0870 C   0  0  0  0  0  3  0  0  0  0  0  0
  161.1540  204.4660  149.2420 C   0  0  0  0  0  3  0  0  0  0  0  0
  162.1350  205.8590  147.5200 C   0  0  0  0  0  0  0  0  0  0  0  0
  162.6140  207.0530  147.0850 F   0  0  0  0  0  0  0  0  0  0  0  0
  161.1850  203.3640  148.3830 C   0  0  0  0  0  0  0  0  0  0  0  0
  161.2540  200.8920  148.4290 C   0  0  0  0  0  1  0  0  0  0  0  0
  160.7030  202.1350  148.8420 O   0  0  0  0  0  0  0  0  0  0  0  0
  162.6260  210.2160  154.2550 O   0  0  0  0  0  0  0  0  0  0  0  0
  162.5480  210.8170  155.4240 O   0  0  0  0  0  1  0  0  0  0  0  0
  1  3  2  0  0  0  0
  1  4  1  0  0  0  0
  2  4  1  0  0  0  0
  2  5  1  0  0  0  0
  3 18  1  0  0  0  0
  4 10  2  0  0  0  0
  5 17  1  0  0  0  0
  6 20  1  0  0  0  0
  6 19  2  0  0  0  0
  7  2  1  0  0  0  0
  8  9  2  0  0  0  0
  9 11  1  0  0  0  0
 10 13  1  0  0  0  0
 10 12  1  0  0  0  0
 11  5  2  0  0  0  0
 14 15  2  0  0  0  0
 14  7  1  0  0  0  0
 15  1  1  0  0  0  0
 16  7  2  0  0  0  0
 16  9  1  0  0  0  0
 17 12  1  0  0  0  0
 17 31  1  6  0  0  0
 18 13  2  0  0  0  0
 19  8  1  0  0  0  0
 20 16  1  0  0  0  0
 21 24  2  0  0  0  0
 21 26  1  0  0  0  0
 22 21  1  0  0  0  0
 23 25  1  0  0  0  0
 23 15  1  0  0  0  0
 24 28  1  0  0  0  0
 26 23  2  0  0  0  0
 27 26  1  0  0  0  0
 28 30  1  0  0  0  0
 28 25  2  0  0  0  0
 29 30  1  0  0  0  0
 31 32  1  0  0  0  0
M  END
>  <MODEL>
3

>  <REMARK>
 VINA RESULT:      -8.4      1.874      6.911
  Name = 
  3 active torsions:
  status: ('A' for Active; 'I' for Inactive)
    1  A    between atoms: O_13  and  C_29
    2  A    between atoms: O_15  and  C_26
    3  A    between atoms: C_16  and  C_27
                            x       y       z     vdW  Elec       q    Type
                         _______ _______ _______ _____ _____    ______ ____

>  <TORSDO>
F 3

$$$$
=
 OpenBabel11062408223D

 32 37  0  0  1  0  0  0  0  0999 V2000
  161.5400  207.5770  150.4990 C   0  0  0  0  0  0  0  0  0  0  0  0
  161.4640  205.4730  149.2230 N   0  0  0  0  0  0  0  0  0  0  0  0
  161.7230  208.9680  150.5200 C   0  0  0  0  0  3  0  0  0  0  0  0
  161.5530  206.9050  149.2600 C   0  0  0  0  0  0  0  0  0  0  0  0
  161.5460  204.7740  147.9640 C   0  0  0  0  0  0  0  0  0  0  0  0
  159.9750  201.4960  151.4660 C   0  0  0  0  0  3  0  0  0  0  0  0
  161.2010  204.7680  150.4480 C   0  0  0  0  0  0  0  0  0  0  0  0
  160.3490  201.4590  149.0380 C   0  0  0  0  0  3  0  0  0  0  0  0
  161.2640  202.6430  149.1770 C   0  0  1  0  0  3  0  0  0  0  0  0
  161.6410  207.6370  148.0610 C   0  0  0  0  0  0  0  0  0  0  0  0
  161.4050  203.4480  147.9190 C   0  0  0  0  0  3  0  0  0  0  0  0
  161.4080  206.9600  146.7420 C   0  0  0  0  0  2  0  0  0  0  0  0
  161.7930  209.0240  148.1020 C   0  0  0  0  0  3  0  0  0  0  0  0
  161.1320  205.5020  151.6790 N   0  0  0  0  0  0  0  0  0  0  0  0
  161.3030  206.7930  151.7490 C   0  0  0  0  0  0  0  0  0  0  0  0
  160.9850  203.4470  150.4270 C   0  0  0  0  0  0  0  0  0  0  0  0
  161.9170  205.5170  146.7140 C   0  0  1  0  0  3  0  0  0  0  0  0
  161.8580  209.6860  149.3300 C   0  0  0  0  0  3  0  0  0  0  0  0
  159.7940  200.9020  150.1220 C   0  0  0  0  0  3  0  0  0  0  0  0
  160.5250  202.7070  151.6170 C   0  0  0  0  0  3  0  0  0  0  0  0
  160.8320  207.3100  155.4840 C   0  0  0  0  0  0  0  0  0  0  0  0
  160.5980  206.5790  156.6010 F   0  0  0  0  0  0  0  0  0  0  0  0
  161.2070  207.4400  153.0810 C   0  0  0  0  0  0  0  0  0  0  0  0
  160.9530  208.6970  155.5810 C   0  0  0  0  0  3  0  0  0  0  0  0
  161.3170  208.8340  153.1960 C   0  0  0  0  0  3  0  0  0  0  0  0
  160.9530  206.6790  154.2410 C   0  0  0  0  0  0  0  0  0  0  0  0
  160.8460  205.3270  154.1730 F   0  0  0  0  0  0  0  0  0  0  0  0
  161.1960  209.4680  154.4360 C   0  0  0  0  0  0  0  0  0  0  0  0
  160.3020  211.7420  154.0520 C   0  0  0  0  0  1  0  0  0  0  0  0
  161.3210  210.8580  154.5000 O   0  0  0  0  0  0  0  0  0  0  0  0
  163.3050  205.5120  146.5600 O   0  0  0  0  0  0  0  0  0  0  0  0
  163.5290  204.6530  145.5880 O   0  0  0  0  0  1  0  0  0  0  0  0
  1  3  1  0  0  0  0
  1 15  1  0  0  0  0
  2  4  1  0  0  0  0
  2  7  1  0  0  0  0
  4  1  2  0  0  0  0
  5  2  1  0  0  0  0
  6 20  2  0  0  0  0
  7 14  1  0  0  0  0
  8  9  1  0  0  0  0
  8 19  2  0  0  0  0
  9 11  1  6  0  0  0
  9 16  1  0  0  0  0
 10 13  2  0  0  0  0
 10  4  1  0  0  0  0
 11  5  2  0  0  0  0
 12 10  1  0  0  0  0
 13 18  1  0  0  0  0
 14 15  2  0  0  0  0
 15 23  1  0  0  0  0
 16  7  2  0  0  0  0
 16 20  1  0  0  0  0
 17 31  1  1  0  0  0
 17 12  1  0  0  0  0
 17  5  1  0  0  0  0
 18  3  2  0  0  0  0
 19  6  1  0  0  0  0
 21 24  1  0  0  0  0
 21 22  1  0  0  0  0
 23 25  2  0  0  0  0
 23 26  1  0  0  0  0
 25 28  1  0  0  0  0
 26 21  2  0  0  0  0
 27 26  1  0  0  0  0
 28 30  1  0  0  0  0
 28 24  2  0  0  0  0
 29 30  1  0  0  0  0
 32 31  1  0  0  0  0
M  END
>  <MODEL>
4

>  <REMARK>
 VINA RESULT:      -8.3      2.908      4.930
  Name = 
  3 active torsions:
  status: ('A' for Active; 'I' for Inactive)
    1  A    between atoms: O_13  and  C_29
    2  A    between atoms: O_15  and  C_26
    3  A    between atoms: C_16  and  C_27
                            x       y       z     vdW  Elec       q    Type
                         _______ _______ _______ _____ _____    ______ ____

>  <TORSDO>
F 3

$$$$
=
 OpenBabel11062408223D

 32 37  0  0  1  0  0  0  0  0999 V2000
  161.4780  208.3750  149.6570 C   0  0  0  0  0  0  0  0  0  0  0  0
  161.2430  207.1920  151.8030 N   0  0  0  0  0  0  0  0  0  0  0  0
  161.5810  208.3250  148.2590 C   0  0  0  0  0  3  0  0  0  0  0  0
  161.2550  207.1790  150.3680 C   0  0  0  0  0  0  0  0  0  0  0  0
  161.0830  205.9620  152.5380 C   0  0  0  0  0  0  0  0  0  0  0  0
  160.5200  209.7950  155.7750 C   0  0  0  0  0  3  0  0  0  0  0  0
  161.3000  208.4600  152.4800 C   0  0  0  0  0  0  0  0  0  0  0  0
  160.3480  207.3450  155.8730 C   0  0  0  0  0  3  0  0  0  0  0  0
  161.2010  207.2510  154.6400 C   0  0  0  0  0  0  0  0  0  0  0  0
  161.0320  205.9750  149.6730 C   0  0  0  0  0  0  0  0  0  0  0  0
  161.0120  205.9770  153.8710 C   0  0  0  0  0  3  0  0  0  0  0  0
  160.5510  204.7560  150.4050 C   0  0  0  0  0  2  0  0  0  0  0  0
  161.1090  205.9520  148.2790 C   0  0  0  0  0  3  0  0  0  0  0  0
  161.4630  209.6590  151.7100 N   0  0  0  0  0  0  0  0  0  0  0  0
  161.5710  209.6620  150.4110 C   0  0  0  0  0  0  0  0  0  0  0  0
  161.1600  208.5150  153.8100 C   0  0  0  0  0  0  0  0  0  0  0  0
  161.1230  204.6450  151.8190 C   0  0  1  0  0  3  0  0  0  0  0  0
  161.4070  207.1200  147.5740 C   0  0  0  0  0  3  0  0  0  0  0  0
  160.0800  208.5370  156.4220 C   0  0  0  0  0  3  0  0  0  0  0  0
  161.0200  209.7930  154.5330 C   0  0  0  0  0  2  0  0  0  0  0  0
  161.2070  213.3360  149.5100 C   0  0  0  0  0  0  0  0  0  0  0  0
  160.5720  214.4460  149.9590 F   0  0  0  0  0  0  0  0  0  0  0  0
  161.7360  210.9680  149.7250 C   0  0  0  0  0  0  0  0  0  0  0  0
  162.0040  213.4130  148.3660 C   0  0  0  0  0  3  0  0  0  0  0  0
  162.5250  211.0620  148.5690 C   0  0  0  0  0  3  0  0  0  0  0  0
  161.0670  212.1200  150.1880 C   0  0  0  0  0  0  0  0  0  0  0  0
  160.2980  212.0730  151.3070 F   0  0  0  0  0  0  0  0  0  0  0  0
  162.6670  212.2740  147.8880 C   0  0  0  0  0  0  0  0  0  0  0  0
  163.0900  213.0140  145.5660 C   0  0  0  0  0  1  0  0  0  0  0  0
  163.4700  212.3190  146.7450 O   0  0  0  0  0  0  0  0  0  0  0  0
  162.4400  204.1850  151.7580 O   0  0  0  0  0  0  0  0  0  0  0  0
  162.3320  202.8790  151.6360 O   0  0  0  0  0  1  0  0  0  0  0  0
  1  4  2  0  0  0  0
  1 15  1  0  0  0  0
  2  7  1  0  0  0  0
  2  5  1  0  0  0  0
  3  1  1  0  0  0  0
  4  2  1  0  0  0  0
  5 11  2  0  0  0  0
  6 19  2  0  0  0  0
  7 16  2  0  0  0  0
  8 19  1  0  0  0  0
  9  8  2  0  0  0  0
 10  4  1  0  0  0  0
 10 12  1  0  0  0  0
 11  9  1  0  0  0  0
 12 17  1  0  0  0  0
 13 10  2  0  0  0  0
 14  7  1  0  0  0  0
 15 14  2  0  0  0  0
 16 20  1  0  0  0  0
 16  9  1  0  0  0  0
 17 31  1  6  0  0  0
 17  5  1  0  0  0  0
 18  3  2  0  0  0  0
 18 13  1  0  0  0  0
 20  6  1  0  0  0  0
 21 22  1  0  0  0  0
 21 26  1  0  0  0  0
 23 26  2  0  0  0  0
 23 15  1  0  0  0  0
 24 21  2  0  0  0  0
 25 23  1  0  0  0  0
 26 27  1  0  0  0  0
 28 24  1  0  0  0  0
 28 25  2  0  0  0  0
 29 30  1  0  0  0  0
 30 28  1  0  0  0  0
 32 31  1  0  0  0  0
M  END
>  <MODEL>
5

>  <REMARK>
 VINA RESULT:      -8.0      2.675      6.018
  Name = 
  3 active torsions:
  status: ('A' for Active; 'I' for Inactive)
    1  A    between atoms: O_13  and  C_29
    2  A    between atoms: O_15  and  C_26
    3  A    between atoms: C_16  and  C_27
                            x       y       z     vdW  Elec       q    Type
                         _______ _______ _______ _____ _____    ______ ____

>  <TORSDO>
F 3

$$$$
=
 OpenBabel11062408223D

 32 37  0  0  1  0  0  0  0  0999 V2000
  161.4530  208.1560  149.5910 C   0  0  0  0  0  0  0  0  0  0  0  0
  161.2040  207.0410  151.7710 N   0  0  0  0  0  0  0  0  0  0  0  0
  161.5490  208.0640  148.1940 C   0  0  0  0  0  3  0  0  0  0  0  0
  161.2090  206.9860  150.3370 C   0  0  0  0  0  0  0  0  0  0  0  0
  161.0220  205.8360  152.5420 C   0  0  0  0  0  0  0  0  0  0  0  0
  160.5540  209.7700  155.6690 C   0  0  0  0  0  3  0  0  0  0  0  0
  161.2900  208.3260  152.4110 C   0  0  0  0  0  0  0  0  0  0  0  0
  160.3320  207.3280  155.8390 C   0  0  0  0  0  3  0  0  0  0  0  0
  161.1770  207.1820  154.6050 C   0  0  0  0  0  0  0  0  0  0  0  0
  160.9580  205.7680  149.6770 C   0  0  0  0  0  0  0  0  0  0  0  0
  160.9580  205.8900  153.8740 C   0  0  0  0  0  3  0  0  0  0  0  0
  160.4560  204.5810  150.4460 C   0  0  0  0  0  2  0  0  0  0  0  0
  161.0280  205.7040  148.2850 C   0  0  0  0  0  3  0  0  0  0  0  0
  161.4740  209.4990  151.6060 N   0  0  0  0  0  0  0  0  0  0  0  0
  161.5760  209.4630  150.3070 C   0  0  0  0  0  0  0  0  0  0  0  0
  161.1580  208.4220  153.7400 C   0  0  0  0  0  0  0  0  0  0  0  0
  161.0320  204.4980  151.8610 C   0  0  1  0  0  3  0  0  0  0  0  0
  161.3470  206.8450  147.5460 C   0  0  0  0  0  3  0  0  0  0  0  0
  160.0910  208.5410  156.3540 C   0  0  0  0  0  3  0  0  0  0  0  0
  161.0470  209.7220  154.4270 C   0  0  0  0  0  2  0  0  0  0  0  0
  162.9090  212.0900  147.9070 C   0  0  0  0  0  0  0  0  0  0  0  0
  163.8220  212.2030  146.9110 F   0  0  0  0  0  0  0  0  0  0  0  0
  161.7650  210.7450  149.5840 C   0  0  0  0  0  0  0  0  0  0  0  0
  162.1550  213.2040  148.2810 C   0  0  0  0  0  3  0  0  0  0  0  0
  161.0220  211.8770  149.9530 C   0  0  0  0  0  3  0  0  0  0  0  0
  162.7210  210.8650  148.5550 C   0  0  0  0  0  0  0  0  0  0  0  0
  163.4560  209.7910  148.1640 F   0  0  0  0  0  0  0  0  0  0  0  0
  161.2060  213.1030  149.3080 C   0  0  0  0  0  0  0  0  0  0  0  0
  159.6050  214.1760  150.8590 C   0  0  0  0  0  1  0  0  0  0  0  0
  160.4370  214.2000  149.7070 O   0  0  0  0  0  0  0  0  0  0  0  0
  162.3390  204.0100  151.8070 O   0  0  0  0  0  0  0  0  0  0  0  0
  162.2030  202.7120  151.6360 O   0  0  0  0  0  1  0  0  0  0  0  0
  1 15  1  0  0  0  0
  1  4  2  0  0  0  0
  2  7  1  0  0  0  0
  2  5  1  0  0  0  0
  3  1  1  0  0  0  0
  4  2  1  0  0  0  0
  5 11  2  0  0  0  0
  6 19  2  0  0  0  0
  7 16  2  0  0  0  0
  8 19  1  0  0  0  0
  9  8  2  0  0  0  0
 10  4  1  0  0  0  0
 10 12  1  0  0  0  0
 11  9  1  0  0  0  0
 12 17  1  0  0  0  0
 13 10  2  0  0  0  0
 14  7  1  0  0  0  0
 15 14  2  0  0  0  0
 16 20  1  0  0  0  0
 16  9  1  0  0  0  0
 17 31  1  6  0  0  0
 17  5  1  0  0  0  0
 18  3  2  0  0  0  0
 18 13  1  0  0  0  0
 20  6  1  0  0  0  0
 21 24  2  0  0  0  0
 21 26  1  0  0  0  0
 22 21  1  0  0  0  0
 23 25  1  0  0  0  0
 23 15  1  0  0  0  0
 24 28  1  0  0  0  0
 26 23  2  0  0  0  0
 27 26  1  0  0  0  0
 28 30  1  0  0  0  0
 28 25  2  0  0  0  0
 30 29  1  0  0  0  0
 32 31  1  0  0  0  0
M  END
>  <MODEL>
6

>  <REMARK>
 VINA RESULT:      -7.8      2.260      5.586
  Name = 
  3 active torsions:
  status: ('A' for Active; 'I' for Inactive)
    1  A    between atoms: O_13  and  C_29
    2  A    between atoms: O_15  and  C_26
    3  A    between atoms: C_16  and  C_27
                            x       y       z     vdW  Elec       q    Type
                         _______ _______ _______ _____ _____    ______ ____

>  <TORSDO>
F 3

$$$$
=
 OpenBabel11062408223D

 32 37  0  0  1  0  0  0  0  0999 V2000
  160.7890  208.3190  153.5770 C   0  0  0  0  0  0  0  0  0  0  0  0
  160.0280  210.5530  154.2750 N   0  0  0  0  0  0  0  0  0  0  0  0
  161.1740  207.0150  153.9220 C   0  0  0  0  0  3  0  0  0  0  0  0
  160.3350  209.1870  154.5900 C   0  0  0  0  0  0  0  0  0  0  0  0
  159.6270  211.4650  155.3190 C   0  0  0  0  0  0  0  0  0  0  0  0
  158.6980  213.6760  150.8780 C   0  0  0  0  0  3  0  0  0  0  0  0
  160.0390  210.9610  152.8970 C   0  0  0  0  0  0  0  0  0  0  0  0
  158.3260  214.2180  153.2450 C   0  0  0  0  0  3  0  0  0  0  0  0
  159.4060  213.2430  153.6220 C   0  0  0  0  0  0  0  0  0  0  0  0
  160.1710  208.7120  155.9050 C   0  0  0  0  0  0  0  0  0  0  0  0
  159.2850  212.7200  155.0230 C   0  0  0  0  0  3  0  0  0  0  0  0
  159.4590  209.5490  156.9280 C   0  0  0  0  0  2  0  0  0  0  0  0
  160.5310  207.4020  156.2220 C   0  0  0  0  0  3  0  0  0  0  0  0
  160.4470  210.0230  151.8910 N   0  0  0  0  0  0  0  0  0  0  0  0
  160.8210  208.8040  152.1640 C   0  0  0  0  0  0  0  0  0  0  0  0
  159.6320  212.1920  152.5600 C   0  0  0  0  0  0  0  0  0  0  0  0
  159.7170  211.0470  156.7580 C   0  0  1  0  0  3  0  0  0  0  0  0
  161.0550  206.5610  155.2370 C   0  0  0  0  0  3  0  0  0  0  0  0
  158.0410  214.4480  151.9570 C   0  0  0  0  0  3  0  0  0  0  0  0
  159.4420  212.5990  151.1550 C   0  0  0  0  0  2  0  0  0  0  0  0
  162.2890  207.6020  148.8720 C   0  0  0  0  0  0  0  0  0  0  0  0
  162.9980  208.0890  147.8240 F   0  0  0  0  0  0  0  0  0  0  0  0
  161.2210  207.9260  151.0360 C   0  0  0  0  0  0  0  0  0  0  0  0
  161.9010  206.2610  148.8780 C   0  0  0  0  0  3  0  0  0  0  0  0
  160.8310  206.5780  151.0210 C   0  0  0  0  0  3  0  0  0  0  0  0
  161.9490  208.4360  149.9420 C   0  0  0  0  0  0  0  0  0  0  0  0
  162.3510  209.7340  149.9210 F   0  0  0  0  0  0  0  0  0  0  0  0
  161.1690  205.7410  149.9540 C   0  0  0  0  0  0  0  0  0  0  0  0
  161.1100  203.4710  148.9740 C   0  0  0  0  0  1  0  0  0  0  0  0
  160.7640  204.4040  149.9880 O   0  0  0  0  0  0  0  0  0  0  0  0
  160.9790  211.3660  157.2610 O   0  0  0  0  0  0  0  0  0  0  0  0
  161.0420  212.6800  157.1950 O   0  0  0  0  0  1  0  0  0  0  0  0
  1  3  2  0  0  0  0
  1  4  1  0  0  0  0
  2  4  1  0  0  0  0
  2  5  1  0  0  0  0
  3 18  1  0  0  0  0
  4 10  2  0  0  0  0
  5 17  1  0  0  0  0
  6 20  1  0  0  0  0
  6 19  2  0  0  0  0
  7  2  1  0  0  0  0
  8  9  2  0  0  0  0
  9 11  1  0  0  0  0
 10 13  1  0  0  0  0
 10 12  1  0  0  0  0
 11  5  2  0  0  0  0
 14 15  2  0  0  0  0
 14  7  1  0  0  0  0
 15  1  1  0  0  0  0
 16  7  2  0  0  0  0
 16  9  1  0  0  0  0
 17 12  1  0  0  0  0
 17 31  1  6  0  0  0
 18 13  2  0  0  0  0
 19  8  1  0  0  0  0
 20 16  1  0  0  0  0
 21 24  2  0  0  0  0
 21 26  1  0  0  0  0
 22 21  1  0  0  0  0
 23 15  1  0  0  0  0
 24 28  1  0  0  0  0
 25 23  1  0  0  0  0
 26 23  2  0  0  0  0
 27 26  1  0  0  0  0
 28 30  1  0  0  0  0
 28 25  2  0  0  0  0
 29 30  1  0  0  0  0
 32 31  1  0  0  0  0
M  END
>  <MODEL>
7

>  <REMARK>
 VINA RESULT:      -7.5      2.837      8.015
  Name = 
  3 active torsions:
  status: ('A' for Active; 'I' for Inactive)
    1  A    between atoms: O_13  and  C_29
    2  A    between atoms: O_15  and  C_26
    3  A    between atoms: C_16  and  C_27
                            x       y       z     vdW  Elec       q    Type
                         _______ _______ _______ _____ _____    ______ ____

>  <TORSDO>
F 3

$$$$
=
 OpenBabel11062408223D

 32 37  0  0  1  0  0  0  0  0999 V2000
  161.2300  205.4210  150.6490 C   0  0  0  0  0  0  0  0  0  0  0  0
  161.3550  207.7090  151.5480 N   0  0  0  0  0  0  0  0  0  0  0  0
  161.0520  204.0470  150.8710 C   0  0  0  0  0  3  0  0  0  0  0  0
  161.0820  206.3110  151.7310 C   0  0  0  0  0  0  0  0  0  0  0  0
  161.2720  208.6160  152.6660 C   0  0  0  0  0  0  0  0  0  0  0  0
  161.5810  211.3690  148.4460 C   0  0  0  0  0  3  0  0  0  0  0  0
  161.6170  208.1900  150.2180 C   0  0  0  0  0  0  0  0  0  0  0  0
  161.2910  211.8180  150.8450 C   0  0  0  0  0  3  0  0  0  0  0  0
  161.8770  210.4690  151.1530 C   0  0  0  0  0  0  0  0  0  0  0  0
  160.6580  205.8350  152.9850 C   0  0  0  0  0  0  0  0  0  0  0  0
  161.4670  209.9240  152.4890 C   0  0  0  0  0  3  0  0  0  0  0  0
  160.2610  206.7980  154.0660 C   0  0  0  0  0  2  0  0  0  0  0  0
  160.4560  204.4670  153.1780 C   0  0  0  0  0  3  0  0  0  0  0  0
  161.6940  207.2530  149.1360 N   0  0  0  0  0  0  0  0  0  0  0  0
  161.5440  205.9670  149.2940 C   0  0  0  0  0  0  0  0  0  0  0  0
  161.7460  209.5040  149.9960 C   0  0  0  0  0  0  0  0  0  0  0  0
  161.0940  208.0810  154.0570 C   0  0  1  0  0  3  0  0  0  0  0  0
  160.6770  203.5710  152.1290 C   0  0  0  0  0  3  0  0  0  0  0  0
  161.2060  212.2460  149.5790 C   0  0  0  0  0  3  0  0  0  0  0  0
  161.8250  210.0670  148.6350 C   0  0  0  0  0  2  0  0  0  0  0  0
  162.0680  204.8020  145.7150 C   0  0  0  0  0  0  0  0  0  0  0  0
  162.4280  205.3100  144.5120 F   0  0  0  0  0  0  0  0  0  0  0  0
  161.6450  205.0980  148.0950 C   0  0  0  0  0  0  0  0  0  0  0  0
  161.7560  203.4450  145.8260 C   0  0  0  0  0  3  0  0  0  0  0  0
  161.3260  203.7340  148.1860 C   0  0  0  0  0  3  0  0  0  0  0  0
  162.0100  205.6300  146.8420 C   0  0  0  0  0  0  0  0  0  0  0  0
  162.3320  206.9430  146.7130 F   0  0  0  0  0  0  0  0  0  0  0  0
  161.3830  202.9040  147.0630 C   0  0  0  0  0  0  0  0  0  0  0  0
  161.2060  200.8540  148.4360 C   0  0  0  0  0  1  0  0  0  0  0  0
  161.0630  201.5510  147.2060 O   0  0  0  0  0  0  0  0  0  0  0  0
  162.3440  207.8340  154.6270 O   0  0  0  0  0  0  0  0  0  0  0  0
  162.1640  208.0180  155.9180 O   0  0  0  0  0  1  0  0  0  0  0  0
  1  3  2  0  0  0  0
  1  4  1  0  0  0  0
  2  4  1  0  0  0  0
  2  5  1  0  0  0  0
  3 18  1  0  0  0  0
  4 10  2  0  0  0  0
  5 17  1  0  0  0  0
  6 20  1  0  0  0  0
  6 19  2  0  0  0  0
  7  2  1  0  0  0  0
  8  9  2  0  0  0  0
  9 11  1  0  0  0  0
 10 13  1  0  0  0  0
 10 12  1  0  0  0  0
 11  5  2  0  0  0  0
 14 15  2  0  0  0  0
 14  7  1  0  0  0  0
 15  1  1  0  0  0  0
 16  7  2  0  0  0  0
 16  9  1  0  0  0  0
 17 12  1  0  0  0  0
 17 31  1  6  0  0  0
 18 13  2  0  0  0  0
 19  8  1  0  0  0  0
 20 16  1  0  0  0  0
 21 24  2  0  0  0  0
 21 26  1  0  0  0  0
 22 21  1  0  0  0  0
 23 25  1  0  0  0  0
 23 15  1  0  0  0  0
 24 28  1  0  0  0  0
 26 23  2  0  0  0  0
 27 26  1  0  0  0  0
 28 30  1  0  0  0  0
 28 25  2  0  0  0  0
 30 29  1  0  0  0  0
 31 32  1  0  0  0  0
M  END
>  <MODEL>
8

>  <REMARK>
 VINA RESULT:      -7.4      1.915      6.612
  Name = 
  3 active torsions:
  status: ('A' for Active; 'I' for Inactive)
    1  A    between atoms: O_13  and  C_29
    2  A    between atoms: O_15  and  C_26
    3  A    between atoms: C_16  and  C_27
                            x       y       z     vdW  Elec       q    Type
                         _______ _______ _______ _____ _____    ______ ____

>  <TORSDO>
F 3

$$$$
=
 OpenBabel11062408223D

 32 37  0  0  1  0  0  0  0  0999 V2000
  161.2060  206.2040  151.1720 C   0  0  0  0  0  0  0  0  0  0  0  0
  161.1010  204.4860  149.4130 N   0  0  0  0  0  0  0  0  0  0  0  0
  161.1910  206.5360  152.5350 C   0  0  0  0  0  3  0  0  0  0  0  0
  161.1840  204.8450  150.8000 C   0  0  0  0  0  0  0  0  0  0  0  0
  161.0090  203.0990  149.0280 C   0  0  0  0  0  0  0  0  0  0  0  0
  161.9670  205.8060  144.8780 C   0  0  0  0  0  3  0  0  0  0  0  0
  161.2050  205.5250  148.4250 C   0  0  0  0  0  0  0  0  0  0  0  0
  161.7320  203.4230  145.4300 C   0  0  0  0  0  3  0  0  0  0  0  0
  160.9600  203.8020  146.6630 C   0  0  0  0  0  0  0  0  0  0  0  0
  161.2540  203.8430  151.7850 C   0  0  0  0  0  0  0  0  0  0  0  0
  160.9910  202.7570  147.7390 C   0  0  0  0  0  3  0  0  0  0  0  0
  161.4800  202.4120  151.3940 C   0  0  0  0  0  2  0  0  0  0  0  0
  161.2690  204.1940  153.1360 C   0  0  0  0  0  3  0  0  0  0  0  0
  161.2910  206.8920  148.8520 N   0  0  0  0  0  0  0  0  0  0  0  0
  161.2730  207.2500  150.1050 C   0  0  0  0  0  0  0  0  0  0  0  0
  161.2620  205.2090  147.1250 C   0  0  0  0  0  0  0  0  0  0  0  0
  160.8040  202.0400  150.0730 C   0  0  1  0  0  3  0  0  0  0  0  0
  161.2130  205.5380  153.5110 C   0  0  0  0  0  3  0  0  0  0  0  0
  162.1530  204.3680  144.5790 C   0  0  0  0  0  3  0  0  0  0  0  0
  161.5590  206.2120  146.0850 C   0  0  0  0  0  2  0  0  0  0  0  0
  160.9010  210.5870  151.8840 C   0  0  0  0  0  0  0  0  0  0  0  0
  160.3930  211.0850  153.0380 F   0  0  0  0  0  0  0  0  0  0  0  0
  161.3690  208.6960  150.4220 C   0  0  0  0  0  0  0  0  0  0  0  0
  161.4970  211.4500  150.9640 C   0  0  0  0  0  3  0  0  0  0  0  0
  161.9560  209.5800  149.5040 C   0  0  0  0  0  3  0  0  0  0  0  0
  160.8310  209.2150  151.6170 C   0  0  0  0  0  0  0  0  0  0  0  0
  160.2600  208.3920  152.5350 F   0  0  0  0  0  0  0  0  0  0  0  0
  162.0280  210.9510  149.7660 C   0  0  0  0  0  0  0  0  0  0  0  0
  161.9030  212.4000  147.7650 C   0  0  0  0  0  1  0  0  0  0  0  0
  162.6290  211.7900  148.8240 O   0  0  0  0  0  0  0  0  0  0  0  0
  159.4370  201.8490  150.2830 O   0  0  0  0  0  0  0  0  0  0  0  0
  159.0840  200.9530  149.3860 O   0  0  0  0  0  1  0  0  0  0  0  0
  1  3  2  0  0  0  0
  2  4  1  0  0  0  0
  3 18  1  0  0  0  0
  4  1  1  0  0  0  0
  4 10  2  0  0  0  0
  5  2  1  0  0  0  0
  5 17  1  0  0  0  0
  6 20  1  0  0  0  0
  7 14  1  0  0  0  0
  7  2  1  0  0  0  0
  8  9  2  0  0  0  0
  9 16  1  0  0  0  0
  9 11  1  0  0  0  0
 10 13  1  0  0  0  0
 11  5  2  0  0  0  0
 12 10  1  0  0  0  0
 13 18  2  0  0  0  0
 14 15  2  0  0  0  0
 15 23  1  0  0  0  0
 15  1  1  0  0  0  0
 16  7  2  0  0  0  0
 17 31  1  1  0  0  0
 17 12  1  0  0  0  0
 19  6  2  0  0  0  0
 19  8  1  0  0  0  0
 20 16  1  0  0  0  0
 21 22  1  0  0  0  0
 23 26  2  0  0  0  0
 24 21  2  0  0  0  0
 25 28  2  0  0  0  0
 25 23  1  0  0  0  0
 26 21  1  0  0  0  0
 26 27  1  0  0  0  0
 28 24  1  0  0  0  0
 29 30  1  0  0  0  0
 30 28  1  0  0  0  0
 32 31  1  0  0  0  0
M  END
>  <MODEL>
9

>  <REMARK>
 VINA RESULT:      -7.3      1.550      2.106
  Name = 
  3 active torsions:
  status: ('A' for Active; 'I' for Inactive)
    1  A    between atoms: O_13  and  C_29
    2  A    between atoms: O_15  and  C_26
    3  A    between atoms: C_16  and  C_27
                            x       y       z     vdW  Elec       q    Type
                         _______ _______ _______ _____ _____    ______ ____

>  <TORSDO>
F 3

$$$$
