=
 OpenBabel11052422563D

 28 31  0  0  1  0  0  0  0  0999 V2000
  160.9910  203.5530  149.3160 C   0  0  0  0  0  0  0  0  0  0  0  0
  160.7250  205.2580  153.8370 C   0  0  0  0  0  1  0  0  0  0  0  0
  162.0130  206.9370  150.6430 C   0  0  2  0  0  3  0  0  0  0  0  0
  162.1790  207.7010  152.9020 F   0  0  0  0  0  0  0  0  0  0  0  0
  161.3360  204.3220  151.5970 C   0  0  0  0  0  0  0  0  0  0  0  0
  161.1910  206.0340  149.7320 C   0  0  0  0  0  2  0  0  0  0  0  0
  161.1500  201.9660  151.0790 C   0  0  0  0  0  3  0  0  0  0  0  0
  161.6210  205.4050  152.6170 C   0  0  1  0  0  3  0  0  0  0  0  0
  161.3380  202.9840  152.0120 C   0  0  0  0  0  3  0  0  0  0  0  0
  161.4870  206.8320  152.0740 C   0  0  2  0  0  3  0  0  0  0  0  0
  160.9790  202.2680  149.7660 N   0  0  0  0  0  0  0  0  0  0  0  0
  161.1930  204.6120  150.2220 C   0  0  0  0  0  0  0  0  0  0  0  0
  161.8770  204.6000  147.3590 O   0  0  0  0  0  0  0  0  0  0  0  0
  160.8100  203.8190  147.8540 C   0  0  1  0  0  3  0  0  0  0  0  0
  161.5230  205.1430  146.0930 C   0  0  0  0  0  0  0  0  0  0  0  0
  161.1260  202.6910  145.6180 C   0  0  0  0  0  2  0  0  0  0  0  0
  160.8620  204.1190  145.1470 C   0  0  0  0  0  2  0  0  0  0  0  0
  160.6790  202.5090  147.0680 C   0  0  0  0  0  2  0  0  0  0  0  0
  160.5950  206.3330  146.2720 C   0  0  0  0  0  1  0  0  0  0  0  0
  162.7890  205.6400  145.4270 C   0  0  0  0  0  1  0  0  0  0  0  0
  161.5980  209.4060  150.9750 C   0  0  0  0  0  3  0  0  0  0  0  0
  162.3410  208.6200  148.8050 C   0  0  0  0  0  0  0  0  0  0  0  0
  161.9280  210.9800  149.1680 C   0  0  0  0  0  0  0  0  0  0  0  0
  161.9840  208.3490  150.1360 C   0  0  0  0  0  0  0  0  0  0  0  0
  162.3120  209.9340  148.3260 C   0  0  0  0  0  3  0  0  0  0  0  0
  162.7150  207.6160  147.9730 F   0  0  0  0  0  0  0  0  0  0  0  0
  161.9020  212.2510  148.6990 F   0  0  0  0  0  0  0  0  0  0  0  0
  161.5700  210.7170  150.4930 C   0  0  0  0  0  3  0  0  0  0  0  0
  1 11  2  0  0  0  0
  1 12  1  0  0  0  0
  3 24  1  6  0  0  0
  3 10  1  0  0  0  0
  5  9  1  0  0  0  0
  5  8  1  0  0  0  0
  6 12  1  0  0  0  0
  6  3  1  0  0  0  0
  7  9  2  0  0  0  0
  8  2  1  1  0  0  0
 10  8  1  0  0  0  0
 10  4  1  1  0  0  0
 11  7  1  0  0  0  0
 12  5  2  0  0  0  0
 13 14  1  0  0  0  0
 14  1  1  1  0  0  0
 15 19  1  0  0  0  0
 15 13  1  0  0  0  0
 16 18  1  0  0  0  0
 17 16  1  0  0  0  0
 17 15  1  0  0  0  0
 18 14  1  0  0  0  0
 20 15  1  0  0  0  0
 22 24  1  0  0  0  0
 23 28  2  0  0  0  0
 24 21  2  0  0  0  0
 25 22  2  0  0  0  0
 25 23  1  0  0  0  0
 26 22  1  0  0  0  0
 27 23  1  0  0  0  0
 28 21  1  0  0  0  0
M  END
>  <MODEL>
1

>  <REMARK>
 VINA RESULT:      -9.4      0.000      0.000
  Name = 
  2 active torsions:
  status: ('A' for Active; 'I' for Inactive)
    1  A    between atoms: C_1  and  C_3
    2  A    between atoms: C_10  and  C_13
                            x       y       z     vdW  Elec       q    Type
                         _______ _______ _______ _____ _____    ______ ____

>  <TORSDO>
F 2

$$$$
=
 OpenBabel11052422563D

 28 31  0  0  1  0  0  0  0  0999 V2000
  161.7170  210.2790  150.0690 C   0  0  0  0  0  0  0  0  0  0  0  0
  162.2510  205.8410  151.9230 C   0  0  0  0  0  1  0  0  0  0  0  0
  161.0000  206.9340  148.4710 C   0  0  2  0  0  3  0  0  0  0  0  0
  160.9620  204.7540  149.4500 F   0  0  0  0  0  0  0  0  0  0  0  0
  161.5010  208.0660  151.0540 C   0  0  0  0  0  0  0  0  0  0  0  0
  161.7210  208.2740  148.5370 C   0  0  0  0  0  2  0  0  0  0  0  0
  161.4910  210.0580  152.4250 C   0  0  0  0  0  3  0  0  0  0  0  0
  161.3320  206.5640  150.9500 C   0  0  1  0  0  3  0  0  0  0  0  0
  161.4100  208.6720  152.3130 C   0  0  0  0  0  3  0  0  0  0  0  0
  161.5600  206.0000  149.5430 C   0  0  2  0  0  3  0  0  0  0  0  0
  161.6440  210.8240  151.3140 N   0  0  0  0  0  0  0  0  0  0  0  0
  161.6250  208.8830  149.9080 C   0  0  0  0  0  0  0  0  0  0  0  0
  161.1310  212.3650  149.0620 O   0  0  0  0  0  0  0  0  0  0  0  0
  161.8730  211.1780  148.8830 C   0  0  1  0  0  3  0  0  0  0  0  0
  160.9910  213.0340  147.8150 C   0  0  0  0  0  0  0  0  0  0  0  0
  163.5100  212.8260  147.8940 C   0  0  0  0  0  2  0  0  0  0  0  0
  162.3020  213.1020  147.0030 C   0  0  0  0  0  2  0  0  0  0  0  0
  163.3510  211.4900  148.6200 C   0  0  0  0  0  2  0  0  0  0  0  0
  159.9160  212.3620  146.9760 C   0  0  0  0  0  1  0  0  0  0  0  0
  160.5420  214.4530  148.0920 C   0  0  0  0  0  1  0  0  0  0  0  0
  160.0360  206.3710  146.2050 C   0  0  0  0  0  3  0  0  0  0  0  0
  162.3320  205.7590  146.6910 C   0  0  0  0  0  0  0  0  0  0  0  0
  161.3650  205.2370  144.5310 C   0  0  0  0  0  0  0  0  0  0  0  0
  161.1220  206.3470  147.0950 C   0  0  0  0  0  0  0  0  0  0  0  0
  162.4500  205.2070  145.4120 C   0  0  0  0  0  3  0  0  0  0  0  0
  163.3940  205.7210  147.5330 F   0  0  0  0  0  0  0  0  0  0  0  0
  161.4840  204.7010  143.2930 F   0  0  0  0  0  0  0  0  0  0  0  0
  160.1580  205.8180  144.9280 C   0  0  0  0  0  3  0  0  0  0  0  0
  1 11  1  0  0  0  0
  3 24  1  6  0  0  0
  3  6  1  0  0  0  0
  3 10  1  0  0  0  0
  5  9  2  0  0  0  0
  6 12  1  0  0  0  0
  8  5  1  0  0  0  0
  8  2  1  1  0  0  0
  9  7  1  0  0  0  0
 10  4  1  1  0  0  0
 10  8  1  0  0  0  0
 11  7  2  0  0  0  0
 12  1  2  0  0  0  0
 12  5  1  0  0  0  0
 14 13  1  0  0  0  0
 14  1  1  1  0  0  0
 15 20  1  0  0  0  0
 15 13  1  0  0  0  0
 16 18  1  0  0  0  0
 17 15  1  0  0  0  0
 17 16  1  0  0  0  0
 18 14  1  0  0  0  0
 19 15  1  0  0  0  0
 21 24  1  0  0  0  0
 22 24  2  0  0  0  0
 22 26  1  0  0  0  0
 23 28  1  0  0  0  0
 23 25  2  0  0  0  0
 25 22  1  0  0  0  0
 27 23  1  0  0  0  0
 28 21  2  0  0  0  0
M  END
>  <MODEL>
2

>  <REMARK>
 VINA RESULT:      -8.3      3.256      6.558
  Name = 
  2 active torsions:
  status: ('A' for Active; 'I' for Inactive)
    1  A    between atoms: C_1  and  C_3
    2  A    between atoms: C_10  and  C_13
                            x       y       z     vdW  Elec       q    Type
                         _______ _______ _______ _____ _____    ______ ____

>  <TORSDO>
F 2

$$$$
=
 OpenBabel11052422563D

 28 31  0  0  1  0  0  0  0  0999 V2000
  161.5120  205.2100  149.5470 C   0  0  0  0  0  0  0  0  0  0  0  0
  160.3490  206.9810  153.8970 C   0  0  0  0  0  1  0  0  0  0  0  0
  161.9100  208.7260  150.8650 C   0  0  2  0  0  3  0  0  0  0  0  0
  161.6330  209.5600  153.0870 F   0  0  0  0  0  0  0  0  0  0  0  0
  161.4070  206.0720  151.8180 C   0  0  0  0  0  0  0  0  0  0  0  0
  161.3520  207.7060  149.8810 C   0  0  0  0  0  2  0  0  0  0  0  0
  161.5810  203.6990  151.3810 C   0  0  0  0  0  3  0  0  0  0  0  0
  161.4010  207.2080  152.8210 C   0  0  1  0  0  3  0  0  0  0  0  0
  161.5010  204.7550  152.2860 C   0  0  0  0  0  3  0  0  0  0  0  0
  161.1850  208.5930  152.2030 C   0  0  2  0  0  3  0  0  0  0  0  0
  161.5820  203.9450  150.0460 N   0  0  0  0  0  0  0  0  0  0  0  0
  161.4460  206.3080  150.4260 C   0  0  0  0  0  0  0  0  0  0  0  0
  161.3660  204.1840  147.3930 O   0  0  0  0  0  0  0  0  0  0  0  0
  161.5300  205.4150  148.0650 C   0  0  1  0  0  3  0  0  0  0  0  0
  161.7410  204.3310  146.0290 C   0  0  0  0  0  0  0  0  0  0  0  0
  160.0230  206.1800  146.1890 C   0  0  0  0  0  2  0  0  0  0  0  0
  161.1770  205.6070  145.3700 C   0  0  0  0  0  2  0  0  0  0  0  0
  160.4550  206.4210  147.6360 C   0  0  0  0  0  2  0  0  0  0  0  0
  163.2550  204.3240  145.8960 C   0  0  0  0  0  1  0  0  0  0  0  0
  161.2030  203.1380  145.2650 C   0  0  0  0  0  1  0  0  0  0  0  0
  161.2080  211.1460  151.0440 C   0  0  0  0  0  3  0  0  0  0  0  0
  162.2710  210.3780  149.0040 C   0  0  0  0  0  0  0  0  0  0  0  0
  161.5790  212.6900  149.2190 C   0  0  0  0  0  0  0  0  0  0  0  0
  161.7940  210.1110  150.2980 C   0  0  0  0  0  0  0  0  0  0  0  0
  162.1630  211.6660  148.4700 C   0  0  0  0  0  3  0  0  0  0  0  0
  162.8390  209.3950  148.2620 F   0  0  0  0  0  0  0  0  0  0  0  0
  161.4760  213.9360  148.6970 F   0  0  0  0  0  0  0  0  0  0  0  0
  161.1010  212.4300  150.5060 C   0  0  0  0  0  3  0  0  0  0  0  0
  1 11  2  0  0  0  0
  1 12  1  0  0  0  0
  3 24  1  6  0  0  0
  3 10  1  0  0  0  0
  5  9  1  0  0  0  0
  5  8  1  0  0  0  0
  6 12  1  0  0  0  0
  6  3  1  0  0  0  0
  7  9  2  0  0  0  0
  8  2  1  1  0  0  0
 10  8  1  0  0  0  0
 10  4  1  1  0  0  0
 11  7  1  0  0  0  0
 12  5  2  0  0  0  0
 13 14  1  0  0  0  0
 14  1  1  1  0  0  0
 15 13  1  0  0  0  0
 16 18  1  0  0  0  0
 17 15  1  0  0  0  0
 17 16  1  0  0  0  0
 18 14  1  0  0  0  0
 19 15  1  0  0  0  0
 20 15  1  0  0  0  0
 22 24  1  0  0  0  0
 23 28  2  0  0  0  0
 24 21  2  0  0  0  0
 25 22  2  0  0  0  0
 25 23  1  0  0  0  0
 26 22  1  0  0  0  0
 27 23  1  0  0  0  0
 28 21  1  0  0  0  0
M  END
>  <MODEL>
3

>  <REMARK>
 VINA RESULT:      -7.7      1.278      2.067
  Name = 
  2 active torsions:
  status: ('A' for Active; 'I' for Inactive)
    1  A    between atoms: C_1  and  C_3
    2  A    between atoms: C_10  and  C_13
                            x       y       z     vdW  Elec       q    Type
                         _______ _______ _______ _____ _____    ______ ____

>  <TORSDO>
F 2

$$$$
=
 OpenBabel11052422563D

 28 31  0  0  1  0  0  0  0  0999 V2000
  161.3740  202.9790  148.0950 C   0  0  0  0  0  0  0  0  0  0  0  0
  159.9380  203.6090  152.6730 C   0  0  0  0  0  1  0  0  0  0  0  0
  161.9130  205.9460  150.3670 C   0  0  2  0  0  3  0  0  0  0  0  0
  161.4890  206.1680  152.7090 F   0  0  0  0  0  0  0  0  0  0  0  0
  161.1170  203.1970  150.5040 C   0  0  0  0  0  0  0  0  0  0  0  0
  161.3750  205.2930  149.1010 C   0  0  0  0  0  2  0  0  0  0  0  0
  161.1500  201.0280  149.4350 C   0  0  0  0  0  3  0  0  0  0  0  0
  161.1020  204.0120  151.7810 C   0  0  1  0  0  3  0  0  0  0  0  0
  161.0650  201.8000  150.5900 C   0  0  0  0  0  3  0  0  0  0  0  0
  161.0540  205.5280  151.5600 C   0  0  2  0  0  3  0  0  0  0  0  0
  161.2980  201.6260  148.2250 N   0  0  0  0  0  0  0  0  0  0  0  0
  161.3080  203.7970  149.2390 C   0  0  0  0  0  0  0  0  0  0  0  0
  160.6880  204.6820  146.5650 O   0  0  0  0  0  0  0  0  0  0  0  0
  161.5500  203.5760  146.7340 C   0  0  1  0  0  3  0  0  0  0  0  0
  160.5960  205.0090  145.1850 C   0  0  0  0  0  0  0  0  0  0  0  0
  163.1070  205.1100  145.4700 C   0  0  0  0  0  2  0  0  0  0  0  0
  161.9620  205.0260  144.4650 C   0  0  0  0  0  2  0  0  0  0  0  0
  163.0100  203.9790  146.4950 C   0  0  0  0  0  2  0  0  0  0  0  0
  159.6670  204.0390  144.4740 C   0  0  0  0  0  1  0  0  0  0  0  0
  159.9940  206.3950  145.0710 C   0  0  0  0  0  1  0  0  0  0  0  0
  161.8680  208.2850  151.3180 C   0  0  0  0  0  3  0  0  0  0  0  0
  162.0900  207.9940  148.9210 C   0  0  0  0  0  0  0  0  0  0  0  0
  162.0390  210.2210  149.8760 C   0  0  0  0  0  0  0  0  0  0  0  0
  161.9590  207.4370  150.2030 C   0  0  0  0  0  0  0  0  0  0  0  0
  162.1300  209.3830  148.7620 C   0  0  0  0  0  3  0  0  0  0  0  0
  162.1780  207.1960  147.8280 F   0  0  0  0  0  0  0  0  0  0  0  0
  162.0790  211.5650  149.7170 F   0  0  0  0  0  0  0  0  0  0  0  0
  161.9080  209.6720  151.1550 C   0  0  0  0  0  3  0  0  0  0  0  0
  1 11  2  0  0  0  0
  1 12  1  0  0  0  0
  3 24  1  6  0  0  0
  3 10  1  0  0  0  0
  5  9  1  0  0  0  0
  5  8  1  0  0  0  0
  6 12  1  0  0  0  0
  6  3  1  0  0  0  0
  7  9  2  0  0  0  0
  8  2  1  1  0  0  0
 10  8  1  0  0  0  0
 10  4  1  1  0  0  0
 11  7  1  0  0  0  0
 12  5  2  0  0  0  0
 13 14  1  0  0  0  0
 14  1  1  1  0  0  0
 15 13  1  0  0  0  0
 16 18  1  0  0  0  0
 17 15  1  0  0  0  0
 17 16  1  0  0  0  0
 18 14  1  0  0  0  0
 19 15  1  0  0  0  0
 20 15  1  0  0  0  0
 22 24  1  0  0  0  0
 23 28  2  0  0  0  0
 24 21  2  0  0  0  0
 25 22  2  0  0  0  0
 25 23  1  0  0  0  0
 26 22  1  0  0  0  0
 27 23  1  0  0  0  0
 28 21  1  0  0  0  0
M  END
>  <MODEL>
4

>  <REMARK>
 VINA RESULT:      -7.7      1.184      1.716
  Name = 
  2 active torsions:
  status: ('A' for Active; 'I' for Inactive)
    1  A    between atoms: C_1  and  C_3
    2  A    between atoms: C_10  and  C_13
                            x       y       z     vdW  Elec       q    Type
                         _______ _______ _______ _____ _____    ______ ____

>  <TORSDO>
F 2

$$$$
=
 OpenBabel11052422563D

 28 31  0  0  1  0  0  0  0  0999 V2000
  161.7210  206.5170  149.1600 C   0  0  0  0  0  0  0  0  0  0  0  0
  160.5300  209.6690  152.6340 C   0  0  0  0  0  1  0  0  0  0  0  0
  162.0910  210.2750  149.1880 C   0  0  2  0  0  3  0  0  0  0  0  0
  161.8000  211.8210  150.9870 F   0  0  0  0  0  0  0  0  0  0  0  0
  161.6020  208.1080  150.9960 C   0  0  0  0  0  0  0  0  0  0  0  0
  161.5430  208.9750  148.6140 C   0  0  0  0  0  2  0  0  0  0  0  0
  161.7930  205.7310  151.4020 C   0  0  0  0  0  3  0  0  0  0  0  0
  161.5840  209.5190  151.5470 C   0  0  1  0  0  3  0  0  0  0  0  0
  161.7030  207.0330  151.8890 C   0  0  0  0  0  3  0  0  0  0  0  0
  161.3610  210.6050  150.4890 C   0  0  2  0  0  3  0  0  0  0  0  0
  161.7980  205.5020  150.0640 N   0  0  0  0  0  0  0  0  0  0  0  0
  161.6440  207.8500  149.6080 C   0  0  0  0  0  0  0  0  0  0  0  0
  161.6330  204.8080  147.4920 O   0  0  0  0  0  0  0  0  0  0  0  0
  161.7430  206.2000  147.6980 C   0  0  1  0  0  3  0  0  0  0  0  0
  162.0120  204.4900  146.1590 C   0  0  0  0  0  0  0  0  0  0  0  0
  160.2230  206.2130  145.6820 C   0  0  0  0  0  2  0  0  0  0  0  0
  161.4050  205.4390  145.1040 C   0  0  0  0  0  2  0  0  0  0  0  0
  160.6330  206.9540  146.9550 C   0  0  0  0  0  2  0  0  0  0  0  0
  163.5270  204.4970  146.0280 C   0  0  0  0  0  1  0  0  0  0  0  0
  161.5280  203.0870  145.8560 C   0  0  0  0  0  1  0  0  0  0  0  0
  160.7740  211.5720  147.4670 C   0  0  0  0  0  3  0  0  0  0  0  0
  163.0600  212.2280  147.9370 C   0  0  0  0  0  0  0  0  0  0  0  0
  161.7600  213.4430  146.2920 C   0  0  0  0  0  0  0  0  0  0  0  0
  161.9680  211.3790  148.1790 C   0  0  0  0  0  0  0  0  0  0  0  0
  162.9530  213.2570  146.9950 C   0  0  0  0  0  3  0  0  0  0  0  0
  164.2260  212.0610  148.6100 F   0  0  0  0  0  0  0  0  0  0  0  0
  161.6610  214.4400  145.3810 F   0  0  0  0  0  0  0  0  0  0  0  0
  160.6700  212.6000  146.5270 C   0  0  0  0  0  3  0  0  0  0  0  0
  1 12  2  0  0  0  0
  1 11  1  0  0  0  0
  3 24  1  6  0  0  0
  3 10  1  0  0  0  0
  5  8  1  0  0  0  0
  5  9  2  0  0  0  0
  6  3  1  0  0  0  0
  6 12  1  0  0  0  0
  7  9  1  0  0  0  0
  8  2  1  1  0  0  0
 10  4  1  1  0  0  0
 10  8  1  0  0  0  0
 11  7  2  0  0  0  0
 12  5  1  0  0  0  0
 13 14  1  0  0  0  0
 14  1  1  1  0  0  0
 15 13  1  0  0  0  0
 16 18  1  0  0  0  0
 17 16  1  0  0  0  0
 17 15  1  0  0  0  0
 18 14  1  0  0  0  0
 19 15  1  0  0  0  0
 20 15  1  0  0  0  0
 21 24  1  0  0  0  0
 22 24  2  0  0  0  0
 22 26  1  0  0  0  0
 23 28  1  0  0  0  0
 23 25  2  0  0  0  0
 25 22  1  0  0  0  0
 27 23  1  0  0  0  0
 28 21  2  0  0  0  0
M  END
>  <MODEL>
5

>  <REMARK>
 VINA RESULT:      -7.1      2.114      3.641
  Name = 
  2 active torsions:
  status: ('A' for Active; 'I' for Inactive)
    1  A    between atoms: C_1  and  C_3
    2  A    between atoms: C_10  and  C_13
                            x       y       z     vdW  Elec       q    Type
                         _______ _______ _______ _____ _____    ______ ____

>  <TORSDO>
F 2

$$$$
=
 OpenBabel11052422563D

 28 31  0  0  1  0  0  0  0  0999 V2000
  161.0350  205.2270  148.7620 C   0  0  0  0  0  0  0  0  0  0  0  0
  162.8410  209.7140  148.6350 C   0  0  0  0  0  1  0  0  0  0  0  0
  160.8300  207.9450  151.3750 C   0  0  2  0  0  3  0  0  0  0  0  0
  161.4400  210.2510  151.2250 F   0  0  0  0  0  0  0  0  0  0  0  0
  161.4820  207.6120  148.6050 C   0  0  0  0  0  0  0  0  0  0  0  0
  161.2350  206.5570  150.8970 C   0  0  0  0  0  2  0  0  0  0  0  0
  161.2520  206.2440  146.6240 C   0  0  0  0  0  3  0  0  0  0  0  0
  161.6370  208.9890  149.2180 C   0  0  1  0  0  3  0  0  0  0  0  0
  161.4650  207.4890  147.2100 C   0  0  0  0  0  3  0  0  0  0  0  0
  161.7510  208.9900  150.7460 C   0  0  2  0  0  3  0  0  0  0  0  0
  161.0470  205.1500  147.4030 N   0  0  0  0  0  0  0  0  0  0  0  0
  161.2310  206.4690  149.3960 C   0  0  0  0  0  0  0  0  0  0  0  0
  161.2430  202.8480  148.8630 O   0  0  0  0  0  0  0  0  0  0  0  0
  160.7910  203.9870  149.5640 C   0  0  1  0  0  3  0  0  0  0  0  0
  160.6920  201.6760  149.4510 C   0  0  0  0  0  0  0  0  0  0  0  0
  161.7780  202.6940  151.4950 C   0  0  0  0  0  2  0  0  0  0  0  0
  160.7670  201.6680  150.9920 C   0  0  0  0  0  2  0  0  0  0  0  0
  161.4580  204.0830  150.9410 C   0  0  0  0  0  2  0  0  0  0  0  0
  159.2460  201.5010  149.0180 C   0  0  0  0  0  1  0  0  0  0  0  0
  161.4760  200.4840  148.9410 C   0  0  0  0  0  1  0  0  0  0  0  0
  161.4210  206.9640  153.6260 C   0  0  0  0  0  3  0  0  0  0  0  0
  160.2960  209.1100  153.5370 C   0  0  0  0  0  0  0  0  0  0  0  0
  160.8800  208.1310  155.6750 C   0  0  0  0  0  0  0  0  0  0  0  0
  160.8530  208.0050  152.8740 C   0  0  0  0  0  0  0  0  0  0  0  0
  160.3120  209.1700  154.9340 C   0  0  0  0  0  3  0  0  0  0  0  0
  159.7390  210.1280  152.8340 F   0  0  0  0  0  0  0  0  0  0  0  0
  160.8930  208.1930  157.0280 F   0  0  0  0  0  0  0  0  0  0  0  0
  161.4340  207.0280  155.0210 C   0  0  0  0  0  3  0  0  0  0  0  0
  1 12  1  0  0  0  0
  3 24  1  1  0  0  0
  5  8  1  0  0  0  0
  5 12  2  0  0  0  0
  6  3  1  0  0  0  0
  7  9  2  0  0  0  0
  7 11  1  0  0  0  0
  8  2  1  6  0  0  0
  8 10  1  0  0  0  0
  9  5  1  0  0  0  0
 10  4  1  1  0  0  0
 10  3  1  0  0  0  0
 11  1  2  0  0  0  0
 12  6  1  0  0  0  0
 13 15  1  0  0  0  0
 13 14  1  0  0  0  0
 14  1  1  6  0  0  0
 14 18  1  0  0  0  0
 15 17  1  0  0  0  0
 17 16  1  0  0  0  0
 18 16  1  0  0  0  0
 19 15  1  0  0  0  0
 20 15  1  0  0  0  0
 21 28  1  0  0  0  0
 22 25  2  0  0  0  0
 23 27  1  0  0  0  0
 24 22  1  0  0  0  0
 24 21  2  0  0  0  0
 25 23  1  0  0  0  0
 26 22  1  0  0  0  0
 28 23  2  0  0  0  0
M  END
>  <MODEL>
6

>  <REMARK>
 VINA RESULT:      -7.1      2.197      5.095
  Name = 
  2 active torsions:
  status: ('A' for Active; 'I' for Inactive)
    1  A    between atoms: C_1  and  C_3
    2  A    between atoms: C_10  and  C_13
                            x       y       z     vdW  Elec       q    Type
                         _______ _______ _______ _____ _____    ______ ____

>  <TORSDO>
F 2

$$$$
=
 OpenBabel11052422563D

 28 31  0  0  1  0  0  0  0  0999 V2000
  161.1510  204.5120  151.6280 C   0  0  0  0  0  0  0  0  0  0  0  0
  161.0900  209.2540  150.6690 C   0  0  0  0  0  1  0  0  0  0  0  0
  161.9720  206.2940  148.4020 C   0  0  2  0  0  3  0  0  0  0  0  0
  162.2460  208.6310  147.9800 F   0  0  0  0  0  0  0  0  0  0  0  0
  161.6050  206.8600  151.1860 C   0  0  0  0  0  0  0  0  0  0  0  0
  161.1650  205.3050  149.2320 C   0  0  0  0  0  2  0  0  0  0  0  0
  161.5860  205.9860  153.4410 C   0  0  0  0  0  3  0  0  0  0  0  0
  161.8720  208.0190  150.2480 C   0  0  1  0  0  3  0  0  0  0  0  0
  161.7560  207.0550  152.5650 C   0  0  0  0  0  3  0  0  0  0  0  0
  161.5710  207.7210  148.7760 C   0  0  2  0  0  3  0  0  0  0  0  0
  161.2870  204.7520  152.9610 N   0  0  0  0  0  0  0  0  0  0  0  0
  161.3300  205.5600  150.7050 C   0  0  0  0  0  0  0  0  0  0  0  0
  161.1570  202.9790  149.7940 O   0  0  0  0  0  0  0  0  0  0  0  0
  160.8340  203.1260  151.1610 C   0  0  1  0  0  3  0  0  0  0  0  0
  160.5320  201.8110  149.2780 C   0  0  0  0  0  0  0  0  0  0  0  0
  161.7830  200.7870  151.2220 C   0  0  0  0  0  2  0  0  0  0  0  0
  160.6680  200.5820  150.2010 C   0  0  0  0  0  2  0  0  0  0  0  0
  161.5620  202.0780  152.0110 C   0  0  0  0  0  2  0  0  0  0  0  0
  159.0590  202.0780  149.0110 C   0  0  0  0  0  1  0  0  0  0  0  0
  161.1880  201.4740  147.9550 C   0  0  0  0  0  1  0  0  0  0  0  0
  160.6280  206.4660  146.2710 C   0  0  0  0  0  3  0  0  0  0  0  0
  162.7580  205.3090  146.2270 C   0  0  0  0  0  0  0  0  0  0  0  0
  161.4340  205.4950  144.2060 C   0  0  0  0  0  0  0  0  0  0  0  0
  161.7800  206.0220  146.9390 C   0  0  0  0  0  0  0  0  0  0  0  0
  162.5830  205.0490  144.8640 C   0  0  0  0  0  3  0  0  0  0  0  0
  163.8790  204.8670  146.8500 F   0  0  0  0  0  0  0  0  0  0  0  0
  161.2690  205.2410  142.8860 F   0  0  0  0  0  0  0  0  0  0  0  0
  160.4560  206.2030  144.9090 C   0  0  0  0  0  3  0  0  0  0  0  0
  1 11  1  0  0  0  0
  3 24  1  6  0  0  0
  3 10  1  0  0  0  0
  3  6  1  0  0  0  0
  5  9  2  0  0  0  0
  6 12  1  0  0  0  0
  8  2  1  1  0  0  0
  8  5  1  0  0  0  0
  9  7  1  0  0  0  0
 10  4  1  6  0  0  0
 10  8  1  0  0  0  0
 11  7  2  0  0  0  0
 12  5  1  0  0  0  0
 12  1  2  0  0  0  0
 13 14  1  0  0  0  0
 14  1  1  1  0  0  0
 14 18  1  0  0  0  0
 15 13  1  0  0  0  0
 15 17  1  0  0  0  0
 16 18  1  0  0  0  0
 17 16  1  0  0  0  0
 19 15  1  0  0  0  0
 20 15  1  0  0  0  0
 21 24  1  0  0  0  0
 22 26  1  0  0  0  0
 22 24  2  0  0  0  0
 23 25  2  0  0  0  0
 23 28  1  0  0  0  0
 25 22  1  0  0  0  0
 27 23  1  0  0  0  0
 28 21  2  0  0  0  0
M  END
>  <MODEL>
7

>  <REMARK>
 VINA RESULT:      -7.1      1.987      4.816
  Name = 
  2 active torsions:
  status: ('A' for Active; 'I' for Inactive)
    1  A    between atoms: C_1  and  C_3
    2  A    between atoms: C_10  and  C_13
                            x       y       z     vdW  Elec       q    Type
                         _______ _______ _______ _____ _____    ______ ____

>  <TORSDO>
F 2

$$$$
=
 OpenBabel11052422563D

 28 31  0  0  1  0  0  0  0  0999 V2000
  161.2560  203.0150  148.1210 C   0  0  0  0  0  0  0  0  0  0  0  0
  159.8210  202.4450  152.7070 C   0  0  0  0  0  1  0  0  0  0  0  0
  161.6370  205.3790  151.0410 C   0  0  2  0  0  3  0  0  0  0  0  0
  161.2180  205.0090  153.3650 F   0  0  0  0  0  0  0  0  0  0  0  0
  161.0060  202.6350  150.5100 C   0  0  0  0  0  0  0  0  0  0  0  0
  161.1280  205.0180  149.6510 C   0  0  0  0  0  2  0  0  0  0  0  0
  161.1580  200.7910  148.9530 C   0  0  0  0  0  3  0  0  0  0  0  0
  160.9520  203.1190  151.9450 C   0  0  1  0  0  3  0  0  0  0  0  0
  161.0360  201.2580  150.2600 C   0  0  0  0  0  3  0  0  0  0  0  0
  160.8130  204.6380  152.0930 C   0  0  2  0  0  3  0  0  0  0  0  0
  161.2610  201.6690  147.9220 N   0  0  0  0  0  0  0  0  0  0  0  0
  161.1500  203.5310  149.4270 C   0  0  0  0  0  0  0  0  0  0  0  0
  161.1210  205.2640  147.3240 O   0  0  0  0  0  0  0  0  0  0  0  0
  161.3860  203.9310  146.9440 C   0  0  1  0  0  3  0  0  0  0  0  0
  160.8920  206.0550  146.1650 C   0  0  0  0  0  0  0  0  0  0  0  0
  163.1560  205.0970  145.5730 C   0  0  0  0  0  2  0  0  0  0  0  0
  161.9140  205.8020  145.0360 C   0  0  0  0  0  2  0  0  0  0  0  0
  162.7730  203.8090  146.3030 C   0  0  0  0  0  2  0  0  0  0  0  0
  159.4880  205.8150  145.6340 C   0  0  0  0  0  1  0  0  0  0  0  0
  160.9920  207.5130  146.5640 C   0  0  0  0  0  1  0  0  0  0  0  0
  160.9250  207.4250  152.3400 C   0  0  0  0  0  3  0  0  0  0  0  0
  162.2230  207.7120  150.3110 C   0  0  0  0  0  0  0  0  0  0  0  0
  161.5160  209.6470  151.5870 C   0  0  0  0  0  0  0  0  0  0  0  0
  161.5940  206.8660  151.2390 C   0  0  0  0  0  0  0  0  0  0  0  0
  162.1820  209.0990  150.4890 C   0  0  0  0  0  3  0  0  0  0  0  0
  162.8730  207.1970  149.2380 F   0  0  0  0  0  0  0  0  0  0  0  0
  161.4800  210.9910  151.7550 F   0  0  0  0  0  0  0  0  0  0  0  0
  160.8870  208.8110  152.5130 C   0  0  0  0  0  3  0  0  0  0  0  0
  1 12  1  0  0  0  0
  3 24  1  1  0  0  0
  3 10  1  0  0  0  0
  5  8  1  0  0  0  0
  6  3  1  0  0  0  0
  7  9  2  0  0  0  0
  8 10  1  0  0  0  0
  8  2  1  6  0  0  0
  9  5  1  0  0  0  0
 10  4  1  1  0  0  0
 11  1  2  0  0  0  0
 11  7  1  0  0  0  0
 12  6  1  0  0  0  0
 12  5  2  0  0  0  0
 14 13  1  0  0  0  0
 14  1  1  1  0  0  0
 15 20  1  0  0  0  0
 15 13  1  0  0  0  0
 16 18  1  0  0  0  0
 17 16  1  0  0  0  0
 17 15  1  0  0  0  0
 18 14  1  0  0  0  0
 19 15  1  0  0  0  0
 21 28  1  0  0  0  0
 22 25  2  0  0  0  0
 22 24  1  0  0  0  0
 23 27  1  0  0  0  0
 23 28  2  0  0  0  0
 24 21  2  0  0  0  0
 25 23  1  0  0  0  0
 26 22  1  0  0  0  0
M  END
>  <MODEL>
8

>  <REMARK>
 VINA RESULT:      -7.0      1.512      2.222
  Name = 
  2 active torsions:
  status: ('A' for Active; 'I' for Inactive)
    1  A    between atoms: C_1  and  C_3
    2  A    between atoms: C_10  and  C_13
                            x       y       z     vdW  Elec       q    Type
                         _______ _______ _______ _____ _____    ______ ____

>  <TORSDO>
F 2

$$$$
=
 OpenBabel11052422563D

 28 31  0  0  1  0  0  0  0  0999 V2000
  161.4840  205.5520  151.5260 C   0  0  0  0  0  0  0  0  0  0  0  0
  161.2480  200.9530  150.0390 C   0  0  0  0  0  1  0  0  0  0  0  0
  160.7290  204.2050  148.0810 C   0  0  2  0  0  3  0  0  0  0  0  0
  160.3070  201.9580  147.3820 F   0  0  0  0  0  0  0  0  0  0  0  0
  160.8830  203.3110  150.7980 C   0  0  0  0  0  0  0  0  0  0  0  0
  161.5560  205.0290  149.0590 C   0  0  0  0  0  2  0  0  0  0  0  0
  160.8310  203.9290  153.1360 C   0  0  0  0  0  3  0  0  0  0  0  0
  160.5870  202.2860  149.7220 C   0  0  1  0  0  3  0  0  0  0  0  0
  160.6350  202.9800  152.1360 C   0  0  0  0  0  3  0  0  0  0  0  0
  160.9990  202.7180  148.3100 C   0  0  2  0  0  3  0  0  0  0  0  0
  161.2490  205.1800  152.8140 N   0  0  0  0  0  0  0  0  0  0  0  0
  161.2840  204.6290  150.4820 C   0  0  0  0  0  0  0  0  0  0  0  0
  161.3600  207.4120  150.0310 O   0  0  0  0  0  0  0  0  0  0  0  0
  161.9310  206.9500  151.2360 C   0  0  1  0  0  3  0  0  0  0  0  0
  162.0560  208.5690  149.5840 C   0  0  0  0  0  0  0  0  0  0  0  0
  161.4360  209.3320  151.9140 C   0  0  0  0  0  2  0  0  0  0  0  0
  162.3310  209.5920  150.7060 C   0  0  0  0  0  2  0  0  0  0  0  0
  161.5900  207.8900  152.3990 C   0  0  0  0  0  2  0  0  0  0  0  0
  163.3710  208.1720  148.9340 C   0  0  0  0  0  1  0  0  0  0  0  0
  161.2060  209.2500  148.5320 C   0  0  0  0  0  1  0  0  0  0  0  0
  161.8530  203.8310  145.8500 C   0  0  0  0  0  3  0  0  0  0  0  0
  160.4880  205.8110  146.1620 C   0  0  0  0  0  0  0  0  0  0  0  0
  161.5860  205.4130  144.0390 C   0  0  0  0  0  0  0  0  0  0  0  0
  161.0290  204.6190  146.6700 C   0  0  0  0  0  0  0  0  0  0  0  0
  160.7670  206.2040  144.8490 C   0  0  0  0  0  3  0  0  0  0  0  0
  159.6910  206.5910  146.9340 F   0  0  0  0  0  0  0  0  0  0  0  0
  161.8540  205.7980  142.7680 F   0  0  0  0  0  0  0  0  0  0  0  0
  162.1300  204.2270  144.5390 C   0  0  0  0  0  3  0  0  0  0  0  0
  1 11  1  0  0  0  0
  3 24  1  6  0  0  0
  3 10  1  0  0  0  0
  3  6  1  0  0  0  0
  5  9  2  0  0  0  0
  6 12  1  0  0  0  0
  8  2  1  1  0  0  0
  8  5  1  0  0  0  0
  9  7  1  0  0  0  0
 10  4  1  6  0  0  0
 10  8  1  0  0  0  0
 11  7  2  0  0  0  0
 12  5  1  0  0  0  0
 12  1  2  0  0  0  0
 13 14  1  0  0  0  0
 14  1  1  1  0  0  0
 14 18  1  0  0  0  0
 15 13  1  0  0  0  0
 15 17  1  0  0  0  0
 16 18  1  0  0  0  0
 17 16  1  0  0  0  0
 19 15  1  0  0  0  0
 20 15  1  0  0  0  0
 21 24  1  0  0  0  0
 22 24  2  0  0  0  0
 22 26  1  0  0  0  0
 23 28  1  0  0  0  0
 23 25  2  0  0  0  0
 25 22  1  0  0  0  0
 27 23  1  0  0  0  0
 28 21  2  0  0  0  0
M  END
>  <MODEL>
9

>  <REMARK>
 VINA RESULT:      -7.0      2.378      5.575
  Name = 
  2 active torsions:
  status: ('A' for Active; 'I' for Inactive)
    1  A    between atoms: C_1  and  C_3
    2  A    between atoms: C_10  and  C_13
                            x       y       z     vdW  Elec       q    Type
                         _______ _______ _______ _____ _____    ______ ____

>  <TORSDO>
F 2

$$$$
