=
 OpenBabel11062409313D

 34 39  0  0  1  0  0  0  0  0999 V2000
  161.5570  210.2920  154.1780 C   0  0  2  0  0  3  0  0  0  0  0  0
  160.1370  212.3330  151.5260 C   0  0  0  0  0  3  0  0  0  0  0  0
  158.8970  211.0630  153.2670 C   0  0  0  0  0  2  0  0  0  0  0  0
  161.1170  211.5500  156.3140 C   0  0  0  0  0  3  0  0  0  0  0  0
  159.0350  212.7370  156.6680 C   0  0  0  0  0  3  0  0  0  0  0  0
  160.2990  212.3460  157.1210 C   0  0  0  0  0  3  0  0  0  0  0  0
  159.4060  211.5470  154.5910 C   0  0  0  0  0  0  0  0  0  0  0  0
  160.6730  211.1460  155.0500 C   0  0  0  0  0  0  0  0  0  0  0  0
  158.5870  212.3330  155.4070 C   0  0  0  0  0  3  0  0  0  0  0  0
  160.8610  212.5010  150.4200 C   0  0  0  0  0  3  0  0  0  0  0  0
  161.6570  211.4490  149.7520 C   0  0  0  0  0  0  0  0  0  0  0  0
  162.3160  210.4730  150.4050 C   0  0  0  0  0  3  0  0  0  0  0  0
  159.9920  211.0070  152.1930 C   0  0  2  0  0  3  0  0  0  0  0  0
  162.3210  210.2240  151.8610 C   0  0  0  0  0  3  0  0  0  0  0  0
  161.3220  210.5000  152.7020 C   0  0  0  0  0  0  0  0  0  0  0  0
  161.8310  211.5870  148.2700 C   0  0  1  0  0  3  0  0  0  0  0  0
  160.6770  212.2330  147.6670 N   0  0  0  0  0  1  0  0  0  0  0  0
  163.0950  212.3580  147.9350 C   0  0  0  0  0  1  0  0  0  0  0  0
  161.6220  208.9320  154.5640 O   0  0  0  0  0  0  0  0  0  0  0  0
  160.7110  208.1850  153.7950 C   0  0  0  0  0  2  0  0  0  0  0  0
  161.0770  206.7110  153.8280 C   0  0  0  0  0  2  0  0  0  0  0  0
  161.1410  204.2440  150.9510 C   0  0  0  0  0  3  0  0  0  0  0  0
  161.1870  207.0200  151.3490 C   0  0  0  0  0  3  0  0  0  0  0  0
  161.2430  205.4490  147.4500 C   0  0  0  0  0  0  0  0  0  0  0  0
  161.2020  204.5860  148.5550 C   0  0  0  0  0  3  0  0  0  0  0  0
  161.1890  205.1030  149.8510 C   0  0  0  0  0  0  0  0  0  0  0  0
  161.2340  207.3620  148.9500 C   0  0  0  0  0  3  0  0  0  0  0  0
  161.2110  206.5020  150.0510 C   0  0  0  0  0  0  0  0  0  0  0  0
  161.2430  206.8370  147.6550 C   0  0  0  0  0  3  0  0  0  0  0  0
  161.1430  206.1540  152.4470 C   0  0  0  0  0  0  0  0  0  0  0  0
  161.1160  204.7690  152.2470 C   0  0  0  0  0  3  0  0  0  0  0  0
  161.1960  204.8930  146.0590 C   0  0  0  0  0  3  0  0  0  0  0  0
  162.5880  204.4820  145.6040 C   0  0  0  0  0  2  0  0  0  0  0  0
  161.6040  203.4290  146.0560 C   0  0  0  0  0  2  0  0  0  0  0  0
  1 19  1  1  0  0  0
  1  8  1  0  0  0  0
  3  7  1  0  0  0  0
  4  6  1  0  0  0  0
  5  6  2  0  0  0  0
  7  8  1  0  0  0  0
  7  9  2  0  0  0  0
  8  4  2  0  0  0  0
  9  5  1  0  0  0  0
 10  2  2  0  0  0  0
 11 12  2  0  0  0  0
 11 10  1  0  0  0  0
 12 14  1  0  0  0  0
 13  2  1  1  0  0  0
 13 15  1  0  0  0  0
 13  3  1  0  0  0  0
 14 15  2  0  0  0  0
 15  1  1  0  0  0  0
 16 18  1  1  0  0  0
 16 11  1  0  0  0  0
 17 16  1  0  0  0  0
 20 21  1  0  0  0  0
 20 19  1  0  0  0  0
 22 31  1  0  0  0  0
 23 30  1  0  0  0  0
 24 29  1  0  0  0  0
 24 25  2  0  0  0  0
 25 26  1  0  0  0  0
 26 28  1  0  0  0  0
 26 22  2  0  0  0  0
 27 28  1  0  0  0  0
 28 23  2  0  0  0  0
 29 27  2  0  0  0  0
 30 21  1  0  0  0  0
 31 30  2  0  0  0  0
 32 24  1  0  0  0  0
 33 34  1  0  0  0  0
 33 32  1  0  0  0  0
 34 32  1  0  0  0  0
M  END
>  <MODEL>
1

>  <REMARK>
 VINA RESULT:      -9.3      0.000      0.000
  Name = 
  6 active torsions:
  status: ('A' for Active; 'I' for Inactive)
    1  A    between atoms: C_1  and  O_9
    2  A    between atoms: C_3  and  C_25
    3  A    between atoms: C_7  and  C_11
    4  A    between atoms: C_8  and  O_9
    5  A    between atoms: C_8  and  C_18
    6  A    between atoms: C_18  and  C_30
                            x       y       z     vdW  Elec       q    Type
                         _______ _______ _______ _____ _____    ______ ____

>  <TORSDO>
F 6

$$$$
=
 OpenBabel11062409313D

 34 39  0  0  1  0  0  0  0  0999 V2000
  161.1680  208.4670  153.5430 C   0  0  2  0  0  3  0  0  0  0  0  0
  160.8840  211.6610  151.8300 C   0  0  0  0  0  3  0  0  0  0  0  0
  159.2040  210.6120  153.3310 C   0  0  0  0  0  2  0  0  0  0  0  0
  161.4140  209.0250  155.9840 C   0  0  0  0  0  3  0  0  0  0  0  0
  160.1720  210.8450  156.9910 C   0  0  0  0  0  3  0  0  0  0  0  0
  161.0940  209.7990  157.1040 C   0  0  0  0  0  3  0  0  0  0  0  0
  159.8970  210.3560  154.6350 C   0  0  0  0  0  0  0  0  0  0  0  0
  160.8170  209.2990  154.7500 C   0  0  0  0  0  0  0  0  0  0  0  0
  159.5700  211.1190  155.7590 C   0  0  0  0  0  3  0  0  0  0  0  0
  161.5860  211.8270  150.7100 C   0  0  0  0  0  3  0  0  0  0  0  0
  161.7670  210.8060  149.6550 C   0  0  0  0  0  0  0  0  0  0  0  0
  161.8780  209.4860  149.8950 C   0  0  0  0  0  3  0  0  0  0  0  0
  160.1220  210.4120  152.1180 C   0  0  2  0  0  3  0  0  0  0  0  0
  161.7780  208.8090  151.2030 C   0  0  0  0  0  3  0  0  0  0  0  0
  161.0460  209.2220  152.2410 C   0  0  0  0  0  0  0  0  0  0  0  0
  161.9690  211.3180  148.2620 C   0  0  1  0  0  3  0  0  0  0  0  0
  160.7970  212.0410  147.7960 N   0  0  0  0  0  1  0  0  0  0  0  0
  163.1970  212.2050  148.1750 C   0  0  0  0  0  1  0  0  0  0  0  0
  160.5710  207.1850  153.5210 O   0  0  0  0  0  0  0  0  0  0  0  0
  161.5690  206.2090  153.3440 C   0  0  0  0  0  2  0  0  0  0  0  0
  160.9400  204.8580  153.0490 C   0  0  0  0  0  2  0  0  0  0  0  0
  161.0720  202.8580  149.8320 C   0  0  0  0  0  3  0  0  0  0  0  0
  161.2960  205.5270  150.6660 C   0  0  0  0  0  3  0  0  0  0  0  0
  161.5810  204.5640  146.5840 C   0  0  0  0  0  0  0  0  0  0  0  0
  161.3740  203.5520  147.5320 C   0  0  0  0  0  3  0  0  0  0  0  0
  161.2850  203.8660  148.8890 C   0  0  0  0  0  0  0  0  0  0  0  0
  161.5840  206.2220  148.3630 C   0  0  0  0  0  3  0  0  0  0  0  0
  161.3960  205.2110  149.3090 C   0  0  0  0  0  0  0  0  0  0  0  0
  161.6690  205.9000  147.0050 C   0  0  0  0  0  3  0  0  0  0  0  0
  161.0870  204.5120  151.6070 C   0  0  0  0  0  0  0  0  0  0  0  0
  160.9710  203.1820  151.1890 C   0  0  0  0  0  3  0  0  0  0  0  0
  161.6160  204.2320  145.1230 C   0  0  0  0  0  3  0  0  0  0  0  0
  160.2200  204.3190  144.5260 C   0  0  0  0  0  2  0  0  0  0  0  0
  161.2080  205.4370  144.2920 C   0  0  0  0  0  2  0  0  0  0  0  0
  1 19  1  6  0  0  0
  1  8  1  0  0  0  0
  3  7  1  0  0  0  0
  4  6  1  0  0  0  0
  5  6  2  0  0  0  0
  7  8  1  0  0  0  0
  7  9  2  0  0  0  0
  8  4  2  0  0  0  0
  9  5  1  0  0  0  0
 10  2  2  0  0  0  0
 11 12  2  0  0  0  0
 11 10  1  0  0  0  0
 12 14  1  0  0  0  0
 13  2  1  1  0  0  0
 13 15  1  0  0  0  0
 13  3  1  0  0  0  0
 14 15  2  0  0  0  0
 15  1  1  0  0  0  0
 16 18  1  1  0  0  0
 16 11  1  0  0  0  0
 17 16  1  0  0  0  0
 20 19  1  0  0  0  0
 21 20  1  0  0  0  0
 22 31  1  0  0  0  0
 23 30  1  0  0  0  0
 24 29  1  0  0  0  0
 24 25  2  0  0  0  0
 25 26  1  0  0  0  0
 26 28  1  0  0  0  0
 26 22  2  0  0  0  0
 27 28  1  0  0  0  0
 28 23  2  0  0  0  0
 29 27  2  0  0  0  0
 30 21  1  0  0  0  0
 31 30  2  0  0  0  0
 32 24  1  0  0  0  0
 33 32  1  0  0  0  0
 34 33  1  0  0  0  0
 34 32  1  0  0  0  0
M  END
>  <MODEL>
2

>  <REMARK>
 VINA RESULT:      -9.1      1.226      1.666
  Name = 
  6 active torsions:
  status: ('A' for Active; 'I' for Inactive)
    1  A    between atoms: C_1  and  O_9
    2  A    between atoms: C_3  and  C_25
    3  A    between atoms: C_7  and  C_11
    4  A    between atoms: C_8  and  O_9
    5  A    between atoms: C_8  and  C_18
    6  A    between atoms: C_18  and  C_30
                            x       y       z     vdW  Elec       q    Type
                         _______ _______ _______ _____ _____    ______ ____

>  <TORSDO>
F 6

$$$$
=
 OpenBabel11062409313D

 34 39  0  0  1  0  0  0  0  0999 V2000
  161.3180  207.9540  150.8830 C   0  0  2  0  0  3  0  0  0  0  0  0
  160.8520  204.4830  151.8610 C   0  0  0  0  0  3  0  0  0  0  0  0
  162.3640  206.1480  152.9190 C   0  0  0  0  0  2  0  0  0  0  0  0
  160.2840  209.3230  152.7240 C   0  0  0  0  0  3  0  0  0  0  0  0
  160.4950  208.6710  155.0480 C   0  0  0  0  0  3  0  0  0  0  0  0
  160.0150  209.5550  154.0760 C   0  0  0  0  0  3  0  0  0  0  0  0
  161.5070  207.3110  153.3170 C   0  0  0  0  0  0  0  0  0  0  0  0
  161.0310  208.2050  152.3410 C   0  0  0  0  0  0  0  0  0  0  0  0
  161.2450  207.5530  154.6680 C   0  0  0  0  0  3  0  0  0  0  0  0
  160.4400  203.6270  150.9270 C   0  0  0  0  0  3  0  0  0  0  0  0
  160.9090  203.6030  149.5250 C   0  0  0  0  0  0  0  0  0  0  0  0
  161.2250  204.7030  148.8160 C   0  0  0  0  0  3  0  0  0  0  0  0
  161.9140  205.4990  151.6040 C   0  0  2  0  0  3  0  0  0  0  0  0
  161.2310  206.0990  149.2970 C   0  0  0  0  0  3  0  0  0  0  0  0
  161.4810  206.4900  150.5490 C   0  0  0  0  0  0  0  0  0  0  0  0
  160.8920  202.2700  148.8400 C   0  0  1  0  0  3  0  0  0  0  0  0
  159.6670  201.5460  149.1390 N   0  0  0  0  0  1  0  0  0  0  0  0
  161.0550  202.4210  147.3390 C   0  0  0  0  0  1  0  0  0  0  0  0
  162.3210  208.7840  150.3310 O   0  0  0  0  0  0  0  0  0  0  0  0
  161.7660  209.5610  149.2970 C   0  0  0  0  0  2  0  0  0  0  0  0
  162.0490  211.0340  149.5340 C   0  0  0  0  0  2  0  0  0  0  0  0
  162.8570  213.3120  146.6140 C   0  0  0  0  0  3  0  0  0  0  0  0
  160.7490  211.6870  147.5000 C   0  0  0  0  0  3  0  0  0  0  0  0
  160.4200  213.7670  143.8610 C   0  0  0  0  0  0  0  0  0  0  0  0
  161.5840  213.8840  144.6350 C   0  0  0  0  0  3  0  0  0  0  0  0
  161.6950  213.2010  145.8470 C   0  0  0  0  0  0  0  0  0  0  0  0
  159.4820  212.2490  145.5120 C   0  0  0  0  0  3  0  0  0  0  0  0
  160.6330  212.3800  146.2920 C   0  0  0  0  0  0  0  0  0  0  0  0
  159.3780  212.9340  144.2980 C   0  0  0  0  0  3  0  0  0  0  0  0
  161.9140  211.8070  148.2660 C   0  0  0  0  0  0  0  0  0  0  0  0
  162.9660  212.6150  147.8210 C   0  0  0  0  0  3  0  0  0  0  0  0
  160.3270  214.4530  142.5320 C   0  0  0  0  0  3  0  0  0  0  0  0
  160.9020  213.5680  141.4370 C   0  0  0  0  0  2  0  0  0  0  0  0
  159.4050  213.6860  141.5990 C   0  0  0  0  0  2  0  0  0  0  0  0
  1 19  1  1  0  0  0
  1  8  1  0  0  0  0
  3  7  1  0  0  0  0
  4  6  1  0  0  0  0
  6  5  2  0  0  0  0
  7  9  2  0  0  0  0
  8  4  2  0  0  0  0
  8  7  1  0  0  0  0
  9  5  1  0  0  0  0
 10  2  2  0  0  0  0
 11 10  1  0  0  0  0
 12 14  1  0  0  0  0
 12 11  2  0  0  0  0
 13  2  1  1  0  0  0
 13  3  1  0  0  0  0
 14 15  2  0  0  0  0
 15  1  1  0  0  0  0
 15 13  1  0  0  0  0
 16 18  1  6  0  0  0
 16 17  1  0  0  0  0
 16 11  1  0  0  0  0
 20 21  1  0  0  0  0
 20 19  1  0  0  0  0
 22 31  1  0  0  0  0
 23 30  1  0  0  0  0
 24 29  1  0  0  0  0
 24 25  2  0  0  0  0
 25 26  1  0  0  0  0
 26 28  1  0  0  0  0
 26 22  2  0  0  0  0
 27 28  1  0  0  0  0
 28 23  2  0  0  0  0
 29 27  2  0  0  0  0
 30 21  1  0  0  0  0
 31 30  2  0  0  0  0
 32 24  1  0  0  0  0
 33 34  1  0  0  0  0
 33 32  1  0  0  0  0
 34 32  1  0  0  0  0
M  END
>  <MODEL>
3

>  <REMARK>
 VINA RESULT:      -9.0      3.462      7.491
  Name = 
  6 active torsions:
  status: ('A' for Active; 'I' for Inactive)
    1  A    between atoms: C_1  and  O_9
    2  A    between atoms: C_3  and  C_25
    3  A    between atoms: C_7  and  C_11
    4  A    between atoms: C_8  and  O_9
    5  A    between atoms: C_8  and  C_18
    6  A    between atoms: C_18  and  C_30
                            x       y       z     vdW  Elec       q    Type
                         _______ _______ _______ _____ _____    ______ ____

>  <TORSDO>
F 6

$$$$
=
 OpenBabel11062409313D

 34 39  0  0  1  0  0  0  0  0999 V2000
  161.0580  207.7680  153.1050 C   0  0  2  0  0  3  0  0  0  0  0  0
  160.2930  211.2750  153.6820 C   0  0  0  0  0  3  0  0  0  0  0  0
  162.3900  210.3350  152.7350 C   0  0  0  0  0  2  0  0  0  0  0  0
  161.0700  207.4780  150.6050 C   0  0  0  0  0  3  0  0  0  0  0  0
  161.9810  209.1830  149.1450 C   0  0  0  0  0  3  0  0  0  0  0  0
  161.3670  207.9380  149.3190 C   0  0  0  0  0  3  0  0  0  0  0  0
  161.9920  209.5180  151.5430 C   0  0  0  0  0  0  0  0  0  0  0  0
  161.3820  208.2630  151.7190 C   0  0  0  0  0  0  0  0  0  0  0  0
  162.2980  209.9690  150.2570 C   0  0  0  0  0  3  0  0  0  0  0  0
  159.4050  211.5660  154.6310 C   0  0  0  0  0  3  0  0  0  0  0  0
  159.3120  210.8990  155.9480 C   0  0  0  0  0  0  0  0  0  0  0  0
  159.5600  209.5920  156.1510 C   0  0  0  0  0  3  0  0  0  0  0  0
  161.3680  210.2590  153.8770 C   0  0  2  0  0  3  0  0  0  0  0  0
  160.0240  208.6100  155.1500 C   0  0  0  0  0  3  0  0  0  0  0  0
  160.7880  208.8800  154.0890 C   0  0  0  0  0  0  0  0  0  0  0  0
  158.7770  211.7270  157.0770 C   0  0  1  0  0  3  0  0  0  0  0  0
  159.5630  212.9370  157.2550 N   0  0  0  0  0  1  0  0  0  0  0  0
  157.3180  212.0820  156.8540 C   0  0  0  0  0  1  0  0  0  0  0  0
  161.9340  206.7690  153.5910 O   0  0  0  0  0  0  0  0  0  0  0  0
  162.1580  205.8140  152.5820 C   0  0  0  0  0  2  0  0  0  0  0  0
  161.1970  204.6480  152.7380 C   0  0  0  0  0  2  0  0  0  0  0  0
  160.7490  201.7310  150.3590 C   0  0  0  0  0  3  0  0  0  0  0  0
  161.3150  204.4770  150.2460 C   0  0  0  0  0  3  0  0  0  0  0  0
  161.0060  202.2420  146.6990 C   0  0  0  0  0  0  0  0  0  0  0  0
  160.8260  201.6160  147.9410 C   0  0  0  0  0  3  0  0  0  0  0  0
  160.9340  202.3530  149.1220 C   0  0  0  0  0  0  0  0  0  0  0  0
  161.3780  204.3630  147.8270 C   0  0  0  0  0  3  0  0  0  0  0  0
  161.2180  203.7370  149.0650 C   0  0  0  0  0  0  0  0  0  0  0  0
  161.2660  203.6200  146.6480 C   0  0  0  0  0  3  0  0  0  0  0  0
  161.1320  203.8470  151.4820 C   0  0  0  0  0  0  0  0  0  0  0  0
  160.8460  202.4780  151.5370 C   0  0  0  0  0  3  0  0  0  0  0  0
  160.8300  201.4620  145.4310 C   0  0  0  0  0  3  0  0  0  0  0  0
  159.4200  200.8970  145.3480 C   0  0  0  0  0  2  0  0  0  0  0  0
  159.7880  202.1190  144.5410 C   0  0  0  0  0  2  0  0  0  0  0  0
  1 19  1  1  0  0  0
  1 15  1  0  0  0  0
  2 13  1  0  0  0  0
  2 10  2  0  0  0  0
  4  8  1  0  0  0  0
  5  6  1  0  0  0  0
  5  9  2  0  0  0  0
  6  4  2  0  0  0  0
  7  8  2  0  0  0  0
  7  3  1  0  0  0  0
  8  1  1  0  0  0  0
  9  7  1  0  0  0  0
 10 11  1  0  0  0  0
 11 12  2  0  0  0  0
 11 16  1  0  0  0  0
 13  3  1  6  0  0  0
 13 15  1  0  0  0  0
 14 12  1  0  0  0  0
 15 14  2  0  0  0  0
 16 18  1  6  0  0  0
 16 17  1  0  0  0  0
 20 21  1  0  0  0  0
 20 19  1  0  0  0  0
 22 31  1  0  0  0  0
 23 30  1  0  0  0  0
 24 25  2  0  0  0  0
 25 26  1  0  0  0  0
 26 22  2  0  0  0  0
 27 28  1  0  0  0  0
 28 26  1  0  0  0  0
 28 23  2  0  0  0  0
 29 24  1  0  0  0  0
 29 27  2  0  0  0  0
 30 31  2  0  0  0  0
 30 21  1  0  0  0  0
 32 24  1  0  0  0  0
 33 32  1  0  0  0  0
 34 33  1  0  0  0  0
 34 32  1  0  0  0  0
M  END
>  <MODEL>
4

>  <REMARK>
 VINA RESULT:      -8.8      2.293      5.139
  Name = 
  6 active torsions:
  status: ('A' for Active; 'I' for Inactive)
    1  A    between atoms: C_1  and  O_9
    2  A    between atoms: C_3  and  C_25
    3  A    between atoms: C_7  and  C_11
    4  A    between atoms: C_8  and  O_9
    5  A    between atoms: C_8  and  C_18
    6  A    between atoms: C_18  and  C_30
                            x       y       z     vdW  Elec       q    Type
                         _______ _______ _______ _____ _____    ______ ____

>  <TORSDO>
F 6

$$$$
=
 OpenBabel11062409313D

 34 39  0  0  1  0  0  0  0  0999 V2000
  160.5800  211.5880  153.9200 C   0  0  2  0  0  3  0  0  0  0  0  0
  157.6120  211.9870  155.9810 C   0  0  0  0  0  3  0  0  0  0  0  0
  158.7110  209.8540  155.3350 C   0  0  0  0  0  2  0  0  0  0  0  0
  162.3900  210.7980  155.4810 C   0  0  0  0  0  3  0  0  0  0  0  0
  161.9180  209.2240  157.2610 C   0  0  0  0  0  3  0  0  0  0  0  0
  162.8240  210.0330  156.5680 C   0  0  0  0  0  3  0  0  0  0  0  0
  160.1360  209.9520  155.7910 C   0  0  0  0  0  0  0  0  0  0  0  0
  161.0480  210.7590  155.0890 C   0  0  0  0  0  0  0  0  0  0  0  0
  160.5770  209.1800  156.8690 C   0  0  0  0  0  3  0  0  0  0  0  0
  156.8800  213.0860  155.8050 C   0  0  0  0  0  3  0  0  0  0  0  0
  156.5630  213.7010  154.4970 C   0  0  0  0  0  0  0  0  0  0  0  0
  157.4070  213.7230  153.4490 C   0  0  0  0  0  3  0  0  0  0  0  0
  158.1510  211.1930  154.8390 C   0  0  2  0  0  3  0  0  0  0  0  0
  158.7450  213.1020  153.3730 C   0  0  0  0  0  3  0  0  0  0  0  0
  159.1320  212.0020  154.0230 C   0  0  0  0  0  0  0  0  0  0  0  0
  155.2690  214.4520  154.4120 C   0  0  1  0  0  3  0  0  0  0  0  0
  154.4550  213.9650  153.3100 N   0  0  0  0  0  1  0  0  0  0  0  0
  154.4930  214.3600  155.7130 C   0  0  0  0  0  1  0  0  0  0  0  0
  160.9420  211.0720  152.6530 O   0  0  0  0  0  0  0  0  0  0  0  0
  160.6790  209.6900  152.6210 C   0  0  0  0  0  2  0  0  0  0  0  0
  161.9680  208.9120  152.4180 C   0  0  0  0  0  2  0  0  0  0  0  0
  161.1120  205.2210  152.5250 C   0  0  0  0  0  3  0  0  0  0  0  0
  161.6200  207.2140  150.6160 C   0  0  0  0  0  3  0  0  0  0  0  0
  160.6750  203.3070  149.3840 C   0  0  0  0  0  0  0  0  0  0  0  0
  160.7380  203.6170  150.7500 C   0  0  0  0  0  3  0  0  0  0  0  0
  161.0570  204.9110  151.1640 C   0  0  0  0  0  0  0  0  0  0  0  0
  161.2310  205.6110  148.8410 C   0  0  0  0  0  3  0  0  0  0  0  0
  161.3110  205.9150  150.2020 C   0  0  0  0  0  0  0  0  0  0  0  0
  160.9070  204.3130  148.4340 C   0  0  0  0  0  3  0  0  0  0  0  0
  161.6780  207.5170  151.9810 C   0  0  0  0  0  0  0  0  0  0  0  0
  161.4200  206.5230  152.9320 C   0  0  0  0  0  3  0  0  0  0  0  0
  160.2730  201.9320  148.9420 C   0  0  0  0  0  3  0  0  0  0  0  0
  161.5030  201.0680  148.7140 C   0  0  0  0  0  2  0  0  0  0  0  0
  160.6880  200.8980  149.9740 C   0  0  0  0  0  2  0  0  0  0  0  0
  1 19  1  6  0  0  0
  1 15  1  0  0  0  0
  1  8  1  0  0  0  0
  3  7  1  0  0  0  0
  4  6  1  0  0  0  0
  6  5  2  0  0  0  0
  7  9  2  0  0  0  0
  8  4  2  0  0  0  0
  8  7  1  0  0  0  0
  9  5  1  0  0  0  0
 10  2  2  0  0  0  0
 11 10  1  0  0  0  0
 12 11  2  0  0  0  0
 13  3  1  1  0  0  0
 13  2  1  0  0  0  0
 14 12  1  0  0  0  0
 14 15  2  0  0  0  0
 15 13  1  0  0  0  0
 16 11  1  0  0  0  0
 16 18  1  1  0  0  0
 17 16  1  0  0  0  0
 20 19  1  0  0  0  0
 21 20  1  0  0  0  0
 22 31  1  0  0  0  0
 23 30  1  0  0  0  0
 24 25  2  0  0  0  0
 25 26  1  0  0  0  0
 26 22  2  0  0  0  0
 27 28  1  0  0  0  0
 28 23  2  0  0  0  0
 28 26  1  0  0  0  0
 29 27  2  0  0  0  0
 29 24  1  0  0  0  0
 30 21  1  0  0  0  0
 30 31  2  0  0  0  0
 32 24  1  0  0  0  0
 32 34  1  0  0  0  0
 33 32  1  0  0  0  0
 33 34  1  0  0  0  0
M  END
>  <MODEL>
5

>  <REMARK>
 VINA RESULT:      -8.8      2.655      4.531
  Name = 
  6 active torsions:
  status: ('A' for Active; 'I' for Inactive)
    1  A    between atoms: C_1  and  O_9
    2  A    between atoms: C_3  and  C_25
    3  A    between atoms: C_7  and  C_11
    4  A    between atoms: C_8  and  O_9
    5  A    between atoms: C_8  and  C_18
    6  A    between atoms: C_18  and  C_30
                            x       y       z     vdW  Elec       q    Type
                         _______ _______ _______ _____ _____    ______ ____

>  <TORSDO>
F 6

$$$$
=
 OpenBabel11062409313D

 34 39  0  0  1  0  0  0  0  0999 V2000
  161.9350  210.1370  152.9530 C   0  0  2  0  0  3  0  0  0  0  0  0
  160.0590  212.8160  151.3660 C   0  0  0  0  0  3  0  0  0  0  0  0
  159.1750  211.0770  152.9060 C   0  0  0  0  0  2  0  0  0  0  0  0
  162.0230  210.7250  155.3990 C   0  0  0  0  0  3  0  0  0  0  0  0
  160.1200  211.7160  156.5240 C   0  0  0  0  0  3  0  0  0  0  0  0
  161.4340  211.2410  156.5580 C   0  0  0  0  0  3  0  0  0  0  0  0
  159.9800  211.1750  154.1670 C   0  0  0  0  0  0  0  0  0  0  0  0
  161.2990  210.6890  154.2030 C   0  0  0  0  0  0  0  0  0  0  0  0
  159.3910  211.6780  155.3310 C   0  0  0  0  0  3  0  0  0  0  0  0
  160.5310  213.3080  150.2220 C   0  0  0  0  0  3  0  0  0  0  0  0
  161.1190  212.5080  149.1260 C   0  0  0  0  0  0  0  0  0  0  0  0
  161.8620  211.4020  149.3140 C   0  0  0  0  0  3  0  0  0  0  0  0
  160.0070  211.3520  151.6470 C   0  0  2  0  0  3  0  0  0  0  0  0
  162.1730  210.7490  150.6020 C   0  0  0  0  0  3  0  0  0  0  0  0
  161.3930  210.7520  151.6850 C   0  0  0  0  0  0  0  0  0  0  0  0
  160.9720  213.0650  147.7420 C   0  0  1  0  0  3  0  0  0  0  0  0
  162.2680  213.2190  147.1010 N   0  0  0  0  0  1  0  0  0  0  0  0
  160.0700  212.1910  146.8910 C   0  0  0  0  0  1  0  0  0  0  0  0
  162.0260  208.7260  152.9160 O   0  0  0  0  0  0  0  0  0  0  0  0
  160.7430  208.1820  152.7170 C   0  0  0  0  0  2  0  0  0  0  0  0
  160.7810  206.6710  152.8740 C   0  0  0  0  0  2  0  0  0  0  0  0
  161.1380  203.9950  150.2130 C   0  0  0  0  0  3  0  0  0  0  0  0
  161.2170  206.7920  150.4140 C   0  0  0  0  0  3  0  0  0  0  0  0
  161.7240  204.9320  146.6780 C   0  0  0  0  0  0  0  0  0  0  0  0
  161.5160  204.1550  147.8270 C   0  0  0  0  0  3  0  0  0  0  0  0
  161.3530  204.7680  149.0700 C   0  0  0  0  0  0  0  0  0  0  0  0
  161.5810  206.9520  148.0240 C   0  0  0  0  0  3  0  0  0  0  0  0
  161.3910  206.1770  149.1710 C   0  0  0  0  0  0  0  0  0  0  0  0
  161.7400  206.3310  146.7810 C   0  0  0  0  0  3  0  0  0  0  0  0
  161.0060  206.0110  151.5560 C   0  0  0  0  0  0  0  0  0  0  0  0
  160.9620  204.6160  151.4540 C   0  0  0  0  0  3  0  0  0  0  0  0
  161.8380  204.2750  145.3360 C   0  0  0  0  0  3  0  0  0  0  0  0
  160.4600  204.0670  144.7290 C   0  0  0  0  0  2  0  0  0  0  0  0
  161.3310  205.2020  144.2440 C   0  0  0  0  0  2  0  0  0  0  0  0
  1 19  1  6  0  0  0
  1  8  1  0  0  0  0
  3  7  1  0  0  0  0
  4  6  1  0  0  0  0
  5  6  2  0  0  0  0
  7  8  1  0  0  0  0
  7  9  2  0  0  0  0
  8  4  2  0  0  0  0
  9  5  1  0  0  0  0
 10  2  2  0  0  0  0
 11 12  2  0  0  0  0
 11 10  1  0  0  0  0
 12 14  1  0  0  0  0
 13  2  1  1  0  0  0
 13 15  1  0  0  0  0
 13  3  1  0  0  0  0
 14 15  2  0  0  0  0
 15  1  1  0  0  0  0
 16 18  1  6  0  0  0
 16 11  1  0  0  0  0
 17 16  1  0  0  0  0
 20 21  1  0  0  0  0
 20 19  1  0  0  0  0
 22 31  1  0  0  0  0
 23 30  1  0  0  0  0
 24 29  1  0  0  0  0
 24 25  2  0  0  0  0
 25 26  1  0  0  0  0
 26 28  1  0  0  0  0
 26 22  2  0  0  0  0
 27 28  1  0  0  0  0
 28 23  2  0  0  0  0
 29 27  2  0  0  0  0
 30 21  1  0  0  0  0
 31 30  2  0  0  0  0
 32 24  1  0  0  0  0
 33 32  1  0  0  0  0
 34 33  1  0  0  0  0
 34 32  1  0  0  0  0
M  END
>  <MODEL>
6

>  <REMARK>
 VINA RESULT:      -8.7      1.089      1.388
  Name = 
  6 active torsions:
  status: ('A' for Active; 'I' for Inactive)
    1  A    between atoms: C_1  and  O_9
    2  A    between atoms: C_3  and  C_25
    3  A    between atoms: C_7  and  C_11
    4  A    between atoms: C_8  and  O_9
    5  A    between atoms: C_8  and  C_18
    6  A    between atoms: C_18  and  C_30
                            x       y       z     vdW  Elec       q    Type
                         _______ _______ _______ _____ _____    ______ ____

>  <TORSDO>
F 6

$$$$
=
 OpenBabel11062409313D

 34 39  0  0  1  0  0  0  0  0999 V2000
  160.3660  211.2650  152.3290 C   0  0  2  0  0  3  0  0  0  0  0  0
  160.1200  214.2800  150.3120 C   0  0  0  0  0  3  0  0  0  0  0  0
  158.2790  213.1400  151.5330 C   0  0  0  0  0  2  0  0  0  0  0  0
  160.0350  212.0110  154.7100 C   0  0  0  0  0  3  0  0  0  0  0  0
  158.4270  213.7320  155.2770 C   0  0  0  0  0  3  0  0  0  0  0  0
  159.4080  212.8140  155.6670 C   0  0  0  0  0  3  0  0  0  0  0  0
  158.7060  213.0570  152.9680 C   0  0  0  0  0  0  0  0  0  0  0  0
  159.6860  212.1280  153.3610 C   0  0  0  0  0  0  0  0  0  0  0  0
  158.0730  213.8490  153.9300 C   0  0  0  0  0  3  0  0  0  0  0  0
  161.0210  214.4530  149.3460 C   0  0  0  0  0  3  0  0  0  0  0  0
  161.5230  213.3930  148.4470 C   0  0  0  0  0  0  0  0  0  0  0  0
  161.7170  212.1140  148.8220 C   0  0  0  0  0  3  0  0  0  0  0  0
  159.4470  212.9700  150.5540 C   0  0  2  0  0  3  0  0  0  0  0  0
  161.4150  211.5190  150.1390 C   0  0  0  0  0  3  0  0  0  0  0  0
  160.4430  211.9110  150.9660 C   0  0  0  0  0  0  0  0  0  0  0  0
  161.9600  213.8300  147.0820 C   0  0  1  0  0  3  0  0  0  0  0  0
  162.8650  212.8600  146.4880 N   0  0  0  0  0  1  0  0  0  0  0  0
  160.7680  214.0560  146.1700 C   0  0  0  0  0  1  0  0  0  0  0  0
  159.9220  209.9210  152.3040 O   0  0  0  0  0  0  0  0  0  0  0  0
  160.8180  209.1220  153.0380 C   0  0  0  0  0  2  0  0  0  0  0  0
  161.9790  208.6890  152.1600 C   0  0  0  0  0  2  0  0  0  0  0  0
  161.1040  206.4860  149.2030 C   0  0  0  0  0  3  0  0  0  0  0  0
  161.5030  206.2410  151.9690 C   0  0  0  0  0  3  0  0  0  0  0  0
  160.5860  202.8470  149.6640 C   0  0  0  0  0  0  0  0  0  0  0  0
  160.6930  204.1040  149.0520 C   0  0  0  0  0  3  0  0  0  0  0  0
  160.9910  205.2350  149.8140 C   0  0  0  0  0  0  0  0  0  0  0  0
  161.1060  203.8560  151.8140 C   0  0  0  0  0  3  0  0  0  0  0  0
  161.1940  205.1110  151.2070 C   0  0  0  0  0  0  0  0  0  0  0  0
  160.8100  202.7270  151.0440 C   0  0  0  0  0  3  0  0  0  0  0  0
  161.6100  207.4920  151.3510 C   0  0  0  0  0  0  0  0  0  0  0  0
  161.4150  207.6120  149.9710 C   0  0  0  0  0  3  0  0  0  0  0  0
  160.3260  201.6250  148.8350 C   0  0  0  0  0  3  0  0  0  0  0  0
  161.2060  201.6300  147.5950 C   0  0  0  0  0  2  0  0  0  0  0  0
  161.5680  200.7520  148.7700 C   0  0  0  0  0  2  0  0  0  0  0  0
  1 19  1  6  0  0  0
  1  8  1  0  0  0  0
  3  7  1  0  0  0  0
  4  6  1  0  0  0  0
  5  6  2  0  0  0  0
  7  8  1  0  0  0  0
  7  9  2  0  0  0  0
  8  4  2  0  0  0  0
  9  5  1  0  0  0  0
 10  2  2  0  0  0  0
 11 12  2  0  0  0  0
 11 10  1  0  0  0  0
 12 14  1  0  0  0  0
 13  2  1  1  0  0  0
 13 15  1  0  0  0  0
 13  3  1  0  0  0  0
 14 15  2  0  0  0  0
 15  1  1  0  0  0  0
 16 18  1  6  0  0  0
 16 11  1  0  0  0  0
 17 16  1  0  0  0  0
 19 20  1  0  0  0  0
 21 20  1  0  0  0  0
 22 26  2  0  0  0  0
 22 31  1  0  0  0  0
 24 29  1  0  0  0  0
 25 24  2  0  0  0  0
 25 26  1  0  0  0  0
 26 28  1  0  0  0  0
 28 27  1  0  0  0  0
 28 23  2  0  0  0  0
 29 27  2  0  0  0  0
 30 23  1  0  0  0  0
 30 21  1  0  0  0  0
 31 30  2  0  0  0  0
 32 24  1  0  0  0  0
 33 34  1  0  0  0  0
 33 32  1  0  0  0  0
 34 32  1  0  0  0  0
M  END
>  <MODEL>
7

>  <REMARK>
 VINA RESULT:      -8.5      1.802      2.761
  Name = 
  6 active torsions:
  status: ('A' for Active; 'I' for Inactive)
    1  A    between atoms: C_1  and  O_9
    2  A    between atoms: C_3  and  C_25
    3  A    between atoms: C_7  and  C_11
    4  A    between atoms: C_8  and  O_9
    5  A    between atoms: C_8  and  C_18
    6  A    between atoms: C_18  and  C_30
                            x       y       z     vdW  Elec       q    Type
                         _______ _______ _______ _____ _____    ______ ____

>  <TORSDO>
F 6

$$$$
=
 OpenBabel11062409313D

 34 39  0  0  1  0  0  0  0  0999 V2000
  161.9470  213.0870  147.7690 C   0  0  2  0  0  3  0  0  0  0  0  0
  159.8540  213.9820  144.9340 C   0  0  0  0  0  3  0  0  0  0  0  0
  159.3020  212.3890  146.7600 C   0  0  0  0  0  2  0  0  0  0  0  0
  160.8350  214.1080  149.7830 C   0  0  0  0  0  3  0  0  0  0  0  0
  158.4230  214.1410  150.0080 C   0  0  0  0  0  3  0  0  0  0  0  0
  159.6910  214.4530  150.5090 C   0  0  0  0  0  3  0  0  0  0  0  0
  159.4380  213.1490  148.0450 C   0  0  0  0  0  0  0  0  0  0  0  0
  160.7130  213.4540  148.5530 C   0  0  0  0  0  0  0  0  0  0  0  0
  158.2980  213.4840  148.7800 C   0  0  0  0  0  3  0  0  0  0  0  0
  160.4610  214.4090  143.8270 C   0  0  0  0  0  3  0  0  0  0  0  0
  161.7040  213.8410  143.2620 C   0  0  0  0  0  0  0  0  0  0  0  0
  162.7200  213.3620  144.0040 C   0  0  0  0  0  3  0  0  0  0  0  0
  160.3400  212.8040  145.7090 C   0  0  2  0  0  3  0  0  0  0  0  0
  162.7680  213.2460  145.4750 C   0  0  0  0  0  3  0  0  0  0  0  0
  161.7190  213.0520  146.2770 C   0  0  0  0  0  0  0  0  0  0  0  0
  161.8670  213.9450  141.7760 C   0  0  1  0  0  3  0  0  0  0  0  0
  163.2700  213.8850  141.4000 N   0  0  0  0  0  1  0  0  0  0  0  0
  161.0880  212.8570  141.0600 C   0  0  0  0  0  1  0  0  0  0  0  0
  162.6470  211.9650  148.2700 O   0  0  0  0  0  0  0  0  0  0  0  0
  161.7760  210.8610  148.3300 C   0  0  0  0  0  2  0  0  0  0  0  0
  161.9370  210.1350  149.6550 C   0  0  0  0  0  2  0  0  0  0  0  0
  161.6600  206.7160  148.0420 C   0  0  0  0  0  3  0  0  0  0  0  0
  161.4900  207.8620  150.5970 C   0  0  0  0  0  3  0  0  0  0  0  0
  161.0320  203.7110  150.1150 C   0  0  0  0  0  0  0  0  0  0  0  0
  161.2700  204.5250  148.9990 C   0  0  0  0  0  3  0  0  0  0  0  0
  161.4160  205.9050  149.1530 C   0  0  0  0  0  0  0  0  0  0  0  0
  161.1140  205.6680  151.5550 C   0  0  0  0  0  3  0  0  0  0  0  0
  161.3330  206.4820  150.4410 C   0  0  0  0  0  0  0  0  0  0  0  0
  160.9710  204.2870  151.3930 C   0  0  0  0  0  3  0  0  0  0  0  0
  161.7300  208.6690  149.4790 C   0  0  0  0  0  0  0  0  0  0  0  0
  161.8190  208.0960  148.2060 C   0  0  0  0  0  3  0  0  0  0  0  0
  160.9360  202.2230  149.9540 C   0  0  0  0  0  3  0  0  0  0  0  0
  159.6260  201.8480  149.2800 C   0  0  0  0  0  2  0  0  0  0  0  0
  160.9080  201.8480  148.4820 C   0  0  0  0  0  2  0  0  0  0  0  0
  1 19  1  1  0  0  0
  1  8  1  0  0  0  0
  3  7  1  0  0  0  0
  4  6  1  0  0  0  0
  5  6  2  0  0  0  0
  7  8  1  0  0  0  0
  7  9  2  0  0  0  0
  8  4  2  0  0  0  0
  9  5  1  0  0  0  0
 10  2  2  0  0  0  0
 11 10  1  0  0  0  0
 11 12  2  0  0  0  0
 12 14  1  0  0  0  0
 13  2  1  1  0  0  0
 13 15  1  0  0  0  0
 13  3  1  0  0  0  0
 14 15  2  0  0  0  0
 15  1  1  0  0  0  0
 16 18  1  6  0  0  0
 16 11  1  0  0  0  0
 17 16  1  0  0  0  0
 19 20  1  0  0  0  0
 20 21  1  0  0  0  0
 22 31  2  0  0  0  0
 22 26  1  0  0  0  0
 24 29  1  0  0  0  0
 25 26  1  0  0  0  0
 25 24  2  0  0  0  0
 26 28  2  0  0  0  0
 28 23  1  0  0  0  0
 28 27  1  0  0  0  0
 29 27  2  0  0  0  0
 30 21  1  0  0  0  0
 30 23  2  0  0  0  0
 31 30  1  0  0  0  0
 32 24  1  0  0  0  0
 33 32  1  0  0  0  0
 34 33  1  0  0  0  0
 34 32  1  0  0  0  0
M  END
>  <MODEL>
8

>  <REMARK>
 VINA RESULT:      -8.3      3.642      5.786
  Name = 
  6 active torsions:
  status: ('A' for Active; 'I' for Inactive)
    1  A    between atoms: C_1  and  O_9
    2  A    between atoms: C_3  and  C_25
    3  A    between atoms: C_7  and  C_11
    4  A    between atoms: C_8  and  O_9
    5  A    between atoms: C_8  and  C_18
    6  A    between atoms: C_18  and  C_30
                            x       y       z     vdW  Elec       q    Type
                         _______ _______ _______ _____ _____    ______ ____

>  <TORSDO>
F 6

$$$$
=
 OpenBabel11062409313D

 34 39  0  0  1  0  0  0  0  0999 V2000
  160.7570  211.3960  153.7430 C   0  0  2  0  0  3  0  0  0  0  0  0
  157.8840  212.0790  155.8640 C   0  0  0  0  0  3  0  0  0  0  0  0
  158.9140  209.8640  155.4040 C   0  0  0  0  0  2  0  0  0  0  0  0
  162.6130  210.7310  155.3080 C   0  0  0  0  0  3  0  0  0  0  0  0
  162.1840  209.3640  157.2610 C   0  0  0  0  0  3  0  0  0  0  0  0
  163.0760  210.0740  156.4510 C   0  0  0  0  0  3  0  0  0  0  0  0
  160.3580  209.9760  155.7920 C   0  0  0  0  0  0  0  0  0  0  0  0
  161.2560  210.6830  154.9740 C   0  0  0  0  0  0  0  0  0  0  0  0
  160.8270  209.3100  156.9280 C   0  0  0  0  0  3  0  0  0  0  0  0
  157.1670  213.1710  155.6000 C   0  0  0  0  0  3  0  0  0  0  0  0
  156.8080  213.6520  154.2490 C   0  0  0  0  0  0  0  0  0  0  0  0
  157.6100  213.5440  153.1720 C   0  0  0  0  0  3  0  0  0  0  0  0
  158.3600  211.1570  154.7920 C   0  0  2  0  0  3  0  0  0  0  0  0
  158.9310  212.8880  153.1100 C   0  0  0  0  0  3  0  0  0  0  0  0
  159.3230  211.8530  153.8570 C   0  0  0  0  0  0  0  0  0  0  0  0
  155.5270  214.4200  154.1340 C   0  0  1  0  0  3  0  0  0  0  0  0
  154.7920  214.0340  152.9410 N   0  0  0  0  0  1  0  0  0  0  0  0
  154.6600  214.2290  155.3650 C   0  0  0  0  0  1  0  0  0  0  0  0
  161.0570  210.7410  152.5250 O   0  0  0  0  0  0  0  0  0  0  0  0
  160.2330  209.6090  152.3900 C   0  0  0  0  0  2  0  0  0  0  0  0
  161.0680  208.3410  152.4340 C   0  0  0  0  0  2  0  0  0  0  0  0
  161.8490  208.0680  148.7350 C   0  0  0  0  0  3  0  0  0  0  0  0
  161.0360  206.4090  150.8460 C   0  0  0  0  0  3  0  0  0  0  0  0
  161.6470  204.7940  147.0140 C   0  0  0  0  0  0  0  0  0  0  0  0
  161.8490  206.1630  147.2390 C   0  0  0  0  0  3  0  0  0  0  0  0
  161.6410  206.7050  148.5090 C   0  0  0  0  0  0  0  0  0  0  0  0
  161.0500  204.5020  149.3520 C   0  0  0  0  0  3  0  0  0  0  0  0
  161.2330  205.8690  149.5730 C   0  0  0  0  0  0  0  0  0  0  0  0
  161.2630  203.9650  148.0790 C   0  0  0  0  0  3  0  0  0  0  0  0
  161.2410  207.7760  151.0660 C   0  0  0  0  0  0  0  0  0  0  0  0
  161.6510  208.6020  150.0130 C   0  0  0  0  0  3  0  0  0  0  0  0
  161.9300  204.2040  145.6650 C   0  0  0  0  0  3  0  0  0  0  0  0
  160.6530  204.1260  144.8430 C   0  0  0  0  0  2  0  0  0  0  0  0
  161.6560  205.2220  144.5700 C   0  0  0  0  0  2  0  0  0  0  0  0
  1 19  1  6  0  0  0
  1 15  1  0  0  0  0
  1  8  1  0  0  0  0
  3  7  1  0  0  0  0
  4  6  1  0  0  0  0
  6  5  2  0  0  0  0
  7  9  2  0  0  0  0
  8  4  2  0  0  0  0
  8  7  1  0  0  0  0
  9  5  1  0  0  0  0
 10  2  2  0  0  0  0
 11 10  1  0  0  0  0
 12 11  2  0  0  0  0
 13  3  1  1  0  0  0
 13  2  1  0  0  0  0
 14 12  1  0  0  0  0
 14 15  2  0  0  0  0
 15 13  1  0  0  0  0
 16 11  1  0  0  0  0
 16 18  1  1  0  0  0
 17 16  1  0  0  0  0
 20 21  1  0  0  0  0
 20 19  1  0  0  0  0
 22 31  1  0  0  0  0
 23 30  1  0  0  0  0
 24 25  2  0  0  0  0
 24 29  1  0  0  0  0
 25 26  1  0  0  0  0
 26 22  2  0  0  0  0
 26 28  1  0  0  0  0
 27 28  1  0  0  0  0
 28 23  2  0  0  0  0
 29 27  2  0  0  0  0
 30 21  1  0  0  0  0
 31 30  2  0  0  0  0
 32 24  1  0  0  0  0
 33 32  1  0  0  0  0
 34 33  1  0  0  0  0
 34 32  1  0  0  0  0
M  END
>  <MODEL>
9

>  <REMARK>
 VINA RESULT:      -8.2      2.321      4.326
  Name = 
  6 active torsions:
  status: ('A' for Active; 'I' for Inactive)
    1  A    between atoms: C_1  and  O_9
    2  A    between atoms: C_3  and  C_25
    3  A    between atoms: C_7  and  C_11
    4  A    between atoms: C_8  and  O_9
    5  A    between atoms: C_8  and  C_18
    6  A    between atoms: C_18  and  C_30
                            x       y       z     vdW  Elec       q    Type
                         _______ _______ _______ _____ _____    ______ ____

>  <TORSDO>
F 6

$$$$
