=
 OpenBabel11052422193D

 25 28  0  0  1  0  0  0  0  0999 V2000
  161.4460  205.8110  148.5520 C   0  0  0  0  0  0  0  0  0  0  0  0
  161.4140  206.9830  149.3190 C   0  0  0  0  0  0  0  0  0  0  0  0
  160.9420  204.4150  150.4540 C   0  0  0  0  0  3  0  0  0  0  0  0
  161.8030  205.6060  147.1200 C   0  0  1  0  0  3  0  0  0  0  0  0
  161.9510  209.4940  149.0830 C   0  0  0  0  0  0  0  0  0  0  0  0
  160.9110  204.2450  144.7430 C   0  0  0  0  0  3  0  0  0  0  0  0
  160.8660  205.5680  151.2460 C   0  0  0  0  0  3  0  0  0  0  0  0
  161.6320  204.1140  147.0280 C   0  0  0  0  0  0  0  0  0  0  0  0
  161.4180  203.4840  145.7210 C   0  0  0  0  0  3  0  0  0  0  0  0
  160.9850  208.0590  151.5890 C   0  0  1  0  0  3  0  0  0  0  0  0
  160.7750  207.7000  152.9230 O   0  0  0  0  0  1  0  0  0  0  0  0
  161.6620  208.2650  148.6170 C   0  0  0  0  0  3  0  0  0  0  0  0
  160.5310  205.6600  144.9970 C   0  0  0  0  0  3  0  0  0  0  0  0
  161.2500  204.5700  149.1100 C   0  0  0  0  0  0  0  0  0  0  0  0
  161.3280  203.5320  148.1450 N   0  0  0  0  0  0  0  0  0  0  0  0
  162.2600  208.8580  151.4880 C   0  0  0  0  0  2  0  0  0  0  0  0
  160.8880  206.2850  146.1320 C   0  0  0  0  0  3  0  0  0  0  0  0
  162.1440  209.8020  150.4370 O   0  0  0  0  0  0  0  0  0  0  0  0
  161.1010  206.8540  150.7020 C   0  0  0  0  0  0  0  0  0  0  0  0
  162.0770  210.5740  148.1500 N   0  0  0  0  0  2  0  0  0  0  0  0
  160.4090  212.2070  147.4260 C   0  0  0  0  0  1  0  0  0  0  0  0
  161.5620  211.9210  148.3740 C   0  0  2  0  0  3  0  0  0  0  0  0
  162.6490  212.9230  148.1750 C   0  0  0  0  0  0  0  0  0  0  0  0
  162.3460  214.3110  148.2340 N   0  0  0  0  0  1  0  0  0  0  0  0
  163.8320  212.5510  147.9460 O   0  0  0  0  0  0  0  0  0  0  0  0
  1 14  2  0  0  0  0
  1  2  1  0  0  0  0
  2 19  2  0  0  0  0
  3  7  2  0  0  0  0
  4 17  1  6  0  0  0
  4  1  1  0  0  0  0
  5 18  1  0  0  0  0
  6 13  1  0  0  0  0
  6  9  2  0  0  0  0
  8  4  1  0  0  0  0
  8 15  2  0  0  0  0
  9  8  1  0  0  0  0
 10 11  1  1  0  0  0
 12  5  2  0  0  0  0
 12  2  1  0  0  0  0
 13 17  2  0  0  0  0
 14  3  1  0  0  0  0
 15 14  1  0  0  0  0
 16 10  1  0  0  0  0
 18 16  1  0  0  0  0
 19  7  1  0  0  0  0
 19 10  1  0  0  0  0
 20 22  1  0  0  0  0
 20  5  1  0  0  0  0
 22 21  1  6  0  0  0
 23 24  1  0  0  0  0
 23 22  1  0  0  0  0
 25 23  2  0  0  0  0
M  END
>  <MODEL>
1

>  <REMARK>
 VINA RESULT:      -9.9      0.000      0.000
  Name = 
  3 active torsions:
  status: ('A' for Active; 'I' for Inactive)
    1  A    between atoms: C_2  and  C_25
    2  A    between atoms: C_6  and  N_15
    3  A    between atoms: N_15  and  C_25
                            x       y       z     vdW  Elec       q    Type
                         _______ _______ _______ _____ _____    ______ ____

>  <TORSDO>
F 3

$$$$
=
 OpenBabel11052422193D

 25 28  0  0  1  0  0  0  0  0999 V2000
  161.2620  204.2750  148.2540 C   0  0  0  0  0  0  0  0  0  0  0  0
  161.0480  204.6450  149.5890 C   0  0  0  0  0  0  0  0  0  0  0  0
  161.0380  201.9240  148.7500 C   0  0  0  0  0  3  0  0  0  0  0  0
  161.6190  205.1050  147.0700 C   0  0  1  0  0  3  0  0  0  0  0  0
  161.1500  206.7470  151.0790 C   0  0  0  0  0  0  0  0  0  0  0  0
  160.9210  205.5110  144.3050 C   0  0  0  0  0  3  0  0  0  0  0  0
  160.7850  202.2580  150.0870 C   0  0  0  0  0  3  0  0  0  0  0  0
  161.7000  204.0270  146.0220 C   0  0  0  0  0  0  0  0  0  0  0  0
  161.5690  204.3780  144.6040 C   0  0  0  0  0  3  0  0  0  0  0  0
  160.4900  203.9100  151.9640 C   0  0  1  0  0  3  0  0  0  0  0  0
  160.3690  202.7440  152.7250 O   0  0  0  0  0  1  0  0  0  0  0  0
  161.0620  206.0930  149.9060 C   0  0  0  0  0  3  0  0  0  0  0  0
  160.3150  206.3480  145.3740 C   0  0  0  0  0  3  0  0  0  0  0  0
  161.2890  202.9590  147.8590 C   0  0  0  0  0  0  0  0  0  0  0  0
  161.5210  202.8230  146.4660 N   0  0  0  0  0  0  0  0  0  0  0  0
  161.6090  204.7500  152.5230 C   0  0  0  0  0  2  0  0  0  0  0  0
  160.5840  206.1260  146.6710 C   0  0  0  0  0  3  0  0  0  0  0  0
  161.3150  206.1230  152.3220 O   0  0  0  0  0  0  0  0  0  0  0  0
  160.7890  203.6050  150.5250 C   0  0  0  0  0  0  0  0  0  0  0  0
  161.0740  208.1780  151.0780 N   0  0  0  0  0  2  0  0  0  0  0  0
  162.3000  210.0930  151.9750 C   0  0  0  0  0  1  0  0  0  0  0  0
  162.2130  209.0630  150.8600 C   0  0  2  0  0  3  0  0  0  0  0  0
  162.0830  209.7480  149.5410 C   0  0  0  0  0  0  0  0  0  0  0  0
  162.0380  211.1680  149.4860 N   0  0  0  0  0  1  0  0  0  0  0  0
  162.0040  209.0790  148.4750 O   0  0  0  0  0  0  0  0  0  0  0  0
  1  2  1  0  0  0  0
  2 12  1  0  0  0  0
  2 19  2  0  0  0  0
  3  7  2  0  0  0  0
  4 17  1  6  0  0  0
  4  1  1  0  0  0  0
  5 18  1  0  0  0  0
  6  9  2  0  0  0  0
  6 13  1  0  0  0  0
  7 19  1  0  0  0  0
  8 15  2  0  0  0  0
  8  4  1  0  0  0  0
  9  8  1  0  0  0  0
 10 16  1  0  0  0  0
 10 11  1  1  0  0  0
 12  5  2  0  0  0  0
 13 17  2  0  0  0  0
 14  1  2  0  0  0  0
 14  3  1  0  0  0  0
 15 14  1  0  0  0  0
 18 16  1  0  0  0  0
 19 10  1  0  0  0  0
 20  5  1  0  0  0  0
 22 20  1  0  0  0  0
 22 21  1  1  0  0  0
 23 22  1  0  0  0  0
 24 23  1  0  0  0  0
 25 23  2  0  0  0  0
M  END
>  <MODEL>
2

>  <REMARK>
 VINA RESULT:      -9.8      1.869      3.161
  Name = 
  3 active torsions:
  status: ('A' for Active; 'I' for Inactive)
    1  A    between atoms: C_2  and  C_25
    2  A    between atoms: C_6  and  N_15
    3  A    between atoms: N_15  and  C_25
                            x       y       z     vdW  Elec       q    Type
                         _______ _______ _______ _____ _____    ______ ____

>  <TORSDO>
F 3

$$$$
=
 OpenBabel11052422193D

 25 28  0  0  1  0  0  0  0  0999 V2000
  161.1150  205.8850  150.3620 C   0  0  0  0  0  0  0  0  0  0  0  0
  161.2690  207.0390  151.1430 C   0  0  0  0  0  0  0  0  0  0  0  0
  161.8700  206.9990  148.3590 C   0  0  0  0  0  3  0  0  0  0  0  0
  160.5550  204.5520  150.7160 C   0  0  1  0  0  3  0  0  0  0  0  0
  160.7330  207.8830  153.5190 C   0  0  0  0  0  0  0  0  0  0  0  0
  161.0830  201.7340  150.4330 C   0  0  0  0  0  3  0  0  0  0  0  0
  162.0710  208.1610  149.1140 C   0  0  0  0  0  3  0  0  0  0  0  0
  160.6940  203.8580  149.3880 C   0  0  0  0  0  0  0  0  0  0  0  0
  160.7120  202.3930  149.3280 C   0  0  0  0  0  3  0  0  0  0  0  0
  162.0310  209.4680  151.2660 C   0  0  1  0  0  3  0  0  0  0  0  0
  162.4260  210.5120  150.4260 O   0  0  0  0  0  1  0  0  0  0  0  0
  160.9390  206.9370  152.5840 C   0  0  0  0  0  3  0  0  0  0  0  0
  161.5110  202.4690  151.6520 C   0  0  0  0  0  3  0  0  0  0  0  0
  161.3740  205.8790  149.0120 C   0  0  0  0  0  0  0  0  0  0  0  0
  161.1480  204.6050  148.4300 N   0  0  0  0  0  0  0  0  0  0  0  0
  160.7640  209.8630  151.9820 C   0  0  0  0  0  2  0  0  0  0  0  0
  161.3270  203.7950  151.7680 C   0  0  0  0  0  3  0  0  0  0  0  0
  160.7390  209.2610  153.2650 O   0  0  0  0  0  0  0  0  0  0  0  0
  161.7760  208.2030  150.4990 C   0  0  0  0  0  0  0  0  0  0  0  0
  160.4870  207.4750  154.8700 N   0  0  0  0  0  2  0  0  0  0  0  0
  160.8590  207.1230  157.2600 C   0  0  0  0  0  1  0  0  0  0  0  0
  161.3160  207.8550  156.0090 C   0  0  2  0  0  3  0  0  0  0  0  0
  161.2450  209.3300  156.2250 C   0  0  0  0  0  0  0  0  0  0  0  0
  162.4250  210.1150  156.1190 N   0  0  0  0  0  1  0  0  0  0  0  0
  160.1490  209.8840  156.5100 O   0  0  0  0  0  0  0  0  0  0  0  0
  1  4  1  0  0  0  0
  1  2  1  0  0  0  0
  2 12  1  0  0  0  0
  3 14  1  0  0  0  0
  3  7  2  0  0  0  0
  4 17  1  1  0  0  0
  5 20  1  0  0  0  0
  6 13  1  0  0  0  0
  7 19  1  0  0  0  0
  8  4  1  0  0  0  0
  9  8  1  0  0  0  0
  9  6  2  0  0  0  0
 10 11  1  6  0  0  0
 10 16  1  0  0  0  0
 12  5  2  0  0  0  0
 13 17  2  0  0  0  0
 14  1  2  0  0  0  0
 15 14  1  0  0  0  0
 15  8  2  0  0  0  0
 16 18  1  0  0  0  0
 18  5  1  0  0  0  0
 19  2  2  0  0  0  0
 19 10  1  0  0  0  0
 20 22  1  0  0  0  0
 22 23  1  0  0  0  0
 22 21  1  1  0  0  0
 23 25  2  0  0  0  0
 24 23  1  0  0  0  0
M  END
>  <MODEL>
3

>  <REMARK>
 VINA RESULT:      -9.2      3.260      5.621
  Name = 
  3 active torsions:
  status: ('A' for Active; 'I' for Inactive)
    1  A    between atoms: C_2  and  C_25
    2  A    between atoms: C_6  and  N_15
    3  A    between atoms: N_15  and  C_25
                            x       y       z     vdW  Elec       q    Type
                         _______ _______ _______ _____ _____    ______ ____

>  <TORSDO>
F 3

$$$$
=
 OpenBabel11052422193D

 25 28  0  0  1  0  0  0  0  0999 V2000
  161.3720  204.5230  148.4980 C   0  0  0  0  0  0  0  0  0  0  0  0
  161.4350  205.1940  149.7270 C   0  0  0  0  0  0  0  0  0  0  0  0
  160.7370  202.4390  149.5360 C   0  0  0  0  0  3  0  0  0  0  0  0
  161.7210  204.9900  147.1280 C   0  0  1  0  0  3  0  0  0  0  0  0
  162.1860  207.4680  150.6820 C   0  0  0  0  0  0  0  0  0  0  0  0
  160.7330  204.9860  144.4220 C   0  0  0  0  0  3  0  0  0  0  0  0
  160.7540  203.0850  150.7790 C   0  0  0  0  0  3  0  0  0  0  0  0
  161.4230  203.7360  146.3490 C   0  0  0  0  0  0  0  0  0  0  0  0
  161.1660  203.8160  144.9080 C   0  0  0  0  0  3  0  0  0  0  0  0
  161.0830  205.1020  152.2490 C   0  0  1  0  0  3  0  0  0  0  0  0
  160.8320  204.1740  153.2640 O   0  0  0  0  0  1  0  0  0  0  0  0
  161.7960  206.6310  149.7020 C   0  0  0  0  0  3  0  0  0  0  0  0
  160.4740  206.1390  145.3240 C   0  0  0  0  0  3  0  0  0  0  0  0
  161.0670  203.1850  148.4130 C   0  0  0  0  0  0  0  0  0  0  0  0
  161.0630  202.7220  147.0720 N   0  0  0  0  0  0  0  0  0  0  0  0
  162.4210  205.7510  152.4930 C   0  0  0  0  0  2  0  0  0  0  0  0
  160.8750  206.1250  146.6060 C   0  0  0  0  0  3  0  0  0  0  0  0
  162.3940  207.0850  152.0140 O   0  0  0  0  0  0  0  0  0  0  0  0
  161.1020  204.4530  150.8960 C   0  0  0  0  0  0  0  0  0  0  0  0
  162.4100  208.8460  150.3620 N   0  0  0  0  0  2  0  0  0  0  0  0
  161.8710  211.1780  149.8640 C   0  0  0  0  0  1  0  0  0  0  0  0
  161.4400  209.9130  150.5880 C   0  0  2  0  0  3  0  0  0  0  0  0
  161.3040  210.1800  152.0490 C   0  0  0  0  0  0  0  0  0  0  0  0
  160.0110  210.3360  152.6190 N   0  0  0  0  0  1  0  0  0  0  0  0
  162.3260  210.2810  152.7810 O   0  0  0  0  0  0  0  0  0  0  0  0
  1  2  1  0  0  0  0
  2 19  2  0  0  0  0
  3  7  2  0  0  0  0
  4 17  1  6  0  0  0
  4  1  1  0  0  0  0
  5 18  1  0  0  0  0
  6  9  2  0  0  0  0
  6 13  1  0  0  0  0
  7 19  1  0  0  0  0
  8 15  2  0  0  0  0
  8  4  1  0  0  0  0
  9  8  1  0  0  0  0
 10 16  1  0  0  0  0
 10 11  1  1  0  0  0
 12  2  1  0  0  0  0
 12  5  2  0  0  0  0
 13 17  2  0  0  0  0
 14  1  2  0  0  0  0
 14  3  1  0  0  0  0
 15 14  1  0  0  0  0
 18 16  1  0  0  0  0
 19 10  1  0  0  0  0
 20 22  1  0  0  0  0
 20  5  1  0  0  0  0
 22 21  1  6  0  0  0
 22 23  1  0  0  0  0
 23 24  1  0  0  0  0
 23 25  2  0  0  0  0
M  END
>  <MODEL>
4

>  <REMARK>
 VINA RESULT:      -9.0      2.216      2.857
  Name = 
  3 active torsions:
  status: ('A' for Active; 'I' for Inactive)
    1  A    between atoms: C_2  and  C_25
    2  A    between atoms: C_6  and  N_15
    3  A    between atoms: N_15  and  C_25
                            x       y       z     vdW  Elec       q    Type
                         _______ _______ _______ _____ _____    ______ ____

>  <TORSDO>
F 3

$$$$
=
 OpenBabel11052422193D

 25 28  0  0  1  0  0  0  0  0999 V2000
  161.1000  205.3340  150.0670 C   0  0  0  0  0  0  0  0  0  0  0  0
  161.1330  204.0780  149.4450 C   0  0  0  0  0  0  0  0  0  0  0  0
  161.0940  204.3680  152.2780 C   0  0  0  0  0  3  0  0  0  0  0  0
  160.9800  206.6960  149.4780 C   0  0  1  0  0  3  0  0  0  0  0  0
  160.9430  203.0540  147.0870 C   0  0  0  0  0  0  0  0  0  0  0  0
  162.1120  209.3390  149.6530 C   0  0  0  0  0  3  0  0  0  0  0  0
  161.1630  203.0970  151.6930 C   0  0  0  0  0  3  0  0  0  0  0  0
  160.9890  207.5190  150.7390 C   0  0  0  0  0  0  0  0  0  0  0  0
  161.3550  208.9370  150.6820 C   0  0  0  0  0  3  0  0  0  0  0  0
  161.2780  201.5480  149.7120 C   0  0  1  0  0  3  0  0  0  0  0  0
  161.2060  200.5680  150.7060 O   0  0  0  0  0  1  0  0  0  0  0  0
  161.1650  204.0510  147.9640 C   0  0  0  0  0  3  0  0  0  0  0  0
  162.6040  208.3670  148.6420 C   0  0  0  0  0  3  0  0  0  0  0  0
  161.0480  205.4690  151.4340 C   0  0  0  0  0  0  0  0  0  0  0  0
  161.0200  206.8290  151.8360 N   0  0  0  0  0  0  0  0  0  0  0  0
  160.1430  201.3470  148.7400 C   0  0  0  0  0  2  0  0  0  0  0  0
  162.1280  207.1120  148.5920 C   0  0  0  0  0  3  0  0  0  0  0  0
  160.5520  201.7570  147.4450 O   0  0  0  0  0  0  0  0  0  0  0  0
  161.1800  202.9310  150.2870 C   0  0  0  0  0  0  0  0  0  0  0  0
  161.1110  203.3160  145.6880 N   0  0  0  0  0  2  0  0  0  0  0  0
  163.0000  204.7710  146.2260 C   0  0  0  0  0  1  0  0  0  0  0  0
  162.0560  204.2830  145.1390 C   0  0  2  0  0  3  0  0  0  0  0  0
  161.3200  205.4360  144.5440 C   0  0  0  0  0  0  0  0  0  0  0  0
  160.4170  206.1850  145.3470 N   0  0  0  0  0  1  0  0  0  0  0  0
  161.4840  205.7460  143.3330 O   0  0  0  0  0  0  0  0  0  0  0  0
  1 14  1  0  0  0  0
  2  1  2  0  0  0  0
  2 19  1  0  0  0  0
  4 17  1  6  0  0  0
  4  1  1  0  0  0  0
  4  8  1  0  0  0  0
  5 18  1  0  0  0  0
  5 12  2  0  0  0  0
  6  9  2  0  0  0  0
  7  3  1  0  0  0  0
  8 15  2  0  0  0  0
  9  8  1  0  0  0  0
 10 19  1  0  0  0  0
 10 11  1  1  0  0  0
 12  2  1  0  0  0  0
 13  6  1  0  0  0  0
 14 15  1  0  0  0  0
 14  3  2  0  0  0  0
 16 10  1  0  0  0  0
 17 13  2  0  0  0  0
 18 16  1  0  0  0  0
 19  7  2  0  0  0  0
 20  5  1  0  0  0  0
 22 20  1  0  0  0  0
 22 21  1  1  0  0  0
 23 22  1  0  0  0  0
 23 24  1  0  0  0  0
 25 23  2  0  0  0  0
M  END
>  <MODEL>
5

>  <REMARK>
 VINA RESULT:      -8.9      3.800      6.214
  Name = 
  3 active torsions:
  status: ('A' for Active; 'I' for Inactive)
    1  A    between atoms: C_2  and  C_25
    2  A    between atoms: C_6  and  N_15
    3  A    between atoms: N_15  and  C_25
                            x       y       z     vdW  Elec       q    Type
                         _______ _______ _______ _____ _____    ______ ____

>  <TORSDO>
F 3

$$$$
=
 OpenBabel11052422193D

 25 28  0  0  1  0  0  0  0  0999 V2000
  161.0690  206.9700  151.6170 C   0  0  0  0  0  0  0  0  0  0  0  0
  161.2090  205.7550  150.9310 C   0  0  0  0  0  0  0  0  0  0  0  0
  161.1410  205.8940  153.7750 C   0  0  0  0  0  3  0  0  0  0  0  0
  160.8340  208.3460  151.0970 C   0  0  1  0  0  3  0  0  0  0  0  0
  161.1110  204.8420  148.5220 C   0  0  0  0  0  0  0  0  0  0  0  0
  161.7380  211.0630  151.4150 C   0  0  0  0  0  3  0  0  0  0  0  0
  161.3190  204.6660  153.1260 C   0  0  0  0  0  3  0  0  0  0  0  0
  160.7710  209.1000  152.3990 C   0  0  0  0  0  0  0  0  0  0  0  0
  161.0150  210.5450  152.4170 C   0  0  0  0  0  3  0  0  0  0  0  0
  161.5680  203.2360  151.0690 C   0  0  1  0  0  3  0  0  0  0  0  0
  161.5780  202.2040  152.0110 O   0  0  0  0  0  1  0  0  0  0  0  0
  161.2460  205.8070  149.4510 C   0  0  0  0  0  3  0  0  0  0  0  0
  162.3120  210.1890  150.3570 C   0  0  0  0  0  3  0  0  0  0  0  0
  161.0030  207.0290  152.9880 C   0  0  0  0  0  0  0  0  0  0  0  0
  160.8600  208.3600  153.4590 N   0  0  0  0  0  0  0  0  0  0  0  0
  160.4560  202.9910  150.0810 C   0  0  0  0  0  2  0  0  0  0  0  0
  161.9440  208.9020  150.2410 C   0  0  0  0  0  3  0  0  0  0  0  0
  160.8310  203.4990  148.8120 O   0  0  0  0  0  0  0  0  0  0  0  0
  161.3520  204.5740  151.7140 C   0  0  0  0  0  0  0  0  0  0  0  0
  161.2590  205.1890  147.1400 N   0  0  0  0  0  2  0  0  0  0  0  0
  163.3220  204.7040  145.9220 C   0  0  0  0  0  1  0  0  0  0  0  0
  161.8650  204.3230  146.1340 C   0  0  2  0  0  3  0  0  0  0  0  0
  161.1160  204.4300  144.8480 C   0  0  0  0  0  0  0  0  0  0  0  0
  161.3390  205.5450  143.9940 N   0  0  0  0  0  1  0  0  0  0  0  0
  160.2800  203.5470  144.5170 O   0  0  0  0  0  0  0  0  0  0  0  0
  1 14  1  0  0  0  0
  2  1  2  0  0  0  0
  2 19  1  0  0  0  0
  4 17  1  6  0  0  0
  4  1  1  0  0  0  0
  4  8  1  0  0  0  0
  5 18  1  0  0  0  0
  5 12  2  0  0  0  0
  6  9  2  0  0  0  0
  7  3  1  0  0  0  0
  8  9  1  0  0  0  0
  8 15  2  0  0  0  0
 10 19  1  0  0  0  0
 10 11  1  1  0  0  0
 12  2  1  0  0  0  0
 13  6  1  0  0  0  0
 14 15  1  0  0  0  0
 14  3  2  0  0  0  0
 16 10  1  0  0  0  0
 17 13  2  0  0  0  0
 18 16  1  0  0  0  0
 19  7  2  0  0  0  0
 20  5  1  0  0  0  0
 22 21  1  6  0  0  0
 22 20  1  0  0  0  0
 23 22  1  0  0  0  0
 24 23  1  0  0  0  0
 25 23  2  0  0  0  0
M  END
>  <MODEL>
6

>  <REMARK>
 VINA RESULT:      -8.7      3.615      6.545
  Name = 
  3 active torsions:
  status: ('A' for Active; 'I' for Inactive)
    1  A    between atoms: C_2  and  C_25
    2  A    between atoms: C_6  and  N_15
    3  A    between atoms: N_15  and  C_25
                            x       y       z     vdW  Elec       q    Type
                         _______ _______ _______ _____ _____    ______ ____

>  <TORSDO>
F 3

$$$$
=
 OpenBabel11052422193D

 25 28  0  0  1  0  0  0  0  0999 V2000
  161.1550  208.1650  153.0110 C   0  0  0  0  0  0  0  0  0  0  0  0
  161.5270  208.1560  151.6590 C   0  0  0  0  0  0  0  0  0  0  0  0
  160.9780  205.7600  153.0980 C   0  0  0  0  0  3  0  0  0  0  0  0
  160.8720  209.3080  153.9230 C   0  0  1  0  0  3  0  0  0  0  0  0
  161.9180  209.8140  149.7240 C   0  0  0  0  0  0  0  0  0  0  0  0
  161.4340  210.2660  156.5810 C   0  0  0  0  0  3  0  0  0  0  0  0
  161.3830  205.7090  151.7580 C   0  0  0  0  0  3  0  0  0  0  0  0
  160.5210  208.5490  155.1760 C   0  0  0  0  0  0  0  0  0  0  0  0
  160.6120  209.2130  156.4800 C   0  0  0  0  0  3  0  0  0  0  0  0
  162.1090  206.7780  149.5970 C   0  0  1  0  0  3  0  0  0  0  0  0
  162.0680  205.4560  149.1430 O   0  0  0  0  0  1  0  0  0  0  0  0
  161.8010  209.4640  151.0190 C   0  0  0  0  0  3  0  0  0  0  0  0
  162.2590  210.7050  155.4240 C   0  0  0  0  0  3  0  0  0  0  0  0
  160.8590  207.0090  153.6920 C   0  0  0  0  0  0  0  0  0  0  0  0
  160.5070  207.2600  155.0440 N   0  0  0  0  0  0  0  0  0  0  0  0
  161.2050  207.6230  148.7360 C   0  0  0  0  0  2  0  0  0  0  0  0
  162.0460  210.2150  154.1910 C   0  0  0  0  0  3  0  0  0  0  0  0
  161.7310  208.9370  148.6470 O   0  0  0  0  0  0  0  0  0  0  0  0
  161.6570  206.8890  151.0240 C   0  0  0  0  0  0  0  0  0  0  0  0
  162.2550  211.1690  149.4040 N   0  0  0  0  0  2  0  0  0  0  0  0
  163.1010  212.6150  147.6240 C   0  0  0  0  0  1  0  0  0  0  0  0
  161.9110  211.8290  148.1480 C   0  0  2  0  0  3  0  0  0  0  0  0
  160.7460  212.7390  148.3520 C   0  0  0  0  0  0  0  0  0  0  0  0
  160.4960  213.2850  149.6400 N   0  0  0  0  0  1  0  0  0  0  0  0
  159.9770  213.0210  147.3940 O   0  0  0  0  0  0  0  0  0  0  0  0
  1 14  1  0  0  0  0
  1  4  1  0  0  0  0
  2  1  2  0  0  0  0
  3 14  2  0  0  0  0
  4 17  1  1  0  0  0
  4  8  1  0  0  0  0
  5 12  2  0  0  0  0
  7  3  1  0  0  0  0
  8  9  1  0  0  0  0
  9  6  2  0  0  0  0
 10 11  1  6  0  0  0
 10 19  1  0  0  0  0
 12  2  1  0  0  0  0
 13  6  1  0  0  0  0
 14 15  1  0  0  0  0
 15  8  2  0  0  0  0
 16 10  1  0  0  0  0
 17 13  2  0  0  0  0
 18 16  1  0  0  0  0
 18  5  1  0  0  0  0
 19  2  1  0  0  0  0
 19  7  2  0  0  0  0
 20  5  1  0  0  0  0
 22 21  1  1  0  0  0
 22 23  1  0  0  0  0
 22 20  1  0  0  0  0
 23 24  1  0  0  0  0
 25 23  2  0  0  0  0
M  END
>  <MODEL>
7

>  <REMARK>
 VINA RESULT:      -7.3      3.025      6.031
  Name = 
  3 active torsions:
  status: ('A' for Active; 'I' for Inactive)
    1  A    between atoms: C_2  and  C_25
    2  A    between atoms: C_6  and  N_15
    3  A    between atoms: N_15  and  C_25
                            x       y       z     vdW  Elec       q    Type
                         _______ _______ _______ _____ _____    ______ ____

>  <TORSDO>
F 3

$$$$
=
 OpenBabel11052422193D

 25 28  0  0  1  0  0  0  0  0999 V2000
  161.6420  208.0730  150.7780 C   0  0  0  0  0  0  0  0  0  0  0  0
  161.2560  206.9950  149.9680 C   0  0  0  0  0  0  0  0  0  0  0  0
  162.0060  209.5180  148.8810 C   0  0  0  0  0  3  0  0  0  0  0  0
  161.8460  208.1440  152.2520 C   0  0  1  0  0  3  0  0  0  0  0  0
  160.7140  204.4840  150.1770 C   0  0  0  0  0  0  0  0  0  0  0  0
  161.2430  209.7920  154.5360 C   0  0  0  0  0  3  0  0  0  0  0  0
  161.5910  208.4760  148.0420 C   0  0  0  0  0  3  0  0  0  0  0  0
  162.2700  209.5830  152.3780 C   0  0  0  0  0  0  0  0  0  0  0  0
  162.1430  210.2700  153.6670 C   0  0  0  0  0  3  0  0  0  0  0  0
  160.7590  206.1380  147.6210 C   0  0  1  0  0  3  0  0  0  0  0  0
  160.8970  206.5260  146.2860 O   0  0  0  0  0  1  0  0  0  0  0  0
  160.8740  205.7350  150.6470 C   0  0  0  0  0  3  0  0  0  0  0  0
  160.3730  208.6410  154.1780 C   0  0  0  0  0  3  0  0  0  0  0  0
  162.0350  209.2780  150.2480 C   0  0  0  0  0  0  0  0  0  0  0  0
  162.3820  210.2170  151.2530 N   0  0  0  0  0  0  0  0  0  0  0  0
  161.5840  204.9000  147.8630 C   0  0  0  0  0  2  0  0  0  0  0  0
  160.6080  207.9040  153.0790 C   0  0  0  0  0  3  0  0  0  0  0  0
  160.9570  204.0990  148.8510 O   0  0  0  0  0  0  0  0  0  0  0  0
  161.2170  207.2130  148.5620 C   0  0  0  0  0  0  0  0  0  0  0  0
  160.2690  203.4610  151.0760 N   0  0  0  0  0  2  0  0  0  0  0  0
  162.2920  202.1110  151.3220 C   0  0  0  0  0  1  0  0  0  0  0  0
  160.7890  202.0970  151.0950 C   0  0  2  0  0  3  0  0  0  0  0  0
  160.4720  201.4110  149.8080 C   0  0  0  0  0  0  0  0  0  0  0  0
  161.5200  200.8260  149.0460 N   0  0  0  0  0  1  0  0  0  0  0  0
  159.2860  201.3550  149.3850 O   0  0  0  0  0  0  0  0  0  0  0  0
  1  4  1  0  0  0  0
  2 12  1  0  0  0  0
  2  1  2  0  0  0  0
  3 14  2  0  0  0  0
  4  8  1  0  0  0  0
  4 17  1  1  0  0  0
  5 12  2  0  0  0  0
  5 20  1  0  0  0  0
  7 19  2  0  0  0  0
  7  3  1  0  0  0  0
  8  9  1  0  0  0  0
  9  6  2  0  0  0  0
 10 11  1  6  0  0  0
 10 16  1  0  0  0  0
 10 19  1  0  0  0  0
 13  6  1  0  0  0  0
 14  1  1  0  0  0  0
 14 15  1  0  0  0  0
 15  8  2  0  0  0  0
 16 18  1  0  0  0  0
 17 13  2  0  0  0  0
 18  5  1  0  0  0  0
 19  2  1  0  0  0  0
 20 22  1  0  0  0  0
 22 21  1  6  0  0  0
 23 22  1  0  0  0  0
 24 23  1  0  0  0  0
 25 23  2  0  0  0  0
M  END
>  <MODEL>
8

>  <REMARK>
 VINA RESULT:      -7.1      2.949      7.860
  Name = 
  3 active torsions:
  status: ('A' for Active; 'I' for Inactive)
    1  A    between atoms: C_2  and  C_25
    2  A    between atoms: C_6  and  N_15
    3  A    between atoms: N_15  and  C_25
                            x       y       z     vdW  Elec       q    Type
                         _______ _______ _______ _____ _____    ______ ____

>  <TORSDO>
F 3

$$$$
=
 OpenBabel11052422193D

 25 28  0  0  1  0  0  0  0  0999 V2000
  161.1710  204.9200  149.6780 C   0  0  0  0  0  0  0  0  0  0  0  0
  161.3830  206.2240  150.1440 C   0  0  0  0  0  0  0  0  0  0  0  0
  161.7750  205.5040  147.4170 C   0  0  0  0  0  3  0  0  0  0  0  0
  160.6370  203.7210  150.3840 C   0  0  1  0  0  3  0  0  0  0  0  0
  161.0240  207.6250  152.2790 C   0  0  0  0  0  0  0  0  0  0  0  0
  161.1420  200.9090  150.7520 C   0  0  0  0  0  3  0  0  0  0  0  0
  162.0330  206.8100  147.8530 C   0  0  0  0  0  3  0  0  0  0  0  0
  160.6770  202.7250  149.2550 C   0  0  0  0  0  0  0  0  0  0  0  0
  160.6900  201.2890  149.5500 C   0  0  0  0  0  3  0  0  0  0  0  0
  162.1530  208.5970  149.6230 C   0  0  1  0  0  3  0  0  0  0  0  0
  162.4850  209.4010  148.5290 O   0  0  0  0  0  1  0  0  0  0  0  0
  161.1600  206.4780  151.5870 C   0  0  0  0  0  3  0  0  0  0  0  0
  161.6590  201.9080  151.7240 C   0  0  0  0  0  3  0  0  0  0  0  0
  161.3290  204.5840  148.3550 C   0  0  0  0  0  0  0  0  0  0  0  0
  161.0590  203.2110  148.1160 N   0  0  0  0  0  0  0  0  0  0  0  0
  160.9430  209.1760  150.3110 C   0  0  0  0  0  2  0  0  0  0  0  0
  161.4850  203.2250  151.5290 C   0  0  0  0  0  3  0  0  0  0  0  0
  161.0130  208.9020  151.7000 O   0  0  0  0  0  0  0  0  0  0  0  0
  161.8410  207.1900  149.2040 C   0  0  0  0  0  0  0  0  0  0  0  0
  160.8790  207.5590  153.7030 N   0  0  0  0  0  2  0  0  0  0  0  0
  161.3900  209.9310  153.9990 C   0  0  0  0  0  1  0  0  0  0  0  0
  160.6690  208.7180  154.5640 C   0  0  2  0  0  3  0  0  0  0  0  0
  161.1600  208.4270  155.9430 C   0  0  0  0  0  0  0  0  0  0  0  0
  160.7290  207.2480  156.6090 N   0  0  0  0  0  1  0  0  0  0  0  0
  161.9450  209.2230  156.5260 O   0  0  0  0  0  0  0  0  0  0  0  0
  1  2  1  0  0  0  0
  1  4  1  0  0  0  0
  2 12  1  0  0  0  0
  3  7  2  0  0  0  0
  3 14  1  0  0  0  0
  4 17  1  1  0  0  0
  5 20  1  0  0  0  0
  6 13  1  0  0  0  0
  7 19  1  0  0  0  0
  8  9  1  0  0  0  0
  8  4  1  0  0  0  0
  9  6  2  0  0  0  0
 10 11  1  6  0  0  0
 10 16  1  0  0  0  0
 12  5  2  0  0  0  0
 14  1  2  0  0  0  0
 15 14  1  0  0  0  0
 15  8  2  0  0  0  0
 16 18  1  0  0  0  0
 17 13  2  0  0  0  0
 18  5  1  0  0  0  0
 19 10  1  0  0  0  0
 19  2  2  0  0  0  0
 20 22  1  0  0  0  0
 22 21  1  6  0  0  0
 22 23  1  0  0  0  0
 23 25  2  0  0  0  0
 23 24  1  0  0  0  0
M  END
>  <MODEL>
9

>  <REMARK>
 VINA RESULT:      -7.1      3.061      5.369
  Name = 
  3 active torsions:
  status: ('A' for Active; 'I' for Inactive)
    1  A    between atoms: C_2  and  C_25
    2  A    between atoms: C_6  and  N_15
    3  A    between atoms: N_15  and  C_25
                            x       y       z     vdW  Elec       q    Type
                         _______ _______ _______ _____ _____    ______ ____

>  <TORSDO>
F 3

$$$$
