=
 OpenBabel11062409503D

 34 41  0  0  1  0  0  0  0  0999 V2000
  160.7990  214.4530  146.8310 C   0  0  2  0  0  3  0  0  0  0  0  0
  159.3270  212.3740  143.9920 C   0  0  0  0  0  3  0  0  0  0  0  0
  159.0810  212.2550  146.4450 C   0  0  0  0  0  2  0  0  0  0  0  0
  161.5010  212.5580  148.3310 C   0  0  2  0  0  3  0  0  0  0  0  0
  161.9600  213.8150  147.6150 C   0  0  0  0  0  2  0  0  0  0  0  0
  159.5350  214.0590  149.0560 C   0  0  1  0  0  3  0  0  0  0  0  0
  157.8580  213.6820  149.5760 S   0  0  0  0  0  0  0  0  0  0  0  0
  160.4530  212.8760  149.4010 C   0  0  0  0  0  2  0  0  0  0  0  0
  158.4480  213.4870  146.9180 N   0  0  2  0  0  0  0  0  0  0  0  0
  159.4350  214.3660  147.5680 C   0  0  2  0  0  3  0  0  0  0  0  0
  157.4390  213.0990  147.8990 C   0  0  0  0  0  2  0  0  0  0  0  0
  159.9410  212.4070  142.8030 C   0  0  0  0  0  3  0  0  0  0  0  0
  161.4220  212.6130  142.6430 C   0  0  2  0  0  3  0  0  0  0  0  0
  161.8170  214.0040  143.1320 C   0  0  0  0  0  2  0  0  0  0  0  0
  160.0530  212.5370  145.2940 C   0  0  2  0  0  3  0  0  0  0  0  0
  162.0120  214.0220  144.6420 C   0  0  0  0  0  2  0  0  0  0  0  0
  160.6810  213.9410  145.3870 C   0  0  2  0  0  3  0  0  0  0  0  0
  161.7780  212.4690  141.2380 N   0  0  0  0  0  0  0  0  0  0  0  0
  162.3920  211.1390  141.0740 C   0  0  0  0  0  2  0  0  0  0  0  0
  160.9990  211.3400  140.7060 C   0  0  0  0  0  2  0  0  0  0  0  0
  162.6890  211.8230  148.9300 C   0  0  0  0  0  2  0  0  0  0  0  0
  161.8070  208.8300  151.1020 C   0  0  0  0  0  3  0  0  0  0  0  0
  162.1270  209.4490  148.3570 C   0  0  0  0  0  3  0  0  0  0  0  0
  161.0470  205.7370  151.3230 C   0  0  0  0  0  3  0  0  0  0  0  0
  160.8640  204.7140  148.6970 N   0  0  0  0  0  0  0  0  0  0  0  0
  161.3100  206.4660  150.2460 C   0  0  0  0  0  0  0  0  0  0  0  0
  160.5300  203.9000  149.7710 O   0  0  0  0  0  0  0  0  0  0  0  0
  161.6270  207.8670  150.1130 C   0  0  0  0  0  0  0  0  0  0  0  0
  160.8260  204.2540  151.1380 C   0  0  0  0  0  2  0  0  0  0  0  0
  161.5720  206.9640  147.8810 C   0  0  0  0  0  2  0  0  0  0  0  0
  161.7880  208.1600  148.7650 C   0  0  0  0  0  0  0  0  0  0  0  0
  161.2680  205.9240  148.9130 C   0  0  0  0  0  0  0  0  0  0  0  0
  162.2970  210.4440  149.3360 C   0  0  0  0  0  0  0  0  0  0  0  0
  162.1430  210.1310  150.7000 C   0  0  0  0  0  3  0  0  0  0  0  0
  1 10  1  0  0  0  0
  1  5  1  1  0  0  0
  2 15  1  0  0  0  0
  4 21  1  1  0  0  0
  4  8  1  0  0  0  0
  5  4  1  0  0  0  0
  6  8  1  6  0  0  0
  6  7  1  0  0  0  0
  9  3  1  1  0  0  0
  9 10  1  0  0  0  0
  9 11  1  0  0  0  0
 10  6  1  0  0  0  0
 11  7  1  0  0  0  0
 12  2  2  0  0  0  0
 13 12  1  0  0  0  0
 13 14  1  0  0  0  0
 14 16  1  0  0  0  0
 15 17  1  0  0  0  0
 15  3  1  0  0  0  0
 16 17  1  0  0  0  0
 17  1  1  0  0  0  0
 18 13  1  0  0  0  0
 19 18  1  0  0  0  0
 20 19  1  0  0  0  0
 20 18  1  0  0  0  0
 21 33  1  0  0  0  0
 23 31  2  0  0  0  0
 23 33  1  0  0  0  0
 25 32  2  0  0  0  0
 25 27  1  0  0  0  0
 26 24  2  0  0  0  0
 27 29  1  0  0  0  0
 28 26  1  0  0  0  0
 28 22  2  0  0  0  0
 29 24  1  0  0  0  0
 30 31  1  0  0  0  0
 30 32  1  0  0  0  0
 31 28  1  0  0  0  0
 32 26  1  0  0  0  0
 33 34  2  0  0  0  0
 34 22  1  0  0  0  0
M  END
>  <MODEL>
1

>  <REMARK>
 VINA RESULT:      -8.3      0.000      0.000
  Name = 
  3 active torsions:
  status: ('A' for Active; 'I' for Inactive)
    1  A    between atoms: N_3  and  C_25
    2  A    between atoms: C_8  and  C_18
    3  A    between atoms: C_18  and  C_30
                            x       y       z     vdW  Elec       q    Type
                         _______ _______ _______ _____ _____    ______ ____

>  <TORSDO>
F 3

$$$$
=
 OpenBabel11062409503D

 34 41  0  0  1  0  0  0  0  0999 V2000
  160.7670  211.5240  154.8760 C   0  0  2  0  0  3  0  0  0  0  0  0
  156.9940  211.4980  155.4340 C   0  0  0  0  0  3  0  0  0  0  0  0
  158.6750  209.6940  155.3270 C   0  0  0  0  0  2  0  0  0  0  0  0
  160.8870  209.6690  153.1800 C   0  0  2  0  0  3  0  0  0  0  0  0
  161.2540  211.1120  153.4750 C   0  0  0  0  0  2  0  0  0  0  0  0
  161.8450  209.2660  155.5380 C   0  0  1  0  0  3  0  0  0  0  0  0
  161.5630  207.9700  156.7490 S   0  0  0  0  0  0  0  0  0  0  0  0
  161.6060  208.7050  154.1280 C   0  0  0  0  0  2  0  0  0  0  0  0
  159.6250  209.8640  156.4280 N   0  0  2  0  0  0  0  0  0  0  0  0
  160.9060  210.3970  155.9350 C   0  0  2  0  0  3  0  0  0  0  0  0
  159.8500  208.5430  157.0050 C   0  0  0  0  0  2  0  0  0  0  0  0
  156.2920  212.5700  155.0460 C   0  0  0  0  0  3  0  0  0  0  0  0
  156.6850  213.4380  153.8830 C   0  0  2  0  0  3  0  0  0  0  0  0
  158.0110  214.1370  154.1700 C   0  0  0  0  0  2  0  0  0  0  0  0
  158.2480  211.0470  154.7470 C   0  0  2  0  0  3  0  0  0  0  0  0
  159.1920  213.2310  153.8490 C   0  0  0  0  0  2  0  0  0  0  0  0
  159.3490  212.1160  154.8810 C   0  0  2  0  0  3  0  0  0  0  0  0
  155.6470  214.4340  153.6540 N   0  0  0  0  0  0  0  0  0  0  0  0
  155.3350  214.4210  152.2130 C   0  0  0  0  0  2  0  0  0  0  0  0
  154.4650  213.7200  153.1440 C   0  0  0  0  0  2  0  0  0  0  0  0
  161.1850  209.3310  151.7280 C   0  0  0  0  0  2  0  0  0  0  0  0
  161.1600  205.5940  152.4300 C   0  0  0  0  0  3  0  0  0  0  0  0
  161.0440  207.3450  150.2060 C   0  0  0  0  0  3  0  0  0  0  0  0
  161.0570  202.6020  151.3220 C   0  0  0  0  0  3  0  0  0  0  0  0
  160.7890  202.7400  148.5150 N   0  0  0  0  0  0  0  0  0  0  0  0
  161.0480  203.7490  150.6550 C   0  0  0  0  0  0  0  0  0  0  0  0
  160.7440  201.5040  149.1440 O   0  0  0  0  0  0  0  0  0  0  0  0
  161.0650  205.1120  151.1270 C   0  0  0  0  0  0  0  0  0  0  0  0
  161.1140  201.3190  150.5260 C   0  0  0  0  0  2  0  0  0  0  0  0
  160.9420  205.2220  148.7240 C   0  0  0  0  0  2  0  0  0  0  0  0
  161.0140  205.9620  150.0310 C   0  0  0  0  0  0  0  0  0  0  0  0
  160.9670  203.8100  149.2190 C   0  0  0  0  0  0  0  0  0  0  0  0
  161.1210  207.8570  151.5130 C   0  0  0  0  0  0  0  0  0  0  0  0
  161.1850  206.9840  152.6150 C   0  0  0  0  0  3  0  0  0  0  0  0
  1  5  1  6  0  0  0
  1 17  1  0  0  0  0
  1 10  1  0  0  0  0
  4 21  1  6  0  0  0
  4  5  1  0  0  0  0
  4  8  1  0  0  0  0
  6  8  1  6  0  0  0
  6 10  1  0  0  0  0
  6  7  1  0  0  0  0
  7 11  1  0  0  0  0
  9  3  1  6  0  0  0
  9 11  1  0  0  0  0
 10  9  1  0  0  0  0
 12  2  2  0  0  0  0
 13 14  1  0  0  0  0
 13 12  1  0  0  0  0
 15 17  1  0  0  0  0
 15  3  1  0  0  0  0
 15  2  1  0  0  0  0
 16 14  1  0  0  0  0
 16 17  1  0  0  0  0
 18 13  1  0  0  0  0
 19 20  1  0  0  0  0
 19 18  1  0  0  0  0
 20 18  1  0  0  0  0
 22 34  1  0  0  0  0
 23 33  1  0  0  0  0
 25 27  1  0  0  0  0
 25 32  2  0  0  0  0
 26 28  1  0  0  0  0
 26 24  2  0  0  0  0
 27 29  1  0  0  0  0
 28 22  2  0  0  0  0
 29 24  1  0  0  0  0
 30 32  1  0  0  0  0
 30 31  1  0  0  0  0
 31 23  2  0  0  0  0
 31 28  1  0  0  0  0
 32 26  1  0  0  0  0
 33 21  1  0  0  0  0
 33 34  2  0  0  0  0
M  END
>  <MODEL>
2

>  <REMARK>
 VINA RESULT:      -7.7      6.247      8.268
  Name = 
  3 active torsions:
  status: ('A' for Active; 'I' for Inactive)
    1  A    between atoms: N_3  and  C_25
    2  A    between atoms: C_8  and  C_18
    3  A    between atoms: C_18  and  C_30
                            x       y       z     vdW  Elec       q    Type
                         _______ _______ _______ _____ _____    ______ ____

>  <TORSDO>
F 3

$$$$
=
 OpenBabel11062409503D

 34 41  0  0  1  0  0  0  0  0999 V2000
  159.1100  213.4140  154.4780 C   0  0  2  0  0  3  0  0  0  0  0  0
  157.3980  212.8140  151.1240 C   0  0  0  0  0  3  0  0  0  0  0  0
  157.1840  211.7150  153.3230 C   0  0  0  0  0  2  0  0  0  0  0  0
  159.6550  211.0200  155.0310 C   0  0  2  0  0  3  0  0  0  0  0  0
  160.2190  212.4200  154.8670 C   0  0  0  0  0  2  0  0  0  0  0  0
  157.8540  212.2400  156.4140 C   0  0  1  0  0  3  0  0  0  0  0  0
  156.1580  211.8170  156.8270 S   0  0  0  0  0  0  0  0  0  0  0  0
  158.6610  210.9510  156.1940 C   0  0  0  0  0  2  0  0  0  0  0  0
  156.6790  212.6890  154.2930 N   0  0  2  0  0  0  0  0  0  0  0  0
  157.7570  213.1400  155.1900 C   0  0  2  0  0  3  0  0  0  0  0  0
  155.6560  212.0120  155.0840 C   0  0  0  0  0  2  0  0  0  0  0  0
  157.9900  213.2860  150.0200 C   0  0  0  0  0  3  0  0  0  0  0  0
  159.4810  213.4210  149.8770 C   0  0  2  0  0  3  0  0  0  0  0  0
  160.0150  214.4510  150.8690 C   0  0  0  0  0  2  0  0  0  0  0  0
  158.1580  212.3690  152.3360 C   0  0  2  0  0  3  0  0  0  0  0  0
  160.2380  213.8290  152.2410 C   0  0  0  0  0  2  0  0  0  0  0  0
  158.9180  213.5540  152.9600 C   0  0  2  0  0  3  0  0  0  0  0  0
  159.7980  213.8420  148.5190 N   0  0  0  0  0  0  0  0  0  0  0  0
  160.4970  212.7210  147.8630 C   0  0  0  0  0  2  0  0  0  0  0  0
  159.0810  212.9360  147.6060 C   0  0  0  0  0  2  0  0  0  0  0  0
  160.7780  210.0120  155.2110 C   0  0  0  0  0  2  0  0  0  0  0  0
  160.7800  208.7960  151.6080 C   0  0  0  0  0  3  0  0  0  0  0  0
  161.0090  207.7220  154.2190 C   0  0  0  0  0  3  0  0  0  0  0  0
  160.9550  206.3730  149.5370 C   0  0  0  0  0  3  0  0  0  0  0  0
  161.3740  204.0090  151.0240 N   0  0  0  0  0  0  0  0  0  0  0  0
  160.9950  206.3540  150.8630 C   0  0  0  0  0  0  0  0  0  0  0  0
  161.3900  203.9540  149.6370 O   0  0  0  0  0  0  0  0  0  0  0  0
  160.9470  207.4310  151.8220 C   0  0  0  0  0  0  0  0  0  0  0  0
  160.9460  205.0500  148.8090 C   0  0  0  0  0  2  0  0  0  0  0  0
  161.1990  205.3980  153.0900 C   0  0  0  0  0  2  0  0  0  0  0  0
  161.0540  206.8950  153.0980 C   0  0  0  0  0  0  0  0  0  0  0  0
  161.1530  205.1370  151.6170 C   0  0  0  0  0  0  0  0  0  0  0  0
  160.8590  209.1070  154.0290 C   0  0  0  0  0  0  0  0  0  0  0  0
  160.7400  209.6370  152.7300 C   0  0  0  0  0  3  0  0  0  0  0  0
  1  5  1  6  0  0  0
  1 10  1  0  0  0  0
  2 15  1  0  0  0  0
  4 21  1  1  0  0  0
  4  8  1  0  0  0  0
  5  4  1  0  0  0  0
  6  8  1  6  0  0  0
  6  7  1  0  0  0  0
  9  3  1  6  0  0  0
  9 11  1  0  0  0  0
  9 10  1  0  0  0  0
 10  6  1  0  0  0  0
 11  7  1  0  0  0  0
 12  2  2  0  0  0  0
 13 12  1  0  0  0  0
 13 14  1  0  0  0  0
 14 16  1  0  0  0  0
 15 17  1  0  0  0  0
 15  3  1  0  0  0  0
 16 17  1  0  0  0  0
 17  1  1  0  0  0  0
 18 13  1  0  0  0  0
 19 18  1  0  0  0  0
 20 19  1  0  0  0  0
 20 18  1  0  0  0  0
 22 28  2  0  0  0  0
 22 34  1  0  0  0  0
 24 26  2  0  0  0  0
 25 32  2  0  0  0  0
 26 32  1  0  0  0  0
 26 28  1  0  0  0  0
 27 25  1  0  0  0  0
 28 31  1  0  0  0  0
 29 24  1  0  0  0  0
 29 27  1  0  0  0  0
 30 31  1  0  0  0  0
 31 23  2  0  0  0  0
 32 30  1  0  0  0  0
 33 23  1  0  0  0  0
 33 21  1  0  0  0  0
 34 33  2  0  0  0  0
M  END
>  <MODEL>
3

>  <REMARK>
 VINA RESULT:      -7.0      4.013      6.277
  Name = 
  3 active torsions:
  status: ('A' for Active; 'I' for Inactive)
    1  A    between atoms: N_3  and  C_25
    2  A    between atoms: C_8  and  C_18
    3  A    between atoms: C_18  and  C_30
                            x       y       z     vdW  Elec       q    Type
                         _______ _______ _______ _____ _____    ______ ____

>  <TORSDO>
F 3

$$$$
=
 OpenBabel11062409503D

 34 41  0  0  1  0  0  0  0  0999 V2000
  162.4660  210.0110  152.8480 C   0  0  2  0  0  3  0  0  0  0  0  0
  160.1060  212.3650  150.9950 C   0  0  0  0  0  3  0  0  0  0  0  0
  159.8360  210.9990  153.0320 C   0  0  0  0  0  2  0  0  0  0  0  0
  160.8670  208.0970  153.1830 C   0  0  2  0  0  3  0  0  0  0  0  0
  162.2270  208.5040  152.6450 C   0  0  0  0  0  2  0  0  0  0  0  0
  161.6060  209.4790  155.2300 C   0  0  1  0  0  3  0  0  0  0  0  0
  160.6770  210.3150  156.5200 S   0  0  0  0  0  0  0  0  0  0  0  0
  160.7850  208.2930  154.7000 C   0  0  0  0  0  2  0  0  0  0  0  0
  160.7710  211.4770  154.0510 N   0  0  2  0  0  0  0  0  0  0  0  0
  161.9080  210.5510  154.1920 C   0  0  2  0  0  3  0  0  0  0  0  0
  160.0400  211.5270  155.3130 C   0  0  0  0  0  2  0  0  0  0  0  0
  160.3780  212.6530  149.7160 C   0  0  0  0  0  3  0  0  0  0  0  0
  161.0690  211.6980  148.7830 C   0  0  2  0  0  3  0  0  0  0  0  0
  162.4970  211.4370  149.2580 C   0  0  0  0  0  2  0  0  0  0  0  0
  160.4600  211.0560  151.6340 C   0  0  2  0  0  3  0  0  0  0  0  0
  162.5320  210.3590  150.3330 C   0  0  0  0  0  2  0  0  0  0  0  0
  161.9890  210.8710  151.6670 C   0  0  2  0  0  3  0  0  0  0  0  0
  161.0960  212.2680  147.4430 N   0  0  0  0  0  0  0  0  0  0  0  0
  159.8500  211.8640  146.7680 C   0  0  0  0  0  2  0  0  0  0  0  0
  159.9580  213.1960  147.3430 C   0  0  0  0  0  2  0  0  0  0  0  0
  160.5510  206.6620  152.7990 C   0  0  0  0  0  2  0  0  0  0  0  0
  161.0700  207.3640  149.0980 C   0  0  0  0  0  3  0  0  0  0  0  0
  160.9030  205.1370  150.8400 C   0  0  0  0  0  3  0  0  0  0  0  0
  161.5250  206.2560  146.1390 C   0  0  0  0  0  3  0  0  0  0  0  0
  161.6990  203.4420  146.2990 N   0  0  0  0  0  0  0  0  0  0  0  0
  161.3700  205.5890  147.2750 C   0  0  0  0  0  0  0  0  0  0  0  0
  161.9170  204.0710  145.0810 O   0  0  0  0  0  0  0  0  0  0  0  0
  161.1910  206.0600  148.6270 C   0  0  0  0  0  0  0  0  0  0  0  0
  161.6100  205.4630  144.8570 C   0  0  0  0  0  2  0  0  0  0  0  0
  161.2360  203.6550  148.7430 C   0  0  0  0  0  2  0  0  0  0  0  0
  161.1050  204.9630  149.4720 C   0  0  0  0  0  0  0  0  0  0  0  0
  161.4040  204.1510  147.3400 C   0  0  0  0  0  0  0  0  0  0  0  0
  160.7960  206.4460  151.3440 C   0  0  0  0  0  0  0  0  0  0  0  0
  160.8730  207.5500  150.4750 C   0  0  0  0  0  3  0  0  0  0  0  0
  1  5  1  6  0  0  0
  1 10  1  0  0  0  0
  2 15  1  0  0  0  0
  4 21  1  1  0  0  0
  4  8  1  0  0  0  0
  5  4  1  0  0  0  0
  6  8  1  6  0  0  0
  6  7  1  0  0  0  0
  9  3  1  6  0  0  0
  9 10  1  0  0  0  0
  9 11  1  0  0  0  0
 10  6  1  0  0  0  0
 11  7  1  0  0  0  0
 12  2  2  0  0  0  0
 13 14  1  0  0  0  0
 13 12  1  0  0  0  0
 14 16  1  0  0  0  0
 15 17  1  0  0  0  0
 15  3  1  0  0  0  0
 16 17  1  0  0  0  0
 17  1  1  0  0  0  0
 18 13  1  0  0  0  0
 19 20  1  0  0  0  0
 19 18  1  0  0  0  0
 20 18  1  0  0  0  0
 22 34  1  0  0  0  0
 23 33  1  0  0  0  0
 24 26  2  0  0  0  0
 25 32  2  0  0  0  0
 26 32  1  0  0  0  0
 26 28  1  0  0  0  0
 27 25  1  0  0  0  0
 28 22  2  0  0  0  0
 28 31  1  0  0  0  0
 29 27  1  0  0  0  0
 29 24  1  0  0  0  0
 30 31  1  0  0  0  0
 31 23  2  0  0  0  0
 32 30  1  0  0  0  0
 33 21  1  0  0  0  0
 34 33  2  0  0  0  0
M  END
>  <MODEL>
4

>  <REMARK>
 VINA RESULT:      -6.6      3.196      6.118
  Name = 
  3 active torsions:
  status: ('A' for Active; 'I' for Inactive)
    1  A    between atoms: N_3  and  C_25
    2  A    between atoms: C_8  and  C_18
    3  A    between atoms: C_18  and  C_30
                            x       y       z     vdW  Elec       q    Type
                         _______ _______ _______ _____ _____    ______ ____

>  <TORSDO>
F 3

$$$$
=
 OpenBabel11062409503D

 34 41  0  0  1  0  0  0  0  0999 V2000
  159.2290  213.2450  154.4000 C   0  0  2  0  0  3  0  0  0  0  0  0
  157.5140  212.6430  151.0480 C   0  0  0  0  0  3  0  0  0  0  0  0
  157.4010  211.4630  153.2120 C   0  0  0  0  0  2  0  0  0  0  0  0
  159.9350  210.8750  154.8680 C   0  0  2  0  0  3  0  0  0  0  0  0
  160.4050  212.3130  154.7440 C   0  0  0  0  0  2  0  0  0  0  0  0
  158.0780  211.9310  156.3100 C   0  0  1  0  0  3  0  0  0  0  0  0
  156.4180  211.3860  156.7290 S   0  0  0  0  0  0  0  0  0  0  0  0
  158.9630  210.7050  156.0390 C   0  0  0  0  0  2  0  0  0  0  0  0
  156.8480  212.3700  154.2190 N   0  0  2  0  0  0  0  0  0  0  0  0
  157.9070  212.8620  155.1180 C   0  0  2  0  0  3  0  0  0  0  0  0
  155.8810  211.6040  154.9990 C   0  0  0  0  0  2  0  0  0  0  0  0
  158.0600  213.1880  149.9540 C   0  0  0  0  0  3  0  0  0  0  0  0
  159.5370  213.4230  149.7970 C   0  0  2  0  0  3  0  0  0  0  0  0
  160.0170  214.4530  150.8170 C   0  0  0  0  0  2  0  0  0  0  0  0
  158.3180  212.2090  152.2360 C   0  0  2  0  0  3  0  0  0  0  0  0
  160.2990  213.8040  152.1650 C   0  0  0  0  0  2  0  0  0  0  0  0
  159.0090  213.4210  152.8900 C   0  0  2  0  0  3  0  0  0  0  0  0
  159.8080  213.9070  148.4500 N   0  0  0  0  0  0  0  0  0  0  0  0
  160.6000  212.8710  147.7630 C   0  0  0  0  0  2  0  0  0  0  0  0
  159.1690  212.9660  147.5150 C   0  0  0  0  0  2  0  0  0  0  0  0
  161.1220  209.9370  155.0020 C   0  0  0  0  0  2  0  0  0  0  0  0
  160.8410  206.5550  153.2860 C   0  0  0  0  0  3  0  0  0  0  0  0
  161.3410  209.2570  152.5990 C   0  0  0  0  0  3  0  0  0  0  0  0
  160.9670  204.8270  150.6050 C   0  0  0  0  0  3  0  0  0  0  0  0
  161.4390  206.6060  148.4650 N   0  0  0  0  0  0  0  0  0  0  0  0
  161.1550  206.1290  150.7790 C   0  0  0  0  0  0  0  0  0  0  0  0
  161.2080  205.2640  148.1970 O   0  0  0  0  0  0  0  0  0  0  0  0
  161.0770  206.9400  151.9700 C   0  0  0  0  0  0  0  0  0  0  0  0
  161.2030  204.2540  149.2280 C   0  0  0  0  0  2  0  0  0  0  0  0
  161.5840  208.4380  150.1540 C   0  0  0  0  0  2  0  0  0  0  0  0
  161.3290  208.2600  151.6250 C   0  0  0  0  0  0  0  0  0  0  0  0
  161.4510  207.0210  149.6900 C   0  0  0  0  0  0  0  0  0  0  0  0
  161.0870  208.8960  153.9340 C   0  0  0  0  0  0  0  0  0  0  0  0
  160.8450  207.5520  154.2730 C   0  0  0  0  0  3  0  0  0  0  0  0
  1  5  1  6  0  0  0
  1 10  1  0  0  0  0
  2 15  1  0  0  0  0
  4 21  1  1  0  0  0
  4  8  1  0  0  0  0
  5  4  1  0  0  0  0
  6  8  1  6  0  0  0
  6  7  1  0  0  0  0
  9  3  1  6  0  0  0
  9 11  1  0  0  0  0
  9 10  1  0  0  0  0
 10  6  1  0  0  0  0
 11  7  1  0  0  0  0
 12  2  2  0  0  0  0
 13 12  1  0  0  0  0
 13 14  1  0  0  0  0
 14 16  1  0  0  0  0
 15 17  1  0  0  0  0
 15  3  1  0  0  0  0
 16 17  1  0  0  0  0
 17  1  1  0  0  0  0
 18 13  1  0  0  0  0
 19 18  1  0  0  0  0
 20 19  1  0  0  0  0
 20 18  1  0  0  0  0
 22 34  1  0  0  0  0
 23 33  1  0  0  0  0
 24 26  2  0  0  0  0
 25 32  2  0  0  0  0
 26 28  1  0  0  0  0
 27 25  1  0  0  0  0
 27 29  1  0  0  0  0
 28 22  2  0  0  0  0
 29 24  1  0  0  0  0
 30 31  1  0  0  0  0
 31 28  1  0  0  0  0
 31 23  2  0  0  0  0
 32 30  1  0  0  0  0
 32 26  1  0  0  0  0
 33 34  2  0  0  0  0
 33 21  1  0  0  0  0
M  END
>  <MODEL>
5

>  <REMARK>
 VINA RESULT:      -6.6      3.897      6.110
  Name = 
  3 active torsions:
  status: ('A' for Active; 'I' for Inactive)
    1  A    between atoms: N_3  and  C_25
    2  A    between atoms: C_8  and  C_18
    3  A    between atoms: C_18  and  C_30
                            x       y       z     vdW  Elec       q    Type
                         _______ _______ _______ _____ _____    ______ ____

>  <TORSDO>
F 3

$$$$
=
 OpenBabel11062409503D

 34 41  0  0  1  0  0  0  0  0999 V2000
  162.0080  210.1610  154.4140 C   0  0  2  0  0  3  0  0  0  0  0  0
  160.1450  211.7430  151.4870 C   0  0  0  0  0  3  0  0  0  0  0  0
  159.3750  210.7610  153.6160 C   0  0  0  0  0  2  0  0  0  0  0  0
  160.5540  208.1280  154.7030 C   0  0  2  0  0  3  0  0  0  0  0  0
  161.9740  208.6250  154.4970 C   0  0  0  0  0  2  0  0  0  0  0  0
  160.5020  209.9650  156.5100 C   0  0  1  0  0  3  0  0  0  0  0  0
  159.1510  210.8820  157.2590 S   0  0  0  0  0  0  0  0  0  0  0  0
  159.9900  208.5910  156.0490 C   0  0  0  0  0  2  0  0  0  0  0  0
  159.9050  211.5570  154.7240 N   0  0  2  0  0  0  0  0  0  0  0  0
  161.0170  210.8550  155.3880 C   0  0  2  0  0  3  0  0  0  0  0  0
  158.8170  211.7340  155.6810 C   0  0  0  0  0  2  0  0  0  0  0  0
  160.7740  211.8220  150.3080 C   0  0  0  0  0  3  0  0  0  0  0  0
  161.7990  210.8220  149.8500 C   0  0  2  0  0  3  0  0  0  0  0  0
  163.0270  210.8720  150.7570 C   0  0  0  0  0  2  0  0  0  0  0  0
  160.3950  210.6460  152.4780 C   0  0  2  0  0  3  0  0  0  0  0  0
  162.8190  210.0340  152.0110 C   0  0  0  0  0  2  0  0  0  0  0  0
  161.8490  210.7010  152.9850 C   0  0  2  0  0  3  0  0  0  0  0  0
  162.1910  211.1270  148.4810 N   0  0  0  0  0  0  0  0  0  0  0  0
  160.9710  211.5200  147.7520 C   0  0  0  0  0  2  0  0  0  0  0  0
  161.8780  212.5460  148.2450 C   0  0  0  0  0  2  0  0  0  0  0  0
  160.4970  206.6140  154.5780 C   0  0  0  0  0  2  0  0  0  0  0  0
  161.0180  204.4330  151.5080 C   0  0  0  0  0  3  0  0  0  0  0  0
  160.7880  207.1810  152.1540 C   0  0  0  0  0  3  0  0  0  0  0  0
  161.4760  204.2070  148.3570 C   0  0  0  0  0  3  0  0  0  0  0  0
  161.3970  206.8210  147.2930 N   0  0  0  0  0  0  0  0  0  0  0  0
  161.3330  205.2870  149.1130 C   0  0  0  0  0  0  0  0  0  0  0  0
  161.5040  205.7370  146.4320 O   0  0  0  0  0  0  0  0  0  0  0  0
  161.0980  205.4200  150.5300 C   0  0  0  0  0  0  0  0  0  0  0  0
  161.7960  204.4020  146.8940 C   0  0  0  0  0  2  0  0  0  0  0  0
  161.1360  207.6540  149.6310 C   0  0  0  0  0  2  0  0  0  0  0  0
  160.9920  206.7690  150.8380 C   0  0  0  0  0  0  0  0  0  0  0  0
  161.3500  206.6200  148.5700 C   0  0  0  0  0  0  0  0  0  0  0  0
  160.6850  206.2020  153.1580 C   0  0  0  0  0  0  0  0  0  0  0  0
  160.8060  204.8370  152.8340 C   0  0  0  0  0  3  0  0  0  0  0  0
  1  5  1  6  0  0  0
  1 10  1  0  0  0  0
  2 15  1  0  0  0  0
  4 21  1  1  0  0  0
  4  8  1  0  0  0  0
  5  4  1  0  0  0  0
  6  8  1  6  0  0  0
  6  7  1  0  0  0  0
  9  3  1  6  0  0  0
  9 10  1  0  0  0  0
  9 11  1  0  0  0  0
 10  6  1  0  0  0  0
 11  7  1  0  0  0  0
 12  2  2  0  0  0  0
 13 12  1  0  0  0  0
 13 14  1  0  0  0  0
 14 16  1  0  0  0  0
 15 17  1  0  0  0  0
 15  3  1  0  0  0  0
 16 17  1  0  0  0  0
 17  1  1  0  0  0  0
 18 13  1  0  0  0  0
 19 20  1  0  0  0  0
 19 18  1  0  0  0  0
 20 18  1  0  0  0  0
 22 34  1  0  0  0  0
 23 33  1  0  0  0  0
 24 26  2  0  0  0  0
 25 32  2  0  0  0  0
 26 28  1  0  0  0  0
 27 29  1  0  0  0  0
 27 25  1  0  0  0  0
 28 31  1  0  0  0  0
 28 22  2  0  0  0  0
 29 24  1  0  0  0  0
 30 31  1  0  0  0  0
 31 23  2  0  0  0  0
 32 26  1  0  0  0  0
 32 30  1  0  0  0  0
 33 21  1  0  0  0  0
 34 33  2  0  0  0  0
M  END
>  <MODEL>
6

>  <REMARK>
 VINA RESULT:      -5.9      3.691      6.689
  Name = 
  3 active torsions:
  status: ('A' for Active; 'I' for Inactive)
    1  A    between atoms: N_3  and  C_25
    2  A    between atoms: C_8  and  C_18
    3  A    between atoms: C_18  and  C_30
                            x       y       z     vdW  Elec       q    Type
                         _______ _______ _______ _____ _____    ______ ____

>  <TORSDO>
F 3

$$$$
=
 OpenBabel11062409503D

 34 41  0  0  1  0  0  0  0  0999 V2000
  160.8380  211.4040  154.8370 C   0  0  2  0  0  3  0  0  0  0  0  0
  157.0270  211.3230  154.7030 C   0  0  0  0  0  3  0  0  0  0  0  0
  158.7330  209.5400  154.6900 C   0  0  0  0  0  2  0  0  0  0  0  0
  161.2930  209.7620  152.9860 C   0  0  2  0  0  3  0  0  0  0  0  0
  161.5740  211.1600  153.5080 C   0  0  0  0  0  2  0  0  0  0  0  0
  161.8220  209.0810  155.4150 C   0  0  1  0  0  3  0  0  0  0  0  0
  161.3530  207.6520  156.3960 S   0  0  0  0  0  0  0  0  0  0  0  0
  161.8490  208.6910  153.9290 C   0  0  0  0  0  2  0  0  0  0  0  0
  159.4680  209.5760  155.9550 N   0  0  2  0  0  0  0  0  0  0  0  0
  160.8070  210.1600  155.7650 C   0  0  2  0  0  3  0  0  0  0  0  0
  159.6110  208.1950  156.4060 C   0  0  0  0  0  2  0  0  0  0  0  0
  156.3860  212.4350  154.3240 C   0  0  0  0  0  3  0  0  0  0  0  0
  156.9630  213.4330  153.3590 C   0  0  2  0  0  3  0  0  0  0  0  0
  158.2040  214.0900  153.9590 C   0  0  0  0  0  2  0  0  0  0  0  0
  158.3920  210.9530  154.2040 C   0  0  2  0  0  3  0  0  0  0  0  0
  159.4400  213.2250  153.7510 C   0  0  0  0  0  2  0  0  0  0  0  0
  159.4310  211.9950  154.6580 C   0  0  2  0  0  3  0  0  0  0  0  0
  155.9650  214.4520  153.0650 N   0  0  0  0  0  0  0  0  0  0  0  0
  154.7170  213.7540  152.7050 C   0  0  0  0  0  2  0  0  0  0  0  0
  154.8800  214.2920  154.0470 C   0  0  0  0  0  2  0  0  0  0  0  0
  161.8500  209.5970  151.5820 C   0  0  0  0  0  2  0  0  0  0  0  0
  161.2500  206.6090  149.3070 C   0  0  0  0  0  3  0  0  0  0  0  0
  161.7220  207.1380  152.0500 C   0  0  0  0  0  3  0  0  0  0  0  0
  160.9100  203.4530  148.9670 C   0  0  0  0  0  3  0  0  0  0  0  0
  161.2920  202.2750  151.5040 N   0  0  0  0  0  0  0  0  0  0  0  0
  161.1250  204.1650  150.0660 C   0  0  0  0  0  0  0  0  0  0  0  0
  161.1160  201.4610  150.3940 O   0  0  0  0  0  0  0  0  0  0  0  0
  161.3110  205.5840  150.2470 C   0  0  0  0  0  0  0  0  0  0  0  0
  160.6740  201.9690  149.1180 C   0  0  0  0  0  2  0  0  0  0  0  0
  161.5320  204.5820  152.4260 C   0  0  0  0  0  2  0  0  0  0  0  0
  161.5360  205.8340  151.5940 C   0  0  0  0  0  0  0  0  0  0  0  0
  161.2640  203.5610  151.3650 C   0  0  0  0  0  0  0  0  0  0  0  0
  161.6840  208.1900  151.1170 C   0  0  0  0  0  0  0  0  0  0  0  0
  161.4430  207.9240  149.7560 C   0  0  0  0  0  3  0  0  0  0  0  0
  1  5  1  6  0  0  0
  1 10  1  0  0  0  0
  4 21  1  6  0  0  0
  4  5  1  0  0  0  0
  4  8  1  0  0  0  0
  6  8  1  6  0  0  0
  6 10  1  0  0  0  0
  6  7  1  0  0  0  0
  7 11  1  0  0  0  0
  9  3  1  6  0  0  0
  9 11  1  0  0  0  0
 10  9  1  0  0  0  0
 12  2  2  0  0  0  0
 13 14  1  0  0  0  0
 13 12  1  0  0  0  0
 15 17  1  0  0  0  0
 15  3  1  0  0  0  0
 15  2  1  0  0  0  0
 16 14  1  0  0  0  0
 16 17  1  0  0  0  0
 17  1  1  0  0  0  0
 18 13  1  0  0  0  0
 18 20  1  0  0  0  0
 19 18  1  0  0  0  0
 19 20  1  0  0  0  0
 22 34  2  0  0  0  0
 22 28  1  0  0  0  0
 24 29  1  0  0  0  0
 24 26  2  0  0  0  0
 26 28  1  0  0  0  0
 26 32  1  0  0  0  0
 27 25  1  0  0  0  0
 28 31  2  0  0  0  0
 29 27  1  0  0  0  0
 31 23  1  0  0  0  0
 31 30  1  0  0  0  0
 32 25  2  0  0  0  0
 32 30  1  0  0  0  0
 33 21  1  0  0  0  0
 33 23  2  0  0  0  0
 34 33  1  0  0  0  0
M  END
>  <MODEL>
7

>  <REMARK>
 VINA RESULT:      -5.7      6.038      8.173
  Name = 
  3 active torsions:
  status: ('A' for Active; 'I' for Inactive)
    1  A    between atoms: N_3  and  C_25
    2  A    between atoms: C_8  and  C_18
    3  A    between atoms: C_18  and  C_30
                            x       y       z     vdW  Elec       q    Type
                         _______ _______ _______ _____ _____    ______ ____

>  <TORSDO>
F 3

$$$$
