=
 OpenBabel11052422223D

 25 28  0  0  1  0  0  0  0  0999 V2000
  161.3590  205.1910  150.6410 C   0  0  0  0  0  0  0  0  0  0  0  0
  160.8960  204.2310  149.7020 C   0  0  0  0  0  0  0  0  0  0  0  0
  160.9290  203.6000  152.4370 C   0  0  0  0  0  3  0  0  0  0  0  0
  161.7890  206.5180  150.2500 N   0  0  0  0  0  0  0  0  0  0  0  0
  162.0420  203.5690  147.6780 N   0  0  0  0  0  0  0  0  0  0  0  0
  160.4360  202.6810  151.5180 C   0  0  0  0  0  3  0  0  0  0  0  0
  162.6630  207.2510  151.1720 C   0  0  0  0  0  2  0  0  0  0  0  0
  162.0660  207.2070  152.5690 C   0  0  0  0  0  2  0  0  0  0  0  0
  159.9040  201.9510  149.1640 C   0  0  2  0  0  3  0  0  0  0  0  0
  159.2640  200.8900  149.8090 O   0  0  0  0  0  1  0  0  0  0  0  0
  161.0310  204.4650  148.2250 C   0  0  0  0  0  2  0  0  0  0  0  0
  161.3840  204.8470  152.0140 C   0  0  0  0  0  0  0  0  0  0  0  0
  161.9930  205.7590  153.0410 C   0  0  0  0  0  2  0  0  0  0  0  0
  161.0350  201.4130  148.2960 C   0  0  0  0  0  2  0  0  0  0  0  0
  161.3570  202.3880  147.1660 C   0  0  0  0  0  2  0  0  0  0  0  0
  160.4100  202.9800  150.1510 C   0  0  0  0  0  0  0  0  0  0  0  0
  162.1410  207.9240  148.2790 C   0  0  0  0  0  2  0  0  0  0  0  0
  161.2600  208.7300  149.2060 C   0  0  0  0  0  2  0  0  0  0  0  0
  161.1140  207.2150  149.1420 C   0  0  0  0  0  3  0  0  0  0  0  0
  162.6250  204.2390  146.5290 C   0  0  0  0  0  2  0  0  0  0  0  0
  162.2660  206.5000  145.8320 O   0  0  0  0  0  1  0  0  0  0  0  0
  161.6450  205.2550  145.9610 C   0  0  1  0  0  3  0  0  0  0  0  0
  161.1420  204.8000  144.6330 C   0  0  0  0  0  0  0  0  0  0  0  0
  160.4160  203.7750  144.5420 O   0  0  0  0  0  0  0  0  0  0  0  0
  161.4810  205.5310  143.4620 N   0  0  0  0  0  1  0  0  0  0  0  0
  1 12  1  0  0  0  0
  2 16  1  0  0  0  0
  2  1  2  0  0  0  0
  4  1  1  0  0  0  0
  4  7  1  0  0  0  0
  5 11  1  0  0  0  0
  6  3  1  0  0  0  0
  7  8  1  0  0  0  0
  8 13  1  0  0  0  0
  9 10  1  1  0  0  0
  9 16  1  0  0  0  0
 11  2  1  0  0  0  0
 12  3  2  0  0  0  0
 12 13  1  0  0  0  0
 14  9  1  0  0  0  0
 15  5  1  0  0  0  0
 15 14  1  0  0  0  0
 16  6  2  0  0  0  0
 17 19  1  0  0  0  0
 17 18  1  0  0  0  0
 19 18  1  0  0  0  0
 19  4  1  0  0  0  0
 20  5  1  0  0  0  0
 22 21  1  6  0  0  0
 22 20  1  0  0  0  0
 23 22  1  0  0  0  0
 24 23  2  0  0  0  0
 25 23  1  0  0  0  0
M  END
>  <MODEL>
1

>  <REMARK>
 VINA RESULT:      -7.8      0.000      0.000
  Name = 
  4 active torsions:
  status: ('A' for Active; 'I' for Inactive)
    1  A    between atoms: C_2  and  C_25
    2  A    between atoms: N_5  and  C_22
    3  A    between atoms: N_6  and  C_15
    4  A    between atoms: C_15  and  C_25
                            x       y       z     vdW  Elec       q    Type
                         _______ _______ _______ _____ _____    ______ ____

>  <TORSDO>
F 4

$$$$
=
 OpenBabel11052422223D

 25 28  0  0  1  0  0  0  0  0999 V2000
  161.1230  203.3650  147.7210 C   0  0  0  0  0  0  0  0  0  0  0  0
  161.4140  203.8670  149.0170 C   0  0  0  0  0  0  0  0  0  0  0  0
  160.4200  201.2580  148.7250 C   0  0  0  0  0  3  0  0  0  0  0  0
  161.3530  204.1380  146.5160 N   0  0  0  0  0  0  0  0  0  0  0  0
  160.6830  205.9940  149.9060 N   0  0  0  0  0  0  0  0  0  0  0  0
  160.7480  201.7400  149.9870 C   0  0  0  0  0  3  0  0  0  0  0  0
  160.6140  203.7550  145.3080 C   0  0  0  0  0  2  0  0  0  0  0  0
  160.7550  202.2570  145.0900 C   0  0  0  0  0  2  0  0  0  0  0  0
  161.5640  203.5530  151.5370 C   0  0  2  0  0  3  0  0  0  0  0  0
  161.5540  202.5260  152.4840 O   0  0  0  0  0  1  0  0  0  0  0  0
  161.7760  205.3100  149.2250 C   0  0  0  0  0  2  0  0  0  0  0  0
  160.6040  202.0530  147.5960 C   0  0  0  0  0  0  0  0  0  0  0  0
  160.1420  201.5140  146.2720 C   0  0  0  0  0  2  0  0  0  0  0  0
  160.5870  204.6450  151.9580 C   0  0  0  0  0  2  0  0  0  0  0  0
  160.9750  205.9830  151.3340 C   0  0  0  0  0  2  0  0  0  0  0  0
  161.2480  203.0370  150.1500 C   0  0  0  0  0  0  0  0  0  0  0  0
  162.8030  205.3700  144.9790 C   0  0  0  0  0  2  0  0  0  0  0  0
  163.7110  204.4240  145.7310 C   0  0  0  0  0  2  0  0  0  0  0  0
  162.5100  205.0450  146.4320 C   0  0  0  0  0  3  0  0  0  0  0  0
  160.7270  207.3840  149.4850 C   0  0  0  0  0  2  0  0  0  0  0  0
  162.7280  208.0590  148.3590 O   0  0  0  0  0  1  0  0  0  0  0  0
  162.1420  207.9280  149.6200 C   0  0  1  0  0  3  0  0  0  0  0  0
  162.1220  209.2500  150.3100 C   0  0  0  0  0  0  0  0  0  0  0  0
  162.0360  210.3170  149.6440 O   0  0  0  0  0  0  0  0  0  0  0  0
  162.1990  209.3070  151.7280 N   0  0  0  0  0  1  0  0  0  0  0  0
  1  2  1  0  0  0  0
  2 11  1  0  0  0  0
  2 16  2  0  0  0  0
  3  6  2  0  0  0  0
  4  1  1  0  0  0  0
  5 15  1  0  0  0  0
  6 16  1  0  0  0  0
  7  4  1  0  0  0  0
  8  7  1  0  0  0  0
  8 13  1  0  0  0  0
  9 14  1  0  0  0  0
  9 10  1  1  0  0  0
 11  5  1  0  0  0  0
 12  1  2  0  0  0  0
 12  3  1  0  0  0  0
 13 12  1  0  0  0  0
 15 14  1  0  0  0  0
 16  9  1  0  0  0  0
 17 18  1  0  0  0  0
 17 19  1  0  0  0  0
 18 19  1  0  0  0  0
 19  4  1  0  0  0  0
 20 22  1  0  0  0  0
 20  5  1  0  0  0  0
 22 21  1  6  0  0  0
 22 23  1  0  0  0  0
 23 25  1  0  0  0  0
 24 23  2  0  0  0  0
M  END
>  <MODEL>
2

>  <REMARK>
 VINA RESULT:      -7.8      2.062      5.321
  Name = 
  4 active torsions:
  status: ('A' for Active; 'I' for Inactive)
    1  A    between atoms: C_2  and  C_25
    2  A    between atoms: N_5  and  C_22
    3  A    between atoms: N_6  and  C_15
    4  A    between atoms: C_15  and  C_25
                            x       y       z     vdW  Elec       q    Type
                         _______ _______ _______ _____ _____    ______ ____

>  <TORSDO>
F 4

$$$$
=
 OpenBabel11052422223D

 25 28  0  0  1  0  0  0  0  0999 V2000
  161.0670  203.4490  149.0080 C   0  0  0  0  0  0  0  0  0  0  0  0
  160.9200  204.7670  148.5010 C   0  0  0  0  0  0  0  0  0  0  0  0
  161.1510  202.6090  146.7210 C   0  0  0  0  0  3  0  0  0  0  0  0
  161.0680  203.1550  150.4270 N   0  0  0  0  0  0  0  0  0  0  0  0
  162.2090  206.6960  149.1860 N   0  0  0  0  0  0  0  0  0  0  0  0
  160.9630  203.8970  146.2310 C   0  0  0  0  0  3  0  0  0  0  0  0
  161.6760  201.8930  150.8620 C   0  0  0  0  0  2  0  0  0  0  0  0
  161.1260  200.7550  150.0190 C   0  0  0  0  0  2  0  0  0  0  0  0
  160.6750  206.3810  146.5510 C   0  0  2  0  0  3  0  0  0  0  0  0
  160.3940  206.3620  145.1820 O   0  0  0  0  0  1  0  0  0  0  0  0
  160.9730  205.9580  149.4150 C   0  0  0  0  0  2  0  0  0  0  0  0
  161.2010  202.3760  148.0930 C   0  0  0  0  0  0  0  0  0  0  0  0
  161.5020  200.9790  148.5590 C   0  0  0  0  0  2  0  0  0  0  0  0
  161.9150  207.2310  146.8050 C   0  0  0  0  0  2  0  0  0  0  0  0
  161.9190  207.7630  148.2350 C   0  0  0  0  0  2  0  0  0  0  0  0
  160.8420  204.9840  147.1050 C   0  0  0  0  0  0  0  0  0  0  0  0
  161.0560  204.5670  152.4240 C   0  0  0  0  0  2  0  0  0  0  0  0
  160.1880  203.3750  152.7590 C   0  0  0  0  0  2  0  0  0  0  0  0
  160.2080  203.9280  151.3400 C   0  0  0  0  0  3  0  0  0  0  0  0
  162.5560  207.3410  150.4400 C   0  0  0  0  0  2  0  0  0  0  0  0
  160.8060  207.9200  151.9660 O   0  0  0  0  0  1  0  0  0  0  0  0
  161.4840  208.3510  150.8230 C   0  0  1  0  0  3  0  0  0  0  0  0
  162.0990  209.6860  151.0730 C   0  0  0  0  0  0  0  0  0  0  0  0
  162.6730  209.9320  152.1680 O   0  0  0  0  0  0  0  0  0  0  0  0
  162.0420  210.6890  150.0660 N   0  0  0  0  0  1  0  0  0  0  0  0
  1  4  1  0  0  0  0
  2  1  1  0  0  0  0
  2 11  1  0  0  0  0
  3 12  1  0  0  0  0
  4  7  1  0  0  0  0
  4 19  1  0  0  0  0
  5 11  1  0  0  0  0
  5 20  1  0  0  0  0
  6  3  2  0  0  0  0
  6 16  1  0  0  0  0
  8  7  1  0  0  0  0
  9 10  1  6  0  0  0
  9 14  1  0  0  0  0
  9 16  1  0  0  0  0
 12 13  1  0  0  0  0
 12  1  2  0  0  0  0
 13  8  1  0  0  0  0
 14 15  1  0  0  0  0
 15  5  1  0  0  0  0
 16  2  2  0  0  0  0
 17 18  1  0  0  0  0
 19 17  1  0  0  0  0
 19 18  1  0  0  0  0
 20 22  1  0  0  0  0
 22 23  1  0  0  0  0
 22 21  1  1  0  0  0
 23 24  2  0  0  0  0
 25 23  1  0  0  0  0
M  END
>  <MODEL>
3

>  <REMARK>
 VINA RESULT:      -7.1      2.500      5.758
  Name = 
  4 active torsions:
  status: ('A' for Active; 'I' for Inactive)
    1  A    between atoms: C_2  and  C_25
    2  A    between atoms: N_5  and  C_22
    3  A    between atoms: N_6  and  C_15
    4  A    between atoms: C_15  and  C_25
                            x       y       z     vdW  Elec       q    Type
                         _______ _______ _______ _____ _____    ______ ____

>  <TORSDO>
F 4

$$$$
=
 OpenBabel11052422223D

 25 28  0  0  1  0  0  0  0  0999 V2000
  161.0940  207.0300  151.6100 C   0  0  0  0  0  0  0  0  0  0  0  0
  161.2360  207.9970  152.6410 C   0  0  0  0  0  0  0  0  0  0  0  0
  161.0590  205.2740  153.3000 C   0  0  0  0  0  3  0  0  0  0  0  0
  161.0720  207.3870  150.2060 N   0  0  0  0  0  0  0  0  0  0  0  0
  159.9160  210.0090  152.8840 N   0  0  0  0  0  0  0  0  0  0  0  0
  161.2420  206.2210  154.3010 C   0  0  0  0  0  3  0  0  0  0  0  0
  160.4690  206.4330  149.2690 C   0  0  0  0  0  2  0  0  0  0  0  0
  161.0460  205.0500  149.5220 C   0  0  0  0  0  2  0  0  0  0  0  0
  161.4980  208.5990  155.0980 C   0  0  2  0  0  3  0  0  0  0  0  0
  161.8040  207.9880  156.3170 O   0  0  0  0  0  1  0  0  0  0  0  0
  161.1560  209.4660  152.3410 C   0  0  0  0  0  2  0  0  0  0  0  0
  160.9880  205.6640  151.9650 C   0  0  0  0  0  0  0  0  0  0  0  0
  160.6930  204.6070  150.9380 C   0  0  0  0  0  2  0  0  0  0  0  0
  160.2460  209.4530  155.2550 C   0  0  0  0  0  2  0  0  0  0  0  0
  160.2120  210.5570  154.2020 C   0  0  0  0  0  2  0  0  0  0  0  0
  161.3360  207.5820  153.9900 C   0  0  0  0  0  0  0  0  0  0  0  0
  161.5970  208.7630  148.2520 C   0  0  0  0  0  2  0  0  0  0  0  0
  162.8890  208.0740  148.6290 C   0  0  0  0  0  2  0  0  0  0  0  0
  161.9070  208.4960  149.7140 C   0  0  0  0  0  3  0  0  0  0  0  0
  159.5410  211.1320  152.0420 C   0  0  0  0  0  2  0  0  0  0  0  0
  160.0620  213.4520  152.3030 O   0  0  0  0  0  1  0  0  0  0  0  0
  159.3730  212.3860  152.8870 C   0  0  1  0  0  3  0  0  0  0  0  0
  157.9280  212.7290  153.0190 C   0  0  0  0  0  0  0  0  0  0  0  0
  157.2230  212.1900  153.9130 O   0  0  0  0  0  0  0  0  0  0  0  0
  157.3430  213.6740  152.1330 N   0  0  0  0  0  1  0  0  0  0  0  0
  1 12  2  0  0  0  0
  1  2  1  0  0  0  0
  2 16  2  0  0  0  0
  3  6  2  0  0  0  0
  4  1  1  0  0  0  0
  5 15  1  0  0  0  0
  7  8  1  0  0  0  0
  7  4  1  0  0  0  0
  8 13  1  0  0  0  0
  9 14  1  0  0  0  0
  9 10  1  1  0  0  0
 11  2  1  0  0  0  0
 11  5  1  0  0  0  0
 12  3  1  0  0  0  0
 13 12  1  0  0  0  0
 15 14  1  0  0  0  0
 16  6  1  0  0  0  0
 16  9  1  0  0  0  0
 17 18  1  0  0  0  0
 17 19  1  0  0  0  0
 18 19  1  0  0  0  0
 19  4  1  0  0  0  0
 20  5  1  0  0  0  0
 20 22  1  0  0  0  0
 22 21  1  6  0  0  0
 22 23  1  0  0  0  0
 23 24  2  0  0  0  0
 25 23  1  0  0  0  0
M  END
>  <MODEL>
4

>  <REMARK>
 VINA RESULT:      -6.8      4.765      7.521
  Name = 
  4 active torsions:
  status: ('A' for Active; 'I' for Inactive)
    1  A    between atoms: C_2  and  C_25
    2  A    between atoms: N_5  and  C_22
    3  A    between atoms: N_6  and  C_15
    4  A    between atoms: C_15  and  C_25
                            x       y       z     vdW  Elec       q    Type
                         _______ _______ _______ _____ _____    ______ ____

>  <TORSDO>
F 4

$$$$
=
 OpenBabel11052422223D

 25 28  0  0  1  0  0  0  0  0999 V2000
  161.2740  203.9400  149.0210 C   0  0  0  0  0  0  0  0  0  0  0  0
  161.5990  204.9800  149.9330 C   0  0  0  0  0  0  0  0  0  0  0  0
  160.4710  202.5930  150.8870 C   0  0  0  0  0  3  0  0  0  0  0  0
  161.5360  204.0400  147.6000 N   0  0  0  0  0  0  0  0  0  0  0  0
  160.9820  207.3070  149.6990 N   0  0  0  0  0  0  0  0  0  0  0  0
  160.8310  203.5970  151.7790 C   0  0  0  0  0  3  0  0  0  0  0  0
  160.7720  203.1680  146.7010 C   0  0  0  0  0  2  0  0  0  0  0  0
  160.8360  201.7400  147.2190 C   0  0  0  0  0  2  0  0  0  0  0  0
  161.7480  205.8860  152.3050 C   0  0  2  0  0  3  0  0  0  0  0  0
  161.6910  205.4290  153.6240 O   0  0  0  0  0  1  0  0  0  0  0  0
  162.0350  206.3310  149.4430 C   0  0  0  0  0  2  0  0  0  0  0  0
  160.6900  202.7510  149.5210 C   0  0  0  0  0  0  0  0  0  0  0  0
  160.1920  201.6730  148.5990 C   0  0  0  0  0  2  0  0  0  0  0  0
  160.8300  207.0920  152.1430 C   0  0  0  0  0  2  0  0  0  0  0  0
  161.2810  207.9570  150.9690 C   0  0  0  0  0  2  0  0  0  0  0  0
  161.3980  204.7920  151.3210 C   0  0  0  0  0  0  0  0  0  0  0  0
  162.3620  205.6980  146.0010 C   0  0  0  0  0  2  0  0  0  0  0  0
  163.0910  204.4140  145.6750 C   0  0  0  0  0  2  0  0  0  0  0  0
  162.7380  204.7440  147.1190 C   0  0  0  0  0  3  0  0  0  0  0  0
  161.0940  208.3290  148.6730 C   0  0  0  0  0  2  0  0  0  0  0  0
  163.2520  208.9990  147.8850 O   0  0  0  0  0  1  0  0  0  0  0  0
  162.3290  209.1830  148.9170 C   0  0  1  0  0  3  0  0  0  0  0  0
  161.9520  210.6230  149.0070 C   0  0  0  0  0  0  0  0  0  0  0  0
  161.9780  211.2230  150.1150 O   0  0  0  0  0  0  0  0  0  0  0  0
  161.5630  211.3250  147.8340 N   0  0  0  0  0  1  0  0  0  0  0  0
  1 12  2  0  0  0  0
  1  2  1  0  0  0  0
  2 16  2  0  0  0  0
  3  6  2  0  0  0  0
  4  1  1  0  0  0  0
  5 15  1  0  0  0  0
  7  8  1  0  0  0  0
  7  4  1  0  0  0  0
  8 13  1  0  0  0  0
  9 10  1  1  0  0  0
 11  5  1  0  0  0  0
 11  2  1  0  0  0  0
 12  3  1  0  0  0  0
 13 12  1  0  0  0  0
 14  9  1  0  0  0  0
 15 14  1  0  0  0  0
 16  6  1  0  0  0  0
 16  9  1  0  0  0  0
 17 19  1  0  0  0  0
 18 17  1  0  0  0  0
 18 19  1  0  0  0  0
 19  4  1  0  0  0  0
 20 22  1  0  0  0  0
 20  5  1  0  0  0  0
 22 21  1  6  0  0  0
 22 23  1  0  0  0  0
 23 24  2  0  0  0  0
 25 23  1  0  0  0  0
M  END
>  <MODEL>
5

>  <REMARK>
 VINA RESULT:      -6.8      2.405      5.215
  Name = 
  4 active torsions:
  status: ('A' for Active; 'I' for Inactive)
    1  A    between atoms: C_2  and  C_25
    2  A    between atoms: N_5  and  C_22
    3  A    between atoms: N_6  and  C_15
    4  A    between atoms: C_15  and  C_25
                            x       y       z     vdW  Elec       q    Type
                         _______ _______ _______ _____ _____    ______ ____

>  <TORSDO>
F 4

$$$$
=
 OpenBabel11052422223D

 25 28  0  0  1  0  0  0  0  0999 V2000
  161.0760  208.7040  153.4300 C   0  0  0  0  0  0  0  0  0  0  0  0
  160.9830  208.5110  152.0260 C   0  0  0  0  0  0  0  0  0  0  0  0
  161.2060  206.2880  153.7260 C   0  0  0  0  0  3  0  0  0  0  0  0
  161.0250  210.0170  154.0410 N   0  0  0  0  0  0  0  0  0  0  0  0
  162.3060  209.6490  150.3520 N   0  0  0  0  0  0  0  0  0  0  0  0
  161.0700  206.1030  152.3550 C   0  0  0  0  0  3  0  0  0  0  0  0
  161.5830  210.1660  155.3890 C   0  0  0  0  0  2  0  0  0  0  0  0
  161.0250  209.0710  156.2840 C   0  0  0  0  0  2  0  0  0  0  0  0
  160.8450  206.9780  150.0010 C   0  0  2  0  0  3  0  0  0  0  0  0
  160.6060  205.6350  149.6970 O   0  0  0  0  0  1  0  0  0  0  0  0
  161.0420  209.6740  151.0790 C   0  0  0  0  0  2  0  0  0  0  0  0
  161.2070  207.5710  154.2690 C   0  0  0  0  0  0  0  0  0  0  0  0
  161.4530  207.7110  155.7450 C   0  0  0  0  0  2  0  0  0  0  0  0
  162.1010  207.4490  149.2770 C   0  0  0  0  0  2  0  0  0  0  0  0
  162.0760  208.9630  149.0870 C   0  0  0  0  0  2  0  0  0  0  0  0
  160.9550  207.2000  151.4930 C   0  0  0  0  0  0  0  0  0  0  0  0
  159.7930  212.0710  154.5400 C   0  0  0  0  0  2  0  0  0  0  0  0
  158.7580  211.0780  154.0610 C   0  0  0  0  0  2  0  0  0  0  0  0
  160.1610  211.0630  153.4670 C   0  0  0  0  0  3  0  0  0  0  0  0
  162.6330  211.0260  150.0230 C   0  0  0  0  0  2  0  0  0  0  0  0
  160.8320  212.5780  149.7530 O   0  0  0  0  0  1  0  0  0  0  0  0
  161.5810  211.6050  149.0880 C   0  0  1  0  0  3  0  0  0  0  0  0
  162.2320  212.2020  147.8860 C   0  0  0  0  0  0  0  0  0  0  0  0
  163.4820  212.3570  147.8470 O   0  0  0  0  0  0  0  0  0  0  0  0
  161.4370  212.5940  146.7750 N   0  0  0  0  0  1  0  0  0  0  0  0
  1  4  1  0  0  0  0
  1 12  1  0  0  0  0
  2  1  2  0  0  0  0
  3 12  2  0  0  0  0
  4  7  1  0  0  0  0
  5 11  1  0  0  0  0
  6  3  1  0  0  0  0
  7  8  1  0  0  0  0
  9 10  1  1  0  0  0
  9 16  1  0  0  0  0
 11  2  1  0  0  0  0
 12 13  1  0  0  0  0
 13  8  1  0  0  0  0
 14  9  1  0  0  0  0
 15 14  1  0  0  0  0
 15  5  1  0  0  0  0
 16  2  1  0  0  0  0
 16  6  2  0  0  0  0
 18 17  1  0  0  0  0
 19  4  1  0  0  0  0
 19 18  1  0  0  0  0
 19 17  1  0  0  0  0
 20  5  1  0  0  0  0
 22 21  1  1  0  0  0
 22 20  1  0  0  0  0
 23 22  1  0  0  0  0
 24 23  2  0  0  0  0
 25 23  1  0  0  0  0
M  END
>  <MODEL>
6

>  <REMARK>
 VINA RESULT:      -6.8      4.040      6.050
  Name = 
  4 active torsions:
  status: ('A' for Active; 'I' for Inactive)
    1  A    between atoms: C_2  and  C_25
    2  A    between atoms: N_5  and  C_22
    3  A    between atoms: N_6  and  C_15
    4  A    between atoms: C_15  and  C_25
                            x       y       z     vdW  Elec       q    Type
                         _______ _______ _______ _____ _____    ______ ____

>  <TORSDO>
F 4

$$$$
=
 OpenBabel11052422223D

 25 28  0  0  1  0  0  0  0  0999 V2000
  160.3810  209.9940  153.6220 C   0  0  0  0  0  0  0  0  0  0  0  0
  161.2370  209.7190  152.5210 C   0  0  0  0  0  0  0  0  0  0  0  0
  159.5880  211.9900  152.4700 C   0  0  0  0  0  3  0  0  0  0  0  0
  160.3450  209.1610  154.8070 N   0  0  0  0  0  0  0  0  0  0  0  0
  161.4320  207.5970  151.3780 N   0  0  0  0  0  0  0  0  0  0  0  0
  160.4590  211.7400  151.4160 C   0  0  0  0  0  3  0  0  0  0  0  0
  159.1500  209.2310  155.6540 C   0  0  0  0  0  2  0  0  0  0  0  0
  158.8250  210.6880  155.9400 C   0  0  0  0  0  2  0  0  0  0  0  0
  162.2040  210.3410  150.2530 C   0  0  2  0  0  3  0  0  0  0  0  0
  162.2810  211.4410  149.3940 O   0  0  0  0  0  1  0  0  0  0  0  0
  161.9970  208.4270  152.4350 C   0  0  0  0  0  2  0  0  0  0  0  0
  159.5440  211.1340  153.5680 C   0  0  0  0  0  0  0  0  0  0  0  0
  158.5150  211.4040  154.6300 C   0  0  0  0  0  2  0  0  0  0  0  0
  161.7510  209.1140  149.4710 C   0  0  0  0  0  2  0  0  0  0  0  0
  162.2070  207.8340  150.1670 C   0  0  0  0  0  2  0  0  0  0  0  0
  161.2900  210.6140  151.4270 C   0  0  0  0  0  0  0  0  0  0  0  0
  161.3860  208.0800  156.7390 C   0  0  0  0  0  2  0  0  0  0  0  0
  162.2300  209.3000  156.4480 C   0  0  0  0  0  2  0  0  0  0  0  0
  161.5810  208.5320  155.3040 C   0  0  0  0  0  3  0  0  0  0  0  0
  161.6660  206.2140  151.7560 C   0  0  0  0  0  2  0  0  0  0  0  0
  161.2310  205.2700  149.6010 O   0  0  0  0  0  1  0  0  0  0  0  0
  160.7890  205.2890  150.9250 C   0  0  1  0  0  3  0  0  0  0  0  0
  160.8180  203.9080  151.4880 C   0  0  0  0  0  0  0  0  0  0  0  0
  160.8260  203.7260  152.7350 O   0  0  0  0  0  0  0  0  0  0  0  0
  160.8320  202.7890  150.6110 N   0  0  0  0  0  1  0  0  0  0  0  0
  1  4  1  0  0  0  0
  2  1  2  0  0  0  0
  3 12  2  0  0  0  0
  4 19  1  0  0  0  0
  4  7  1  0  0  0  0
  5 20  1  0  0  0  0
  5 11  1  0  0  0  0
  6 16  2  0  0  0  0
  6  3  1  0  0  0  0
  7  8  1  0  0  0  0
  9 10  1  6  0  0  0
  9 16  1  0  0  0  0
 11  2  1  0  0  0  0
 12  1  1  0  0  0  0
 12 13  1  0  0  0  0
 13  8  1  0  0  0  0
 14 15  1  0  0  0  0
 14  9  1  0  0  0  0
 15  5  1  0  0  0  0
 16  2  1  0  0  0  0
 18 17  1  0  0  0  0
 19 18  1  0  0  0  0
 19 17  1  0  0  0  0
 22 21  1  6  0  0  0
 22 23  1  0  0  0  0
 22 20  1  0  0  0  0
 23 24  2  0  0  0  0
 25 23  1  0  0  0  0
M  END
>  <MODEL>
7

>  <REMARK>
 VINA RESULT:      -5.8      3.764      7.085
  Name = 
  4 active torsions:
  status: ('A' for Active; 'I' for Inactive)
    1  A    between atoms: C_2  and  C_25
    2  A    between atoms: N_5  and  C_22
    3  A    between atoms: N_6  and  C_15
    4  A    between atoms: C_15  and  C_25
                            x       y       z     vdW  Elec       q    Type
                         _______ _______ _______ _____ _____    ______ ____

>  <TORSDO>
F 4

$$$$
=
 OpenBabel11052422223D

 25 28  0  0  1  0  0  0  0  0999 V2000
  161.1660  204.3370  146.9540 C   0  0  0  0  0  0  0  0  0  0  0  0
  161.3370  203.4960  148.0860 C   0  0  0  0  0  0  0  0  0  0  0  0
  160.7700  202.3620  145.5810 C   0  0  0  0  0  3  0  0  0  0  0  0
  161.3080  205.7770  147.0250 N   0  0  0  0  0  0  0  0  0  0  0  0
  160.2580  203.7780  150.2320 N   0  0  0  0  0  0  0  0  0  0  0  0
  160.9810  201.5410  146.6830 C   0  0  0  0  0  3  0  0  0  0  0  0
  160.6750  206.5780  145.9730 C   0  0  0  0  0  2  0  0  0  0  0  0
  161.0540  206.0100  144.6150 C   0  0  0  0  0  2  0  0  0  0  0  0
  161.4590  201.1800  149.1330 C   0  0  2  0  0  3  0  0  0  0  0  0
  161.5810  199.8430  148.7470 O   0  0  0  0  0  1  0  0  0  0  0  0
  161.4640  204.0720  149.4670 C   0  0  0  0  0  2  0  0  0  0  0  0
  160.8620  203.7460  145.7030 C   0  0  0  0  0  0  0  0  0  0  0  0
  160.5280  204.5830  144.5000 C   0  0  0  0  0  2  0  0  0  0  0  0
  160.3130  201.3220  150.1260 C   0  0  0  0  0  2  0  0  0  0  0  0
  160.5050  202.5610  150.9970 C   0  0  0  0  0  2  0  0  0  0  0  0
  161.2690  202.0900  147.9390 C   0  0  0  0  0  0  0  0  0  0  0  0
  161.6200  207.1830  149.0030 C   0  0  0  0  0  2  0  0  0  0  0  0
  162.3310  207.8970  147.8750 C   0  0  0  0  0  2  0  0  0  0  0  0
  162.3130  206.3750  147.9210 C   0  0  0  0  0  3  0  0  0  0  0  0
  160.0980  204.8500  151.1990 C   0  0  0  0  0  2  0  0  0  0  0  0
  162.4680  204.8610  151.5270 O   0  0  0  0  0  1  0  0  0  0  0  0
  161.2440  204.8290  152.1990 C   0  0  1  0  0  3  0  0  0  0  0  0
  161.1430  205.9950  153.1240 C   0  0  0  0  0  0  0  0  0  0  0  0
  161.2060  205.8280  154.3710 O   0  0  0  0  0  0  0  0  0  0  0  0
  160.9790  207.3030  152.5930 N   0  0  0  0  0  1  0  0  0  0  0  0
  1  4  1  0  0  0  0
  1  2  1  0  0  0  0
  2 11  1  0  0  0  0
  3 12  1  0  0  0  0
  3  6  2  0  0  0  0
  4 19  1  0  0  0  0
  5 15  1  0  0  0  0
  5 20  1  0  0  0  0
  6 16  1  0  0  0  0
  7  4  1  0  0  0  0
  8  7  1  0  0  0  0
  9 10  1  6  0  0  0
  9 14  1  0  0  0  0
 11  5  1  0  0  0  0
 12  1  2  0  0  0  0
 13  8  1  0  0  0  0
 13 12  1  0  0  0  0
 14 15  1  0  0  0  0
 16  2  2  0  0  0  0
 16  9  1  0  0  0  0
 18 19  1  0  0  0  0
 18 17  1  0  0  0  0
 19 17  1  0  0  0  0
 20 22  1  0  0  0  0
 22 21  1  6  0  0  0
 22 23  1  0  0  0  0
 23 24  2  0  0  0  0
 25 23  1  0  0  0  0
M  END
>  <MODEL>
8

>  <REMARK>
 VINA RESULT:      -5.8      2.290      5.436
  Name = 
  4 active torsions:
  status: ('A' for Active; 'I' for Inactive)
    1  A    between atoms: C_2  and  C_25
    2  A    between atoms: N_5  and  C_22
    3  A    between atoms: N_6  and  C_15
    4  A    between atoms: C_15  and  C_25
                            x       y       z     vdW  Elec       q    Type
                         _______ _______ _______ _____ _____    ______ ____

>  <TORSDO>
F 4

$$$$
=
 OpenBabel11052422223D

 25 28  0  0  1  0  0  0  0  0999 V2000
  160.9200  203.5280  149.5790 C   0  0  0  0  0  0  0  0  0  0  0  0
  161.4190  204.7640  149.0880 C   0  0  0  0  0  0  0  0  0  0  0  0
  161.0780  204.3970  151.8510 C   0  0  0  0  0  3  0  0  0  0  0  0
  160.6060  202.4140  148.7070 N   0  0  0  0  0  0  0  0  0  0  0  0
  160.4470  206.0730  147.3020 N   0  0  0  0  0  0  0  0  0  0  0  0
  161.6080  205.5890  151.3680 C   0  0  0  0  0  3  0  0  0  0  0  0
  159.6860  201.3900  149.2130 C   0  0  0  0  0  2  0  0  0  0  0  0
  160.1370  200.9530  150.5970 C   0  0  0  0  0  2  0  0  0  0  0  0
  162.3310  207.1050  149.4880 C   0  0  2  0  0  3  0  0  0  0  0  0
  162.8430  207.8840  150.5290 O   0  0  0  0  0  1  0  0  0  0  0  0
  161.4470  205.0590  147.6170 C   0  0  0  0  0  2  0  0  0  0  0  0
  160.7380  203.3700  150.9740 C   0  0  0  0  0  0  0  0  0  0  0  0
  160.0810  202.1450  151.5460 C   0  0  0  0  0  2  0  0  0  0  0  0
  161.2640  207.8930  148.7380 C   0  0  0  0  0  2  0  0  0  0  0  0
  161.1120  207.3700  147.3120 C   0  0  0  0  0  2  0  0  0  0  0  0
  161.7880  205.7870  149.9940 C   0  0  0  0  0  0  0  0  0  0  0  0
  160.6270  201.3600  146.5000 C   0  0  0  0  0  2  0  0  0  0  0  0
  161.7260  200.6840  147.2880 C   0  0  0  0  0  2  0  0  0  0  0  0
  161.4260  202.1610  147.5100 C   0  0  0  0  0  3  0  0  0  0  0  0
  160.0190  205.8360  145.9340 C   0  0  0  0  0  2  0  0  0  0  0  0
  160.1780  203.9200  144.5110 O   0  0  0  0  0  1  0  0  0  0  0  0
  160.9330  204.8180  145.2690 C   0  0  1  0  0  3  0  0  0  0  0  0
  161.9250  205.5080  144.3950 C   0  0  0  0  0  0  0  0  0  0  0  0
  163.0670  205.8060  144.8370 O   0  0  0  0  0  0  0  0  0  0  0  0
  161.5810  205.8280  143.0530 N   0  0  0  0  0  1  0  0  0  0  0  0
  1 12  1  0  0  0  0
  2  1  2  0  0  0  0
  2 16  1  0  0  0  0
  4  7  1  0  0  0  0
  4  1  1  0  0  0  0
  5 15  1  0  0  0  0
  5 11  1  0  0  0  0
  6  3  1  0  0  0  0
  7  8  1  0  0  0  0
  8 13  1  0  0  0  0
  9 16  1  0  0  0  0
  9 10  1  1  0  0  0
 11  2  1  0  0  0  0
 12 13  1  0  0  0  0
 12  3  2  0  0  0  0
 14  9  1  0  0  0  0
 15 14  1  0  0  0  0
 16  6  2  0  0  0  0
 17 18  1  0  0  0  0
 17 19  1  0  0  0  0
 18 19  1  0  0  0  0
 19  4  1  0  0  0  0
 20  5  1  0  0  0  0
 22 21  1  6  0  0  0
 22 20  1  0  0  0  0
 23 24  2  0  0  0  0
 23 22  1  0  0  0  0
 25 23  1  0  0  0  0
M  END
>  <MODEL>
9

>  <REMARK>
 VINA RESULT:      -5.8      1.788      4.544
  Name = 
  4 active torsions:
  status: ('A' for Active; 'I' for Inactive)
    1  A    between atoms: C_2  and  C_25
    2  A    between atoms: N_5  and  C_22
    3  A    between atoms: N_6  and  C_15
    4  A    between atoms: C_15  and  C_25
                            x       y       z     vdW  Elec       q    Type
                         _______ _______ _______ _____ _____    ______ ____

>  <TORSDO>
F 4

$$$$
