=
 OpenBabel11052423103D

 27 29  0  0  1  0  0  0  0  0999 V2000
  162.0080  207.5180  150.9820 C   0  0  2  0  0  3  0  0  0  0  0  0
  160.0590  208.9240  154.6630 N   0  0  0  0  0  2  0  0  0  0  0  0
  160.6170  210.9290  155.8000 N   0  0  0  0  0  1  0  0  0  0  0  0
  161.4610  205.9340  152.8340 C   0  0  0  0  0  0  0  0  0  0  0  0
  162.3980  208.7790  151.7330 C   0  0  0  0  0  2  0  0  0  0  0  0
  161.1080  210.8440  153.1620 S   0  0  0  0  0  0  0  0  0  0  0  0
  162.4590  206.3120  151.7880 C   0  0  0  0  0  2  0  0  0  0  0  0
  160.0630  210.3720  154.5800 C   0  0  1  0  0  3  0  0  0  0  0  0
  160.8420  208.2780  153.6740 C   0  0  0  0  0  0  0  0  0  0  0  0
  161.4400  209.1190  152.8270 C   0  0  0  0  0  0  0  0  0  0  0  0
  160.8290  206.7960  153.6400 C   0  0  0  0  0  3  0  0  0  0  0  0
  161.1840  204.4790  153.0250 C   0  0  0  0  0  2  0  0  0  0  0  0
  160.7740  202.5000  149.2410 C   0  0  0  0  0  3  0  0  0  0  0  0
  161.0250  203.7870  151.7130 C   0  0  0  0  0  0  0  0  0  0  0  0
  161.2750  202.4130  151.6080 C   0  0  0  0  0  3  0  0  0  0  0  0
  161.1470  201.7700  150.3730 C   0  0  0  0  0  3  0  0  0  0  0  0
  160.5300  203.8740  149.3410 C   0  0  0  0  0  3  0  0  0  0  0  0
  160.6570  204.5170  150.5770 C   0  0  0  0  0  3  0  0  0  0  0  0
  162.4830  207.5010  149.6480 O   0  0  0  0  0  0  0  0  0  0  0  0
  161.8310  209.4020  148.3370 C   0  0  0  0  0  1  0  0  0  0  0  0
  161.4920  207.9870  148.7730 C   0  0  1  0  0  3  0  0  0  0  0  0
  161.3170  207.0650  147.5650 C   0  0  0  0  0  2  0  0  0  0  0  0
  162.4350  206.0380  147.4230 C   0  0  0  0  0  2  0  0  0  0  0  0
  162.5570  205.5740  145.9800 C   0  0  0  0  0  2  0  0  0  0  0  0
  161.2600  204.9420  145.5040 C   0  0  2  0  0  3  0  0  0  0  0  0
  161.3320  203.4320  145.6300 C   0  0  0  0  0  1  0  0  0  0  0  0
  161.0420  205.2820  144.1700 O   0  0  0  0  0  1  0  0  0  0  0  0
  1 19  1  6  0  0  0
  1  5  1  0  0  0  0
  1  7  1  0  0  0  0
  4 12  1  0  0  0  0
  4 11  2  0  0  0  0
  5 10  1  0  0  0  0
  6  8  1  0  0  0  0
  7  4  1  0  0  0  0
  8  2  1  0  0  0  0
  8  3  1  1  0  0  0
  9  2  1  0  0  0  0
 10  6  1  0  0  0  0
 10  9  2  0  0  0  0
 11  9  1  0  0  0  0
 13 17  2  0  0  0  0
 13 16  1  0  0  0  0
 14 12  1  0  0  0  0
 15 14  1  0  0  0  0
 16 15  2  0  0  0  0
 17 18  1  0  0  0  0
 18 14  2  0  0  0  0
 21 20  1  6  0  0  0
 21 19  1  0  0  0  0
 22 21  1  0  0  0  0
 23 22  1  0  0  0  0
 24 23  1  0  0  0  0
 25 26  1  6  0  0  0
 25 24  1  0  0  0  0
 27 25  1  0  0  0  0
M  END
>  <MODEL>
1

>  <REMARK>
 VINA RESULT:      -8.2      0.000      0.000
  Name = 
  8 active torsions:
  status: ('A' for Active; 'I' for Inactive)
    1  A    between atoms: C_1  and  C_24
    2  A    between atoms: C_2  and  C_6
    3  A    between atoms: C_2  and  C_9
    4  A    between atoms: C_3  and  O_26
    5  A    between atoms: C_13  and  C_20
    6  A    between atoms: C_13  and  C_22
    7  A    between atoms: C_20  and  O_26
    8  A    between atoms: C_22  and  C_24
                            x       y       z     vdW  Elec       q    Type
                         _______ _______ _______ _____ _____    ______ ____

>  <TORSDO>
F 8

$$$$
=
 OpenBabel11052423103D

 27 29  0  0  1  0  0  0  0  0999 V2000
  162.2620  207.7240  148.7100 C   0  0  2  0  0  3  0  0  0  0  0  0
  161.7390  209.0690  152.8630 N   0  0  0  0  0  2  0  0  0  0  0  0
  160.3130  208.0270  154.4460 N   0  0  0  0  0  1  0  0  0  0  0  0
  162.0640  210.1520  149.2620 C   0  0  0  0  0  0  0  0  0  0  0  0
  161.3140  207.0820  149.7090 C   0  0  0  0  0  2  0  0  0  0  0  0
  161.2730  206.4860  152.4680 S   0  0  0  0  0  0  0  0  0  0  0  0
  161.6960  209.0720  148.2980 C   0  0  0  0  0  2  0  0  0  0  0  0
  161.5080  207.8650  153.6390 C   0  0  1  0  0  3  0  0  0  0  0  0
  161.7120  208.8760  151.4590 C   0  0  0  0  0  0  0  0  0  0  0  0
  161.4900  207.6110  151.0950 C   0  0  0  0  0  0  0  0  0  0  0  0
  162.0180  210.0410  150.5950 C   0  0  0  0  0  3  0  0  0  0  0  0
  162.4700  211.4720  148.6920 C   0  0  0  0  0  2  0  0  0  0  0  0
  159.0660  213.9120  147.7650 C   0  0  0  0  0  3  0  0  0  0  0  0
  161.2750  212.3080  148.3750 C   0  0  0  0  0  0  0  0  0  0  0  0
  160.6910  212.2440  147.1040 C   0  0  0  0  0  3  0  0  0  0  0  0
  159.5850  213.0440  146.8000 C   0  0  0  0  0  3  0  0  0  0  0  0
  159.6510  213.9830  149.0330 C   0  0  0  0  0  3  0  0  0  0  0  0
  160.7570  213.1820  149.3370 C   0  0  0  0  0  3  0  0  0  0  0  0
  162.5530  206.8840  147.6080 O   0  0  0  0  0  0  0  0  0  0  0  0
  160.6290  206.2530  146.3200 C   0  0  0  0  0  1  0  0  0  0  0  0
  161.5550  205.8980  147.4710 C   0  0  1  0  0  3  0  0  0  0  0  0
  162.1680  204.5110  147.2770 C   0  0  0  0  0  2  0  0  0  0  0  0
  161.3750  203.4000  147.9570 C   0  0  0  0  0  2  0  0  0  0  0  0
  160.9470  203.8230  149.3530 C   0  0  0  0  0  2  0  0  0  0  0  0
  160.5850  202.6130  150.1970 C   0  0  2  0  0  3  0  0  0  0  0  0
  161.2250  202.7170  151.5690 C   0  0  0  0  0  1  0  0  0  0  0  0
  161.0370  201.4570  149.5660 O   0  0  0  0  0  1  0  0  0  0  0  0
  1 19  1  6  0  0  0
  1  5  1  0  0  0  0
  2  8  1  0  0  0  0
  4 11  2  0  0  0  0
  5 10  1  0  0  0  0
  6  8  1  0  0  0  0
  7  1  1  0  0  0  0
  7  4  1  0  0  0  0
  8  3  1  6  0  0  0
  9  2  1  0  0  0  0
 10  9  2  0  0  0  0
 10  6  1  0  0  0  0
 11  9  1  0  0  0  0
 12  4  1  0  0  0  0
 13 17  1  0  0  0  0
 14 12  1  0  0  0  0
 14 18  1  0  0  0  0
 15 14  2  0  0  0  0
 16 15  1  0  0  0  0
 16 13  2  0  0  0  0
 17 18  2  0  0  0  0
 21 20  1  6  0  0  0
 21 19  1  0  0  0  0
 22 21  1  0  0  0  0
 22 23  1  0  0  0  0
 23 24  1  0  0  0  0
 24 25  1  0  0  0  0
 25 26  1  1  0  0  0
 27 25  1  0  0  0  0
M  END
>  <MODEL>
2

>  <REMARK>
 VINA RESULT:      -7.4      2.750      6.196
  Name = 
  8 active torsions:
  status: ('A' for Active; 'I' for Inactive)
    1  A    between atoms: C_1  and  C_24
    2  A    between atoms: C_2  and  C_6
    3  A    between atoms: C_2  and  C_9
    4  A    between atoms: C_3  and  O_26
    5  A    between atoms: C_13  and  C_20
    6  A    between atoms: C_13  and  C_22
    7  A    between atoms: C_20  and  O_26
    8  A    between atoms: C_22  and  C_24
                            x       y       z     vdW  Elec       q    Type
                         _______ _______ _______ _____ _____    ______ ____

>  <TORSDO>
F 8

$$$$
=
 OpenBabel11052423103D

 27 29  0  0  1  0  0  0  0  0999 V2000
  160.9610  206.6910  150.6790 C   0  0  2  0  0  3  0  0  0  0  0  0
  160.7540  206.9630  155.0630 N   0  0  0  0  0  2  0  0  0  0  0  0
  161.7660  208.6750  156.3540 N   0  0  0  0  0  1  0  0  0  0  0  0
  161.2180  204.6590  152.1080 C   0  0  0  0  0  0  0  0  0  0  0  0
  161.6470  207.7640  151.5080 C   0  0  0  0  0  2  0  0  0  0  0  0
  161.1050  209.2830  153.8250 S   0  0  0  0  0  0  0  0  0  0  0  0
  161.6910  205.3760  150.8860 C   0  0  0  0  0  2  0  0  0  0  0  0
  160.7430  208.3810  155.3680 C   0  0  1  0  0  3  0  0  0  0  0  0
  161.0410  206.6560  153.7090 C   0  0  0  0  0  0  0  0  0  0  0  0
  161.2410  207.7320  152.9450 C   0  0  0  0  0  0  0  0  0  0  0  0
  160.9940  205.2330  153.2970 C   0  0  0  0  0  3  0  0  0  0  0  0
  161.0260  203.1810  152.0080 C   0  0  0  0  0  2  0  0  0  0  0  0
  160.9660  201.8970  147.9150 C   0  0  0  0  0  3  0  0  0  0  0  0
  161.0220  202.7380  150.5830 C   0  0  0  0  0  0  0  0  0  0  0  0
  160.7920  203.6660  149.5590 C   0  0  0  0  0  3  0  0  0  0  0  0
  160.7660  203.2450  148.2260 C   0  0  0  0  0  3  0  0  0  0  0  0
  161.1900  200.9670  148.9360 C   0  0  0  0  0  3  0  0  0  0  0  0
  161.2160  201.3880  150.2690 C   0  0  0  0  0  3  0  0  0  0  0  0
  160.8330  207.0470  149.3150 O   0  0  0  0  0  0  0  0  0  0  0  0
  161.9540  206.3810  147.3010 C   0  0  0  0  0  1  0  0  0  0  0  0
  162.0900  207.0020  148.6800 C   0  0  1  0  0  3  0  0  0  0  0  0
  162.7210  208.3930  148.5980 C   0  0  0  0  0  2  0  0  0  0  0  0
  161.7030  209.5050  148.3720 C   0  0  0  0  0  2  0  0  0  0  0  0
  162.0810  210.7470  149.1630 C   0  0  0  0  0  2  0  0  0  0  0  0
  161.9030  211.9990  148.3210 C   0  0  2  0  0  3  0  0  0  0  0  0
  163.2470  212.4870  147.8120 C   0  0  0  0  0  1  0  0  0  0  0  0
  161.3150  212.9980  149.0940 O   0  0  0  0  0  1  0  0  0  0  0  0
  1 19  1  6  0  0  0
  1  7  1  0  0  0  0
  1  5  1  0  0  0  0
  2  8  1  0  0  0  0
  4 11  2  0  0  0  0
  5 10  1  0  0  0  0
  6  8  1  0  0  0  0
  7  4  1  0  0  0  0
  8  3  1  1  0  0  0
  9  2  1  0  0  0  0
 10  9  2  0  0  0  0
 10  6  1  0  0  0  0
 11  9  1  0  0  0  0
 12  4  1  0  0  0  0
 13 16  2  0  0  0  0
 13 17  1  0  0  0  0
 14 12  1  0  0  0  0
 15 14  2  0  0  0  0
 16 15  1  0  0  0  0
 17 18  2  0  0  0  0
 18 14  1  0  0  0  0
 21 20  1  6  0  0  0
 21 19  1  0  0  0  0
 22 21  1  0  0  0  0
 23 22  1  0  0  0  0
 23 24  1  0  0  0  0
 25 26  1  1  0  0  0
 25 27  1  0  0  0  0
 25 24  1  0  0  0  0
M  END
>  <MODEL>
3

>  <REMARK>
 VINA RESULT:      -7.2      1.831      3.733
  Name = 
  8 active torsions:
  status: ('A' for Active; 'I' for Inactive)
    1  A    between atoms: C_1  and  C_24
    2  A    between atoms: C_2  and  C_6
    3  A    between atoms: C_2  and  C_9
    4  A    between atoms: C_3  and  O_26
    5  A    between atoms: C_13  and  C_20
    6  A    between atoms: C_13  and  C_22
    7  A    between atoms: C_20  and  O_26
    8  A    between atoms: C_22  and  C_24
                            x       y       z     vdW  Elec       q    Type
                         _______ _______ _______ _____ _____    ______ ____

>  <TORSDO>
F 8

$$$$
=
 OpenBabel11052423103D

 27 29  0  0  1  0  0  0  0  0999 V2000
  161.7500  209.1720  149.6820 C   0  0  2  0  0  3  0  0  0  0  0  0
  160.6880  207.8950  153.7530 N   0  0  0  0  0  2  0  0  0  0  0  0
  161.6200  208.8050  155.7350 N   0  0  0  0  0  1  0  0  0  0  0  0
  161.4550  206.7550  150.2370 C   0  0  0  0  0  0  0  0  0  0  0  0
  162.3810  209.7250  150.9480 C   0  0  0  0  0  2  0  0  0  0  0  0
  161.5700  210.3910  153.5700 S   0  0  0  0  0  0  0  0  0  0  0  0
  162.2520  207.7560  149.4660 C   0  0  0  0  0  2  0  0  0  0  0  0
  160.7920  209.0850  154.5760 C   0  0  1  0  0  3  0  0  0  0  0  0
  161.2050  208.0430  152.4410 C   0  0  0  0  0  0  0  0  0  0  0  0
  161.6890  209.2610  152.1890 C   0  0  0  0  0  0  0  0  0  0  0  0
  161.0660  206.8980  151.5100 C   0  0  0  0  0  3  0  0  0  0  0  0
  161.1050  205.4770  149.5470 C   0  0  0  0  0  2  0  0  0  0  0  0
  161.7670  205.7260  145.3160 C   0  0  0  0  0  3  0  0  0  0  0  0
  161.3430  205.5790  148.0780 C   0  0  0  0  0  0  0  0  0  0  0  0
  160.4130  206.2310  147.2590 C   0  0  0  0  0  3  0  0  0  0  0  0
  160.6260  206.3060  145.8790 C   0  0  0  0  0  3  0  0  0  0  0  0
  162.6950  205.0700  146.1310 C   0  0  0  0  0  3  0  0  0  0  0  0
  162.4810  204.9950  147.5110 C   0  0  0  0  0  3  0  0  0  0  0  0
  161.9480  210.0090  148.5570 O   0  0  0  0  0  0  0  0  0  0  0  0
  163.2420  211.9560  148.0160 C   0  0  0  0  0  1  0  0  0  0  0  0
  162.2480  211.3210  148.9740 C   0  0  1  0  0  3  0  0  0  0  0  0
  160.9810  212.1690  149.0940 C   0  0  0  0  0  2  0  0  0  0  0  0
  161.1050  213.5380  148.4340 C   0  0  0  0  0  2  0  0  0  0  0  0
  159.8930  213.8250  147.5620 C   0  0  0  0  0  2  0  0  0  0  0  0
  159.4290  212.5650  146.8510 C   0  0  2  0  0  3  0  0  0  0  0  0
  160.0010  212.5120  145.4460 C   0  0  0  0  0  1  0  0  0  0  0  0
  158.0380  212.5590  146.7810 O   0  0  0  0  0  1  0  0  0  0  0  0
  1 19  1  6  0  0  0
  1  5  1  0  0  0  0
  2  8  1  0  0  0  0
  4 11  2  0  0  0  0
  5 10  1  0  0  0  0
  6  8  1  0  0  0  0
  7  1  1  0  0  0  0
  7  4  1  0  0  0  0
  8  3  1  1  0  0  0
  9  2  1  0  0  0  0
 10  9  2  0  0  0  0
 10  6  1  0  0  0  0
 11  9  1  0  0  0  0
 12  4  1  0  0  0  0
 13 16  2  0  0  0  0
 13 17  1  0  0  0  0
 14 12  1  0  0  0  0
 15 14  2  0  0  0  0
 16 15  1  0  0  0  0
 17 18  2  0  0  0  0
 18 14  1  0  0  0  0
 19 21  1  0  0  0  0
 21 20  1  6  0  0  0
 21 22  1  0  0  0  0
 23 22  1  0  0  0  0
 24 23  1  0  0  0  0
 25 26  1  6  0  0  0
 25 24  1  0  0  0  0
 27 25  1  0  0  0  0
M  END
>  <MODEL>
4

>  <REMARK>
 VINA RESULT:      -7.0      2.665      4.750
  Name = 
  8 active torsions:
  status: ('A' for Active; 'I' for Inactive)
    1  A    between atoms: C_1  and  C_24
    2  A    between atoms: C_2  and  C_6
    3  A    between atoms: C_2  and  C_9
    4  A    between atoms: C_3  and  O_26
    5  A    between atoms: C_13  and  C_20
    6  A    between atoms: C_13  and  C_22
    7  A    between atoms: C_20  and  O_26
    8  A    between atoms: C_22  and  C_24
                            x       y       z     vdW  Elec       q    Type
                         _______ _______ _______ _____ _____    ______ ____

>  <TORSDO>
F 8

$$$$
=
 OpenBabel11052423103D

 27 29  0  0  1  0  0  0  0  0999 V2000
  161.6770  205.4170  151.3550 C   0  0  2  0  0  3  0  0  0  0  0  0
  161.4400  209.3740  153.2570 N   0  0  0  0  0  2  0  0  0  0  0  0
  160.0330  209.9040  155.0900 N   0  0  0  0  0  1  0  0  0  0  0  0
  161.6540  207.5050  149.9840 C   0  0  0  0  0  0  0  0  0  0  0  0
  160.7420  205.7660  152.5010 C   0  0  0  0  0  2  0  0  0  0  0  0
  160.8000  207.3440  154.8410 S   0  0  0  0  0  0  0  0  0  0  0  0
  161.1740  206.0940  150.0920 C   0  0  0  0  0  2  0  0  0  0  0  0
  161.1750  209.1190  154.6600 C   0  0  1  0  0  3  0  0  0  0  0  0
  161.3340  208.2330  152.4230 C   0  0  0  0  0  0  0  0  0  0  0  0
  161.0180  207.1150  153.0810 C   0  0  0  0  0  0  0  0  0  0  0  0
  161.6660  208.3910  150.9870 C   0  0  0  0  0  3  0  0  0  0  0  0
  162.1100  207.9740  148.6420 C   0  0  0  0  0  2  0  0  0  0  0  0
  161.4520  205.0050  145.6160 C   0  0  0  0  0  3  0  0  0  0  0  0
  161.8750  206.9300  147.6010 C   0  0  0  0  0  0  0  0  0  0  0  0
  162.8730  205.9920  147.3100 C   0  0  0  0  0  3  0  0  0  0  0  0
  162.6600  205.0290  146.3190 C   0  0  0  0  0  3  0  0  0  0  0  0
  160.4560  205.9450  145.9010 C   0  0  0  0  0  3  0  0  0  0  0  0
  160.6690  206.9080  146.8920 C   0  0  0  0  0  3  0  0  0  0  0  0
  161.8620  204.0220  151.2010 O   0  0  0  0  0  0  0  0  0  0  0  0
  160.5820  203.9950  149.1720 C   0  0  0  0  0  1  0  0  0  0  0  0
  160.7360  203.4470  150.5800 C   0  0  1  0  0  3  0  0  0  0  0  0
  160.8250  201.9200  150.5710 C   0  0  0  0  0  2  0  0  0  0  0  0
  160.4160  201.3000  149.2400 C   0  0  0  0  0  2  0  0  0  0  0  0
  161.5580  200.4820  148.6560 C   0  0  0  0  0  2  0  0  0  0  0  0
  161.6290  200.6540  147.1480 C   0  0  2  0  0  3  0  0  0  0  0  0
  160.5570  201.6180  146.6760 C   0  0  0  0  0  1  0  0  0  0  0  0
  161.4400  199.4190  146.5320 O   0  0  0  0  0  1  0  0  0  0  0  0
  1 19  1  6  0  0  0
  1  5  1  0  0  0  0
  2  8  1  0  0  0  0
  4  7  1  0  0  0  0
  4 11  2  0  0  0  0
  5 10  1  0  0  0  0
  7  1  1  0  0  0  0
  8  6  1  0  0  0  0
  8  3  1  6  0  0  0
  9 10  2  0  0  0  0
  9  2  1  0  0  0  0
 10  6  1  0  0  0  0
 11  9  1  0  0  0  0
 12  4  1  0  0  0  0
 13 17  2  0  0  0  0
 13 16  1  0  0  0  0
 14 12  1  0  0  0  0
 15 14  1  0  0  0  0
 16 15  2  0  0  0  0
 17 18  1  0  0  0  0
 18 14  2  0  0  0  0
 21 20  1  6  0  0  0
 21 19  1  0  0  0  0
 22 21  1  0  0  0  0
 23 22  1  0  0  0  0
 24 23  1  0  0  0  0
 25 26  1  6  0  0  0
 25 24  1  0  0  0  0
 27 25  1  0  0  0  0
M  END
>  <MODEL>
5

>  <REMARK>
 VINA RESULT:      -7.0      2.029      4.250
  Name = 
  8 active torsions:
  status: ('A' for Active; 'I' for Inactive)
    1  A    between atoms: C_1  and  C_24
    2  A    between atoms: C_2  and  C_6
    3  A    between atoms: C_2  and  C_9
    4  A    between atoms: C_3  and  O_26
    5  A    between atoms: C_13  and  C_20
    6  A    between atoms: C_13  and  C_22
    7  A    between atoms: C_20  and  O_26
    8  A    between atoms: C_22  and  C_24
                            x       y       z     vdW  Elec       q    Type
                         _______ _______ _______ _____ _____    ______ ____

>  <TORSDO>
F 8

$$$$
=
 OpenBabel11052423103D

 27 29  0  0  1  0  0  0  0  0999 V2000
  161.3630  206.8670  153.5070 C   0  0  2  0  0  3  0  0  0  0  0  0
  161.6250  210.9860  155.0200 N   0  0  0  0  0  0  0  0  0  0  0  0
  160.3350  211.8460  156.8150 N   0  0  0  0  0  1  0  0  0  0  0  0
  161.5400  208.8040  151.9410 C   0  0  0  0  0  0  0  0  0  0  0  0
  160.5040  207.4280  154.6270 C   0  0  0  0  0  2  0  0  0  0  0  0
  160.8010  209.2020  156.8030 S   0  0  0  0  0  0  0  0  0  0  0  0
  160.9070  207.4750  152.1930 C   0  0  0  0  0  2  0  0  0  0  0  0
  161.3700  210.8980  156.4450 C   0  0  1  0  0  3  0  0  0  0  0  0
  161.3680  209.7910  154.3030 C   0  0  0  0  0  0  0  0  0  0  0  0
  160.9450  208.7850  155.0700 C   0  0  2  0  0  3  0  0  0  0  0  0
  161.6790  209.7740  152.8540 C   0  0  0  0  0  3  0  0  0  0  0  0
  162.0120  209.0890  150.5530 C   0  0  0  0  0  2  0  0  0  0  0  0
  161.2510  205.7810  147.9290 C   0  0  0  0  0  3  0  0  0  0  0  0
  161.7550  207.9280  149.6510 C   0  0  0  0  0  0  0  0  0  0  0  0
  162.6990  207.5710  148.6810 C   0  0  0  0  0  3  0  0  0  0  0  0
  162.4470  206.4960  147.8220 C   0  0  0  0  0  3  0  0  0  0  0  0
  160.3040  206.1400  148.8940 C   0  0  0  0  0  3  0  0  0  0  0  0
  160.5560  207.2140  149.7530 C   0  0  0  0  0  3  0  0  0  0  0  0
  161.3850  205.4510  153.4860 O   0  0  0  0  0  0  0  0  0  0  0  0
  162.7380  204.9070  151.5810 C   0  0  0  0  0  1  0  0  0  0  0  0
  161.3350  204.9840  152.1580 C   0  0  1  0  0  3  0  0  0  0  0  0
  160.6300  203.6300  152.0720 C   0  0  0  0  0  2  0  0  0  0  0  0
  161.3070  202.6560  151.1130 C   0  0  0  0  0  2  0  0  0  0  0  0
  160.4990  202.5140  149.8330 C   0  0  0  0  0  2  0  0  0  0  0  0
  161.3300  201.8680  148.7380 C   0  0  2  0  0  3  0  0  0  0  0  0
  160.7990  202.2600  147.3720 C   0  0  0  0  0  1  0  0  0  0  0  0
  161.2750  200.4820  148.8720 O   0  0  0  0  0  1  0  0  0  0  0  0
  1 19  1  6  0  0  0
  1  5  1  0  0  0  0
  2  8  1  0  0  0  0
  4  7  1  0  0  0  0
  4 11  2  0  0  0  0
  7  1  1  0  0  0  0
  8  6  1  0  0  0  0
  8  3  1  6  0  0  0
  9  2  2  0  0  0  0
  9 10  1  0  0  0  0
 10  5  1  6  0  0  0
 10  6  1  0  0  0  0
 11  9  1  0  0  0  0
 12  4  1  0  0  0  0
 13 17  1  0  0  0  0
 14 18  1  0  0  0  0
 14 12  1  0  0  0  0
 15 14  2  0  0  0  0
 16 13  2  0  0  0  0
 16 15  1  0  0  0  0
 17 18  2  0  0  0  0
 21 20  1  1  0  0  0
 21 19  1  0  0  0  0
 22 21  1  0  0  0  0
 23 22  1  0  0  0  0
 24 23  1  0  0  0  0
 25 26  1  6  0  0  0
 25 27  1  0  0  0  0
 25 24  1  0  0  0  0
M  END
>  <MODEL>
6

>  <REMARK>
 VINA RESULT:      -6.9      2.207      4.110
  Name = 
  8 active torsions:
  status: ('A' for Active; 'I' for Inactive)
    1  A    between atoms: C_1  and  C_24
    2  A    between atoms: C_2  and  C_6
    3  A    between atoms: C_2  and  C_9
    4  A    between atoms: C_3  and  O_26
    5  A    between atoms: C_13  and  C_20
    6  A    between atoms: C_13  and  C_22
    7  A    between atoms: C_20  and  O_26
    8  A    between atoms: C_22  and  C_24
                            x       y       z     vdW  Elec       q    Type
                         _______ _______ _______ _____ _____    ______ ____

>  <TORSDO>
F 8

$$$$
=
 OpenBabel11052423103D

 27 29  0  0  1  0  0  0  0  0999 V2000
  161.5700  206.5170  153.6300 C   0  0  2  0  0  3  0  0  0  0  0  0
  162.2190  207.3370  149.3600 N   0  0  0  0  0  0  0  0  0  0  0  0
  161.5350  209.3180  148.2500 N   0  0  0  0  0  1  0  0  0  0  0  0
  161.2210  204.7390  151.9110 C   0  0  0  0  0  0  0  0  0  0  0  0
  161.0910  207.7670  152.9120 C   0  0  0  0  0  2  0  0  0  0  0  0
  162.0180  209.4990  150.8840 S   0  0  0  0  0  0  0  0  0  0  0  0
  160.7190  205.3420  153.1820 C   0  0  0  0  0  2  0  0  0  0  0  0
  162.4200  208.7700  149.2620 C   0  0  1  0  0  3  0  0  0  0  0  0
  161.7730  206.8920  150.6290 C   0  0  0  0  0  0  0  0  0  0  0  0
  161.6250  207.8750  151.5210 C   0  0  2  0  0  3  0  0  0  0  0  0
  161.6190  205.4330  150.8370 C   0  0  0  0  0  3  0  0  0  0  0  0
  161.2340  203.2490  151.8150 C   0  0  0  0  0  2  0  0  0  0  0  0
  160.9340  201.9630  147.7330 C   0  0  0  0  0  3  0  0  0  0  0  0
  161.1120  202.8030  150.3960 C   0  0  0  0  0  0  0  0  0  0  0  0
  160.9710  201.4420  150.0970 C   0  0  0  0  0  3  0  0  0  0  0  0
  160.8800  201.0230  148.7660 C   0  0  0  0  0  3  0  0  0  0  0  0
  161.0810  203.3220  148.0280 C   0  0  0  0  0  3  0  0  0  0  0  0
  161.1720  203.7410  149.3590 C   0  0  0  0  0  3  0  0  0  0  0  0
  161.6080  206.6710  155.0370 O   0  0  0  0  0  0  0  0  0  0  0  0
  159.6090  207.3900  156.1530 C   0  0  0  0  0  1  0  0  0  0  0  0
  160.8730  207.8100  155.4220 C   0  0  1  0  0  3  0  0  0  0  0  0
  161.7190  208.7520  156.2810 C   0  0  0  0  0  2  0  0  0  0  0  0
  161.1900  210.1820  156.3070 C   0  0  0  0  0  2  0  0  0  0  0  0
  161.5320  210.9040  155.0130 C   0  0  0  0  0  2  0  0  0  0  0  0
  160.3540  211.7320  154.5290 C   0  0  2  0  0  3  0  0  0  0  0  0
  159.0470  211.0730  154.9300 C   0  0  0  0  0  1  0  0  0  0  0  0
  160.4050  211.8430  153.1420 O   0  0  0  0  0  1  0  0  0  0  0  0
  1 19  1  1  0  0  0
  2  9  2  0  0  0  0
  4  7  1  0  0  0  0
  5  1  1  0  0  0  0
  6 10  1  0  0  0  0
  7  1  1  0  0  0  0
  8  3  1  6  0  0  0
  8  2  1  0  0  0  0
  8  6  1  0  0  0  0
  9 11  1  0  0  0  0
  9 10  1  0  0  0  0
 10  5  1  6  0  0  0
 11  4  2  0  0  0  0
 12  4  1  0  0  0  0
 13 17  2  0  0  0  0
 13 16  1  0  0  0  0
 14 12  1  0  0  0  0
 15 14  1  0  0  0  0
 16 15  2  0  0  0  0
 17 18  1  0  0  0  0
 18 14  2  0  0  0  0
 19 21  1  0  0  0  0
 21 20  1  1  0  0  0
 21 22  1  0  0  0  0
 22 23  1  0  0  0  0
 24 23  1  0  0  0  0
 25 26  1  6  0  0  0
 25 24  1  0  0  0  0
 27 25  1  0  0  0  0
M  END
>  <MODEL>
7

>  <REMARK>
 VINA RESULT:      -6.9      3.407      6.209
  Name = 
  8 active torsions:
  status: ('A' for Active; 'I' for Inactive)
    1  A    between atoms: C_1  and  C_24
    2  A    between atoms: C_2  and  C_6
    3  A    between atoms: C_2  and  C_9
    4  A    between atoms: C_3  and  O_26
    5  A    between atoms: C_13  and  C_20
    6  A    between atoms: C_13  and  C_22
    7  A    between atoms: C_20  and  O_26
    8  A    between atoms: C_22  and  C_24
                            x       y       z     vdW  Elec       q    Type
                         _______ _______ _______ _____ _____    ______ ____

>  <TORSDO>
F 8

$$$$
=
 OpenBabel11052423103D

 27 29  0  0  1  0  0  0  0  0999 V2000
  161.6900  209.4860  149.3010 C   0  0  2  0  0  3  0  0  0  0  0  0
  160.5770  207.8820  153.2410 N   0  0  0  0  0  2  0  0  0  0  0  0
  161.5830  208.5260  155.2890 N   0  0  0  0  0  1  0  0  0  0  0  0
  161.2380  207.0500  149.6180 C   0  0  0  0  0  0  0  0  0  0  0  0
  162.3660  209.8670  150.6070 C   0  0  0  0  0  2  0  0  0  0  0  0
  161.6220  210.3200  153.2930 S   0  0  0  0  0  0  0  0  0  0  0  0
  162.0950  208.0680  148.9390 C   0  0  0  0  0  2  0  0  0  0  0  0
  160.7660  208.9740  154.1760 C   0  0  1  0  0  3  0  0  0  0  0  0
  161.0930  208.1250  151.9430 C   0  0  0  0  0  0  0  0  0  0  0  0
  161.6540  209.3280  151.8050 C   0  0  0  0  0  0  0  0  0  0  0  0
  160.8700  207.0910  150.9050 C   0  0  0  0  0  3  0  0  0  0  0  0
  160.7990  205.8730  148.8110 C   0  0  0  0  0  2  0  0  0  0  0  0
  161.1580  202.2340  151.0560 C   0  0  0  0  0  3  0  0  0  0  0  0
  160.9410  204.6070  149.5890 C   0  0  0  0  0  0  0  0  0  0  0  0
  160.8310  203.3700  148.9420 C   0  0  0  0  0  3  0  0  0  0  0  0
  160.9420  202.1840  149.6760 C   0  0  0  0  0  3  0  0  0  0  0  0
  161.2620  203.4690  151.7050 C   0  0  0  0  0  3  0  0  0  0  0  0
  161.1510  204.6540  150.9710 C   0  0  0  0  0  3  0  0  0  0  0  0
  161.9340  210.4160  148.2620 O   0  0  0  0  0  0  0  0  0  0  0  0
  163.3770  212.3000  147.9090 C   0  0  0  0  0  1  0  0  0  0  0  0
  162.3310  211.6550  148.8020 C   0  0  1  0  0  3  0  0  0  0  0  0
  161.1320  212.5830  149.0030 C   0  0  0  0  0  2  0  0  0  0  0  0
  160.9620  213.6020  147.8820 C   0  0  0  0  0  2  0  0  0  0  0  0
  159.7450  213.2680  147.0330 C   0  0  0  0  0  2  0  0  0  0  0  0
  160.0460  213.4620  145.5570 C   0  0  2  0  0  3  0  0  0  0  0  0
  159.7050  212.2050  144.7790 C   0  0  0  0  0  1  0  0  0  0  0  0
  161.4000  213.7500  145.3940 O   0  0  0  0  0  1  0  0  0  0  0  0
  1 19  1  6  0  0  0
  1  5  1  0  0  0  0
  2  8  1  0  0  0  0
  4 11  2  0  0  0  0
  5 10  1  0  0  0  0
  6  8  1  0  0  0  0
  7  1  1  0  0  0  0
  7  4  1  0  0  0  0
  8  3  1  1  0  0  0
  9  2  1  0  0  0  0
 10  9  2  0  0  0  0
 10  6  1  0  0  0  0
 11  9  1  0  0  0  0
 12 14  1  0  0  0  0
 12  4  1  0  0  0  0
 13 17  1  0  0  0  0
 14 18  1  0  0  0  0
 15 14  2  0  0  0  0
 15 16  1  0  0  0  0
 16 13  2  0  0  0  0
 18 17  2  0  0  0  0
 19 21  1  0  0  0  0
 21 20  1  6  0  0  0
 21 22  1  0  0  0  0
 23 22  1  0  0  0  0
 24 23  1  0  0  0  0
 25 26  1  6  0  0  0
 25 24  1  0  0  0  0
 27 25  1  0  0  0  0
M  END
>  <MODEL>
8

>  <REMARK>
 VINA RESULT:      -6.9      2.800      4.412
  Name = 
  8 active torsions:
  status: ('A' for Active; 'I' for Inactive)
    1  A    between atoms: C_1  and  C_24
    2  A    between atoms: C_2  and  C_6
    3  A    between atoms: C_2  and  C_9
    4  A    between atoms: C_3  and  O_26
    5  A    between atoms: C_13  and  C_20
    6  A    between atoms: C_13  and  C_22
    7  A    between atoms: C_20  and  O_26
    8  A    between atoms: C_22  and  C_24
                            x       y       z     vdW  Elec       q    Type
                         _______ _______ _______ _____ _____    ______ ____

>  <TORSDO>
F 8

$$$$
=
 OpenBabel11052423103D

 27 29  0  0  1  0  0  0  0  0999 V2000
  162.2610  206.7030  150.8440 C   0  0  2  0  0  3  0  0  0  0  0  0
  162.1290  210.3160  148.3430 N   0  0  0  0  0  0  0  0  0  0  0  0
  161.0610  212.3410  148.9590 N   0  0  0  0  0  1  0  0  0  0  0  0
  161.8430  206.5520  148.3860 C   0  0  0  0  0  0  0  0  0  0  0  0
  161.5390  207.9840  151.2220 C   0  0  0  0  0  2  0  0  0  0  0  0
  161.9340  210.7660  150.9500 S   0  0  0  0  0  0  0  0  0  0  0  0
  161.4860  206.0150  149.7340 C   0  0  0  0  0  2  0  0  0  0  0  0
  162.1510  211.4330  149.2670 C   0  0  1  0  0  3  0  0  0  0  0  0
  161.9420  209.0510  148.9560 C   0  0  0  0  0  0  0  0  0  0  0  0
  161.8290  209.1100  150.2840 C   0  0  2  0  0  3  0  0  0  0  0  0
  161.9870  207.8490  148.0890 C   0  0  0  0  0  3  0  0  0  0  0  0
  162.0070  205.5670  147.2760 C   0  0  0  0  0  2  0  0  0  0  0  0
  160.5650  201.6910  148.4200 C   0  0  0  0  0  3  0  0  0  0  0  0
  161.4890  204.2240  147.6710 C   0  0  0  0  0  0  0  0  0  0  0  0
  161.1330  203.9720  149.0020 C   0  0  0  0  0  3  0  0  0  0  0  0
  160.6690  202.7070  149.3750 C   0  0  0  0  0  3  0  0  0  0  0  0
  160.9250  201.9390  147.0910 C   0  0  0  0  0  3  0  0  0  0  0  0
  161.3890  203.2040  146.7180 C   0  0  0  0  0  3  0  0  0  0  0  0
  162.5050  205.8590  151.9550 O   0  0  0  0  0  0  0  0  0  0  0  0
  160.8880  204.2320  152.6550 C   0  0  0  0  0  1  0  0  0  0  0  0
  161.3240  205.6860  152.7030 C   0  0  1  0  0  3  0  0  0  0  0  0
  161.5050  206.1590  154.1460 C   0  0  0  0  0  2  0  0  0  0  0  0
  160.4810  207.2060  154.5710 C   0  0  0  0  0  2  0  0  0  0  0  0
  160.1810  207.0900  156.0570 C   0  0  0  0  0  2  0  0  0  0  0  0
  160.6130  208.3460  156.7950 C   0  0  2  0  0  3  0  0  0  0  0  0
  160.0680  209.5790  156.0990 C   0  0  0  0  0  1  0  0  0  0  0  0
  162.0040  208.4120  156.8240 O   0  0  0  0  0  1  0  0  0  0  0  0
  1  5  1  0  0  0  0
  1 19  1  1  0  0  0
  2  9  2  0  0  0  0
  2  8  1  0  0  0  0
  4  7  1  0  0  0  0
  7  1  1  0  0  0  0
  8  3  1  6  0  0  0
  8  6  1  0  0  0  0
  9 10  1  0  0  0  0
 10  6  1  0  0  0  0
 10  5  1  6  0  0  0
 11  4  2  0  0  0  0
 11  9  1  0  0  0  0
 12 14  1  0  0  0  0
 12  4  1  0  0  0  0
 13 16  1  0  0  0  0
 14 15  1  0  0  0  0
 15 16  2  0  0  0  0
 17 13  2  0  0  0  0
 18 17  1  0  0  0  0
 18 14  2  0  0  0  0
 19 21  1  0  0  0  0
 21 20  1  1  0  0  0
 21 22  1  0  0  0  0
 22 23  1  0  0  0  0
 23 24  1  0  0  0  0
 24 25  1  0  0  0  0
 25 26  1  6  0  0  0
 25 27  1  0  0  0  0
M  END
>  <MODEL>
9

>  <REMARK>
 VINA RESULT:      -6.8      2.762      6.269
  Name = 
  8 active torsions:
  status: ('A' for Active; 'I' for Inactive)
    1  A    between atoms: C_1  and  C_24
    2  A    between atoms: C_2  and  C_6
    3  A    between atoms: C_2  and  C_9
    4  A    between atoms: C_3  and  O_26
    5  A    between atoms: C_13  and  C_20
    6  A    between atoms: C_13  and  C_22
    7  A    between atoms: C_20  and  O_26
    8  A    between atoms: C_22  and  C_24
                            x       y       z     vdW  Elec       q    Type
                         _______ _______ _______ _____ _____    ______ ____

>  <TORSDO>
F 8

$$$$
