=
 OpenBabel11062409363D

 34 38  0  0  1  0  0  0  0  0999 V2000
  160.8510  209.3230  152.9110 C   0  0  0  0  0  0  0  0  0  0  0  0
  160.2290  212.6510  151.5500 C   0  0  0  0  0  2  0  0  0  0  0  0
  159.8110  211.6810  153.4610 N   0  0  0  0  0  0  0  0  0  0  0  0
  161.2420  207.0260  153.6300 C   0  0  0  0  0  0  0  0  0  0  0  0
  161.2420  208.0700  152.6380 C   0  0  0  0  0  3  0  0  0  0  0  0
  160.4490  208.6080  155.2300 C   0  0  0  0  0  0  0  0  0  0  0  0
  160.1720  208.9150  156.6120 N   0  0  0  0  0  1  0  0  0  0  0  0
  160.9130  207.3710  154.9550 C   0  0  0  0  0  3  0  0  0  0  0  0
  159.8720  210.7980  154.4490 C   0  0  0  0  0  0  0  0  0  0  0  0
  160.3840  209.5830  154.2330 C   0  0  0  0  0  0  0  0  0  0  0  0
  159.5020  211.1690  155.5780 O   0  0  0  0  0  0  0  0  0  0  0  0
  160.3790  212.9310  150.1180 C   0  0  0  0  0  2  0  0  0  0  0  0
  161.6570  212.2690  149.4600 C   0  0  1  0  0  3  0  0  0  0  0  0
  161.9110  210.9680  149.6720 C   0  0  0  0  0  2  0  0  0  0  0  0
  160.2420  211.5180  152.2080 C   0  0  0  0  0  0  0  0  0  0  0  0
  161.5680  210.1380  150.8430 C   0  0  0  0  0  3  0  0  0  0  0  0
  160.7930  210.3210  151.8880 C   0  0  0  0  0  0  0  0  0  0  0  0
  162.3510  212.9970  148.3670 N   0  0  0  0  0  0  0  0  0  0  0  0
  162.1130  214.1870  148.2030 O   0  0  0  0  0  0  0  0  0  0  0  0
  163.3800  212.3560  147.6360 O   0  0  0  0  0  0  0  0  0  0  0  0
  161.3510  205.6260  153.4560 O   0  0  0  0  0  0  0  0  0  0  0  0
  161.0020  202.7740  151.1280 C   0  0  0  0  0  3  0  0  0  0  0  0
  161.2350  205.5620  151.0840 C   0  0  0  0  0  3  0  0  0  0  0  0
  161.1450  203.4000  147.5160 C   0  0  0  0  0  0  0  0  0  0  0  0
  160.9970  202.7520  148.7290 C   0  0  0  0  0  3  0  0  0  0  0  0
  160.9980  203.4590  149.9150 C   0  0  0  0  0  0  0  0  0  0  0  0
  161.4110  205.5700  148.7260 C   0  0  0  0  0  3  0  0  0  0  0  0
  161.2080  204.8450  149.8980 C   0  0  0  0  0  0  0  0  0  0  0  0
  161.3300  204.8460  147.5010 C   0  0  0  0  0  3  0  0  0  0  0  0
  161.0450  204.8900  152.2830 C   0  0  0  0  0  0  0  0  0  0  0  0
  160.9800  203.5180  152.3360 C   0  0  0  0  0  3  0  0  0  0  0  0
  161.1290  202.7000  146.1840 C   0  0  0  0  0  0  0  0  0  0  0  0
  161.3650  203.3790  145.1840 O   0  0  0  0  0  0  0  0  0  0  0  0
  160.8500  201.2430  146.1490 O   0  0  0  0  0  1  0  0  0  0  0  0
  1 10  1  0  0  0  0
  2 15  1  0  0  0  0
  3  9  1  0  0  0  0
  4  8  2  0  0  0  0
  5  1  2  0  0  0  0
  5  4  1  0  0  0  0
  6  7  1  0  0  0  0
  8  6  1  0  0  0  0
  9 11  2  0  0  0  0
 10  9  1  0  0  0  0
 10  6  2  0  0  0  0
 12  2  1  0  0  0  0
 13 18  1  6  0  0  0
 13 14  1  0  0  0  0
 13 12  1  0  0  0  0
 14 16  1  0  0  0  0
 15  3  2  0  0  0  0
 16 17  2  0  0  0  0
 17 15  1  0  0  0  0
 17  1  1  0  0  0  0
 19 18  2  0  0  0  0
 20 18  2  0  0  0  0
 21  4  1  0  0  0  0
 22 31  1  0  0  0  0
 23 30  1  0  0  0  0
 24 25  2  0  0  0  0
 25 26  1  0  0  0  0
 26 22  2  0  0  0  0
 27 28  1  0  0  0  0
 28 26  1  0  0  0  0
 28 23  2  0  0  0  0
 29 24  1  0  0  0  0
 29 27  2  0  0  0  0
 30 31  2  0  0  0  0
 30 21  1  0  0  0  0
 32 24  1  0  0  0  0
 33 32  2  0  0  0  0
 34 32  1  0  0  0  0
M  END
>  <MODEL>
1

>  <REMARK>
 VINA RESULT:     -10.8      0.000      0.000
  Name = 
  4 active torsions:
  status: ('A' for Active; 'I' for Inactive)
    1  A    between atoms: N_3  and  C_25
    2  A    between atoms: C_7  and  C_11
    3  A    between atoms: C_8  and  O_18
    4  A    between atoms: O_18  and  C_30
                            x       y       z     vdW  Elec       q    Type
                         _______ _______ _______ _____ _____    ______ ____

>  <TORSDO>
F 4

$$$$
=
 OpenBabel11062409363D

 34 38  0  0  1  0  0  0  0  0999 V2000
  160.8920  209.2550  152.5750 C   0  0  0  0  0  0  0  0  0  0  0  0
  160.3500  212.7110  151.5370 C   0  0  0  0  0  2  0  0  0  0  0  0
  160.0110  211.6020  153.3870 N   0  0  0  0  0  0  0  0  0  0  0  0
  161.2130  206.8900  153.0760 C   0  0  0  0  0  0  0  0  0  0  0  0
  161.2000  208.0130  152.1750 C   0  0  0  0  0  3  0  0  0  0  0  0
  160.6090  208.3660  154.8520 C   0  0  0  0  0  0  0  0  0  0  0  0
  160.4400  208.5660  156.2690 N   0  0  0  0  0  1  0  0  0  0  0  0
  160.9910  207.1370  154.4450 C   0  0  0  0  0  3  0  0  0  0  0  0
  160.0920  210.6380  154.2940 C   0  0  0  0  0  0  0  0  0  0  0  0
  160.5270  209.4230  153.9440 C   0  0  0  0  0  0  0  0  0  0  0  0
  159.8180  210.9270  155.4720 O   0  0  0  0  0  0  0  0  0  0  0  0
  160.4180  213.1040  150.1250 C   0  0  0  0  0  2  0  0  0  0  0  0
  161.6150  212.4430  149.3280 C   0  0  1  0  0  3  0  0  0  0  0  0
  161.8160  211.1190  149.4140 C   0  0  0  0  0  2  0  0  0  0  0  0
  160.3490  211.5270  152.0980 C   0  0  0  0  0  0  0  0  0  0  0  0
  161.5100  210.2090  150.5350 C   0  0  0  0  0  3  0  0  0  0  0  0
  160.8170  210.3380  151.6430 C   0  0  0  0  0  0  0  0  0  0  0  0
  162.2710  213.2290  148.2510 N   0  0  0  0  0  0  0  0  0  0  0  0
  162.1710  214.4500  148.2640 O   0  0  0  0  0  0  0  0  0  0  0  0
  163.1220  212.5810  147.3230 O   0  0  0  0  0  0  0  0  0  0  0  0
  161.2400  205.5060  152.7820 O   0  0  0  0  0  0  0  0  0  0  0  0
  161.2270  205.0720  149.1100 C   0  0  0  0  0  3  0  0  0  0  0  0
  161.2510  203.5390  151.4500 C   0  0  0  0  0  3  0  0  0  0  0  0
  160.9920  201.6860  147.7200 C   0  0  0  0  0  0  0  0  0  0  0  0
  161.1300  203.0590  147.8090 C   0  0  0  0  0  3  0  0  0  0  0  0
  161.2440  203.6820  149.0360 C   0  0  0  0  0  0  0  0  0  0  0  0
  160.9780  201.5410  150.2140 C   0  0  0  0  0  3  0  0  0  0  0  0
  161.1630  202.9220  150.2110 C   0  0  0  0  0  0  0  0  0  0  0  0
  160.9410  200.8960  148.9440 C   0  0  0  0  0  3  0  0  0  0  0  0
  161.4280  204.9140  151.5070 C   0  0  0  0  0  0  0  0  0  0  0  0
  161.3680  205.6950  150.3770 C   0  0  0  0  0  3  0  0  0  0  0  0
  160.8880  200.9360  146.4190 C   0  0  0  0  0  0  0  0  0  0  0  0
  161.2970  199.7740  146.4000 O   0  0  0  0  0  1  0  0  0  0  0  0
  160.2910  201.6230  145.2480 O   0  0  0  0  0  0  0  0  0  0  0  0
  1 10  1  0  0  0  0
  2 15  1  0  0  0  0
  3  9  1  0  0  0  0
  4  8  2  0  0  0  0
  5  1  2  0  0  0  0
  5  4  1  0  0  0  0
  6  7  1  0  0  0  0
  8  6  1  0  0  0  0
  9 11  2  0  0  0  0
 10  9  1  0  0  0  0
 10  6  2  0  0  0  0
 12  2  1  0  0  0  0
 13 18  1  6  0  0  0
 13 14  1  0  0  0  0
 13 12  1  0  0  0  0
 14 16  1  0  0  0  0
 15  3  2  0  0  0  0
 16 17  2  0  0  0  0
 17 15  1  0  0  0  0
 17  1  1  0  0  0  0
 18 19  2  0  0  0  0
 20 18  2  0  0  0  0
 21  4  1  0  0  0  0
 22 31  1  0  0  0  0
 23 30  1  0  0  0  0
 24 25  2  0  0  0  0
 24 29  1  0  0  0  0
 25 26  1  0  0  0  0
 26 22  2  0  0  0  0
 26 28  1  0  0  0  0
 28 27  1  0  0  0  0
 28 23  2  0  0  0  0
 29 27  2  0  0  0  0
 30 21  1  0  0  0  0
 31 30  2  0  0  0  0
 32 24  1  0  0  0  0
 33 32  1  0  0  0  0
 34 32  2  0  0  0  0
M  END
>  <MODEL>
2

>  <REMARK>
 VINA RESULT:     -10.7      0.804      1.631
  Name = 
  4 active torsions:
  status: ('A' for Active; 'I' for Inactive)
    1  A    between atoms: N_3  and  C_25
    2  A    between atoms: C_7  and  C_11
    3  A    between atoms: C_8  and  O_18
    4  A    between atoms: O_18  and  C_30
                            x       y       z     vdW  Elec       q    Type
                         _______ _______ _______ _____ _____    ______ ____

>  <TORSDO>
F 4

$$$$
=
 OpenBabel11062409363D

 34 38  0  0  1  0  0  0  0  0999 V2000
  161.4910  206.2250  150.2990 C   0  0  0  0  0  0  0  0  0  0  0  0
  161.3320  203.3660  148.0380 C   0  0  0  0  0  2  0  0  0  0  0  0
  161.2630  203.6010  150.2070 N   0  0  0  0  0  0  0  0  0  0  0  0
  161.7230  208.2240  151.6760 C   0  0  0  0  0  0  0  0  0  0  0  0
  161.7400  207.5370  150.4100 C   0  0  0  0  0  3  0  0  0  0  0  0
  161.1480  206.1650  152.7350 C   0  0  0  0  0  0  0  0  0  0  0  0
  160.7030  205.4870  153.9270 N   0  0  0  0  0  1  0  0  0  0  0  0
  161.3300  207.5000  152.8180 C   0  0  0  0  0  3  0  0  0  0  0  0
  161.1370  204.1800  151.3940 C   0  0  0  0  0  0  0  0  0  0  0  0
  161.2470  205.5070  151.5080 C   0  0  0  0  0  0  0  0  0  0  0  0
  160.8490  203.4550  152.3630 O   0  0  0  0  0  0  0  0  0  0  0  0
  161.6860  203.4930  146.6190 C   0  0  0  0  0  2  0  0  0  0  0  0
  161.1310  204.8060  145.9300 C   0  0  1  0  0  3  0  0  0  0  0  0
  161.3160  205.9940  146.5260 C   0  0  0  0  0  2  0  0  0  0  0  0
  161.4730  204.2040  149.0350 C   0  0  0  0  0  0  0  0  0  0  0  0
  161.4320  206.2970  147.9660 C   0  0  0  0  0  3  0  0  0  0  0  0
  161.5870  205.5550  149.0390 C   0  0  0  0  0  0  0  0  0  0  0  0
  160.7280  204.7410  144.5020 N   0  0  0  0  0  0  0  0  0  0  0  0
  159.8080  204.0000  144.1790 O   0  0  0  0  0  0  0  0  0  0  0  0
  161.2980  205.6390  143.5670 O   0  0  0  0  0  0  0  0  0  0  0  0
  162.2200  209.5080  152.0050 O   0  0  0  0  0  0  0  0  0  0  0  0
  161.1450  211.2310  155.0950 C   0  0  0  0  0  3  0  0  0  0  0  0
  160.4060  210.9880  152.4070 C   0  0  0  0  0  3  0  0  0  0  0  0
  158.0540  213.2050  155.0460 C   0  0  0  0  0  0  0  0  0  0  0  0
  159.2380  212.6360  155.4760 C   0  0  0  0  0  3  0  0  0  0  0  0
  160.0400  211.9230  154.6060 C   0  0  0  0  0  0  0  0  0  0  0  0
  158.4230  212.2210  152.7790 C   0  0  0  0  0  3  0  0  0  0  0  0
  159.6230  211.7230  153.2830 C   0  0  0  0  0  0  0  0  0  0  0  0
  157.6400  213.0230  153.6600 C   0  0  0  0  0  3  0  0  0  0  0  0
  161.6090  210.4620  152.8570 C   0  0  0  0  0  0  0  0  0  0  0  0
  161.9700  210.5220  154.1820 C   0  0  0  0  0  3  0  0  0  0  0  0
  157.1440  214.0150  155.9290 C   0  0  0  0  0  0  0  0  0  0  0  0
  157.6140  214.4490  156.9820 O   0  0  0  0  0  1  0  0  0  0  0  0
  155.7510  214.2610  155.4810 O   0  0  0  0  0  0  0  0  0  0  0  0
  1  5  2  0  0  0  0
  1 10  1  0  0  0  0
  2 15  1  0  0  0  0
  3  9  1  0  0  0  0
  4 21  1  0  0  0  0
  4  8  2  0  0  0  0
  5  4  1  0  0  0  0
  6  8  1  0  0  0  0
  6  7  1  0  0  0  0
  9 10  1  0  0  0  0
  9 11  2  0  0  0  0
 10  6  2  0  0  0  0
 12  2  1  0  0  0  0
 13 18  1  6  0  0  0
 13 14  1  0  0  0  0
 13 12  1  0  0  0  0
 14 16  1  0  0  0  0
 15 17  1  0  0  0  0
 15  3  2  0  0  0  0
 16 17  2  0  0  0  0
 17  1  1  0  0  0  0
 19 18  2  0  0  0  0
 20 18  2  0  0  0  0
 21 30  1  0  0  0  0
 23 30  2  0  0  0  0
 23 28  1  0  0  0  0
 24 25  1  0  0  0  0
 24 32  1  0  0  0  0
 26 22  1  0  0  0  0
 26 25  2  0  0  0  0
 27 28  2  0  0  0  0
 27 29  1  0  0  0  0
 28 26  1  0  0  0  0
 29 24  2  0  0  0  0
 30 31  1  0  0  0  0
 31 22  2  0  0  0  0
 32 33  1  0  0  0  0
 34 32  2  0  0  0  0
M  END
>  <MODEL>
3

>  <REMARK>
 VINA RESULT:      -9.9      3.113      8.859
  Name = 
  4 active torsions:
  status: ('A' for Active; 'I' for Inactive)
    1  A    between atoms: N_3  and  C_25
    2  A    between atoms: C_7  and  C_11
    3  A    between atoms: C_8  and  O_18
    4  A    between atoms: O_18  and  C_30
                            x       y       z     vdW  Elec       q    Type
                         _______ _______ _______ _____ _____    ______ ____

>  <TORSDO>
F 4

$$$$
=
 OpenBabel11062409363D

 34 38  0  0  1  0  0  0  0  0999 V2000
  159.9500  211.0770  154.3340 C   0  0  0  0  0  0  0  0  0  0  0  0
  157.6430  212.5570  156.7430 C   0  0  0  0  0  2  0  0  0  0  0  0
  159.7050  211.8460  156.8430 N   0  0  0  0  0  0  0  0  0  0  0  0
  161.3300  210.0000  152.6370 C   0  0  0  0  0  0  0  0  0  0  0  0
  160.0850  210.5470  153.1100 C   0  0  0  0  0  3  0  0  0  0  0  0
  162.3300  210.5890  154.7210 C   0  0  0  0  0  0  0  0  0  0  0  0
  163.5350  210.7350  155.5000 N   0  0  0  0  0  1  0  0  0  0  0  0
  162.4650  210.1250  153.4610 C   0  0  0  0  0  3  0  0  0  0  0  0
  160.9050  211.4480  156.4450 C   0  0  0  0  0  0  0  0  0  0  0  0
  161.0940  211.0410  155.1860 C   0  0  0  0  0  0  0  0  0  0  0  0
  161.8420  211.5340  157.2590 O   0  0  0  0  0  0  0  0  0  0  0  0
  156.2100  212.6800  156.4510 C   0  0  0  0  0  2  0  0  0  0  0  0
  155.8890  213.1580  154.9760 C   0  0  1  0  0  3  0  0  0  0  0  0
  156.4870  212.5500  153.9400 C   0  0  0  0  0  2  0  0  0  0  0  0
  158.5950  211.9240  156.1040 C   0  0  0  0  0  0  0  0  0  0  0  0
  157.8100  211.8990  153.8880 C   0  0  0  0  0  3  0  0  0  0  0  0
  158.6830  211.5460  154.8040 C   0  0  0  0  0  0  0  0  0  0  0  0
  154.7020  214.0210  154.7520 N   0  0  0  0  0  0  0  0  0  0  0  0
  154.3330  214.2370  153.6040 O   0  0  0  0  0  0  0  0  0  0  0  0
  153.9260  214.4530  155.8560 O   0  0  0  0  0  0  0  0  0  0  0  0
  161.5750  209.1730  151.5140 O   0  0  0  0  0  0  0  0  0  0  0  0
  161.1830  205.5700  152.2450 C   0  0  0  0  0  3  0  0  0  0  0  0
  161.2200  207.3240  150.0660 C   0  0  0  0  0  3  0  0  0  0  0  0
  160.9100  203.2080  149.4520 C   0  0  0  0  0  0  0  0  0  0  0  0
  160.9320  203.7230  150.7360 C   0  0  0  0  0  3  0  0  0  0  0  0
  161.0070  205.0850  150.9520 C   0  0  0  0  0  0  0  0  0  0  0  0
  161.1510  205.5200  148.5380 C   0  0  0  0  0  3  0  0  0  0  0  0
  161.1190  205.9570  149.8610 C   0  0  0  0  0  0  0  0  0  0  0  0
  160.9930  204.1210  148.3190 C   0  0  0  0  0  3  0  0  0  0  0  0
  161.2000  207.8140  151.3640 C   0  0  0  0  0  0  0  0  0  0  0  0
  161.2350  206.9740  152.4510 C   0  0  0  0  0  3  0  0  0  0  0  0
  160.8040  201.7400  149.1400 C   0  0  0  0  0  0  0  0  0  0  0  0
  160.5030  200.9840  150.0640 O   0  0  0  0  0  1  0  0  0  0  0  0
  161.0460  201.2900  147.7470 O   0  0  0  0  0  0  0  0  0  0  0  0
  1 17  1  0  0  0  0
  1 10  1  0  0  0  0
  4  5  1  0  0  0  0
  4  8  2  0  0  0  0
  5  1  2  0  0  0  0
  6 10  2  0  0  0  0
  6  7  1  0  0  0  0
  8  6  1  0  0  0  0
  9  3  1  0  0  0  0
  9 11  2  0  0  0  0
 10  9  1  0  0  0  0
 12  2  1  0  0  0  0
 13 18  1  6  0  0  0
 13 12  1  0  0  0  0
 14 13  1  0  0  0  0
 15  2  1  0  0  0  0
 15  3  2  0  0  0  0
 16 14  1  0  0  0  0
 16 17  2  0  0  0  0
 17 15  1  0  0  0  0
 18 20  2  0  0  0  0
 19 18  2  0  0  0  0
 21  4  1  0  0  0  0
 22 31  1  0  0  0  0
 23 30  1  0  0  0  0
 24 25  2  0  0  0  0
 25 26  1  0  0  0  0
 26 22  2  0  0  0  0
 27 28  1  0  0  0  0
 28 23  2  0  0  0  0
 28 26  1  0  0  0  0
 29 27  2  0  0  0  0
 29 24  1  0  0  0  0
 30 21  1  0  0  0  0
 30 31  2  0  0  0  0
 32 24  1  0  0  0  0
 32 33  1  0  0  0  0
 34 32  2  0  0  0  0
M  END
>  <MODEL>
4

>  <REMARK>
 VINA RESULT:      -9.5      2.964      4.891
  Name = 
  4 active torsions:
  status: ('A' for Active; 'I' for Inactive)
    1  A    between atoms: N_3  and  C_25
    2  A    between atoms: C_7  and  C_11
    3  A    between atoms: C_8  and  O_18
    4  A    between atoms: O_18  and  C_30
                            x       y       z     vdW  Elec       q    Type
                         _______ _______ _______ _____ _____    ______ ____

>  <TORSDO>
F 4

$$$$
=
 OpenBabel11062409363D

 34 38  0  0  1  0  0  0  0  0999 V2000
  160.9140  208.7660  152.3640 C   0  0  0  0  0  0  0  0  0  0  0  0
  160.4280  212.1110  153.7370 C   0  0  0  0  0  2  0  0  0  0  0  0
  161.3490  211.3270  151.9200 N   0  0  0  0  0  0  0  0  0  0  0  0
  161.2560  206.4630  151.6390 C   0  0  0  0  0  0  0  0  0  0  0  0
  160.8400  207.4490  152.6030 C   0  0  0  0  0  3  0  0  0  0  0  0
  161.8080  208.2320  150.1350 C   0  0  0  0  0  0  0  0  0  0  0  0
  162.1790  208.6280  148.8000 N   0  0  0  0  0  1  0  0  0  0  0  0
  161.6590  206.9100  150.3660 C   0  0  0  0  0  3  0  0  0  0  0  0
  161.6640  210.4800  150.9490 C   0  0  0  0  0  0  0  0  0  0  0  0
  161.4720  209.1680  151.1140 C   0  0  0  0  0  0  0  0  0  0  0  0
  162.0720  210.9580  149.8750 O   0  0  0  0  0  0  0  0  0  0  0  0
  160.0130  212.3130  155.1300 C   0  0  0  0  0  2  0  0  0  0  0  0
  158.8810  211.3190  155.6170 C   0  0  1  0  0  3  0  0  0  0  0  0
  159.0170  210.0020  155.3960 C   0  0  0  0  0  2  0  0  0  0  0  0
  160.8090  211.0300  153.1040 C   0  0  0  0  0  0  0  0  0  0  0  0
  159.7270  209.3180  154.2980 C   0  0  0  0  0  3  0  0  0  0  0  0
  160.5610  209.7220  153.3670 C   0  0  0  0  0  0  0  0  0  0  0  0
  157.8740  211.8130  156.5910 N   0  0  0  0  0  0  0  0  0  0  0  0
  158.1310  212.8090  157.2550 O   0  0  0  0  0  0  0  0  0  0  0  0
  156.5850  211.2270  156.6300 O   0  0  0  0  0  0  0  0  0  0  0  0
  161.5030  205.0810  151.8210 O   0  0  0  0  0  0  0  0  0  0  0  0
  161.0680  201.6680  150.4680 C   0  0  0  0  0  3  0  0  0  0  0  0
  161.2150  204.3200  149.5890 C   0  0  0  0  0  3  0  0  0  0  0  0
  160.9260  201.2010  146.8320 C   0  0  0  0  0  0  0  0  0  0  0  0
  160.8870  200.9390  148.1890 C   0  0  0  0  0  3  0  0  0  0  0  0
  160.9540  201.9640  149.1120 C   0  0  0  0  0  0  0  0  0  0  0  0
  161.2160  203.6330  147.3260 C   0  0  0  0  0  3  0  0  0  0  0  0
  161.1210  203.2850  148.6720 C   0  0  0  0  0  0  0  0  0  0  0  0
  161.0660  202.5800  146.3780 C   0  0  0  0  0  3  0  0  0  0  0  0
  161.1330  204.0300  150.9440 C   0  0  0  0  0  0  0  0  0  0  0  0
  161.1130  202.7350  151.4030 C   0  0  0  0  0  3  0  0  0  0  0  0
  160.8320  200.1390  145.7700 C   0  0  0  0  0  0  0  0  0  0  0  0
  160.1270  200.3800  144.7890 O   0  0  0  0  0  0  0  0  0  0  0  0
  161.5980  198.8820  145.9510 O   0  0  0  0  0  1  0  0  0  0  0  0
  1  5  1  0  0  0  0
  1 17  1  0  0  0  0
  2 12  1  0  0  0  0
  3 15  2  0  0  0  0
  4 21  1  0  0  0  0
  4  5  2  0  0  0  0
  6  8  2  0  0  0  0
  6 10  1  0  0  0  0
  7  6  1  0  0  0  0
  8  4  1  0  0  0  0
  9 10  1  0  0  0  0
  9  3  1  0  0  0  0
 10  1  2  0  0  0  0
 11  9  2  0  0  0  0
 12 13  1  0  0  0  0
 13 18  1  1  0  0  0
 14 13  1  0  0  0  0
 15 17  1  0  0  0  0
 15  2  1  0  0  0  0
 16 14  1  0  0  0  0
 17 16  2  0  0  0  0
 18 20  2  0  0  0  0
 18 19  2  0  0  0  0
 22 31  1  0  0  0  0
 23 30  1  0  0  0  0
 24 25  2  0  0  0  0
 25 26  1  0  0  0  0
 26 22  2  0  0  0  0
 27 28  1  0  0  0  0
 28 26  1  0  0  0  0
 28 23  2  0  0  0  0
 29 24  1  0  0  0  0
 29 27  2  0  0  0  0
 30 31  2  0  0  0  0
 30 21  1  0  0  0  0
 32 34  1  0  0  0  0
 32 24  1  0  0  0  0
 33 32  2  0  0  0  0
M  END
>  <MODEL>
5

>  <REMARK>
 VINA RESULT:      -9.2      1.943      4.575
  Name = 
  4 active torsions:
  status: ('A' for Active; 'I' for Inactive)
    1  A    between atoms: N_3  and  C_25
    2  A    between atoms: C_7  and  C_11
    3  A    between atoms: C_8  and  O_18
    4  A    between atoms: O_18  and  C_30
                            x       y       z     vdW  Elec       q    Type
                         _______ _______ _______ _____ _____    ______ ____

>  <TORSDO>
F 4

$$$$
=
 OpenBabel11062409363D

 34 38  0  0  1  0  0  0  0  0999 V2000
  159.9940  211.7120  152.2530 C   0  0  0  0  0  0  0  0  0  0  0  0
  157.8670  214.2570  153.7750 C   0  0  0  0  0  2  0  0  0  0  0  0
  159.1760  214.2070  152.0270 N   0  0  0  0  0  0  0  0  0  0  0  0
  161.4500  209.9400  151.4250 C   0  0  0  0  0  0  0  0  0  0  0  0
  160.5460  210.4990  152.3970 C   0  0  0  0  0  3  0  0  0  0  0  0
  161.1870  211.9140  150.1100 C   0  0  0  0  0  0  0  0  0  0  0  0
  161.4130  212.5840  148.8540 N   0  0  0  0  0  1  0  0  0  0  0  0
  161.6750  210.6620  150.2370 C   0  0  0  0  0  3  0  0  0  0  0  0
  159.9240  213.7220  151.0460 C   0  0  0  0  0  0  0  0  0  0  0  0
  160.3750  212.4660  151.1030 C   0  0  0  0  0  0  0  0  0  0  0  0
  160.1250  214.4520  150.0580 O   0  0  0  0  0  0  0  0  0  0  0  0
  157.3120  214.0830  155.1220 C   0  0  0  0  0  2  0  0  0  0  0  0
  156.7660  212.6250  155.4120 C   0  0  1  0  0  3  0  0  0  0  0  0
  157.5330  211.5630  155.1240 C   0  0  0  0  0  2  0  0  0  0  0  0
  158.7640  213.5610  153.1210 C   0  0  0  0  0  0  0  0  0  0  0  0
  158.5590  211.4210  154.0720 C   0  0  0  0  0  3  0  0  0  0  0  0
  159.1570  212.2710  153.2690 C   0  0  0  0  0  0  0  0  0  0  0  0
  155.5810  212.4740  156.2950 N   0  0  0  0  0  0  0  0  0  0  0  0
  155.3250  211.3700  156.7600 O   0  0  0  0  0  0  0  0  0  0  0  0
  154.8610  213.6210  156.7100 O   0  0  0  0  0  0  0  0  0  0  0  0
  162.3170  208.8280  151.5450 O   0  0  0  0  0  0  0  0  0  0  0  0
  161.5270  206.3640  148.9030 C   0  0  0  0  0  3  0  0  0  0  0  0
  161.9330  206.4860  151.6680 C   0  0  0  0  0  3  0  0  0  0  0  0
  160.8030  202.8990  149.8620 C   0  0  0  0  0  0  0  0  0  0  0  0
  161.0410  204.0220  149.0930 C   0  0  0  0  0  3  0  0  0  0  0  0
  161.4420  205.2090  149.6750 C   0  0  0  0  0  0  0  0  0  0  0  0
  161.2900  204.2250  151.9230 C   0  0  0  0  0  3  0  0  0  0  0  0
  161.5560  205.2940  151.0700 C   0  0  0  0  0  0  0  0  0  0  0  0
  160.9540  202.9830  151.3100 C   0  0  0  0  0  3  0  0  0  0  0  0
  162.2030  207.5870  150.8670 C   0  0  0  0  0  0  0  0  0  0  0  0
  161.9620  207.5690  149.5140 C   0  0  0  0  0  3  0  0  0  0  0  0
  160.3890  201.5670  149.2960 C   0  0  0  0  0  0  0  0  0  0  0  0
  159.1840  201.3110  149.2710 O   0  0  0  0  0  1  0  0  0  0  0  0
  161.4400  200.6520  148.7870 O   0  0  0  0  0  0  0  0  0  0  0  0
  1  5  1  0  0  0  0
  1 17  1  0  0  0  0
  2 12  1  0  0  0  0
  3 15  2  0  0  0  0
  4 21  1  0  0  0  0
  4  5  2  0  0  0  0
  6  8  2  0  0  0  0
  6 10  1  0  0  0  0
  7  6  1  0  0  0  0
  8  4  1  0  0  0  0
  9 10  1  0  0  0  0
  9  3  1  0  0  0  0
 10  1  2  0  0  0  0
 11  9  2  0  0  0  0
 12 13  1  0  0  0  0
 13 18  1  1  0  0  0
 14 13  1  0  0  0  0
 15 17  1  0  0  0  0
 15  2  1  0  0  0  0
 16 14  1  0  0  0  0
 17 16  2  0  0  0  0
 18 20  2  0  0  0  0
 18 19  2  0  0  0  0
 22 31  2  0  0  0  0
 22 26  1  0  0  0  0
 24 29  1  0  0  0  0
 25 26  1  0  0  0  0
 25 24  2  0  0  0  0
 26 28  2  0  0  0  0
 28 23  1  0  0  0  0
 28 27  1  0  0  0  0
 29 27  2  0  0  0  0
 30 21  1  0  0  0  0
 30 23  2  0  0  0  0
 31 30  1  0  0  0  0
 32 24  1  0  0  0  0
 33 32  1  0  0  0  0
 34 32  2  0  0  0  0
M  END
>  <MODEL>
6

>  <REMARK>
 VINA RESULT:      -9.1      2.478      5.443
  Name = 
  4 active torsions:
  status: ('A' for Active; 'I' for Inactive)
    1  A    between atoms: N_3  and  C_25
    2  A    between atoms: C_7  and  C_11
    3  A    between atoms: C_8  and  O_18
    4  A    between atoms: O_18  and  C_30
                            x       y       z     vdW  Elec       q    Type
                         _______ _______ _______ _____ _____    ______ ____

>  <TORSDO>
F 4

$$$$
=
 OpenBabel11062409363D

 34 38  0  0  1  0  0  0  0  0999 V2000
  160.8460  211.7190  150.9620 C   0  0  0  0  0  0  0  0  0  0  0  0
  159.5660  214.2280  148.6440 C   0  0  0  0  0  2  0  0  0  0  0  0
  159.1950  213.7600  150.7440 N   0  0  0  0  0  0  0  0  0  0  0  0
  161.7170  209.9140  152.3530 C   0  0  0  0  0  0  0  0  0  0  0  0
  161.5660  210.5950  151.0920 C   0  0  0  0  0  3  0  0  0  0  0  0
  160.3810  211.6060  153.3760 C   0  0  0  0  0  0  0  0  0  0  0  0
  159.8860  212.2030  154.5910 N   0  0  0  0  0  1  0  0  0  0  0  0
  161.1680  210.5160  153.5010 C   0  0  0  0  0  3  0  0  0  0  0  0
  159.3650  213.2440  151.9530 C   0  0  0  0  0  0  0  0  0  0  0  0
  160.1850  212.2030  152.1300 C   0  0  0  0  0  0  0  0  0  0  0  0
  158.7920  213.8030  152.9060 O   0  0  0  0  0  0  0  0  0  0  0  0
  159.7980  214.1220  147.1980 C   0  0  0  0  0  2  0  0  0  0  0  0
  161.2660  213.6750  146.8110 C   0  0  1  0  0  3  0  0  0  0  0  0
  161.8120  212.6060  147.4130 C   0  0  0  0  0  2  0  0  0  0  0  0
  159.7890  213.3750  149.6120 C   0  0  0  0  0  0  0  0  0  0  0  0
  161.5610  212.0800  148.7690 C   0  0  0  0  0  3  0  0  0  0  0  0
  160.6540  212.3320  149.6850 C   0  0  0  0  0  0  0  0  0  0  0  0
  161.8720  214.2250  145.5720 N   0  0  0  0  0  0  0  0  0  0  0  0
  163.0750  214.4530  145.5510 O   0  0  0  0  0  0  0  0  0  0  0  0
  161.0930  214.3330  144.3940 O   0  0  0  0  0  0  0  0  0  0  0  0
  162.1920  208.6060  152.6120 O   0  0  0  0  0  0  0  0  0  0  0  0
  161.1590  205.0560  152.5390 C   0  0  0  0  0  3  0  0  0  0  0  0
  161.6990  207.1690  150.7860 C   0  0  0  0  0  3  0  0  0  0  0  0
  160.8050  203.3740  149.3000 C   0  0  0  0  0  0  0  0  0  0  0  0
  160.7750  203.6150  150.6610 C   0  0  0  0  0  3  0  0  0  0  0  0
  161.0430  204.8730  151.1640 C   0  0  0  0  0  0  0  0  0  0  0  0
  161.5030  205.7410  148.9110 C   0  0  0  0  0  3  0  0  0  0  0  0
  161.4040  205.9080  150.2910 C   0  0  0  0  0  0  0  0  0  0  0  0
  161.1480  204.4620  148.3920 C   0  0  0  0  0  3  0  0  0  0  0  0
  161.6240  207.3910  152.1530 C   0  0  0  0  0  0  0  0  0  0  0  0
  161.4120  206.3610  153.0390 C   0  0  0  0  0  3  0  0  0  0  0  0
  160.4990  202.0380  148.6780 C   0  0  0  0  0  0  0  0  0  0  0  0
  160.0490  201.1590  149.4150 O   0  0  0  0  0  1  0  0  0  0  0  0
  160.7380  201.8580  147.2250 O   0  0  0  0  0  0  0  0  0  0  0  0
  1  5  2  0  0  0  0
  1 10  1  0  0  0  0
  2 15  1  0  0  0  0
  3  9  1  0  0  0  0
  4 21  1  0  0  0  0
  4  8  2  0  0  0  0
  5  4  1  0  0  0  0
  6  8  1  0  0  0  0
  6  7  1  0  0  0  0
  9 10  1  0  0  0  0
  9 11  2  0  0  0  0
 10  6  2  0  0  0  0
 12  2  1  0  0  0  0
 13 18  1  6  0  0  0
 13 12  1  0  0  0  0
 13 14  1  0  0  0  0
 14 16  1  0  0  0  0
 15 17  1  0  0  0  0
 15  3  2  0  0  0  0
 16 17  2  0  0  0  0
 17  1  1  0  0  0  0
 19 18  2  0  0  0  0
 20 18  2  0  0  0  0
 22 31  1  0  0  0  0
 23 30  1  0  0  0  0
 24 25  2  0  0  0  0
 25 26  1  0  0  0  0
 26 22  2  0  0  0  0
 27 28  1  0  0  0  0
 28 23  2  0  0  0  0
 28 26  1  0  0  0  0
 29 27  2  0  0  0  0
 29 24  1  0  0  0  0
 30 21  1  0  0  0  0
 30 31  2  0  0  0  0
 32 24  1  0  0  0  0
 32 33  1  0  0  0  0
 34 32  2  0  0  0  0
M  END
>  <MODEL>
7

>  <REMARK>
 VINA RESULT:      -9.1      1.968      2.992
  Name = 
  4 active torsions:
  status: ('A' for Active; 'I' for Inactive)
    1  A    between atoms: N_3  and  C_25
    2  A    between atoms: C_7  and  C_11
    3  A    between atoms: C_8  and  O_18
    4  A    between atoms: O_18  and  C_30
                            x       y       z     vdW  Elec       q    Type
                         _______ _______ _______ _____ _____    ______ ____

>  <TORSDO>
F 4

$$$$
=
 OpenBabel11062409363D

 34 38  0  0  1  0  0  0  0  0999 V2000
  160.8530  208.7360  152.4770 C   0  0  0  0  0  0  0  0  0  0  0  0
  159.3370  210.0750  155.5130 C   0  0  0  0  0  2  0  0  0  0  0  0
  160.2740  208.1750  154.9860 N   0  0  0  0  0  0  0  0  0  0  0  0
  161.7300  207.9500  150.3410 C   0  0  0  0  0  0  0  0  0  0  0  0
  161.0470  208.9170  151.1620 C   0  0  0  0  0  3  0  0  0  0  0  0
  162.0470  206.5940  152.2780 C   0  0  0  0  0  0  0  0  0  0  0  0
  162.6920  205.4520  152.8770 N   0  0  0  0  0  1  0  0  0  0  0  0
  162.2970  206.8270  150.9720 C   0  0  0  0  0  3  0  0  0  0  0  0
  160.9930  207.2850  154.3150 C   0  0  0  0  0  0  0  0  0  0  0  0
  161.3150  207.5080  153.0370 C   0  0  0  0  0  0  0  0  0  0  0  0
  161.4020  206.2870  154.9360 O   0  0  0  0  0  0  0  0  0  0  0  0
  158.5310  211.3010  155.4880 C   0  0  0  0  0  2  0  0  0  0  0  0
  159.1370  212.4540  154.5890 C   0  0  1  0  0  3  0  0  0  0  0  0
  159.5350  212.1770  153.3370 C   0  0  0  0  0  2  0  0  0  0  0  0
  159.8220  209.3490  154.5370 C   0  0  0  0  0  0  0  0  0  0  0  0
  160.0550  210.9070  152.7930 C   0  0  0  0  0  3  0  0  0  0  0  0
  160.1080  209.6780  153.2530 C   0  0  0  0  0  0  0  0  0  0  0  0
  158.9430  213.8640  155.0150 N   0  0  0  0  0  0  0  0  0  0  0  0
  157.9260  214.4530  154.6700 O   0  0  0  0  0  0  0  0  0  0  0  0
  159.8470  214.4530  155.9320 O   0  0  0  0  0  0  0  0  0  0  0  0
  161.7780  207.8500  148.9300 O   0  0  0  0  0  0  0  0  0  0  0  0
  161.7660  205.5670  146.0210 C   0  0  0  0  0  3  0  0  0  0  0  0
  161.4610  205.4990  148.8020 C   0  0  0  0  0  3  0  0  0  0  0  0
  160.9520  202.0280  146.5410 C   0  0  0  0  0  0  0  0  0  0  0  0
  161.3340  203.2090  145.9310 C   0  0  0  0  0  3  0  0  0  0  0  0
  161.5330  204.3580  146.6710 C   0  0  0  0  0  0  0  0  0  0  0  0
  160.8580  203.2130  148.7390 C   0  0  0  0  0  3  0  0  0  0  0  0
  161.2900  204.3460  148.0520 C   0  0  0  0  0  0  0  0  0  0  0  0
  160.7330  202.0110  147.9830 C   0  0  0  0  0  3  0  0  0  0  0  0
  161.8830  206.6580  148.1680 C   0  0  0  0  0  0  0  0  0  0  0  0
  161.9890  206.7330  146.7990 C   0  0  0  0  0  3  0  0  0  0  0  0
  160.7430  200.7330  145.8040 C   0  0  0  0  0  0  0  0  0  0  0  0
  160.0700  200.7700  144.7730 O   0  0  0  0  0  0  0  0  0  0  0  0
  161.3660  199.4990  146.3430 O   0  0  0  0  0  1  0  0  0  0  0  0
  1 10  1  0  0  0  0
  1 17  1  0  0  0  0
  4  8  2  0  0  0  0
  4  5  1  0  0  0  0
  5  1  2  0  0  0  0
  6  7  1  0  0  0  0
  6 10  2  0  0  0  0
  8  6  1  0  0  0  0
  9 11  2  0  0  0  0
  9  3  1  0  0  0  0
 10  9  1  0  0  0  0
 12  2  1  0  0  0  0
 13 18  1  6  0  0  0
 13 12  1  0  0  0  0
 14 13  1  0  0  0  0
 15  3  2  0  0  0  0
 15  2  1  0  0  0  0
 16 17  2  0  0  0  0
 16 14  1  0  0  0  0
 17 15  1  0  0  0  0
 18 20  2  0  0  0  0
 19 18  2  0  0  0  0
 21  4  1  0  0  0  0
 22 26  2  0  0  0  0
 22 31  1  0  0  0  0
 24 29  1  0  0  0  0
 25 24  2  0  0  0  0
 25 26  1  0  0  0  0
 26 28  1  0  0  0  0
 28 27  1  0  0  0  0
 28 23  2  0  0  0  0
 29 27  2  0  0  0  0
 30 23  1  0  0  0  0
 30 21  1  0  0  0  0
 31 30  2  0  0  0  0
 32 34  1  0  0  0  0
 32 24  1  0  0  0  0
 33 32  2  0  0  0  0
M  END
>  <MODEL>
8

>  <REMARK>
 VINA RESULT:      -8.9      2.623      4.412
  Name = 
  4 active torsions:
  status: ('A' for Active; 'I' for Inactive)
    1  A    between atoms: N_3  and  C_25
    2  A    between atoms: C_7  and  C_11
    3  A    between atoms: C_8  and  O_18
    4  A    between atoms: O_18  and  C_30
                            x       y       z     vdW  Elec       q    Type
                         _______ _______ _______ _____ _____    ______ ____

>  <TORSDO>
F 4

$$$$
=
 OpenBabel11062409363D

 34 38  0  0  1  0  0  0  0  0999 V2000
  160.6630  212.9590  145.9670 C   0  0  0  0  0  0  0  0  0  0  0  0
  159.4430  213.9440  142.6720 C   0  0  0  0  0  2  0  0  0  0  0  0
  158.5970  213.9760  144.6850 N   0  0  0  0  0  0  0  0  0  0  0  0
  161.5830  212.1520  148.0760 C   0  0  0  0  0  0  0  0  0  0  0  0
  161.6280  212.3230  146.6470 C   0  0  0  0  0  3  0  0  0  0  0  0
  159.5180  213.3470  148.1110 C   0  0  0  0  0  0  0  0  0  0  0  0
  158.4960  213.9980  148.8920 N   0  0  0  0  0  1  0  0  0  0  0  0
  160.5330  212.7680  148.7850 C   0  0  0  0  0  3  0  0  0  0  0  0
  158.5320  213.9400  146.0090 C   0  0  0  0  0  0  0  0  0  0  0  0
  159.5450  213.4310  146.7170 C   0  0  0  0  0  0  0  0  0  0  0  0
  157.5370  214.4530  146.5530 O   0  0  0  0  0  0  0  0  0  0  0  0
  160.1430  213.5430  141.4470 C   0  0  0  0  0  2  0  0  0  0  0  0
  161.7200  213.6580  141.5370 C   0  0  1  0  0  3  0  0  0  0  0  0
  162.3620  213.1310  142.5910 C   0  0  0  0  0  2  0  0  0  0  0  0
  159.6110  213.5710  143.9170 C   0  0  0  0  0  0  0  0  0  0  0  0
  161.8780  212.9520  143.9740 C   0  0  0  0  0  3  0  0  0  0  0  0
  160.6970  213.0500  144.5400 C   0  0  0  0  0  0  0  0  0  0  0  0
  162.4740  214.0370  140.3150 N   0  0  0  0  0  0  0  0  0  0  0  0
  163.6880  214.1790  140.3890 O   0  0  0  0  0  0  0  0  0  0  0  0
  161.8130  214.0790  139.0630 O   0  0  0  0  0  0  0  0  0  0  0  0
  162.3490  211.2920  148.8990 O   0  0  0  0  0  0  0  0  0  0  0  0
  161.9690  208.5650  151.3670 C   0  0  0  0  0  3  0  0  0  0  0  0
  161.7290  209.0160  148.6160 C   0  0  0  0  0  3  0  0  0  0  0  0
  161.2150  205.1790  150.1740 C   0  0  0  0  0  0  0  0  0  0  0  0
  161.4430  206.2500  151.0180 C   0  0  0  0  0  3  0  0  0  0  0  0
  161.5880  207.5300  150.5180 C   0  0  0  0  0  0  0  0  0  0  0  0
  161.3810  206.7130  148.2080 C   0  0  0  0  0  3  0  0  0  0  0  0
  161.5600  207.7410  149.1320 C   0  0  0  0  0  0  0  0  0  0  0  0
  161.1530  205.4080  148.7350 C   0  0  0  0  0  3  0  0  0  0  0  0
  161.9180  210.0770  149.4900 C   0  0  0  0  0  0  0  0  0  0  0  0
  162.0910  209.8770  150.8390 C   0  0  0  0  0  3  0  0  0  0  0  0
  161.0220  203.7640  150.6480 C   0  0  0  0  0  0  0  0  0  0  0  0
  161.3430  203.5070  151.8090 O   0  0  0  0  0  1  0  0  0  0  0  0
  160.4460  202.7710  149.7080 O   0  0  0  0  0  0  0  0  0  0  0  0
  1  5  2  0  0  0  0
  1 10  1  0  0  0  0
  2 15  1  0  0  0  0
  3  9  1  0  0  0  0
  4  8  2  0  0  0  0
  4 21  1  0  0  0  0
  5  4  1  0  0  0  0
  6  8  1  0  0  0  0
  6  7  1  0  0  0  0
  9 11  2  0  0  0  0
  9 10  1  0  0  0  0
 10  6  2  0  0  0  0
 12 13  1  0  0  0  0
 12  2  1  0  0  0  0
 13 18  1  6  0  0  0
 13 14  1  0  0  0  0
 14 16  1  0  0  0  0
 15 17  1  0  0  0  0
 15  3  2  0  0  0  0
 16 17  2  0  0  0  0
 17  1  1  0  0  0  0
 18 19  2  0  0  0  0
 20 18  2  0  0  0  0
 21 30  1  0  0  0  0
 23 28  2  0  0  0  0
 23 30  1  0  0  0  0
 24 32  1  0  0  0  0
 24 25  2  0  0  0  0
 26 25  1  0  0  0  0
 26 22  2  0  0  0  0
 27 29  2  0  0  0  0
 27 28  1  0  0  0  0
 28 26  1  0  0  0  0
 29 24  1  0  0  0  0
 30 31  2  0  0  0  0
 31 22  1  0  0  0  0
 32 33  1  0  0  0  0
 34 32  2  0  0  0  0
M  END
>  <MODEL>
9

>  <REMARK>
 VINA RESULT:      -8.5      4.564      7.145
  Name = 
  4 active torsions:
  status: ('A' for Active; 'I' for Inactive)
    1  A    between atoms: N_3  and  C_25
    2  A    between atoms: C_7  and  C_11
    3  A    between atoms: C_8  and  O_18
    4  A    between atoms: O_18  and  C_30
                            x       y       z     vdW  Elec       q    Type
                         _______ _______ _______ _____ _____    ______ ____

>  <TORSDO>
F 4

$$$$
