=
 OpenBabel11052422373D

 31 34  0  0  1  0  0  0  0  0999 V2000
  161.6280  205.9300  147.9810 N   0  0  0  0  0  0  0  0  0  0  0  0
  161.8590  204.8900  148.9920 C   0  0  2  0  0  3  0  0  0  0  0  0
  160.9560  203.6610  148.7850 C   0  0  1  0  0  3  0  0  0  0  0  0
  161.0590  201.3610  147.6350 C   0  0  0  0  0  2  0  0  0  0  0  0
  161.4620  202.8410  147.5900 C   0  0  0  0  0  2  0  0  0  0  0  0
  160.5620  205.1020  151.1620 C   0  0  0  0  0  2  0  0  0  0  0  0
  159.7610  201.1650  148.4060 C   0  0  0  0  0  2  0  0  0  0  0  0
  161.8360  205.4740  150.4130 C   0  0  0  0  0  2  0  0  0  0  0  0
  159.9280  201.5890  149.8690 C   0  0  0  0  0  2  0  0  0  0  0  0
  161.1450  203.1430  152.4100 O   0  0  0  0  0  1  0  0  0  0  0  0
  160.8580  202.7980  150.0580 C   0  0  2  0  0  3  0  0  0  0  0  0
  160.4210  203.5840  151.3020 C   0  0  2  0  0  3  0  0  0  0  0  0
  161.7710  205.7080  146.5570 C   0  0  0  0  0  0  0  0  0  0  0  0
  162.9110  205.2680  146.0340 C   0  0  0  0  0  2  0  0  0  0  0  0
  160.6280  205.9630  145.6240 C   0  0  0  0  0  2  0  0  0  0  0  0
  160.5700  204.8950  144.5460 C   0  0  0  0  0  1  0  0  0  0  0  0
  161.1600  207.2270  148.4650 C   0  0  0  0  0  2  0  0  0  0  0  0
  162.2700  208.2650  148.3980 C   0  0  0  0  0  2  0  0  0  0  0  0
  161.9670  209.4100  149.3420 C   0  0  0  0  0  2  0  0  0  0  0  0
  161.7180  208.8760  150.7390 C   0  0  0  0  0  2  0  0  0  0  0  0
  162.0640  209.8890  151.7250 N   0  0  0  0  0  2  0  0  0  0  0  0
  159.9610  207.5020  155.8680 C   0  0  0  0  0  0  0  0  0  0  0  0
  161.1630  207.6480  153.7390 C   0  0  0  0  0  3  0  0  0  0  0  0
  160.2820  210.9330  154.6610 O   0  0  0  0  0  0  0  0  0  0  0  0
  160.8990  211.2260  153.5260 C   0  0  0  0  0  3  0  0  0  0  0  0
  159.4620  206.7460  156.8750 F   0  0  0  0  0  0  0  0  0  0  0  0
  161.3530  210.0390  152.9580 C   0  0  0  0  0  0  0  0  0  0  0  0
  160.6400  206.8810  154.7960 C   0  0  0  0  0  3  0  0  0  0  0  0
  160.3230  209.6330  154.8360 C   0  0  0  0  0  0  0  0  0  0  0  0
  160.9810  209.0270  153.8020 C   0  0  0  0  0  0  0  0  0  0  0  0
  159.7950  208.9000  155.8960 C   0  0  0  0  0  3  0  0  0  0  0  0
  1 17  1  0  0  0  0
  2  1  1  6  0  0  0
  2  8  1  0  0  0  0
  3  5  1  6  0  0  0
  3  2  1  0  0  0  0
  3 11  1  0  0  0  0
  4  7  1  0  0  0  0
  5  4  1  0  0  0  0
  6 12  1  0  0  0  0
  7  9  1  0  0  0  0
  8  6  1  0  0  0  0
 11  9  1  6  0  0  0
 11 12  1  0  0  0  0
 12 10  1  1  0  0  0
 13  1  1  0  0  0  0
 14 13  2  0  0  0  0
 15 13  1  0  0  0  0
 16 15  1  0  0  0  0
 18 17  1  0  0  0  0
 18 19  1  0  0  0  0
 19 20  1  0  0  0  0
 20 21  1  0  0  0  0
 21 27  1  0  0  0  0
 22 31  1  0  0  0  0
 22 26  1  0  0  0  0
 23 30  2  0  0  0  0
 23 28  1  0  0  0  0
 24 29  1  0  0  0  0
 25 24  1  0  0  0  0
 27 25  2  0  0  0  0
 27 30  1  0  0  0  0
 28 22  2  0  0  0  0
 29 31  2  0  0  0  0
 30 29  1  0  0  0  0
M  END
>  <MODEL>
1

>  <REMARK>
 VINA RESULT:      -8.3      0.000      0.000
  Name = 
  9 active torsions:
  status: ('A' for Active; 'I' for Inactive)
    1  A    between atoms: C_2  and  N_12
    2  A    between atoms: C_2  and  C_13
    3  A    between atoms: C_4  and  N_12
    4  A    between atoms: C_9  and  N_23
    5  A    between atoms: N_12  and  C_25
    6  A    between atoms: C_15  and  C_20
    7  A    between atoms: C_15  and  N_23
    8  A    between atoms: C_20  and  C_27
    9  A    between atoms: C_25  and  C_27
                            x       y       z     vdW  Elec       q    Type
                         _______ _______ _______ _____ _____    ______ ____

>  <TORSDO>
F 9

$$$$
=
 OpenBabel11052422373D

 31 34  0  0  1  0  0  0  0  0999 V2000
  160.6090  209.8220  153.6750 N   0  0  0  0  0  0  0  0  0  0  0  0
  160.0740  211.1810  153.8300 C   0  0  2  0  0  3  0  0  0  0  0  0
  158.6000  211.1820  154.2750 C   0  0  1  0  0  3  0  0  0  0  0  0
  157.2430  211.3190  156.4570 C   0  0  0  0  0  2  0  0  0  0  0  0
  158.5070  210.8000  155.7590 C   0  0  0  0  0  2  0  0  0  0  0  0
  159.1310  212.2800  151.7460 C   0  0  0  0  0  2  0  0  0  0  0  0
  156.0940  211.4830  155.4710 C   0  0  0  0  0  2  0  0  0  0  0  0
  160.3750  212.0470  152.5970 C   0  0  0  0  0  2  0  0  0  0  0  0
  156.4360  212.5310  154.4080 C   0  0  0  0  0  2  0  0  0  0  0  0
  158.2620  214.3770  152.5090 O   0  0  0  0  0  1  0  0  0  0  0  0
  157.9170  212.5350  153.9990 C   0  0  2  0  0  3  0  0  0  0  0  0
  158.0400  213.0000  152.5410 C   0  0  2  0  0  3  0  0  0  0  0  0
  161.0430  209.0010  154.7850 C   0  0  0  0  0  0  0  0  0  0  0  0
  161.8300  209.4860  155.7420 C   0  0  0  0  0  2  0  0  0  0  0  0
  160.6130  207.5720  154.8950 C   0  0  0  0  0  2  0  0  0  0  0  0
  159.8960  207.3290  156.2110 C   0  0  0  0  0  1  0  0  0  0  0  0
  160.6250  209.2710  152.3210 C   0  0  0  0  0  2  0  0  0  0  0  0
  162.0500  209.1160  151.8130 C   0  0  0  0  0  2  0  0  0  0  0  0
  162.1830  207.8280  151.0270 C   0  0  0  0  0  2  0  0  0  0  0  0
  161.9750  208.1010  149.5500 C   0  0  0  0  0  2  0  0  0  0  0  0
  160.8710  207.2950  149.0500 N   0  0  0  0  0  2  0  0  0  0  0  0
  160.9280  202.1400  149.8890 C   0  0  0  0  0  0  0  0  0  0  0  0
  160.6680  204.5020  150.4810 C   0  0  0  0  0  3  0  0  0  0  0  0
  161.4820  204.3740  147.0540 O   0  0  0  0  0  0  0  0  0  0  0  0
  161.3890  205.6910  147.1660 C   0  0  0  0  0  3  0  0  0  0  0  0
  160.9120  200.8370  150.2590 F   0  0  0  0  0  0  0  0  0  0  0  0
  161.0610  205.9940  148.4850 C   0  0  0  0  0  0  0  0  0  0  0  0
  160.6530  203.1430  150.8440 C   0  0  0  0  0  3  0  0  0  0  0  0
  161.2320  203.8360  148.2260 C   0  0  0  0  0  0  0  0  0  0  0  0
  160.9630  204.8030  149.1540 C   0  0  0  0  0  0  0  0  0  0  0  0
  161.2250  202.4830  148.5560 C   0  0  0  0  0  3  0  0  0  0  0  0
  1 13  1  0  0  0  0
  2  1  1  6  0  0  0
  2  3  1  0  0  0  0
  3  5  1  1  0  0  0
  5  4  1  0  0  0  0
  6 12  1  0  0  0  0
  6  8  1  0  0  0  0
  7  4  1  0  0  0  0
  8  2  1  0  0  0  0
  9  7  1  0  0  0  0
 11  3  1  0  0  0  0
 11  9  1  6  0  0  0
 12 10  1  1  0  0  0
 12 11  1  0  0  0  0
 13 15  1  0  0  0  0
 13 14  2  0  0  0  0
 15 16  1  0  0  0  0
 17  1  1  0  0  0  0
 18 17  1  0  0  0  0
 19 18  1  0  0  0  0
 20 19  1  0  0  0  0
 21 20  1  0  0  0  0
 22 26  1  0  0  0  0
 22 28  1  0  0  0  0
 23 28  2  0  0  0  0
 24 25  1  0  0  0  0
 24 29  1  0  0  0  0
 25 27  2  0  0  0  0
 27 21  1  0  0  0  0
 27 30  1  0  0  0  0
 29 31  1  0  0  0  0
 29 30  2  0  0  0  0
 30 23  1  0  0  0  0
 31 22  2  0  0  0  0
M  END
>  <MODEL>
2

>  <REMARK>
 VINA RESULT:      -8.2      2.882      8.821
  Name = 
  9 active torsions:
  status: ('A' for Active; 'I' for Inactive)
    1  A    between atoms: C_2  and  N_12
    2  A    between atoms: C_2  and  C_13
    3  A    between atoms: C_4  and  N_12
    4  A    between atoms: C_9  and  N_23
    5  A    between atoms: N_12  and  C_25
    6  A    between atoms: C_15  and  C_20
    7  A    between atoms: C_15  and  N_23
    8  A    between atoms: C_20  and  C_27
    9  A    between atoms: C_25  and  C_27
                            x       y       z     vdW  Elec       q    Type
                         _______ _______ _______ _____ _____    ______ ____

>  <TORSDO>
F 9

$$$$
=
 OpenBabel11052422373D

 31 34  0  0  1  0  0  0  0  0999 V2000
  161.8930  208.1810  151.5850 N   0  0  0  0  0  0  0  0  0  0  0  0
  161.7950  209.1690  152.6670 C   0  0  2  0  0  3  0  0  0  0  0  0
  160.8750  208.6960  153.8080 C   0  0  1  0  0  3  0  0  0  0  0  0
  161.0720  207.4960  156.0760 C   0  0  0  0  0  2  0  0  0  0  0  0
  161.5870  207.6170  154.6360 C   0  0  0  0  0  2  0  0  0  0  0  0
  160.0360  210.9780  152.4040 C   0  0  0  0  0  2  0  0  0  0  0  0
  159.6160  207.9290  156.1810 C   0  0  0  0  0  2  0  0  0  0  0  0
  161.4780  210.5690  152.1230 C   0  0  0  0  0  2  0  0  0  0  0  0
  159.4610  209.4080  155.8120 C   0  0  0  0  0  2  0  0  0  0  0  0
  160.1500  212.2350  154.4400 O   0  0  0  0  0  1  0  0  0  0  0  0
  160.4090  209.8680  154.6940 C   0  0  2  0  0  3  0  0  0  0  0  0
  159.7490  211.0090  153.9070 C   0  0  2  0  0  3  0  0  0  0  0  0
  161.9640  206.7520  151.8080 C   0  0  0  0  0  0  0  0  0  0  0  0
  163.1300  206.1160  151.8660 C   0  0  0  0  0  2  0  0  0  0  0  0
  160.7180  205.9430  151.9880 C   0  0  0  0  0  2  0  0  0  0  0  0
  161.0070  204.6890  152.7930 C   0  0  0  0  0  1  0  0  0  0  0  0
  161.8420  208.6960  150.2180 C   0  0  0  0  0  2  0  0  0  0  0  0
  161.2480  207.6660  149.2700 C   0  0  0  0  0  2  0  0  0  0  0  0
  162.2180  207.3770  148.1430 C   0  0  0  0  0  2  0  0  0  0  0  0
  161.4750  206.7880  146.9600 C   0  0  0  0  0  2  0  0  0  0  0  0
  162.2210  205.6630  146.4170 N   0  0  0  0  0  2  0  0  0  0  0  0
  160.5340  201.7180  149.3960 C   0  0  0  0  0  0  0  0  0  0  0  0
  161.3820  203.9680  148.9290 C   0  0  0  0  0  3  0  0  0  0  0  0
  161.0650  202.3150  145.8330 O   0  0  0  0  0  0  0  0  0  0  0  0
  161.5210  203.4710  145.3720 C   0  0  0  0  0  3  0  0  0  0  0  0
  160.1260  200.7890  150.2930 F   0  0  0  0  0  0  0  0  0  0  0  0
  161.7280  204.3210  146.4560 C   0  0  0  0  0  0  0  0  0  0  0  0
  160.9510  202.9910  149.8450 C   0  0  0  0  0  3  0  0  0  0  0  0
  160.9750  202.3920  147.1400 C   0  0  0  0  0  0  0  0  0  0  0  0
  161.3760  203.6230  147.5800 C   0  0  0  0  0  0  0  0  0  0  0  0
  160.5440  201.4050  148.0230 C   0  0  0  0  0  3  0  0  0  0  0  0
  1 13  1  0  0  0  0
  2  1  1  6  0  0  0
  2  3  1  0  0  0  0
  3  5  1  1  0  0  0
  3 11  1  0  0  0  0
  4  7  1  0  0  0  0
  5  4  1  0  0  0  0
  6 12  1  0  0  0  0
  8  6  1  0  0  0  0
  8  2  1  0  0  0  0
  9  7  1  0  0  0  0
 11  9  1  1  0  0  0
 12 10  1  1  0  0  0
 12 11  1  0  0  0  0
 13 14  2  0  0  0  0
 13 15  1  0  0  0  0
 15 16  1  0  0  0  0
 17  1  1  0  0  0  0
 18 17  1  0  0  0  0
 19 18  1  0  0  0  0
 20 19  1  0  0  0  0
 21 27  1  0  0  0  0
 21 20  1  0  0  0  0
 22 28  1  0  0  0  0
 22 26  1  0  0  0  0
 23 28  2  0  0  0  0
 24 29  1  0  0  0  0
 25 24  1  0  0  0  0
 25 27  2  0  0  0  0
 27 30  1  0  0  0  0
 29 30  2  0  0  0  0
 29 31  1  0  0  0  0
 30 23  1  0  0  0  0
 31 22  2  0  0  0  0
M  END
>  <MODEL>
3

>  <REMARK>
 VINA RESULT:      -7.9      2.297      7.844
  Name = 
  9 active torsions:
  status: ('A' for Active; 'I' for Inactive)
    1  A    between atoms: C_2  and  N_12
    2  A    between atoms: C_2  and  C_13
    3  A    between atoms: C_4  and  N_12
    4  A    between atoms: C_9  and  N_23
    5  A    between atoms: N_12  and  C_25
    6  A    between atoms: C_15  and  C_20
    7  A    between atoms: C_15  and  N_23
    8  A    between atoms: C_20  and  C_27
    9  A    between atoms: C_25  and  C_27
                            x       y       z     vdW  Elec       q    Type
                         _______ _______ _______ _____ _____    ______ ____

>  <TORSDO>
F 9

$$$$
=
 OpenBabel11052422373D

 31 34  0  0  1  0  0  0  0  0999 V2000
  160.6960  210.2330  154.3360 N   0  0  0  0  0  0  0  0  0  0  0  0
  160.0250  211.5390  154.3700 C   0  0  2  0  0  3  0  0  0  0  0  0
  158.6120  211.4560  154.9750 C   0  0  1  0  0  3  0  0  0  0  0  0
  157.4670  211.7680  157.2580 C   0  0  0  0  0  2  0  0  0  0  0  0
  158.7080  211.2840  156.4970 C   0  0  0  0  0  2  0  0  0  0  0  0
  158.7640  212.2280  152.2790 C   0  0  0  0  0  2  0  0  0  0  0  0
  156.2160  211.6720  156.3950 C   0  0  0  0  0  2  0  0  0  0  0  0
  160.1030  212.2450  153.0080 C   0  0  0  0  0  2  0  0  0  0  0  0
  156.3300  212.5860  155.1710 C   0  0  0  0  0  2  0  0  0  0  0  0
  157.7380  214.3150  152.8510 O   0  0  0  0  0  1  0  0  0  0  0  0
  157.7540  212.6800  154.6010 C   0  0  2  0  0  3  0  0  0  0  0  0
  157.6790  212.9420  153.0900 C   0  0  2  0  0  3  0  0  0  0  0  0
  161.4830  209.7090  155.4320 C   0  0  0  0  0  0  0  0  0  0  0  0
  162.3240  210.4810  156.1140 C   0  0  0  0  0  2  0  0  0  0  0  0
  161.3700  208.2720  155.8380 C   0  0  0  0  0  2  0  0  0  0  0  0
  159.9270  207.9150  156.1420 C   0  0  0  0  0  1  0  0  0  0  0  0
  160.4770  209.4120  153.1470 C   0  0  0  0  0  2  0  0  0  0  0  0
  161.7450  209.3140  152.3130 C   0  0  0  0  0  2  0  0  0  0  0  0
  161.5040  208.4340  151.1040 C   0  0  0  0  0  2  0  0  0  0  0  0
  161.8790  207.0010  151.4250 C   0  0  0  0  0  2  0  0  0  0  0  0
  161.0390  206.0880  150.6640 N   0  0  0  0  0  2  0  0  0  0  0  0
  161.1540  201.3100  148.5560 C   0  0  0  0  0  0  0  0  0  0  0  0
  161.1670  203.7600  148.5540 C   0  0  0  0  0  3  0  0  0  0  0  0
  160.9520  202.7240  151.9160 O   0  0  0  0  0  0  0  0  0  0  0  0
  160.9440  204.0320  152.1310 C   0  0  0  0  0  3  0  0  0  0  0  0
  161.1880  200.1440  147.8670 F   0  0  0  0  0  0  0  0  0  0  0  0
  161.0260  204.6770  150.9000 C   0  0  0  0  0  0  0  0  0  0  0  0
  161.2040  202.5380  147.8580 C   0  0  0  0  0  3  0  0  0  0  0  0
  161.0320  202.5140  150.6220 C   0  0  0  0  0  0  0  0  0  0  0  0
  161.0820  203.6990  149.9420 C   0  0  0  0  0  0  0  0  0  0  0  0
  161.0660  201.2890  149.9600 C   0  0  0  0  0  3  0  0  0  0  0  0
  1 13  1  0  0  0  0
  2  1  1  6  0  0  0
  2  3  1  0  0  0  0
  3  5  1  1  0  0  0
  5  4  1  0  0  0  0
  6  8  1  0  0  0  0
  6 12  1  0  0  0  0
  7  4  1  0  0  0  0
  8  2  1  0  0  0  0
  9  7  1  0  0  0  0
 11  3  1  0  0  0  0
 11  9  1  6  0  0  0
 12 10  1  1  0  0  0
 12 11  1  0  0  0  0
 13 15  1  0  0  0  0
 13 14  2  0  0  0  0
 15 16  1  0  0  0  0
 17  1  1  0  0  0  0
 18 17  1  0  0  0  0
 19 20  1  0  0  0  0
 19 18  1  0  0  0  0
 21 27  1  0  0  0  0
 21 20  1  0  0  0  0
 22 31  1  0  0  0  0
 23 30  2  0  0  0  0
 24 25  1  0  0  0  0
 26 22  1  0  0  0  0
 27 25  2  0  0  0  0
 28 23  1  0  0  0  0
 28 22  2  0  0  0  0
 29 24  1  0  0  0  0
 30 29  1  0  0  0  0
 30 27  1  0  0  0  0
 31 29  2  0  0  0  0
M  END
>  <MODEL>
4

>  <REMARK>
 VINA RESULT:      -7.8      3.109      9.301
  Name = 
  9 active torsions:
  status: ('A' for Active; 'I' for Inactive)
    1  A    between atoms: C_2  and  N_12
    2  A    between atoms: C_2  and  C_13
    3  A    between atoms: C_4  and  N_12
    4  A    between atoms: C_9  and  N_23
    5  A    between atoms: N_12  and  C_25
    6  A    between atoms: C_15  and  C_20
    7  A    between atoms: C_15  and  N_23
    8  A    between atoms: C_20  and  C_27
    9  A    between atoms: C_25  and  C_27
                            x       y       z     vdW  Elec       q    Type
                         _______ _______ _______ _____ _____    ______ ____

>  <TORSDO>
F 9

$$$$
=
 OpenBabel11052422373D

 31 34  0  0  1  0  0  0  0  0999 V2000
  161.5390  205.7820  149.5930 N   0  0  0  0  0  0  0  0  0  0  0  0
  160.8810  205.0940  148.4750 C   0  0  2  0  0  3  0  0  0  0  0  0
  161.2160  203.5910  148.4360 C   0  0  1  0  0  3  0  0  0  0  0  0
  160.2220  201.3690  149.2710 C   0  0  0  0  0  2  0  0  0  0  0  0
  160.4530  202.8600  149.5490 C   0  0  0  0  0  2  0  0  0  0  0  0
  162.0970  205.1150  146.2480 C   0  0  0  0  0  2  0  0  0  0  0  0
  161.3100  200.8000  148.3690 C   0  0  0  0  0  2  0  0  0  0  0  0
  161.1010  205.8380  147.1500 C   0  0  0  0  0  2  0  0  0  0  0  0
  161.2900  201.4820  146.9970 C   0  0  0  0  0  2  0  0  0  0  0  0
  160.7390  203.7710  144.8050 O   0  0  0  0  0  1  0  0  0  0  0  0
  160.9240  202.9730  147.0550 C   0  0  2  0  0  3  0  0  0  0  0  0
  161.6080  203.7090  145.8940 C   0  0  2  0  0  3  0  0  0  0  0  0
  161.6320  205.2330  150.9300 C   0  0  0  0  0  0  0  0  0  0  0  0
  162.7850  205.2090  151.5920 C   0  0  0  0  0  2  0  0  0  0  0  0
  160.4230  204.6750  151.6140 C   0  0  0  0  0  2  0  0  0  0  0  0
  160.8270  203.8440  152.8180 C   0  0  0  0  0  1  0  0  0  0  0  0
  162.1870  207.0570  149.2910 C   0  0  0  0  0  2  0  0  0  0  0  0
  161.3840  208.2210  149.8490 C   0  0  0  0  0  2  0  0  0  0  0  0
  161.9550  209.5320  149.3490 C   0  0  0  0  0  2  0  0  0  0  0  0
  162.0540  210.5220  150.4930 C   0  0  0  0  0  2  0  0  0  0  0  0
  162.2710  209.8110  151.7450 N   0  0  0  0  0  2  0  0  0  0  0  0
  159.8950  207.6020  155.8380 C   0  0  0  0  0  0  0  0  0  0  0  0
  161.2820  207.6660  153.8200 C   0  0  0  0  0  3  0  0  0  0  0  0
  160.1830  210.9580  154.4290 O   0  0  0  0  0  0  0  0  0  0  0  0
  160.8890  211.2060  153.3370 C   0  0  0  0  0  3  0  0  0  0  0  0
  159.3370  206.8900  156.8470 F   0  0  0  0  0  0  0  0  0  0  0  0
  161.4440  210.0070  152.8950 C   0  0  0  0  0  0  0  0  0  0  0  0
  160.6960  206.9460  154.8770 C   0  0  0  0  0  3  0  0  0  0  0  0
  160.2620  209.6760  154.6970 C   0  0  0  0  0  0  0  0  0  0  0  0
  161.0370  209.0360  153.7710 C   0  0  0  0  0  0  0  0  0  0  0  0
  159.6680  208.9890  155.7540 C   0  0  0  0  0  3  0  0  0  0  0  0
  1 13  1  0  0  0  0
  2  1  1  1  0  0  0
  3  2  1  0  0  0  0
  3  5  1  1  0  0  0
  4  5  1  0  0  0  0
  6  8  1  0  0  0  0
  7  4  1  0  0  0  0
  8  2  1  0  0  0  0
  9  7  1  0  0  0  0
 11  9  1  1  0  0  0
 11  3  1  0  0  0  0
 12 10  1  6  0  0  0
 12  6  1  0  0  0  0
 12 11  1  0  0  0  0
 13 14  2  0  0  0  0
 13 15  1  0  0  0  0
 15 16  1  0  0  0  0
 17  1  1  0  0  0  0
 17 18  1  0  0  0  0
 19 18  1  0  0  0  0
 19 20  1  0  0  0  0
 20 21  1  0  0  0  0
 21 27  1  0  0  0  0
 22 26  1  0  0  0  0
 23 28  1  0  0  0  0
 24 29  1  0  0  0  0
 25 24  1  0  0  0  0
 27 25  2  0  0  0  0
 27 30  1  0  0  0  0
 28 22  2  0  0  0  0
 29 31  2  0  0  0  0
 30 23  2  0  0  0  0
 30 29  1  0  0  0  0
 31 22  1  0  0  0  0
M  END
>  <MODEL>
5

>  <REMARK>
 VINA RESULT:      -7.8      1.627      3.244
  Name = 
  9 active torsions:
  status: ('A' for Active; 'I' for Inactive)
    1  A    between atoms: C_2  and  N_12
    2  A    between atoms: C_2  and  C_13
    3  A    between atoms: C_4  and  N_12
    4  A    between atoms: C_9  and  N_23
    5  A    between atoms: N_12  and  C_25
    6  A    between atoms: C_15  and  C_20
    7  A    between atoms: C_15  and  N_23
    8  A    between atoms: C_20  and  C_27
    9  A    between atoms: C_25  and  C_27
                            x       y       z     vdW  Elec       q    Type
                         _______ _______ _______ _____ _____    ______ ____

>  <TORSDO>
F 9

$$$$
=
 OpenBabel11052422373D

 31 34  0  0  1  0  0  0  0  0999 V2000
  161.4470  205.3880  147.3220 N   0  0  0  0  0  0  0  0  0  0  0  0
  160.7120  204.2830  147.9510 C   0  0  2  0  0  3  0  0  0  0  0  0
  161.1880  204.0070  149.3890 C   0  0  1  0  0  3  0  0  0  0  0  0
  160.5500  204.6680  151.7930 C   0  0  0  0  0  2  0  0  0  0  0  0
  160.6650  205.1040  150.3270 C   0  0  0  0  0  2  0  0  0  0  0  0
  161.5960  201.9410  147.5320 C   0  0  0  0  0  2  0  0  0  0  0  0
  161.5530  203.5700  152.1240 C   0  0  0  0  0  2  0  0  0  0  0  0
  160.6680  203.0470  147.0390 C   0  0  0  0  0  2  0  0  0  0  0  0
  161.2720  202.3110  151.2970 C   0  0  0  0  0  2  0  0  0  0  0  0
  160.1920  200.5200  148.8520 O   0  0  0  0  0  1  0  0  0  0  0  0
  160.7690  202.6060  149.8750 C   0  0  2  0  0  3  0  0  0  0  0  0
  161.2060  201.4730  148.9360 C   0  0  2  0  0  3  0  0  0  0  0  0
  162.3480  205.2150  146.2020 C   0  0  0  0  0  0  0  0  0  0  0  0
  163.5370  204.6380  146.3500 C   0  0  0  0  0  2  0  0  0  0  0  0
  161.9650  205.6800  144.8320 C   0  0  0  0  0  2  0  0  0  0  0  0
  160.7420  204.9290  144.3360 C   0  0  0  0  0  1  0  0  0  0  0  0
  161.1770  206.7310  147.8300 C   0  0  0  0  0  2  0  0  0  0  0  0
  162.4690  207.4410  148.2030 C   0  0  0  0  0  2  0  0  0  0  0  0
  162.1590  208.7520  148.8960 C   0  0  0  0  0  2  0  0  0  0  0  0
  161.5190  208.4850  150.2440 C   0  0  0  0  0  2  0  0  0  0  0  0
  162.1120  209.3510  151.2530 N   0  0  0  0  0  2  0  0  0  0  0  0
  160.1130  207.6820  155.7810 C   0  0  0  0  0  0  0  0  0  0  0  0
  161.2620  207.4740  153.6280 C   0  0  0  0  0  3  0  0  0  0  0  0
  160.4020  210.8680  154.0200 O   0  0  0  0  0  0  0  0  0  0  0  0
  160.9900  210.9690  152.8380 C   0  0  0  0  0  3  0  0  0  0  0  0
  159.6390  207.1030  156.9100 F   0  0  0  0  0  0  0  0  0  0  0  0
  161.4310  209.7030  152.4610 C   0  0  0  0  0  0  0  0  0  0  0  0
  160.7660  206.8920  154.8090 C   0  0  0  0  0  3  0  0  0  0  0  0
  160.4480  209.6140  154.4050 C   0  0  0  0  0  0  0  0  0  0  0  0
  161.0810  208.8450  153.4680 C   0  0  0  0  0  0  0  0  0  0  0  0
  159.9460  209.0660  155.5830 C   0  0  0  0  0  3  0  0  0  0  0  0
  1 17  1  0  0  0  0
  2  1  1  6  0  0  0
  2  3  1  0  0  0  0
  3 11  1  0  0  0  0
  3  5  1  1  0  0  0
  4  7  1  0  0  0  0
  5  4  1  0  0  0  0
  6 12  1  0  0  0  0
  8  6  1  0  0  0  0
  8  2  1  0  0  0  0
  9  7  1  0  0  0  0
 11  9  1  1  0  0  0
 12 10  1  6  0  0  0
 12 11  1  0  0  0  0
 13 14  2  0  0  0  0
 13  1  1  0  0  0  0
 15 13  1  0  0  0  0
 16 15  1  0  0  0  0
 17 18  1  0  0  0  0
 18 19  1  0  0  0  0
 19 20  1  0  0  0  0
 20 21  1  0  0  0  0
 21 27  1  0  0  0  0
 22 26  1  0  0  0  0
 23 28  1  0  0  0  0
 24 29  1  0  0  0  0
 25 24  1  0  0  0  0
 27 25  2  0  0  0  0
 27 30  1  0  0  0  0
 28 22  2  0  0  0  0
 29 31  2  0  0  0  0
 30 23  2  0  0  0  0
 30 29  1  0  0  0  0
 31 22  1  0  0  0  0
M  END
>  <MODEL>
6

>  <REMARK>
 VINA RESULT:      -7.8      1.149      2.246
  Name = 
  9 active torsions:
  status: ('A' for Active; 'I' for Inactive)
    1  A    between atoms: C_2  and  N_12
    2  A    between atoms: C_2  and  C_13
    3  A    between atoms: C_4  and  N_12
    4  A    between atoms: C_9  and  N_23
    5  A    between atoms: N_12  and  C_25
    6  A    between atoms: C_15  and  C_20
    7  A    between atoms: C_15  and  N_23
    8  A    between atoms: C_20  and  C_27
    9  A    between atoms: C_25  and  C_27
                            x       y       z     vdW  Elec       q    Type
                         _______ _______ _______ _____ _____    ______ ____

>  <TORSDO>
F 9

$$$$
=
 OpenBabel11052422373D

 31 34  0  0  1  0  0  0  0  0999 V2000
  160.9690  208.6920  152.8860 N   0  0  0  0  0  0  0  0  0  0  0  0
  160.9680  210.1360  153.1570 C   0  0  2  0  0  3  0  0  0  0  0  0
  161.0700  210.4500  154.6610 C   0  0  1  0  0  3  0  0  0  0  0  0
  162.8860  210.9920  156.4010 C   0  0  0  0  0  2  0  0  0  0  0  0
  162.5030  210.1940  155.1480 C   0  0  0  0  0  2  0  0  0  0  0  0
  158.7000  211.2510  153.3850 C   0  0  0  0  0  2  0  0  0  0  0  0
  161.6630  211.3060  157.2520 C   0  0  0  0  0  2  0  0  0  0  0  0
  159.8150  210.8420  152.4280 C   0  0  0  0  0  2  0  0  0  0  0  0
  160.6800  212.1950  156.4840 C   0  0  0  0  0  2  0  0  0  0  0  0
  159.1990  213.5230  153.9560 O   0  0  0  0  0  1  0  0  0  0  0  0
  160.6160  211.8870  154.9800 C   0  0  2  0  0  3  0  0  0  0  0  0
  159.2120  212.2200  154.4540 C   0  0  2  0  0  3  0  0  0  0  0  0
  160.9060  207.6830  153.9240 C   0  0  0  0  0  0  0  0  0  0  0  0
  159.9950  207.7380  154.8910 C   0  0  0  0  0  2  0  0  0  0  0  0
  161.8680  206.5370  153.9350 C   0  0  0  0  0  2  0  0  0  0  0  0
  161.2800  205.3390  153.2110 C   0  0  0  0  0  1  0  0  0  0  0  0
  160.9610  208.2850  151.4830 C   0  0  0  0  0  2  0  0  0  0  0  0
  162.2980  208.5830  150.8230 C   0  0  0  0  0  2  0  0  0  0  0  0
  162.7150  207.4190  149.9470 C   0  0  0  0  0  2  0  0  0  0  0  0
  162.4770  207.7590  148.4890 C   0  0  0  0  0  2  0  0  0  0  0  0
  161.3140  207.0350  147.9960 N   0  0  0  0  0  2  0  0  0  0  0  0
  160.8790  202.0450  149.4790 C   0  0  0  0  0  0  0  0  0  0  0  0
  160.8530  204.4770  149.7670 C   0  0  0  0  0  3  0  0  0  0  0  0
  161.6250  203.8410  146.3880 O   0  0  0  0  0  0  0  0  0  0  0  0
  161.6600  205.1640  146.3320 C   0  0  0  0  0  3  0  0  0  0  0  0
  160.7390  200.8070  150.0100 F   0  0  0  0  0  0  0  0  0  0  0  0
  161.3740  205.6610  147.6010 C   0  0  0  0  0  0  0  0  0  0  0  0
  160.7090  203.1830  150.2990 C   0  0  0  0  0  3  0  0  0  0  0  0
  161.3330  203.4810  147.6160 C   0  0  0  0  0  0  0  0  0  0  0  0
  161.1660  204.5790  148.4140 C   0  0  0  0  0  0  0  0  0  0  0  0
  161.1970  202.1880  148.1150 C   0  0  0  0  0  3  0  0  0  0  0  0
  1 13  1  0  0  0  0
  2  1  1  1  0  0  0
  2  3  1  0  0  0  0
  3 11  1  0  0  0  0
  3  5  1  6  0  0  0
  4  7  1  0  0  0  0
  5  4  1  0  0  0  0
  6 12  1  0  0  0  0
  8  2  1  0  0  0  0
  8  6  1  0  0  0  0
  9  7  1  0  0  0  0
 11  9  1  1  0  0  0
 12 10  1  6  0  0  0
 12 11  1  0  0  0  0
 13 15  1  0  0  0  0
 13 14  2  0  0  0  0
 16 15  1  0  0  0  0
 17  1  1  0  0  0  0
 18 17  1  0  0  0  0
 19 18  1  0  0  0  0
 20 19  1  0  0  0  0
 21 20  1  0  0  0  0
 22 26  1  0  0  0  0
 22 28  1  0  0  0  0
 23 28  2  0  0  0  0
 24 29  1  0  0  0  0
 25 24  1  0  0  0  0
 25 27  2  0  0  0  0
 27 21  1  0  0  0  0
 27 30  1  0  0  0  0
 29 31  1  0  0  0  0
 29 30  2  0  0  0  0
 30 23  1  0  0  0  0
 31 22  2  0  0  0  0
M  END
>  <MODEL>
7

>  <REMARK>
 VINA RESULT:      -7.7      2.580      8.509
  Name = 
  9 active torsions:
  status: ('A' for Active; 'I' for Inactive)
    1  A    between atoms: C_2  and  N_12
    2  A    between atoms: C_2  and  C_13
    3  A    between atoms: C_4  and  N_12
    4  A    between atoms: C_9  and  N_23
    5  A    between atoms: N_12  and  C_25
    6  A    between atoms: C_15  and  C_20
    7  A    between atoms: C_15  and  N_23
    8  A    between atoms: C_20  and  C_27
    9  A    between atoms: C_25  and  C_27
                            x       y       z     vdW  Elec       q    Type
                         _______ _______ _______ _____ _____    ______ ____

>  <TORSDO>
F 9

$$$$
=
 OpenBabel11052422373D

 31 34  0  0  1  0  0  0  0  0999 V2000
  161.3700  210.5010  152.1400 N   0  0  0  0  0  0  0  0  0  0  0  0
  161.8570  209.8960  153.3870 C   0  0  2  0  0  3  0  0  0  0  0  0
  161.0810  208.6200  153.7600 C   0  0  1  0  0  3  0  0  0  0  0  0
  161.2870  206.0740  153.4470 C   0  0  0  0  0  2  0  0  0  0  0  0
  161.5070  207.4660  152.8420 C   0  0  0  0  0  2  0  0  0  0  0  0
  160.8580  210.7740  155.5480 C   0  0  0  0  0  2  0  0  0  0  0  0
  160.1400  206.0820  154.4490 C   0  0  0  0  0  2  0  0  0  0  0  0
  161.9650  210.9370  154.5110 C   0  0  0  0  0  2  0  0  0  0  0  0
  160.4590  206.9990  155.6340 C   0  0  0  0  0  2  0  0  0  0  0  0
  161.8310  209.4120  157.2610 O   0  0  0  0  0  1  0  0  0  0  0  0
  161.2610  208.2510  155.2450 C   0  0  2  0  0  3  0  0  0  0  0  0
  160.9140  209.3950  156.2100 C   0  0  2  0  0  3  0  0  0  0  0  0
  160.2030  211.3560  152.0680 C   0  0  0  0  0  0  0  0  0  0  0  0
  160.2340  212.5200  151.4250 C   0  0  0  0  0  2  0  0  0  0  0  0
  158.9160  210.9520  152.7160 C   0  0  0  0  0  2  0  0  0  0  0  0
  158.1440  212.1740  153.1790 C   0  0  0  0  0  1  0  0  0  0  0  0
  162.1670  210.2670  150.9390 C   0  0  0  0  0  2  0  0  0  0  0  0
  161.8000  208.9410  150.2920 C   0  0  0  0  0  2  0  0  0  0  0  0
  161.9140  209.0490  148.7850 C   0  0  0  0  0  2  0  0  0  0  0  0
  162.5240  207.7810  148.2210 C   0  0  0  0  0  2  0  0  0  0  0  0
  161.5370  207.0710  147.4210 N   0  0  0  0  0  2  0  0  0  0  0  0
  160.7230  202.6540  150.0880 C   0  0  0  0  0  0  0  0  0  0  0  0
  160.9150  205.0750  149.7700 C   0  0  0  0  0  3  0  0  0  0  0  0
  161.5200  203.5670  146.6440 O   0  0  0  0  0  0  0  0  0  0  0  0
  161.6680  204.8270  146.2640 C   0  0  0  0  0  3  0  0  0  0  0  0
  160.4940  201.6010  150.9090 F   0  0  0  0  0  0  0  0  0  0  0  0
  161.4650  205.6430  147.3750 C   0  0  0  0  0  0  0  0  0  0  0  0
  160.6770  203.9690  150.6050 C   0  0  0  0  0  3  0  0  0  0  0  0
  161.2380  203.5450  147.9260 C   0  0  0  0  0  0  0  0  0  0  0  0
  161.1920  204.8150  148.4310 C   0  0  0  0  0  0  0  0  0  0  0  0
  161.0080  202.4310  148.7280 C   0  0  0  0  0  3  0  0  0  0  0  0
  2  1  1  6  0  0  0
  2  3  1  0  0  0  0
  2  8  1  0  0  0  0
  3  5  1  6  0  0  0
  3 11  1  0  0  0  0
  4  7  1  0  0  0  0
  5  4  1  0  0  0  0
  6 12  1  0  0  0  0
  7  9  1  0  0  0  0
  8  6  1  0  0  0  0
 11  9  1  1  0  0  0
 11 12  1  0  0  0  0
 12 10  1  1  0  0  0
 13  1  1  0  0  0  0
 13 15  1  0  0  0  0
 14 13  2  0  0  0  0
 15 16  1  0  0  0  0
 17  1  1  0  0  0  0
 18 17  1  0  0  0  0
 19 18  1  0  0  0  0
 20 19  1  0  0  0  0
 21 20  1  0  0  0  0
 22 28  1  0  0  0  0
 22 26  1  0  0  0  0
 23 28  2  0  0  0  0
 24 29  1  0  0  0  0
 25 24  1  0  0  0  0
 25 27  2  0  0  0  0
 27 21  1  0  0  0  0
 27 30  1  0  0  0  0
 29 30  2  0  0  0  0
 29 31  1  0  0  0  0
 30 23  1  0  0  0  0
 31 22  2  0  0  0  0
M  END
>  <MODEL>
8

>  <REMARK>
 VINA RESULT:      -7.7      2.252      7.446
  Name = 
  9 active torsions:
  status: ('A' for Active; 'I' for Inactive)
    1  A    between atoms: C_2  and  N_12
    2  A    between atoms: C_2  and  C_13
    3  A    between atoms: C_4  and  N_12
    4  A    between atoms: C_9  and  N_23
    5  A    between atoms: N_12  and  C_25
    6  A    between atoms: C_15  and  C_20
    7  A    between atoms: C_15  and  N_23
    8  A    between atoms: C_20  and  C_27
    9  A    between atoms: C_25  and  C_27
                            x       y       z     vdW  Elec       q    Type
                         _______ _______ _______ _____ _____    ______ ____

>  <TORSDO>
F 9

$$$$
=
 OpenBabel11052422373D

 31 34  0  0  1  0  0  0  0  0999 V2000
  161.0740  209.6580  151.9490 N   0  0  0  0  0  0  0  0  0  0  0  0
  160.8500  210.8690  152.7500 C   0  0  2  0  0  3  0  0  0  0  0  0
  160.9350  210.5940  154.2630 C   0  0  1  0  0  3  0  0  0  0  0  0
  162.6820  210.7020  156.1490 C   0  0  0  0  0  2  0  0  0  0  0  0
  162.4020  210.3970  154.6730 C   0  0  0  0  0  2  0  0  0  0  0  0
  158.4410  211.4460  153.2960 C   0  0  0  0  0  2  0  0  0  0  0  0
  161.4440  210.4720  157.0060 C   0  0  0  0  0  2  0  0  0  0  0  0
  159.5840  211.6130  152.3010 C   0  0  0  0  0  2  0  0  0  0  0  0
  160.3160  211.4230  156.5970 C   0  0  0  0  0  2  0  0  0  0  0  0
  158.5860  213.3730  154.7110 O   0  0  0  0  0  1  0  0  0  0  0  0
  160.2670  211.7100  155.0890 C   0  0  2  0  0  3  0  0  0  0  0  0
  158.8170  211.9980  154.6730 C   0  0  2  0  0  3  0  0  0  0  0  0
  161.8990  209.6260  150.7600 C   0  0  0  0  0  0  0  0  0  0  0  0
  162.3140  210.7440  150.1720 C   0  0  0  0  0  2  0  0  0  0  0  0
  162.3180  208.3230  150.1550 C   0  0  0  0  0  2  0  0  0  0  0  0
  161.9390  208.2690  148.6860 C   0  0  0  0  0  1  0  0  0  0  0  0
  160.4760  208.4210  152.4460 C   0  0  0  0  0  2  0  0  0  0  0  0
  161.5470  207.4440  152.9050 C   0  0  0  0  0  2  0  0  0  0  0  0
  160.9040  206.1760  153.4280 C   0  0  0  0  0  2  0  0  0  0  0  0
  161.5470  204.9660  152.7780 C   0  0  0  0  0  2  0  0  0  0  0  0
  161.3470  205.0140  151.3370 N   0  0  0  0  0  2  0  0  0  0  0  0
  161.2070  202.9170  146.5560 C   0  0  0  0  0  0  0  0  0  0  0  0
  161.5340  204.6880  148.2160 C   0  0  0  0  0  3  0  0  0  0  0  0
  160.6150  201.7750  149.9730 O   0  0  0  0  0  0  0  0  0  0  0  0
  160.7390  202.5820  151.0170 C   0  0  0  0  0  3  0  0  0  0  0  0
  161.2080  202.5180  145.2610 F   0  0  0  0  0  0  0  0  0  0  0  0
  161.1120  203.8410  150.5530 C   0  0  0  0  0  0  0  0  0  0  0  0
  161.5330  204.2530  146.8770 C   0  0  0  0  0  3  0  0  0  0  0  0
  160.8890  202.4560  148.8840 C   0  0  0  0  0  0  0  0  0  0  0  0
  161.2060  203.7500  149.1900 C   0  0  0  0  0  0  0  0  0  0  0  0
  160.8780  201.9970  147.5690 C   0  0  0  0  0  3  0  0  0  0  0  0
  1 17  1  0  0  0  0
  2  1  1  6  0  0  0
  2  3  1  0  0  0  0
  3  5  1  1  0  0  0
  3 11  1  0  0  0  0
  4  7  1  0  0  0  0
  5  4  1  0  0  0  0
  6 12  1  0  0  0  0
  8  2  1  0  0  0  0
  8  6  1  0  0  0  0
  9  7  1  0  0  0  0
 11  9  1  1  0  0  0
 12 10  1  6  0  0  0
 12 11  1  0  0  0  0
 13  1  1  0  0  0  0
 14 13  2  0  0  0  0
 15 13  1  0  0  0  0
 16 15  1  0  0  0  0
 17 18  1  0  0  0  0
 18 19  1  0  0  0  0
 20 19  1  0  0  0  0
 21 20  1  0  0  0  0
 22 28  2  0  0  0  0
 22 31  1  0  0  0  0
 23 30  2  0  0  0  0
 24 25  1  0  0  0  0
 26 22  1  0  0  0  0
 27 25  2  0  0  0  0
 27 21  1  0  0  0  0
 28 23  1  0  0  0  0
 29 30  1  0  0  0  0
 29 24  1  0  0  0  0
 30 27  1  0  0  0  0
 31 29  2  0  0  0  0
M  END
>  <MODEL>
9

>  <REMARK>
 VINA RESULT:      -7.7      2.862      8.517
  Name = 
  9 active torsions:
  status: ('A' for Active; 'I' for Inactive)
    1  A    between atoms: C_2  and  N_12
    2  A    between atoms: C_2  and  C_13
    3  A    between atoms: C_4  and  N_12
    4  A    between atoms: C_9  and  N_23
    5  A    between atoms: N_12  and  C_25
    6  A    between atoms: C_15  and  C_20
    7  A    between atoms: C_15  and  N_23
    8  A    between atoms: C_20  and  C_27
    9  A    between atoms: C_25  and  C_27
                            x       y       z     vdW  Elec       q    Type
                         _______ _______ _______ _____ _____    ______ ____

>  <TORSDO>
F 9

$$$$
