=
 OpenBabel11062408123D

 34 37  0  0  1  0  0  0  0  0999 V2000
  161.4940  206.1640  150.0820 C   0  0  2  0  0  3  0  0  0  0  0  0
  160.3920  213.0640  155.1320 O   0  0  0  0  0  0  0  0  0  0  0  0
  162.1550  208.2970  151.4160 C   0  0  1  0  0  3  0  0  0  0  0  0
  160.1900  209.9350  151.6800 C   0  0  1  0  0  3  0  0  0  0  0  0
  161.8510  209.5640  153.5350 C   0  0  0  0  0  3  0  0  0  0  0  0
  158.1720  212.6080  154.6540 N   0  0  0  0  0  2  0  0  0  0  0  0
  162.0120  206.7620  151.4020 C   0  0  2  0  0  3  0  0  0  0  0  0
  161.3170  210.5820  154.2090 C   0  0  0  0  0  3  0  0  0  0  0  0
  159.2830  210.6000  152.7120 C   0  0  0  0  0  2  0  0  0  0  0  0
  162.1920  208.9270  150.0070 C   0  0  2  0  0  3  0  0  0  0  0  0
  160.4610  207.0880  149.4540 C   0  0  0  0  0  2  0  0  0  0  0  0
  160.9220  210.9900  150.8360 C   0  0  0  0  0  2  0  0  0  0  0  0
  162.1880  210.4600  150.1300 C   0  0  2  0  0  3  0  0  0  0  0  0
  160.0540  211.1570  153.8310 N   0  0  0  0  0  0  0  0  0  0  0  0
  161.1370  208.9370  152.3730 C   0  0  2  0  0  3  0  0  0  0  0  0
  161.0880  208.4240  149.0490 C   0  0  0  0  0  2  0  0  0  0  0  0
  159.5690  212.3000  154.5580 C   0  0  0  0  0  0  0  0  0  0  0  0
  161.0260  212.3560  147.1500 C   0  0  0  0  0  0  0  0  0  0  0  0
  162.0320  213.3220  147.0010 O   0  0  0  0  0  0  0  0  0  0  0  0
  162.4460  211.1740  148.7960 C   0  0  1  0  0  3  0  0  0  0  0  0
  163.2980  213.2070  147.6550 C   0  0  0  0  0  2  0  0  0  0  0  0
  161.1700  211.3500  148.0150 C   0  0  0  0  0  3  0  0  0  0  0  0
  163.1290  212.5280  149.0100 C   0  0  0  0  0  2  0  0  0  0  0  0
  159.7650  212.4830  146.3740 C   0  0  0  0  0  1  0  0  0  0  0  0
  160.9070  204.8090  150.3110 C   0  0  0  0  0  0  0  0  0  0  0  0
  161.0680  203.8210  149.3500 O   0  0  0  0  0  0  0  0  0  0  0  0
  160.2700  204.5540  151.3680 O   0  0  0  0  0  1  0  0  0  0  0  0
  163.1470  206.0980  151.9150 O   0  0  0  0  0  0  0  0  0  0  0  0
  162.8810  205.7070  153.2380 C   0  0  0  0  0  1  0  0  0  0  0  0
  157.0920  211.6810  154.3400 C   0  0  1  0  0  3  0  0  0  0  0  0
  156.8010  210.7770  155.5360 C   0  0  0  0  0  2  0  0  0  0  0  0
  155.4970  210.2790  155.4750 O   0  0  0  0  0  1  0  0  0  0  0  0
  155.8550  212.4610  153.9260 C   0  0  0  0  0  2  0  0  0  0  0  0
  156.3290  214.0700  153.2280 S   0  0  0  0  0  1  0  0  0  0  0  0
  1 25  1  1  0  0  0
  1  7  1  0  0  0  0
  3 15  1  0  0  0  0
  4 15  1  0  0  0  0
  4  9  1  0  0  0  0
  5  8  2  0  0  0  0
  7  3  1  0  0  0  0
  7 28  1  0  0  0  0
  9 14  1  0  0  0  0
 10 13  1  0  0  0  0
 10  3  1  0  0  0  0
 11  1  1  0  0  0  0
 12  4  1  0  0  0  0
 13 12  1  0  0  0  0
 14  8  1  0  0  0  0
 14 17  1  0  0  0  0
 15  5  1  0  0  0  0
 16 11  1  0  0  0  0
 16 10  1  0  0  0  0
 17  6  1  0  0  0  0
 17  2  2  0  0  0  0
 18 22  2  0  0  0  0
 19 18  1  0  0  0  0
 19 21  1  0  0  0  0
 20 23  1  0  0  0  0
 20 13  1  0  0  0  0
 21 23  1  0  0  0  0
 22 20  1  0  0  0  0
 24 18  1  0  0  0  0
 25 27  1  0  0  0  0
 26 25  2  0  0  0  0
 28 29  1  0  0  0  0
 30  6  1  0  0  0  0
 30 31  1  0  0  0  0
 32 31  1  0  0  0  0
 33 30  1  0  0  0  0
 34 33  1  0  0  0  0
M  END
>  <MODEL>
1

>  <REMARK>
 VINA RESULT:      -2.0      0.000      0.000
  Name = 
  6 active torsions:
  status: ('A' for Active; 'I' for Inactive)
    1  A    between atoms: C_1  and  C_6
    2  A    between atoms: O_2  and  C_15
    3  A    between atoms: C_11  and  CA_20
    4  A    between atoms: C_12  and  C_28
    5  A    between atoms: N_13  and  CA_20
    6  A    between atoms: CB_14  and  CA_20
                            x       y       z     vdW  Elec       q    Type
                         _______ _______ _______ _____ _____    ______ ____

>  <TORSDO>
F 6

$$$$
=
 OpenBabel11062408123D

 34 37  0  0  1  0  0  0  0  0999 V2000
  160.4380  210.0160  155.9160 C   0  0  2  0  0  3  0  0  0  0  0  0
  163.4160  211.0290  147.8900 O   0  0  0  0  0  0  0  0  0  0  0  0
  161.9870  209.6370  153.8600 C   0  0  1  0  0  3  0  0  0  0  0  0
  160.7920  210.1130  151.6340 C   0  0  1  0  0  3  0  0  0  0  0  0
  163.2080  210.7260  151.9880 C   0  0  0  0  0  3  0  0  0  0  0  0
  161.3650  212.0740  147.6470 N   0  0  0  0  0  2  0  0  0  0  0  0
  161.7260  210.4070  155.1700 C   0  0  2  0  0  3  0  0  0  0  0  0
  163.3170  211.0220  150.6920 C   0  0  0  0  0  3  0  0  0  0  0  0
  160.8070  211.0230  150.4080 C   0  0  0  0  0  2  0  0  0  0  0  0
  161.1830  208.3230  153.7470 C   0  0  2  0  0  3  0  0  0  0  0  0
  159.3320  209.6910  154.9230 C   0  0  0  0  0  2  0  0  0  0  0  0
  160.9200  208.6390  151.2190 C   0  0  0  0  0  2  0  0  0  0  0  0
  161.4000  207.7090  152.3530 C   0  0  2  0  0  3  0  0  0  0  0  0
  162.1590  211.1570  149.8500 N   0  0  0  0  0  0  0  0  0  0  0  0
  161.8670  210.5640  152.6410 C   0  0  2  0  0  3  0  0  0  0  0  0
  159.6830  208.4560  154.0900 C   0  0  0  0  0  2  0  0  0  0  0  0
  162.3500  211.4070  148.4460 C   0  0  0  0  0  0  0  0  0  0  0  0
  160.9290  204.5210  150.4970 C   0  0  0  0  0  0  0  0  0  0  0  0
  161.0570  203.5630  151.5140 O   0  0  0  0  0  0  0  0  0  0  0  0
  160.8220  206.2930  152.2210 C   0  0  1  0  0  3  0  0  0  0  0  0
  160.9770  203.9100  152.8990 C   0  0  0  0  0  2  0  0  0  0  0  0
  160.8540  205.8210  150.7910 C   0  0  0  0  0  3  0  0  0  0  0  0
  161.5600  205.3010  153.1250 C   0  0  0  0  0  2  0  0  0  0  0  0
  160.9300  204.0880  149.0760 C   0  0  0  0  0  1  0  0  0  0  0  0
  160.0060  211.1130  156.8340 C   0  0  0  0  0  0  0  0  0  0  0  0
  158.6870  211.1690  157.2610 O   0  0  0  0  0  1  0  0  0  0  0  0
  160.8280  211.9840  157.2270 O   0  0  0  0  0  0  0  0  0  0  0  0
  162.8630  210.4770  156.0040 O   0  0  0  0  0  0  0  0  0  0  0  0
  162.7810  209.4560  156.9640 C   0  0  0  0  0  1  0  0  0  0  0  0
  160.2490  212.8490  148.1770 C   0  0  1  0  0  3  0  0  0  0  0  0
  160.7270  214.2230  148.6410 C   0  0  0  0  0  2  0  0  0  0  0  0
  160.4390  214.4180  149.9930 O   0  0  0  0  0  1  0  0  0  0  0  0
  159.1650  212.9710  147.1190 C   0  0  0  0  0  2  0  0  0  0  0  0
  157.6280  213.5940  147.8610 S   0  0  0  0  0  1  0  0  0  0  0  0
  1 25  1  1  0  0  0
  2 17  2  0  0  0  0
  3  7  1  0  0  0  0
  4 15  1  0  0  0  0
  5 15  1  0  0  0  0
  6 30  1  0  0  0  0
  6 17  1  0  0  0  0
  7  1  1  0  0  0  0
  7 28  1  0  0  0  0
  8  5  2  0  0  0  0
  9  4  1  0  0  0  0
 10  3  1  0  0  0  0
 10 16  1  0  0  0  0
 11  1  1  0  0  0  0
 12  4  1  0  0  0  0
 12 13  1  0  0  0  0
 13 10  1  0  0  0  0
 14  9  1  0  0  0  0
 14  8  1  0  0  0  0
 15  3  1  0  0  0  0
 16 11  1  0  0  0  0
 17 14  1  0  0  0  0
 18 22  2  0  0  0  0
 18 19  1  0  0  0  0
 19 21  1  0  0  0  0
 20 13  1  0  0  0  0
 20 23  1  0  0  0  0
 21 23  1  0  0  0  0
 22 20  1  0  0  0  0
 24 18  1  0  0  0  0
 25 27  2  0  0  0  0
 25 26  1  0  0  0  0
 28 29  1  0  0  0  0
 30 31  1  0  0  0  0
 31 32  1  0  0  0  0
 33 34  1  0  0  0  0
 33 30  1  0  0  0  0
M  END
>  <MODEL>
2

>  <REMARK>
 VINA RESULT:      -0.8      2.551      6.836
  Name = 
  6 active torsions:
  status: ('A' for Active; 'I' for Inactive)
    1  A    between atoms: C_1  and  C_6
    2  A    between atoms: O_2  and  C_15
    3  A    between atoms: C_11  and  CA_20
    4  A    between atoms: C_12  and  C_28
    5  A    between atoms: N_13  and  CA_20
    6  A    between atoms: CB_14  and  CA_20
                            x       y       z     vdW  Elec       q    Type
                         _______ _______ _______ _____ _____    ______ ____

>  <TORSDO>
F 6

$$$$
=
 OpenBabel11062408123D

 34 37  0  0  1  0  0  0  0  0999 V2000
  162.3180  212.3060  148.3070 C   0  0  2  0  0  3  0  0  0  0  0  0
  158.9790  209.7110  155.8200 O   0  0  0  0  0  0  0  0  0  0  0  0
  160.6530  211.1210  149.9170 C   0  0  1  0  0  3  0  0  0  0  0  0
  161.7510  210.4540  152.1450 C   0  0  1  0  0  3  0  0  0  0  0  0
  159.3830  211.3040  152.0480 C   0  0  0  0  0  3  0  0  0  0  0  0
  161.0570  210.4050  156.5700 N   0  0  0  0  0  2  0  0  0  0  0  0
  161.0100  212.3880  149.1150 C   0  0  2  0  0  3  0  0  0  0  0  0
  159.2210  210.9800  153.3310 C   0  0  0  0  0  3  0  0  0  0  0  0
  161.7110  210.7020  153.6500 C   0  0  0  0  0  2  0  0  0  0  0  0
  161.3950  209.8550  149.4360 C   0  0  2  0  0  3  0  0  0  0  0  0
  163.3580  211.4970  149.0690 C   0  0  0  0  0  2  0  0  0  0  0  0
  161.5430  208.9640  151.8320 C   0  0  0  0  0  2  0  0  0  0  0  0
  161.0840  208.6860  150.3850 C   0  0  2  0  0  3  0  0  0  0  0  0
  160.3390  210.6460  154.1710 N   0  0  0  0  0  0  0  0  0  0  0  0
  160.7480  211.3790  151.4290 C   0  0  2  0  0  3  0  0  0  0  0  0
  162.9160  210.0410  149.2320 C   0  0  0  0  0  2  0  0  0  0  0  0
  160.0870  210.2370  155.5280 C   0  0  0  0  0  0  0  0  0  0  0  0
  161.3220  204.9800  150.5750 C   0  0  0  0  0  0  0  0  0  0  0  0
  161.2130  204.6050  149.2280 O   0  0  0  0  0  0  0  0  0  0  0  0
  161.5960  207.3350  149.8680 C   0  0  1  0  0  3  0  0  0  0  0  0
  161.3830  205.5430  148.1630 C   0  0  0  0  0  2  0  0  0  0  0  0
  161.4650  206.2620  150.9170 C   0  0  0  0  0  3  0  0  0  0  0  0
  160.8700  206.9160  148.5850 C   0  0  0  0  0  2  0  0  0  0  0  0
  161.2240  203.9440  151.6360 C   0  0  0  0  0  1  0  0  0  0  0  0
  162.8400  213.6730  148.0070 C   0  0  0  0  0  0  0  0  0  0  0  0
  164.0010  214.1140  148.6270 O   0  0  0  0  0  1  0  0  0  0  0  0
  162.2390  214.4270  147.1950 O   0  0  0  0  0  0  0  0  0  0  0  0
  159.9220  212.8990  148.3770 O   0  0  0  0  0  0  0  0  0  0  0  0
  159.2650  213.8680  149.1530 C   0  0  0  0  0  1  0  0  0  0  0  0
  162.2280  211.2680  156.4840 C   0  0  1  0  0  3  0  0  0  0  0  0
  161.9930  212.5650  157.2570 C   0  0  0  0  0  2  0  0  0  0  0  0
  160.6460  212.9290  157.2150 O   0  0  0  0  0  1  0  0  0  0  0  0
  163.4470  210.5280  157.0110 C   0  0  0  0  0  2  0  0  0  0  0  0
  164.8270  211.6830  157.2610 S   0  0  0  0  0  1  0  0  0  0  0  0
  1 25  1  1  0  0  0
  1 11  1  0  0  0  0
  1  7  1  0  0  0  0
  3 15  1  0  0  0  0
  4  9  1  0  0  0  0
  5  8  2  0  0  0  0
  7  3  1  0  0  0  0
  8 14  1  0  0  0  0
  9 14  1  0  0  0  0
 10  3  1  0  0  0  0
 10 13  1  0  0  0  0
 11 16  1  0  0  0  0
 12  4  1  0  0  0  0
 13 12  1  0  0  0  0
 14 17  1  0  0  0  0
 15  5  1  0  0  0  0
 15  4  1  0  0  0  0
 16 10  1  0  0  0  0
 17  2  2  0  0  0  0
 17  6  1  0  0  0  0
 18 22  2  0  0  0  0
 18 24  1  0  0  0  0
 19 18  1  0  0  0  0
 20 13  1  0  0  0  0
 20 22  1  0  0  0  0
 21 23  1  0  0  0  0
 21 19  1  0  0  0  0
 23 20  1  0  0  0  0
 25 26  1  0  0  0  0
 27 25  2  0  0  0  0
 28  7  1  0  0  0  0
 28 29  1  0  0  0  0
 30  6  1  0  0  0  0
 30 33  1  0  0  0  0
 30 31  1  0  0  0  0
 32 31  1  0  0  0  0
 33 34  1  0  0  0  0
M  END
>  <MODEL>
3

>  <REMARK>
 VINA RESULT:      -0.6      2.509      6.328
  Name = 
  6 active torsions:
  status: ('A' for Active; 'I' for Inactive)
    1  A    between atoms: C_1  and  C_6
    2  A    between atoms: O_2  and  C_15
    3  A    between atoms: C_11  and  CA_20
    4  A    between atoms: C_12  and  C_28
    5  A    between atoms: N_13  and  CA_20
    6  A    between atoms: CB_14  and  CA_20
                            x       y       z     vdW  Elec       q    Type
                         _______ _______ _______ _____ _____    ______ ____

>  <TORSDO>
F 6

$$$$
=
 OpenBabel11062408123D

 34 37  0  0  1  0  0  0  0  0999 V2000
  161.1110  208.8180  153.1000 C   0  0  2  0  0  3  0  0  0  0  0  0
  162.8920  213.0070  145.7790 O   0  0  0  0  0  0  0  0  0  0  0  0
  162.5370  209.6370  151.0850 C   0  0  1  0  0  3  0  0  0  0  0  0
  161.0990  210.1770  149.0230 C   0  0  1  0  0  3  0  0  0  0  0  0
  163.1050  211.5730  149.6300 C   0  0  0  0  0  3  0  0  0  0  0  0
  160.5840  213.1850  145.7440 N   0  0  0  0  0  2  0  0  0  0  0  0
  162.0890  209.8660  152.5420 C   0  0  2  0  0  3  0  0  0  0  0  0
  162.9990  212.2190  148.4680 C   0  0  0  0  0  3  0  0  0  0  0  0
  160.6730  211.3090  148.0910 C   0  0  0  0  0  2  0  0  0  0  0  0
  162.3020  208.1950  150.5860 C   0  0  2  0  0  3  0  0  0  0  0  0
  160.1510  208.3590  152.0110 C   0  0  0  0  0  2  0  0  0  0  0  0
  161.7610  209.0390  148.2300 C   0  0  0  0  0  2  0  0  0  0  0  0
  162.6430  208.1080  149.0890 C   0  0  2  0  0  3  0  0  0  0  0  0
  161.8240  212.1060  147.6470 N   0  0  0  0  0  0  0  0  0  0  0  0
  161.9810  210.7290  150.1580 C   0  0  2  0  0  3  0  0  0  0  0  0
  160.8960  207.6310  150.8900 C   0  0  0  0  0  2  0  0  0  0  0  0
  161.8040  212.7730  146.3720 C   0  0  0  0  0  0  0  0  0  0  0  0
  161.3750  204.6120  149.0630 C   0  0  0  0  0  0  0  0  0  0  0  0
  161.3250  204.3240  147.6910 O   0  0  0  0  0  0  0  0  0  0  0  0
  162.6530  206.6690  148.5540 C   0  0  1  0  0  3  0  0  0  0  0  0
  162.0040  205.1260  146.7210 C   0  0  0  0  0  2  0  0  0  0  0  0
  161.9590  205.7280  149.5040 C   0  0  0  0  0  3  0  0  0  0  0  0
  162.0160  206.5860  147.1630 C   0  0  0  0  0  2  0  0  0  0  0  0
  160.7250  203.6910  150.0310 C   0  0  0  0  0  1  0  0  0  0  0  0
  160.3510  209.3700  154.2620 C   0  0  0  0  0  0  0  0  0  0  0  0
  160.4160  208.7290  155.4910 O   0  0  0  0  0  1  0  0  0  0  0  0
  159.6540  210.4130  154.1380 O   0  0  0  0  0  0  0  0  0  0  0  0
  163.1640  210.1530  153.4110 O   0  0  0  0  0  0  0  0  0  0  0  0
  162.6530  210.7300  154.5850 C   0  0  0  0  0  1  0  0  0  0  0  0
  159.2950  213.2880  146.4170 C   0  0  1  0  0  3  0  0  0  0  0  0
  159.3000  214.4530  147.4030 C   0  0  0  0  0  2  0  0  0  0  0  0
  158.4250  214.2090  148.4640 O   0  0  0  0  0  1  0  0  0  0  0  0
  158.1910  213.4480  145.3830 C   0  0  0  0  0  2  0  0  0  0  0  0
  158.8940  213.4640  143.7080 S   0  0  0  0  0  1  0  0  0  0  0  0
  1 25  1  1  0  0  0
  2 17  2  0  0  0  0
  3  7  1  0  0  0  0
  4 15  1  0  0  0  0
  5 15  1  0  0  0  0
  6 17  1  0  0  0  0
  6 30  1  0  0  0  0
  7  1  1  0  0  0  0
  7 28  1  0  0  0  0
  8  5  2  0  0  0  0
  9  4  1  0  0  0  0
 10 16  1  0  0  0  0
 10  3  1  0  0  0  0
 11  1  1  0  0  0  0
 12  4  1  0  0  0  0
 12 13  1  0  0  0  0
 13 10  1  0  0  0  0
 14  9  1  0  0  0  0
 14  8  1  0  0  0  0
 15  3  1  0  0  0  0
 16 11  1  0  0  0  0
 17 14  1  0  0  0  0
 18 22  2  0  0  0  0
 18 24  1  0  0  0  0
 19 18  1  0  0  0  0
 20 13  1  0  0  0  0
 20 22  1  0  0  0  0
 21 23  1  0  0  0  0
 21 19  1  0  0  0  0
 23 20  1  0  0  0  0
 25 26  1  0  0  0  0
 27 25  2  0  0  0  0
 28 29  1  0  0  0  0
 30 31  1  0  0  0  0
 31 32  1  0  0  0  0
 33 30  1  0  0  0  0
 34 33  1  0  0  0  0
M  END
>  <MODEL>
4

>  <REMARK>
 VINA RESULT:      -0.0      3.352      6.525
  Name = 
  6 active torsions:
  status: ('A' for Active; 'I' for Inactive)
    1  A    between atoms: C_1  and  C_6
    2  A    between atoms: O_2  and  C_15
    3  A    between atoms: C_11  and  CA_20
    4  A    between atoms: C_12  and  C_28
    5  A    between atoms: N_13  and  CA_20
    6  A    between atoms: CB_14  and  CA_20
                            x       y       z     vdW  Elec       q    Type
                         _______ _______ _______ _____ _____    ______ ____

>  <TORSDO>
F 6

$$$$
=
 OpenBabel11062408123D

 34 37  0  0  1  0  0  0  0  0999 V2000
  159.6180  213.4550  148.9050 C   0  0  2  0  0  3  0  0  0  0  0  0
  163.0570  206.8840  153.3010 O   0  0  0  0  0  0  0  0  0  0  0  0
  161.0600  212.2650  150.7150 C   0  0  1  0  0  3  0  0  0  0  0  0
  160.1430  209.9410  151.3250 C   0  0  1  0  0  3  0  0  0  0  0  0
  162.6170  210.3830  151.1810 C   0  0  0  0  0  3  0  0  0  0  0  0
  161.4170  205.7260  152.1470 N   0  0  0  0  0  2  0  0  0  0  0  0
  160.9910  212.8850  149.3050 C   0  0  2  0  0  3  0  0  0  0  0  0
  162.8560  209.1790  151.7020 C   0  0  0  0  0  3  0  0  0  0  0  0
  160.4720  208.4510  151.2980 C   0  0  0  0  0  2  0  0  0  0  0  0
  159.9080  212.7100  151.6420 C   0  0  2  0  0  3  0  0  0  0  0  0
  158.5020  212.5910  149.4760 C   0  0  0  0  0  2  0  0  0  0  0  0
  159.8440  210.4070  152.7590 C   0  0  0  0  0  2  0  0  0  0  0  0
  159.9850  211.9300  152.9650 C   0  0  2  0  0  3  0  0  0  0  0  0
  161.8220  208.1850  151.8100 N   0  0  0  0  0  0  0  0  0  0  0  0
  161.2640  210.7440  150.6400 C   0  0  2  0  0  3  0  0  0  0  0  0
  158.5030  212.6280  151.0060 C   0  0  0  0  0  2  0  0  0  0  0  0
  162.1310  206.9330  152.4470 C   0  0  0  0  0  0  0  0  0  0  0  0
  157.0720  211.5200  155.2410 C   0  0  0  0  0  0  0  0  0  0  0  0
  157.5240  212.1390  156.4160 O   0  0  0  0  0  0  0  0  0  0  0  0
  159.0190  212.4580  154.0350 C   0  0  1  0  0  3  0  0  0  0  0  0
  158.6620  213.0030  156.4300 C   0  0  0  0  0  2  0  0  0  0  0  0
  157.7710  211.6170  154.1080 C   0  0  0  0  0  3  0  0  0  0  0  0
  159.6920  212.5310  155.4090 C   0  0  0  0  0  2  0  0  0  0  0  0
  155.8300  210.7050  155.2700 C   0  0  0  0  0  1  0  0  0  0  0  0
  159.4960  213.5450  147.4190 C   0  0  0  0  0  0  0  0  0  0  0  0
  158.7070  212.6280  146.7390 O   0  0  0  0  0  0  0  0  0  0  0  0
  160.1000  214.4470  146.7780 O   0  0  0  0  0  1  0  0  0  0  0  0
  162.0660  213.7590  149.0340 O   0  0  0  0  0  0  0  0  0  0  0  0
  162.9500  213.1230  148.1470 C   0  0  0  0  0  1  0  0  0  0  0  0
  160.5620  205.5330  150.9820 C   0  0  1  0  0  3  0  0  0  0  0  0
  161.3720  205.6790  149.6960 C   0  0  0  0  0  2  0  0  0  0  0  0
  160.6060  205.3210  148.5850 O   0  0  0  0  0  1  0  0  0  0  0  0
  159.8940  204.1700  151.0600 C   0  0  0  0  0  2  0  0  0  0  0  0
  161.0770  202.9230  151.6490 S   0  0  0  0  0  1  0  0  0  0  0  0
  1 25  1  6  0  0  0
  1  7  1  0  0  0  0
  1 11  1  0  0  0  0
  3 10  1  0  0  0  0
  4 12  1  0  0  0  0
  5  8  2  0  0  0  0
  6 17  1  0  0  0  0
  7  3  1  0  0  0  0
  8 14  1  0  0  0  0
  9  4  1  0  0  0  0
  9 14  1  0  0  0  0
 10 13  1  0  0  0  0
 11 16  1  0  0  0  0
 12 13  1  0  0  0  0
 13 20  1  0  0  0  0
 14 17  1  0  0  0  0
 15  3  1  0  0  0  0
 15  5  1  0  0  0  0
 15  4  1  0  0  0  0
 16 10  1  0  0  0  0
 17  2  2  0  0  0  0
 18 24  1  0  0  0  0
 18 19  1  0  0  0  0
 19 21  1  0  0  0  0
 20 22  1  0  0  0  0
 20 23  1  0  0  0  0
 22 18  2  0  0  0  0
 23 21  1  0  0  0  0
 26 25  2  0  0  0  0
 27 25  1  0  0  0  0
 28  7  1  0  0  0  0
 29 28  1  0  0  0  0
 30 33  1  0  0  0  0
 30  6  1  0  0  0  0
 31 30  1  0  0  0  0
 32 31  1  0  0  0  0
 33 34  1  0  0  0  0
M  END
>  <MODEL>
5

>  <REMARK>
 VINA RESULT:       1.0      2.955      7.440
  Name = 
  6 active torsions:
  status: ('A' for Active; 'I' for Inactive)
    1  A    between atoms: C_1  and  C_6
    2  A    between atoms: O_2  and  C_15
    3  A    between atoms: C_11  and  CA_20
    4  A    between atoms: C_12  and  C_28
    5  A    between atoms: N_13  and  CA_20
    6  A    between atoms: CB_14  and  CA_20
                            x       y       z     vdW  Elec       q    Type
                         _______ _______ _______ _____ _____    ______ ____

>  <TORSDO>
F 6

$$$$
