=
 OpenBabel11052422523D

 28 31  0  0  1  0  0  0  0  0999 V2000
  161.3560  208.1690  150.7090 C   0  0  1  0  0  3  0  0  0  0  0  0
  160.8560  206.5730  153.8570 C   0  0  0  0  0  3  0  0  0  0  0  0
  161.4260  207.4420  151.9730 N   0  0  0  0  0  0  0  0  0  0  0  0
  162.1570  206.1630  153.6090 C   0  0  0  0  0  3  0  0  0  0  0  0
  160.4350  207.3470  152.8410 N   0  0  0  0  0  0  0  0  0  0  0  0
  162.4860  206.7340  152.3920 C   0  0  0  0  0  3  0  0  0  0  0  0
  162.8150  209.9310  150.0050 O   0  0  0  0  0  0  0  0  0  0  0  0
  161.5230  210.4320  151.8670 N   0  0  0  0  0  2  0  0  0  0  0  0
  161.9540  209.5390  150.8380 C   0  0  0  0  0  0  0  0  0  0  0  0
  160.5000  210.0840  152.8440 C   0  0  2  0  0  3  0  0  0  0  0  0
  158.4470  211.3220  154.3950 C   0  0  0  0  0  2  0  0  0  0  0  0
  159.1490  210.6460  152.3780 C   0  0  0  0  0  2  0  0  0  0  0  0
  161.8940  209.7040  154.9030 C   0  0  0  0  0  1  0  0  0  0  0  0
  160.8880  210.6170  154.2330 C   0  0  2  0  0  3  0  0  0  0  0  0
  159.6750  210.7960  155.1530 C   0  0  0  0  0  2  0  0  0  0  0  0
  158.7940  211.7890  153.1150 O   0  0  0  0  0  0  0  0  0  0  0  0
  162.0270  207.3860  149.5800 C   0  0  0  0  0  2  0  0  0  0  0  0
  160.4150  204.7410  150.4090 C   0  0  0  0  0  3  0  0  0  0  0  0
  161.4750  204.2320  148.3020 C   0  0  0  0  0  0  0  0  0  0  0  0
  161.0380  206.5670  148.7410 C   0  0  2  0  0  3  0  0  0  0  0  0
  160.9120  202.4390  149.8120 C   0  0  0  0  0  0  0  0  0  0  0  0
  160.9690  205.1540  149.1940 C   0  0  0  0  0  0  0  0  0  0  0  0
  160.1910  206.8470  146.4140 C   0  0  0  0  0  1  0  0  0  0  0  0
  161.4520  202.8670  148.5930 C   0  0  0  0  0  3  0  0  0  0  0  0
  162.1000  204.9130  146.7870 S   0  0  0  0  0  0  0  0  0  0  0  0
  160.8860  200.9910  150.1460 C   0  0  0  0  0  1  0  0  0  0  0  0
  160.3900  203.3750  150.7180 C   0  0  0  0  0  3  0  0  0  0  0  0
  161.4180  206.5550  147.2540 C   0  0  2  0  0  3  0  0  0  0  0  0
  1 17  1  6  0  0  0
  1  9  1  0  0  0  0
  1  3  1  0  0  0  0
  3  6  1  0  0  0  0
  3  5  1  0  0  0  0
  4  2  1  0  0  0  0
  5  2  2  0  0  0  0
  6  4  2  0  0  0  0
  7  9  2  0  0  0  0
  9  8  1  0  0  0  0
 10  8  1  6  0  0  0
 10 14  1  0  0  0  0
 11 15  1  0  0  0  0
 12 10  1  0  0  0  0
 12 16  1  0  0  0  0
 14 13  1  1  0  0  0
 14 15  1  0  0  0  0
 16 11  1  0  0  0  0
 18 27  1  0  0  0  0
 19 24  2  0  0  0  0
 19 22  1  0  0  0  0
 20 22  1  0  0  0  0
 20 17  1  1  0  0  0
 21 26  1  0  0  0  0
 21 27  2  0  0  0  0
 22 18  2  0  0  0  0
 24 21  1  0  0  0  0
 25 28  1  0  0  0  0
 25 19  1  0  0  0  0
 28 23  1  6  0  0  0
 28 20  1  0  0  0  0
M  END
>  <MODEL>
1

>  <REMARK>
 VINA RESULT:      -6.4      0.000      0.000
  Name = 
  5 active torsions:
  status: ('A' for Active; 'I' for Inactive)
    1  A    between atoms: N_2  and  C_3
    2  A    between atoms: C_10  and  C_17
    3  A    between atoms: N_16  and  C_27
    4  A    between atoms: C_17  and  C_27
    5  A    between atoms: C_26  and  C_27
                            x       y       z     vdW  Elec       q    Type
                         _______ _______ _______ _____ _____    ______ ____

>  <TORSDO>
F 5

$$$$
=
 OpenBabel11052422523D

 28 31  0  0  1  0  0  0  0  0999 V2000
  161.1020  210.5600  151.4260 C   0  0  1  0  0  3  0  0  0  0  0  0
  160.9650  213.2280  149.0650 C   0  0  0  0  0  3  0  0  0  0  0  0
  161.2110  211.4830  150.2990 N   0  0  0  0  0  0  0  0  0  0  0  0
  161.8550  212.3970  148.4040 C   0  0  0  0  0  3  0  0  0  0  0  0
  160.5940  212.6470  150.2200 N   0  0  0  0  0  0  0  0  0  0  0  0
  161.9940  211.2930  149.2260 C   0  0  0  0  0  3  0  0  0  0  0  0
  163.3880  210.3990  152.1140 O   0  0  0  0  0  0  0  0  0  0  0  0
  162.4660  208.4100  151.3510 N   0  0  0  0  0  2  0  0  0  0  0  0
  162.3830  209.8090  151.6370 C   0  0  0  0  0  0  0  0  0  0  0  0
  161.3440  207.6350  150.8420 C   0  0  2  0  0  3  0  0  0  0  0  0
  160.5720  204.9160  150.4320 C   0  0  0  0  0  2  0  0  0  0  0  0
  160.9500  206.5780  151.8850 C   0  0  0  0  0  2  0  0  0  0  0  0
  161.5810  207.9930  148.3630 C   0  0  0  0  0  1  0  0  0  0  0  0
  161.7090  206.9930  149.4940 C   0  0  2  0  0  3  0  0  0  0  0  0
  160.8530  205.7610  149.1800 C   0  0  0  0  0  2  0  0  0  0  0  0
  161.3940  205.3000  151.5060 O   0  0  0  0  0  0  0  0  0  0  0  0
  160.6820  211.2890  152.7020 C   0  0  0  0  0  2  0  0  0  0  0  0
  157.7160  211.4490  153.9100 C   0  0  0  0  0  3  0  0  0  0  0  0
  159.1930  211.2860  155.8120 C   0  0  0  0  0  0  0  0  0  0  0  0
  160.0200  210.3690  153.7350 C   0  0  2  0  0  3  0  0  0  0  0  0
  157.0280  212.3140  156.0740 C   0  0  0  0  0  0  0  0  0  0  0  0
  158.9340  211.0620  154.4760 C   0  0  0  0  0  0  0  0  0  0  0  0
  160.8460  208.3570  154.9510 C   0  0  0  0  0  1  0  0  0  0  0  0
  158.2480  211.9090  156.6300 C   0  0  0  0  0  3  0  0  0  0  0  0
  160.7650  210.6940  156.3850 S   0  0  0  0  0  0  0  0  0  0  0  0
  156.0120  212.9870  156.9250 C   0  0  0  0  0  1  0  0  0  0  0  0
  156.7600  212.0810  154.7160 C   0  0  0  0  0  3  0  0  0  0  0  0
  161.0260  209.8510  154.7720 C   0  0  2  0  0  3  0  0  0  0  0  0
  1  9  1  0  0  0  0
  1 17  1  1  0  0  0
  2  5  2  0  0  0  0
  3  1  1  0  0  0  0
  4  2  1  0  0  0  0
  4  6  2  0  0  0  0
  5  3  1  0  0  0  0
  6  3  1  0  0  0  0
  8  9  1  0  0  0  0
  9  7  2  0  0  0  0
 10  8  1  1  0  0  0
 10 12  1  0  0  0  0
 11 16  1  0  0  0  0
 14 13  1  6  0  0  0
 14 10  1  0  0  0  0
 15 14  1  0  0  0  0
 15 11  1  0  0  0  0
 16 12  1  0  0  0  0
 18 22  2  0  0  0  0
 18 27  1  0  0  0  0
 19 25  1  0  0  0  0
 19 24  2  0  0  0  0
 20 17  1  6  0  0  0
 20 22  1  0  0  0  0
 20 28  1  0  0  0  0
 21 24  1  0  0  0  0
 21 26  1  0  0  0  0
 22 19  1  0  0  0  0
 27 21  2  0  0  0  0
 28 23  1  1  0  0  0
 28 25  1  0  0  0  0
M  END
>  <MODEL>
2

>  <REMARK>
 VINA RESULT:      -6.4      3.029      7.864
  Name = 
  5 active torsions:
  status: ('A' for Active; 'I' for Inactive)
    1  A    between atoms: N_2  and  C_3
    2  A    between atoms: C_10  and  C_17
    3  A    between atoms: N_16  and  C_27
    4  A    between atoms: C_17  and  C_27
    5  A    between atoms: C_26  and  C_27
                            x       y       z     vdW  Elec       q    Type
                         _______ _______ _______ _____ _____    ______ ____

>  <TORSDO>
F 5

$$$$
=
 OpenBabel11052422523D

 28 31  0  0  1  0  0  0  0  0999 V2000
  161.0940  208.7160  152.9610 C   0  0  1  0  0  3  0  0  0  0  0  0
  161.4480  207.9880  156.4330 C   0  0  0  0  0  3  0  0  0  0  0  0
  161.0520  208.2080  154.3290 N   0  0  0  0  0  0  0  0  0  0  0  0
  160.4580  207.0700  156.1170 C   0  0  0  0  0  3  0  0  0  0  0  0
  161.7870  208.6700  155.3250 N   0  0  0  0  0  0  0  0  0  0  0  0
  160.2270  207.2440  154.7640 C   0  0  0  0  0  3  0  0  0  0  0  0
  162.8590  210.2570  152.4750 O   0  0  0  0  0  0  0  0  0  0  0  0
  160.9260  211.2340  153.3100 N   0  0  0  0  0  2  0  0  0  0  0  0
  161.6890  210.0920  152.9120 C   0  0  0  0  0  0  0  0  0  0  0  0
  159.5510  211.1450  153.7840 C   0  0  2  0  0  3  0  0  0  0  0  0
  157.1720  212.7190  153.8950 C   0  0  0  0  0  2  0  0  0  0  0  0
  158.6010  211.5350  152.6420 C   0  0  0  0  0  2  0  0  0  0  0  0
  159.8710  211.3640  156.2690 C   0  0  0  0  0  1  0  0  0  0  0  0
  159.3550  212.0420  155.0160 C   0  0  2  0  0  3  0  0  0  0  0  0
  157.8900  212.4410  155.2240 C   0  0  0  0  0  2  0  0  0  0  0  0
  158.0840  212.8270  152.8300 O   0  0  0  0  0  0  0  0  0  0  0  0
  161.8530  207.7620  152.0370 C   0  0  0  0  0  2  0  0  0  0  0  0
  160.1810  205.3820  150.6890 C   0  0  0  0  0  3  0  0  0  0  0  0
  161.9360  205.9220  149.1230 C   0  0  0  0  0  0  0  0  0  0  0  0
  161.2620  207.6910  150.6240 C   0  0  2  0  0  3  0  0  0  0  0  0
  160.9660  203.7150  149.1040 C   0  0  0  0  0  0  0  0  0  0  0  0
  161.1060  206.2870  150.1610 C   0  0  0  0  0  0  0  0  0  0  0  0
  161.2720  209.3070  148.7260 C   0  0  0  0  0  1  0  0  0  0  0  0
  161.8780  204.6380  148.5770 C   0  0  0  0  0  3  0  0  0  0  0  0
  163.0190  207.2000  148.5380 S   0  0  0  0  0  0  0  0  0  0  0  0
  160.8940  202.3400  148.5440 C   0  0  0  0  0  1  0  0  0  0  0  0
  160.1150  204.0880  150.1560 C   0  0  0  0  0  3  0  0  0  0  0  0
  162.1390  208.4190  149.5960 C   0  0  2  0  0  3  0  0  0  0  0  0
  1 17  1  6  0  0  0
  1  3  1  0  0  0  0
  3  6  1  0  0  0  0
  3  5  1  0  0  0  0
  4  2  1  0  0  0  0
  5  2  2  0  0  0  0
  6  4  2  0  0  0  0
  7  9  2  0  0  0  0
  9  1  1  0  0  0  0
  9  8  1  0  0  0  0
 10  8  1  6  0  0  0
 10 14  1  0  0  0  0
 11 15  1  0  0  0  0
 12 16  1  0  0  0  0
 12 10  1  0  0  0  0
 14 15  1  0  0  0  0
 14 13  1  1  0  0  0
 16 11  1  0  0  0  0
 19 22  2  0  0  0  0
 20 17  1  1  0  0  0
 21 27  1  0  0  0  0
 22 20  1  0  0  0  0
 22 18  1  0  0  0  0
 24 21  2  0  0  0  0
 24 19  1  0  0  0  0
 25 19  1  0  0  0  0
 25 28  1  0  0  0  0
 26 21  1  0  0  0  0
 27 18  2  0  0  0  0
 28 23  1  6  0  0  0
 28 20  1  0  0  0  0
M  END
>  <MODEL>
3

>  <REMARK>
 VINA RESULT:      -6.1      1.703      2.346
  Name = 
  5 active torsions:
  status: ('A' for Active; 'I' for Inactive)
    1  A    between atoms: N_2  and  C_3
    2  A    between atoms: C_10  and  C_17
    3  A    between atoms: N_16  and  C_27
    4  A    between atoms: C_17  and  C_27
    5  A    between atoms: C_26  and  C_27
                            x       y       z     vdW  Elec       q    Type
                         _______ _______ _______ _____ _____    ______ ____

>  <TORSDO>
F 5

$$$$
=
 OpenBabel11052422523D

 28 31  0  0  1  0  0  0  0  0999 V2000
  161.0710  209.6840  151.9560 C   0  0  1  0  0  3  0  0  0  0  0  0
  161.5190  212.2330  149.5030 C   0  0  0  0  0  3  0  0  0  0  0  0
  161.4180  210.5330  150.8200 N   0  0  0  0  0  0  0  0  0  0  0  0
  162.3850  211.2800  148.9890 C   0  0  0  0  0  3  0  0  0  0  0  0
  160.9480  211.7510  150.6220 N   0  0  0  0  0  0  0  0  0  0  0  0
  162.2990  210.2090  149.8610 C   0  0  0  0  0  3  0  0  0  0  0  0
  159.2490  211.1700  152.4020 O   0  0  0  0  0  0  0  0  0  0  0  0
  160.1060  210.1010  154.2760 N   0  0  0  0  0  2  0  0  0  0  0  0
  160.1040  210.3730  152.8720 C   0  0  0  0  0  0  0  0  0  0  0  0
  161.0260  209.1610  154.9020 C   0  0  2  0  0  3  0  0  0  0  0  0
  161.2540  207.5680  157.2610 C   0  0  0  0  0  2  0  0  0  0  0  0
  160.2600  207.8850  155.2790 C   0  0  0  0  0  2  0  0  0  0  0  0
  162.8360  210.7090  155.7130 C   0  0  0  0  0  1  0  0  0  0  0  0
  161.6920  209.8060  156.1280 C   0  0  2  0  0  3  0  0  0  0  0  0
  162.2050  208.7680  157.1310 C   0  0  0  0  0  2  0  0  0  0  0  0
  160.0100  207.8310  156.6600 O   0  0  0  0  0  0  0  0  0  0  0  0
  160.5150  208.3370  151.4920 C   0  0  0  0  0  2  0  0  0  0  0  0
  161.9890  207.2430  148.8630 C   0  0  0  0  0  3  0  0  0  0  0  0
  161.1780  205.2890  150.0240 C   0  0  0  0  0  0  0  0  0  0  0  0
  161.5860  207.2450  151.3810 C   0  0  2  0  0  3  0  0  0  0  0  0
  161.5400  205.1900  147.6420 C   0  0  0  0  0  0  0  0  0  0  0  0
  161.5860  206.6060  150.0400 C   0  0  0  0  0  0  0  0  0  0  0  0
  162.7050  205.8240  153.0960 C   0  0  0  0  0  1  0  0  0  0  0  0
  161.1520  204.5620  148.8330 C   0  0  0  0  0  3  0  0  0  0  0  0
  160.7440  204.6150  151.6070 S   0  0  0  0  0  0  0  0  0  0  0  0
  161.5100  204.4380  146.3610 C   0  0  0  0  0  1  0  0  0  0  0  0
  161.9610  206.5290  147.6580 C   0  0  0  0  0  3  0  0  0  0  0  0
  161.3840  206.1340  152.4210 C   0  0  2  0  0  3  0  0  0  0  0  0
  1 17  1  6  0  0  0
  1  9  1  0  0  0  0
  2  5  2  0  0  0  0
  3  1  1  0  0  0  0
  4  2  1  0  0  0  0
  4  6  2  0  0  0  0
  5  3  1  0  0  0  0
  6  3  1  0  0  0  0
  7  9  2  0  0  0  0
  9  8  1  0  0  0  0
 10  8  1  1  0  0  0
 10 12  1  0  0  0  0
 10 14  1  0  0  0  0
 12 16  1  0  0  0  0
 14 13  1  6  0  0  0
 14 15  1  0  0  0  0
 15 11  1  0  0  0  0
 16 11  1  0  0  0  0
 18 22  1  0  0  0  0
 19 22  2  0  0  0  0
 19 25  1  0  0  0  0
 20 17  1  6  0  0  0
 20 28  1  0  0  0  0
 21 27  1  0  0  0  0
 21 24  2  0  0  0  0
 22 20  1  0  0  0  0
 24 19  1  0  0  0  0
 25 28  1  0  0  0  0
 26 21  1  0  0  0  0
 27 18  2  0  0  0  0
 28 23  1  6  0  0  0
M  END
>  <MODEL>
4

>  <REMARK>
 VINA RESULT:      -6.0      2.139      4.220
  Name = 
  5 active torsions:
  status: ('A' for Active; 'I' for Inactive)
    1  A    between atoms: N_2  and  C_3
    2  A    between atoms: C_10  and  C_17
    3  A    between atoms: N_16  and  C_27
    4  A    between atoms: C_17  and  C_27
    5  A    between atoms: C_26  and  C_27
                            x       y       z     vdW  Elec       q    Type
                         _______ _______ _______ _____ _____    ______ ____

>  <TORSDO>
F 5

$$$$
=
 OpenBabel11052422523D

 28 31  0  0  1  0  0  0  0  0999 V2000
  160.8860  206.6160  151.8920 C   0  0  1  0  0  3  0  0  0  0  0  0
  160.6630  206.5020  155.4480 C   0  0  0  0  0  3  0  0  0  0  0  0
  160.7270  206.8470  153.3250 N   0  0  0  0  0  0  0  0  0  0  0  0
  160.4550  207.8600  155.2600 C   0  0  0  0  0  3  0  0  0  0  0  0
  160.8310  205.9110  154.2510 N   0  0  0  0  0  0  0  0  0  0  0  0
  160.5090  208.0440  153.8900 C   0  0  0  0  0  3  0  0  0  0  0  0
  163.1440  205.8280  151.8290 O   0  0  0  0  0  0  0  0  0  0  0  0
  162.7740  207.7980  150.6570 N   0  0  0  0  0  2  0  0  0  0  0  0
  162.3250  206.7200  151.4820 C   0  0  0  0  0  0  0  0  0  0  0  0
  161.8910  208.8480  150.1700 C   0  0  2  0  0  3  0  0  0  0  0  0
  161.9410  211.1190  148.4390 C   0  0  0  0  0  2  0  0  0  0  0  0
  161.9560  208.8880  148.6360 C   0  0  0  0  0  2  0  0  0  0  0  0
  161.7290  210.3340  152.1940 C   0  0  0  0  0  1  0  0  0  0  0  0
  162.2810  210.2000  150.7890 C   0  0  2  0  0  3  0  0  0  0  0  0
  161.8100  211.3900  149.9450 C   0  0  0  0  0  2  0  0  0  0  0  0
  162.7220  209.9770  148.1880 O   0  0  0  0  0  0  0  0  0  0  0  0
  160.2980  205.2670  151.4780 C   0  0  0  0  0  2  0  0  0  0  0  0
  161.7070  205.1920  148.5980 C   0  0  0  0  0  3  0  0  0  0  0  0
  160.8900  202.9550  148.9890 C   0  0  0  0  0  0  0  0  0  0  0  0
  161.3520  204.2830  150.9540 C   0  0  2  0  0  3  0  0  0  0  0  0
  161.2060  203.7260  146.7270 C   0  0  0  0  0  0  0  0  0  0  0  0
  161.3170  204.1740  149.4730 C   0  0  0  0  0  0  0  0  0  0  0  0
  162.4820  202.3290  152.0110 C   0  0  0  0  0  1  0  0  0  0  0  0
  160.8310  202.7100  147.6160 C   0  0  0  0  0  3  0  0  0  0  0  0
  160.4760  201.7550  150.2300 S   0  0  0  0  0  0  0  0  0  0  0  0
  161.1420  203.4890  145.2610 C   0  0  0  0  0  1  0  0  0  0  0  0
  161.6470  204.9640  147.2170 C   0  0  0  0  0  3  0  0  0  0  0  0
  161.1530  202.8710  151.5240 C   0  0  2  0  0  3  0  0  0  0  0  0
  1 17  1  1  0  0  0
  1  3  1  0  0  0  0
  3  6  1  0  0  0  0
  3  5  1  0  0  0  0
  4  2  1  0  0  0  0
  5  2  2  0  0  0  0
  6  4  2  0  0  0  0
  8  9  1  0  0  0  0
  9  7  2  0  0  0  0
  9  1  1  0  0  0  0
 10  8  1  1  0  0  0
 10 14  1  0  0  0  0
 11 15  1  0  0  0  0
 12 10  1  0  0  0  0
 14 13  1  1  0  0  0
 15 14  1  0  0  0  0
 16 11  1  0  0  0  0
 16 12  1  0  0  0  0
 18 22  1  0  0  0  0
 19 22  2  0  0  0  0
 19 25  1  0  0  0  0
 20 17  1  1  0  0  0
 20 28  1  0  0  0  0
 21 27  1  0  0  0  0
 21 24  2  0  0  0  0
 22 20  1  0  0  0  0
 24 19  1  0  0  0  0
 25 28  1  0  0  0  0
 26 21  1  0  0  0  0
 27 18  2  0  0  0  0
 28 23  1  6  0  0  0
M  END
>  <MODEL>
5

>  <REMARK>
 VINA RESULT:      -6.0      2.409      4.014
  Name = 
  5 active torsions:
  status: ('A' for Active; 'I' for Inactive)
    1  A    between atoms: N_2  and  C_3
    2  A    between atoms: C_10  and  C_17
    3  A    between atoms: N_16  and  C_27
    4  A    between atoms: C_17  and  C_27
    5  A    between atoms: C_26  and  C_27
                            x       y       z     vdW  Elec       q    Type
                         _______ _______ _______ _____ _____    ______ ____

>  <TORSDO>
F 5

$$$$
=
 OpenBabel11052422523D

 28 31  0  0  1  0  0  0  0  0999 V2000
  158.1790  211.8130  154.9210 C   0  0  1  0  0  3  0  0  0  0  0  0
  155.5960  213.6080  156.5990 C   0  0  0  0  0  3  0  0  0  0  0  0
  157.0360  212.2890  155.6950 N   0  0  0  0  0  0  0  0  0  0  0  0
  155.1810  212.3150  156.8800 C   0  0  0  0  0  3  0  0  0  0  0  0
  156.7260  213.5600  155.8710 N   0  0  0  0  0  0  0  0  0  0  0  0
  156.1230  211.4980  156.2810 C   0  0  0  0  0  3  0  0  0  0  0  0
  159.8770  213.2380  155.8200 O   0  0  0  0  0  0  0  0  0  0  0  0
  159.5520  213.4470  153.5310 N   0  0  0  0  0  2  0  0  0  0  0  0
  159.2320  212.8740  154.8020 C   0  0  0  0  0  0  0  0  0  0  0  0
  158.8920  213.0540  152.2940 C   0  0  2  0  0  3  0  0  0  0  0  0
  158.9400  213.6610  149.5040 C   0  0  0  0  0  2  0  0  0  0  0  0
  159.9590  212.6950  151.2490 C   0  0  0  0  0  2  0  0  0  0  0  0
  156.6560  214.1780  152.5500 C   0  0  0  0  0  1  0  0  0  0  0  0
  157.9730  214.1830  151.8010 C   0  0  2  0  0  3  0  0  0  0  0  0
  157.6990  214.1020  150.2950 C   0  0  0  0  0  2  0  0  0  0  0  0
  160.1010  213.7170  150.2960 O   0  0  0  0  0  0  0  0  0  0  0  0
  158.7610  210.5330  155.5220 C   0  0  0  0  0  2  0  0  0  0  0  0
  160.2790  209.5010  152.8930 C   0  0  0  0  0  3  0  0  0  0  0  0
  161.1950  208.2240  154.7250 C   0  0  0  0  0  0  0  0  0  0  0  0
  160.2690  210.3850  155.2850 C   0  0  2  0  0  3  0  0  0  0  0  0
  161.2580  207.3130  152.4940 C   0  0  0  0  0  0  0  0  0  0  0  0
  160.5670  209.3580  154.2530 C   0  0  0  0  0  0  0  0  0  0  0  0
  162.2410  210.8550  156.7350 C   0  0  0  0  0  1  0  0  0  0  0  0
  161.5520  207.1900  153.8580 C   0  0  0  0  0  3  0  0  0  0  0  0
  161.5310  208.2190  156.4670 S   0  0  0  0  0  0  0  0  0  0  0  0
  161.6200  206.2200  151.5550 C   0  0  0  0  0  1  0  0  0  0  0  0
  160.6250  208.4690  152.0110 C   0  0  0  0  0  3  0  0  0  0  0  0
  161.0150  209.9800  156.5640 C   0  0  2  0  0  3  0  0  0  0  0  0
  1 17  1  1  0  0  0
  1  3  1  0  0  0  0
  2  4  1  0  0  0  0
  3  5  1  0  0  0  0
  3  6  1  0  0  0  0
  5  2  2  0  0  0  0
  6  4  2  0  0  0  0
  8  9  1  0  0  0  0
  9  1  1  0  0  0  0
  9  7  2  0  0  0  0
 10  8  1  1  0  0  0
 11 15  1  0  0  0  0
 11 16  1  0  0  0  0
 12 10  1  0  0  0  0
 14 10  1  0  0  0  0
 14 13  1  1  0  0  0
 15 14  1  0  0  0  0
 16 12  1  0  0  0  0
 18 22  1  0  0  0  0
 19 25  1  0  0  0  0
 20 17  1  1  0  0  0
 20 28  1  0  0  0  0
 21 24  2  0  0  0  0
 22 19  2  0  0  0  0
 22 20  1  0  0  0  0
 24 19  1  0  0  0  0
 25 28  1  0  0  0  0
 26 21  1  0  0  0  0
 27 21  1  0  0  0  0
 27 18  2  0  0  0  0
 28 23  1  6  0  0  0
M  END
>  <MODEL>
6

>  <REMARK>
 VINA RESULT:      -6.0      3.866      7.099
  Name = 
  5 active torsions:
  status: ('A' for Active; 'I' for Inactive)
    1  A    between atoms: N_2  and  C_3
    2  A    between atoms: C_10  and  C_17
    3  A    between atoms: N_16  and  C_27
    4  A    between atoms: C_17  and  C_27
    5  A    between atoms: C_26  and  C_27
                            x       y       z     vdW  Elec       q    Type
                         _______ _______ _______ _____ _____    ______ ____

>  <TORSDO>
F 5

$$$$
=
 OpenBabel11052422523D

 28 31  0  0  1  0  0  0  0  0999 V2000
  161.3090  206.5930  151.4500 C   0  0  1  0  0  3  0  0  0  0  0  0
  160.2910  207.8130  154.6420 C   0  0  0  0  0  3  0  0  0  0  0  0
  161.0010  206.8470  152.8540 N   0  0  0  0  0  0  0  0  0  0  0  0
  160.7350  206.5550  155.0190 C   0  0  0  0  0  3  0  0  0  0  0  0
  160.4610  207.9600  153.3150 N   0  0  0  0  0  0  0  0  0  0  0  0
  161.1760  205.9630  153.8490 C   0  0  0  0  0  3  0  0  0  0  0  0
  163.6680  206.2050  151.3570 O   0  0  0  0  0  0  0  0  0  0  0  0
  162.9900  208.2520  150.4970 N   0  0  0  0  0  2  0  0  0  0  0  0
  162.7160  206.9960  151.1220 C   0  0  0  0  0  0  0  0  0  0  0  0
  161.9500  209.2090  150.1460 C   0  0  2  0  0  3  0  0  0  0  0  0
  161.6170  211.6350  148.6760 C   0  0  0  0  0  2  0  0  0  0  0  0
  161.9560  209.4210  148.6250 C   0  0  0  0  0  2  0  0  0  0  0  0
  161.6490  210.4310  152.3240 C   0  0  0  0  0  1  0  0  0  0  0  0
  162.1650  210.5300  150.9030 C   0  0  2  0  0  3  0  0  0  0  0  0
  161.5010  211.7220  150.2050 C   0  0  0  0  0  2  0  0  0  0  0  0
  162.5440  210.6510  148.2850 O   0  0  0  0  0  0  0  0  0  0  0  0
  161.0620  205.1300  151.0830 C   0  0  0  0  0  2  0  0  0  0  0  0
  160.1040  202.4230  149.6540 C   0  0  0  0  0  3  0  0  0  0  0  0
  161.5510  203.5280  148.0690 C   0  0  0  0  0  0  0  0  0  0  0  0
  160.4550  204.9500  149.6860 C   0  0  2  0  0  3  0  0  0  0  0  0
  161.2710  201.1360  147.9560 C   0  0  0  0  0  0  0  0  0  0  0  0
  160.6980  203.5850  149.1500 C   0  0  0  0  0  0  0  0  0  0  0  0
  159.9050  206.5790  147.8820 C   0  0  0  0  0  1  0  0  0  0  0  0
  161.8480  202.3100  147.4540 C   0  0  0  0  0  3  0  0  0  0  0  0
  162.1830  205.0940  147.5240 S   0  0  0  0  0  0  0  0  0  0  0  0
  161.5810  199.8270  147.3230 C   0  0  0  0  0  1  0  0  0  0  0  0
  160.3970  201.1930  149.0520 C   0  0  0  0  0  3  0  0  0  0  0  0
  161.0330  205.9490  148.6750 C   0  0  2  0  0  3  0  0  0  0  0  0
  1 17  1  1  0  0  0
  1  3  1  0  0  0  0
  2  4  1  0  0  0  0
  3  5  1  0  0  0  0
  3  6  1  0  0  0  0
  5  2  2  0  0  0  0
  6  4  2  0  0  0  0
  8  9  1  0  0  0  0
  9  7  2  0  0  0  0
  9  1  1  0  0  0  0
 10  8  1  6  0  0  0
 10 14  1  0  0  0  0
 11 15  1  0  0  0  0
 12 10  1  0  0  0  0
 14 13  1  1  0  0  0
 15 14  1  0  0  0  0
 16 12  1  0  0  0  0
 16 11  1  0  0  0  0
 19 22  2  0  0  0  0
 20 17  1  1  0  0  0
 21 27  1  0  0  0  0
 22 18  1  0  0  0  0
 22 20  1  0  0  0  0
 24 21  2  0  0  0  0
 24 19  1  0  0  0  0
 25 19  1  0  0  0  0
 25 28  1  0  0  0  0
 26 21  1  0  0  0  0
 27 18  2  0  0  0  0
 28 23  1  6  0  0  0
 28 20  1  0  0  0  0
M  END
>  <MODEL>
7

>  <REMARK>
 VINA RESULT:      -5.7      2.047      3.066
  Name = 
  5 active torsions:
  status: ('A' for Active; 'I' for Inactive)
    1  A    between atoms: N_2  and  C_3
    2  A    between atoms: C_10  and  C_17
    3  A    between atoms: N_16  and  C_27
    4  A    between atoms: C_17  and  C_27
    5  A    between atoms: C_26  and  C_27
                            x       y       z     vdW  Elec       q    Type
                         _______ _______ _______ _____ _____    ______ ____

>  <TORSDO>
F 5

$$$$
=
 OpenBabel11052422523D

 28 31  0  0  1  0  0  0  0  0999 V2000
  161.3790  206.7550  151.2900 C   0  0  1  0  0  3  0  0  0  0  0  0
  160.8520  207.3280  147.8110 C   0  0  0  0  0  3  0  0  0  0  0  0
  161.4330  207.0840  149.8680 N   0  0  0  0  0  0  0  0  0  0  0  0
  162.1210  207.8720  147.9320 C   0  0  0  0  0  3  0  0  0  0  0  0
  160.4560  206.8610  149.0090 N   0  0  0  0  0  0  0  0  0  0  0  0
  162.4580  207.7030  149.2630 C   0  0  0  0  0  3  0  0  0  0  0  0
  163.3690  205.9730  152.3640 O   0  0  0  0  0  0  0  0  0  0  0  0
  162.1950  204.3440  151.1990 N   0  0  0  0  0  2  0  0  0  0  0  0
  162.3780  205.6930  151.6390 C   0  0  0  0  0  0  0  0  0  0  0  0
  161.0570  203.9170  150.3980 C   0  0  2  0  0  3  0  0  0  0  0  0
  159.6990  201.5250  149.6300 C   0  0  0  0  0  2  0  0  0  0  0  0
  160.1590  203.0050  151.2470 C   0  0  0  0  0  2  0  0  0  0  0  0
  161.9560  204.2130  148.0670 C   0  0  0  0  0  1  0  0  0  0  0  0
  161.5410  203.2080  149.1230 C   0  0  2  0  0  3  0  0  0  0  0  0
  160.4830  202.2670  148.5360 C   0  0  0  0  0  2  0  0  0  0  0  0
  160.3180  201.6570  150.8850 O   0  0  0  0  0  0  0  0  0  0  0  0
  161.5830  207.9990  152.1560 C   0  0  0  0  0  2  0  0  0  0  0  0
  159.4630  210.3280  152.7610 C   0  0  0  0  0  3  0  0  0  0  0  0
  160.6720  209.9870  154.8210 C   0  0  0  0  0  0  0  0  0  0  0  0
  160.5810  208.1030  153.3120 C   0  0  2  0  0  3  0  0  0  0  0  0
  159.6380  212.1220  154.3900 C   0  0  0  0  0  0  0  0  0  0  0  0
  160.2220  209.5140  153.6070 C   0  0  0  0  0  0  0  0  0  0  0  0
  160.0810  206.5900  155.2290 C   0  0  0  0  0  1  0  0  0  0  0  0
  160.3860  211.2900  155.2330 C   0  0  0  0  0  3  0  0  0  0  0  0
  161.5810  208.8150  155.7970 S   0  0  0  0  0  0  0  0  0  0  0  0
  159.3310  213.5150  154.8050 C   0  0  0  0  0  1  0  0  0  0  0  0
  159.1740  211.6400  153.1570 C   0  0  0  0  0  3  0  0  0  0  0  0
  161.1310  207.4880  154.6070 C   0  0  2  0  0  3  0  0  0  0  0  0
  1  9  1  0  0  0  0
  1 17  1  1  0  0  0
  2  4  1  0  0  0  0
  2  5  2  0  0  0  0
  3  1  1  0  0  0  0
  4  6  2  0  0  0  0
  5  3  1  0  0  0  0
  6  3  1  0  0  0  0
  8  9  1  0  0  0  0
  9  7  2  0  0  0  0
 10  8  1  1  0  0  0
 10 12  1  0  0  0  0
 11 16  1  0  0  0  0
 14 13  1  6  0  0  0
 14 10  1  0  0  0  0
 15 14  1  0  0  0  0
 15 11  1  0  0  0  0
 16 12  1  0  0  0  0
 18 27  2  0  0  0  0
 18 22  1  0  0  0  0
 19 24  1  0  0  0  0
 19 25  1  0  0  0  0
 20 17  1  6  0  0  0
 20 22  1  0  0  0  0
 20 28  1  0  0  0  0
 21 26  1  0  0  0  0
 21 24  2  0  0  0  0
 22 19  2  0  0  0  0
 27 21  1  0  0  0  0
 28 23  1  1  0  0  0
 28 25  1  0  0  0  0
M  END
>  <MODEL>
8

>  <REMARK>
 VINA RESULT:      -5.7      3.011      7.776
  Name = 
  5 active torsions:
  status: ('A' for Active; 'I' for Inactive)
    1  A    between atoms: N_2  and  C_3
    2  A    between atoms: C_10  and  C_17
    3  A    between atoms: N_16  and  C_27
    4  A    between atoms: C_17  and  C_27
    5  A    between atoms: C_26  and  C_27
                            x       y       z     vdW  Elec       q    Type
                         _______ _______ _______ _____ _____    ______ ____

>  <TORSDO>
F 5

$$$$
=
 OpenBabel11052422523D

 28 31  0  0  1  0  0  0  0  0999 V2000
  161.5560  208.8310  151.1100 C   0  0  1  0  0  3  0  0  0  0  0  0
  160.8320  207.0210  154.0960 C   0  0  0  0  0  3  0  0  0  0  0  0
  161.1150  208.3250  152.4070 N   0  0  0  0  0  0  0  0  0  0  0  0
  160.2510  208.2350  154.4300 C   0  0  0  0  0  3  0  0  0  0  0  0
  161.3540  207.1080  152.8590 N   0  0  0  0  0  0  0  0  0  0  0  0
  160.4570  209.0460  153.3280 C   0  0  0  0  0  3  0  0  0  0  0  0
  163.4560  209.9220  152.0720 O   0  0  0  0  0  0  0  0  0  0  0  0
  162.3180  211.1790  150.4870 N   0  0  0  0  0  2  0  0  0  0  0  0
  162.4860  209.9960  151.2710 C   0  0  0  0  0  0  0  0  0  0  0  0
  161.2560  211.3370  149.5030 C   0  0  2  0  0  3  0  0  0  0  0  0
  160.7680  212.6220  147.0000 C   0  0  0  0  0  2  0  0  0  0  0  0
  161.8020  210.9770  148.1130 C   0  0  0  0  0  2  0  0  0  0  0  0
  159.7250  212.9460  150.6840 C   0  0  0  0  0  1  0  0  0  0  0  0
  160.7040  212.7710  149.5410 C   0  0  2  0  0  3  0  0  0  0  0  0
  160.0260  213.1750  148.2270 C   0  0  0  0  0  2  0  0  0  0  0  0
  162.0380  212.1300  147.3460 O   0  0  0  0  0  0  0  0  0  0  0  0
  162.2060  207.7260  150.2760 C   0  0  0  0  0  2  0  0  0  0  0  0
  160.4560  205.0760  150.7210 C   0  0  0  0  0  3  0  0  0  0  0  0
  161.6040  204.7620  148.6220 C   0  0  0  0  0  0  0  0  0  0  0  0
  161.2320  207.0500  149.3030 C   0  0  2  0  0  3  0  0  0  0  0  0
  160.8980  202.8370  149.8890 C   0  0  0  0  0  0  0  0  0  0  0  0
  161.0870  205.5980  149.5880 C   0  0  0  0  0  0  0  0  0  0  0  0
  160.5170  207.6250  146.9860 C   0  0  0  0  0  1  0  0  0  0  0  0
  161.5150  203.3750  148.7530 C   0  0  0  0  0  3  0  0  0  0  0  0
  162.3310  205.5820  147.2250 S   0  0  0  0  0  0  0  0  0  0  0  0
  160.8010  201.3630  150.0530 C   0  0  0  0  0  1  0  0  0  0  0  0
  160.3650  203.6870  150.8700 C   0  0  0  0  0  3  0  0  0  0  0  0
  161.6870  207.1890  147.8440 C   0  0  2  0  0  3  0  0  0  0  0  0
  1 17  1  1  0  0  0
  1  9  1  0  0  0  0
  1  3  1  0  0  0  0
  2  4  1  0  0  0  0
  3  5  1  0  0  0  0
  3  6  1  0  0  0  0
  5  2  2  0  0  0  0
  6  4  2  0  0  0  0
  8  9  1  0  0  0  0
  9  7  2  0  0  0  0
 10 14  1  0  0  0  0
 10  8  1  1  0  0  0
 11 16  1  0  0  0  0
 11 15  1  0  0  0  0
 12 10  1  0  0  0  0
 14 13  1  1  0  0  0
 15 14  1  0  0  0  0
 16 12  1  0  0  0  0
 18 27  1  0  0  0  0
 19 24  2  0  0  0  0
 19 22  1  0  0  0  0
 20 22  1  0  0  0  0
 20 17  1  1  0  0  0
 21 26  1  0  0  0  0
 21 27  2  0  0  0  0
 22 18  2  0  0  0  0
 24 21  1  0  0  0  0
 25 28  1  0  0  0  0
 25 19  1  0  0  0  0
 28 23  1  6  0  0  0
 28 20  1  0  0  0  0
M  END
>  <MODEL>
9

>  <REMARK>
 VINA RESULT:      -5.5      2.076      3.238
  Name = 
  5 active torsions:
  status: ('A' for Active; 'I' for Inactive)
    1  A    between atoms: N_2  and  C_3
    2  A    between atoms: C_10  and  C_17
    3  A    between atoms: N_16  and  C_27
    4  A    between atoms: C_17  and  C_27
    5  A    between atoms: C_26  and  C_27
                            x       y       z     vdW  Elec       q    Type
                         _______ _______ _______ _____ _____    ______ ____

>  <TORSDO>
F 5

$$$$
