=
 OpenBabel11052422343D

 31 35  0  0  0  0  0  0  0  0999 V2000
  161.1670  201.4160  149.9530 C   0  0  0  0  0  0  0  0  0  0  0  0
  161.1680  205.1050  149.2010 C   0  0  0  0  0  0  0  0  0  0  0  0
  161.2310  205.2460  147.7800 C   0  0  0  0  0  0  0  0  0  0  0  0
  160.9250  206.4970  154.2730 O   0  0  0  0  0  0  0  0  0  0  0  0
  160.9470  207.5430  153.5700 C   0  0  0  0  0  0  0  0  0  0  0  0
  161.3410  204.3420  145.5210 C   0  0  0  0  0  0  0  0  0  0  0  0
  161.1480  203.8580  149.8940 C   0  0  0  0  0  0  0  0  0  0  0  0
  161.1040  201.4360  151.3460 C   0  0  0  0  0  3  0  0  0  0  0  0
  161.2810  204.1520  146.9010 C   0  0  0  0  0  3  0  0  0  0  0  0
  161.0590  206.2340  151.3740 C   0  0  0  0  0  0  0  0  0  0  0  0
  161.2080  200.2330  149.2950 F   0  0  0  0  0  0  0  0  0  0  0  0
  161.1970  207.6590  148.0250 C   0  0  0  0  0  3  0  0  0  0  0  0
  161.3890  203.2780  144.6860 F   0  0  0  0  0  0  0  0  0  0  0  0
  161.0410  205.0270  151.9940 N   0  0  0  0  0  0  0  0  0  0  0  0
  161.1220  206.2990  149.9750 C   0  0  0  0  0  0  0  0  0  0  0  0
  161.0130  207.4470  152.1390 N   0  0  0  0  0  2  0  0  0  0  0  0
  161.1890  202.6140  149.2380 C   0  0  0  0  0  3  0  0  0  0  0  0
  161.3530  205.6380  145.0110 C   0  0  0  0  0  3  0  0  0  0  0  0
  161.0830  203.8590  151.3100 C   0  0  0  0  0  0  0  0  0  0  0  0
  161.0620  202.6560  152.0220 C   0  0  0  0  0  3  0  0  0  0  0  0
  161.1380  207.5170  149.3700 N   0  0  0  0  0  0  0  0  0  0  0  0
  161.2450  206.5390  147.2060 C   0  0  0  0  0  0  0  0  0  0  0  0
  161.3040  206.7000  145.8570 N   0  0  0  0  0  0  0  0  0  0  0  0
  160.7870  211.4530  155.3360 C   0  0  0  0  0  0  0  0  0  0  0  0
  160.4010  209.9630  153.4730 C   0  0  0  0  0  3  0  0  0  0  0  0
  161.8630  208.0710  156.3090 O   0  0  0  0  0  1  0  0  0  0  0  0
  160.7290  212.6930  155.8790 F   0  0  0  0  0  0  0  0  0  0  0  0
  160.3420  211.2420  154.0310 C   0  0  0  0  0  3  0  0  0  0  0  0
  161.3540  209.1040  155.5310 C   0  0  0  0  0  0  0  0  0  0  0  0
  160.9060  208.8790  154.2090 C   0  0  0  0  0  0  0  0  0  0  0  0
  161.2910  210.3880  156.0830 C   0  0  0  0  0  3  0  0  0  0  0  0
  1  8  1  0  0  0  0
  2  7  1  0  0  0  0
  2 15  1  0  0  0  0
  3  2  2  0  0  0  0
  5 30  1  0  0  0  0
  5  4  2  0  0  0  0
  6  9  2  0  0  0  0
  7 19  2  0  0  0  0
  8 20  2  0  0  0  0
  9  3  1  0  0  0  0
 10 14  2  0  0  0  0
 10 16  1  0  0  0  0
 11  1  1  0  0  0  0
 12 21  1  0  0  0  0
 13  6  1  0  0  0  0
 15 10  1  0  0  0  0
 16  5  1  0  0  0  0
 17  7  1  0  0  0  0
 17  1  2  0  0  0  0
 18  6  1  0  0  0  0
 18 23  2  0  0  0  0
 19 14  1  0  0  0  0
 19 20  1  0  0  0  0
 21 15  2  0  0  0  0
 22  3  1  0  0  0  0
 22 12  2  0  0  0  0
 23 22  1  0  0  0  0
 24 27  1  0  0  0  0
 24 31  1  0  0  0  0
 25 28  1  0  0  0  0
 25 30  2  0  0  0  0
 28 24  2  0  0  0  0
 29 31  2  0  0  0  0
 29 26  1  0  0  0  0
 30 29  1  0  0  0  0
M  END
>  <MODEL>
1

>  <REMARK>
 VINA RESULT:     -11.0      0.000      0.000
  Name = 
  1 active torsions:
  status: ('A' for Active; 'I' for Inactive)
    1  A    between atoms: C_9  and  C_22
                            x       y       z     vdW  Elec       q    Type
                         _______ _______ _______ _____ _____    ______ ____

>  <TORSDO>
F 1

$$$$
=
 OpenBabel11052422343D

 31 35  0  0  0  0  0  0  0  0999 V2000
  161.0390  207.3790  154.3700 C   0  0  0  0  0  0  0  0  0  0  0  0
  161.2560  206.9740  150.6330 C   0  0  0  0  0  0  0  0  0  0  0  0
  161.1700  205.5740  150.3550 C   0  0  0  0  0  0  0  0  0  0  0  0
  161.6980  212.1440  149.7440 O   0  0  0  0  0  0  0  0  0  0  0  0
  161.7270  211.5420  148.6370 C   0  0  0  0  0  0  0  0  0  0  0  0
  160.9520  203.2450  151.0320 C   0  0  0  0  0  0  0  0  0  0  0  0
  161.2120  207.5470  151.9390 C   0  0  0  0  0  0  0  0  0  0  0  0
  161.1350  208.7660  154.4850 C   0  0  0  0  0  3  0  0  0  0  0  0
  161.0320  204.5990  151.3560 C   0  0  0  0  0  3  0  0  0  0  0  0
  161.4840  209.2380  149.7230 C   0  0  0  0  0  0  0  0  0  0  0  0
  160.9100  206.6150  155.4800 F   0  0  0  0  0  0  0  0  0  0  0  0
  161.3610  206.0420  147.9820 C   0  0  0  0  0  3  0  0  0  0  0  0
  160.8190  202.3160  152.0080 F   0  0  0  0  0  0  0  0  0  0  0  0
  161.4380  209.7430  150.9820 N   0  0  0  0  0  0  0  0  0  0  0  0
  161.3940  207.8540  149.5230 C   0  0  0  0  0  0  0  0  0  0  0  0
  161.6240  210.1110  148.5930 N   0  0  0  0  0  2  0  0  0  0  0  0
  161.0780  206.7790  153.1100 C   0  0  0  0  0  3  0  0  0  0  0  0
  161.0120  202.8580  149.6960 C   0  0  0  0  0  3  0  0  0  0  0  0
  161.3080  208.9550  152.0750 C   0  0  0  0  0  0  0  0  0  0  0  0
  161.2680  209.5510  153.3390 C   0  0  0  0  0  3  0  0  0  0  0  0
  161.4420  207.3650  148.2540 N   0  0  0  0  0  0  0  0  0  0  0  0
  161.2250  205.1240  149.0150 C   0  0  0  0  0  0  0  0  0  0  0  0
  161.1450  203.7970  148.7240 N   0  0  0  0  0  0  0  0  0  0  0  0
  162.2350  213.7420  144.9840 C   0  0  0  0  0  0  0  0  0  0  0  0
  163.1550  212.6450  146.9320 C   0  0  0  0  0  3  0  0  0  0  0  0
  159.4550  212.3810  146.9760 O   0  0  0  0  0  1  0  0  0  0  0  0
  162.4120  214.4350  143.8340 F   0  0  0  0  0  0  0  0  0  0  0  0
  163.3390  213.3610  145.7460 C   0  0  0  0  0  3  0  0  0  0  0  0
  160.7540  212.6920  146.5930 C   0  0  0  0  0  0  0  0  0  0  0  0
  161.8670  212.3010  147.3720 C   0  0  0  0  0  0  0  0  0  0  0  0
  160.9470  213.4090  145.4060 C   0  0  0  0  0  3  0  0  0  0  0  0
  1  8  1  0  0  0  0
  1 11  1  0  0  0  0
  2  7  1  0  0  0  0
  3  2  1  0  0  0  0
  3  9  1  0  0  0  0
  5  4  2  0  0  0  0
  6  9  2  0  0  0  0
  6 13  1  0  0  0  0
  7 19  2  0  0  0  0
  7 17  1  0  0  0  0
 10 14  2  0  0  0  0
 12 21  2  0  0  0  0
 12 22  1  0  0  0  0
 14 19  1  0  0  0  0
 15 10  1  0  0  0  0
 15  2  2  0  0  0  0
 16  5  1  0  0  0  0
 16 10  1  0  0  0  0
 17  1  2  0  0  0  0
 18  6  1  0  0  0  0
 19 20  1  0  0  0  0
 20  8  2  0  0  0  0
 21 15  1  0  0  0  0
 22  3  2  0  0  0  0
 23 22  1  0  0  0  0
 23 18  2  0  0  0  0
 24 31  2  0  0  0  0
 24 28  1  0  0  0  0
 25 30  1  0  0  0  0
 27 24  1  0  0  0  0
 28 25  2  0  0  0  0
 29 26  1  0  0  0  0
 29 30  2  0  0  0  0
 30  5  1  0  0  0  0
 31 29  1  0  0  0  0
M  END
>  <MODEL>
2

>  <REMARK>
 VINA RESULT:     -10.0      4.367      6.822
  Name = 
  1 active torsions:
  status: ('A' for Active; 'I' for Inactive)
    1  A    between atoms: C_9  and  C_22
                            x       y       z     vdW  Elec       q    Type
                         _______ _______ _______ _____ _____    ______ ____

>  <TORSDO>
F 1

$$$$
=
 OpenBabel11052422343D

 31 35  0  0  0  0  0  0  0  0999 V2000
  161.1430  205.0910  153.1930 C   0  0  0  0  0  0  0  0  0  0  0  0
  161.2910  205.5970  149.4650 C   0  0  0  0  0  0  0  0  0  0  0  0
  161.2060  204.3050  148.8600 C   0  0  0  0  0  0  0  0  0  0  0  0
  161.6970  210.8340  149.8370 O   0  0  0  0  0  0  0  0  0  0  0  0
  161.7070  210.5150  148.6180 C   0  0  0  0  0  0  0  0  0  0  0  0
  161.0090  201.8790  148.9620 C   0  0  0  0  0  0  0  0  0  0  0  0
  161.2690  205.8390  150.8710 C   0  0  0  0  0  0  0  0  0  0  0  0
  161.2350  206.4100  153.6370 C   0  0  0  0  0  3  0  0  0  0  0  0
  161.0900  203.1160  149.6000 C   0  0  0  0  0  3  0  0  0  0  0  0
  161.4930  208.0160  149.1230 C   0  0  0  0  0  0  0  0  0  0  0  0
  161.0370  204.0820  154.0900 F   0  0  0  0  0  0  0  0  0  0  0  0
  161.3510  205.3300  146.6670 C   0  0  0  0  0  3  0  0  0  0  0  0
  160.8980  200.7420  149.6880 F   0  0  0  0  0  0  0  0  0  0  0  0
  161.4690  208.2030  150.4660 N   0  0  0  0  0  0  0  0  0  0  0  0
  161.4060  206.7190  148.5970 C   0  0  0  0  0  0  0  0  0  0  0  0
  161.6090  209.1350  148.2330 N   0  0  0  0  0  2  0  0  0  0  0  0
  161.1610  204.8120  151.8260 C   0  0  0  0  0  3  0  0  0  0  0  0
  161.0460  201.8260  147.5710 C   0  0  0  0  0  3  0  0  0  0  0  0
  161.3620  207.1740  151.3400 C   0  0  0  0  0  0  0  0  0  0  0  0
  161.3440  207.4490  152.7110 C   0  0  0  0  0  3  0  0  0  0  0  0
  161.4310  206.5500  147.2470 N   0  0  0  0  0  0  0  0  0  0  0  0
  161.2370  204.1900  147.4510 C   0  0  0  0  0  0  0  0  0  0  0  0
  161.1570  202.9720  146.8510 N   0  0  0  0  0  0  0  0  0  0  0  0
  161.9410  213.5110  145.5510 C   0  0  0  0  0  0  0  0  0  0  0  0
  160.7420  211.7500  146.6930 C   0  0  0  0  0  3  0  0  0  0  0  0
  164.0710  212.2200  148.2600 O   0  0  0  0  0  1  0  0  0  0  0  0
  161.9990  214.4520  144.5780 F   0  0  0  0  0  0  0  0  0  0  0  0
  160.8000  212.7200  145.6890 C   0  0  0  0  0  3  0  0  0  0  0  0
  162.9720  212.3640  147.4220 C   0  0  0  0  0  0  0  0  0  0  0  0
  161.8210  211.5570  147.5710 C   0  0  0  0  0  0  0  0  0  0  0  0
  163.0230  213.3330  146.4140 C   0  0  0  0  0  3  0  0  0  0  0  0
  1  8  1  0  0  0  0
  1 11  1  0  0  0  0
  2  7  1  0  0  0  0
  3  2  1  0  0  0  0
  3  9  1  0  0  0  0
  5  4  2  0  0  0  0
  6  9  2  0  0  0  0
  6 13  1  0  0  0  0
  7 19  2  0  0  0  0
  7 17  1  0  0  0  0
 10 14  2  0  0  0  0
 12 21  2  0  0  0  0
 12 22  1  0  0  0  0
 14 19  1  0  0  0  0
 15 10  1  0  0  0  0
 15  2  2  0  0  0  0
 16  5  1  0  0  0  0
 16 10  1  0  0  0  0
 17  1  2  0  0  0  0
 18  6  1  0  0  0  0
 19 20  1  0  0  0  0
 20  8  2  0  0  0  0
 21 15  1  0  0  0  0
 22  3  2  0  0  0  0
 23 22  1  0  0  0  0
 23 18  2  0  0  0  0
 24 28  2  0  0  0  0
 24 31  1  0  0  0  0
 25 30  2  0  0  0  0
 27 24  1  0  0  0  0
 28 25  1  0  0  0  0
 29 30  1  0  0  0  0
 29 26  1  0  0  0  0
 30  5  1  0  0  0  0
 31 29  2  0  0  0  0
M  END
>  <MODEL>
3

>  <REMARK>
 VINA RESULT:      -9.9      4.027      5.821
  Name = 
  1 active torsions:
  status: ('A' for Active; 'I' for Inactive)
    1  A    between atoms: C_9  and  C_22
                            x       y       z     vdW  Elec       q    Type
                         _______ _______ _______ _____ _____    ______ ____

>  <TORSDO>
F 1

$$$$
=
 OpenBabel11052422343D

 31 35  0  0  0  0  0  0  0  0999 V2000
  161.6860  205.3870  145.9390 C   0  0  0  0  0  0  0  0  0  0  0  0
  161.1820  204.4960  149.5620 C   0  0  0  0  0  0  0  0  0  0  0  0
  161.1080  203.0710  149.6400 C   0  0  0  0  0  0  0  0  0  0  0  0
  161.2040  209.5120  151.1630 O   0  0  0  0  0  0  0  0  0  0  0  0
  161.0420  208.7690  152.1690 C   0  0  0  0  0  0  0  0  0  0  0  0
  161.1350  200.8480  148.6460 C   0  0  0  0  0  0  0  0  0  0  0  0
  161.3700  205.2360  148.3560 C   0  0  0  0  0  0  0  0  0  0  0  0
  161.7380  206.7790  146.0200 C   0  0  0  0  0  3  0  0  0  0  0  0
  161.2130  202.2340  148.5170 C   0  0  0  0  0  3  0  0  0  0  0  0
  161.1230  206.6250  150.7760 C   0  0  0  0  0  0  0  0  0  0  0  0
  161.8110  204.7740  144.7380 F   0  0  0  0  0  0  0  0  0  0  0  0
  160.8080  203.2250  152.0420 C   0  0  0  0  0  3  0  0  0  0  0  0
  161.2390  200.0530  147.5550 F   0  0  0  0  0  0  0  0  0  0  0  0
  161.3030  207.2900  149.6070 N   0  0  0  0  0  0  0  0  0  0  0  0
  161.0590  205.2250  150.7790 C   0  0  0  0  0  0  0  0  0  0  0  0
  160.9970  207.3430  152.0110 N   0  0  0  0  0  2  0  0  0  0  0  0
  161.5030  204.6270  147.0950 C   0  0  0  0  0  3  0  0  0  0  0  0
  160.9480  200.2890  149.9080 C   0  0  0  0  0  3  0  0  0  0  0  0
  161.4250  206.6510  148.4200 C   0  0  0  0  0  0  0  0  0  0  0  0
  161.6080  207.4080  147.2590 C   0  0  0  0  0  3  0  0  0  0  0  0
  160.8790  204.5740  151.9600 N   0  0  0  0  0  0  0  0  0  0  0  0
  160.9190  202.4480  150.8960 C   0  0  0  0  0  0  0  0  0  0  0  0
  160.8460  201.0940  150.9970 N   0  0  0  0  0  0  0  0  0  0  0  0
  160.6230  210.5700  156.0450 C   0  0  0  0  0  0  0  0  0  0  0  0
  160.8980  210.7560  153.6510 C   0  0  0  0  0  3  0  0  0  0  0  0
  160.7410  207.1790  154.6190 O   0  0  0  0  0  1  0  0  0  0  0  0
  160.4920  211.1530  157.2600 F   0  0  0  0  0  0  0  0  0  0  0  0
  160.7640  211.3590  154.9040 C   0  0  0  0  0  3  0  0  0  0  0  0
  160.7530  208.5670  154.6840 C   0  0  0  0  0  0  0  0  0  0  0  0
  160.8950  209.3580  153.5210 C   0  0  0  0  0  0  0  0  0  0  0  0
  160.6180  209.1780  155.9350 C   0  0  0  0  0  3  0  0  0  0  0  0
  1  8  2  0  0  0  0
  1 17  1  0  0  0  0
  2  3  2  0  0  0  0
  2 15  1  0  0  0  0
  3 22  1  0  0  0  0
  4  5  2  0  0  0  0
  5 30  1  0  0  0  0
  6 18  1  0  0  0  0
  7 19  1  0  0  0  0
  7  2  1  0  0  0  0
  8 20  1  0  0  0  0
  9  6  2  0  0  0  0
  9  3  1  0  0  0  0
 10 15  1  0  0  0  0
 10 16  1  0  0  0  0
 11  1  1  0  0  0  0
 13  6  1  0  0  0  0
 14 10  2  0  0  0  0
 15 21  2  0  0  0  0
 16  5  1  0  0  0  0
 17  7  2  0  0  0  0
 18 23  2  0  0  0  0
 19 14  1  0  0  0  0
 20 19  2  0  0  0  0
 21 12  1  0  0  0  0
 22 23  1  0  0  0  0
 22 12  2  0  0  0  0
 24 27  1  0  0  0  0
 25 28  1  0  0  0  0
 26 29  1  0  0  0  0
 28 24  2  0  0  0  0
 29 31  2  0  0  0  0
 30 25  2  0  0  0  0
 30 29  1  0  0  0  0
 31 24  1  0  0  0  0
M  END
>  <MODEL>
4

>  <REMARK>
 VINA RESULT:      -9.4      1.465      4.042
  Name = 
  1 active torsions:
  status: ('A' for Active; 'I' for Inactive)
    1  A    between atoms: C_9  and  C_22
                            x       y       z     vdW  Elec       q    Type
                         _______ _______ _______ _____ _____    ______ ____

>  <TORSDO>
F 1

$$$$
=
 OpenBabel11052422343D

 31 35  0  0  0  0  0  0  0  0999 V2000
  161.8570  210.9360  150.0490 C   0  0  0  0  0  0  0  0  0  0  0  0
  161.3530  207.4910  151.4830 C   0  0  0  0  0  0  0  0  0  0  0  0
  161.2160  207.6390  152.8980 C   0  0  0  0  0  0  0  0  0  0  0  0
  161.6140  205.1160  146.7910 O   0  0  0  0  0  0  0  0  0  0  0  0
  161.4300  204.2380  147.6770 C   0  0  0  0  0  0  0  0  0  0  0  0
  161.1330  208.9730  154.9340 C   0  0  0  0  0  0  0  0  0  0  0  0
  161.5600  208.5680  150.5700 C   0  0  0  0  0  0  0  0  0  0  0  0
  161.9730  210.6370  148.6920 C   0  0  0  0  0  3  0  0  0  0  0  0
  161.2730  208.8820  153.5500 C   0  0  0  0  0  3  0  0  0  0  0  0
  161.4010  205.9550  149.5740 C   0  0  0  0  0  0  0  0  0  0  0  0
  161.9440  212.2210  150.4690 F   0  0  0  0  0  0  0  0  0  0  0  0
  160.9470  205.2380  153.1160 C   0  0  0  0  0  3  0  0  0  0  0  0
  161.1900  210.1780  155.5480 F   0  0  0  0  0  0  0  0  0  0  0  0
  161.5970  207.0070  148.7390 N   0  0  0  0  0  0  0  0  0  0  0  0
  161.2750  206.1730  150.9530 C   0  0  0  0  0  0  0  0  0  0  0  0
  161.3210  204.6190  149.0570 N   0  0  0  0  0  2  0  0  0  0  0  0
  161.6540  209.9120  150.9760 C   0  0  0  0  0  3  0  0  0  0  0  0
  160.9350  207.8130  155.6780 C   0  0  0  0  0  3  0  0  0  0  0  0
  161.6800  208.2820  149.1860 C   0  0  0  0  0  0  0  0  0  0  0  0
  161.8830  209.3120  148.2630 C   0  0  0  0  0  3  0  0  0  0  0  0
  161.0780  205.1070  151.7750 N   0  0  0  0  0  0  0  0  0  0  0  0
  161.0130  206.4940  153.7040 C   0  0  0  0  0  0  0  0  0  0  0  0
  160.8790  206.6080  155.0530 N   0  0  0  0  0  0  0  0  0  0  0  0
  161.1470  200.0670  146.6970 C   0  0  0  0  0  0  0  0  0  0  0  0
  161.5590  201.8370  148.2910 C   0  0  0  0  0  3  0  0  0  0  0  0
  160.7500  203.2980  144.9790 O   0  0  0  0  0  1  0  0  0  0  0  0
  161.0610  198.7480  146.4040 F   0  0  0  0  0  0  0  0  0  0  0  0
  161.4720  200.4750  147.9910 C   0  0  0  0  0  3  0  0  0  0  0  0
  160.9950  202.3840  145.9970 C   0  0  0  0  0  0  0  0  0  0  0  0
  161.3240  202.8080  147.3050 C   0  0  0  0  0  0  0  0  0  0  0  0
  160.9090  201.0190  145.7040 C   0  0  0  0  0  3  0  0  0  0  0  0
  1 11  1  0  0  0  0
  1 17  1  0  0  0  0
  2  3  1  0  0  0  0
  3  9  2  0  0  0  0
  3 22  1  0  0  0  0
  4  5  2  0  0  0  0
  5 16  1  0  0  0  0
  6 13  1  0  0  0  0
  6 18  2  0  0  0  0
  7 17  2  0  0  0  0
  7  2  1  0  0  0  0
  8  1  2  0  0  0  0
  9  6  1  0  0  0  0
 10 15  1  0  0  0  0
 12 22  1  0  0  0  0
 14 19  1  0  0  0  0
 14 10  2  0  0  0  0
 15  2  2  0  0  0  0
 15 21  1  0  0  0  0
 16 10  1  0  0  0  0
 19  7  1  0  0  0  0
 20  8  1  0  0  0  0
 20 19  2  0  0  0  0
 21 12  2  0  0  0  0
 22 23  2  0  0  0  0
 23 18  1  0  0  0  0
 24 28  1  0  0  0  0
 26 29  1  0  0  0  0
 27 24  1  0  0  0  0
 28 25  2  0  0  0  0
 29 30  2  0  0  0  0
 30  5  1  0  0  0  0
 30 25  1  0  0  0  0
 31 29  1  0  0  0  0
 31 24  2  0  0  0  0
M  END
>  <MODEL>
5

>  <REMARK>
 VINA RESULT:      -9.3      3.177      9.181
  Name = 
  1 active torsions:
  status: ('A' for Active; 'I' for Inactive)
    1  A    between atoms: C_9  and  C_22
                            x       y       z     vdW  Elec       q    Type
                         _______ _______ _______ _____ _____    ______ ____

>  <TORSDO>
F 1

$$$$
=
 OpenBabel11052422343D

 31 35  0  0  0  0  0  0  0  0999 V2000
  161.7880  205.1890  146.0230 C   0  0  0  0  0  0  0  0  0  0  0  0
  161.2470  204.7520  149.7240 C   0  0  0  0  0  0  0  0  0  0  0  0
  161.1370  203.3490  149.9710 C   0  0  0  0  0  0  0  0  0  0  0  0
  161.3910  209.9220  150.7120 O   0  0  0  0  0  0  0  0  0  0  0  0
  161.2060  209.3100  151.7980 C   0  0  0  0  0  0  0  0  0  0  0  0
  161.1110  201.0220  149.2510 C   0  0  0  0  0  0  0  0  0  0  0  0
  161.4590  205.3370  148.4390 C   0  0  0  0  0  0  0  0  0  0  0  0
  161.8750  206.5780  145.9370 C   0  0  0  0  0  3  0  0  0  0  0  0
  161.2250  202.3800  148.9580 C   0  0  0  0  0  3  0  0  0  0  0  0
  161.2380  207.0120  150.6730 C   0  0  0  0  0  0  0  0  0  0  0  0
  161.9030  204.4330  144.9050 F   0  0  0  0  0  0  0  0  0  0  0  0
  160.8310  203.7970  152.3350 C   0  0  0  0  0  3  0  0  0  0  0  0
  161.1980  200.1000  148.2640 F   0  0  0  0  0  0  0  0  0  0  0  0
  161.4390  207.5270  149.4340 N   0  0  0  0  0  0  0  0  0  0  0  0
  161.1380  205.6240  150.8430 C   0  0  0  0  0  0  0  0  0  0  0  0
  161.1250  207.8760  151.8120 N   0  0  0  0  0  2  0  0  0  0  0  0
  161.5810  204.5780  147.2610 C   0  0  0  0  0  3  0  0  0  0  0  0
  160.9050  200.6240  150.5700 C   0  0  0  0  0  3  0  0  0  0  0  0
  161.5500  206.7480  148.3330 C   0  0  0  0  0  0  0  0  0  0  0  0
  161.7570  207.3550  147.0900 C   0  0  0  0  0  3  0  0  0  0  0  0
  160.9370  205.1250  152.0930 N   0  0  0  0  0  0  0  0  0  0  0  0
  160.9270  202.8870  151.2920 C   0  0  0  0  0  0  0  0  0  0  0  0
  160.8180  201.5560  151.5530 N   0  0  0  0  0  0  0  0  0  0  0  0
  160.8990  211.4430  155.5120 C   0  0  0  0  0  0  0  0  0  0  0  0
  162.0710  209.9220  154.0430 C   0  0  0  0  0  3  0  0  0  0  0  0
  158.9480  211.0840  152.4120 O   0  0  0  0  0  1  0  0  0  0  0  0
  160.8180  212.1090  156.6890 F   0  0  0  0  0  0  0  0  0  0  0  0
  161.9870  210.6080  155.2570 C   0  0  0  0  0  3  0  0  0  0  0  0
  159.9700  210.9080  153.3370 C   0  0  0  0  0  0  0  0  0  0  0  0
  161.0690  210.0600  153.0690 C   0  0  0  0  0  0  0  0  0  0  0  0
  159.8940  211.5910  154.5550 C   0  0  0  0  0  3  0  0  0  0  0  0
  1 17  1  0  0  0  0
  2  3  2  0  0  0  0
  2 15  1  0  0  0  0
  3 22  1  0  0  0  0
  4  5  2  0  0  0  0
  5 16  1  0  0  0  0
  5 30  1  0  0  0  0
  6 18  1  0  0  0  0
  7  2  1  0  0  0  0
  8  1  2  0  0  0  0
  8 20  1  0  0  0  0
  9  6  2  0  0  0  0
  9  3  1  0  0  0  0
 10 15  1  0  0  0  0
 10 16  1  0  0  0  0
 11  1  1  0  0  0  0
 13  6  1  0  0  0  0
 14 10  2  0  0  0  0
 15 21  2  0  0  0  0
 17  7  2  0  0  0  0
 18 23  2  0  0  0  0
 19  7  1  0  0  0  0
 19 14  1  0  0  0  0
 20 19  2  0  0  0  0
 21 12  1  0  0  0  0
 22 23  1  0  0  0  0
 22 12  2  0  0  0  0
 24 27  1  0  0  0  0
 25 28  2  0  0  0  0
 26 29  1  0  0  0  0
 28 24  1  0  0  0  0
 29 31  1  0  0  0  0
 30 29  2  0  0  0  0
 30 25  1  0  0  0  0
 31 24  2  0  0  0  0
M  END
>  <MODEL>
6

>  <REMARK>
 VINA RESULT:      -9.2      1.801      4.263
  Name = 
  1 active torsions:
  status: ('A' for Active; 'I' for Inactive)
    1  A    between atoms: C_9  and  C_22
                            x       y       z     vdW  Elec       q    Type
                         _______ _______ _______ _____ _____    ______ ____

>  <TORSDO>
F 1

$$$$
=
 OpenBabel11052422343D

 31 35  0  0  0  0  0  0  0  0999 V2000
  161.8500  210.9380  150.0490 C   0  0  0  0  0  0  0  0  0  0  0  0
  161.3320  207.5050  151.5060 C   0  0  0  0  0  0  0  0  0  0  0  0
  161.1950  207.6630  152.9200 C   0  0  0  0  0  0  0  0  0  0  0  0
  161.5850  205.0980  146.8300 O   0  0  0  0  0  0  0  0  0  0  0  0
  161.3970  204.2270  147.7210 C   0  0  0  0  0  0  0  0  0  0  0  0
  161.1170  209.0110  154.9470 C   0  0  0  0  0  0  0  0  0  0  0  0
  161.5440  208.5750  150.5850 C   0  0  0  0  0  0  0  0  0  0  0  0
  161.9650  210.6290  148.6940 C   0  0  0  0  0  3  0  0  0  0  0  0
  161.2570  208.9100  153.5630 C   0  0  0  0  0  3  0  0  0  0  0  0
  161.3750  205.9560  149.6070 C   0  0  0  0  0  0  0  0  0  0  0  0
  161.9420  212.2260  150.4600 F   0  0  0  0  0  0  0  0  0  0  0  0
  160.9180  205.2650  153.1530 C   0  0  0  0  0  3  0  0  0  0  0  0
  161.1790  210.2200  155.5530 F   0  0  0  0  0  0  0  0  0  0  0  0
  161.5750  207.0010  148.7650 N   0  0  0  0  0  0  0  0  0  0  0  0
  161.2500  206.1830  150.9850 C   0  0  0  0  0  0  0  0  0  0  0  0
  161.2900  204.6170  149.0990 N   0  0  0  0  0  2  0  0  0  0  0  0
  161.6430  209.9210  150.9820 C   0  0  0  0  0  3  0  0  0  0  0  0
  160.9150  207.8560  155.6980 C   0  0  0  0  0  3  0  0  0  0  0  0
  161.6630  208.2790  149.2040 C   0  0  0  0  0  0  0  0  0  0  0  0
  161.8700  209.3020  148.2730 C   0  0  0  0  0  3  0  0  0  0  0  0
  161.0490  205.1240  151.8130 N   0  0  0  0  0  0  0  0  0  0  0  0
  160.9880  206.5240  153.7330 C   0  0  0  0  0  0  0  0  0  0  0  0
  160.8550  206.6480  155.0810 N   0  0  0  0  0  0  0  0  0  0  0  0
  161.0640  200.1030  146.5730 C   0  0  0  0  0  0  0  0  0  0  0  0
  161.0950  202.4530  146.0110 C   0  0  0  0  0  3  0  0  0  0  0  0
  161.5550  202.0330  149.6670 O   0  0  0  0  0  1  0  0  0  0  0  0
  160.9570  198.8070  146.1940 F   0  0  0  0  0  0  0  0  0  0  0  0
  160.9830  201.1170  145.6190 C   0  0  0  0  0  3  0  0  0  0  0  0
  161.3660  201.7590  148.3180 C   0  0  0  0  0  0  0  0  0  0  0  0
  161.2860  202.7940  147.3590 C   0  0  0  0  0  0  0  0  0  0  0  0
  161.2540  200.4230  147.9180 C   0  0  0  0  0  3  0  0  0  0  0  0
  1 11  1  0  0  0  0
  1 17  1  0  0  0  0
  2  3  1  0  0  0  0
  3  9  2  0  0  0  0
  3 22  1  0  0  0  0
  4  5  2  0  0  0  0
  5 16  1  0  0  0  0
  6 13  1  0  0  0  0
  6 18  2  0  0  0  0
  7 17  2  0  0  0  0
  7  2  1  0  0  0  0
  8  1  2  0  0  0  0
  9  6  1  0  0  0  0
 10 15  1  0  0  0  0
 12 22  1  0  0  0  0
 14 19  1  0  0  0  0
 14 10  2  0  0  0  0
 15  2  2  0  0  0  0
 15 21  1  0  0  0  0
 16 10  1  0  0  0  0
 19  7  1  0  0  0  0
 20  8  1  0  0  0  0
 20 19  2  0  0  0  0
 21 12  2  0  0  0  0
 22 23  2  0  0  0  0
 23 18  1  0  0  0  0
 24 31  1  0  0  0  0
 25 30  2  0  0  0  0
 27 24  1  0  0  0  0
 28 25  1  0  0  0  0
 28 24  2  0  0  0  0
 29 26  1  0  0  0  0
 30  5  1  0  0  0  0
 30 29  1  0  0  0  0
 31 29  2  0  0  0  0
M  END
>  <MODEL>
7

>  <REMARK>
 VINA RESULT:      -8.6      2.885      9.025
  Name = 
  1 active torsions:
  status: ('A' for Active; 'I' for Inactive)
    1  A    between atoms: C_9  and  C_22
                            x       y       z     vdW  Elec       q    Type
                         _______ _______ _______ _____ _____    ______ ____

>  <TORSDO>
F 1

$$$$
