=
 OpenBabel11062410463D

 32 37  0  0  1  0  0  0  0  0999 V2000
  159.6200  211.2010  155.7900 N   0  0  0  0  0  0  0  0  0  0  0  0
  162.2290  209.4740  151.6210 N   0  0  0  0  0  0  0  0  0  0  0  0
  161.5360  210.6710  153.7020 C   0  0  1  0  0  3  0  0  0  0  0  0
  159.8210  209.4480  152.3910 C   0  0  0  0  0  2  0  0  0  0  0  0
  159.1850  210.5790  154.5250 C   0  0  0  0  0  2  0  0  0  0  0  0
  160.9420  208.7520  151.6030 C   0  0  2  0  0  3  0  0  0  0  0  0
  160.9920  210.8460  156.1940 C   0  0  0  0  0  2  0  0  0  0  0  0
  160.2860  209.8080  153.7920 C   0  0  2  0  0  3  0  0  0  0  0  0
  162.0300  211.0940  155.0860 C   0  0  0  0  0  2  0  0  0  0  0  0
  162.6360  209.9050  152.9680 C   0  0  0  0  0  2  0  0  0  0  0  0
  162.1330  210.6400  150.7540 C   0  0  0  0  0  1  0  0  0  0  0  0
  161.1990  205.5420  153.6420 C   0  0  0  0  0  3  0  0  0  0  0  0
  161.2500  204.5740  152.6380 C   0  0  0  0  0  3  0  0  0  0  0  0
  161.1130  206.8940  153.3030 C   0  0  0  0  0  3  0  0  0  0  0  0
  161.0870  207.2940  151.9580 C   0  0  0  0  0  0  0  0  0  0  0  0
  161.2170  204.9580  151.2960 C   0  0  0  0  0  3  0  0  0  0  0  0
  161.1460  206.3140  150.9470 C   0  0  0  0  0  0  0  0  0  0  0  0
  161.0800  206.6950  149.5000 C   0  0  0  0  0  2  0  0  0  0  0  0
  160.5190  205.5990  148.7040 N   0  0  0  0  0  2  0  0  0  0  0  0
  162.1750  205.8110  145.7040 C   0  0  0  0  0  2  0  0  0  0  0  0
  161.1740  204.9750  146.4720 C   0  0  0  0  0  0  0  0  0  0  0  0
  161.8050  203.5920  148.3560 C   0  0  2  0  0  3  0  0  0  0  0  0
  161.6800  202.5960  147.1960 C   0  0  2  0  0  3  0  0  0  0  0  0
  160.9570  203.3650  145.7120 S   0  0  0  0  0  0  0  0  0  0  0  0
  160.7300  206.2660  145.8130 C   0  0  0  0  0  2  0  0  0  0  0  0
  160.6410  202.6090  148.2920 C   0  0  0  0  0  2  0  0  0  0  0  0
  161.4940  204.9580  147.8940 N   0  0  0  0  0  0  0  0  0  0  0  0
  159.5200  212.6480  155.6360 C   0  0  0  0  0  2  0  0  0  0  0  0
  158.4190  213.0060  154.6470 C   0  0  0  0  0  2  0  0  0  0  0  0
  158.9500  213.8230  153.5130 C   0  0  0  0  0  3  0  0  0  0  0  0
  159.6640  214.1240  151.1950 C   0  0  0  0  0  1  0  0  0  0  0  0
  159.1320  213.2890  152.3070 C   0  0  0  0  0  3  0  0  0  0  0  0
  1  7  1  0  0  0  0
  2 10  1  0  0  0  0
  3 10  1  1  0  0  0
  3  8  1  0  0  0  0
  3  9  1  0  0  0  0
  5  1  1  0  0  0  0
  6  2  1  0  0  0  0
  6 15  1  1  0  0  0
  6  4  1  0  0  0  0
  8  4  1  6  0  0  0
  8  5  1  0  0  0  0
  9  7  1  0  0  0  0
 11  2  1  0  0  0  0
 13 12  2  0  0  0  0
 14 12  1  0  0  0  0
 15 14  2  0  0  0  0
 16 13  1  0  0  0  0
 17 16  2  0  0  0  0
 17 15  1  0  0  0  0
 18 17  1  0  0  0  0
 19 18  1  0  0  0  0
 20 25  1  0  0  0  0
 20 21  1  0  0  0  0
 21 27  1  0  0  0  0
 22 26  1  1  0  0  0
 23 26  1  1  0  0  0
 23 22  1  0  0  0  0
 24 21  1  0  0  0  0
 24 23  1  0  0  0  0
 25 21  1  0  0  0  0
 27 22  1  0  0  0  0
 27 19  1  0  0  0  0
 28  1  1  0  0  0  0
 29 28  1  0  0  0  0
 30 29  1  0  0  0  0
 31 32  1  0  0  0  0
 32 30  2  0  0  0  0
M  END
>  <MODEL>
1

>  <REMARK>
 VINA RESULT:      -6.6      0.000      0.000
  Name = 
  7 active torsions:
  status: ('A' for Active; 'I' for Inactive)
    1  A    between atoms: C_1  and  C_10
    2  A    between atoms: N_2  and  C_24
    3  A    between atoms: C_10  and  C_24
    4  A    between atoms: C_14  and  C_15
    5  A    between atoms: C_16  and  C_26
    6  A    between atoms: C_16  and  N_27
    7  A    between atoms: N_27  and  N_32
                            x       y       z     vdW  Elec       q    Type
                         _______ _______ _______ _____ _____    ______ ____

>  <TORSDO>
F 7

$$$$
=
 OpenBabel11062410463D

 32 37  0  0  1  0  0  0  0  0999 V2000
  160.0900  210.8370  156.2800 N   0  0  0  0  0  0  0  0  0  0  0  0
  162.1350  209.4790  151.6820 N   0  0  0  0  0  0  0  0  0  0  0  0
  161.7160  210.5000  153.9230 C   0  0  1  0  0  3  0  0  0  0  0  0
  159.8510  209.3550  152.7570 C   0  0  0  0  0  2  0  0  0  0  0  0
  159.4960  210.3070  155.0380 C   0  0  0  0  0  2  0  0  0  0  0  0
  160.8610  208.7400  151.7760 C   0  0  2  0  0  3  0  0  0  0  0  0
  161.5060  210.4740  156.4710 C   0  0  0  0  0  2  0  0  0  0  0  0
  160.4940  209.6140  154.1080 C   0  0  2  0  0  3  0  0  0  0  0  0
  162.3860  210.8240  155.2590 C   0  0  0  0  0  2  0  0  0  0  0  0
  162.7140  209.8110  152.9930 C   0  0  0  0  0  2  0  0  0  0  0  0
  161.9180  210.7070  150.9300 C   0  0  0  0  0  1  0  0  0  0  0  0
  161.1950  205.3580  153.5020 C   0  0  0  0  0  3  0  0  0  0  0  0
  161.3240  204.4970  152.4120 C   0  0  0  0  0  3  0  0  0  0  0  0
  161.0580  206.7320  153.2930 C   0  0  0  0  0  3  0  0  0  0  0  0
  161.0600  207.2610  151.9930 C   0  0  0  0  0  0  0  0  0  0  0  0
  161.3200  205.0100  151.1140 C   0  0  0  0  0  3  0  0  0  0  0  0
  161.1990  206.3890  150.8950 C   0  0  0  0  0  0  0  0  0  0  0  0
  161.1670  206.9080  149.4910 C   0  0  0  0  0  2  0  0  0  0  0  0
  161.8660  205.9890  148.5860 N   0  0  0  0  0  2  0  0  0  0  0  0
  160.3620  202.9450  148.0800 C   0  0  0  0  0  2  0  0  0  0  0  0
  161.3710  203.9040  147.4880 C   0  0  0  0  0  0  0  0  0  0  0  0
  160.7300  206.0010  146.4620 C   0  0  2  0  0  3  0  0  0  0  0  0
  160.9790  205.0710  145.2680 C   0  0  2  0  0  3  0  0  0  0  0  0
  161.7300  203.4920  145.7790 S   0  0  0  0  0  0  0  0  0  0  0  0
  161.7670  203.0170  148.6510 C   0  0  0  0  0  2  0  0  0  0  0  0
  161.9550  206.1830  145.5730 C   0  0  0  0  0  2  0  0  0  0  0  0
  160.9770  205.2870  147.7290 N   0  0  0  0  0  0  0  0  0  0  0  0
  159.9630  212.2890  156.2540 C   0  0  0  0  0  2  0  0  0  0  0  0
  158.6640  212.7000  155.5720 C   0  0  0  0  0  2  0  0  0  0  0  0
  158.9160  213.6680  154.4610 C   0  0  0  0  0  3  0  0  0  0  0  0
  158.9660  214.3080  152.1030 C   0  0  0  0  0  1  0  0  0  0  0  0
  158.7070  213.3260  153.1910 C   0  0  0  0  0  3  0  0  0  0  0  0
  1  7  1  0  0  0  0
  2  6  1  0  0  0  0
  2 10  1  0  0  0  0
  3 10  1  6  0  0  0
  3  8  1  0  0  0  0
  3  9  1  0  0  0  0
  5  1  1  0  0  0  0
  6 15  1  1  0  0  0
  6  4  1  0  0  0  0
  8  4  1  6  0  0  0
  8  5  1  0  0  0  0
  9  7  1  0  0  0  0
 11  2  1  0  0  0  0
 13 12  2  0  0  0  0
 14 12  1  0  0  0  0
 15 14  2  0  0  0  0
 16 13  1  0  0  0  0
 17 16  2  0  0  0  0
 17 15  1  0  0  0  0
 18 17  1  0  0  0  0
 19 18  1  0  0  0  0
 20 25  1  0  0  0  0
 21 27  1  0  0  0  0
 21 20  1  0  0  0  0
 21 25  1  0  0  0  0
 22 26  1  6  0  0  0
 22 27  1  0  0  0  0
 23 26  1  6  0  0  0
 23 24  1  0  0  0  0
 23 22  1  0  0  0  0
 24 21  1  0  0  0  0
 27 19  1  0  0  0  0
 28  1  1  0  0  0  0
 29 28  1  0  0  0  0
 30 29  1  0  0  0  0
 31 32  1  0  0  0  0
 32 30  2  0  0  0  0
M  END
>  <MODEL>
2

>  <REMARK>
 VINA RESULT:      -6.4      0.649      1.699
  Name = 
  7 active torsions:
  status: ('A' for Active; 'I' for Inactive)
    1  A    between atoms: C_1  and  C_10
    2  A    between atoms: N_2  and  C_24
    3  A    between atoms: C_10  and  C_24
    4  A    between atoms: C_14  and  C_15
    5  A    between atoms: C_16  and  C_26
    6  A    between atoms: C_16  and  N_27
    7  A    between atoms: N_27  and  N_32
                            x       y       z     vdW  Elec       q    Type
                         _______ _______ _______ _____ _____    ______ ____

>  <TORSDO>
F 7

$$$$
=
 OpenBabel11062410463D

 32 37  0  0  1  0  0  0  0  0999 V2000
  161.3780  203.3360  151.9450 N   0  0  0  0  0  0  0  0  0  0  0  0
  161.5970  207.7520  149.1840 N   0  0  0  0  0  0  0  0  0  0  0  0
  161.1560  205.4200  149.9650 C   0  0  1  0  0  3  0  0  0  0  0  0
  162.8270  206.7960  151.1760 C   0  0  0  0  0  2  0  0  0  0  0  0
  162.2910  204.4940  151.9820 C   0  0  0  0  0  2  0  0  0  0  0  0
  162.3060  208.0440  150.4460 C   0  0  2  0  0  3  0  0  0  0  0  0
  160.0340  203.6460  151.4250 C   0  0  0  0  0  2  0  0  0  0  0  0
  161.7270  205.7610  151.3330 C   0  0  2  0  0  3  0  0  0  0  0  0
  160.0650  204.3530  150.0590 C   0  0  0  0  0  2  0  0  0  0  0  0
  160.5940  206.6840  149.3140 C   0  0  0  0  0  2  0  0  0  0  0  0
  162.5700  207.3740  148.1690 C   0  0  0  0  0  1  0  0  0  0  0  0
  160.1290  209.3040  153.3090 C   0  0  0  0  0  3  0  0  0  0  0  0
  160.1650  210.6830  153.1050 C   0  0  0  0  0  3  0  0  0  0  0  0
  160.8120  208.4520  152.4390 C   0  0  0  0  0  3  0  0  0  0  0  0
  161.5300  208.9680  151.3490 C   0  0  0  0  0  0  0  0  0  0  0  0
  160.8820  211.2110  152.0290 C   0  0  0  0  0  3  0  0  0  0  0  0
  161.5580  210.3620  151.1420 C   0  0  0  0  0  0  0  0  0  0  0  0
  162.3440  210.9570  150.0150 C   0  0  0  0  0  2  0  0  0  0  0  0
  161.4460  211.4990  148.9900 N   0  0  0  0  0  2  0  0  0  0  0  0
  159.8680  214.4510  149.7530 C   0  0  0  0  0  2  0  0  0  0  0  0
  160.2760  213.5670  148.5950 C   0  0  0  0  0  0  0  0  0  0  0  0
  162.5790  213.3190  147.8920 C   0  0  2  0  0  3  0  0  0  0  0  0
  161.9900  214.3040  146.8750 C   0  0  2  0  0  3  0  0  0  0  0  0
  160.1810  214.4530  147.0390 S   0  0  0  0  0  0  0  0  0  0  0  0
  159.0540  213.2140  149.4190 C   0  0  0  0  0  2  0  0  0  0  0  0
  162.3140  212.8900  146.4540 C   0  0  0  0  0  2  0  0  0  0  0  0
  161.5490  212.9100  148.8660 N   0  0  0  0  0  0  0  0  0  0  0  0
  161.9930  202.3070  151.1140 C   0  0  0  0  0  2  0  0  0  0  0  0
  160.9310  201.3800  150.5380 C   0  0  0  0  0  2  0  0  0  0  0  0
  161.2130  201.0530  149.1070 C   0  0  0  0  0  3  0  0  0  0  0  0
  160.8830  201.3470  146.7030 C   0  0  0  0  0  1  0  0  0  0  0  0
  160.5860  201.6910  148.1200 C   0  0  0  0  0  3  0  0  0  0  0  0
  1  5  1  0  0  0  0
  2 10  1  0  0  0  0
  2  6  1  0  0  0  0
  3 10  1  1  0  0  0
  3  9  1  0  0  0  0
  3  8  1  0  0  0  0
  6  4  1  0  0  0  0
  6 15  1  1  0  0  0
  7  1  1  0  0  0  0
  8  4  1  6  0  0  0
  8  5  1  0  0  0  0
  9  7  1  0  0  0  0
 11  2  1  0  0  0  0
 13 12  1  0  0  0  0
 14 12  2  0  0  0  0
 15 14  1  0  0  0  0
 16 13  2  0  0  0  0
 17 15  2  0  0  0  0
 17 16  1  0  0  0  0
 18 17  1  0  0  0  0
 19 18  1  0  0  0  0
 21 27  1  0  0  0  0
 21 25  1  0  0  0  0
 21 20  1  0  0  0  0
 22 26  1  6  0  0  0
 22 27  1  0  0  0  0
 23 26  1  6  0  0  0
 23 24  1  0  0  0  0
 23 22  1  0  0  0  0
 24 21  1  0  0  0  0
 25 20  1  0  0  0  0
 27 19  1  0  0  0  0
 28  1  1  0  0  0  0
 29 28  1  0  0  0  0
 30 29  1  0  0  0  0
 31 32  1  0  0  0  0
 32 30  2  0  0  0  0
M  END
>  <MODEL>
3

>  <REMARK>
 VINA RESULT:      -6.3      3.182      8.273
  Name = 
  7 active torsions:
  status: ('A' for Active; 'I' for Inactive)
    1  A    between atoms: C_1  and  C_10
    2  A    between atoms: N_2  and  C_24
    3  A    between atoms: C_10  and  C_24
    4  A    between atoms: C_14  and  C_15
    5  A    between atoms: C_16  and  C_26
    6  A    between atoms: C_16  and  N_27
    7  A    between atoms: N_27  and  N_32
                            x       y       z     vdW  Elec       q    Type
                         _______ _______ _______ _____ _____    ______ ____

>  <TORSDO>
F 7

$$$$
=
 OpenBabel11062410463D

 32 37  0  0  1  0  0  0  0  0999 V2000
  161.1780  202.7750  150.9590 N   0  0  0  0  0  0  0  0  0  0  0  0
  161.3560  207.9840  150.9460 N   0  0  0  0  0  0  0  0  0  0  0  0
  160.9510  205.5870  150.3690 C   0  0  1  0  0  3  0  0  0  0  0  0
  162.5670  206.1320  152.1690 C   0  0  0  0  0  2  0  0  0  0  0  0
  162.0650  203.7460  151.6260 C   0  0  0  0  0  2  0  0  0  0  0  0
  162.0340  207.5730  152.1910 C   0  0  2  0  0  3  0  0  0  0  0  0
  159.8390  203.3010  150.6420 C   0  0  0  0  0  2  0  0  0  0  0  0
  161.4870  205.1600  151.7260 C   0  0  2  0  0  3  0  0  0  0  0  0
  159.8810  204.6220  149.8550 C   0  0  0  0  0  2  0  0  0  0  0  0
  160.3740  207.0000  150.4650 C   0  0  0  0  0  2  0  0  0  0  0  0
  162.3570  208.2060  149.9120 C   0  0  0  0  0  1  0  0  0  0  0  0
  160.2320  207.1420  155.5220 C   0  0  0  0  0  3  0  0  0  0  0  0
  159.7970  208.4430  155.7770 C   0  0  0  0  0  3  0  0  0  0  0  0
  160.9440  206.8610  154.3550 C   0  0  0  0  0  3  0  0  0  0  0  0
  161.2200  207.8750  153.4240 C   0  0  0  0  0  0  0  0  0  0  0  0
  160.0720  209.4620  154.8640 C   0  0  0  0  0  3  0  0  0  0  0  0
  160.7720  209.1870  153.6820 C   0  0  0  0  0  0  0  0  0  0  0  0
  161.0800  210.3060  152.7350 C   0  0  0  0  0  2  0  0  0  0  0  0
  159.8420  210.9280  152.2540 N   0  0  0  0  0  2  0  0  0  0  0  0
  158.4640  212.9730  154.6420 C   0  0  0  0  0  2  0  0  0  0  0  0
  158.3980  212.6220  153.1720 C   0  0  0  0  0  0  0  0  0  0  0  0
  160.1440  213.2280  151.6080 C   0  0  2  0  0  3  0  0  0  0  0  0
  159.0520  214.2770  151.3620 C   0  0  2  0  0  3  0  0  0  0  0  0
  157.5110  213.8770  152.2470 S   0  0  0  0  0  0  0  0  0  0  0  0
  157.7300  211.7220  154.1920 C   0  0  0  0  0  2  0  0  0  0  0  0
  159.3050  213.1980  150.3360 C   0  0  0  0  0  2  0  0  0  0  0  0
  159.7210  212.2830  152.6590 N   0  0  0  0  0  0  0  0  0  0  0  0
  161.8310  202.3430  149.7280 C   0  0  0  0  0  2  0  0  0  0  0  0
  160.9740  201.3170  148.9990 C   0  0  0  0  0  2  0  0  0  0  0  0
  160.8400  201.6520  147.5480 C   0  0  0  0  0  3  0  0  0  0  0  0
  161.1900  203.0970  145.6080 C   0  0  0  0  0  1  0  0  0  0  0  0
  161.3380  202.7850  147.0570 C   0  0  0  0  0  3  0  0  0  0  0  0
  1  5  1  0  0  0  0
  2  6  1  0  0  0  0
  3  9  1  1  0  0  0
  3 10  1  0  0  0  0
  3  8  1  0  0  0  0
  4  6  1  0  0  0  0
  6 15  1  1  0  0  0
  7  1  1  0  0  0  0
  8  5  1  6  0  0  0
  8  4  1  0  0  0  0
  9  7  1  0  0  0  0
 10  2  1  0  0  0  0
 11  2  1  0  0  0  0
 12 13  1  0  0  0  0
 14 12  2  0  0  0  0
 15 17  2  0  0  0  0
 15 14  1  0  0  0  0
 16 13  2  0  0  0  0
 17 16  1  0  0  0  0
 18 17  1  0  0  0  0
 19 27  1  0  0  0  0
 19 18  1  0  0  0  0
 21 25  1  0  0  0  0
 21 20  1  0  0  0  0
 22 26  1  6  0  0  0
 22 27  1  0  0  0  0
 23 26  1  6  0  0  0
 23 22  1  0  0  0  0
 23 24  1  0  0  0  0
 24 21  1  0  0  0  0
 25 20  1  0  0  0  0
 27 21  1  0  0  0  0
 28  1  1  0  0  0  0
 29 28  1  0  0  0  0
 30 29  1  0  0  0  0
 31 32  1  0  0  0  0
 32 30  2  0  0  0  0
M  END
>  <MODEL>
4

>  <REMARK>
 VINA RESULT:      -5.9      2.931      8.648
  Name = 
  7 active torsions:
  status: ('A' for Active; 'I' for Inactive)
    1  A    between atoms: C_1  and  C_10
    2  A    between atoms: N_2  and  C_24
    3  A    between atoms: C_10  and  C_24
    4  A    between atoms: C_14  and  C_15
    5  A    between atoms: C_16  and  C_26
    6  A    between atoms: C_16  and  N_27
    7  A    between atoms: N_27  and  N_32
                            x       y       z     vdW  Elec       q    Type
                         _______ _______ _______ _____ _____    ______ ____

>  <TORSDO>
F 7

$$$$
=
 OpenBabel11062410463D

 32 37  0  0  1  0  0  0  0  0999 V2000
  161.7120  207.5200  151.0620 N   0  0  0  0  0  0  0  0  0  0  0  0
  159.9600  207.6140  155.9700 N   0  0  0  0  0  0  0  0  0  0  0  0
  160.8570  206.9110  153.7460 C   0  0  1  0  0  3  0  0  0  0  0  0
  159.8630  209.1710  153.9800 C   0  0  0  0  0  2  0  0  0  0  0  0
  160.8530  208.4650  151.7980 C   0  0  0  0  0  2  0  0  0  0  0  0
  159.9050  209.0150  155.5080 C   0  0  2  0  0  3  0  0  0  0  0  0
  162.6360  206.7550  151.9170 C   0  0  0  0  0  2  0  0  0  0  0  0
  160.9700  208.3670  153.3210 C   0  0  2  0  0  3  0  0  0  0  0  0
  161.9290  206.0450  153.0840 C   0  0  0  0  0  2  0  0  0  0  0  0
  160.9720  206.8090  155.2670 C   0  0  0  0  0  2  0  0  0  0  0  0
  158.6520  207.0020  155.7890 C   0  0  0  0  0  1  0  0  0  0  0  0
  163.2760  210.2660  156.7730 C   0  0  0  0  0  3  0  0  0  0  0  0
  162.9430  211.5300  157.2600 C   0  0  0  0  0  3  0  0  0  0  0  0
  162.2880  209.4490  156.2190 C   0  0  0  0  0  3  0  0  0  0  0  0
  160.9550  209.8830  156.1550 C   0  0  0  0  0  0  0  0  0  0  0  0
  161.6220  211.9760  157.1960 C   0  0  0  0  0  3  0  0  0  0  0  0
  160.6210  211.1580  156.6550 C   0  0  0  0  0  0  0  0  0  0  0  0
  159.2180  211.6750  156.5700 C   0  0  0  0  0  2  0  0  0  0  0  0
  159.0890  212.6330  155.4670 N   0  0  0  0  0  2  0  0  0  0  0  0
  158.3230  212.2910  152.1380 C   0  0  0  0  0  2  0  0  0  0  0  0
  158.0140  213.1170  153.3670 C   0  0  0  0  0  0  0  0  0  0  0  0
  156.7220  212.2560  155.2250 C   0  0  2  0  0  3  0  0  0  0  0  0
  155.7170  213.1160  154.4480 C   0  0  2  0  0  3  0  0  0  0  0  0
  156.5240  214.0890  153.1360 S   0  0  0  0  0  0  0  0  0  0  0  0
  159.2910  213.3690  152.5920 C   0  0  0  0  0  2  0  0  0  0  0  0
  156.2420  213.5910  155.7830 C   0  0  0  0  0  2  0  0  0  0  0  0
  158.0430  212.2920  154.5690 N   0  0  0  0  0  0  0  0  0  0  0  0
  160.8460  206.5960  150.3390 C   0  0  0  0  0  2  0  0  0  0  0  0
  161.0940  206.6910  148.8390 C   0  0  0  0  0  2  0  0  0  0  0  0
  161.2750  205.3370  148.2310 C   0  0  0  0  0  3  0  0  0  0  0  0
  161.2510  202.8950  148.3140 C   0  0  0  0  0  1  0  0  0  0  0  0
  161.0630  204.2310  148.9420 C   0  0  0  0  0  3  0  0  0  0  0  0
  1  5  1  0  0  0  0
  1  7  1  0  0  0  0
  3  9  1  6  0  0  0
  3 10  1  0  0  0  0
  4  6  1  0  0  0  0
  6  2  1  0  0  0  0
  6 15  1  6  0  0  0
  7  9  1  0  0  0  0
  8  5  1  6  0  0  0
  8  3  1  0  0  0  0
  8  4  1  0  0  0  0
 10  2  1  0  0  0  0
 11  2  1  0  0  0  0
 12 13  1  0  0  0  0
 14 12  2  0  0  0  0
 15 14  1  0  0  0  0
 15 17  2  0  0  0  0
 16 13  2  0  0  0  0
 17 16  1  0  0  0  0
 18 17  1  0  0  0  0
 19 18  1  0  0  0  0
 20 25  1  0  0  0  0
 20 21  1  0  0  0  0
 21 27  1  0  0  0  0
 22 26  1  1  0  0  0
 23 22  1  0  0  0  0
 23 26  1  1  0  0  0
 24 21  1  0  0  0  0
 24 23  1  0  0  0  0
 25 21  1  0  0  0  0
 27 22  1  0  0  0  0
 27 19  1  0  0  0  0
 28  1  1  0  0  0  0
 29 28  1  0  0  0  0
 30 29  1  0  0  0  0
 30 32  2  0  0  0  0
 31 32  1  0  0  0  0
M  END
>  <MODEL>
5

>  <REMARK>
 VINA RESULT:      -5.6      3.012      8.606
  Name = 
  7 active torsions:
  status: ('A' for Active; 'I' for Inactive)
    1  A    between atoms: C_1  and  C_10
    2  A    between atoms: N_2  and  C_24
    3  A    between atoms: C_10  and  C_24
    4  A    between atoms: C_14  and  C_15
    5  A    between atoms: C_16  and  C_26
    6  A    between atoms: C_16  and  N_27
    7  A    between atoms: N_27  and  N_32
                            x       y       z     vdW  Elec       q    Type
                         _______ _______ _______ _____ _____    ______ ____

>  <TORSDO>
F 7

$$$$
=
 OpenBabel11062410463D

 32 37  0  0  1  0  0  0  0  0999 V2000
  161.2620  205.3790  144.7980 N   0  0  0  0  0  0  0  0  0  0  0  0
  161.8650  205.6550  149.9680 N   0  0  0  0  0  0  0  0  0  0  0  0
  162.0430  205.0420  147.5520 C   0  0  1  0  0  3  0  0  0  0  0  0
  160.1260  206.4260  148.3020 C   0  0  0  0  0  2  0  0  0  0  0  0
  160.3900  205.8710  145.8810 C   0  0  0  0  0  2  0  0  0  0  0  0
  160.8440  206.6690  149.6390 C   0  0  2  0  0  3  0  0  0  0  0  0
  162.7000  205.4320  145.1120 C   0  0  0  0  0  2  0  0  0  0  0  0
  161.1270  206.1990  147.1820 C   0  0  2  0  0  3  0  0  0  0  0  0
  163.0520  204.7440  146.4420 C   0  0  0  0  0  2  0  0  0  0  0  0
  162.7790  205.3660  148.8520 C   0  0  0  0  0  2  0  0  0  0  0  0
  161.1990  204.4240  150.3720 C   0  0  0  0  0  1  0  0  0  0  0  0
  162.0540  210.1740  148.7530 C   0  0  0  0  0  3  0  0  0  0  0  0
  162.2190  210.7420  150.0160 C   0  0  0  0  0  3  0  0  0  0  0  0
  161.6210  208.8510  148.6350 C   0  0  0  0  0  3  0  0  0  0  0  0
  161.3590  208.0790  149.7770 C   0  0  0  0  0  0  0  0  0  0  0  0
  161.9540  209.9880  151.1610 C   0  0  0  0  0  3  0  0  0  0  0  0
  161.5350  208.6550  151.0520 C   0  0  0  0  0  0  0  0  0  0  0  0
  161.2280  207.8800  152.2960 C   0  0  0  0  0  2  0  0  0  0  0  0
  160.4560  208.6990  153.2360 N   0  0  0  0  0  2  0  0  0  0  0  0
  161.0710  207.5260  156.4030 C   0  0  0  0  0  2  0  0  0  0  0  0
  160.4190  208.6600  155.6440 C   0  0  0  0  0  0  0  0  0  0  0  0
  161.6980  210.3500  154.4730 C   0  0  2  0  0  3  0  0  0  0  0  0
  161.2820  211.0430  155.7770 C   0  0  2  0  0  3  0  0  0  0  0  0
  160.0820  210.0520  156.7230 S   0  0  0  0  0  0  0  0  0  0  0  0
  159.7070  207.3280  155.7670 C   0  0  0  0  0  2  0  0  0  0  0  0
  160.6410  211.4490  154.4710 C   0  0  0  0  0  2  0  0  0  0  0  0
  161.1690  208.9730  154.4330 N   0  0  0  0  0  0  0  0  0  0  0  0
  160.8810  204.0020  144.5070 C   0  0  0  0  0  2  0  0  0  0  0  0
  160.0950  203.4060  145.6680 C   0  0  0  0  0  2  0  0  0  0  0  0
  160.7000  202.1210  146.1320 C   0  0  0  0  0  3  0  0  0  0  0  0
  161.4380  200.5650  147.8670 C   0  0  0  0  0  1  0  0  0  0  0  0
  160.8310  201.8530  147.4300 C   0  0  0  0  0  3  0  0  0  0  0  0
  1  7  1  0  0  0  0
  1  5  1  0  0  0  0
  2 11  1  0  0  0  0
  3  9  1  6  0  0  0
  3 10  1  0  0  0  0
  4  6  1  0  0  0  0
  6 15  1  6  0  0  0
  6  2  1  0  0  0  0
  7  9  1  0  0  0  0
  8  5  1  6  0  0  0
  8  3  1  0  0  0  0
  8  4  1  0  0  0  0
 10  2  1  0  0  0  0
 12 13  1  0  0  0  0
 13 16  2  0  0  0  0
 14 12  2  0  0  0  0
 14 15  1  0  0  0  0
 15 17  2  0  0  0  0
 17 16  1  0  0  0  0
 17 18  1  0  0  0  0
 18 19  1  0  0  0  0
 19 27  1  0  0  0  0
 21 25  1  0  0  0  0
 21 20  1  0  0  0  0
 21 24  1  0  0  0  0
 22 26  1  6  0  0  0
 22 23  1  0  0  0  0
 23 26  1  6  0  0  0
 23 24  1  0  0  0  0
 25 20  1  0  0  0  0
 27 22  1  0  0  0  0
 27 21  1  0  0  0  0
 28  1  1  0  0  0  0
 28 29  1  0  0  0  0
 29 30  1  0  0  0  0
 30 32  2  0  0  0  0
 32 31  1  0  0  0  0
M  END
>  <MODEL>
6

>  <REMARK>
 VINA RESULT:      -5.5      2.978      9.340
  Name = 
  7 active torsions:
  status: ('A' for Active; 'I' for Inactive)
    1  A    between atoms: C_1  and  C_10
    2  A    between atoms: N_2  and  C_24
    3  A    between atoms: C_10  and  C_24
    4  A    between atoms: C_14  and  C_15
    5  A    between atoms: C_16  and  C_26
    6  A    between atoms: C_16  and  N_27
    7  A    between atoms: N_27  and  N_32
                            x       y       z     vdW  Elec       q    Type
                         _______ _______ _______ _____ _____    ______ ____

>  <TORSDO>
F 7

$$$$
=
 OpenBabel11062410463D

 32 37  0  0  1  0  0  0  0  0999 V2000
  161.2850  202.7650  150.9780 N   0  0  0  0  0  0  0  0  0  0  0  0
  161.3480  207.9760  150.8570 N   0  0  0  0  0  0  0  0  0  0  0  0
  160.9960  205.5590  150.3290 C   0  0  1  0  0  3  0  0  0  0  0  0
  162.5980  206.1760  152.1190 C   0  0  0  0  0  2  0  0  0  0  0  0
  162.1490  203.7700  151.6250 C   0  0  0  0  0  2  0  0  0  0  0  0
  162.0330  207.6050  152.1110 C   0  0  2  0  0  3  0  0  0  0  0  0
  159.9350  203.2550  150.6490 C   0  0  0  0  0  2  0  0  0  0  0  0
  161.5400  205.1720  151.6960 C   0  0  2  0  0  3  0  0  0  0  0  0
  159.9490  204.5600  149.8350 C   0  0  0  0  0  2  0  0  0  0  0  0
  160.3890  206.9600  150.3960 C   0  0  0  0  0  2  0  0  0  0  0  0
  162.3450  208.1980  149.8190 C   0  0  0  0  0  1  0  0  0  0  0  0
  160.1840  207.1880  155.4190 C   0  0  0  0  0  3  0  0  0  0  0  0
  159.7710  208.4940  155.6770 C   0  0  0  0  0  3  0  0  0  0  0  0
  160.9050  206.9010  154.2570 C   0  0  0  0  0  3  0  0  0  0  0  0
  161.2100  207.9160  153.3370 C   0  0  0  0  0  0  0  0  0  0  0  0
  160.0750  209.5150  154.7730 C   0  0  0  0  0  3  0  0  0  0  0  0
  160.7840  209.2330  153.5980 C   0  0  0  0  0  0  0  0  0  0  0  0
  161.1230  210.3520  152.6620 C   0  0  0  0  0  2  0  0  0  0  0  0
  160.5560  211.6160  153.1430 N   0  0  0  0  0  2  0  0  0  0  0  0
  159.0620  212.9700  150.3650 C   0  0  0  0  0  2  0  0  0  0  0  0
  159.2620  213.1820  151.8500 C   0  0  0  0  0  0  0  0  0  0  0  0
  158.1850  211.8000  153.5200 C   0  0  2  0  0  3  0  0  0  0  0  0
  157.3350  213.0770  153.4970 C   0  0  2  0  0  3  0  0  0  0  0  0
  158.1030  214.3890  152.4940 S   0  0  0  0  0  0  0  0  0  0  0  0
  160.3720  213.5390  150.8810 C   0  0  0  0  0  2  0  0  0  0  0  0
  158.2350  212.7920  154.6760 C   0  0  0  0  0  2  0  0  0  0  0  0
  159.2970  211.9070  152.5560 N   0  0  0  0  0  0  0  0  0  0  0  0
  161.9500  202.3230  149.7570 C   0  0  0  0  0  2  0  0  0  0  0  0
  161.1090  201.2750  149.0390 C   0  0  0  0  0  2  0  0  0  0  0  0
  160.8310  201.6750  147.6260 C   0  0  0  0  0  3  0  0  0  0  0  0
  161.1820  203.0730  145.6520 C   0  0  0  0  0  1  0  0  0  0  0  0
  161.4780  202.6920  147.0610 C   0  0  0  0  0  3  0  0  0  0  0  0
  1  5  1  0  0  0  0
  2  6  1  0  0  0  0
  3  9  1  1  0  0  0
  3 10  1  0  0  0  0
  3  8  1  0  0  0  0
  6  4  1  0  0  0  0
  6 15  1  1  0  0  0
  7  1  1  0  0  0  0
  8  5  1  6  0  0  0
  8  4  1  0  0  0  0
  9  7  1  0  0  0  0
 10  2  1  0  0  0  0
 11  2  1  0  0  0  0
 12 13  1  0  0  0  0
 14 12  2  0  0  0  0
 15 17  2  0  0  0  0
 15 14  1  0  0  0  0
 16 13  2  0  0  0  0
 17 16  1  0  0  0  0
 18 19  1  0  0  0  0
 18 17  1  0  0  0  0
 20 25  1  0  0  0  0
 20 21  1  0  0  0  0
 21 24  1  0  0  0  0
 21 27  1  0  0  0  0
 22 26  1  1  0  0  0
 23 22  1  0  0  0  0
 23 26  1  1  0  0  0
 24 23  1  0  0  0  0
 25 21  1  0  0  0  0
 27 19  1  0  0  0  0
 27 22  1  0  0  0  0
 28  1  1  0  0  0  0
 29 28  1  0  0  0  0
 30 29  1  0  0  0  0
 31 32  1  0  0  0  0
 32 30  2  0  0  0  0
M  END
>  <MODEL>
7

>  <REMARK>
 VINA RESULT:      -5.5      2.971      8.579
  Name = 
  7 active torsions:
  status: ('A' for Active; 'I' for Inactive)
    1  A    between atoms: C_1  and  C_10
    2  A    between atoms: N_2  and  C_24
    3  A    between atoms: C_10  and  C_24
    4  A    between atoms: C_14  and  C_15
    5  A    between atoms: C_16  and  C_26
    6  A    between atoms: C_16  and  N_27
    7  A    between atoms: N_27  and  N_32
                            x       y       z     vdW  Elec       q    Type
                         _______ _______ _______ _____ _____    ______ ____

>  <TORSDO>
F 7

$$$$
=
 OpenBabel11062410463D

 32 37  0  0  1  0  0  0  0  0999 V2000
  160.5460  212.6540  142.3170 N   0  0  0  0  0  0  0  0  0  0  0  0
  161.3550  213.5600  147.3860 N   0  0  0  0  0  0  0  0  0  0  0  0
  161.4920  213.5430  144.8910 C   0  0  1  0  0  3  0  0  0  0  0  0
  160.1110  211.8270  146.0300 C   0  0  0  0  0  2  0  0  0  0  0  0
  160.1980  211.8990  143.5360 C   0  0  0  0  0  2  0  0  0  0  0  0
  160.2050  212.6370  147.3330 C   0  0  2  0  0  3  0  0  0  0  0  0
  160.6910  214.1050  142.5290 C   0  0  0  0  0  2  0  0  0  0  0  0
  160.2050  212.7360  144.8180 C   0  0  2  0  0  3  0  0  0  0  0  0
  161.6580  214.4530  143.6740 C   0  0  0  0  0  2  0  0  0  0  0  0
  161.5020  214.3780  146.1710 C   0  0  0  0  0  2  0  0  0  0  0  0
  162.5740  212.7900  147.5950 C   0  0  0  0  0  1  0  0  0  0  0  0
  156.7010  214.1110  147.0590 C   0  0  0  0  0  3  0  0  0  0  0  0
  156.4350  214.4530  148.3850 C   0  0  0  0  0  3  0  0  0  0  0  0
  157.9270  213.5360  146.7200 C   0  0  0  0  0  3  0  0  0  0  0  0
  158.9050  213.3050  147.7010 C   0  0  0  0  0  0  0  0  0  0  0  0
  157.3960  214.2220  149.3720 C   0  0  0  0  0  3  0  0  0  0  0  0
  158.6350  213.6600  149.0380 C   0  0  0  0  0  0  0  0  0  0  0  0
  159.6340  213.3940  150.1210 C   0  0  0  0  0  2  0  0  0  0  0  0
  159.1030  212.4280  151.0870 N   0  0  0  0  0  2  0  0  0  0  0  0
  160.9090  211.1010  153.6880 C   0  0  0  0  0  2  0  0  0  0  0  0
  159.5120  211.5070  153.2740 C   0  0  0  0  0  0  0  0  0  0  0  0
  158.8420  213.8210  153.0340 C   0  0  2  0  0  3  0  0  0  0  0  0
  158.2730  213.4150  154.4000 C   0  0  2  0  0  3  0  0  0  0  0  0
  158.4240  211.6240  154.6960 S   0  0  0  0  0  0  0  0  0  0  0  0
  160.0920  210.1950  152.7850 C   0  0  0  0  0  2  0  0  0  0  0  0
  157.3430  213.6260  153.2290 C   0  0  0  0  0  2  0  0  0  0  0  0
  159.5450  212.6820  152.4120 N   0  0  0  0  0  0  0  0  0  0  0  0
  161.7960  212.1140  141.7970 C   0  0  0  0  0  2  0  0  0  0  0  0
  161.7780  212.0950  140.2740 C   0  0  0  0  0  2  0  0  0  0  0  0
  161.3590  210.7590  139.7520 C   0  0  0  0  0  3  0  0  0  0  0  0
  161.7100  208.3740  139.3480 C   0  0  0  0  0  1  0  0  0  0  0  0
  162.1490  209.6940  139.8780 C   0  0  0  0  0  3  0  0  0  0  0  0
  1  7  1  0  0  0  0
  1  5  1  0  0  0  0
  2 11  1  0  0  0  0
  3  9  1  6  0  0  0
  3 10  1  0  0  0  0
  4  6  1  0  0  0  0
  6  2  1  0  0  0  0
  6 15  1  6  0  0  0
  7  9  1  0  0  0  0
  8  5  1  6  0  0  0
  8  3  1  0  0  0  0
  8  4  1  0  0  0  0
 10  2  1  0  0  0  0
 12 13  1  0  0  0  0
 13 16  2  0  0  0  0
 14 12  2  0  0  0  0
 14 15  1  0  0  0  0
 15 17  2  0  0  0  0
 17 16  1  0  0  0  0
 17 18  1  0  0  0  0
 18 19  1  0  0  0  0
 19 27  1  0  0  0  0
 21 20  1  0  0  0  0
 21 24  1  0  0  0  0
 22 26  1  6  0  0  0
 22 23  1  0  0  0  0
 23 26  1  6  0  0  0
 23 24  1  0  0  0  0
 25 21  1  0  0  0  0
 25 20  1  0  0  0  0
 27 22  1  0  0  0  0
 27 21  1  0  0  0  0
 28  1  1  0  0  0  0
 29 28  1  0  0  0  0
 30 32  2  0  0  0  0
 30 29  1  0  0  0  0
 31 32  1  0  0  0  0
M  END
>  <MODEL>
8

>  <REMARK>
 VINA RESULT:      -4.7      5.684     10.691
  Name = 
  7 active torsions:
  status: ('A' for Active; 'I' for Inactive)
    1  A    between atoms: C_1  and  C_10
    2  A    between atoms: N_2  and  C_24
    3  A    between atoms: C_10  and  C_24
    4  A    between atoms: C_14  and  C_15
    5  A    between atoms: C_16  and  C_26
    6  A    between atoms: C_16  and  N_27
    7  A    between atoms: N_27  and  N_32
                            x       y       z     vdW  Elec       q    Type
                         _______ _______ _______ _____ _____    ______ ____

>  <TORSDO>
F 7

$$$$
=
 OpenBabel11062410463D

 32 37  0  0  1  0  0  0  0  0999 V2000
  158.9530  213.0650  154.7570 N   0  0  0  0  0  0  0  0  0  0  0  0
  160.9010  208.3460  153.7030 N   0  0  0  0  0  0  0  0  0  0  0  0
  159.4680  210.2420  154.4740 C   0  0  1  0  0  3  0  0  0  0  0  0
  161.8140  210.7010  153.8150 C   0  0  0  0  0  2  0  0  0  0  0  0
  160.3230  212.5830  154.5010 C   0  0  0  0  0  2  0  0  0  0  0  0
  161.8930  209.3050  153.1780 C   0  0  2  0  0  3  0  0  0  0  0  0
  157.9000  212.2350  154.1450 C   0  0  0  0  0  2  0  0  0  0  0  0
  160.3920  211.2340  153.7830 C   0  0  2  0  0  3  0  0  0  0  0  0
  158.0240  210.7440  154.5030 C   0  0  0  0  0  2  0  0  0  0  0  0
  159.5360  208.8930  153.7600 C   0  0  0  0  0  2  0  0  0  0  0  0
  161.3050  207.9290  155.0390 C   0  0  0  0  0  1  0  0  0  0  0  0
  161.9570  210.6390  149.6080 C   0  0  0  0  0  3  0  0  0  0  0  0
  162.0650  209.4610  148.8690 C   0  0  0  0  0  3  0  0  0  0  0  0
  161.8880  210.5850  151.0010 C   0  0  0  0  0  3  0  0  0  0  0  0
  161.9160  209.3510  151.6710 C   0  0  0  0  0  0  0  0  0  0  0  0
  162.1020  208.2280  149.5230 C   0  0  0  0  0  3  0  0  0  0  0  0
  162.0180  208.1630  150.9200 C   0  0  0  0  0  0  0  0  0  0  0  0
  162.0910  206.8280  151.5960 C   0  0  0  0  0  2  0  0  0  0  0  0
  161.1120  205.9030  151.0170 N   0  0  0  0  0  2  0  0  0  0  0  0
  162.0290  204.2330  148.1610 C   0  0  0  0  0  2  0  0  0  0  0  0
  161.0780  204.1780  149.3370 C   0  0  0  0  0  0  0  0  0  0  0  0
  161.8150  203.6710  151.5860 C   0  0  2  0  0  3  0  0  0  0  0  0
  161.2100  202.3500  151.0930 C   0  0  2  0  0  3  0  0  0  0  0  0
  160.3450  202.5490  149.5020 S   0  0  0  0  0  0  0  0  0  0  0  0
  160.7840  205.1010  148.1720 C   0  0  0  0  0  2  0  0  0  0  0  0
  160.4840  203.1680  152.1340 C   0  0  0  0  0  2  0  0  0  0  0  0
  161.7090  204.7060  150.5410 N   0  0  0  0  0  0  0  0  0  0  0  0
  158.7550  213.1090  156.2010 C   0  0  0  0  0  2  0  0  0  0  0  0
  158.1670  214.4500  156.6200 C   0  0  0  0  0  2  0  0  0  0  0  0
  156.8260  214.2800  157.2590 C   0  0  0  0  0  3  0  0  0  0  0  0
  154.3900  214.0980  157.1870 C   0  0  0  0  0  1  0  0  0  0  0  0
  155.7140  214.2680  156.5270 C   0  0  0  0  0  3  0  0  0  0  0  0
  1 28  1  0  0  0  0
  2 10  1  0  0  0  0
  2 11  1  0  0  0  0
  3 10  1  6  0  0  0
  3  9  1  0  0  0  0
  5  1  1  0  0  0  0
  6 15  1  6  0  0  0
  6  2  1  0  0  0  0
  6  4  1  0  0  0  0
  7  9  1  0  0  0  0
  7  1  1  0  0  0  0
  8  4  1  1  0  0  0
  8  3  1  0  0  0  0
  8  5  1  0  0  0  0
 12 14  1  0  0  0  0
 13 16  1  0  0  0  0
 13 12  2  0  0  0  0
 14 15  2  0  0  0  0
 16 17  2  0  0  0  0
 17 18  1  0  0  0  0
 17 15  1  0  0  0  0
 19 18  1  0  0  0  0
 20 25  1  0  0  0  0
 20 21  1  0  0  0  0
 21 24  1  0  0  0  0
 21 27  1  0  0  0  0
 22 26  1  1  0  0  0
 23 22  1  0  0  0  0
 23 26  1  1  0  0  0
 24 23  1  0  0  0  0
 25 21  1  0  0  0  0
 27 19  1  0  0  0  0
 27 22  1  0  0  0  0
 28 29  1  0  0  0  0
 29 30  1  0  0  0  0
 32 31  1  0  0  0  0
 32 30  2  0  0  0  0
M  END
>  <MODEL>
9

>  <REMARK>
 VINA RESULT:      -4.5      2.077      3.750
  Name = 
  7 active torsions:
  status: ('A' for Active; 'I' for Inactive)
    1  A    between atoms: C_1  and  C_10
    2  A    between atoms: N_2  and  C_24
    3  A    between atoms: C_10  and  C_24
    4  A    between atoms: C_14  and  C_15
    5  A    between atoms: C_16  and  C_26
    6  A    between atoms: C_16  and  N_27
    7  A    between atoms: N_27  and  N_32
                            x       y       z     vdW  Elec       q    Type
                         _______ _______ _______ _____ _____    ______ ____

>  <TORSDO>
F 7

$$$$
