=
 OpenBabel11062408163D

 32 36  0  0  1  0  0  0  0  0999 V2000
  162.3900  207.9060  153.3120 O   0  0  0  0  0  0  0  0  0  0  0  0
  161.5460  209.0180  153.1050 C   0  0  1  0  0  0  0  0  0  0  0  0
  159.4620  210.3420  156.1630 C   0  0  0  0  0  2  0  0  0  0  0  0
  164.5150  211.1050  155.7230 C   0  0  0  0  0  3  0  0  0  0  0  0
  161.1530  209.8410  154.3440 C   0  0  1  0  0  3  0  0  0  0  0  0
  162.7270  211.8030  157.2610 C   0  0  0  0  0  2  0  0  0  0  0  0
  161.7750  210.7610  156.6470 C   0  0  1  0  0  3  0  0  0  0  0  0
  159.8850  209.3490  155.0660 C   0  0  1  0  0  3  0  0  0  0  0  0
  161.6300  206.7350  153.1730 C   0  0  2  0  0  3  0  0  0  0  0  0
  160.4660  211.3780  156.4310 N   0  0  0  0  0  2  0  0  0  0  0  0
  161.0950  206.2720  154.5140 C   0  0  0  0  0  2  0  0  0  0  0  0
  162.5030  205.6460  152.5870 C   0  0  0  0  0  1  0  0  0  0  0  0
  162.1750  209.8860  152.1830 O   0  0  0  0  0  0  0  0  0  0  0  0
  160.0870  207.9910  155.7260 C   0  0  0  0  0  2  0  0  0  0  0  0
  160.9680  209.3170  151.7480 C   0  0  1  0  0  0  0  0  0  0  0  0
  162.3010  210.0960  155.3360 C   0  0  2  0  0  3  0  0  0  0  0  0
  159.8260  206.9250  154.7780 N   0  0  0  0  0  2  0  0  0  0  0  0
  164.1710  211.5220  156.9460 C   0  0  0  0  0  3  0  0  0  0  0  0
  163.4440  210.8920  154.6970 C   0  0  0  0  0  2  0  0  0  0  0  0
  161.9350  207.6550  148.4290 C   0  0  0  0  0  3  0  0  0  0  0  0
  160.5640  206.1420  149.7180 C   0  0  0  0  0  3  0  0  0  0  0  0
  161.1300  208.3250  150.6230 C   0  0  0  0  0  0  0  0  0  0  0  0
  161.3010  206.4100  148.5560 C   0  0  0  0  0  0  0  0  0  0  0  0
  160.4750  207.0910  150.7380 C   0  0  0  0  0  3  0  0  0  0  0  0
  161.8480  208.6120  149.4440 C   0  0  0  0  0  0  0  0  0  0  0  0
  162.4710  209.8400  149.2610 O   0  0  0  0  0  1  0  0  0  0  0  0
  161.4880  204.0080  147.8080 C   0  0  0  0  0  1  0  0  0  0  0  0
  161.4120  205.8210  146.1060 C   0  0  0  0  0  1  0  0  0  0  0  0
  161.3970  205.4280  147.5070 N   0  0  0  0  0  0  0  0  0  0  0  0
  159.6200  210.5460  151.6470 S   0  0  0  0  0  0  0  0  0  0  0  0
  160.7240  211.9300  151.2340 C   0  0  0  0  0  2  0  0  0  0  0  0
  159.9360  213.0740  150.8120 N   0  0  0  0  0  1  0  0  0  0  0  0
  2 13  1  6  0  0  0
  2  1  1  0  0  0  0
  2  5  1  0  0  0  0
  3 10  1  0  0  0  0
  4 18  2  0  0  0  0
  5  8  1  0  0  0  0
  5 16  1  0  0  0  0
  7  6  1  0  0  0  0
  8 14  1  0  0  0  0
  8  3  1  0  0  0  0
  9  1  1  0  0  0  0
  9 11  1  0  0  0  0
 10  7  1  0  0  0  0
 11 17  1  0  0  0  0
 12  9  1  0  0  0  0
 15 13  1  0  0  0  0
 15  2  1  0  0  0  0
 16  7  1  0  0  0  0
 17 14  1  0  0  0  0
 18  6  1  0  0  0  0
 19 16  1  0  0  0  0
 19  4  1  0  0  0  0
 20 23  2  0  0  0  0
 20 25  1  0  0  0  0
 21 24  2  0  0  0  0
 22 24  1  0  0  0  0
 22 15  1  0  0  0  0
 23 21  1  0  0  0  0
 25 22  2  0  0  0  0
 26 25  1  0  0  0  0
 28 29  1  0  0  0  0
 29 27  1  0  0  0  0
 29 23  1  0  0  0  0
 30 15  1  0  0  0  0
 31 30  1  0  0  0  0
 32 31  1  0  0  0  0
M  END
>  <MODEL>
1

>  <REMARK>
 VINA RESULT:      -1.3      0.000      0.000
  Name = 
  4 active torsions:
  status: ('A' for Active; 'I' for Inactive)
    1  A    between atoms: S_1  and  C_4
    2  A    between atoms: S_1  and  C_27
    3  A    between atoms: C_16  and  C_27
    4  A    between atoms: C_19  and  N_26
                            x       y       z     vdW  Elec       q    Type
                         _______ _______ _______ _____ _____    ______ ____

>  <TORSDO>
F 4

$$$$
=
 OpenBabel11062408163D

 32 36  0  0  1  0  0  0  0  0999 V2000
  160.2740  208.5470  152.0600 O   0  0  0  0  0  0  0  0  0  0  0  0
  160.6850  208.2480  153.3760 C   0  0  1  0  0  0  0  0  0  0  0  0
  162.4940  211.0690  155.4290 C   0  0  0  0  0  2  0  0  0  0  0  0
  157.4510  211.1320  154.4910 C   0  0  0  0  0  3  0  0  0  0  0  0
  160.9000  209.4340  154.3320 C   0  0  1  0  0  3  0  0  0  0  0  0
  159.0460  212.4760  155.7940 C   0  0  0  0  0  2  0  0  0  0  0  0
  160.2260  211.7790  155.0940 C   0  0  1  0  0  3  0  0  0  0  0  0
  162.3200  210.0280  154.3090 C   0  0  1  0  0  3  0  0  0  0  0  0
  161.3600  208.3440  151.1950 C   0  0  2  0  0  3  0  0  0  0  0  0
  161.2350  211.4270  156.0940 N   0  0  0  0  0  2  0  0  0  0  0  0
  162.1390  209.6280  150.9860 C   0  0  0  0  0  2  0  0  0  0  0  0
  160.8420  207.8570  149.8580 C   0  0  0  0  0  1  0  0  0  0  0  0
  159.7250  207.3860  153.9540 O   0  0  0  0  0  0  0  0  0  0  0  0
  162.6350  210.7170  152.9870 C   0  0  0  0  0  2  0  0  0  0  0  0
  161.0060  206.8370  153.7910 C   0  0  1  0  0  0  0  0  0  0  0  0
  159.8280  210.5330  154.2410 C   0  0  2  0  0  3  0  0  0  0  0  0
  163.1420  209.7570  152.0260 N   0  0  0  0  0  2  0  0  0  0  0  0
  157.7510  212.3110  155.0470 C   0  0  0  0  0  3  0  0  0  0  0  0
  158.4340  210.0050  154.5950 C   0  0  0  0  0  2  0  0  0  0  0  0
  162.2260  204.4550  151.0420 C   0  0  0  0  0  3  0  0  0  0  0  0
  159.9000  204.0130  151.5170 C   0  0  0  0  0  3  0  0  0  0  0  0
  161.0750  205.7420  152.7540 C   0  0  0  0  0  0  0  0  0  0  0  0
  161.0620  203.7140  150.7900 C   0  0  0  0  0  0  0  0  0  0  0  0
  159.9060  205.0200  152.4840 C   0  0  0  0  0  3  0  0  0  0  0  0
  162.2390  205.4660  152.0070 C   0  0  0  0  0  0  0  0  0  0  0  0
  163.4090  206.1900  152.2020 O   0  0  0  0  0  1  0  0  0  0  0  0
  161.1700  202.9790  148.3800 C   0  0  0  0  0  1  0  0  0  0  0  0
  160.9320  201.2720  150.1740 C   0  0  0  0  0  1  0  0  0  0  0  0
  161.0570  202.6720  149.7970 N   0  0  0  0  0  0  0  0  0  0  0  0
  161.8620  206.5900  155.3860 S   0  0  0  0  0  0  0  0  0  0  0  0
  160.3800  206.9100  156.3890 C   0  0  0  0  0  2  0  0  0  0  0  0
  160.6170  208.0460  157.2610 N   0  0  0  0  0  1  0  0  0  0  0  0
  2  1  1  6  0  0  0
  2 15  1  0  0  0  0
  2 13  1  0  0  0  0
  2  5  1  0  0  0  0
  3 10  1  0  0  0  0
  4 19  1  0  0  0  0
  4 18  2  0  0  0  0
  7  6  1  0  0  0  0
  7 10  1  0  0  0  0
  8  5  1  0  0  0  0
  8  3  1  0  0  0  0
  9  1  1  0  0  0  0
 11  9  1  0  0  0  0
 11 17  1  0  0  0  0
 12  9  1  0  0  0  0
 14  8  1  0  0  0  0
 15 13  1  0  0  0  0
 15 30  1  0  0  0  0
 16  5  1  0  0  0  0
 16 19  1  0  0  0  0
 16  7  1  0  0  0  0
 17 14  1  0  0  0  0
 18  6  1  0  0  0  0
 20 25  1  0  0  0  0
 21 24  2  0  0  0  0
 22 15  1  0  0  0  0
 23 20  2  0  0  0  0
 23 21  1  0  0  0  0
 24 22  1  0  0  0  0
 25 26  1  0  0  0  0
 25 22  2  0  0  0  0
 27 29  1  0  0  0  0
 29 28  1  0  0  0  0
 29 23  1  0  0  0  0
 30 31  1  0  0  0  0
 31 32  1  0  0  0  0
M  END
>  <MODEL>
2

>  <REMARK>
 VINA RESULT:      -0.2      2.386      4.331
  Name = 
  4 active torsions:
  status: ('A' for Active; 'I' for Inactive)
    1  A    between atoms: S_1  and  C_4
    2  A    between atoms: S_1  and  C_27
    3  A    between atoms: C_16  and  C_27
    4  A    between atoms: C_19  and  N_26
                            x       y       z     vdW  Elec       q    Type
                         _______ _______ _______ _____ _____    ______ ____

>  <TORSDO>
F 4

$$$$
=
 OpenBabel11062408163D

 32 36  0  0  1  0  0  0  0  0999 V2000
  160.9070  209.8030  152.3210 O   0  0  0  0  0  0  0  0  0  0  0  0
  160.8910  208.9890  153.4740 C   0  0  1  0  0  0  0  0  0  0  0  0
  162.3750  210.4710  156.7970 C   0  0  0  0  0  2  0  0  0  0  0  0
  157.8470  211.9460  154.8920 C   0  0  0  0  0  3  0  0  0  0  0  0
  160.9690  209.6990  154.8360 C   0  0  1  0  0  3  0  0  0  0  0  0
  159.1600  212.3810  156.9250 C   0  0  0  0  0  2  0  0  0  0  0  0
  160.3960  211.7280  156.2820 C   0  0  1  0  0  3  0  0  0  0  0  0
  162.3990  209.9420  155.3520 C   0  0  1  0  0  3  0  0  0  0  0  0
  162.1590  209.6780  151.7020 C   0  0  2  0  0  3  0  0  0  0  0  0
  161.0330  210.8450  157.2600 N   0  0  0  0  0  2  0  0  0  0  0  0
  163.1140  210.7540  152.1800 C   0  0  0  0  0  2  0  0  0  0  0  0
  161.9830  209.8040  150.2030 C   0  0  0  0  0  1  0  0  0  0  0  0
  159.7100  208.2120  153.4510 O   0  0  0  0  0  0  0  0  0  0  0  0
  163.1540  210.9560  154.5030 C   0  0  0  0  0  2  0  0  0  0  0  0
  160.9090  207.4880  153.3680 C   0  0  1  0  0  0  0  0  0  0  0  0
  160.1070  210.9670  154.9490 C   0  0  2  0  0  3  0  0  0  0  0  0
  163.7920  210.2970  153.3790 N   0  0  0  0  0  2  0  0  0  0  0  0
  158.1180  212.7670  155.9120 C   0  0  0  0  0  3  0  0  0  0  0  0
  158.6170  210.6670  154.7610 C   0  0  0  0  0  2  0  0  0  0  0  0
  162.4360  205.4900  150.4710 C   0  0  0  0  0  3  0  0  0  0  0  0
  160.3640  206.4980  149.7500 C   0  0  0  0  0  3  0  0  0  0  0  0
  161.1350  206.8270  152.0300 C   0  0  0  0  0  0  0  0  0  0  0  0
  161.4820  205.7010  149.4650 C   0  0  0  0  0  0  0  0  0  0  0  0
  160.1960  207.0600  151.0170 C   0  0  0  0  0  3  0  0  0  0  0  0
  162.2760  206.0510  151.7420 C   0  0  0  0  0  0  0  0  0  0  0  0
  163.2620  205.8340  152.6970 O   0  0  0  0  0  1  0  0  0  0  0  0
  162.0280  205.9300  147.0130 C   0  0  0  0  0  1  0  0  0  0  0  0
  161.4460  203.6950  147.9370 C   0  0  0  0  0  1  0  0  0  0  0  0
  161.6510  205.1180  148.1600 N   0  0  0  0  0  0  0  0  0  0  0  0
  161.2460  206.5300  154.8870 S   0  0  0  0  0  0  0  0  0  0  0  0
  159.7180  207.0530  155.7220 C   0  0  0  0  0  2  0  0  0  0  0  0
  159.9570  207.1700  157.1500 N   0  0  0  0  0  1  0  0  0  0  0  0
  2  1  1  6  0  0  0
  2  5  1  0  0  0  0
  3 10  1  0  0  0  0
  4 18  2  0  0  0  0
  5 16  1  0  0  0  0
  5  8  1  0  0  0  0
  7  6  1  0  0  0  0
  7 10  1  0  0  0  0
  8  3  1  0  0  0  0
  9 11  1  0  0  0  0
  9  1  1  0  0  0  0
 11 17  1  0  0  0  0
 12  9  1  0  0  0  0
 13  2  1  0  0  0  0
 14  8  1  0  0  0  0
 15 13  1  0  0  0  0
 15  2  1  0  0  0  0
 15 30  1  0  0  0  0
 16  7  1  0  0  0  0
 17 14  1  0  0  0  0
 18  6  1  0  0  0  0
 19  4  1  0  0  0  0
 19 16  1  0  0  0  0
 20 25  1  0  0  0  0
 21 24  2  0  0  0  0
 22 15  1  0  0  0  0
 23 21  1  0  0  0  0
 23 20  2  0  0  0  0
 24 22  1  0  0  0  0
 25 22  2  0  0  0  0
 25 26  1  0  0  0  0
 27 29  1  0  0  0  0
 28 29  1  0  0  0  0
 29 23  1  0  0  0  0
 30 31  1  0  0  0  0
 31 32  1  0  0  0  0
M  END
>  <MODEL>
3

>  <REMARK>
 VINA RESULT:       0.3      1.993      3.961
  Name = 
  4 active torsions:
  status: ('A' for Active; 'I' for Inactive)
    1  A    between atoms: S_1  and  C_4
    2  A    between atoms: S_1  and  C_27
    3  A    between atoms: C_16  and  C_27
    4  A    between atoms: C_19  and  N_26
                            x       y       z     vdW  Elec       q    Type
                         _______ _______ _______ _____ _____    ______ ____

>  <TORSDO>
F 4

$$$$
=
 OpenBabel11062408163D

 32 36  0  0  1  0  0  0  0  0999 V2000
  160.7620  209.7890  151.5550 O   0  0  0  0  0  0  0  0  0  0  0  0
  160.7880  208.7950  152.5560 C   0  0  1  0  0  0  0  0  0  0  0  0
  162.1870  209.7790  156.0950 C   0  0  0  0  0  2  0  0  0  0  0  0
  157.5890  211.3100  154.4160 C   0  0  0  0  0  3  0  0  0  0  0  0
  160.8270  209.2710  154.0180 C   0  0  1  0  0  3  0  0  0  0  0  0
  158.8740  211.4690  156.5060 C   0  0  0  0  0  2  0  0  0  0  0  0
  160.1440  210.9980  155.7750 C   0  0  1  0  0  3  0  0  0  0  0  0
  162.2420  209.5000  154.5820 C   0  0  1  0  0  3  0  0  0  0  0  0
  162.0200  209.8350  150.9360 C   0  0  2  0  0  3  0  0  0  0  0  0
  160.8260  209.9990  156.5990 N   0  0  0  0  0  2  0  0  0  0  0  0
  162.9150  210.8650  151.5960 C   0  0  0  0  0  2  0  0  0  0  0  0
  161.8390  210.1990  149.4770 C   0  0  0  0  0  1  0  0  0  0  0  0
  159.6510  207.9720  152.3920 O   0  0  0  0  0  0  0  0  0  0  0  0
  162.9420  210.6800  153.9210 C   0  0  0  0  0  2  0  0  0  0  0  0
  160.8870  207.3360  152.2030 C   0  0  1  0  0  0  0  0  0  0  0  0
  159.8980  210.4560  154.3320 C   0  0  2  0  0  3  0  0  0  0  0  0
  163.6160  210.2520  152.7090 N   0  0  0  0  0  2  0  0  0  0  0  0
  157.8140  211.9630  155.5600 C   0  0  0  0  0  3  0  0  0  0  0  0
  158.4260  210.1130  154.0820 C   0  0  0  0  0  2  0  0  0  0  0  0
  162.6120  206.5150  148.8760 C   0  0  0  0  0  3  0  0  0  0  0  0
  160.2230  206.2600  148.6290 C   0  0  0  0  0  3  0  0  0  0  0  0
  161.1500  206.9200  150.7760 C   0  0  0  0  0  0  0  0  0  0  0  0
  161.5090  206.1940  148.0710 C   0  0  0  0  0  0  0  0  0  0  0  0
  160.0470  206.6250  149.9650 C   0  0  0  0  0  3  0  0  0  0  0  0
  162.4430  206.8840  150.2130 C   0  0  0  0  0  0  0  0  0  0  0  0
  163.5650  207.2180  150.9620 O   0  0  0  0  0  1  0  0  0  0  0  0
  160.7020  206.1480  145.6820 C   0  0  0  0  0  1  0  0  0  0  0  0
  162.8670  205.0710  146.2680 C   0  0  0  0  0  1  0  0  0  0  0  0
  161.6900  205.8130  146.6950 N   0  0  0  0  0  0  0  0  0  0  0  0
  161.2740  206.1570  153.5450 S   0  0  0  0  0  0  0  0  0  0  0  0
  161.6880  204.7940  152.4160 C   0  0  0  0  0  2  0  0  0  0  0  0
  160.6270  203.8030  152.4370 N   0  0  0  0  0  1  0  0  0  0  0  0
  2  1  1  6  0  0  0
  2  5  1  0  0  0  0
  3 10  1  0  0  0  0
  4 18  2  0  0  0  0
  5 16  1  0  0  0  0
  5  8  1  0  0  0  0
  7  6  1  0  0  0  0
  7 10  1  0  0  0  0
  8  3  1  0  0  0  0
  9  1  1  0  0  0  0
  9 11  1  0  0  0  0
 11 17  1  0  0  0  0
 12  9  1  0  0  0  0
 13  2  1  0  0  0  0
 14  8  1  0  0  0  0
 15 13  1  0  0  0  0
 15  2  1  0  0  0  0
 15 30  1  0  0  0  0
 16  7  1  0  0  0  0
 17 14  1  0  0  0  0
 18  6  1  0  0  0  0
 19 16  1  0  0  0  0
 19  4  1  0  0  0  0
 20 25  1  0  0  0  0
 21 24  2  0  0  0  0
 22 15  1  0  0  0  0
 23 21  1  0  0  0  0
 23 20  2  0  0  0  0
 24 22  1  0  0  0  0
 25 22  2  0  0  0  0
 25 26  1  0  0  0  0
 27 29  1  0  0  0  0
 28 29  1  0  0  0  0
 29 23  1  0  0  0  0
 31 32  1  0  0  0  0
 31 30  1  0  0  0  0
M  END
>  <MODEL>
4

>  <REMARK>
 VINA RESULT:       0.3      2.147      4.010
  Name = 
  4 active torsions:
  status: ('A' for Active; 'I' for Inactive)
    1  A    between atoms: S_1  and  C_4
    2  A    between atoms: S_1  and  C_27
    3  A    between atoms: C_16  and  C_27
    4  A    between atoms: C_19  and  N_26
                            x       y       z     vdW  Elec       q    Type
                         _______ _______ _______ _____ _____    ______ ____

>  <TORSDO>
F 4

$$$$
=
 OpenBabel11062408163D

 32 36  0  0  1  0  0  0  0  0999 V2000
  158.2180  211.4650  152.5230 O   0  0  0  0  0  0  0  0  0  0  0  0
  159.0050  211.3310  153.6860 C   0  0  1  0  0  0  0  0  0  0  0  0
  158.7510  214.1460  156.4170 C   0  0  0  0  0  2  0  0  0  0  0  0
  155.0460  210.6780  155.6670 C   0  0  0  0  0  3  0  0  0  0  0  0
  158.5460  212.1000  154.9370 C   0  0  1  0  0  3  0  0  0  0  0  0
  155.5000  212.4950  157.2600 C   0  0  0  0  0  2  0  0  0  0  0  0
  156.6310  213.0210  156.3590 C   0  0  1  0  0  3  0  0  0  0  0  0
  159.0990  213.5320  155.0490 C   0  0  1  0  0  3  0  0  0  0  0  0
  158.9050  212.2770  151.6080 C   0  0  2  0  0  3  0  0  0  0  0  0
  157.7920  213.3450  157.1880 N   0  0  0  0  0  2  0  0  0  0  0  0
  158.4990  213.7300  151.7570 C   0  0  0  0  0  2  0  0  0  0  0  0
  158.5840  211.8170  150.2010 C   0  0  0  0  0  1  0  0  0  0  0  0
  159.0770  209.9580  154.0160 O   0  0  0  0  0  0  0  0  0  0  0  0
  158.5370  214.4530  153.9740 C   0  0  0  0  0  2  0  0  0  0  0  0
  160.2970  210.5590  153.6680 C   0  0  1  0  0  0  0  0  0  0  0  0
  157.0300  212.0600  155.1940 C   0  0  2  0  0  3  0  0  0  0  0  0
  159.3320  214.3610  152.7650 N   0  0  0  0  0  2  0  0  0  0  0  0
  154.5600  211.5750  156.5310 C   0  0  0  0  0  3  0  0  0  0  0  0
  156.5230  210.6320  155.4170 C   0  0  0  0  0  2  0  0  0  0  0  0
  161.5080  208.3240  150.7960 C   0  0  0  0  0  3  0  0  0  0  0  0
  161.9760  210.6340  150.2710 C   0  0  0  0  0  3  0  0  0  0  0  0
  160.8680  210.0720  152.3590 C   0  0  0  0  0  0  0  0  0  0  0  0
  162.0260  209.2800  149.9090 C   0  0  0  0  0  0  0  0  0  0  0  0
  161.4090  211.0250  151.4860 C   0  0  0  0  0  3  0  0  0  0  0  0
  160.9410  208.7070  152.0140 C   0  0  0  0  0  0  0  0  0  0  0  0
  160.4660  207.7210  152.8700 O   0  0  0  0  0  1  0  0  0  0  0  0
  163.3910  209.8060  147.8540 C   0  0  0  0  0  1  0  0  0  0  0  0
  162.4230  207.5310  148.1360 C   0  0  0  0  0  1  0  0  0  0  0  0
  162.6060  208.8790  148.6540 N   0  0  0  0  0  0  0  0  0  0  0  0
  161.4160  210.7360  155.1020 S   0  0  0  0  0  0  0  0  0  0  0  0
  160.7120  209.3210  156.0010 C   0  0  0  0  0  2  0  0  0  0  0  0
  161.4740  208.1230  155.6990 N   0  0  0  0  0  1  0  0  0  0  0  0
  2  1  1  6  0  0  0
  2 13  1  0  0  0  0
  2  5  1  0  0  0  0
  3 10  1  0  0  0  0
  4 18  2  0  0  0  0
  5  8  1  0  0  0  0
  5 16  1  0  0  0  0
  7 10  1  0  0  0  0
  7  6  1  0  0  0  0
  8  3  1  0  0  0  0
  9 11  1  0  0  0  0
  9  1  1  0  0  0  0
 11 17  1  0  0  0  0
 12  9  1  0  0  0  0
 14  8  1  0  0  0  0
 15  2  1  0  0  0  0
 15 13  1  0  0  0  0
 15 30  1  0  0  0  0
 16 19  1  0  0  0  0
 16  7  1  0  0  0  0
 17 14  1  0  0  0  0
 18  6  1  0  0  0  0
 19  4  1  0  0  0  0
 20 25  1  0  0  0  0
 21 24  2  0  0  0  0
 22 15  1  0  0  0  0
 23 21  1  0  0  0  0
 23 20  2  0  0  0  0
 24 22  1  0  0  0  0
 25 22  2  0  0  0  0
 25 26  1  0  0  0  0
 27 29  1  0  0  0  0
 28 29  1  0  0  0  0
 29 23  1  0  0  0  0
 30 31  1  0  0  0  0
 32 31  1  0  0  0  0
M  END
>  <MODEL>
5

>  <REMARK>
 VINA RESULT:       1.0      2.966      5.558
  Name = 
  4 active torsions:
  status: ('A' for Active; 'I' for Inactive)
    1  A    between atoms: S_1  and  C_4
    2  A    between atoms: S_1  and  C_27
    3  A    between atoms: C_16  and  C_27
    4  A    between atoms: C_19  and  N_26
                            x       y       z     vdW  Elec       q    Type
                         _______ _______ _______ _____ _____    ______ ____

>  <TORSDO>
F 4

$$$$
=
 OpenBabel11062408163D

 32 36  0  0  1  0  0  0  0  0999 V2000
  162.0110  210.7510  151.9520 O   0  0  0  0  0  0  0  0  0  0  0  0
  160.7980  210.9090  152.6540 C   0  0  1  0  0  0  0  0  0  0  0  0
  159.5640  207.9250  154.8940 C   0  0  0  0  0  2  0  0  0  0  0  0
  163.4750  210.9580  156.2400 C   0  0  0  0  0  3  0  0  0  0  0  0
  160.5790  210.0160  153.8880 C   0  0  1  0  0  3  0  0  0  0  0  0
  162.2060  209.1170  157.2610 C   0  0  0  0  0  2  0  0  0  0  0  0
  161.5650  208.7870  155.9010 C   0  0  1  0  0  3  0  0  0  0  0  0
  159.9210  208.6570  153.5890 C   0  0  1  0  0  3  0  0  0  0  0  0
  161.7480  210.0850  150.7460 C   0  0  2  0  0  3  0  0  0  0  0  0
  160.1320  208.5560  156.0920 N   0  0  0  0  0  2  0  0  0  0  0  0
  161.9240  208.5870  150.9020 C   0  0  0  0  0  2  0  0  0  0  0  0
  162.7040  210.5870  149.6850 C   0  0  0  0  0  1  0  0  0  0  0  0
  160.6960  212.2580  153.0650 O   0  0  0  0  0  0  0  0  0  0  0  0
  160.8310  207.7410  152.7810 C   0  0  0  0  0  2  0  0  0  0  0  0
  159.7200  211.8310  152.1510 C   0  0  1  0  0  0  0  0  0  0  0  0
  161.8130  209.8570  154.7920 C   0  0  2  0  0  3  0  0  0  0  0  0
  160.6780  208.0010  151.3620 N   0  0  0  0  0  2  0  0  0  0  0  0
  163.4450  209.9590  157.1260 C   0  0  0  0  0  3  0  0  0  0  0  0
  162.2780  211.1980  155.3690 C   0  0  0  0  0  2  0  0  0  0  0  0
  158.9100  213.3610  148.7280 C   0  0  0  0  0  3  0  0  0  0  0  0
  161.3050  213.1970  148.9900 C   0  0  0  0  0  3  0  0  0  0  0  0
  159.8420  212.4610  150.7850 C   0  0  0  0  0  0  0  0  0  0  0  0
  160.1980  213.5690  148.2130 C   0  0  0  0  0  0  0  0  0  0  0  0
  161.1270  212.6440  150.2600 C   0  0  0  0  0  3  0  0  0  0  0  0
  158.7240  212.8060  149.9970 C   0  0  0  0  0  0  0  0  0  0  0  0
  157.4280  212.5950  150.4520 O   0  0  0  0  0  1  0  0  0  0  0  0
  161.7090  214.4450  146.3930 C   0  0  0  0  0  1  0  0  0  0  0  0
  159.2450  214.4530  146.0520 C   0  0  0  0  0  1  0  0  0  0  0  0
  160.3820  214.1450  146.9060 N   0  0  0  0  0  0  0  0  0  0  0  0
  158.0640  211.7040  152.9140 S   0  0  0  0  0  0  0  0  0  0  0  0
  158.3000  213.1460  153.9960 C   0  0  0  0  0  2  0  0  0  0  0  0
  157.9750  214.3600  153.2690 N   0  0  0  0  0  1  0  0  0  0  0  0
  2  1  1  6  0  0  0
  2 13  1  0  0  0  0
  2  5  1  0  0  0  0
  3 10  1  0  0  0  0
  4 18  2  0  0  0  0
  5 16  1  0  0  0  0
  7 10  1  0  0  0  0
  7  6  1  0  0  0  0
  8  5  1  0  0  0  0
  8  3  1  0  0  0  0
  9 11  1  0  0  0  0
  9  1  1  0  0  0  0
 11 17  1  0  0  0  0
 12  9  1  0  0  0  0
 14  8  1  0  0  0  0
 15  2  1  0  0  0  0
 15 30  1  0  0  0  0
 15 13  1  0  0  0  0
 16 19  1  0  0  0  0
 16  7  1  0  0  0  0
 17 14  1  0  0  0  0
 18  6  1  0  0  0  0
 19  4  1  0  0  0  0
 20 25  1  0  0  0  0
 21 24  2  0  0  0  0
 22 15  1  0  0  0  0
 23 20  2  0  0  0  0
 23 21  1  0  0  0  0
 24 22  1  0  0  0  0
 25 26  1  0  0  0  0
 25 22  2  0  0  0  0
 27 29  1  0  0  0  0
 28 29  1  0  0  0  0
 29 23  1  0  0  0  0
 30 31  1  0  0  0  0
 32 31  1  0  0  0  0
M  END
>  <MODEL>
6

>  <REMARK>
 VINA RESULT:       1.1      2.763      4.736
  Name = 
  4 active torsions:
  status: ('A' for Active; 'I' for Inactive)
    1  A    between atoms: S_1  and  C_4
    2  A    between atoms: S_1  and  C_27
    3  A    between atoms: C_16  and  C_27
    4  A    between atoms: C_19  and  N_26
                            x       y       z     vdW  Elec       q    Type
                         _______ _______ _______ _____ _____    ______ ____

>  <TORSDO>
F 4

$$$$
