=
 OpenBabel11052422573D

 28 31  0  0  1  0  0  0  0  0999 V2000
  160.9020  209.1460  152.8890 C   0  0  0  0  0  0  0  0  0  0  0  0
  161.5510  207.0240  148.3140 C   0  0  0  0  0  2  0  0  0  0  0  0
  161.1790  204.4460  153.9530 F   0  0  0  0  0  0  0  0  0  0  0  0
  161.1540  204.6190  148.8640 C   0  0  0  0  0  0  0  0  0  0  0  0
  161.2180  206.2010  150.7330 C   0  0  0  0  0  0  0  0  0  0  0  0
  161.3010  205.3850  146.4670 C   0  0  2  0  0  3  0  0  0  0  0  0
  161.3240  205.8930  149.2880 C   0  0  0  0  0  0  0  0  0  0  0  0
  161.4350  203.7410  151.1990 C   0  0  0  0  0  2  0  0  0  0  0  0
  161.4110  204.2130  147.4370 C   0  0  0  0  0  2  0  0  0  0  0  0
  161.0270  206.7810  153.4470 C   0  0  0  0  0  0  0  0  0  0  0  0
  161.1110  207.4900  151.1590 N   0  0  0  0  0  0  0  0  0  0  0  0
  160.7670  203.5380  149.8380 C   0  0  0  0  0  2  0  0  0  0  0  0
  160.8100  208.4180  155.1730 N   0  0  0  0  0  0  0  0  0  0  0  0
  161.1460  205.4470  153.0360 C   0  0  0  0  0  0  0  0  0  0  0  0
  160.9250  207.1160  154.8000 C   0  0  0  0  0  3  0  0  0  0  0  0
  161.7660  205.0000  145.2250 F   0  0  0  0  0  0  0  0  0  0  0  0
  162.1320  206.5460  146.9870 C   0  0  0  0  0  2  0  0  0  0  0  0
  161.2330  205.1530  151.6720 C   0  0  0  0  0  0  0  0  0  0  0  0
  160.7930  209.4240  154.2590 C   0  0  0  0  0  3  0  0  0  0  0  0
  161.0130  207.8080  152.4800 C   0  0  0  0  0  0  0  0  0  0  0  0
  160.8550  210.2600  151.8770 C   0  0  2  0  0  3  0  0  0  0  0  0
  162.0150  210.2990  151.0990 O   0  0  0  0  0  1  0  0  0  0  0  0
  160.5660  211.6230  152.5130 C   0  0  0  0  0  2  0  0  0  0  0  0
  158.9160  213.0980  151.2340 N   0  0  0  0  0  0  0  0  0  0  0  0
  158.2230  211.6490  152.9330 O   0  0  0  0  0  0  0  0  0  0  0  0
  159.1730  212.1110  152.2450 C   0  0  0  0  0  0  0  0  0  0  0  0
  159.9760  213.5810  150.3650 C   0  0  0  0  0  1  0  0  0  0  0  0
  157.5730  213.6160  151.0330 C   0  0  0  0  0  1  0  0  0  0  0  0
  1 19  1  0  0  0  0
  2  7  1  0  0  0  0
  4  7  2  0  0  0  0
  4 12  1  0  0  0  0
  5 11  2  0  0  0  0
  5 18  1  0  0  0  0
  6 16  1  6  0  0  0
  6 17  1  0  0  0  0
  6  9  1  0  0  0  0
  7  5  1  0  0  0  0
  8 18  1  0  0  0  0
  9  4  1  0  0  0  0
 10 15  2  0  0  0  0
 11 20  1  0  0  0  0
 12  8  1  0  0  0  0
 14 10  1  0  0  0  0
 14  3  1  0  0  0  0
 15 13  1  0  0  0  0
 17  2  1  0  0  0  0
 18 14  2  0  0  0  0
 19 13  2  0  0  0  0
 20  1  2  0  0  0  0
 20 10  1  0  0  0  0
 21 22  1  1  0  0  0
 21 23  1  0  0  0  0
 21  1  1  0  0  0  0
 24 26  1  0  0  0  0
 26 23  1  0  0  0  0
 26 25  2  0  0  0  0
 27 24  1  0  0  0  0
 28 24  1  0  0  0  0
M  END
>  <MODEL>
1

>  <REMARK>
 VINA RESULT:      -9.8      0.000      0.000
  Name = 
  3 active torsions:
  status: ('A' for Active; 'I' for Inactive)
    1  A    between atoms: C_1  and  C_2
    2  A    between atoms: C_2  and  C_3
    3  A    between atoms: C_3  and  C_11
                            x       y       z     vdW  Elec       q    Type
                         _______ _______ _______ _____ _____    ______ ____

>  <TORSDO>
F 3

$$$$
=
 OpenBabel11052422573D

 28 31  0  0  1  0  0  0  0  0999 V2000
  161.5540  209.5270  150.8060 C   0  0  0  0  0  0  0  0  0  0  0  0
  161.7500  205.6620  147.5080 C   0  0  0  0  0  2  0  0  0  0  0  0
  161.1640  205.6770  153.6920 F   0  0  0  0  0  0  0  0  0  0  0  0
  161.0180  203.7730  148.9710 C   0  0  0  0  0  0  0  0  0  0  0  0
  161.3690  205.9490  150.0400 C   0  0  0  0  0  0  0  0  0  0  0  0
  161.2070  203.4710  146.4750 C   0  0  2  0  0  3  0  0  0  0  0  0
  161.3870  205.0700  148.8480 C   0  0  0  0  0  0  0  0  0  0  0  0
  161.2330  203.8870  151.4690 C   0  0  0  0  0  2  0  0  0  0  0  0
  161.1700  202.7900  147.8400 C   0  0  0  0  0  2  0  0  0  0  0  0
  161.3440  207.6010  152.2780 C   0  0  0  0  0  0  0  0  0  0  0  0
  161.4670  207.3010  149.9030 N   0  0  0  0  0  0  0  0  0  0  0  0
  160.5030  203.2490  150.2850 C   0  0  0  0  0  2  0  0  0  0  0  0
  161.4210  209.8090  153.1840 N   0  0  0  0  0  0  0  0  0  0  0  0
  161.2520  206.2130  152.4470 C   0  0  0  0  0  0  0  0  0  0  0  0
  161.3320  208.4670  153.3750 C   0  0  0  0  0  3  0  0  0  0  0  0
  161.5740  202.5520  145.5120 F   0  0  0  0  0  0  0  0  0  0  0  0
  162.2150  204.6080  146.5090 C   0  0  0  0  0  2  0  0  0  0  0  0
  161.2550  205.3810  151.3220 C   0  0  0  0  0  0  0  0  0  0  0  0
  161.5270  210.3490  151.9420 C   0  0  0  0  0  3  0  0  0  0  0  0
  161.4550  208.1370  150.9780 C   0  0  0  0  0  0  0  0  0  0  0  0
  161.6430  210.1280  149.4290 C   0  0  2  0  0  3  0  0  0  0  0  0
  162.5160  209.4090  148.6080 O   0  0  0  0  0  1  0  0  0  0  0  0
  162.0060  211.6160  149.4570 C   0  0  0  0  0  2  0  0  0  0  0  0
  161.4190  212.6510  147.1960 N   0  0  0  0  0  0  0  0  0  0  0  0
  163.6220  212.1390  147.7890 O   0  0  0  0  0  0  0  0  0  0  0  0
  162.4030  212.1480  148.1130 C   0  0  0  0  0  0  0  0  0  0  0  0
  160.0200  212.7600  147.5750 C   0  0  0  0  0  1  0  0  0  0  0  0
  161.8070  213.0970  145.8680 C   0  0  0  0  0  1  0  0  0  0  0  0
  1 20  2  0  0  0  0
  1 19  1  0  0  0  0
  2  7  1  0  0  0  0
  4 12  1  0  0  0  0
  5 18  1  0  0  0  0
  6 16  1  6  0  0  0
  6 17  1  0  0  0  0
  6  9  1  0  0  0  0
  7  4  2  0  0  0  0
  7  5  1  0  0  0  0
  9  4  1  0  0  0  0
 10 14  1  0  0  0  0
 10 15  2  0  0  0  0
 11  5  2  0  0  0  0
 11 20  1  0  0  0  0
 12  8  1  0  0  0  0
 13 15  1  0  0  0  0
 14  3  1  0  0  0  0
 17  2  1  0  0  0  0
 18  8  1  0  0  0  0
 18 14  2  0  0  0  0
 19 13  2  0  0  0  0
 20 10  1  0  0  0  0
 21 22  1  6  0  0  0
 21 23  1  0  0  0  0
 21  1  1  0  0  0  0
 24 27  1  0  0  0  0
 24 26  1  0  0  0  0
 25 26  2  0  0  0  0
 26 23  1  0  0  0  0
 28 24  1  0  0  0  0
M  END
>  <MODEL>
2

>  <REMARK>
 VINA RESULT:      -9.5      2.262      2.910
  Name = 
  3 active torsions:
  status: ('A' for Active; 'I' for Inactive)
    1  A    between atoms: C_1  and  C_2
    2  A    between atoms: C_2  and  C_3
    3  A    between atoms: C_3  and  C_11
                            x       y       z     vdW  Elec       q    Type
                         _______ _______ _______ _____ _____    ______ ____

>  <TORSDO>
F 3

$$$$
=
 OpenBabel11052422573D

 28 31  0  0  1  0  0  0  0  0999 V2000
  161.2970  207.5290  152.1630 C   0  0  0  0  0  0  0  0  0  0  0  0
  161.7800  206.1580  147.2900 C   0  0  0  0  0  2  0  0  0  0  0  0
  160.9790  202.7180  152.4000 F   0  0  0  0  0  0  0  0  0  0  0  0
  161.0820  203.7620  147.4170 C   0  0  0  0  0  0  0  0  0  0  0  0
  161.2980  204.9810  149.5310 C   0  0  0  0  0  0  0  0  0  0  0  0
  161.3710  204.9030  145.1880 C   0  0  2  0  0  3  0  0  0  0  0  0
  161.3970  204.9140  148.0550 C   0  0  0  0  0  0  0  0  0  0  0  0
  161.2050  202.4700  149.5650 C   0  0  0  0  0  2  0  0  0  0  0  0
  161.3170  203.5780  145.9410 C   0  0  0  0  0  2  0  0  0  0  0  0
  161.1220  205.1060  152.3040 C   0  0  0  0  0  0  0  0  0  0  0  0
  161.3400  206.1810  150.1730 N   0  0  0  0  0  0  0  0  0  0  0  0
  160.5450  202.5860  148.1900 C   0  0  0  0  0  2  0  0  0  0  0  0
  161.0690  206.4380  154.2860 N   0  0  0  0  0  0  0  0  0  0  0  0
  161.0860  203.8580  151.6690 C   0  0  0  0  0  0  0  0  0  0  0  0
  161.0330  205.2150  153.6950 C   0  0  0  0  0  3  0  0  0  0  0  0
  161.8110  204.6820  143.8980 F   0  0  0  0  0  0  0  0  0  0  0  0
  162.3260  205.8470  145.9000 C   0  0  0  0  0  2  0  0  0  0  0  0
  161.1660  203.7930  150.2740 C   0  0  0  0  0  0  0  0  0  0  0  0
  161.1940  207.5790  153.5600 C   0  0  0  0  0  3  0  0  0  0  0  0
  161.2540  206.2780  151.5280 C   0  0  0  0  0  0  0  0  0  0  0  0
  161.4070  208.7970  151.3580 C   0  0  2  0  0  3  0  0  0  0  0  0
  162.0910  208.5870  150.1570 O   0  0  0  0  0  1  0  0  0  0  0  0
  162.0240  209.9500  152.1550 C   0  0  0  0  0  2  0  0  0  0  0  0
  160.9460  211.2190  154.0940 N   0  0  0  0  0  0  0  0  0  0  0  0
  160.1710  211.4210  151.8980 O   0  0  0  0  0  0  0  0  0  0  0  0
  161.0000  210.9040  152.6950 C   0  0  0  0  0  0  0  0  0  0  0  0
  161.9440  210.7100  155.0210 C   0  0  0  0  0  1  0  0  0  0  0  0
  159.9040  212.0880  154.6160 C   0  0  0  0  0  1  0  0  0  0  0  0
  1 19  1  0  0  0  0
  2  7  1  0  0  0  0
  4  7  2  0  0  0  0
  4 12  1  0  0  0  0
  5 11  2  0  0  0  0
  5 18  1  0  0  0  0
  6 16  1  6  0  0  0
  6 17  1  0  0  0  0
  6  9  1  0  0  0  0
  7  5  1  0  0  0  0
  8 18  1  0  0  0  0
  9  4  1  0  0  0  0
 10 15  2  0  0  0  0
 11 20  1  0  0  0  0
 12  8  1  0  0  0  0
 14 10  1  0  0  0  0
 14  3  1  0  0  0  0
 15 13  1  0  0  0  0
 17  2  1  0  0  0  0
 18 14  2  0  0  0  0
 19 13  2  0  0  0  0
 20  1  2  0  0  0  0
 20 10  1  0  0  0  0
 21 22  1  6  0  0  0
 21 23  1  0  0  0  0
 21  1  1  0  0  0  0
 23 26  1  0  0  0  0
 24 28  1  0  0  0  0
 24 27  1  0  0  0  0
 25 26  2  0  0  0  0
 26 24  1  0  0  0  0
M  END
>  <MODEL>
3

>  <REMARK>
 VINA RESULT:      -9.5      1.862      2.381
  Name = 
  3 active torsions:
  status: ('A' for Active; 'I' for Inactive)
    1  A    between atoms: C_1  and  C_2
    2  A    between atoms: C_2  and  C_3
    3  A    between atoms: C_3  and  C_11
                            x       y       z     vdW  Elec       q    Type
                         _______ _______ _______ _____ _____    ______ ____

>  <TORSDO>
F 3

$$$$
=
 OpenBabel11052422573D

 28 31  0  0  1  0  0  0  0  0999 V2000
  161.4620  207.9140  152.6540 C   0  0  0  0  0  0  0  0  0  0  0  0
  160.8370  203.3530  150.4940 C   0  0  0  0  0  2  0  0  0  0  0  0
  161.6720  208.9560  147.9450 F   0  0  0  0  0  0  0  0  0  0  0  0
  161.4800  203.8710  148.1360 C   0  0  0  0  0  0  0  0  0  0  0  0
  161.3420  205.7520  149.6990 C   0  0  0  0  0  0  0  0  0  0  0  0
  161.1680  201.4870  148.8920 C   0  0  2  0  0  3  0  0  0  0  0  0
  161.2080  204.3100  149.3870 C   0  0  0  0  0  0  0  0  0  0  0  0
  161.3760  206.2080  147.2280 C   0  0  0  0  0  2  0  0  0  0  0  0
  161.2070  202.4510  147.7120 C   0  0  0  0  0  2  0  0  0  0  0  0
  161.5830  208.4600  150.2860 C   0  0  0  0  0  0  0  0  0  0  0  0
  161.3420  206.1820  150.9910 N   0  0  0  0  0  0  0  0  0  0  0  0
  162.0070  204.8210  147.0930 C   0  0  0  0  0  2  0  0  0  0  0  0
  161.7130  210.1870  151.9310 N   0  0  0  0  0  0  0  0  0  0  0  0
  161.5750  208.0450  148.9480 C   0  0  0  0  0  0  0  0  0  0  0  0
  161.7060  209.8100  150.6250 C   0  0  0  0  0  3  0  0  0  0  0  0
  160.6930  200.2610  148.4690 F   0  0  0  0  0  0  0  0  0  0  0  0
  160.2520  202.0460  149.9680 C   0  0  0  0  0  2  0  0  0  0  0  0
  161.4620  206.6830  148.6510 C   0  0  0  0  0  0  0  0  0  0  0  0
  161.5980  209.2800  152.9370 C   0  0  0  0  0  3  0  0  0  0  0  0
  161.4620  207.5000  151.3130 C   0  0  0  0  0  0  0  0  0  0  0  0
  161.3640  206.9080  153.7700 C   0  0  2  0  0  3  0  0  0  0  0  0
  161.0980  205.6250  153.2860 O   0  0  0  0  0  1  0  0  0  0  0  0
  160.3530  207.3180  154.8460 C   0  0  0  0  0  2  0  0  0  0  0  0
  160.4320  209.4490  156.2540 N   0  0  0  0  0  0  0  0  0  0  0  0
  161.9570  207.7040  156.5620 O   0  0  0  0  0  0  0  0  0  0  0  0
  160.9600  208.1530  155.9340 C   0  0  0  0  0  0  0  0  0  0  0  0
  159.2300  209.9530  155.6120 C   0  0  0  0  0  1  0  0  0  0  0  0
  161.0730  210.2790  157.2610 C   0  0  0  0  0  1  0  0  0  0  0  0
  1 19  1  0  0  0  0
  1 21  1  0  0  0  0
  3 14  1  0  0  0  0
  4  7  2  0  0  0  0
  5 11  2  0  0  0  0
  6 16  1  6  0  0  0
  6 17  1  0  0  0  0
  7  5  1  0  0  0  0
  7  2  1  0  0  0  0
  8 18  1  0  0  0  0
  9  4  1  0  0  0  0
  9  6  1  0  0  0  0
 10 15  2  0  0  0  0
 10 20  1  0  0  0  0
 11 20  1  0  0  0  0
 12  8  1  0  0  0  0
 12  4  1  0  0  0  0
 13 19  2  0  0  0  0
 14 10  1  0  0  0  0
 15 13  1  0  0  0  0
 17  2  1  0  0  0  0
 18 14  2  0  0  0  0
 18  5  1  0  0  0  0
 20  1  2  0  0  0  0
 21 22  1  6  0  0  0
 21 23  1  0  0  0  0
 23 26  1  0  0  0  0
 24 28  1  0  0  0  0
 26 24  1  0  0  0  0
 26 25  2  0  0  0  0
 27 24  1  0  0  0  0
M  END
>  <MODEL>
4

>  <REMARK>
 VINA RESULT:      -9.2      2.997      4.574
  Name = 
  3 active torsions:
  status: ('A' for Active; 'I' for Inactive)
    1  A    between atoms: C_1  and  C_2
    2  A    between atoms: C_2  and  C_3
    3  A    between atoms: C_3  and  C_11
                            x       y       z     vdW  Elec       q    Type
                         _______ _______ _______ _____ _____    ______ ____

>  <TORSDO>
F 3

$$$$
=
 OpenBabel11052422573D

 28 31  0  0  1  0  0  0  0  0999 V2000
  161.2940  204.8290  149.2510 C   0  0  0  0  0  0  0  0  0  0  0  0
  160.7970  206.6950  153.9550 C   0  0  0  0  0  2  0  0  0  0  0  0
  162.3580  209.4970  148.6360 F   0  0  0  0  0  0  0  0  0  0  0  0
  160.8310  209.1480  153.4810 C   0  0  0  0  0  0  0  0  0  0  0  0
  161.2720  207.6370  151.6040 C   0  0  0  0  0  0  0  0  0  0  0  0
  160.1910  208.2860  155.7610 C   0  0  2  0  0  3  0  0  0  0  0  0
  160.9840  207.8790  153.0370 C   0  0  0  0  0  0  0  0  0  0  0  0
  161.8710  210.0680  151.3900 C   0  0  0  0  0  2  0  0  0  0  0  0
  160.7000  209.4710  154.9460 C   0  0  0  0  0  2  0  0  0  0  0  0
  161.8230  207.1800  148.9160 C   0  0  0  0  0  0  0  0  0  0  0  0
  161.1610  206.3860  151.0780 N   0  0  0  0  0  0  0  0  0  0  0  0
  160.8590  210.3020  152.5130 C   0  0  0  0  0  2  0  0  0  0  0  0
  161.9490  205.6430  147.0930 N   0  0  0  0  0  0  0  0  0  0  0  0
  161.9540  208.4750  149.4340 C   0  0  0  0  0  0  0  0  0  0  0  0
  162.0850  206.9070  147.5710 C   0  0  0  0  0  3  0  0  0  0  0  0
  160.3100  208.5690  157.1080 F   0  0  0  0  0  0  0  0  0  0  0  0
  161.0110  207.0530  155.4220 C   0  0  0  0  0  2  0  0  0  0  0  0
  161.6690  208.7080  150.7830 C   0  0  0  0  0  0  0  0  0  0  0  0
  161.5610  204.6140  147.8920 C   0  0  0  0  0  3  0  0  0  0  0  0
  161.4200  206.1280  149.7660 C   0  0  0  0  0  0  0  0  0  0  0  0
  160.8380  203.6940  150.1290 C   0  0  2  0  0  3  0  0  0  0  0  0
  161.9130  203.0740  150.7710 O   0  0  0  0  0  1  0  0  0  0  0  0
  159.9780  202.6740  149.3760 C   0  0  0  0  0  2  0  0  0  0  0  0
  160.9100  201.0690  147.6200 N   0  0  0  0  0  0  0  0  0  0  0  0
  161.2060  200.7070  149.9110 O   0  0  0  0  0  0  0  0  0  0  0  0
  160.7330  201.4360  148.9970 C   0  0  0  0  0  0  0  0  0  0  0  0
  160.4570  201.9340  146.5450 C   0  0  0  0  0  1  0  0  0  0  0  0
  161.5810  199.8280  147.2680 C   0  0  0  0  0  1  0  0  0  0  0  0
  1 20  1  0  0  0  0
  1 21  1  0  0  0  0
  2 17  1  0  0  0  0
  3 14  1  0  0  0  0
  4  9  1  0  0  0  0
  5  7  1  0  0  0  0
  6 16  1  1  0  0  0
  7  4  2  0  0  0  0
  7  2  1  0  0  0  0
  8 12  1  0  0  0  0
  9  6  1  0  0  0  0
 10 14  2  0  0  0  0
 10 20  1  0  0  0  0
 11  5  1  0  0  0  0
 12  4  1  0  0  0  0
 13 15  2  0  0  0  0
 13 19  1  0  0  0  0
 14 18  1  0  0  0  0
 15 10  1  0  0  0  0
 17  6  1  0  0  0  0
 18  8  1  0  0  0  0
 18  5  2  0  0  0  0
 19  1  2  0  0  0  0
 20 11  2  0  0  0  0
 21 22  1  6  0  0  0
 23 21  1  0  0  0  0
 24 26  1  0  0  0  0
 26 23  1  0  0  0  0
 26 25  2  0  0  0  0
 27 24  1  0  0  0  0
 28 24  1  0  0  0  0
M  END
>  <MODEL>
5

>  <REMARK>
 VINA RESULT:      -8.5      3.490      8.308
  Name = 
  3 active torsions:
  status: ('A' for Active; 'I' for Inactive)
    1  A    between atoms: C_1  and  C_2
    2  A    between atoms: C_2  and  C_3
    3  A    between atoms: C_3  and  C_11
                            x       y       z     vdW  Elec       q    Type
                         _______ _______ _______ _____ _____    ______ ____

>  <TORSDO>
F 3

$$$$
=
 OpenBabel11052422573D

 28 31  0  0  1  0  0  0  0  0999 V2000
  161.0560  203.7750  149.6060 C   0  0  0  0  0  0  0  0  0  0  0  0
  161.5570  208.6990  148.4390 C   0  0  0  0  0  2  0  0  0  0  0  0
  161.0050  205.8840  153.9480 F   0  0  0  0  0  0  0  0  0  0  0  0
  162.0550  209.6560  150.6930 C   0  0  0  0  0  0  0  0  0  0  0  0
  161.4630  207.2810  150.5880 C   0  0  0  0  0  0  0  0  0  0  0  0
  162.3310  211.0510  148.6110 C   0  0  2  0  0  3  0  0  0  0  0  0
  161.6840  208.5940  149.9390 C   0  0  0  0  0  0  0  0  0  0  0  0
  161.3850  208.4700  152.8010 C   0  0  0  0  0  2  0  0  0  0  0  0
  162.1350  211.0490  150.1240 C   0  0  0  0  0  2  0  0  0  0  0  0
  161.0400  204.8160  151.8060 C   0  0  0  0  0  0  0  0  0  0  0  0
  161.3600  206.1490  149.8390 N   0  0  0  0  0  0  0  0  0  0  0  0
  162.3340  209.4860  152.1630 C   0  0  0  0  0  2  0  0  0  0  0  0
  160.7460  202.4560  151.5850 N   0  0  0  0  0  0  0  0  0  0  0  0
  161.1320  205.9670  152.5990 C   0  0  0  0  0  0  0  0  0  0  0  0
  160.8310  203.5580  152.3770 C   0  0  0  0  0  3  0  0  0  0  0  0
  162.1680  212.3340  148.1280 F   0  0  0  0  0  0  0  0  0  0  0  0
  161.3070  210.1290  147.9700 C   0  0  0  0  0  2  0  0  0  0  0  0
  161.3540  207.2060  151.9890 C   0  0  0  0  0  0  0  0  0  0  0  0
  160.8560  202.5370  150.2330 C   0  0  0  0  0  3  0  0  0  0  0  0
  161.1560  204.9260  150.4040 C   0  0  0  0  0  0  0  0  0  0  0  0
  161.2050  203.8590  148.1110 C   0  0  2  0  0  3  0  0  0  0  0  0
  161.3830  202.5970  147.5390 O   0  0  0  0  0  1  0  0  0  0  0  0
  162.3130  204.8260  147.6820 C   0  0  0  0  0  2  0  0  0  0  0  0
  161.4600  205.5440  145.3820 N   0  0  0  0  0  0  0  0  0  0  0  0
  163.4940  204.4240  145.6540 O   0  0  0  0  0  0  0  0  0  0  0  0
  162.4660  204.9180  146.1920 C   0  0  0  0  0  0  0  0  0  0  0  0
  160.3110  206.2020  145.9810 C   0  0  0  0  0  1  0  0  0  0  0  0
  161.5850  205.5630  143.9340 C   0  0  0  0  0  1  0  0  0  0  0  0
  1 19  2  0  0  0  0
  1 20  1  0  0  0  0
  2  7  1  0  0  0  0
  4 12  1  0  0  0  0
  5 18  1  0  0  0  0
  6 16  1  6  0  0  0
  6  9  1  0  0  0  0
  7  5  1  0  0  0  0
  7  4  2  0  0  0  0
  9  4  1  0  0  0  0
 10 15  1  0  0  0  0
 10 14  1  0  0  0  0
 11 20  1  0  0  0  0
 11  5  2  0  0  0  0
 12  8  1  0  0  0  0
 13 15  2  0  0  0  0
 14  3  1  0  0  0  0
 17  2  1  0  0  0  0
 17  6  1  0  0  0  0
 18 14  2  0  0  0  0
 18  8  1  0  0  0  0
 19 13  1  0  0  0  0
 20 10  2  0  0  0  0
 21 22  1  1  0  0  0
 21  1  1  0  0  0  0
 23 21  1  0  0  0  0
 24 27  1  0  0  0  0
 24 26  1  0  0  0  0
 25 26  2  0  0  0  0
 26 23  1  0  0  0  0
 28 24  1  0  0  0  0
M  END
>  <MODEL>
6

>  <REMARK>
 VINA RESULT:      -8.0      3.954      6.585
  Name = 
  3 active torsions:
  status: ('A' for Active; 'I' for Inactive)
    1  A    between atoms: C_1  and  C_2
    2  A    between atoms: C_2  and  C_3
    3  A    between atoms: C_3  and  C_11
                            x       y       z     vdW  Elec       q    Type
                         _______ _______ _______ _____ _____    ______ ____

>  <TORSDO>
F 3

$$$$
=
 OpenBabel11052422573D

 28 31  0  0  1  0  0  0  0  0999 V2000
  160.8320  202.7540  148.3840 C   0  0  0  0  0  0  0  0  0  0  0  0
  161.4900  207.7900  148.6270 C   0  0  0  0  0  2  0  0  0  0  0  0
  160.7970  203.5790  153.1400 F   0  0  0  0  0  0  0  0  0  0  0  0
  161.9920  208.0700  151.0580 C   0  0  0  0  0  0  0  0  0  0  0  0
  161.3320  205.8360  150.2990 C   0  0  0  0  0  0  0  0  0  0  0  0
  162.3310  209.9770  149.4450 C   0  0  2  0  0  3  0  0  0  0  0  0
  161.5980  207.2700  150.0400 C   0  0  0  0  0  0  0  0  0  0  0  0
  161.2650  206.3680  152.7540 C   0  0  0  0  0  2  0  0  0  0  0  0
  162.1190  209.5620  150.8980 C   0  0  0  0  0  2  0  0  0  0  0  0
  160.8230  203.1450  150.7860 C   0  0  0  0  0  0  0  0  0  0  0  0
  161.2030  204.9590  149.2660 N   0  0  0  0  0  0  0  0  0  0  0  0
  162.2500  207.4910  152.4250 C   0  0  0  0  0  2  0  0  0  0  0  0
  160.4620  200.9490  149.9200 N   0  0  0  0  0  0  0  0  0  0  0  0
  160.9410  204.0280  151.8670 C   0  0  0  0  0  0  0  0  0  0  0  0
  160.5710  201.7850  150.9850 C   0  0  0  0  0  3  0  0  0  0  0  0
  162.2110  211.3480  149.3360 F   0  0  0  0  0  0  0  0  0  0  0  0
  161.2880  209.3000  148.5720 C   0  0  0  0  0  2  0  0  0  0  0  0
  161.2060  205.3800  151.6250 C   0  0  0  0  0  0  0  0  0  0  0  0
  160.5890  201.3970  148.6430 C   0  0  0  0  0  3  0  0  0  0  0  0
  160.9570  203.6350  149.4690 C   0  0  0  0  0  0  0  0  0  0  0  0
  161.0000  203.2430  146.9710 C   0  0  2  0  0  3  0  0  0  0  0  0
  161.2100  202.1870  146.0800 O   0  0  0  0  0  1  0  0  0  0  0  0
  162.0940  204.3070  146.8400 C   0  0  0  0  0  2  0  0  0  0  0  0
  161.3980  205.5020  144.6910 N   0  0  0  0  0  0  0  0  0  0  0  0
  163.4190  204.3400  144.8630 O   0  0  0  0  0  0  0  0  0  0  0  0
  162.3510  204.7130  145.4200 C   0  0  0  0  0  0  0  0  0  0  0  0
  160.2030  206.0230  145.3330 C   0  0  0  0  0  1  0  0  0  0  0  0
  161.6250  205.8280  143.2930 C   0  0  0  0  0  1  0  0  0  0  0  0
  1 19  2  0  0  0  0
  1 20  1  0  0  0  0
  2  7  1  0  0  0  0
  4 12  1  0  0  0  0
  5 18  1  0  0  0  0
  6 16  1  1  0  0  0
  6  9  1  0  0  0  0
  7  5  1  0  0  0  0
  7  4  2  0  0  0  0
  9  4  1  0  0  0  0
 10 15  1  0  0  0  0
 10 14  1  0  0  0  0
 11 20  1  0  0  0  0
 11  5  2  0  0  0  0
 12  8  1  0  0  0  0
 13 15  2  0  0  0  0
 14  3  1  0  0  0  0
 17  2  1  0  0  0  0
 17  6  1  0  0  0  0
 18 14  2  0  0  0  0
 18  8  1  0  0  0  0
 19 13  1  0  0  0  0
 20 10  2  0  0  0  0
 21 22  1  6  0  0  0
 21  1  1  0  0  0  0
 23 21  1  0  0  0  0
 24 27  1  0  0  0  0
 24 26  1  0  0  0  0
 25 26  2  0  0  0  0
 26 23  1  0  0  0  0
 28 24  1  0  0  0  0
M  END
>  <MODEL>
7

>  <REMARK>
 VINA RESULT:      -7.9      4.362      7.013
  Name = 
  3 active torsions:
  status: ('A' for Active; 'I' for Inactive)
    1  A    between atoms: C_1  and  C_2
    2  A    between atoms: C_2  and  C_3
    3  A    between atoms: C_3  and  C_11
                            x       y       z     vdW  Elec       q    Type
                         _______ _______ _______ _____ _____    ______ ____

>  <TORSDO>
F 3

$$$$
=
 OpenBabel11052422573D

 28 31  0  0  1  0  0  0  0  0999 V2000
  161.9020  208.3210  151.8390 C   0  0  0  0  0  0  0  0  0  0  0  0
  160.8900  203.4020  151.0380 C   0  0  0  0  0  2  0  0  0  0  0  0
  161.5940  208.0930  147.0270 F   0  0  0  0  0  0  0  0  0  0  0  0
  161.2700  203.2520  148.5730 C   0  0  0  0  0  0  0  0  0  0  0  0
  161.3720  205.4780  149.5900 C   0  0  0  0  0  0  0  0  0  0  0  0
  160.9750  201.1680  149.9610 C   0  0  2  0  0  3  0  0  0  0  0  0
  161.1580  204.0160  149.6850 C   0  0  0  0  0  0  0  0  0  0  0  0
  161.1320  205.2770  147.0960 C   0  0  0  0  0  2  0  0  0  0  0  0
  160.9060  201.7900  148.5700 C   0  0  0  0  0  2  0  0  0  0  0  0
  161.7630  208.2270  149.4120 C   0  0  0  0  0  0  0  0  0  0  0  0
  161.5360  206.2280  150.7150 N   0  0  0  0  0  0  0  0  0  0  0  0
  161.7000  203.8670  147.2670 C   0  0  0  0  0  2  0  0  0  0  0  0
  162.1350  210.3100  150.5190 N   0  0  0  0  0  0  0  0  0  0  0  0
  161.5860  207.4800  148.2400 C   0  0  0  0  0  0  0  0  0  0  0  0
  161.9660  209.6090  149.3680 C   0  0  0  0  0  3  0  0  0  0  0  0
  160.4170  199.9060  149.9280 F   0  0  0  0  0  0  0  0  0  0  0  0
  160.2080  202.0420  150.9400 C   0  0  0  0  0  2  0  0  0  0  0  0
  161.3980  206.0970  148.3260 C   0  0  0  0  0  0  0  0  0  0  0  0
  162.1110  209.7030  151.7350 C   0  0  0  0  0  3  0  0  0  0  0  0
  161.7320  207.5740  150.6630 C   0  0  0  0  0  0  0  0  0  0  0  0
  161.9030  207.6470  153.1850 C   0  0  2  0  0  3  0  0  0  0  0  0
  161.9960  206.2570  153.0660 O   0  0  0  0  0  1  0  0  0  0  0  0
  160.7060  208.0520  154.0500 C   0  0  0  0  0  2  0  0  0  0  0  0
  160.6990  210.2040  155.4280 N   0  0  0  0  0  0  0  0  0  0  0  0
  161.8040  208.2740  156.1500 O   0  0  0  0  0  0  0  0  0  0  0  0
  161.1000  208.8350  155.2670 C   0  0  0  0  0  0  0  0  0  0  0  0
  159.8130  210.8480  154.4730 C   0  0  0  0  0  1  0  0  0  0  0  0
  161.1470  210.9740  156.5770 C   0  0  0  0  0  1  0  0  0  0  0  0
  1 21  1  0  0  0  0
  3 14  1  0  0  0  0
  4  7  2  0  0  0  0
  5  7  1  0  0  0  0
  5 11  2  0  0  0  0
  6 16  1  6  0  0  0
  6 17  1  0  0  0  0
  7  2  1  0  0  0  0
  8 12  1  0  0  0  0
  8 18  1  0  0  0  0
  9  4  1  0  0  0  0
  9  6  1  0  0  0  0
 10 20  1  0  0  0  0
 12  4  1  0  0  0  0
 13 19  2  0  0  0  0
 14 18  2  0  0  0  0
 14 10  1  0  0  0  0
 15 10  2  0  0  0  0
 15 13  1  0  0  0  0
 17  2  1  0  0  0  0
 18  5  1  0  0  0  0
 19  1  1  0  0  0  0
 20 11  1  0  0  0  0
 20  1  2  0  0  0  0
 21 22  1  6  0  0  0
 21 23  1  0  0  0  0
 23 26  1  0  0  0  0
 24 28  1  0  0  0  0
 26 24  1  0  0  0  0
 26 25  2  0  0  0  0
 27 24  1  0  0  0  0
M  END
>  <MODEL>
8

>  <REMARK>
 VINA RESULT:      -7.7      2.757      4.590
  Name = 
  3 active torsions:
  status: ('A' for Active; 'I' for Inactive)
    1  A    between atoms: C_1  and  C_2
    2  A    between atoms: C_2  and  C_3
    3  A    between atoms: C_3  and  C_11
                            x       y       z     vdW  Elec       q    Type
                         _______ _______ _______ _____ _____    ______ ____

>  <TORSDO>
F 3

$$$$
=
 OpenBabel11052422573D

 28 31  0  0  1  0  0  0  0  0999 V2000
  161.3420  204.5270  148.7870 C   0  0  0  0  0  0  0  0  0  0  0  0
  161.7560  209.5780  148.3700 C   0  0  0  0  0  2  0  0  0  0  0  0
  160.7240  206.0010  153.3420 F   0  0  0  0  0  0  0  0  0  0  0  0
  161.9620  210.2210  150.7760 C   0  0  0  0  0  0  0  0  0  0  0  0
  161.4880  207.8700  150.2800 C   0  0  0  0  0  0  0  0  0  0  0  0
  162.4050  211.9020  148.9510 C   0  0  2  0  0  3  0  0  0  0  0  0
  161.7210  209.2670  149.8470 C   0  0  0  0  0  0  0  0  0  0  0  0
  161.1160  208.7320  152.6110 C   0  0  0  0  0  2  0  0  0  0  0  0
  162.0440  211.6820  150.4160 C   0  0  0  0  0  2  0  0  0  0  0  0
  161.0390  205.2470  151.0920 C   0  0  0  0  0  0  0  0  0  0  0  0
  161.5160  206.8520  149.3760 N   0  0  0  0  0  0  0  0  0  0  0  0
  162.0850  209.8540  152.2310 C   0  0  0  0  0  2  0  0  0  0  0  0
  160.8730  202.9350  150.5180 N   0  0  0  0  0  0  0  0  0  0  0  0
  160.9950  206.2770  152.0400 C   0  0  0  0  0  0  0  0  0  0  0  0
  160.8230  203.9150  151.4570 C   0  0  0  0  0  3  0  0  0  0  0  0
  162.2410  213.2360  148.6330 F   0  0  0  0  0  0  0  0  0  0  0  0
  161.4980  211.0520  148.0770 C   0  0  0  0  0  2  0  0  0  0  0  0
  161.2290  207.5950  151.6360 C   0  0  0  0  0  0  0  0  0  0  0  0
  161.1270  203.2080  149.2120 C   0  0  0  0  0  3  0  0  0  0  0  0
  161.3030  205.5570  149.7410 C   0  0  0  0  0  0  0  0  0  0  0  0
  161.6500  204.8260  147.3440 C   0  0  2  0  0  3  0  0  0  0  0  0
  160.5630  205.4190  146.6970 O   0  0  0  0  0  1  0  0  0  0  0  0
  162.1480  203.5950  146.5810 C   0  0  0  0  0  2  0  0  0  0  0  0
  160.6470  201.7160  145.7180 N   0  0  0  0  0  0  0  0  0  0  0  0
  160.7340  203.8080  144.6780 O   0  0  0  0  0  0  0  0  0  0  0  0
  161.1400  203.0600  145.6090 C   0  0  0  0  0  0  0  0  0  0  0  0
  161.0260  200.8620  146.8310 C   0  0  0  0  0  1  0  0  0  0  0  0
  159.7240  201.1850  144.7280 C   0  0  0  0  0  1  0  0  0  0  0  0
  1 19  2  0  0  0  0
  1 20  1  0  0  0  0
  2  7  1  0  0  0  0
  4 12  1  0  0  0  0
  5 18  1  0  0  0  0
  6 16  1  6  0  0  0
  6  9  1  0  0  0  0
  7  5  1  0  0  0  0
  7  4  2  0  0  0  0
  9  4  1  0  0  0  0
 10 15  1  0  0  0  0
 10 14  1  0  0  0  0
 11 20  1  0  0  0  0
 11  5  2  0  0  0  0
 12  8  1  0  0  0  0
 13 15  2  0  0  0  0
 14  3  1  0  0  0  0
 17  2  1  0  0  0  0
 17  6  1  0  0  0  0
 18 14  2  0  0  0  0
 18  8  1  0  0  0  0
 19 13  1  0  0  0  0
 20 10  2  0  0  0  0
 21 22  1  6  0  0  0
 21  1  1  0  0  0  0
 23 21  1  0  0  0  0
 24 27  1  0  0  0  0
 25 26  2  0  0  0  0
 26 24  1  0  0  0  0
 26 23  1  0  0  0  0
 28 24  1  0  0  0  0
M  END
>  <MODEL>
9

>  <REMARK>
 VINA RESULT:      -7.7      3.748      7.464
  Name = 
  3 active torsions:
  status: ('A' for Active; 'I' for Inactive)
    1  A    between atoms: C_1  and  C_2
    2  A    between atoms: C_2  and  C_3
    3  A    between atoms: C_3  and  C_11
                            x       y       z     vdW  Elec       q    Type
                         _______ _______ _______ _____ _____    ______ ____

>  <TORSDO>
F 3

$$$$
