=
 OpenBabel11062410233D

 43 49  0  0  1  0  0  0  0  0999 V2000
  161.0980  204.1710  148.6350 C   0  0  0  0  0  0  0  0  0  0  0  0
  161.6720  208.5420  151.1280 C   0  0  0  0  0  0  0  0  0  0  0  0
  161.9810  210.5580  149.1810 C   0  0  0  0  0  0  0  0  0  0  0  0
  161.3100  205.8630  150.3550 C   0  0  0  0  0  0  0  0  0  0  0  0
  161.2500  205.1480  147.6480 C   0  0  0  0  0  3  0  0  0  0  0  0
  160.9150  202.8440  148.2740 O   0  0  0  0  0  1  0  0  0  0  0  0
  161.4650  206.8620  149.3610 C   0  0  0  0  0  0  0  0  0  0  0  0
  161.1280  204.5280  149.9860 C   0  0  0  0  0  3  0  0  0  0  0  0
  161.4330  206.4860  148.0070 C   0  0  0  0  0  3  0  0  0  0  0  0
  161.8010  209.2240  148.7970 C   0  0  0  0  0  3  0  0  0  0  0  0
  161.6460  208.2060  149.7500 C   0  0  0  0  0  0  0  0  0  0  0  0
  161.5170  207.5350  152.0900 C   0  0  0  0  0  3  0  0  0  0  0  0
  161.8490  209.8790  151.5250 C   0  0  0  0  0  0  0  0  0  0  0  0
  162.0020  210.8720  150.5460 C   0  0  0  0  0  3  0  0  0  0  0  0
  161.3380  206.2060  151.7060 C   0  0  0  0  0  3  0  0  0  0  0  0
  162.1360  211.6050  148.1470 C   0  0  0  0  0  0  0  0  0  0  0  0
  163.4220  212.6340  148.1990 S   0  0  0  0  0  0  0  0  0  0  0  0
  161.1850  211.6550  147.0700 N   0  0  0  0  0  2  0  0  0  0  0  0
  160.9910  212.7020  146.1100 C   0  0  0  0  0  0  0  0  0  0  0  0
  161.5960  213.8020  146.2050 O   0  0  0  0  0  0  0  0  0  0  0  0
  160.0050  212.5070  145.0130 C   0  0  0  0  0  2  0  0  0  0  0  0
  159.8060  213.7630  144.3010 N   0  0  0  0  0  0  0  0  0  0  0  0
  158.3970  213.6980  142.3050 C   0  0  0  0  0  2  0  0  0  0  0  0
  160.9460  212.8010  142.1980 C   0  0  2  0  0  3  0  0  0  0  0  0
  158.5170  214.2200  144.6540 N   0  0  0  0  0  2  0  0  0  0  0  0
  159.7580  213.4780  142.8780 C   0  0  2  0  0  0  0  0  0  0  0  0
  160.7860  214.3110  142.1370 C   0  0  0  0  0  2  0  0  0  0  0  0
  157.7420  214.4530  143.4310 C   0  0  0  0  0  2  0  0  0  0  0  0
  160.5450  212.1680  140.8680 C   0  0  0  0  0  3  0  0  0  0  0  0
  162.5660  212.7540  139.4960 C   0  0  0  0  0  2  0  0  0  0  0  0
  162.5600  210.7220  140.4710 C   0  0  0  0  0  2  0  0  0  0  0  0
  162.8010  211.3890  139.2570 O   0  0  0  0  0  0  0  0  0  0  0  0
  161.0620  210.7280  140.7810 C   0  0  0  0  0  2  0  0  0  0  0  0
  161.0670  213.0010  139.6920 C   0  0  0  0  0  2  0  0  0  0  0  0
  161.8730  210.2030  152.8890 O   0  0  0  0  0  0  0  0  0  0  0  0
  158.5000  211.6050  153.7500 C   0  0  0  0  0  2  0  0  0  0  0  0
  158.6250  211.4370  155.2060 N   0  0  0  0  0  0  0  0  0  0  0  0
  161.0200  210.9330  155.0180 C   0  0  0  0  0  2  0  0  0  0  0  0
  159.5130  210.7170  153.0340 C   0  0  0  0  0  2  0  0  0  0  0  0
  160.9250  211.0690  153.5020 C   0  0  0  0  0  3  0  0  0  0  0  0
  159.9650  211.8150  155.6790 C   0  0  0  0  0  2  0  0  0  0  0  0
  156.4130  211.4290  155.7750 C   0  0  0  0  0  1  0  0  0  0  0  0
  157.6400  212.1210  155.8790 O   0  0  0  0  0  0  0  0  0  0  0  0
  1  8  1  0  0  0  0
  2 13  1  0  0  0  0
  2 12  1  0  0  0  0
  3 14  1  0  0  0  0
  4 15  1  0  0  0  0
  5  9  1  0  0  0  0
  5  1  2  0  0  0  0
  6  1  1  0  0  0  0
  7 11  1  0  0  0  0
  7  4  1  0  0  0  0
  8  4  2  0  0  0  0
  9  7  2  0  0  0  0
 10  3  2  0  0  0  0
 10 11  1  0  0  0  0
 11  2  2  0  0  0  0
 13 35  1  0  0  0  0
 14 13  2  0  0  0  0
 15 12  2  0  0  0  0
 16 17  2  0  0  0  0
 16  3  1  0  0  0  0
 18 16  1  0  0  0  0
 19 20  2  0  0  0  0
 19 18  1  0  0  0  0
 21 19  1  0  0  0  0
 22 25  1  0  0  0  0
 22 21  1  0  0  0  0
 23 26  1  0  0  0  0
 23 28  1  0  0  0  0
 24 29  1  6  0  0  0
 24 26  1  0  0  0  0
 26 27  1  6  0  0  0
 26 22  1  0  0  0  0
 27 24  1  0  0  0  0
 28 25  1  0  0  0  0
 30 34  1  0  0  0  0
 31 33  1  0  0  0  0
 32 30  1  0  0  0  0
 32 31  1  0  0  0  0
 33 29  1  0  0  0  0
 34 29  1  0  0  0  0
 35 40  1  0  0  0  0
 36 37  1  0  0  0  0
 37 41  1  0  0  0  0
 37 43  1  0  0  0  0
 38 41  1  0  0  0  0
 39 40  1  0  0  0  0
 39 36  1  0  0  0  0
 40 38  1  0  0  0  0
 42 43  1  0  0  0  0
M  END
>  <MODEL>
1

>  <REMARK>
 VINA RESULT:      -8.4      0.000      0.000
  Name = 
  8 active torsions:
  status: ('A' for Active; 'I' for Inactive)
    1  A    between atoms: O_1  and  C_34
    2  A    between atoms: O_1  and  C_35
    3  A    between atoms: C_2  and  N_6
    4  A    between atoms: C_2  and  C_13
    5  A    between atoms: C_3  and  N_4
    6  A    between atoms: C_3  and  C_12
    7  A    between atoms: C_11  and  C_14
    8  A    between atoms: N_19  and  O_37
                            x       y       z     vdW  Elec       q    Type
                         _______ _______ _______ _____ _____    ______ ____

>  <TORSDO>
F 8

$$$$
=
 OpenBabel11062410233D

 43 49  0  0  1  0  0  0  0  0999 V2000
  161.2060  203.0570  146.6220 C   0  0  0  0  0  0  0  0  0  0  0  0
  161.1460  205.6220  150.9890 C   0  0  0  0  0  0  0  0  0  0  0  0
  161.6800  208.3180  150.3600 C   0  0  0  0  0  0  0  0  0  0  0  0
  161.0460  203.6810  148.9570 C   0  0  0  0  0  0  0  0  0  0  0  0
  161.4740  204.3850  146.2810 C   0  0  0  0  0  3  0  0  0  0  0  0
  161.1500  202.0850  145.6340 O   0  0  0  0  0  1  0  0  0  0  0  0
  161.3180  205.0310  148.6210 C   0  0  0  0  0  0  0  0  0  0  0  0
  160.9920  202.7060  147.9580 C   0  0  0  0  0  3  0  0  0  0  0  0
  161.5300  205.3670  147.2730 C   0  0  0  0  0  3  0  0  0  0  0  0
  161.6310  207.3510  149.3490 C   0  0  0  0  0  3  0  0  0  0  0  0
  161.3670  206.0040  149.6410 C   0  0  0  0  0  0  0  0  0  0  0  0
  160.8800  204.2800  151.2940 C   0  0  0  0  0  3  0  0  0  0  0  0
  161.1890  206.5850  152.0120 C   0  0  0  0  0  0  0  0  0  0  0  0
  161.4570  207.9220  151.6850 C   0  0  0  0  0  3  0  0  0  0  0  0
  160.8310  203.3180  150.2860 C   0  0  0  0  0  3  0  0  0  0  0  0
  161.9560  209.7300  150.0120 C   0  0  0  0  0  0  0  0  0  0  0  0
  162.7480  210.7030  151.0790 S   0  0  0  0  0  0  0  0  0  0  0  0
  161.5820  210.2030  148.7080 N   0  0  0  0  0  2  0  0  0  0  0  0
  161.5440  211.5560  148.2360 C   0  0  0  0  0  0  0  0  0  0  0  0
  161.7330  212.5290  149.0120 O   0  0  0  0  0  0  0  0  0  0  0  0
  161.2140  211.8170  146.8090 C   0  0  0  0  0  2  0  0  0  0  0  0
  160.2740  212.9280  146.7170 N   0  0  0  0  0  0  0  0  0  0  0  0
  158.2690  212.5780  145.3640 C   0  0  0  0  0  2  0  0  0  0  0  0
  160.6420  213.0860  144.1700 C   0  0  2  0  0  3  0  0  0  0  0  0
  159.2030  212.6150  147.5840 N   0  0  0  0  0  2  0  0  0  0  0  0
  159.7150  212.9440  145.3760 C   0  0  2  0  0  0  0  0  0  0  0  0
  159.9250  214.3010  144.7340 C   0  0  0  0  0  2  0  0  0  0  0  0
  157.9460  212.6750  146.8310 C   0  0  0  0  0  2  0  0  0  0  0  0
  159.9650  212.6150  142.8850 C   0  0  0  0  0  3  0  0  0  0  0  0
  161.1670  214.0630  141.2210 C   0  0  0  0  0  2  0  0  0  0  0  0
  161.9980  211.9930  141.5480 C   0  0  0  0  0  2  0  0  0  0  0  0
  161.6270  212.9150  140.5530 O   0  0  0  0  0  0  0  0  0  0  0  0
  160.7510  211.4600  142.2560 C   0  0  0  0  0  2  0  0  0  0  0  0
  159.8220  213.7740  141.8930 C   0  0  0  0  0  2  0  0  0  0  0  0
  160.9700  206.1990  153.3420 O   0  0  0  0  0  0  0  0  0  0  0  0
  160.8900  209.4680  155.1830 C   0  0  0  0  0  2  0  0  0  0  0  0
  159.9010  209.0580  156.1920 N   0  0  0  0  0  0  0  0  0  0  0  0
  160.0800  206.7040  155.5210 C   0  0  0  0  0  2  0  0  0  0  0  0
  160.8310  208.5270  153.9840 C   0  0  0  0  0  2  0  0  0  0  0  0
  161.0860  207.0920  154.4430 C   0  0  0  0  0  3  0  0  0  0  0  0
  160.1590  207.6940  156.6790 C   0  0  0  0  0  2  0  0  0  0  0  0
  159.3390  211.1970  156.7610 C   0  0  0  0  0  1  0  0  0  0  0  0
  159.8340  209.9590  157.2290 O   0  0  0  0  0  0  0  0  0  0  0  0
  1  8  1  0  0  0  0
  2 12  1  0  0  0  0
  2 13  1  0  0  0  0
  3 14  1  0  0  0  0
  4 15  1  0  0  0  0
  5  1  2  0  0  0  0
  5  9  1  0  0  0  0
  6  1  1  0  0  0  0
  7  4  1  0  0  0  0
  7 11  1  0  0  0  0
  8  4  2  0  0  0  0
  9  7  2  0  0  0  0
 10 11  1  0  0  0  0
 10  3  2  0  0  0  0
 11  2  2  0  0  0  0
 13 35  1  0  0  0  0
 14 13  2  0  0  0  0
 15 12  2  0  0  0  0
 16  3  1  0  0  0  0
 16 17  2  0  0  0  0
 18 16  1  0  0  0  0
 19 18  1  0  0  0  0
 19 20  2  0  0  0  0
 21 19  1  0  0  0  0
 22 21  1  0  0  0  0
 22 25  1  0  0  0  0
 23 26  1  0  0  0  0
 23 28  1  0  0  0  0
 24 29  1  6  0  0  0
 24 27  1  0  0  0  0
 24 26  1  0  0  0  0
 26 27  1  1  0  0  0
 26 22  1  0  0  0  0
 28 25  1  0  0  0  0
 30 34  1  0  0  0  0
 31 33  1  0  0  0  0
 32 30  1  0  0  0  0
 32 31  1  0  0  0  0
 33 29  1  0  0  0  0
 34 29  1  0  0  0  0
 35 40  1  0  0  0  0
 36 37  1  0  0  0  0
 37 41  1  0  0  0  0
 37 43  1  0  0  0  0
 38 41  1  0  0  0  0
 39 40  1  0  0  0  0
 39 36  1  0  0  0  0
 40 38  1  0  0  0  0
 42 43  1  0  0  0  0
M  END
>  <MODEL>
2

>  <REMARK>
 VINA RESULT:      -8.2      1.996      2.893
  Name = 
  8 active torsions:
  status: ('A' for Active; 'I' for Inactive)
    1  A    between atoms: O_1  and  C_34
    2  A    between atoms: O_1  and  C_35
    3  A    between atoms: C_2  and  N_6
    4  A    between atoms: C_2  and  C_13
    5  A    between atoms: C_3  and  N_4
    6  A    between atoms: C_3  and  C_12
    7  A    between atoms: C_11  and  C_14
    8  A    between atoms: N_19  and  O_37
                            x       y       z     vdW  Elec       q    Type
                         _______ _______ _______ _____ _____    ______ ____

>  <TORSDO>
F 8

$$$$
=
 OpenBabel11062410233D

 43 49  0  0  1  0  0  0  0  0999 V2000
  161.1630  201.3240  147.5120 C   0  0  0  0  0  0  0  0  0  0  0  0
  161.0710  204.5550  151.4110 C   0  0  0  0  0  0  0  0  0  0  0  0
  161.4200  207.1390  150.3380 C   0  0  0  0  0  0  0  0  0  0  0  0
  161.0330  202.3080  149.7220 C   0  0  0  0  0  0  0  0  0  0  0  0
  161.3400  202.5910  146.9530 C   0  0  0  0  0  3  0  0  0  0  0  0
  161.1380  200.2020  146.6950 O   0  0  0  0  0  1  0  0  0  0  0  0
  161.2110  203.5980  149.1640 C   0  0  0  0  0  0  0  0  0  0  0  0
  161.0100  201.1820  148.8940 C   0  0  0  0  0  3  0  0  0  0  0  0
  161.3640  203.7230  147.7720 C   0  0  0  0  0  3  0  0  0  0  0  0
  161.4020  206.0190  149.4970 C   0  0  0  0  0  3  0  0  0  0  0  0
  161.2290  204.7260  150.0120 C   0  0  0  0  0  0  0  0  0  0  0  0
  160.8970  203.2680  151.9370 C   0  0  0  0  0  3  0  0  0  0  0  0
  161.0850  205.6720  152.2640 C   0  0  0  0  0  0  0  0  0  0  0  0
  161.2610  206.9520  151.7170 C   0  0  0  0  0  3  0  0  0  0  0  0
  160.8780  202.1540  151.0990 C   0  0  0  0  0  3  0  0  0  0  0  0
  161.6000  208.4890  149.7590 C   0  0  0  0  0  0  0  0  0  0  0  0
  162.2790  208.6650  148.2690 S   0  0  0  0  0  0  0  0  0  0  0  0
  161.1080  209.6230  150.4920 N   0  0  0  0  0  2  0  0  0  0  0  0
  161.8080  210.4250  151.4530 C   0  0  0  0  0  0  0  0  0  0  0  0
  162.9580  210.1120  151.8580 O   0  0  0  0  0  0  0  0  0  0  0  0
  161.1340  211.6190  152.0300 C   0  0  0  0  0  2  0  0  0  0  0  0
  160.1210  212.1080  151.1020 N   0  0  0  0  0  0  0  0  0  0  0  0
  159.4630  214.4530  151.3100 C   0  0  0  0  0  2  0  0  0  0  0  0
  158.5160  212.6160  153.0540 C   0  0  2  0  0  3  0  0  0  0  0  0
  160.8100  212.8510  150.1170 N   0  0  0  0  0  2  0  0  0  0  0  0
  159.2770  213.0580  151.8060 C   0  0  2  0  0  0  0  0  0  0  0  0
  157.8210  212.6470  151.7030 C   0  0  0  0  0  2  0  0  0  0  0  0
  160.2290  214.1950  150.0400 C   0  0  0  0  0  2  0  0  0  0  0  0
  158.0880  213.8110  153.9020 C   0  0  0  0  0  3  0  0  0  0  0  0
  155.7610  213.0860  154.5100 C   0  0  0  0  0  2  0  0  0  0  0  0
  157.3880  212.6090  155.9940 C   0  0  0  0  0  2  0  0  0  0  0  0
  156.0960  213.1490  155.8730 O   0  0  0  0  0  0  0  0  0  0  0  0
  158.4120  213.5660  155.3790 C   0  0  0  0  0  2  0  0  0  0  0  0
  156.5930  214.0980  153.7190 C   0  0  0  0  0  2  0  0  0  0  0  0
  160.9270  205.4950  153.6460 O   0  0  0  0  0  0  0  0  0  0  0  0
  161.3290  209.0090  154.9000 C   0  0  0  0  0  2  0  0  0  0  0  0
  160.1750  208.9860  155.8120 N   0  0  0  0  0  0  0  0  0  0  0  0
  159.9340  206.5560  155.5650 C   0  0  0  0  0  2  0  0  0  0  0  0
  161.2060  207.8880  153.8740 C   0  0  0  0  0  2  0  0  0  0  0  0
  161.1080  206.5430  154.5920 C   0  0  0  0  0  3  0  0  0  0  0  0
  160.0920  207.7140  156.5450 C   0  0  0  0  0  2  0  0  0  0  0  0
  161.0130  211.0840  156.1490 C   0  0  0  0  0  1  0  0  0  0  0  0
  160.1850  210.0620  156.6670 O   0  0  0  0  0  0  0  0  0  0  0  0
  1  8  1  0  0  0  0
  2 12  1  0  0  0  0
  2 13  1  0  0  0  0
  3 14  1  0  0  0  0
  4 15  1  0  0  0  0
  5  1  2  0  0  0  0
  5  9  1  0  0  0  0
  6  1  1  0  0  0  0
  7  4  1  0  0  0  0
  7 11  1  0  0  0  0
  8  4  2  0  0  0  0
  9  7  2  0  0  0  0
 10 11  1  0  0  0  0
 10  3  2  0  0  0  0
 11  2  2  0  0  0  0
 13 35  1  0  0  0  0
 14 13  2  0  0  0  0
 15 12  2  0  0  0  0
 16  3  1  0  0  0  0
 16 18  1  0  0  0  0
 17 16  2  0  0  0  0
 18 19  1  0  0  0  0
 19 20  2  0  0  0  0
 19 21  1  0  0  0  0
 22 26  1  0  0  0  0
 22 21  1  0  0  0  0
 24 29  1  1  0  0  0
 25 22  1  0  0  0  0
 26 23  1  6  0  0  0
 26 24  1  0  0  0  0
 27 26  1  0  0  0  0
 27 24  1  0  0  0  0
 28 25  1  0  0  0  0
 28 23  1  0  0  0  0
 29 33  1  0  0  0  0
 30 32  1  0  0  0  0
 32 31  1  0  0  0  0
 33 31  1  0  0  0  0
 34 29  1  0  0  0  0
 34 30  1  0  0  0  0
 35 40  1  0  0  0  0
 36 37  1  0  0  0  0
 37 41  1  0  0  0  0
 37 43  1  0  0  0  0
 38 41  1  0  0  0  0
 39 40  1  0  0  0  0
 39 36  1  0  0  0  0
 40 38  1  0  0  0  0
 42 43  1  0  0  0  0
M  END
>  <MODEL>
3

>  <REMARK>
 VINA RESULT:      -7.7      5.303      7.691
  Name = 
  8 active torsions:
  status: ('A' for Active; 'I' for Inactive)
    1  A    between atoms: O_1  and  C_34
    2  A    between atoms: O_1  and  C_35
    3  A    between atoms: C_2  and  N_6
    4  A    between atoms: C_2  and  C_13
    5  A    between atoms: C_3  and  N_4
    6  A    between atoms: C_3  and  C_12
    7  A    between atoms: C_11  and  C_14
    8  A    between atoms: N_19  and  O_37
                            x       y       z     vdW  Elec       q    Type
                         _______ _______ _______ _____ _____    ______ ____

>  <TORSDO>
F 8

$$$$
=
 OpenBabel11062410233D

 43 49  0  0  1  0  0  0  0  0999 V2000
  161.3470  204.5630  147.4830 C   0  0  0  0  0  0  0  0  0  0  0  0
  161.8220  208.6090  150.4930 C   0  0  0  0  0  0  0  0  0  0  0  0
  161.8350  210.8760  148.8170 C   0  0  0  0  0  0  0  0  0  0  0  0
  161.5820  206.0310  149.3950 C   0  0  0  0  0  0  0  0  0  0  0  0
  161.3520  205.6680  146.6280 C   0  0  0  0  0  3  0  0  0  0  0  0
  161.2270  203.2830  146.9610 O   0  0  0  0  0  1  0  0  0  0  0  0
  161.5880  207.1580  148.5360 C   0  0  0  0  0  0  0  0  0  0  0  0
  161.4620  204.7440  148.8640 C   0  0  0  0  0  3  0  0  0  0  0  0
  161.4720  206.9580  147.1490 C   0  0  0  0  0  3  0  0  0  0  0  0
  161.7160  209.5920  148.2710 C   0  0  0  0  0  3  0  0  0  0  0  0
  161.7080  208.4520  149.0880 C   0  0  0  0  0  0  0  0  0  0  0  0
  161.8150  207.4770  151.3190 C   0  0  0  0  0  3  0  0  0  0  0  0
  161.9390  209.8930  151.0520 C   0  0  0  0  0  0  0  0  0  0  0  0
  161.9450  211.0120  150.2070 C   0  0  0  0  0  3  0  0  0  0  0  0
  161.6960  206.1990  150.7750 C   0  0  0  0  0  3  0  0  0  0  0  0
  161.8350  212.0560  147.9240 C   0  0  0  0  0  0  0  0  0  0  0  0
  162.3700  213.5120  148.4780 S   0  0  0  0  0  0  0  0  0  0  0  0
  161.4270  211.8840  146.5560 N   0  0  0  0  0  2  0  0  0  0  0  0
  160.4640  212.6480  145.8180 C   0  0  0  0  0  0  0  0  0  0  0  0
  159.7530  213.5250  146.3760 O   0  0  0  0  0  0  0  0  0  0  0  0
  160.2590  212.3570  144.3740 C   0  0  0  0  0  2  0  0  0  0  0  0
  161.5350  212.4250  143.6720 N   0  0  0  0  0  0  0  0  0  0  0  0
  161.7790  214.1680  141.9760 C   0  0  0  0  0  2  0  0  0  0  0  0
  160.3760  211.9230  141.4250 C   0  0  2  0  0  3  0  0  0  0  0  0
  162.2460  213.5040  144.2450 N   0  0  0  0  0  2  0  0  0  0  0  0
  161.2780  212.7980  142.2920 C   0  0  2  0  0  0  0  0  0  0  0  0
  161.8860  211.7800  141.3480 C   0  0  0  0  0  2  0  0  0  0  0  0
  162.6440  214.4310  143.1800 C   0  0  0  0  0  2  0  0  0  0  0  0
  159.8500  212.6880  140.2140 C   0  0  0  0  0  3  0  0  0  0  0  0
  159.9190  210.8570  138.4960 C   0  0  0  0  0  2  0  0  0  0  0  0
  157.9560  211.1760  139.5560 C   0  0  0  0  0  2  0  0  0  0  0  0
  158.5360  210.9990  138.2870 O   0  0  0  0  0  0  0  0  0  0  0  0
  158.3270  212.5520  140.1110 C   0  0  0  0  0  2  0  0  0  0  0  0
  160.5230  212.1960  138.9280 C   0  0  0  0  0  2  0  0  0  0  0  0
  162.0510  210.0390  152.4420 O   0  0  0  0  0  0  0  0  0  0  0  0
  158.8030  211.2650  153.8680 C   0  0  0  0  0  2  0  0  0  0  0  0
  159.1790  211.1020  155.2810 N   0  0  0  0  0  0  0  0  0  0  0  0
  161.5310  210.7230  154.6900 C   0  0  0  0  0  2  0  0  0  0  0  0
  159.7260  210.4310  152.9850 C   0  0  0  0  0  2  0  0  0  0  0  0
  161.1770  210.8550  153.2140 C   0  0  0  0  0  3  0  0  0  0  0  0
  160.5580  211.5480  155.5280 C   0  0  0  0  0  2  0  0  0  0  0  0
  157.0090  211.7760  155.5150 C   0  0  0  0  0  1  0  0  0  0  0  0
  158.2870  211.7340  156.1160 O   0  0  0  0  0  0  0  0  0  0  0  0
  1  8  1  0  0  0  0
  2 13  1  0  0  0  0
  2 12  1  0  0  0  0
  3 14  1  0  0  0  0
  4 15  1  0  0  0  0
  5  9  1  0  0  0  0
  5  1  2  0  0  0  0
  6  1  1  0  0  0  0
  7 11  1  0  0  0  0
  7  4  1  0  0  0  0
  8  4  2  0  0  0  0
  9  7  2  0  0  0  0
 10  3  2  0  0  0  0
 10 11  1  0  0  0  0
 11  2  2  0  0  0  0
 13 35  1  0  0  0  0
 14 13  2  0  0  0  0
 15 12  2  0  0  0  0
 16 17  2  0  0  0  0
 16  3  1  0  0  0  0
 18 16  1  0  0  0  0
 19 20  2  0  0  0  0
 19 18  1  0  0  0  0
 21 19  1  0  0  0  0
 22 25  1  0  0  0  0
 22 21  1  0  0  0  0
 23 26  1  0  0  0  0
 23 28  1  0  0  0  0
 24 29  1  6  0  0  0
 24 26  1  0  0  0  0
 26 27  1  6  0  0  0
 26 22  1  0  0  0  0
 27 24  1  0  0  0  0
 28 25  1  0  0  0  0
 30 34  1  0  0  0  0
 31 33  1  0  0  0  0
 32 30  1  0  0  0  0
 32 31  1  0  0  0  0
 33 29  1  0  0  0  0
 34 29  1  0  0  0  0
 35 40  1  0  0  0  0
 36 37  1  0  0  0  0
 37 41  1  0  0  0  0
 37 43  1  0  0  0  0
 38 41  1  0  0  0  0
 39 40  1  0  0  0  0
 39 36  1  0  0  0  0
 40 38  1  0  0  0  0
 42 43  1  0  0  0  0
M  END
>  <MODEL>
4

>  <REMARK>
 VINA RESULT:      -7.6      1.456      1.922
  Name = 
  8 active torsions:
  status: ('A' for Active; 'I' for Inactive)
    1  A    between atoms: O_1  and  C_34
    2  A    between atoms: O_1  and  C_35
    3  A    between atoms: C_2  and  N_6
    4  A    between atoms: C_2  and  C_13
    5  A    between atoms: C_3  and  N_4
    6  A    between atoms: C_3  and  C_12
    7  A    between atoms: C_11  and  C_14
    8  A    between atoms: N_19  and  O_37
                            x       y       z     vdW  Elec       q    Type
                         _______ _______ _______ _____ _____    ______ ____

>  <TORSDO>
F 8

$$$$
=
 OpenBabel11062410233D

 43 49  0  0  1  0  0  0  0  0999 V2000
  159.8970  210.6030  155.2410 C   0  0  0  0  0  0  0  0  0  0  0  0
  161.6290  208.6510  150.9000 C   0  0  0  0  0  0  0  0  0  0  0  0
  161.7940  210.7790  149.0570 C   0  0  0  0  0  0  0  0  0  0  0  0
  160.7220  209.1090  153.5210 C   0  0  0  0  0  0  0  0  0  0  0  0
  159.9660  211.6750  154.3490 C   0  0  0  0  0  3  0  0  0  0  0  0
  159.4550  210.8080  156.5400 O   0  0  0  0  0  1  0  0  0  0  0  0
  160.7960  210.1910  152.6090 C   0  0  0  0  0  0  0  0  0  0  0  0
  160.2740  209.3220  154.8280 C   0  0  0  0  0  3  0  0  0  0  0  0
  160.4130  211.4730  153.0410 C   0  0  0  0  0  3  0  0  0  0  0  0
  161.3410  211.0060  150.3620 C   0  0  0  0  0  3  0  0  0  0  0  0
  161.2520  209.9610  151.2940 C   0  0  0  0  0  0  0  0  0  0  0  0
  161.5460  207.5990  151.8220 C   0  0  0  0  0  3  0  0  0  0  0  0
  162.0880  208.4120  149.5930 C   0  0  0  0  0  0  0  0  0  0  0  0
  162.1640  209.4790  148.6860 C   0  0  0  0  0  3  0  0  0  0  0  0
  161.0960  207.8260  153.1220 C   0  0  0  0  0  3  0  0  0  0  0  0
  161.8780  211.9070  148.1030 C   0  0  0  0  0  0  0  0  0  0  0  0
  163.1600  212.9400  148.1560 S   0  0  0  0  0  0  0  0  0  0  0  0
  160.8600  212.0340  147.0960 N   0  0  0  0  0  2  0  0  0  0  0  0
  161.0050  212.4950  145.7460 C   0  0  0  0  0  0  0  0  0  0  0  0
  162.0900  212.9790  145.3290 O   0  0  0  0  0  0  0  0  0  0  0  0
  159.8280  212.4590  144.8370 C   0  0  0  0  0  2  0  0  0  0  0  0
  159.7540  213.7010  144.0780 N   0  0  0  0  0  0  0  0  0  0  0  0
  158.5400  213.6370  141.9580 C   0  0  0  0  0  2  0  0  0  0  0  0
  161.0450  212.6320  142.1190 C   0  0  2  0  0  3  0  0  0  0  0  0
  158.4580  214.2210  144.2940 N   0  0  0  0  0  2  0  0  0  0  0  0
  159.8290  213.3780  142.6640 C   0  0  2  0  0  0  0  0  0  0  0  0
  160.9590  214.1450  142.0060 C   0  0  0  0  0  2  0  0  0  0  0  0
  157.8150  214.4510  142.9960 C   0  0  0  0  0  2  0  0  0  0  0  0
  160.7450  211.9780  140.7730 C   0  0  0  0  0  3  0  0  0  0  0  0
  162.8570  212.5580  139.5420 C   0  0  0  0  0  2  0  0  0  0  0  0
  162.7920  210.5400  140.5430 C   0  0  0  0  0  2  0  0  0  0  0  0
  163.1160  211.1920  139.3400 O   0  0  0  0  0  0  0  0  0  0  0  0
  161.2750  210.5400  140.7440 C   0  0  0  0  0  2  0  0  0  0  0  0
  161.3470  212.7980  139.6260 C   0  0  0  0  0  2  0  0  0  0  0  0
  162.4590  207.1150  149.2120 O   0  0  0  0  0  0  0  0  0  0  0  0
  161.4630  205.3520  146.0520 C   0  0  0  0  0  2  0  0  0  0  0  0
  161.4390  203.9970  146.6270 N   0  0  0  0  0  0  0  0  0  0  0  0
  161.6140  204.8820  148.9100 C   0  0  0  0  0  2  0  0  0  0  0  0
  162.2740  206.2830  146.9470 C   0  0  0  0  0  2  0  0  0  0  0  0
  161.6720  206.2990  148.3520 C   0  0  0  0  0  3  0  0  0  0  0  0
  160.8210  203.9880  147.9610 C   0  0  0  0  0  2  0  0  0  0  0  0
  160.5660  201.8930  146.4650 C   0  0  0  0  0  1  0  0  0  0  0  0
  160.8280  203.1010  145.7810 O   0  0  0  0  0  0  0  0  0  0  0  0
  1  6  1  0  0  0  0
  2 11  1  0  0  0  0
  2 12  1  0  0  0  0
  3 10  1  0  0  0  0
  4  8  2  0  0  0  0
  5  1  2  0  0  0  0
  7  9  2  0  0  0  0
  7  4  1  0  0  0  0
  8  1  1  0  0  0  0
  9  5  1  0  0  0  0
 10 11  2  0  0  0  0
 11  7  1  0  0  0  0
 12 15  2  0  0  0  0
 13  2  2  0  0  0  0
 14  3  2  0  0  0  0
 14 13  1  0  0  0  0
 15  4  1  0  0  0  0
 16 17  2  0  0  0  0
 16  3  1  0  0  0  0
 18 16  1  0  0  0  0
 19 18  1  0  0  0  0
 20 19  2  0  0  0  0
 21 19  1  0  0  0  0
 22 25  1  0  0  0  0
 22 21  1  0  0  0  0
 23 28  1  0  0  0  0
 24 29  1  6  0  0  0
 24 26  1  0  0  0  0
 26 23  1  6  0  0  0
 26 22  1  0  0  0  0
 27 24  1  0  0  0  0
 27 26  1  0  0  0  0
 28 25  1  0  0  0  0
 30 34  1  0  0  0  0
 31 33  1  0  0  0  0
 32 30  1  0  0  0  0
 32 31  1  0  0  0  0
 33 29  1  0  0  0  0
 34 29  1  0  0  0  0
 35 13  1  0  0  0  0
 36 37  1  0  0  0  0
 36 39  1  0  0  0  0
 37 41  1  0  0  0  0
 39 40  1  0  0  0  0
 40 38  1  0  0  0  0
 40 35  1  0  0  0  0
 41 38  1  0  0  0  0
 43 42  1  0  0  0  0
 43 37  1  0  0  0  0
M  END
>  <MODEL>
5

>  <REMARK>
 VINA RESULT:      -7.5      1.798      5.803
  Name = 
  8 active torsions:
  status: ('A' for Active; 'I' for Inactive)
    1  A    between atoms: O_1  and  C_34
    2  A    between atoms: O_1  and  C_35
    3  A    between atoms: C_2  and  N_6
    4  A    between atoms: C_2  and  C_13
    5  A    between atoms: C_3  and  N_4
    6  A    between atoms: C_3  and  C_12
    7  A    between atoms: C_11  and  C_14
    8  A    between atoms: N_19  and  O_37
                            x       y       z     vdW  Elec       q    Type
                         _______ _______ _______ _____ _____    ______ ____

>  <TORSDO>
F 8

$$$$
=
 OpenBabel11062410233D

 43 49  0  0  1  0  0  0  0  0999 V2000
  161.2060  199.6270  146.5860 C   0  0  0  0  0  0  0  0  0  0  0  0
  161.1350  203.5370  149.8050 C   0  0  0  0  0  0  0  0  0  0  0  0
  161.0390  205.8810  148.2400 C   0  0  0  0  0  0  0  0  0  0  0  0
  161.1950  201.0090  148.5760 C   0  0  0  0  0  0  0  0  0  0  0  0
  161.1610  200.7710  145.7860 C   0  0  0  0  0  3  0  0  0  0  0  0
  161.2330  198.3700  145.9990 O   0  0  0  0  0  1  0  0  0  0  0  0
  161.1480  202.1750  147.7720 C   0  0  0  0  0  0  0  0  0  0  0  0
  161.2230  199.7460  147.9790 C   0  0  0  0  0  3  0  0  0  0  0  0
  161.1320  202.0380  146.3730 C   0  0  0  0  0  3  0  0  0  0  0  0
  161.0690  204.6210  147.6290 C   0  0  0  0  0  3  0  0  0  0  0  0
  161.1170  203.4440  148.3900 C   0  0  0  0  0  0  0  0  0  0  0  0
  161.1820  202.3670  150.5760 C   0  0  0  0  0  3  0  0  0  0  0  0
  161.1010  204.7950  150.4290 C   0  0  0  0  0  0  0  0  0  0  0  0
  161.0550  205.9530  149.6390 C   0  0  0  0  0  3  0  0  0  0  0  0
  161.2120  201.1140  149.9660 C   0  0  0  0  0  3  0  0  0  0  0  0
  160.9830  207.1010  147.4050 C   0  0  0  0  0  0  0  0  0  0  0  0
  160.8320  206.9770  145.7690 S   0  0  0  0  0  0  0  0  0  0  0  0
  160.9950  208.3820  148.0570 N   0  0  0  0  0  2  0  0  0  0  0  0
  162.1240  209.1040  148.5660 C   0  0  0  0  0  0  0  0  0  0  0  0
  163.2740  208.5910  148.5970 O   0  0  0  0  0  0  0  0  0  0  0  0
  161.9210  210.4670  149.1260 C   0  0  0  0  0  2  0  0  0  0  0  0
  161.9100  211.4460  148.0460 N   0  0  0  0  0  0  0  0  0  0  0  0
  162.3110  213.7790  148.6560 C   0  0  0  0  0  2  0  0  0  0  0  0
  159.8920  212.6540  149.1020 C   0  0  2  0  0  3  0  0  0  0  0  0
  163.2630  211.7500  147.7720 N   0  0  0  0  0  2  0  0  0  0  0  0
  161.3150  212.6730  148.5470 C   0  0  2  0  0  0  0  0  0  0  0  0
  160.1510  213.0910  147.6700 C   0  0  0  0  0  2  0  0  0  0  0  0
  163.4540  213.2010  147.8650 C   0  0  0  0  0  2  0  0  0  0  0  0
  159.6200  213.8660  149.9890 C   0  0  0  0  0  3  0  0  0  0  0  0
  157.1660  213.5370  150.4130 C   0  0  0  0  0  2  0  0  0  0  0  0
  158.5800  212.7130  151.9630 C   0  0  0  0  0  2  0  0  0  0  0  0
  157.4120  213.4780  151.7950 O   0  0  0  0  0  0  0  0  0  0  0  0
  159.7940  213.5010  151.4670 C   0  0  0  0  0  2  0  0  0  0  0  0
  158.2150  214.4210  149.7320 C   0  0  0  0  0  2  0  0  0  0  0  0
  161.1190  204.8790  151.8290 O   0  0  0  0  0  0  0  0  0  0  0  0
  161.5100  208.5440  152.5350 C   0  0  0  0  0  2  0  0  0  0  0  0
  160.8240  208.5300  153.8360 N   0  0  0  0  0  0  0  0  0  0  0  0
  160.8320  206.0760  153.8980 C   0  0  0  0  0  2  0  0  0  0  0  0
  161.1420  207.2970  151.7380 C   0  0  0  0  0  2  0  0  0  0  0  0
  161.5170  206.0490  152.5360 C   0  0  0  0  0  3  0  0  0  0  0  0
  161.2080  207.3570  154.6360 C   0  0  0  0  0  2  0  0  0  0  0  0
  161.4960  210.7040  153.6500 C   0  0  0  0  0  1  0  0  0  0  0  0
  161.0280  209.7010  154.5270 O   0  0  0  0  0  0  0  0  0  0  0  0
  1  8  1  0  0  0  0
  2 13  1  0  0  0  0
  2 12  1  0  0  0  0
  3 14  1  0  0  0  0
  4 15  1  0  0  0  0
  5  9  1  0  0  0  0
  5  1  2  0  0  0  0
  6  1  1  0  0  0  0
  7 11  1  0  0  0  0
  7  4  1  0  0  0  0
  8  4  2  0  0  0  0
  9  7  2  0  0  0  0
 10  3  2  0  0  0  0
 10 11  1  0  0  0  0
 11  2  2  0  0  0  0
 13 35  1  0  0  0  0
 14 13  2  0  0  0  0
 15 12  2  0  0  0  0
 16 18  1  0  0  0  0
 16  3  1  0  0  0  0
 17 16  2  0  0  0  0
 18 19  1  0  0  0  0
 19 20  2  0  0  0  0
 19 21  1  0  0  0  0
 22 26  1  0  0  0  0
 22 21  1  0  0  0  0
 24 29  1  1  0  0  0
 25 28  1  0  0  0  0
 25 22  1  0  0  0  0
 26 27  1  6  0  0  0
 26 23  1  0  0  0  0
 26 24  1  0  0  0  0
 27 24  1  0  0  0  0
 28 23  1  0  0  0  0
 29 33  1  0  0  0  0
 30 32  1  0  0  0  0
 32 31  1  0  0  0  0
 33 31  1  0  0  0  0
 34 29  1  0  0  0  0
 34 30  1  0  0  0  0
 35 40  1  0  0  0  0
 36 37  1  0  0  0  0
 37 43  1  0  0  0  0
 37 41  1  0  0  0  0
 38 41  1  0  0  0  0
 39 36  1  0  0  0  0
 39 40  1  0  0  0  0
 40 38  1  0  0  0  0
 42 43  1  0  0  0  0
M  END
>  <MODEL>
6

>  <REMARK>
 VINA RESULT:      -6.3      4.300      6.557
  Name = 
  8 active torsions:
  status: ('A' for Active; 'I' for Inactive)
    1  A    between atoms: O_1  and  C_34
    2  A    between atoms: O_1  and  C_35
    3  A    between atoms: C_2  and  N_6
    4  A    between atoms: C_2  and  C_13
    5  A    between atoms: C_3  and  N_4
    6  A    between atoms: C_3  and  C_12
    7  A    between atoms: C_11  and  C_14
    8  A    between atoms: N_19  and  O_37
                            x       y       z     vdW  Elec       q    Type
                         _______ _______ _______ _____ _____    ______ ____

>  <TORSDO>
F 8

$$$$
