=
 OpenBabel11052422193D

 25 29  0  0  1  0  0  0  0  0999 V2000
  161.1080  205.9990  151.5050 C   0  0  0  0  0  0  0  0  0  0  0  0
  161.0890  205.5630  150.2490 C   0  0  0  0  0  3  0  0  0  0  0  0
  160.9680  204.0220  152.9130 N   0  0  0  0  0  0  0  0  0  0  0  0
  161.1890  207.3280  151.8580 C   0  0  0  0  0  0  0  0  0  0  0  0
  161.3460  209.7720  153.1510 C   0  0  0  0  0  3  0  0  0  0  0  0
  160.8970  202.9920  151.9560 N   0  0  0  0  0  2  0  0  0  0  0  0
  161.1910  207.3810  153.2270 C   0  0  0  0  0  0  0  0  0  0  0  0
  161.2680  208.5920  153.9120 C   0  0  0  0  0  3  0  0  0  0  0  0
  160.8550  201.9800  149.6760 N   0  0  0  0  0  0  0  0  0  0  0  0
  160.1810  200.7590  150.0830 C   0  0  0  0  0  1  0  0  0  0  0  0
  161.0270  204.1730  149.8100 C   0  0  0  0  0  0  0  0  0  0  0  0
  161.3450  209.7170  151.7400 C   0  0  0  0  0  3  0  0  0  0  0  0
  161.0610  205.3040  152.7200 C   0  0  0  0  0  0  0  0  0  0  0  0
  161.1120  206.1560  153.7730 N   0  0  0  0  0  2  0  0  0  0  0  0
  160.9360  202.3290  148.3640 O   0  0  0  0  0  0  0  0  0  0  0  0
  161.2660  208.4810  151.0750 C   0  0  0  0  0  3  0  0  0  0  0  0
  160.9650  203.7500  148.3790 C   0  0  2  0  0  3  0  0  0  0  0  0
  160.9460  203.0960  150.5310 C   0  0  0  0  0  0  0  0  0  0  0  0
  162.1460  204.2160  147.6660 N   0  0  0  0  0  2  0  0  0  0  0  0
  161.1690  205.0850  145.5820 C   0  0  1  0  0  0  0  0  0  0  0  0
  161.0220  203.7240  145.2890 O   0  0  0  0  0  1  0  0  0  0  0  0
  160.1080  206.0370  145.0730 C   0  0  0  0  0  1  0  0  0  0  0  0
  161.7620  205.4220  146.9400 C   0  0  2  0  0  3  0  0  0  0  0  0
  163.6450  204.5600  145.3920 C   0  0  0  0  0  1  0  0  0  0  0  0
  162.5860  205.6320  145.6490 C   0  0  1  0  0  3  0  0  0  0  0  0
  1  4  1  0  0  0  0
  1 13  1  0  0  0  0
  2  1  2  0  0  0  0
  4  7  1  0  0  0  0
  5  8  1  0  0  0  0
  6  3  1  0  0  0  0
  7 14  1  0  0  0  0
  7  8  2  0  0  0  0
  9 10  1  0  0  0  0
  9 18  1  0  0  0  0
 11  2  1  0  0  0  0
 11 18  2  0  0  0  0
 12  5  2  0  0  0  0
 13  3  2  0  0  0  0
 13 14  1  0  0  0  0
 15 17  1  0  0  0  0
 15  9  1  0  0  0  0
 16 12  1  0  0  0  0
 16  4  2  0  0  0  0
 17 19  1  6  0  0  0
 17 11  1  0  0  0  0
 18  6  1  0  0  0  0
 20 22  1  6  0  0  0
 20 25  1  0  0  0  0
 20 23  1  0  0  0  0
 21 20  1  0  0  0  0
 23 19  1  1  0  0  0
 25 24  1  1  0  0  0
 25 23  1  0  0  0  0
M  END
>  <MODEL>
1

>  <REMARK>
 VINA RESULT:      -9.4      0.000      0.000
  Name = 
  2 active torsions:
  status: ('A' for Active; 'I' for Inactive)
    1  A    between atoms: N_6  and  C_15
    2  A    between atoms: N_6  and  C_23
                            x       y       z     vdW  Elec       q    Type
                         _______ _______ _______ _____ _____    ______ ____

>  <TORSDO>
F 2

$$$$
=
 OpenBabel11052422193D

 25 29  0  0  1  0  0  0  0  0999 V2000
  161.3110  205.8340  149.3940 C   0  0  2  0  0  3  0  0  0  0  0  0
  161.0100  206.6470  150.4020 C   0  0  0  0  0  3  0  0  0  0  0  0
  162.4620  207.1960  147.7420 N   0  0  0  0  0  0  0  0  0  0  0  0
  160.9940  204.4940  149.3640 C   0  0  0  0  0  0  0  0  0  0  0  0
  160.6500  201.8150  148.7520 C   0  0  0  0  0  3  0  0  0  0  0  0
  162.4540  208.4620  148.3570 N   0  0  0  0  0  0  0  0  0  0  0  0
  161.4690  203.9940  148.1810 C   0  0  0  0  0  0  0  0  0  0  0  0
  161.3140  202.6520  147.8380 C   0  0  0  0  0  3  0  0  0  0  0  0
  161.9860  210.1400  150.1430 N   0  0  0  0  0  0  0  0  0  0  0  0
  162.0320  211.2930  149.2600 C   0  0  0  0  0  1  0  0  0  0  0  0
  161.3350  208.0660  150.5040 C   0  0  0  0  0  0  0  0  0  0  0  0
  160.1630  202.3290  149.9730 C   0  0  0  0  0  3  0  0  0  0  0  0
  161.9770  206.0740  148.1860 C   0  0  0  0  0  0  0  0  0  0  0  0
  162.0710  204.9430  147.4450 N   0  0  0  0  0  2  0  0  0  0  0  0
  161.4480  210.2340  151.3890 O   0  0  0  0  0  0  0  0  0  0  0  0
  160.3330  203.6880  150.2930 C   0  0  0  0  0  3  0  0  0  0  0  0
  160.9300  208.9370  151.6480 C   0  0  2  0  0  3  0  0  0  0  0  0
  161.9420  208.8240  149.6420 C   0  0  0  0  0  0  0  0  0  0  0  0
  161.4960  208.4300  152.8890 N   0  0  0  0  0  2  0  0  0  0  0  0
  160.8280  207.5840  155.1010 C   0  0  1  0  0  0  0  0  0  0  0  0
  162.1480  207.9140  155.4320 O   0  0  0  0  0  1  0  0  0  0  0  0
  159.7670  207.7530  156.1670 C   0  0  0  0  0  1  0  0  0  0  0  0
  160.3910  207.8970  153.6800 C   0  0  2  0  0  3  0  0  0  0  0  0
  161.9400  205.8280  153.6440 C   0  0  0  0  0  1  0  0  0  0  0  0
  160.6230  206.4350  154.1260 C   0  0  1  0  0  3  0  0  0  0  0  0
  1  2  1  1  0  0  0
  2 11  2  0  0  0  0
  3 13  2  0  0  0  0
  3  6  1  0  0  0  0
  4  1  1  0  0  0  0
  4 16  1  0  0  0  0
  5 12  1  0  0  0  0
  6 18  2  0  0  0  0
  7  4  2  0  0  0  0
  8  7  1  0  0  0  0
  8  5  2  0  0  0  0
  9 15  1  0  0  0  0
 10  9  1  0  0  0  0
 11 17  1  0  0  0  0
 12 16  2  0  0  0  0
 13  1  1  0  0  0  0
 14  7  1  0  0  0  0
 14 13  1  0  0  0  0
 15 17  1  0  0  0  0
 17 19  1  1  0  0  0
 18  9  1  0  0  0  0
 18 11  1  0  0  0  0
 20 21  1  0  0  0  0
 20 22  1  1  0  0  0
 23 19  1  6  0  0  0
 23 25  1  0  0  0  0
 23 20  1  0  0  0  0
 25 24  1  6  0  0  0
 25 20  1  0  0  0  0
M  END
>  <MODEL>
2

>  <REMARK>
 VINA RESULT:      -9.3      3.344      7.431
  Name = 
  2 active torsions:
  status: ('A' for Active; 'I' for Inactive)
    1  A    between atoms: N_6  and  C_15
    2  A    between atoms: N_6  and  C_23
                            x       y       z     vdW  Elec       q    Type
                         _______ _______ _______ _____ _____    ______ ____

>  <TORSDO>
F 2

$$$$
=
 OpenBabel11052422193D

 25 29  0  0  1  0  0  0  0  0999 V2000
  161.6460  206.4680  148.5500 C   0  0  0  0  0  0  0  0  0  0  0  0
  161.9470  207.7580  148.4420 C   0  0  0  0  0  3  0  0  0  0  0  0
  161.0020  206.1130  150.8680 N   0  0  0  0  0  0  0  0  0  0  0  0
  161.7140  205.5700  147.5070 C   0  0  0  0  0  0  0  0  0  0  0  0
  161.6450  203.3600  145.8410 C   0  0  0  0  0  3  0  0  0  0  0  0
  161.1560  207.4030  151.4090 N   0  0  0  0  0  2  0  0  0  0  0  0
  161.3240  204.3530  147.9990 C   0  0  0  0  0  0  0  0  0  0  0  0
  161.2770  203.2180  147.1910 C   0  0  0  0  0  3  0  0  0  0  0  0
  161.6700  209.8440  151.4070 N   0  0  0  0  0  0  0  0  0  0  0  0
  161.9580  209.9230  152.8290 C   0  0  0  0  0  1  0  0  0  0  0  0
  161.8760  208.7620  149.4980 C   0  0  0  0  0  0  0  0  0  0  0  0
  162.0440  204.6150  145.3340 C   0  0  0  0  0  3  0  0  0  0  0  0
  161.2080  205.7150  149.6470 C   0  0  0  0  0  0  0  0  0  0  0  0
  161.0130  204.4180  149.3040 N   0  0  0  0  0  2  0  0  0  0  0  0
  162.0380  210.8450  150.5630 O   0  0  0  0  0  0  0  0  0  0  0  0
  162.0820  205.7440  146.1720 C   0  0  0  0  0  3  0  0  0  0  0  0
  162.2710  210.1920  149.3220 C   0  0  2  0  0  3  0  0  0  0  0  0
  161.5420  208.6080  150.7440 C   0  0  0  0  0  0  0  0  0  0  0  0
  161.4550  210.8140  148.2890 N   0  0  0  0  0  2  0  0  0  0  0  0
  161.5130  213.2690  148.1360 C   0  0  1  0  0  0  0  0  0  0  0  0
  160.3580  213.1700  148.9220 O   0  0  0  0  0  1  0  0  0  0  0  0
  162.4270  214.4530  148.3680 C   0  0  0  0  0  1  0  0  0  0  0  0
  162.2030  211.9620  147.7850 C   0  0  2  0  0  3  0  0  0  0  0  0
  160.0510  212.1830  146.3680 C   0  0  0  0  0  1  0  0  0  0  0  0
  161.4270  212.7550  146.7080 C   0  0  1  0  0  3  0  0  0  0  0  0
  1 13  1  0  0  0  0
  2  1  2  0  0  0  0
  2 11  1  0  0  0  0
  3  6  1  0  0  0  0
  4  7  1  0  0  0  0
  4  1  1  0  0  0  0
  5  8  1  0  0  0  0
  7 14  1  0  0  0  0
  8  7  2  0  0  0  0
  9 10  1  0  0  0  0
 11 18  2  0  0  0  0
 12  5  2  0  0  0  0
 12 16  1  0  0  0  0
 13  3  2  0  0  0  0
 14 13  1  0  0  0  0
 15  9  1  0  0  0  0
 16  4  2  0  0  0  0
 17 19  1  6  0  0  0
 17 11  1  0  0  0  0
 17 15  1  0  0  0  0
 18  9  1  0  0  0  0
 18  6  1  0  0  0  0
 20 22  1  1  0  0  0
 20 21  1  0  0  0  0
 23 20  1  0  0  0  0
 23 19  1  1  0  0  0
 25 24  1  1  0  0  0
 25 23  1  0  0  0  0
 25 20  1  0  0  0  0
M  END
>  <MODEL>
3

>  <REMARK>
 VINA RESULT:      -8.8      4.234      6.982
  Name = 
  2 active torsions:
  status: ('A' for Active; 'I' for Inactive)
    1  A    between atoms: N_6  and  C_15
    2  A    between atoms: N_6  and  C_23
                            x       y       z     vdW  Elec       q    Type
                         _______ _______ _______ _____ _____    ______ ____

>  <TORSDO>
F 2

$$$$
=
 OpenBabel11052422193D

 25 29  0  0  1  0  0  0  0  0999 V2000
  161.1730  206.9130  151.2510 C   0  0  0  0  0  0  0  0  0  0  0  0
  161.1810  208.1650  151.6990 C   0  0  0  0  0  3  0  0  0  0  0  0
  161.1340  205.4890  153.2210 N   0  0  0  0  0  0  0  0  0  0  0  0
  161.1880  206.5720  149.9170 C   0  0  0  0  0  0  0  0  0  0  0  0
  161.1960  205.3000  147.4570 C   0  0  0  0  0  3  0  0  0  0  0  0
  161.1440  206.4370  154.2610 N   0  0  0  0  0  2  0  0  0  0  0  0
  161.1650  205.2040  149.8520 C   0  0  0  0  0  0  0  0  0  0  0  0
  161.1680  204.5280  148.6330 C   0  0  0  0  0  3  0  0  0  0  0  0
  161.1500  208.7080  155.2930 N   0  0  0  0  0  0  0  0  0  0  0  0
  161.7200  208.2800  156.5590 C   0  0  0  0  0  1  0  0  0  0  0  0
  161.1440  208.5930  153.0930 C   0  0  0  0  0  0  0  0  0  0  0  0
  161.2180  206.7090  147.5240 C   0  0  0  0  0  3  0  0  0  0  0  0
  161.1440  205.6920  151.9370 C   0  0  0  0  0  0  0  0  0  0  0  0
  161.1390  204.6470  151.0740 N   0  0  0  0  0  2  0  0  0  0  0  0
  161.1200  210.0240  154.9510 O   0  0  0  0  0  0  0  0  0  0  0  0
  161.2140  207.3650  148.7690 C   0  0  0  0  0  3  0  0  0  0  0  0
  161.2000  210.0200  153.5320 C   0  0  2  0  0  3  0  0  0  0  0  0
  161.1290  207.8630  154.1660 C   0  0  0  0  0  0  0  0  0  0  0  0
  160.0720  210.7580  152.9830 N   0  0  0  0  0  2  0  0  0  0  0  0
  158.6230  212.3620  154.1580 C   0  0  1  0  0  0  0  0  0  0  0  0
  157.6540  211.3720  153.9490 O   0  0  0  0  0  1  0  0  0  0  0  0
  158.5390  213.1760  155.4320 C   0  0  0  0  0  1  0  0  0  0  0  0
  160.0260  212.0460  153.6680 C   0  0  2  0  0  3  0  0  0  0  0  0
  158.5260  212.5810  151.6320 C   0  0  0  0  0  1  0  0  0  0  0  0
  159.1510  213.0870  152.9310 C   0  0  1  0  0  3  0  0  0  0  0  0
  1  2  2  0  0  0  0
  1 13  1  0  0  0  0
  2 11  1  0  0  0  0
  3  6  1  0  0  0  0
  4  1  1  0  0  0  0
  5 12  2  0  0  0  0
  5  8  1  0  0  0  0
  7  4  1  0  0  0  0
  7 14  1  0  0  0  0
  8  7  2  0  0  0  0
  9 10  1  0  0  0  0
 11 17  1  0  0  0  0
 11 18  2  0  0  0  0
 12 16  1  0  0  0  0
 13  3  2  0  0  0  0
 14 13  1  0  0  0  0
 15  9  1  0  0  0  0
 16  4  2  0  0  0  0
 17 19  1  6  0  0  0
 17 15  1  0  0  0  0
 18  6  1  0  0  0  0
 18  9  1  0  0  0  0
 20 22  1  1  0  0  0
 21 20  1  0  0  0  0
 23 19  1  6  0  0  0
 23 20  1  0  0  0  0
 25 24  1  6  0  0  0
 25 23  1  0  0  0  0
 25 20  1  0  0  0  0
M  END
>  <MODEL>
4

>  <REMARK>
 VINA RESULT:      -8.8      3.807      7.639
  Name = 
  2 active torsions:
  status: ('A' for Active; 'I' for Inactive)
    1  A    between atoms: N_6  and  C_15
    2  A    between atoms: N_6  and  C_23
                            x       y       z     vdW  Elec       q    Type
                         _______ _______ _______ _____ _____    ______ ____

>  <TORSDO>
F 2

$$$$
=
 OpenBabel11052422193D

 25 29  0  0  1  0  0  0  0  0999 V2000
  161.0800  207.2320  151.8180 C   0  0  0  0  0  0  0  0  0  0  0  0
  161.0340  208.5610  151.8540 C   0  0  0  0  0  3  0  0  0  0  0  0
  161.1680  206.4940  154.1320 N   0  0  0  0  0  0  0  0  0  0  0  0
  161.0780  206.4920  150.6560 C   0  0  0  0  0  0  0  0  0  0  0  0
  161.0890  204.5170  148.7150 C   0  0  0  0  0  3  0  0  0  0  0  0
  161.1550  207.7190  154.8250 N   0  0  0  0  0  2  0  0  0  0  0  0
  161.1260  205.1730  151.0200 C   0  0  0  0  0  0  0  0  0  0  0  0
  161.1330  204.1510  150.0720 C   0  0  0  0  0  3  0  0  0  0  0  0
  161.0680  210.1960  155.1000 N   0  0  0  0  0  0  0  0  0  0  0  0
  161.6930  210.2090  156.4120 C   0  0  0  0  0  1  0  0  0  0  0  0
  161.0110  209.4000  153.0460 C   0  0  0  0  0  0  0  0  0  0  0  0
  161.0380  205.8770  148.3400 C   0  0  0  0  0  3  0  0  0  0  0  0
  161.1340  206.2860  152.8490 C   0  0  0  0  0  0  0  0  0  0  0  0
  161.1610  205.0250  152.3550 N   0  0  0  0  0  2  0  0  0  0  0  0
  160.9590  211.3370  154.3670 O   0  0  0  0  0  0  0  0  0  0  0  0
  161.0320  206.8870  149.3180 C   0  0  0  0  0  3  0  0  0  0  0  0
  161.0020  210.8940  153.0180 C   0  0  2  0  0  3  0  0  0  0  0  0
  161.0620  209.0420  154.2930 C   0  0  0  0  0  0  0  0  0  0  0  0
  159.8230  211.3750  152.3140 N   0  0  0  0  0  2  0  0  0  0  0  0
  158.4050  213.3660  152.0300 C   0  0  1  0  0  0  0  0  0  0  0  0
  157.6770  212.5120  151.1920 O   0  0  0  0  0  1  0  0  0  0  0  0
  157.6370  214.4010  152.8240 C   0  0  0  0  0  1  0  0  0  0  0  0
  159.6090  212.7590  152.7290 C   0  0  2  0  0  3  0  0  0  0  0  0
  160.1850  213.1340  150.2360 C   0  0  0  0  0  1  0  0  0  0  0  0
  159.7970  213.7670  151.5720 C   0  0  1  0  0  3  0  0  0  0  0  0
  1  2  2  0  0  0  0
  1 13  1  0  0  0  0
  2 11  1  0  0  0  0
  3  6  1  0  0  0  0
  4  7  1  0  0  0  0
  4  1  1  0  0  0  0
  5  8  1  0  0  0  0
  7 14  1  0  0  0  0
  8  7  2  0  0  0  0
  9 10  1  0  0  0  0
 11 18  2  0  0  0  0
 12  5  2  0  0  0  0
 12 16  1  0  0  0  0
 13  3  2  0  0  0  0
 14 13  1  0  0  0  0
 15  9  1  0  0  0  0
 16  4  2  0  0  0  0
 17 19  1  6  0  0  0
 17 11  1  0  0  0  0
 17 15  1  0  0  0  0
 18  6  1  0  0  0  0
 18  9  1  0  0  0  0
 20 23  1  0  0  0  0
 20 22  1  1  0  0  0
 21 20  1  0  0  0  0
 23 19  1  6  0  0  0
 25 24  1  6  0  0  0
 25 20  1  0  0  0  0
 25 23  1  0  0  0  0
M  END
>  <MODEL>
5

>  <REMARK>
 VINA RESULT:      -8.3      4.089      7.623
  Name = 
  2 active torsions:
  status: ('A' for Active; 'I' for Inactive)
    1  A    between atoms: N_6  and  C_15
    2  A    between atoms: N_6  and  C_23
                            x       y       z     vdW  Elec       q    Type
                         _______ _______ _______ _____ _____    ______ ____

>  <TORSDO>
F 2

$$$$
=
 OpenBabel11052422193D

 25 29  0  0  1  0  0  0  0  0999 V2000
  160.9750  206.8440  152.0360 C   0  0  0  0  0  0  0  0  0  0  0  0
  160.7950  206.4420  150.7820 C   0  0  0  0  0  3  0  0  0  0  0  0
  161.2480  204.8250  153.3640 N   0  0  0  0  0  0  0  0  0  0  0  0
  160.9880  208.1640  152.4280 C   0  0  0  0  0  0  0  0  0  0  0  0
  161.1230  210.5760  153.7830 C   0  0  0  0  0  3  0  0  0  0  0  0
  161.1200  203.8200  152.3870 N   0  0  0  0  0  2  0  0  0  0  0  0
  161.2050  208.1800  153.7800 C   0  0  0  0  0  0  0  0  0  0  0  0
  161.2790  209.3740  154.4960 C   0  0  0  0  0  3  0  0  0  0  0  0
  160.8060  202.8700  150.1020 N   0  0  0  0  0  0  0  0  0  0  0  0
  160.3220  201.5780  150.5570 C   0  0  0  0  0  1  0  0  0  0  0  0
  160.7930  205.0650  150.2990 C   0  0  0  0  0  0  0  0  0  0  0  0
  160.9010  210.5590  152.3890 C   0  0  0  0  0  3  0  0  0  0  0  0
  161.1890  206.1150  153.2130 C   0  0  0  0  0  0  0  0  0  0  0  0
  161.3290  206.9390  154.2800 N   0  0  0  0  0  2  0  0  0  0  0  0
  160.6430  203.2610  148.8090 O   0  0  0  0  0  0  0  0  0  0  0  0
  160.8320  209.3400  151.6920 C   0  0  0  0  0  3  0  0  0  0  0  0
  160.5420  204.6770  148.8790 C   0  0  2  0  0  3  0  0  0  0  0  0
  160.9290  203.9660  150.9780 C   0  0  0  0  0  0  0  0  0  0  0  0
  161.5440  205.2760  148.0100 N   0  0  0  0  0  2  0  0  0  0  0  0
  162.7360  204.8780  145.8950 C   0  0  1  0  0  0  0  0  0  0  0  0
  163.0810  206.2280  146.0390 O   0  0  0  0  0  1  0  0  0  0  0  0
  163.7510  203.9530  145.2580 C   0  0  0  0  0  1  0  0  0  0  0  0
  161.9010  204.2740  147.0100 C   0  0  2  0  0  3  0  0  0  0  0  0
  160.3980  205.8100  145.5730 C   0  0  0  0  0  1  0  0  0  0  0  0
  161.2750  204.5600  145.6250 C   0  0  1  0  0  3  0  0  0  0  0  0
  1  4  1  0  0  0  0
  1 13  1  0  0  0  0
  2  1  2  0  0  0  0
  4  7  1  0  0  0  0
  5  8  1  0  0  0  0
  6  3  1  0  0  0  0
  7 14  1  0  0  0  0
  7  8  2  0  0  0  0
  9 10  1  0  0  0  0
  9 18  1  0  0  0  0
 11  2  1  0  0  0  0
 11 18  2  0  0  0  0
 12  5  2  0  0  0  0
 13  3  2  0  0  0  0
 13 14  1  0  0  0  0
 15 17  1  0  0  0  0
 15  9  1  0  0  0  0
 16 12  1  0  0  0  0
 16  4  2  0  0  0  0
 17 19  1  6  0  0  0
 17 11  1  0  0  0  0
 18  6  1  0  0  0  0
 20 22  1  6  0  0  0
 20 21  1  0  0  0  0
 20 23  1  0  0  0  0
 23 19  1  1  0  0  0
 25 24  1  1  0  0  0
 25 20  1  0  0  0  0
 25 23  1  0  0  0  0
M  END
>  <MODEL>
6

>  <REMARK>
 VINA RESULT:      -7.6      1.107      1.651
  Name = 
  2 active torsions:
  status: ('A' for Active; 'I' for Inactive)
    1  A    between atoms: N_6  and  C_15
    2  A    between atoms: N_6  and  C_23
                            x       y       z     vdW  Elec       q    Type
                         _______ _______ _______ _____ _____    ______ ____

>  <TORSDO>
F 2

$$$$
=
 OpenBabel11052422193D

 25 29  0  0  1  0  0  0  0  0999 V2000
  161.3830  206.4290  150.3560 C   0  0  2  0  0  3  0  0  0  0  0  0
  161.4800  205.2450  149.7580 C   0  0  0  0  0  3  0  0  0  0  0  0
  161.4330  208.0900  148.5810 N   0  0  0  0  0  0  0  0  0  0  0  0
  161.2810  206.5980  151.7190 C   0  0  0  0  0  0  0  0  0  0  0  0
  161.0440  207.5460  154.3100 C   0  0  0  0  0  3  0  0  0  0  0  0
  161.5640  207.2830  147.4360 N   0  0  0  0  0  0  0  0  0  0  0  0
  161.1930  207.9450  151.9510 C   0  0  0  0  0  0  0  0  0  0  0  0
  161.0730  208.4590  153.2410 C   0  0  0  0  0  3  0  0  0  0  0  0
  161.7490  205.1640  146.1340 N   0  0  0  0  0  0  0  0  0  0  0  0
  162.3950  205.7690  144.9810 C   0  0  0  0  0  1  0  0  0  0  0  0
  161.5690  204.9970  148.3230 C   0  0  0  0  0  0  0  0  0  0  0  0
  161.1330  206.1580  154.0700 C   0  0  0  0  0  3  0  0  0  0  0  0
  161.3530  207.7250  149.8270 C   0  0  0  0  0  0  0  0  0  0  0  0
  161.2370  208.6520  150.8090 N   0  0  0  0  0  2  0  0  0  0  0  0
  161.7490  203.8150  146.3060 O   0  0  0  0  0  0  0  0  0  0  0  0
  161.2530  205.6670  152.7580 C   0  0  0  0  0  3  0  0  0  0  0  0
  161.7200  203.6400  147.7160 C   0  0  2  0  0  3  0  0  0  0  0  0
  161.6040  205.8570  147.3510 C   0  0  0  0  0  0  0  0  0  0  0  0
  160.5870  202.8010  148.0750 N   0  0  0  0  0  2  0  0  0  0  0  0
  160.9730  201.5490  150.1580 C   0  0  1  0  0  0  0  0  0  0  0  0
  161.5190  200.6030  149.2810 O   0  0  0  0  0  1  0  0  0  0  0  0
  161.5990  201.6870  151.5290 C   0  0  0  0  0  1  0  0  0  0  0  0
  160.4690  202.8370  149.5300 C   0  0  2  0  0  3  0  0  0  0  0  0
  158.7980  200.9350  149.0020 C   0  0  0  0  0  1  0  0  0  0  0  0
  159.4740  201.7870  150.0770 C   0  0  1  0  0  3  0  0  0  0  0  0
  1  2  1  6  0  0  0
  1  4  1  0  0  0  0
  3 13  2  0  0  0  0
  4  7  2  0  0  0  0
  4 16  1  0  0  0  0
  6  3  1  0  0  0  0
  7  8  1  0  0  0  0
  8  5  2  0  0  0  0
  9 15  1  0  0  0  0
  9 18  1  0  0  0  0
 10  9  1  0  0  0  0
 11  2  2  0  0  0  0
 12  5  1  0  0  0  0
 13  1  1  0  0  0  0
 13 14  1  0  0  0  0
 14  7  1  0  0  0  0
 15 17  1  0  0  0  0
 16 12  2  0  0  0  0
 17 19  1  6  0  0  0
 17 11  1  0  0  0  0
 18  6  2  0  0  0  0
 18 11  1  0  0  0  0
 20 22  1  1  0  0  0
 21 20  1  0  0  0  0
 23 19  1  6  0  0  0
 23 25  1  0  0  0  0
 23 20  1  0  0  0  0
 25 24  1  6  0  0  0
 25 20  1  0  0  0  0
M  END
>  <MODEL>
7

>  <REMARK>
 VINA RESULT:      -7.5      1.935      4.423
  Name = 
  2 active torsions:
  status: ('A' for Active; 'I' for Inactive)
    1  A    between atoms: N_6  and  C_15
    2  A    between atoms: N_6  and  C_23
                            x       y       z     vdW  Elec       q    Type
                         _______ _______ _______ _____ _____    ______ ____

>  <TORSDO>
F 2

$$$$
=
 OpenBabel11052422193D

 25 29  0  0  1  0  0  0  0  0999 V2000
  160.9860  207.4960  152.1150 C   0  0  0  0  0  0  0  0  0  0  0  0
  160.8320  208.8160  152.0670 C   0  0  0  0  0  3  0  0  0  0  0  0
  161.2610  206.9290  154.4630 N   0  0  0  0  0  0  0  0  0  0  0  0
  160.9810  206.6790  151.0060 C   0  0  0  0  0  0  0  0  0  0  0  0
  161.0490  204.5820  149.1990 C   0  0  0  0  0  3  0  0  0  0  0  0
  161.1850  208.1940  155.0750 N   0  0  0  0  0  2  0  0  0  0  0  0
  161.1570  205.3960  151.4510 C   0  0  0  0  0  0  0  0  0  0  0  0
  161.1970  204.3150  150.5720 C   0  0  0  0  0  3  0  0  0  0  0  0
  160.9090  210.6710  155.1930 N   0  0  0  0  0  0  0  0  0  0  0  0
  161.6020  210.8230  156.4610 C   0  0  0  0  0  1  0  0  0  0  0  0
  160.8060  209.7320  153.2020 C   0  0  0  0  0  0  0  0  0  0  0  0
  160.8650  205.9040  148.7410 C   0  0  0  0  0  3  0  0  0  0  0  0
  161.1740  206.6310  153.2000 C   0  0  0  0  0  0  0  0  0  0  0  0
  161.2780  205.3440  152.7880 N   0  0  0  0  0  2  0  0  0  0  0  0
  160.6670  211.7460  154.3960 O   0  0  0  0  0  0  0  0  0  0  0  0
  160.8290  206.9760  149.6500 C   0  0  0  0  0  3  0  0  0  0  0  0
  160.6720  211.2150  153.0780 C   0  0  2  0  0  3  0  0  0  0  0  0
  160.9540  209.4660  154.4640 C   0  0  0  0  0  0  0  0  0  0  0  0
  159.4200  211.5520  152.4170 N   0  0  0  0  0  2  0  0  0  0  0  0
  159.7380  213.7070  151.2720 C   0  0  1  0  0  0  0  0  0  0  0  0
  159.4780  214.2230  152.5480 O   0  0  0  0  0  1  0  0  0  0  0  0
  160.7200  214.4530  150.3940 C   0  0  0  0  0  1  0  0  0  0  0  0
  159.7620  212.1930  151.1500 C   0  0  2  0  0  3  0  0  0  0  0  0
  157.3100  212.9780  151.3900 C   0  0  0  0  0  1  0  0  0  0  0  0
  158.5910  213.0110  150.5580 C   0  0  1  0  0  3  0  0  0  0  0  0
  1 13  1  0  0  0  0
  2  1  2  0  0  0  0
  2 11  1  0  0  0  0
  3  6  1  0  0  0  0
  4  7  1  0  0  0  0
  4  1  1  0  0  0  0
  5  8  1  0  0  0  0
  7 14  1  0  0  0  0
  8  7  2  0  0  0  0
  9 10  1  0  0  0  0
 11 18  2  0  0  0  0
 12  5  2  0  0  0  0
 12 16  1  0  0  0  0
 13  3  2  0  0  0  0
 14 13  1  0  0  0  0
 15  9  1  0  0  0  0
 16  4  2  0  0  0  0
 17 19  1  1  0  0  0
 17 11  1  0  0  0  0
 17 15  1  0  0  0  0
 18  6  1  0  0  0  0
 18  9  1  0  0  0  0
 20 22  1  6  0  0  0
 20 21  1  0  0  0  0
 23 20  1  0  0  0  0
 23 19  1  1  0  0  0
 25 23  1  0  0  0  0
 25 20  1  0  0  0  0
 25 24  1  1  0  0  0
M  END
>  <MODEL>
8

>  <REMARK>
 VINA RESULT:      -7.2      4.359      7.732
  Name = 
  2 active torsions:
  status: ('A' for Active; 'I' for Inactive)
    1  A    between atoms: N_6  and  C_15
    2  A    between atoms: N_6  and  C_23
                            x       y       z     vdW  Elec       q    Type
                         _______ _______ _______ _____ _____    ______ ____

>  <TORSDO>
F 2

$$$$
=
 OpenBabel11052422193D

 25 29  0  0  1  0  0  0  0  0999 V2000
  161.1560  204.6760  150.6380 C   0  0  0  0  0  0  0  0  0  0  0  0
  160.9730  204.5110  149.3310 C   0  0  0  0  0  3  0  0  0  0  0  0
  161.6090  202.4650  151.5430 N   0  0  0  0  0  0  0  0  0  0  0  0
  161.0840  205.8930  151.2790 C   0  0  0  0  0  0  0  0  0  0  0  0
  161.0800  208.0000  153.0750 C   0  0  0  0  0  3  0  0  0  0  0  0
  161.5280  201.6610  150.3920 N   0  0  0  0  0  2  0  0  0  0  0  0
  161.3350  205.6640  152.6060 C   0  0  0  0  0  0  0  0  0  0  0  0
  161.3410  206.6980  153.5390 C   0  0  0  0  0  3  0  0  0  0  0  0
  161.2230  201.1500  147.9690 N   0  0  0  0  0  0  0  0  0  0  0  0
  160.8470  199.7610  148.1700 C   0  0  0  0  0  1  0  0  0  0  0  0
  161.0570  203.2570  148.5900 C   0  0  0  0  0  0  0  0  0  0  0  0
  160.8230  208.2360  151.7070 C   0  0  0  0  0  3  0  0  0  0  0  0
  161.4530  203.7520  151.6480 C   0  0  0  0  0  0  0  0  0  0  0  0
  161.5620  204.3630  152.8530 N   0  0  0  0  0  2  0  0  0  0  0  0
  160.9980  201.7690  146.7790 O   0  0  0  0  0  0  0  0  0  0  0  0
  160.8230  207.1730  150.7870 C   0  0  0  0  0  3  0  0  0  0  0  0
  160.7970  203.1320  147.1240 C   0  0  2  0  0  3  0  0  0  0  0  0
  161.2900  202.0620  149.0400 C   0  0  0  0  0  0  0  0  0  0  0  0
  161.7300  203.9620  146.3770 N   0  0  0  0  0  2  0  0  0  0  0  0
  161.7850  205.6220  144.5610 C   0  0  1  0  0  0  0  0  0  0  0  0
  163.0650  205.8760  145.0700 O   0  0  0  0  0  1  0  0  0  0  0  0
  161.5780  205.7570  143.0680 C   0  0  0  0  0  1  0  0  0  0  0  0
  161.0000  204.5130  145.2390 C   0  0  2  0  0  3  0  0  0  0  0  0
  161.0280  206.5860  146.7830 C   0  0  0  0  0  1  0  0  0  0  0  0
  160.6020  205.9930  145.4400 C   0  0  1  0  0  3  0  0  0  0  0  0
  1  4  1  0  0  0  0
  1 13  1  0  0  0  0
  2  1  2  0  0  0  0
  3 13  2  0  0  0  0
  4  7  1  0  0  0  0
  5  8  1  0  0  0  0
  6  3  1  0  0  0  0
  7 14  1  0  0  0  0
  7  8  2  0  0  0  0
  9 10  1  0  0  0  0
  9 18  1  0  0  0  0
 11 18  2  0  0  0  0
 11  2  1  0  0  0  0
 12  5  2  0  0  0  0
 13 14  1  0  0  0  0
 15 17  1  0  0  0  0
 15  9  1  0  0  0  0
 16  4  2  0  0  0  0
 16 12  1  0  0  0  0
 17 19  1  6  0  0  0
 17 11  1  0  0  0  0
 18  6  1  0  0  0  0
 20 22  1  6  0  0  0
 20 21  1  0  0  0  0
 20 23  1  0  0  0  0
 20 25  1  0  0  0  0
 23 25  1  0  0  0  0
 23 19  1  1  0  0  0
 25 24  1  1  0  0  0
M  END
>  <MODEL>
9

>  <REMARK>
 VINA RESULT:      -7.0      1.383      1.983
  Name = 
  2 active torsions:
  status: ('A' for Active; 'I' for Inactive)
    1  A    between atoms: N_6  and  C_15
    2  A    between atoms: N_6  and  C_23
                            x       y       z     vdW  Elec       q    Type
                         _______ _______ _______ _____ _____    ______ ____

>  <TORSDO>
F 2

$$$$
