=
 OpenBabel11052423053D

 28 30  0  0  1  0  0  0  0  0999 V2000
  161.8850  204.6040  151.8380 C   0  0  0  0  0  2  0  0  0  0  0  0
  162.3430  205.4630  153.0220 C   0  0  0  0  0  2  0  0  0  0  0  0
  161.8950  206.9380  152.9600 C   0  0  1  0  0  3  0  0  0  0  0  0
  162.7830  206.9870  150.4740 C   0  0  0  0  0  2  0  0  0  0  0  0
  161.6640  206.3180  149.6510 C   0  0  1  0  0  3  0  0  0  0  0  0
  162.3960  207.7560  151.7450 C   0  0  1  0  0  3  0  0  0  0  0  0
  160.3630  205.8540  150.3690 C   0  0  1  0  0  3  0  0  0  0  0  0
  160.0460  204.4200  150.1590 C   0  0  2  0  0  3  0  0  0  0  0  0
  160.4860  204.8870  151.5000 N   0  0  1  0  0  0  0  0  0  0  0  0
  162.4030  210.1450  151.6380 O   0  0  0  0  0  1  0  0  0  0  0  0
  161.5960  209.0200  151.4600 C   0  0  0  0  0  2  0  0  0  0  0  0
  160.3520  207.1470  154.5420 C   0  0  0  0  0  1  0  0  0  0  0  0
  160.5140  207.0620  153.1580 O   0  0  0  0  0  0  0  0  0  0  0  0
  161.4270  207.0090  148.3010 C   0  0  1  0  0  3  0  0  0  0  0  0
  161.7540  209.1990  148.2400 C   0  0  0  0  0  1  0  0  0  0  0  0
  162.4070  207.9780  148.0610 O   0  0  0  0  0  0  0  0  0  0  0  0
  161.3310  206.0610  147.1400 C   0  0  0  0  0  0  0  0  0  0  0  0
  160.4930  206.3700  146.1410 C   0  0  0  0  0  3  0  0  0  0  0  0
  160.2860  205.4960  144.9450 C   0  0  0  0  0  2  0  0  0  0  0  0
  161.1450  205.8950  143.9240 O   0  0  0  0  0  1  0  0  0  0  0  0
  162.1380  204.7920  147.1350 C   0  0  0  0  0  2  0  0  0  0  0  0
  163.4310  204.9840  146.3650 C   0  0  0  0  0  2  0  0  0  0  0  0
  163.4910  204.0630  145.3220 O   0  0  0  0  0  1  0  0  0  0  0  0
  161.0850  203.5770  149.4010 C   0  0  0  0  0  2  0  0  0  0  0  0
  161.0660  202.2690  149.8860 O   0  0  0  0  0  0  0  0  0  0  0  0
  160.3420  201.5520  148.9340 C   0  0  0  0  0  3  0  0  0  0  0  0
  161.2510  200.5260  148.2860 C   0  0  0  0  0  2  0  0  0  0  0  0
  160.9290  201.8160  147.5620 C   0  0  0  0  0  2  0  0  0  0  0  0
  1  2  1  0  0  0  0
  3  2  1  0  0  0  0
  3 13  1  6  0  0  0
  4  6  1  0  0  0  0
  5 14  1  6  0  0  0
  5  7  1  0  0  0  0
  5  4  1  0  0  0  0
  6 11  1  6  0  0  0
  6  3  1  0  0  0  0
  7  9  1  0  0  0  0
  8  7  1  0  0  0  0
  8  9  1  0  0  0  0
  9  1  1  0  0  0  0
 11 10  1  0  0  0  0
 13 12  1  0  0  0  0
 16 15  1  0  0  0  0
 16 14  1  0  0  0  0
 17 14  1  0  0  0  0
 18 17  2  0  0  0  0
 19 18  1  0  0  0  0
 20 19  1  0  0  0  0
 21 17  1  0  0  0  0
 22 21  1  0  0  0  0
 23 22  1  0  0  0  0
 24 25  1  0  0  0  0
 24  8  1  0  0  0  0
 26 25  1  0  0  0  0
 27 26  1  0  0  0  0
 28 27  1  0  0  0  0
 28 26  1  0  0  0  0
M  END
>  <MODEL>
1

>  <REMARK>
 VINA RESULT:      -5.7      0.000      0.000
  Name = 
  11 active torsions:
  status: ('A' for Active; 'I' for Inactive)
    1  A    between atoms: C_3  and  O_28
    2  A    between atoms: C_5  and  O_21
    3  A    between atoms: C_9  and  C_13
    4  A    between atoms: C_9  and  C_14
    5  A    between atoms: C_10  and  C_13
    6  A    between atoms: C_11  and  C_22
    7  A    between atoms: C_12  and  C_15
    8  A    between atoms: C_13  and  O_24
    9  A    between atoms: C_14  and  C_18
   10  A    between atoms: C_16  and  C_20
   11  A    between atoms: C_16  and  O_21
                            x       y       z     vdW  Elec       q    Type
                         _______ _______ _______ _____ _____    ______ ____

>  <TORSDO>
F 11

$$$$
=
 OpenBabel11052423053D

 28 30  0  0  1  0  0  0  0  0999 V2000
  160.4880  210.9090  152.0140 C   0  0  0  0  0  2  0  0  0  0  0  0
  159.9440  211.0170  153.4420 C   0  0  0  0  0  2  0  0  0  0  0  0
  160.6070  210.0650  154.4580 C   0  0  1  0  0  3  0  0  0  0  0  0
  160.2270  208.1190  152.7130 C   0  0  0  0  0  2  0  0  0  0  0  0
  161.3710  208.2850  151.6940 C   0  0  1  0  0  3  0  0  0  0  0  0
  160.4720  208.5500  154.1660 C   0  0  1  0  0  3  0  0  0  0  0  0
  162.4290  209.4060  151.9120 C   0  0  1  0  0  3  0  0  0  0  0  0
  162.5660  210.3280  150.7570 C   0  0  2  0  0  3  0  0  0  0  0  0
  161.9510  210.8170  152.0190 N   0  0  1  0  0  0  0  0  0  0  0  0
  161.1860  207.6130  156.2480 O   0  0  0  0  0  1  0  0  0  0  0  0
  161.4880  207.6740  154.8870 C   0  0  0  0  0  2  0  0  0  0  0  0
  161.8710  211.1030  155.9580 C   0  0  0  0  0  1  0  0  0  0  0  0
  161.9280  210.4440  154.7280 O   0  0  0  0  0  0  0  0  0  0  0  0
  161.9600  206.9420  151.2410 C   0  0  1  0  0  3  0  0  0  0  0  0
  162.9340  205.3570  152.4420 C   0  0  0  0  0  1  0  0  0  0  0  0
  161.6940  205.9410  152.1810 O   0  0  0  0  0  0  0  0  0  0  0  0
  161.5120  206.5110  149.8730 C   0  0  0  0  0  0  0  0  0  0  0  0
  162.0970  207.0790  148.8100 C   0  0  0  0  0  3  0  0  0  0  0  0
  161.7190  206.7580  147.3980 C   0  0  0  0  0  2  0  0  0  0  0  0
  162.6090  205.8190  146.8820 O   0  0  0  0  0  1  0  0  0  0  0  0
  160.4130  205.4940  149.7270 C   0  0  0  0  0  2  0  0  0  0  0  0
  160.9950  204.1080  149.5190 C   0  0  0  0  0  2  0  0  0  0  0  0
  160.5000  203.2460  150.4970 O   0  0  0  0  0  1  0  0  0  0  0  0
  161.5790  210.1440  149.5930 C   0  0  0  0  0  2  0  0  0  0  0  0
  162.1370  210.6560  148.4220 O   0  0  0  0  0  0  0  0  0  0  0  0
  162.0420  212.0410  148.5640 C   0  0  0  0  0  3  0  0  0  0  0  0
  161.8210  212.6660  147.2010 C   0  0  0  0  0  2  0  0  0  0  0  0
  163.1970  212.6940  147.8320 C   0  0  0  0  0  2  0  0  0  0  0  0
  1  9  1  0  0  0  0
  1  2  1  0  0  0  0
  2  3  1  0  0  0  0
  3 13  1  6  0  0  0
  4  6  1  0  0  0  0
  5 14  1  1  0  0  0
  5  7  1  0  0  0  0
  5  4  1  0  0  0  0
  6  3  1  0  0  0  0
  6 11  1  6  0  0  0
  7  9  1  0  0  0  0
  8  7  1  0  0  0  0
  8  9  1  0  0  0  0
 11 10  1  0  0  0  0
 13 12  1  0  0  0  0
 14 16  1  0  0  0  0
 16 15  1  0  0  0  0
 17 14  1  0  0  0  0
 18 17  2  0  0  0  0
 19 18  1  0  0  0  0
 20 19  1  0  0  0  0
 21 17  1  0  0  0  0
 22 21  1  0  0  0  0
 22 23  1  0  0  0  0
 24  8  1  0  0  0  0
 25 26  1  0  0  0  0
 25 24  1  0  0  0  0
 27 28  1  0  0  0  0
 27 26  1  0  0  0  0
 28 26  1  0  0  0  0
M  END
>  <MODEL>
2

>  <REMARK>
 VINA RESULT:      -5.1      2.510      5.883
  Name = 
  11 active torsions:
  status: ('A' for Active; 'I' for Inactive)
    1  A    between atoms: C_3  and  O_28
    2  A    between atoms: C_5  and  O_21
    3  A    between atoms: C_9  and  C_13
    4  A    between atoms: C_9  and  C_14
    5  A    between atoms: C_10  and  C_13
    6  A    between atoms: C_11  and  C_22
    7  A    between atoms: C_12  and  C_15
    8  A    between atoms: C_13  and  O_24
    9  A    between atoms: C_14  and  C_18
   10  A    between atoms: C_16  and  C_20
   11  A    between atoms: C_16  and  O_21
                            x       y       z     vdW  Elec       q    Type
                         _______ _______ _______ _____ _____    ______ ____

>  <TORSDO>
F 11

$$$$
=
 OpenBabel11052423053D

 28 30  0  0  1  0  0  0  0  0999 V2000
  162.2550  208.6750  151.3320 C   0  0  0  0  0  2  0  0  0  0  0  0
  162.6940  207.3450  150.7110 C   0  0  0  0  0  2  0  0  0  0  0  0
  161.8770  206.1190  151.1690 C   0  0  1  0  0  3  0  0  0  0  0  0
  162.2280  206.9530  153.6500 C   0  0  0  0  0  2  0  0  0  0  0  0
  161.1840  208.0710  153.8330 C   0  0  1  0  0  3  0  0  0  0  0  0
  161.9080  205.8030  152.6840 C   0  0  1  0  0  3  0  0  0  0  0  0
  160.2090  208.4030  152.6650 C   0  0  1  0  0  3  0  0  0  0  0  0
  160.2390  209.8270  152.2510 C   0  0  2  0  0  3  0  0  0  0  0  0
  160.7930  208.7860  151.3450 N   0  0  1  0  0  0  0  0  0  0  0  0
  160.8210  203.6790  152.5210 O   0  0  0  0  0  1  0  0  0  0  0  0
  160.7690  204.9140  153.1680 C   0  0  0  0  0  2  0  0  0  0  0  0
  160.6980  205.7040  149.3350 C   0  0  0  0  0  1  0  0  0  0  0  0
  160.5760  206.1500  150.6530 O   0  0  0  0  0  0  0  0  0  0  0  0
  160.5210  208.0430  155.2180 C   0  0  1  0  0  3  0  0  0  0  0  0
  160.0450  206.8800  157.0400 C   0  0  0  0  0  1  0  0  0  0  0  0
  160.8480  206.8670  155.9000 O   0  0  0  0  0  0  0  0  0  0  0  0
  160.8300  209.2450  156.0650 C   0  0  0  0  0  0  0  0  0  0  0  0
  162.1170  209.5460  156.2850 C   0  0  0  0  0  3  0  0  0  0  0  0
  162.5550  210.6970  157.1340 C   0  0  0  0  0  2  0  0  0  0  0  0
  163.8670  211.0380  156.8130 O   0  0  0  0  0  1  0  0  0  0  0  0
  159.7120  210.0510  156.6650 C   0  0  0  0  0  2  0  0  0  0  0  0
  158.6670  210.3780  155.6140 C   0  0  0  0  0  2  0  0  0  0  0  0
  157.9350  211.4930  156.0190 O   0  0  0  0  0  1  0  0  0  0  0  0
  161.2950  210.7270  152.9140 C   0  0  0  0  0  2  0  0  0  0  0  0
  160.7120  211.9420  153.2740 O   0  0  0  0  0  0  0  0  0  0  0  0
  159.6210  212.0770  152.4150 C   0  0  0  0  0  3  0  0  0  0  0  0
  159.5980  213.4870  151.8590 C   0  0  0  0  0  2  0  0  0  0  0  0
  158.6640  213.1030  152.9860 C   0  0  0  0  0  2  0  0  0  0  0  0
  1  9  1  0  0  0  0
  2  3  1  0  0  0  0
  2  1  1  0  0  0  0
  3 13  1  1  0  0  0
  3  6  1  0  0  0  0
  4  5  1  0  0  0  0
  5 14  1  1  0  0  0
  6 11  1  1  0  0  0
  6  4  1  0  0  0  0
  7  5  1  0  0  0  0
  8  7  1  0  0  0  0
  8 24  1  0  0  0  0
  9  8  1  0  0  0  0
  9  7  1  0  0  0  0
 10 11  1  0  0  0  0
 12 13  1  0  0  0  0
 14 16  1  0  0  0  0
 14 17  1  0  0  0  0
 16 15  1  0  0  0  0
 17 18  2  0  0  0  0
 17 21  1  0  0  0  0
 18 19  1  0  0  0  0
 20 19  1  0  0  0  0
 22 23  1  0  0  0  0
 22 21  1  0  0  0  0
 24 25  1  0  0  0  0
 26 28  1  0  0  0  0
 26 25  1  0  0  0  0
 27 26  1  0  0  0  0
 27 28  1  0  0  0  0
M  END
>  <MODEL>
3

>  <REMARK>
 VINA RESULT:      -4.9      3.242      8.692
  Name = 
  11 active torsions:
  status: ('A' for Active; 'I' for Inactive)
    1  A    between atoms: C_3  and  O_28
    2  A    between atoms: C_5  and  O_21
    3  A    between atoms: C_9  and  C_13
    4  A    between atoms: C_9  and  C_14
    5  A    between atoms: C_10  and  C_13
    6  A    between atoms: C_11  and  C_22
    7  A    between atoms: C_12  and  C_15
    8  A    between atoms: C_13  and  O_24
    9  A    between atoms: C_14  and  C_18
   10  A    between atoms: C_16  and  C_20
   11  A    between atoms: C_16  and  O_21
                            x       y       z     vdW  Elec       q    Type
                         _______ _______ _______ _____ _____    ______ ____

>  <TORSDO>
F 11

$$$$
=
 OpenBabel11052423053D

 28 30  0  0  1  0  0  0  0  0999 V2000
  162.1630  209.0400  151.5210 C   0  0  0  0  0  2  0  0  0  0  0  0
  162.6710  207.7560  150.8580 C   0  0  0  0  0  2  0  0  0  0  0  0
  161.9090  206.4770  151.2610 C   0  0  1  0  0  3  0  0  0  0  0  0
  162.1920  207.2340  153.7750 C   0  0  0  0  0  2  0  0  0  0  0  0
  161.0940  208.2940  153.9850 C   0  0  1  0  0  3  0  0  0  0  0  0
  161.9380  206.1070  152.7640 C   0  0  1  0  0  3  0  0  0  0  0  0
  160.1170  208.6220  152.8180 C   0  0  1  0  0  3  0  0  0  0  0  0
  160.0840  210.0600  152.4560 C   0  0  2  0  0  3  0  0  0  0  0  0
  160.6970  209.0820  151.5200 N   0  0  1  0  0  0  0  0  0  0  0  0
  160.9840  203.9250  152.5450 O   0  0  0  0  0  1  0  0  0  0  0  0
  160.8380  205.1480  153.2010 C   0  0  0  0  0  2  0  0  0  0  0  0
  160.7560  205.9600  149.4360 C   0  0  0  0  0  1  0  0  0  0  0  0
  160.6130  206.4650  150.7300 O   0  0  0  0  0  0  0  0  0  0  0  0
  160.4190  208.1840  155.3600 C   0  0  1  0  0  3  0  0  0  0  0  0
  160.0250  206.8580  157.0890 C   0  0  0  0  0  1  0  0  0  0  0  0
  160.9700  207.1320  156.0990 O   0  0  0  0  0  0  0  0  0  0  0  0
  160.4480  209.4580  156.1560 C   0  0  0  0  0  0  0  0  0  0  0  0
  159.3690  210.2520  156.1130 C   0  0  0  0  0  3  0  0  0  0  0  0
  159.2850  211.5590  156.8360 C   0  0  0  0  0  2  0  0  0  0  0  0
  157.9500  211.9330  156.9650 O   0  0  0  0  0  1  0  0  0  0  0  0
  161.6740  209.8250  156.9450 C   0  0  0  0  0  2  0  0  0  0  0  0
  162.6670  210.5680  156.0710 C   0  0  0  0  0  2  0  0  0  0  0  0
  163.7550  210.9710  156.8430 O   0  0  0  0  0  1  0  0  0  0  0  0
  161.0880  210.9850  153.1640 C   0  0  0  0  0  2  0  0  0  0  0  0
  160.4460  212.1600  153.5540 O   0  0  0  0  0  0  0  0  0  0  0  0
  159.3040  212.2180  152.7560 C   0  0  0  0  0  3  0  0  0  0  0  0
  158.9950  213.6660  152.4340 C   0  0  0  0  0  2  0  0  0  0  0  0
  158.2100  212.9470  153.5090 C   0  0  0  0  0  2  0  0  0  0  0  0
  2  3  1  0  0  0  0
  2  1  1  0  0  0  0
  3 13  1  1  0  0  0
  3  6  1  0  0  0  0
  4  5  1  0  0  0  0
  5 14  1  1  0  0  0
  6 11  1  1  0  0  0
  6  4  1  0  0  0  0
  7  5  1  0  0  0  0
  8  7  1  0  0  0  0
  8 24  1  0  0  0  0
  9  1  1  0  0  0  0
  9  8  1  0  0  0  0
  9  7  1  0  0  0  0
 10 11  1  0  0  0  0
 12 13  1  0  0  0  0
 14 16  1  0  0  0  0
 14 17  1  0  0  0  0
 16 15  1  0  0  0  0
 17 21  1  0  0  0  0
 18 17  2  0  0  0  0
 18 19  1  0  0  0  0
 19 20  1  0  0  0  0
 22 23  1  0  0  0  0
 22 21  1  0  0  0  0
 24 25  1  0  0  0  0
 26 28  1  0  0  0  0
 26 25  1  0  0  0  0
 27 26  1  0  0  0  0
 27 28  1  0  0  0  0
M  END
>  <MODEL>
4

>  <REMARK>
 VINA RESULT:      -4.8      3.385      8.754
  Name = 
  11 active torsions:
  status: ('A' for Active; 'I' for Inactive)
    1  A    between atoms: C_3  and  O_28
    2  A    between atoms: C_5  and  O_21
    3  A    between atoms: C_9  and  C_13
    4  A    between atoms: C_9  and  C_14
    5  A    between atoms: C_10  and  C_13
    6  A    between atoms: C_11  and  C_22
    7  A    between atoms: C_12  and  C_15
    8  A    between atoms: C_13  and  O_24
    9  A    between atoms: C_14  and  C_18
   10  A    between atoms: C_16  and  C_20
   11  A    between atoms: C_16  and  O_21
                            x       y       z     vdW  Elec       q    Type
                         _______ _______ _______ _____ _____    ______ ____

>  <TORSDO>
F 11

$$$$
=
 OpenBabel11052423053D

 28 30  0  0  1  0  0  0  0  0999 V2000
  162.7010  205.9070  147.0700 C   0  0  0  0  0  2  0  0  0  0  0  0
  162.9750  205.1770  145.7510 C   0  0  0  0  0  2  0  0  0  0  0  0
  161.8920  204.1580  145.3410 C   0  0  1  0  0  3  0  0  0  0  0  0
  162.0310  203.1930  147.7960 C   0  0  0  0  0  2  0  0  0  0  0  0
  161.1920  204.1690  148.6430 C   0  0  1  0  0  3  0  0  0  0  0  0
  161.6480  202.9860  146.3230 C   0  0  1  0  0  3  0  0  0  0  0  0
  160.4710  205.3590  147.9440 C   0  0  1  0  0  3  0  0  0  0  0  0
  160.8170  206.6830  148.5140 C   0  0  2  0  0  3  0  0  0  0  0  0
  161.2970  206.3210  147.1550 N   0  0  1  0  0  0  0  0  0  0  0  0
  160.3330  201.4980  144.9910 O   0  0  0  0  0  1  0  0  0  0  0  0
  160.3110  202.2800  146.1460 C   0  0  0  0  0  2  0  0  0  0  0  0
  161.0250  205.4920  143.7940 C   0  0  0  0  0  1  0  0  0  0  0  0
  160.7050  204.7970  144.9620 O   0  0  0  0  0  0  0  0  0  0  0  0
  160.3460  203.4550  149.7060 C   0  0  1  0  0  3  0  0  0  0  0  0
  158.9420  201.7640  149.4400 C   0  0  0  0  0  1  0  0  0  0  0  0
  160.3010  202.0790  149.4610 O   0  0  0  0  0  0  0  0  0  0  0  0
  160.7860  203.7240  151.1170 C   0  0  0  0  0  0  0  0  0  0  0  0
  160.7700  204.9920  151.5520 C   0  0  0  0  0  3  0  0  0  0  0  0
  161.2120  205.3930  152.9230 C   0  0  0  0  0  2  0  0  0  0  0  0
  160.8420  206.7140  153.1620 O   0  0  0  0  0  1  0  0  0  0  0  0
  161.2590  202.5920  151.9870 C   0  0  0  0  0  2  0  0  0  0  0  0
  162.6680  202.1770  151.6030 C   0  0  0  0  0  2  0  0  0  0  0  0
  163.0620  201.0950  152.3870 O   0  0  0  0  0  1  0  0  0  0  0  0
  161.9140  206.7170  149.5920 C   0  0  0  0  0  2  0  0  0  0  0  0
  162.4760  207.9920  149.6460 O   0  0  0  0  0  0  0  0  0  0  0  0
  161.5790  208.7400  150.4080 C   0  0  0  0  0  3  0  0  0  0  0  0
  161.9660  210.2040  150.3360 C   0  0  0  0  0  2  0  0  0  0  0  0
  162.3250  209.3860  151.5580 C   0  0  0  0  0  2  0  0  0  0  0  0
  1  9  1  0  0  0  0
  2  1  1  0  0  0  0
  3 13  1  1  0  0  0
  3  2  1  0  0  0  0
  3  6  1  0  0  0  0
  4  5  1  0  0  0  0
  5 14  1  6  0  0  0
  6 11  1  1  0  0  0
  6  4  1  0  0  0  0
  7  8  1  0  0  0  0
  7  5  1  0  0  0  0
  8 24  1  0  0  0  0
  9  7  1  0  0  0  0
  9  8  1  0  0  0  0
 10 11  1  0  0  0  0
 12 13  1  0  0  0  0
 14 17  1  0  0  0  0
 15 16  1  0  0  0  0
 16 14  1  0  0  0  0
 17 18  2  0  0  0  0
 17 21  1  0  0  0  0
 18 19  1  0  0  0  0
 19 20  1  0  0  0  0
 22 21  1  0  0  0  0
 22 23  1  0  0  0  0
 24 25  1  0  0  0  0
 25 26  1  0  0  0  0
 26 28  1  0  0  0  0
 27 26  1  0  0  0  0
 27 28  1  0  0  0  0
M  END
>  <MODEL>
5

>  <REMARK>
 VINA RESULT:      -4.7      1.886      7.005
  Name = 
  11 active torsions:
  status: ('A' for Active; 'I' for Inactive)
    1  A    between atoms: C_3  and  O_28
    2  A    between atoms: C_5  and  O_21
    3  A    between atoms: C_9  and  C_13
    4  A    between atoms: C_9  and  C_14
    5  A    between atoms: C_10  and  C_13
    6  A    between atoms: C_11  and  C_22
    7  A    between atoms: C_12  and  C_15
    8  A    between atoms: C_13  and  O_24
    9  A    between atoms: C_14  and  C_18
   10  A    between atoms: C_16  and  C_20
   11  A    between atoms: C_16  and  O_21
                            x       y       z     vdW  Elec       q    Type
                         _______ _______ _______ _____ _____    ______ ____

>  <TORSDO>
F 11

$$$$
=
 OpenBabel11052423053D

 28 30  0  0  1  0  0  0  0  0999 V2000
  160.8370  205.9120  152.5160 C   0  0  0  0  0  2  0  0  0  0  0  0
  160.4350  204.4340  152.5470 C   0  0  0  0  0  2  0  0  0  0  0  0
  160.9420  203.6030  151.3510 C   0  0  1  0  0  3  0  0  0  0  0  0
  160.0160  205.5100  149.7770 C   0  0  0  0  0  2  0  0  0  0  0  0
  161.0920  206.6120  149.8300 C   0  0  1  0  0  3  0  0  0  0  0  0
  160.4550  204.0490  149.9510 C   0  0  1  0  0  3  0  0  0  0  0  0
  162.3850  206.3750  150.6640 C   0  0  1  0  0  3  0  0  0  0  0  0
  162.6400  207.4260  151.6800 C   0  0  2  0  0  3  0  0  0  0  0  0
  162.2410  206.0620  152.1170 N   0  0  1  0  0  0  0  0  0  0  0  0
  160.8450  202.2800  148.3890 O   0  0  0  0  0  1  0  0  0  0  0  0
  161.3000  203.5360  148.7930 C   0  0  0  0  0  2  0  0  0  0  0  0
  162.5090  202.0880  151.7700 C   0  0  0  0  0  1  0  0  0  0  0  0
  162.3300  203.4230  151.4040 O   0  0  0  0  0  0  0  0  0  0  0  0
  161.3350  207.2700  148.4650 C   0  0  1  0  0  3  0  0  0  0  0  0
  161.9360  209.3980  148.5870 C   0  0  0  0  0  1  0  0  0  0  0  0
  162.4560  208.1060  148.5090 O   0  0  0  0  0  0  0  0  0  0  0  0
  161.4530  206.2930  147.3300 C   0  0  0  0  0  0  0  0  0  0  0  0
  162.6700  205.8160  147.0330 C   0  0  0  0  0  3  0  0  0  0  0  0
  162.9250  204.8620  145.9100 C   0  0  0  0  0  2  0  0  0  0  0  0
  164.2070  204.3310  146.0330 O   0  0  0  0  0  1  0  0  0  0  0  0
  160.2330  205.9000  146.5440 C   0  0  0  0  0  2  0  0  0  0  0  0
  160.4390  206.1800  145.0660 C   0  0  0  0  0  2  0  0  0  0  0  0
  160.3230  204.9910  144.3490 O   0  0  0  0  0  1  0  0  0  0  0  0
  161.5550  208.5000  151.8630 C   0  0  0  0  0  2  0  0  0  0  0  0
  161.9780  209.4340  152.8090 O   0  0  0  0  0  0  0  0  0  0  0  0
  160.8400  209.7100  153.5650 C   0  0  0  0  0  3  0  0  0  0  0  0
  161.2030  210.6730  154.6770 C   0  0  0  0  0  2  0  0  0  0  0  0
  161.0440  209.1970  154.9760 C   0  0  0  0  0  2  0  0  0  0  0  0
  1  2  1  0  0  0  0
  3 13  1  6  0  0  0
  3  2  1  0  0  0  0
  4  5  1  0  0  0  0
  4  6  1  0  0  0  0
  5 14  1  6  0  0  0
  5  7  1  0  0  0  0
  6 11  1  6  0  0  0
  6  3  1  0  0  0  0
  7  8  1  0  0  0  0
  7  9  1  0  0  0  0
  8 24  1  0  0  0  0
  8  9  1  0  0  0  0
  9  1  1  0  0  0  0
 10 11  1  0  0  0  0
 13 12  1  0  0  0  0
 14 16  1  0  0  0  0
 16 15  1  0  0  0  0
 17 14  1  0  0  0  0
 18 17  2  0  0  0  0
 19 20  1  0  0  0  0
 19 18  1  0  0  0  0
 21 17  1  0  0  0  0
 22 21  1  0  0  0  0
 23 22  1  0  0  0  0
 24 25  1  0  0  0  0
 25 26  1  0  0  0  0
 26 27  1  0  0  0  0
 26 28  1  0  0  0  0
 27 28  1  0  0  0  0
M  END
>  <MODEL>
6

>  <REMARK>
 VINA RESULT:      -4.7      1.475      5.156
  Name = 
  11 active torsions:
  status: ('A' for Active; 'I' for Inactive)
    1  A    between atoms: C_3  and  O_28
    2  A    between atoms: C_5  and  O_21
    3  A    between atoms: C_9  and  C_13
    4  A    between atoms: C_9  and  C_14
    5  A    between atoms: C_10  and  C_13
    6  A    between atoms: C_11  and  C_22
    7  A    between atoms: C_12  and  C_15
    8  A    between atoms: C_13  and  O_24
    9  A    between atoms: C_14  and  C_18
   10  A    between atoms: C_16  and  C_20
   11  A    between atoms: C_16  and  O_21
                            x       y       z     vdW  Elec       q    Type
                         _______ _______ _______ _____ _____    ______ ____

>  <TORSDO>
F 11

$$$$
=
 OpenBabel11052423053D

 28 30  0  0  1  0  0  0  0  0999 V2000
  162.6850  205.9930  146.7100 C   0  0  0  0  0  2  0  0  0  0  0  0
  162.7160  204.7200  145.8580 C   0  0  0  0  0  2  0  0  0  0  0  0
  161.6060  203.7000  146.1800 C   0  0  1  0  0  3  0  0  0  0  0  0
  162.2520  203.9710  148.7260 C   0  0  0  0  0  2  0  0  0  0  0  0
  161.5670  205.2810  149.1620 C   0  0  1  0  0  3  0  0  0  0  0  0
  161.5950  203.1330  147.6210 C   0  0  1  0  0  3  0  0  0  0  0  0
  160.6860  206.0570  148.1390 C   0  0  1  0  0  3  0  0  0  0  0  0
  161.0980  207.4700  147.9510 C   0  0  2  0  0  3  0  0  0  0  0  0
  161.3120  206.4900  146.8540 N   0  0  1  0  0  0  0  0  0  0  0  0
  160.4990  201.4570  148.9290 O   0  0  0  0  0  1  0  0  0  0  0  0
  160.2700  202.5140  148.0470 C   0  0  0  0  0  2  0  0  0  0  0  0
  160.4310  204.2780  144.3880 C   0  0  0  0  0  1  0  0  0  0  0  0
  160.3490  204.1670  145.7780 O   0  0  0  0  0  0  0  0  0  0  0  0
  160.9660  205.1950  150.5720 C   0  0  1  0  0  3  0  0  0  0  0  0
  160.0370  203.4950  151.6450 C   0  0  0  0  0  1  0  0  0  0  0  0
  161.2600  203.9610  151.1620 O   0  0  0  0  0  0  0  0  0  0  0  0
  161.3770  206.3210  151.4780 C   0  0  0  0  0  0  0  0  0  0  0  0
  160.8920  207.5440  151.2230 C   0  0  0  0  0  3  0  0  0  0  0  0
  161.2470  208.7510  152.0310 C   0  0  0  0  0  2  0  0  0  0  0  0
  160.0830  209.4100  152.4190 O   0  0  0  0  0  1  0  0  0  0  0  0
  162.3320  206.0660  152.6120 C   0  0  0  0  0  2  0  0  0  0  0  0
  161.5730  205.8310  153.9050 C   0  0  0  0  0  2  0  0  0  0  0  0
  161.5290  207.0140  154.6390 O   0  0  0  0  0  1  0  0  0  0  0  0
  162.3830  207.9250  148.6620 C   0  0  0  0  0  2  0  0  0  0  0  0
  162.7030  209.2220  148.2610 O   0  0  0  0  0  0  0  0  0  0  0  0
  161.6010  209.9890  148.6380 C   0  0  0  0  0  3  0  0  0  0  0  0
  161.7320  211.3760  148.0410 C   0  0  0  0  0  2  0  0  0  0  0  0
  162.0720  211.1440  149.4980 C   0  0  0  0  0  2  0  0  0  0  0  0
  1  9  1  0  0  0  0
  2  3  1  0  0  0  0
  2  1  1  0  0  0  0
  3 13  1  1  0  0  0
  3  6  1  0  0  0  0
  4  5  1  0  0  0  0
  5 14  1  1  0  0  0
  6 11  1  1  0  0  0
  6  4  1  0  0  0  0
  7  5  1  0  0  0  0
  8  7  1  0  0  0  0
  8 24  1  0  0  0  0
  9  8  1  0  0  0  0
  9  7  1  0  0  0  0
 11 10  1  0  0  0  0
 12 13  1  0  0  0  0
 14 16  1  0  0  0  0
 14 17  1  0  0  0  0
 16 15  1  0  0  0  0
 17 21  1  0  0  0  0
 18 17  2  0  0  0  0
 18 19  1  0  0  0  0
 19 20  1  0  0  0  0
 21 22  1  0  0  0  0
 22 23  1  0  0  0  0
 25 26  1  0  0  0  0
 25 24  1  0  0  0  0
 26 28  1  0  0  0  0
 27 26  1  0  0  0  0
 27 28  1  0  0  0  0
M  END
>  <MODEL>
7

>  <REMARK>
 VINA RESULT:      -4.6      1.839      7.016
  Name = 
  11 active torsions:
  status: ('A' for Active; 'I' for Inactive)
    1  A    between atoms: C_3  and  O_28
    2  A    between atoms: C_5  and  O_21
    3  A    between atoms: C_9  and  C_13
    4  A    between atoms: C_9  and  C_14
    5  A    between atoms: C_10  and  C_13
    6  A    between atoms: C_11  and  C_22
    7  A    between atoms: C_12  and  C_15
    8  A    between atoms: C_13  and  O_24
    9  A    between atoms: C_14  and  C_18
   10  A    between atoms: C_16  and  C_20
   11  A    between atoms: C_16  and  O_21
                            x       y       z     vdW  Elec       q    Type
                         _______ _______ _______ _____ _____    ______ ____

>  <TORSDO>
F 11

$$$$
=
 OpenBabel11052423053D

 28 30  0  0  1  0  0  0  0  0999 V2000
  160.1720  204.6980  152.3640 C   0  0  0  0  0  2  0  0  0  0  0  0
  159.6970  203.5880  151.4200 C   0  0  0  0  0  2  0  0  0  0  0  0
  160.4960  203.4730  150.1060 C   0  0  1  0  0  3  0  0  0  0  0  0
  160.2020  206.0820  149.8290 C   0  0  0  0  0  2  0  0  0  0  0  0
  161.2710  206.6930  150.7560 C   0  0  1  0  0  3  0  0  0  0  0  0
  160.4840  204.7170  149.1850 C   0  0  1  0  0  3  0  0  0  0  0  0
  162.2340  205.7480  151.5350 C   0  0  1  0  0  3  0  0  0  0  0  0
  162.2260  205.9680  153.0020 C   0  0  2  0  0  3  0  0  0  0  0  0
  161.6370  204.7230  152.4420 N   0  0  1  0  0  0  0  0  0  0  0  0
  161.4010  203.7900  147.1810 O   0  0  0  0  0  1  0  0  0  0  0  0
  161.6110  204.7590  148.1630 C   0  0  0  0  0  2  0  0  0  0  0  0
  161.6220  201.6310  150.6250 C   0  0  0  0  0  1  0  0  0  0  0  0
  161.7900  202.9870  150.3340 O   0  0  0  0  0  0  0  0  0  0  0  0
  161.9540  207.9230  150.1440 C   0  0  1  0  0  3  0  0  0  0  0  0
  162.7400  207.7780  148.0790 C   0  0  0  0  0  1  0  0  0  0  0  0
  161.5870  208.0790  148.8040 O   0  0  0  0  0  0  0  0  0  0  0  0
  161.7140  209.1950  150.9060 C   0  0  0  0  0  0  0  0  0  0  0  0
  160.8210  209.1720  151.9050 C   0  0  0  0  0  3  0  0  0  0  0  0
  160.4710  210.3780  152.7190 C   0  0  0  0  0  2  0  0  0  0  0  0
  161.3450  210.4790  153.7980 O   0  0  0  0  0  1  0  0  0  0  0  0
  162.4400  210.4540  150.5190 C   0  0  0  0  0  2  0  0  0  0  0  0
  161.7170  211.1610  149.3870 C   0  0  0  0  0  2  0  0  0  0  0  0
  162.6430  211.8390  148.5970 O   0  0  0  0  0  1  0  0  0  0  0  0
  161.1990  206.9700  153.5550 C   0  0  0  0  0  2  0  0  0  0  0  0
  161.3970  207.1320  154.9260 O   0  0  0  0  0  0  0  0  0  0  0  0
  160.1170  207.3190  155.4470 C   0  0  0  0  0  3  0  0  0  0  0  0
  160.1510  208.4490  156.4550 C   0  0  0  0  0  2  0  0  0  0  0  0
  160.1360  207.0120  156.9300 C   0  0  0  0  0  2  0  0  0  0  0  0
  1  9  1  0  0  0  0
  2  1  1  0  0  0  0
  3 13  1  1  0  0  0
  3  2  1  0  0  0  0
  4  5  1  0  0  0  0
  5 14  1  6  0  0  0
  5  7  1  0  0  0  0
  6 11  1  1  0  0  0
  6  4  1  0  0  0  0
  6  3  1  0  0  0  0
  7  9  1  0  0  0  0
  7  8  1  0  0  0  0
  8 24  1  0  0  0  0
  9  8  1  0  0  0  0
 10 11  1  0  0  0  0
 13 12  1  0  0  0  0
 14 17  1  0  0  0  0
 15 16  1  0  0  0  0
 16 14  1  0  0  0  0
 17 18  2  0  0  0  0
 18 19  1  0  0  0  0
 19 20  1  0  0  0  0
 21 17  1  0  0  0  0
 22 21  1  0  0  0  0
 23 22  1  0  0  0  0
 24 25  1  0  0  0  0
 25 26  1  0  0  0  0
 26 27  1  0  0  0  0
 26 28  1  0  0  0  0
 27 28  1  0  0  0  0
M  END
>  <MODEL>
8

>  <REMARK>
 VINA RESULT:      -4.4      1.956      6.256
  Name = 
  11 active torsions:
  status: ('A' for Active; 'I' for Inactive)
    1  A    between atoms: C_3  and  O_28
    2  A    between atoms: C_5  and  O_21
    3  A    between atoms: C_9  and  C_13
    4  A    between atoms: C_9  and  C_14
    5  A    between atoms: C_10  and  C_13
    6  A    between atoms: C_11  and  C_22
    7  A    between atoms: C_12  and  C_15
    8  A    between atoms: C_13  and  O_24
    9  A    between atoms: C_14  and  C_18
   10  A    between atoms: C_16  and  C_20
   11  A    between atoms: C_16  and  O_21
                            x       y       z     vdW  Elec       q    Type
                         _______ _______ _______ _____ _____    ______ ____

>  <TORSDO>
F 11

$$$$
=
 OpenBabel11052423053D

 28 30  0  0  1  0  0  0  0  0999 V2000
  157.1450  212.7900  153.5030 C   0  0  0  0  0  2  0  0  0  0  0  0
  156.3390  212.5400  154.7820 C   0  0  0  0  0  2  0  0  0  0  0  0
  157.1910  212.2940  156.0430 C   0  0  1  0  0  3  0  0  0  0  0  0
  158.5810  210.5510  154.6280 C   0  0  0  0  0  2  0  0  0  0  0  0
  159.5510  211.4130  153.7970 C   0  0  1  0  0  3  0  0  0  0  0  0
  158.1350  211.0680  156.0030 C   0  0  1  0  0  3  0  0  0  0  0  0
  159.5490  212.9590  153.9860 C   0  0  1  0  0  3  0  0  0  0  0  0
  159.3320  213.7120  152.7260 C   0  0  2  0  0  3  0  0  0  0  0  0
  158.2690  213.6960  153.7640 N   0  0  1  0  0  0  0  0  0  0  0  0
  159.7390  209.8150  157.2590 O   0  0  0  0  0  1  0  0  0  0  0  0
  159.2660  211.1070  157.0230 C   0  0  0  0  0  2  0  0  0  0  0  0
  156.8620  214.2190  157.0970 C   0  0  0  0  0  1  0  0  0  0  0  0
  157.8440  213.4620  156.4560 O   0  0  0  0  0  0  0  0  0  0  0  0
  160.9510  210.7940  153.6890 C   0  0  1  0  0  3  0  0  0  0  0  0
  162.5670  210.6310  155.1940 C   0  0  0  0  0  1  0  0  0  0  0  0
  161.2990  210.1430  154.8770 O   0  0  0  0  0  0  0  0  0  0  0  0
  161.1190  209.8700  152.5160 C   0  0  0  0  0  0  0  0  0  0  0  0
  161.8400  210.3010  151.4720 C   0  0  0  0  0  3  0  0  0  0  0  0
  162.0560  209.4890  150.2340 C   0  0  0  0  0  2  0  0  0  0  0  0
  162.1510  210.3380  149.1340 O   0  0  0  0  0  1  0  0  0  0  0  0
  160.4600  208.5180  152.5220 C   0  0  0  0  0  2  0  0  0  0  0  0
  161.3770  207.4810  153.1460 C   0  0  0  0  0  2  0  0  0  0  0  0
  160.7320  206.8810  154.2250 O   0  0  0  0  0  1  0  0  0  0  0  0
  159.0100  212.8910  151.4660 C   0  0  0  0  0  2  0  0  0  0  0  0
  158.5470  213.7420  150.4620 O   0  0  0  0  0  0  0  0  0  0  0  0
  157.5090  213.0360  149.8530 C   0  0  0  0  0  3  0  0  0  0  0  0
  157.3790  213.4870  148.4130 C   0  0  0  0  0  2  0  0  0  0  0  0
  156.4150  214.0060  149.4580 C   0  0  0  0  0  2  0  0  0  0  0  0
  1  9  1  0  0  0  0
  1  2  1  0  0  0  0
  2  3  1  0  0  0  0
  3 13  1  6  0  0  0
  4  6  1  0  0  0  0
  5 14  1  1  0  0  0
  5  7  1  0  0  0  0
  5  4  1  0  0  0  0
  6  3  1  0  0  0  0
  6 11  1  1  0  0  0
  8  9  1  0  0  0  0
  8  7  1  0  0  0  0
  9  7  1  0  0  0  0
 11 10  1  0  0  0  0
 13 12  1  0  0  0  0
 14 16  1  0  0  0  0
 16 15  1  0  0  0  0
 17 21  1  0  0  0  0
 17 14  1  0  0  0  0
 18 17  2  0  0  0  0
 19 18  1  0  0  0  0
 20 19  1  0  0  0  0
 21 22  1  0  0  0  0
 22 23  1  0  0  0  0
 24  8  1  0  0  0  0
 25 24  1  0  0  0  0
 26 25  1  0  0  0  0
 27 28  1  0  0  0  0
 27 26  1  0  0  0  0
 28 26  1  0  0  0  0
M  END
>  <MODEL>
9

>  <REMARK>
 VINA RESULT:      -4.4      5.071      8.650
  Name = 
  11 active torsions:
  status: ('A' for Active; 'I' for Inactive)
    1  A    between atoms: C_3  and  O_28
    2  A    between atoms: C_5  and  O_21
    3  A    between atoms: C_9  and  C_13
    4  A    between atoms: C_9  and  C_14
    5  A    between atoms: C_10  and  C_13
    6  A    between atoms: C_11  and  C_22
    7  A    between atoms: C_12  and  C_15
    8  A    between atoms: C_13  and  O_24
    9  A    between atoms: C_14  and  C_18
   10  A    between atoms: C_16  and  C_20
   11  A    between atoms: C_16  and  O_21
                            x       y       z     vdW  Elec       q    Type
                         _______ _______ _______ _____ _____    ______ ____

>  <TORSDO>
F 11

$$$$
