=
 OpenBabel11052423013D

 28 32  0  0  1  0  0  0  0  0999 V2000
  161.2340  206.0210  149.1750 C   0  0  1  0  0  3  0  0  0  0  0  0
  160.6150  210.5510  151.7620 C   0  0  0  0  0  3  0  0  0  0  0  0
  161.4240  204.8150  153.9540 O   0  0  0  0  0  1  0  0  0  0  0  0
  160.3690  209.7840  154.0520 C   0  0  0  0  0  0  0  0  0  0  0  0
  161.3550  208.1970  152.3520 C   0  0  2  0  0  3  0  0  0  0  0  0
  159.6830  212.0240  153.4420 C   0  0  0  0  0  0  0  0  0  0  0  0
  160.7370  209.5280  152.7150 C   0  0  0  0  0  0  0  0  0  0  0  0
  161.2600  207.5980  154.7720 C   0  0  0  0  0  2  0  0  0  0  0  0
  159.8300  211.0240  154.4050 C   0  0  0  0  0  3  0  0  0  0  0  0
  161.5120  205.3490  151.6100 C   0  0  1  0  0  3  0  0  0  0  0  0
  160.9570  207.7390  150.9530 C   0  0  0  0  0  2  0  0  0  0  0  0
  160.5270  208.7950  155.0300 O   0  0  0  0  0  0  0  0  0  0  0  0
  160.1310  203.9690  150.2000 C   0  0  0  0  0  2  0  0  0  0  0  0
  161.7540  205.8280  153.0490 C   0  0  1  0  0  3  0  0  0  0  0  0
  160.1850  204.7570  151.4430 N   0  0  0  0  0  2  0  0  0  0  0  0
  159.1630  213.2260  153.7890 F   0  0  0  0  0  0  0  0  0  0  0  0
  160.0830  211.7920  152.1230 C   0  0  0  0  0  3  0  0  0  0  0  0
  160.9690  207.1040  153.3580 C   0  0  2  0  0  3  0  0  0  0  0  0
  161.0340  204.5070  149.0730 C   0  0  0  0  0  2  0  0  0  0  0  0
  161.7150  206.4690  150.5670 C   0  0  2  0  0  3  0  0  0  0  0  0
  162.1110  206.5420  148.0270 C   0  0  1  0  0  3  0  0  0  0  0  0
  162.8570  205.4570  147.3940 N   0  0  0  0  0  2  0  0  0  0  0  0
  161.3720  205.4990  145.4130 N   0  0  0  0  0  0  0  0  0  0  0  0
  161.3590  207.3910  146.9900 C   0  0  0  0  0  2  0  0  0  0  0  0
  163.0850  203.9210  145.6630 O   0  0  0  0  0  0  0  0  0  0  0  0
  162.4580  204.9050  146.1380 C   0  0  0  0  0  0  0  0  0  0  0  0
  160.9990  205.0080  144.0970 C   0  0  0  0  0  1  0  0  0  0  0  0
  160.5380  206.5180  146.0400 C   0  0  0  0  0  2  0  0  0  0  0  0
  1 19  1  1  0  0  0
  1 20  1  0  0  0  0
  2 17  2  0  0  0  0
  2  7  1  0  0  0  0
  4  9  1  0  0  0  0
  4 12  1  0  0  0  0
  5 11  1  6  0  0  0
  5  7  1  0  0  0  0
  5 18  1  0  0  0  0
  6 16  1  0  0  0  0
  6  9  2  0  0  0  0
  7  4  2  0  0  0  0
  8 12  1  0  0  0  0
 10 15  1  1  0  0  0
 10 14  1  0  0  0  0
 13 15  1  0  0  0  0
 14 18  1  0  0  0  0
 14  3  1  1  0  0  0
 17  6  1  0  0  0  0
 18  8  1  1  0  0  0
 19 13  1  0  0  0  0
 20 11  1  1  0  0  0
 20 10  1  0  0  0  0
 21 24  1  6  0  0  0
 21  1  1  0  0  0  0
 22 21  1  0  0  0  0
 23 28  1  0  0  0  0
 23 26  1  0  0  0  0
 25 26  2  0  0  0  0
 26 22  1  0  0  0  0
 27 23  1  0  0  0  0
 28 24  1  0  0  0  0
M  END
>  <MODEL>
1

>  <REMARK>
 VINA RESULT:      -7.4      0.000      0.000
  Name = 
  1 active torsions:
  status: ('A' for Active; 'I' for Inactive)
    1  A    between atoms: C_1  and  C_2
                            x       y       z     vdW  Elec       q    Type
                         _______ _______ _______ _____ _____    ______ ____

>  <TORSDO>
F 1

$$$$
=
 OpenBabel11052423013D

 28 32  0  0  1  0  0  0  0  0999 V2000
  161.2260  204.0630  148.7100 C   0  0  1  0  0  3  0  0  0  0  0  0
  162.0740  209.2460  148.7240 C   0  0  0  0  0  3  0  0  0  0  0  0
  161.4040  205.3300  153.4740 O   0  0  0  0  0  1  0  0  0  0  0  0
  161.7840  209.7900  151.0720 C   0  0  0  0  0  0  0  0  0  0  0  0
  162.1690  207.3760  150.4350 C   0  0  2  0  0  3  0  0  0  0  0  0
  161.7090  211.5420  149.4020 C   0  0  0  0  0  0  0  0  0  0  0  0
  161.9720  208.8270  150.0590 C   0  0  0  0  0  0  0  0  0  0  0  0
  162.0780  208.0800  152.8270 C   0  0  0  0  0  2  0  0  0  0  0  0
  161.6370  211.1390  150.7380 C   0  0  0  0  0  3  0  0  0  0  0  0
  161.4740  204.6100  151.1790 C   0  0  1  0  0  3  0  0  0  0  0  0
  161.5630  206.4270  149.4070 C   0  0  0  0  0  2  0  0  0  0  0  0
  161.7270  209.4000  152.4160 O   0  0  0  0  0  0  0  0  0  0  0  0
  159.6700  203.1630  150.5110 C   0  0  0  0  0  2  0  0  0  0  0  0
  161.9390  205.6390  152.2210 C   0  0  1  0  0  3  0  0  0  0  0  0
  160.0270  204.4050  151.2170 N   0  0  0  0  0  2  0  0  0  0  0  0
  161.5690  212.8510  149.0830 F   0  0  0  0  0  0  0  0  0  0  0  0
  161.9360  210.5980  148.3970 C   0  0  0  0  0  3  0  0  0  0  0  0
  161.5640  207.0640  151.8110 C   0  0  2  0  0  3  0  0  0  0  0  0
  160.6060  202.8130  149.3380 C   0  0  0  0  0  2  0  0  0  0  0  0
  161.9090  204.9770  149.7450 C   0  0  2  0  0  3  0  0  0  0  0  0
  162.1320  203.6950  147.5260 C   0  0  1  0  0  3  0  0  0  0  0  0
  161.3850  202.9950  146.4830 N   0  0  0  0  0  2  0  0  0  0  0  0
  161.3970  205.0010  145.0310 N   0  0  0  0  0  0  0  0  0  0  0  0
  162.9340  204.8740  146.9520 C   0  0  0  0  0  2  0  0  0  0  0  0
  160.2670  203.0340  144.4440 O   0  0  0  0  0  0  0  0  0  0  0  0
  160.9730  203.6540  145.2840 C   0  0  0  0  0  0  0  0  0  0  0  0
  161.0600  205.6650  143.7830 C   0  0  0  0  0  1  0  0  0  0  0  0
  162.0610  205.7730  146.0760 C   0  0  0  0  0  2  0  0  0  0  0  0
  1 19  1  1  0  0  0
  1 20  1  0  0  0  0
  2  7  1  0  0  0  0
  4 12  1  0  0  0  0
  5 11  1  6  0  0  0
  5 18  1  0  0  0  0
  6  9  2  0  0  0  0
  7  5  1  0  0  0  0
  7  4  2  0  0  0  0
  9  4  1  0  0  0  0
 10 15  1  6  0  0  0
 10 14  1  0  0  0  0
 12  8  1  0  0  0  0
 13 15  1  0  0  0  0
 14  3  1  1  0  0  0
 16  6  1  0  0  0  0
 17  2  2  0  0  0  0
 17  6  1  0  0  0  0
 18 14  1  0  0  0  0
 18  8  1  1  0  0  0
 19 13  1  0  0  0  0
 20 11  1  6  0  0  0
 20 10  1  0  0  0  0
 21 24  1  6  0  0  0
 21  1  1  0  0  0  0
 22 21  1  0  0  0  0
 23 26  1  0  0  0  0
 23 28  1  0  0  0  0
 25 26  2  0  0  0  0
 26 22  1  0  0  0  0
 27 23  1  0  0  0  0
 28 24  1  0  0  0  0
M  END
>  <MODEL>
2

>  <REMARK>
 VINA RESULT:      -7.4      2.125      2.678
  Name = 
  1 active torsions:
  status: ('A' for Active; 'I' for Inactive)
    1  A    between atoms: C_1  and  C_2
                            x       y       z     vdW  Elec       q    Type
                         _______ _______ _______ _____ _____    ______ ____

>  <TORSDO>
F 1

$$$$
=
 OpenBabel11052423013D

 28 32  0  0  1  0  0  0  0  0999 V2000
  159.0950  210.6830  155.1710 C   0  0  1  0  0  3  0  0  0  0  0  0
  161.1190  206.2080  153.3080 C   0  0  0  0  0  3  0  0  0  0  0  0
  160.8440  211.8190  150.7010 O   0  0  0  0  0  1  0  0  0  0  0  0
  161.6090  206.8070  151.0070 C   0  0  0  0  0  0  0  0  0  0  0  0
  161.2240  208.6620  152.6760 C   0  0  2  0  0  3  0  0  0  0  0  0
  161.5040  204.4770  151.6600 C   0  0  0  0  0  0  0  0  0  0  0  0
  161.2840  207.1940  152.3230 C   0  0  0  0  0  0  0  0  0  0  0  0
  161.9510  209.1580  150.3410 C   0  0  0  0  0  2  0  0  0  0  0  0
  161.7020  205.4510  150.6780 C   0  0  0  0  0  3  0  0  0  0  0  0
  160.1210  211.3820  152.9540 C   0  0  1  0  0  3  0  0  0  0  0  0
  160.1570  208.9610  153.7230 C   0  0  0  0  0  2  0  0  0  0  0  0
  161.8250  207.7740  150.0190 O   0  0  0  0  0  0  0  0  0  0  0  0
  157.9140  212.1820  153.4870 C   0  0  0  0  0  2  0  0  0  0  0  0
  161.0790  211.0060  151.8130 C   0  0  1  0  0  3  0  0  0  0  0  0
  158.7320  211.4520  152.5040 N   0  0  0  0  0  2  0  0  0  0  0  0
  161.5980  203.1650  151.3380 F   0  0  0  0  0  0  0  0  0  0  0  0
  161.2220  204.8550  152.9750 C   0  0  0  0  0  3  0  0  0  0  0  0
  160.9570  209.5290  151.4370 C   0  0  2  0  0  3  0  0  0  0  0  0
  158.3880  212.0220  154.9450 C   0  0  0  0  0  2  0  0  0  0  0  0
  160.2270  210.4250  154.1600 C   0  0  2  0  0  3  0  0  0  0  0  0
  159.5340  210.5300  156.6350 C   0  0  1  0  0  3  0  0  0  0  0  0
  160.3970  209.3650  156.8120 N   0  0  0  0  0  2  0  0  0  0  0  0
  162.4030  210.8000  157.0390 N   0  0  0  0  0  0  0  0  0  0  0  0
  160.1590  211.7960  157.2440 C   0  0  0  0  0  2  0  0  0  0  0  0
  162.5290  208.4610  157.0260 O   0  0  0  0  0  0  0  0  0  0  0  0
  161.8140  209.4950  156.9500 C   0  0  0  0  0  0  0  0  0  0  0  0
  163.8300  210.9580  157.2610 C   0  0  0  0  0  1  0  0  0  0  0  0
  161.6010  211.9900  156.7740 C   0  0  0  0  0  2  0  0  0  0  0  0
  1 19  1  1  0  0  0
  1 21  1  0  0  0  0
  4  7  1  0  0  0  0
  5 11  1  1  0  0  0
  6 17  2  0  0  0  0
  7  5  1  0  0  0  0
  7  2  2  0  0  0  0
  9  4  2  0  0  0  0
  9  6  1  0  0  0  0
 10 15  1  6  0  0  0
 10 20  1  0  0  0  0
 12  8  1  0  0  0  0
 12  4  1  0  0  0  0
 13 19  1  0  0  0  0
 14  3  1  6  0  0  0
 14 10  1  0  0  0  0
 15 13  1  0  0  0  0
 16  6  1  0  0  0  0
 17  2  1  0  0  0  0
 18  8  1  6  0  0  0
 18 14  1  0  0  0  0
 18  5  1  0  0  0  0
 20 11  1  6  0  0  0
 20  1  1  0  0  0  0
 21 22  1  0  0  0  0
 21 24  1  6  0  0  0
 22 26  1  0  0  0  0
 23 27  1  0  0  0  0
 26 25  2  0  0  0  0
 26 23  1  0  0  0  0
 28 23  1  0  0  0  0
 28 24  1  0  0  0  0
M  END
>  <MODEL>
3

>  <REMARK>
 VINA RESULT:      -7.1      4.377      8.435
  Name = 
  1 active torsions:
  status: ('A' for Active; 'I' for Inactive)
    1  A    between atoms: C_1  and  C_2
                            x       y       z     vdW  Elec       q    Type
                         _______ _______ _______ _____ _____    ______ ____

>  <TORSDO>
F 1

$$$$
=
 OpenBabel11052423013D

 28 32  0  0  1  0  0  0  0  0999 V2000
  160.6670  211.4390  155.2570 C   0  0  1  0  0  3  0  0  0  0  0  0
  161.3910  209.0360  150.6420 C   0  0  0  0  0  3  0  0  0  0  0  0
  160.8310  206.6250  156.3190 O   0  0  0  0  0  1  0  0  0  0  0  0
  161.8090  206.7480  151.3350 C   0  0  0  0  0  0  0  0  0  0  0  0
  160.7330  208.3270  152.9870 C   0  0  2  0  0  3  0  0  0  0  0  0
  162.4140  207.4700  149.1050 C   0  0  0  0  0  0  0  0  0  0  0  0
  161.3530  208.0470  151.6370 C   0  0  0  0  0  0  0  0  0  0  0  0
  161.0060  205.9020  153.5110 C   0  0  0  0  0  2  0  0  0  0  0  0
  162.3510  206.4690  150.0770 C   0  0  0  0  0  3  0  0  0  0  0  0
  160.5710  208.9720  155.8590 C   0  0  1  0  0  3  0  0  0  0  0  0
  161.0390  209.7360  153.4820 C   0  0  0  0  0  2  0  0  0  0  0  0
  161.7360  205.7320  152.2960 O   0  0  0  0  0  0  0  0  0  0  0  0
  161.8720  210.4340  157.2600 C   0  0  0  0  0  2  0  0  0  0  0  0
  160.4220  207.5330  155.3390 C   0  0  1  0  0  3  0  0  0  0  0  0
  161.8920  209.2140  156.4360 N   0  0  0  0  0  2  0  0  0  0  0  0
  162.9370  207.1960  147.8860 F   0  0  0  0  0  0  0  0  0  0  0  0
  161.9260  208.7500  149.3830 C   0  0  0  0  0  3  0  0  0  0  0  0
  161.2060  207.3180  154.0430 C   0  0  2  0  0  3  0  0  0  0  0  0
  160.8840  211.5100  156.7700 C   0  0  0  0  0  2  0  0  0  0  0  0
  160.2770  210.0300  154.7740 C   0  0  2  0  0  3  0  0  0  0  0  0
  159.7040  212.5370  154.7840 C   0  0  1  0  0  3  0  0  0  0  0  0
  158.4530  211.9690  154.2870 N   0  0  0  0  0  2  0  0  0  0  0  0
  157.2380  212.6850  156.3230 N   0  0  0  0  0  0  0  0  0  0  0  0
  159.4500  213.6460  155.8180 C   0  0  0  0  0  2  0  0  0  0  0  0
  156.2190  211.4230  154.6340 O   0  0  0  0  0  0  0  0  0  0  0  0
  157.2570  211.9890  155.0690 C   0  0  0  0  0  0  0  0  0  0  0  0
  156.0140  212.7900  157.0990 C   0  0  0  0  0  1  0  0  0  0  0  0
  158.4790  213.1860  156.9060 C   0  0  0  0  0  2  0  0  0  0  0  0
  1 19  1  1  0  0  0
  2  7  1  0  0  0  0
  4  7  2  0  0  0  0
  4 12  1  0  0  0  0
  5 11  1  1  0  0  0
  5 18  1  0  0  0  0
  6 17  1  0  0  0  0
  6  9  2  0  0  0  0
  7  5  1  0  0  0  0
  9  4  1  0  0  0  0
 10 15  1  6  0  0  0
 12  8  1  0  0  0  0
 14 10  1  0  0  0  0
 14  3  1  1  0  0  0
 15 13  1  0  0  0  0
 16  6  1  0  0  0  0
 17  2  2  0  0  0  0
 18  8  1  6  0  0  0
 18 14  1  0  0  0  0
 19 13  1  0  0  0  0
 20 11  1  6  0  0  0
 20  1  1  0  0  0  0
 20 10  1  0  0  0  0
 21  1  1  0  0  0  0
 21 24  1  1  0  0  0
 22 21  1  0  0  0  0
 22 26  1  0  0  0  0
 23 28  1  0  0  0  0
 23 27  1  0  0  0  0
 24 28  1  0  0  0  0
 25 26  2  0  0  0  0
 26 23  1  0  0  0  0
M  END
>  <MODEL>
4

>  <REMARK>
 VINA RESULT:      -6.9      4.350      8.298
  Name = 
  1 active torsions:
  status: ('A' for Active; 'I' for Inactive)
    1  A    between atoms: C_1  and  C_2
                            x       y       z     vdW  Elec       q    Type
                         _______ _______ _______ _____ _____    ______ ____

>  <TORSDO>
F 1

$$$$
=
 OpenBabel11052423013D

 28 32  0  0  1  0  0  0  0  0999 V2000
  161.6290  207.1340  151.8170 C   0  0  1  0  0  3  0  0  0  0  0  0
  160.9690  206.1940  146.6920 C   0  0  0  0  0  3  0  0  0  0  0  0
  161.2060  202.2340  151.4470 O   0  0  0  0  0  1  0  0  0  0  0  0
  161.1350  203.7730  146.6070 C   0  0  0  0  0  0  0  0  0  0  0  0
  160.7030  204.8710  148.8390 C   0  0  2  0  0  3  0  0  0  0  0  0
  161.3760  205.0780  144.5810 C   0  0  0  0  0  0  0  0  0  0  0  0
  160.9740  204.9570  147.3550 C   0  0  0  0  0  0  0  0  0  0  0  0
  160.6720  202.3880  148.5960 C   0  0  0  0  0  2  0  0  0  0  0  0
  161.3500  203.8400  145.2270 C   0  0  0  0  0  3  0  0  0  0  0  0
  161.2500  204.6230  151.7260 C   0  0  1  0  0  3  0  0  0  0  0  0
  161.3360  206.0260  149.6090 C   0  0  0  0  0  2  0  0  0  0  0  0
  161.0950  202.5260  147.2400 O   0  0  0  0  0  0  0  0  0  0  0  0
  163.0380  205.4530  153.1070 C   0  0  0  0  0  2  0  0  0  0  0  0
  160.7600  203.4330  150.8860 C   0  0  1  0  0  3  0  0  0  0  0  0
  162.6840  204.5470  152.0020 N   0  0  0  0  0  2  0  0  0  0  0  0
  161.5810  205.1390  143.2440 F   0  0  0  0  0  0  0  0  0  0  0  0
  161.1760  206.2530  145.3100 C   0  0  0  0  0  3  0  0  0  0  0  0
  161.2100  203.5480  149.4290 C   0  0  2  0  0  3  0  0  0  0  0  0
  162.1640  206.7190  153.1900 C   0  0  0  0  0  2  0  0  0  0  0  0
  160.9180  205.9850  151.0800 C   0  0  2  0  0  3  0  0  0  0  0  0
  160.7850  208.4130  151.9160 C   0  0  1  0  0  3  0  0  0  0  0  0
  160.0370  208.4610  153.1700 N   0  0  0  0  0  2  0  0  0  0  0  0
  161.5660  210.1750  154.0960 N   0  0  0  0  0  0  0  0  0  0  0  0
  161.5720  209.7120  151.6770 C   0  0  0  0  0  2  0  0  0  0  0  0
  159.8260  209.2370  155.3520 O   0  0  0  0  0  0  0  0  0  0  0  0
  160.4560  209.2820  154.2630 C   0  0  0  0  0  0  0  0  0  0  0  0
  161.9610  211.0780  155.1640 C   0  0  0  0  0  1  0  0  0  0  0  0
  162.4010  210.0980  152.9020 C   0  0  0  0  0  2  0  0  0  0  0  0
  1 21  1  0  0  0  0
  1 19  1  1  0  0  0
  2  7  1  0  0  0  0
  4 12  1  0  0  0  0
  4  7  2  0  0  0  0
  5 18  1  0  0  0  0
  5 11  1  1  0  0  0
  6  9  2  0  0  0  0
  6 17  1  0  0  0  0
  7  5  1  0  0  0  0
  9  4  1  0  0  0  0
 10 15  1  6  0  0  0
 12  8  1  0  0  0  0
 13 19  1  0  0  0  0
 14  3  1  1  0  0  0
 14 10  1  0  0  0  0
 15 13  1  0  0  0  0
 16  6  1  0  0  0  0
 17  2  2  0  0  0  0
 18  8  1  6  0  0  0
 18 14  1  0  0  0  0
 20 11  1  6  0  0  0
 20 10  1  0  0  0  0
 20  1  1  0  0  0  0
 21 24  1  1  0  0  0
 21 22  1  0  0  0  0
 22 26  1  0  0  0  0
 23 26  1  0  0  0  0
 23 27  1  0  0  0  0
 24 28  1  0  0  0  0
 26 25  2  0  0  0  0
 28 23  1  0  0  0  0
M  END
>  <MODEL>
5

>  <REMARK>
 VINA RESULT:      -6.9      3.396      7.705
  Name = 
  1 active torsions:
  status: ('A' for Active; 'I' for Inactive)
    1  A    between atoms: C_1  and  C_2
                            x       y       z     vdW  Elec       q    Type
                         _______ _______ _______ _____ _____    ______ ____

>  <TORSDO>
F 1

$$$$
=
 OpenBabel11052423013D

 28 32  0  0  1  0  0  0  0  0999 V2000
  161.5100  203.6960  148.0470 C   0  0  1  0  0  3  0  0  0  0  0  0
  160.7660  205.6120  152.8810 C   0  0  0  0  0  3  0  0  0  0  0  0
  161.9930  208.5840  147.5880 O   0  0  0  0  0  1  0  0  0  0  0  0
  161.3770  207.9430  152.5890 C   0  0  0  0  0  0  0  0  0  0  0  0
  160.8670  206.5680  150.5330 C   0  0  2  0  0  3  0  0  0  0  0  0
  161.2600  206.9870  154.8110 C   0  0  0  0  0  0  0  0  0  0  0  0
  161.0370  206.6940  152.0290 C   0  0  0  0  0  0  0  0  0  0  0  0
  161.2880  209.0220  150.3710 C   0  0  0  0  0  2  0  0  0  0  0  0
  161.5020  208.0800  153.9750 C   0  0  0  0  0  3  0  0  0  0  0  0
  161.6040  206.2120  147.7010 C   0  0  1  0  0  3  0  0  0  0  0  0
  161.3120  205.2050  150.0150 C   0  0  0  0  0  2  0  0  0  0  0  0
  161.6050  209.0490  151.7620 O   0  0  0  0  0  0  0  0  0  0  0  0
  163.2760  204.8540  146.6270 C   0  0  0  0  0  2  0  0  0  0  0  0
  161.3010  207.5970  148.2950 C   0  0  1  0  0  3  0  0  0  0  0  0
  163.0390  205.9860  147.5380 N   0  0  0  0  0  2  0  0  0  0  0  0
  161.3800  207.1240  156.1530 F   0  0  0  0  0  0  0  0  0  0  0  0
  160.8840  205.7570  154.2660 C   0  0  0  0  0  3  0  0  0  0  0  0
  161.6440  207.6590  149.7840 C   0  0  2  0  0  3  0  0  0  0  0  0
  162.1860  203.7660  146.6750 C   0  0  0  0  0  2  0  0  0  0  0  0
  160.9880  205.0630  148.5270 C   0  0  2  0  0  3  0  0  0  0  0  0
  160.4480  202.5880  148.0840 C   0  0  1  0  0  3  0  0  0  0  0  0
  159.9530  202.2810  146.7440 N   0  0  0  0  0  2  0  0  0  0  0  0
  161.2290  200.1590  146.6840 N   0  0  0  0  0  0  0  0  0  0  0  0
  160.8830  201.3170  148.8310 C   0  0  0  0  0  2  0  0  0  0  0  0
  159.9900  200.9300  144.8510 O   0  0  0  0  0  0  0  0  0  0  0  0
  160.3840  201.1180  146.0330 C   0  0  0  0  0  0  0  0  0  0  0  0
  161.6150  198.9300  146.0120 C   0  0  0  0  0  1  0  0  0  0  0  0
  161.8250  200.4630  147.9810 C   0  0  0  0  0  2  0  0  0  0  0  0
  1 19  1  6  0  0  0
  1 21  1  0  0  0  0
  1 20  1  0  0  0  0
  2 17  1  0  0  0  0
  4  9  2  0  0  0  0
  5 11  1  6  0  0  0
  5  7  1  0  0  0  0
  6 16  1  0  0  0  0
  7  4  1  0  0  0  0
  7  2  2  0  0  0  0
  8 12  1  0  0  0  0
  9  6  1  0  0  0  0
 10 15  1  1  0  0  0
 10 14  1  0  0  0  0
 10 20  1  0  0  0  0
 12  4  1  0  0  0  0
 13 19  1  0  0  0  0
 13 15  1  0  0  0  0
 14  3  1  6  0  0  0
 14 18  1  0  0  0  0
 17  6  2  0  0  0  0
 18  8  1  1  0  0  0
 18  5  1  0  0  0  0
 20 11  1  1  0  0  0
 21 24  1  6  0  0  0
 22 21  1  0  0  0  0
 23 28  1  0  0  0  0
 25 26  2  0  0  0  0
 26 23  1  0  0  0  0
 26 22  1  0  0  0  0
 27 23  1  0  0  0  0
 28 24  1  0  0  0  0
M  END
>  <MODEL>
6

>  <REMARK>
 VINA RESULT:      -6.7      3.035      4.733
  Name = 
  1 active torsions:
  status: ('A' for Active; 'I' for Inactive)
    1  A    between atoms: C_1  and  C_2
                            x       y       z     vdW  Elec       q    Type
                         _______ _______ _______ _____ _____    ______ ____

>  <TORSDO>
F 1

$$$$
=
 OpenBabel11052423013D

 28 32  0  0  1  0  0  0  0  0999 V2000
  160.4060  210.7690  153.0320 C   0  0  1  0  0  3  0  0  0  0  0  0
  160.8890  205.7770  151.4690 C   0  0  0  0  0  3  0  0  0  0  0  0
  162.5020  211.0090  148.5730 O   0  0  0  0  0  1  0  0  0  0  0  0
  161.5850  206.0470  149.1590 C   0  0  0  0  0  0  0  0  0  0  0  0
  161.8000  208.0220  150.7180 C   0  0  2  0  0  3  0  0  0  0  0  0
  160.7160  203.9200  149.9250 C   0  0  0  0  0  0  0  0  0  0  0  0
  161.3830  206.5960  150.4420 C   0  0  0  0  0  0  0  0  0  0  0  0
  162.6870  208.1160  148.3870 C   0  0  0  0  0  2  0  0  0  0  0  0
  161.2360  204.7170  148.9030 C   0  0  0  0  0  3  0  0  0  0  0  0
  161.6400  210.9640  150.8190 C   0  0  1  0  0  3  0  0  0  0  0  0
  160.8720  208.7130  151.7110 C   0  0  0  0  0  2  0  0  0  0  0  0
  162.1220  206.8310  148.1310 O   0  0  0  0  0  0  0  0  0  0  0  0
  159.8060  212.4670  151.2340 C   0  0  0  0  0  2  0  0  0  0  0  0
  162.4420  210.2310  149.7330 C   0  0  1  0  0  3  0  0  0  0  0  0
  160.3570  211.4550  150.3180 N   0  0  0  0  0  2  0  0  0  0  0  0
  160.3820  202.6320  149.6740 F   0  0  0  0  0  0  0  0  0  0  0  0
  160.5510  204.4460  151.2090 C   0  0  0  0  0  3  0  0  0  0  0  0
  161.8500  208.8540  149.4280 C   0  0  2  0  0  3  0  0  0  0  0  0
  160.1790  212.2490  152.7130 C   0  0  0  0  0  2  0  0  0  0  0  0
  161.4090  210.0980  152.0750 C   0  0  2  0  0  3  0  0  0  0  0  0
  160.7470  210.5690  154.5150 C   0  0  1  0  0  3  0  0  0  0  0  0
  160.8820  211.8480  155.2070 N   0  0  0  0  0  2  0  0  0  0  0  0
  158.6990  211.5440  156.3380 N   0  0  0  0  0  0  0  0  0  0  0  0
  159.7960  209.6190  155.2620 C   0  0  0  0  0  2  0  0  0  0  0  0
  159.9730  213.4960  156.5740 O   0  0  0  0  0  0  0  0  0  0  0  0
  159.8490  212.3550  156.0550 C   0  0  0  0  0  0  0  0  0  0  0  0
  157.6750  212.0020  157.2610 C   0  0  0  0  0  1  0  0  0  0  0  0
  158.4730  210.3050  155.6020 C   0  0  0  0  0  2  0  0  0  0  0  0
  1 19  1  6  0  0  0
  1 21  1  0  0  0  0
  4  7  1  0  0  0  0
  5 11  1  1  0  0  0
  6 17  2  0  0  0  0
  7  5  1  0  0  0  0
  7  2  2  0  0  0  0
  9  4  2  0  0  0  0
  9  6  1  0  0  0  0
 10 15  1  6  0  0  0
 10 20  1  0  0  0  0
 12  8  1  0  0  0  0
 12  4  1  0  0  0  0
 13 19  1  0  0  0  0
 14  3  1  6  0  0  0
 14 10  1  0  0  0  0
 15 13  1  0  0  0  0
 16  6  1  0  0  0  0
 17  2  1  0  0  0  0
 18  8  1  6  0  0  0
 18 14  1  0  0  0  0
 18  5  1  0  0  0  0
 20 11  1  6  0  0  0
 20  1  1  0  0  0  0
 21 22  1  0  0  0  0
 21 24  1  1  0  0  0
 22 26  1  0  0  0  0
 23 27  1  0  0  0  0
 24 28  1  0  0  0  0
 26 23  1  0  0  0  0
 26 25  2  0  0  0  0
 28 23  1  0  0  0  0
M  END
>  <MODEL>
7

>  <REMARK>
 VINA RESULT:      -6.5      4.034      8.540
  Name = 
  1 active torsions:
  status: ('A' for Active; 'I' for Inactive)
    1  A    between atoms: C_1  and  C_2
                            x       y       z     vdW  Elec       q    Type
                         _______ _______ _______ _____ _____    ______ ____

>  <TORSDO>
F 1

$$$$
=
 OpenBabel11052423013D

 28 32  0  0  1  0  0  0  0  0999 V2000
  158.4370  212.6290  153.5220 C   0  0  1  0  0  3  0  0  0  0  0  0
  160.9970  208.1220  152.6690 C   0  0  0  0  0  3  0  0  0  0  0  0
  160.9430  213.3390  149.3330 O   0  0  0  0  0  1  0  0  0  0  0  0
  161.8840  208.4710  150.4360 C   0  0  0  0  0  0  0  0  0  0  0  0
  161.0990  210.4820  151.7460 C   0  0  2  0  0  3  0  0  0  0  0  0
  161.7730  206.2360  151.3630 C   0  0  0  0  0  0  0  0  0  0  0  0
  161.2960  208.9900  151.6080 C   0  0  0  0  0  0  0  0  0  0  0  0
  162.2290  210.7430  149.5370 C   0  0  0  0  0  2  0  0  0  0  0  0
  162.1050  207.0960  150.3130 C   0  0  0  0  0  3  0  0  0  0  0  0
  159.8290  213.1270  151.4540 C   0  0  1  0  0  3  0  0  0  0  0  0
  159.8380  210.8260  152.5330 C   0  0  0  0  0  2  0  0  0  0  0  0
  162.2360  209.3240  149.3840 O   0  0  0  0  0  0  0  0  0  0  0  0
  157.5240  213.8210  151.4670 C   0  0  0  0  0  2  0  0  0  0  0  0
  161.0040  212.6870  150.5670 C   0  0  1  0  0  3  0  0  0  0  0  0
  158.5480  213.0400  150.7540 N   0  0  0  0  0  2  0  0  0  0  0  0
  161.9920  204.9050  151.2420 F   0  0  0  0  0  0  0  0  0  0  0  0
  161.2290  206.7490  152.5430 C   0  0  0  0  0  3  0  0  0  0  0  0
  161.0280  211.1700  150.3750 C   0  0  2  0  0  3  0  0  0  0  0  0
  157.7210  213.8740  152.9950 C   0  0  0  0  0  2  0  0  0  0  0  0
  159.7520  212.3340  152.7760 C   0  0  2  0  0  3  0  0  0  0  0  0
  158.5980  212.6870  155.0480 C   0  0  1  0  0  3  0  0  0  0  0  0
  157.7910  213.7580  155.6270 N   0  0  0  0  0  2  0  0  0  0  0  0
  156.1460  212.1330  156.5140 N   0  0  0  0  0  0  0  0  0  0  0  0
  158.3580  211.3480  155.7630 C   0  0  0  0  0  2  0  0  0  0  0  0
  155.8540  214.4490  156.7140 O   0  0  0  0  0  0  0  0  0  0  0  0
  156.5560  213.4900  156.2940 C   0  0  0  0  0  0  0  0  0  0  0  0
  154.9370  211.8320  157.2610 C   0  0  0  0  0  1  0  0  0  0  0  0
  156.8650  211.0340  155.8770 C   0  0  0  0  0  2  0  0  0  0  0  0
  1 19  1  6  0  0  0
  1 21  1  0  0  0  0
  4  7  1  0  0  0  0
  5 11  1  6  0  0  0
  6 17  2  0  0  0  0
  7  5  1  0  0  0  0
  7  2  2  0  0  0  0
  9  4  2  0  0  0  0
  9  6  1  0  0  0  0
 10 15  1  6  0  0  0
 10 20  1  0  0  0  0
 12  8  1  0  0  0  0
 12  4  1  0  0  0  0
 13 19  1  0  0  0  0
 14  3  1  6  0  0  0
 14 10  1  0  0  0  0
 15 13  1  0  0  0  0
 16  6  1  0  0  0  0
 17  2  1  0  0  0  0
 18  8  1  6  0  0  0
 18 14  1  0  0  0  0
 18  5  1  0  0  0  0
 20 11  1  6  0  0  0
 20  1  1  0  0  0  0
 21 22  1  0  0  0  0
 21 24  1  1  0  0  0
 22 26  1  0  0  0  0
 23 27  1  0  0  0  0
 24 28  1  0  0  0  0
 26 23  1  0  0  0  0
 26 25  2  0  0  0  0
 28 23  1  0  0  0  0
M  END
>  <MODEL>
8

>  <REMARK>
 VINA RESULT:      -5.9      4.695      9.243
  Name = 
  1 active torsions:
  status: ('A' for Active; 'I' for Inactive)
    1  A    between atoms: C_1  and  C_2
                            x       y       z     vdW  Elec       q    Type
                         _______ _______ _______ _____ _____    ______ ____

>  <TORSDO>
F 1

$$$$
=
 OpenBabel11052423013D

 28 32  0  0  1  0  0  0  0  0999 V2000
  160.9040  203.1560  148.1410 C   0  0  1  0  0  3  0  0  0  0  0  0
  161.6710  208.0200  149.9690 C   0  0  0  0  0  3  0  0  0  0  0  0
  160.8580  202.7120  153.0540 O   0  0  0  0  0  1  0  0  0  0  0  0
  161.2730  207.7250  152.3450 C   0  0  0  0  0  0  0  0  0  0  0  0
  161.7210  205.6760  150.9380 C   0  0  2  0  0  3  0  0  0  0  0  0
  161.2420  209.9430  151.3750 C   0  0  0  0  0  0  0  0  0  0  0  0
  161.5190  207.1680  151.0730 C   0  0  0  0  0  0  0  0  0  0  0  0
  161.5180  205.5170  153.4200 C   0  0  0  0  0  2  0  0  0  0  0  0
  161.1200  209.1070  152.4870 C   0  0  0  0  0  3  0  0  0  0  0  0
  161.0380  202.8220  150.6570 C   0  0  1  0  0  3  0  0  0  0  0  0
  161.1740  205.1380  149.6200 C   0  0  0  0  0  2  0  0  0  0  0  0
  161.1650  206.8980  153.4700 O   0  0  0  0  0  0  0  0  0  0  0  0
  159.2860  201.6930  149.4530 C   0  0  0  0  0  2  0  0  0  0  0  0
  161.4420  203.4320  152.0080 C   0  0  1  0  0  3  0  0  0  0  0  0
  159.5940  202.6180  150.5570 N   0  0  0  0  0  2  0  0  0  0  0  0
  161.0970  211.2830  151.5170 F   0  0  0  0  0  0  0  0  0  0  0  0
  161.5270  209.4020  150.1190 C   0  0  0  0  0  3  0  0  0  0  0  0
  161.0630  204.9120  152.0950 C   0  0  2  0  0  3  0  0  0  0  0  0
  160.2760  201.7660  148.2740 C   0  0  0  0  0  2  0  0  0  0  0  0
  161.5280  203.6590  149.4560 C   0  0  2  0  0  3  0  0  0  0  0  0
  161.8640  203.2160  146.9450 C   0  0  1  0  0  3  0  0  0  0  0  0
  161.1670  202.9500  145.6890 N   0  0  0  0  0  2  0  0  0  0  0  0
  161.2570  205.3410  145.0520 N   0  0  0  0  0  0  0  0  0  0  0  0
  162.6980  204.5050  146.8660 C   0  0  0  0  0  2  0  0  0  0  0  0
  160.1490  203.7370  143.7520 O   0  0  0  0  0  0  0  0  0  0  0  0
  160.8160  204.0020  144.7880 C   0  0  0  0  0  0  0  0  0  0  0  0
  160.9830  206.4140  144.1110 C   0  0  0  0  0  1  0  0  0  0  0  0
  161.8720  205.6750  146.3320 C   0  0  0  0  0  2  0  0  0  0  0  0
  1 19  1  1  0  0  0
  1 20  1  0  0  0  0
  2 17  2  0  0  0  0
  2  7  1  0  0  0  0
  4  9  1  0  0  0  0
  4 12  1  0  0  0  0
  5 11  1  6  0  0  0
  5  7  1  0  0  0  0
  5 18  1  0  0  0  0
  6 16  1  0  0  0  0
  6  9  2  0  0  0  0
  7  4  2  0  0  0  0
  8 12  1  0  0  0  0
 10 15  1  1  0  0  0
 10 14  1  0  0  0  0
 13 15  1  0  0  0  0
 14 18  1  0  0  0  0
 14  3  1  1  0  0  0
 17  6  1  0  0  0  0
 18  8  1  1  0  0  0
 19 13  1  0  0  0  0
 20 11  1  1  0  0  0
 20 10  1  0  0  0  0
 21 24  1  6  0  0  0
 21  1  1  0  0  0  0
 22 21  1  0  0  0  0
 23 28  1  0  0  0  0
 25 26  2  0  0  0  0
 26 23  1  0  0  0  0
 26 22  1  0  0  0  0
 27 23  1  0  0  0  0
 28 24  1  0  0  0  0
M  END
>  <MODEL>
9

>  <REMARK>
 VINA RESULT:      -5.9      1.948      2.832
  Name = 
  1 active torsions:
  status: ('A' for Active; 'I' for Inactive)
    1  A    between atoms: C_1  and  C_2
                            x       y       z     vdW  Elec       q    Type
                         _______ _______ _______ _____ _____    ______ ____

>  <TORSDO>
F 1

$$$$
