=
 OpenBabel11062408573D

 55 60  0  0  1  0  0  0  0  0999 V2000
  162.5330  205.0390  147.3370 C   0  0  0  0  0  3  0  0  0  0  0  0
  161.6030  205.4150  144.7500 C   0  0  0  0  0  0  0  0  0  0  0  0
  161.3550  206.3910  145.7190 C   0  0  0  0  0  3  0  0  0  0  0  0
  162.7580  204.0840  146.3440 C   0  0  0  0  0  3  0  0  0  0  0  0
  161.8240  206.2010  147.0270 C   0  0  0  0  0  0  0  0  0  0  0  0
  162.2870  204.2860  145.0830 N   0  0  0  0  0  0  0  0  0  0  0  0
  161.0980  205.5930  143.3630 C   0  0  0  0  0  2  0  0  0  0  0  0
  162.1720  206.2170  142.4930 C   0  0  0  0  0  2  0  0  0  0  0  0
  162.3870  207.6740  140.6770 C   0  0  1  0  0  3  0  0  0  0  0  0
  161.6170  206.5300  141.1870 N   0  0  0  0  0  0  0  0  0  0  0  0
  162.6980  206.3280  140.2110 C   0  0  0  0  0  2  0  0  0  0  0  0
  161.5690  208.4010  139.6180 C   0  0  0  0  0  2  0  0  0  0  0  0
  163.0480  210.1640  140.2620 O   0  0  0  0  0  1  0  0  0  0  0  0
  161.8980  209.8980  139.5110 C   0  0  0  0  0  0  0  0  0  0  0  0
  162.1810  210.1870  138.1740 O   0  0  0  0  0  1  0  0  0  0  0  0
  161.1950  211.9750  141.9530 C   0  0  2  0  0  0  0  0  0  0  0  0
  160.7350  210.8130  140.0120 C   0  0  1  0  0  0  0  0  0  0  0  0
  161.8550  212.6340  138.5050 C   0  0  0  0  0  1  0  0  0  0  0  0
  160.8050  212.3230  139.5780 C   0  0  2  0  0  0  0  0  0  0  0  0
  162.4660  211.8020  142.4710 F   0  0  0  0  0  0  0  0  0  0  0  0
  161.2250  212.9420  140.8420 C   0  0  0  0  0  0  0  0  0  0  0  0
  160.2600  212.4540  143.0490 C   0  0  0  0  0  1  0  0  0  0  0  0
  159.5430  210.2510  139.5720 F   0  0  0  0  0  0  0  0  0  0  0  0
  161.5470  214.1160  140.9660 O   0  0  0  0  0  0  0  0  0  0  0  0
  160.7190  210.7530  141.4340 O   0  0  0  0  0  0  0  0  0  0  0  0
  159.2390  213.2420  138.0340 O   0  0  0  0  0  0  0  0  0  0  0  0
  159.4390  212.8830  139.1870 C   0  0  0  0  0  0  0  0  0  0  0  0
  158.3090  212.9720  140.1710 C   0  0  0  0  0  2  0  0  0  0  0  0
  157.0770  212.2760  139.6310 C   0  0  0  0  0  1  0  0  0  0  0  0
  161.6000  207.1470  148.0300 O   0  0  0  0  0  0  0  0  0  0  0  0
  162.6310  207.6060  148.8950 C   0  0  0  0  0  2  0  0  0  0  0  0
  161.2410  206.2160  153.5420 C   0  0  0  0  0  2  0  0  0  0  0  0
  161.5180  210.2170  148.1790 C   0  0  0  0  0  2  0  0  0  0  0  0
  160.1820  207.9270  155.0020 C   0  0  0  0  0  2  0  0  0  0  0  0
  161.1230  208.6320  152.7740 C   0  0  0  0  0  0  0  0  0  0  0  0
  160.7070  209.0790  154.1500 C   0  0  0  0  0  2  0  0  0  0  0  0
  161.1740  206.7740  154.9600 C   0  0  0  0  0  2  0  0  0  0  0  0
  161.4650  207.2910  152.5040 C   0  0  0  0  0  0  0  0  0  0  0  0
  161.6950  209.2820  150.5500 C   0  0  0  0  0  0  0  0  0  0  0  0
  161.9760  211.7320  150.0040 C   0  0  0  0  0  2  0  0  0  0  0  0
  161.2650  209.5730  151.8070 N   0  0  0  0  0  0  0  0  0  0  0  0
  161.7610  212.5760  148.7610 C   0  0  1  0  0  3  0  0  0  0  0  0
  161.9280  206.9520  151.2190 C   0  0  0  0  0  0  0  0  0  0  0  0
  161.6760  211.6030  147.5880 C   0  0  0  0  0  2  0  0  0  0  0  0
  162.0480  207.9520  150.2310 C   0  0  0  0  0  0  0  0  0  0  0  0
  161.8030  210.3530  149.5940 N   0  0  0  0  0  0  0  0  0  0  0  0
  160.4560  213.3470  148.9040 C   0  0  0  0  0  2  0  0  0  0  0  0
  159.8890  213.6880  147.5660 C   0  0  0  0  0  0  0  0  0  0  0  0
  160.5500  214.4530  146.7640 N   0  0  0  0  0  2  0  0  0  0  0  0
  158.7050  213.0430  147.1140 N   0  0  0  0  0  1  0  0  0  0  0  0
  162.3160  205.5310  150.9130 C   0  0  0  0  0  2  0  0  0  0  0  0
  160.1060  205.2060  150.0920 O   0  0  0  0  0  0  0  0  0  0  0  0
  161.1080  204.6950  150.6590 C   0  0  0  0  0  0  0  0  0  0  0  0
  161.1080  203.3520  151.0380 O   0  0  0  0  0  0  0  0  0  0  0  0
  160.6450  202.3300  150.1670 C   0  0  0  0  0  1  0  0  0  0  0  0
  2  6  2  0  0  0  0
  2  3  1  0  0  0  0
  3  5  2  0  0  0  0
  4  1  2  0  0  0  0
  5  1  1  0  0  0  0
  5 30  1  0  0  0  0
  6  4  1  0  0  0  0
  7  2  1  0  0  0  0
  8  7  1  0  0  0  0
  9 12  1  6  0  0  0
  9 10  1  0  0  0  0
 10  8  1  0  0  0  0
 11  9  1  0  0  0  0
 11 10  1  0  0  0  0
 14 12  1  0  0  0  0
 14 17  1  0  0  0  0
 14 13  1  0  0  0  0
 15 14  1  0  0  0  0
 16 20  1  0  0  0  0
 16 22  1  1  0  0  0
 17 23  1  6  0  0  0
 17 25  1  0  0  0  0
 19 18  1  6  0  0  0
 19 17  1  0  0  0  0
 19 21  1  0  0  0  0
 21 24  2  0  0  0  0
 21 16  1  0  0  0  0
 25 16  1  0  0  0  0
 26 27  2  0  0  0  0
 27 19  1  0  0  0  0
 27 28  1  0  0  0  0
 29 28  1  0  0  0  0
 30 31  1  0  0  0  0
 31 45  1  0  0  0  0
 32 37  1  0  0  0  0
 33 46  1  0  0  0  0
 35 36  1  0  0  0  0
 36 34  1  0  0  0  0
 37 34  1  0  0  0  0
 38 35  1  0  0  0  0
 38 32  1  0  0  0  0
 39 41  1  0  0  0  0
 41 35  2  0  0  0  0
 42 47  1  1  0  0  0
 42 40  1  0  0  0  0
 43 38  2  0  0  0  0
 44 33  1  0  0  0  0
 44 42  1  0  0  0  0
 45 39  2  0  0  0  0
 45 43  1  0  0  0  0
 46 40  1  0  0  0  0
 46 39  1  0  0  0  0
 48 47  1  0  0  0  0
 49 48  2  0  0  0  0
 50 48  1  0  0  0  0
 51 43  1  0  0  0  0
 52 53  2  0  0  0  0
 53 51  1  0  0  0  0
 53 54  1  0  0  0  0
 55 54  1  0  0  0  0
M  END
>  <MODEL>
1

>  <REMARK>
 VINA RESULT:      -6.2      0.000      0.000
  Name = 
  16 active torsions:
  status: ('A' for Active; 'I' for Inactive)
    1  A    between atoms: O_2  and  C_28
    2  A    between atoms: O_2  and  C_44
    3  A    between atoms: O_4  and  C_40
    4  A    between atoms: C_6  and  C_20
    5  A    between atoms: C_8  and  C_22
    6  A    between atoms: C_10  and  C_32
    7  A    between atoms: C_11  and  C_38
    8  A    between atoms: C_14  and  C_38
    9  A    between atoms: C_19  and  C_40
   10  A    between atoms: C_19  and  C_45
   11  A    between atoms: C_20  and  C_22
   12  A    between atoms: C_27  and  C_54
   13  A    between atoms: C_28  and  C_49
   14  A    between atoms: C_32  and  C_39
   15  A    between atoms: N_35  and  C_51
   16  A    between atoms: C_51  and  C_54
                            x       y       z     vdW  Elec       q    Type
                         _______ _______ _______ _____ _____    ______ ____

>  <TORSDO>
F 16

$$$$
=
 OpenBabel11062408573D

 55 60  0  0  1  0  0  0  0  0999 V2000
  162.4110  209.4550  150.4930 C   0  0  0  0  0  3  0  0  0  0  0  0
  161.7220  211.3530  148.5900 C   0  0  0  0  0  0  0  0  0  0  0  0
  161.6800  209.9970  148.2560 C   0  0  0  0  0  3  0  0  0  0  0  0
  162.4450  210.8190  150.7890 C   0  0  0  0  0  3  0  0  0  0  0  0
  162.0290  209.0370  149.2170 C   0  0  0  0  0  0  0  0  0  0  0  0
  162.1090  211.7330  149.8380 N   0  0  0  0  0  0  0  0  0  0  0  0
  161.3710  212.3840  147.5770 C   0  0  0  0  0  2  0  0  0  0  0  0
  162.5910  212.7370  146.7490 C   0  0  0  0  0  2  0  0  0  0  0  0
  161.4170  213.2490  144.7930 C   0  0  1  0  0  3  0  0  0  0  0  0
  162.2660  213.8270  145.8450 N   0  0  0  0  0  0  0  0  0  0  0  0
  160.8060  213.9890  145.8910 C   0  0  0  0  0  2  0  0  0  0  0  0
  161.4740  214.1330  143.5550 C   0  0  0  0  0  2  0  0  0  0  0  0
  163.5660  214.2810  142.4100 O   0  0  0  0  0  1  0  0  0  0  0  0
  162.3640  213.5660  142.4390 C   0  0  0  0  0  0  0  0  0  0  0  0
  162.6620  212.2370  142.7510 O   0  0  0  0  0  1  0  0  0  0  0  0
  163.1700  213.6350  139.2580 C   0  0  2  0  0  0  0  0  0  0  0  0
  161.6910  213.6360  141.0310 C   0  0  1  0  0  0  0  0  0  0  0  0
  161.6750  211.0250  141.1850 C   0  0  0  0  0  1  0  0  0  0  0  0
  161.4590  212.2610  140.3040 C   0  0  2  0  0  0  0  0  0  0  0  0
  164.5080  213.5210  139.5920 F   0  0  0  0  0  0  0  0  0  0  0  0
  162.5230  212.3130  139.2930 C   0  0  0  0  0  0  0  0  0  0  0  0
  163.0410  214.2540  137.8780 C   0  0  0  0  0  1  0  0  0  0  0  0
  160.4810  214.3010  141.1790 F   0  0  0  0  0  0  0  0  0  0  0  0
  162.8280  211.3820  138.5600 O   0  0  0  0  0  0  0  0  0  0  0  0
  162.5110  214.4520  140.2000 O   0  0  0  0  0  0  0  0  0  0  0  0
  159.8820  212.9440  138.6510 O   0  0  0  0  0  0  0  0  0  0  0  0
  160.1090  212.1960  139.5930 C   0  0  0  0  0  0  0  0  0  0  0  0
  159.0510  211.2080  139.9930 C   0  0  0  0  0  2  0  0  0  0  0  0
  157.8170  211.3710  139.1290 C   0  0  0  0  0  1  0  0  0  0  0  0
  162.0040  207.6700  148.9300 O   0  0  0  0  0  0  0  0  0  0  0  0
  160.8020  206.9730  148.6270 C   0  0  0  0  0  2  0  0  0  0  0  0
  161.0100  202.0140  147.7190 C   0  0  0  0  0  2  0  0  0  0  0  0
  160.2310  207.5250  151.4440 C   0  0  0  0  0  2  0  0  0  0  0  0
  161.0930  200.4760  149.6700 C   0  0  0  0  0  2  0  0  0  0  0  0
  161.2460  202.9590  150.0630 C   0  0  0  0  0  0  0  0  0  0  0  0
  161.5300  201.5890  150.6180 C   0  0  0  0  0  2  0  0  0  0  0  0
  161.6490  200.7470  148.2810 C   0  0  0  0  0  2  0  0  0  0  0  0
  161.0900  203.1780  148.6790 C   0  0  0  0  0  0  0  0  0  0  0  0
  161.0600  205.2960  150.5100 C   0  0  0  0  0  0  0  0  0  0  0  0
  161.7430  206.1880  152.7720 C   0  0  0  0  0  2  0  0  0  0  0  0
  161.2440  204.0120  150.9180 N   0  0  0  0  0  0  0  0  0  0  0  0
  161.2930  207.3520  153.6360 C   0  0  1  0  0  3  0  0  0  0  0  0
  160.9100  204.4950  148.2150 C   0  0  0  0  0  0  0  0  0  0  0  0
  160.5070  208.2890  152.7230 C   0  0  0  0  0  2  0  0  0  0  0  0
  160.8970  205.5660  149.1320 C   0  0  0  0  0  0  0  0  0  0  0  0
  161.0670  206.3420  151.4990 N   0  0  0  0  0  0  0  0  0  0  0  0
  160.3990  206.8270  154.7500 C   0  0  0  0  0  2  0  0  0  0  0  0
  160.7190  207.4910  156.0480 C   0  0  0  0  0  0  0  0  0  0  0  0
  160.1060  207.1290  157.1240 N   0  0  0  0  0  1  0  0  0  0  0  0
  161.8080  208.4020  156.1280 N   0  0  0  0  0  2  0  0  0  0  0  0
  160.7600  204.7550  146.7400 C   0  0  0  0  0  2  0  0  0  0  0  0
  163.0530  205.3740  146.8930 O   0  0  0  0  0  0  0  0  0  0  0  0
  162.0550  205.1940  146.1460 C   0  0  0  0  0  0  0  0  0  0  0  0
  162.1500  205.3850  144.7670 O   0  0  0  0  0  0  0  0  0  0  0  0
  161.0130  205.3040  143.9200 C   0  0  0  0  0  1  0  0  0  0  0  0
  1  4  1  0  0  0  0
  2  6  1  0  0  0  0
  3  2  2  0  0  0  0
  3  5  1  0  0  0  0
  5  1  2  0  0  0  0
  6  4  2  0  0  0  0
  7  2  1  0  0  0  0
  8  7  1  0  0  0  0
  9 12  1  6  0  0  0
  9 10  1  0  0  0  0
  9 11  1  0  0  0  0
 10 11  1  0  0  0  0
 10  8  1  0  0  0  0
 13 14  1  0  0  0  0
 14 15  1  0  0  0  0
 14 12  1  0  0  0  0
 16 22  1  6  0  0  0
 16 21  1  0  0  0  0
 16 20  1  0  0  0  0
 16 25  1  0  0  0  0
 17 23  1  1  0  0  0
 17 14  1  0  0  0  0
 19 17  1  0  0  0  0
 19 18  1  1  0  0  0
 21 19  1  0  0  0  0
 24 21  2  0  0  0  0
 25 17  1  0  0  0  0
 26 27  2  0  0  0  0
 27 28  1  0  0  0  0
 27 19  1  0  0  0  0
 29 28  1  0  0  0  0
 30  5  1  0  0  0  0
 31 30  1  0  0  0  0
 31 45  1  0  0  0  0
 32 37  1  0  0  0  0
 32 38  1  0  0  0  0
 33 46  1  0  0  0  0
 33 44  1  0  0  0  0
 34 36  1  0  0  0  0
 35 36  1  0  0  0  0
 35 41  1  0  0  0  0
 37 34  1  0  0  0  0
 38 35  2  0  0  0  0
 39 41  2  0  0  0  0
 39 46  1  0  0  0  0
 40 42  1  0  0  0  0
 42 47  1  1  0  0  0
 43 38  1  0  0  0  0
 43 45  2  0  0  0  0
 44 42  1  0  0  0  0
 45 39  1  0  0  0  0
 46 40  1  0  0  0  0
 47 48  1  0  0  0  0
 48 50  2  0  0  0  0
 48 49  1  0  0  0  0
 51 43  1  0  0  0  0
 53 51  1  0  0  0  0
 53 52  2  0  0  0  0
 54 53  1  0  0  0  0
 55 54  1  0  0  0  0
M  END
>  <MODEL>
2

>  <REMARK>
 VINA RESULT:      -5.9      2.445      6.161
  Name = 
  16 active torsions:
  status: ('A' for Active; 'I' for Inactive)
    1  A    between atoms: O_2  and  C_28
    2  A    between atoms: O_2  and  C_44
    3  A    between atoms: O_4  and  C_40
    4  A    between atoms: C_6  and  C_20
    5  A    between atoms: C_8  and  C_22
    6  A    between atoms: C_10  and  C_32
    7  A    between atoms: C_11  and  C_38
    8  A    between atoms: C_14  and  C_38
    9  A    between atoms: C_19  and  C_40
   10  A    between atoms: C_19  and  C_45
   11  A    between atoms: C_20  and  C_22
   12  A    between atoms: C_27  and  C_54
   13  A    between atoms: C_28  and  C_49
   14  A    between atoms: C_32  and  C_39
   15  A    between atoms: N_35  and  C_51
   16  A    between atoms: C_51  and  C_54
                            x       y       z     vdW  Elec       q    Type
                         _______ _______ _______ _____ _____    ______ ____

>  <TORSDO>
F 16

$$$$
=
 OpenBabel11062408573D

 55 60  0  0  1  0  0  0  0  0999 V2000
  162.6860  204.9830  147.2290 C   0  0  0  0  0  3  0  0  0  0  0  0
  161.6320  205.4220  144.7010 C   0  0  0  0  0  0  0  0  0  0  0  0
  161.3280  206.3090  145.7360 C   0  0  0  0  0  3  0  0  0  0  0  0
  162.9640  204.1150  146.1710 C   0  0  0  0  0  3  0  0  0  0  0  0
  161.8600  206.0880  147.0150 C   0  0  0  0  0  0  0  0  0  0  0  0
  162.4310  204.3460  144.9410 N   0  0  0  0  0  0  0  0  0  0  0  0
  161.0620  205.6330  143.3430 C   0  0  0  0  0  2  0  0  0  0  0  0
  162.0900  206.2900  142.4420 C   0  0  0  0  0  2  0  0  0  0  0  0
  162.0220  207.5860  140.4980 C   0  0  1  0  0  3  0  0  0  0  0  0
  161.6000  206.3010  141.0750 N   0  0  0  0  0  0  0  0  0  0  0  0
  162.7830  206.3770  140.2050 C   0  0  0  0  0  2  0  0  0  0  0  0
  161.1300  207.9230  139.3110 C   0  0  0  0  0  2  0  0  0  0  0  0
  162.4440  208.9480  137.5990 O   0  0  0  0  0  1  0  0  0  0  0  0
  161.5170  209.2320  138.6070 C   0  0  0  0  0  0  0  0  0  0  0  0
  160.3720  209.7560  138.0010 O   0  0  0  0  0  1  0  0  0  0  0  0
  162.7520  212.2730  138.5780 C   0  0  2  0  0  0  0  0  0  0  0  0
  162.1260  210.2900  139.5820 C   0  0  1  0  0  0  0  0  0  0  0  0
  159.6480  211.0750  139.8800 C   0  0  0  0  0  1  0  0  0  0  0  0
  161.1300  211.3680  140.1470 C   0  0  2  0  0  0  0  0  0  0  0  0
  162.4870  212.3710  137.2230 F   0  0  0  0  0  0  0  0  0  0  0  0
  161.5290  212.5390  139.3550 C   0  0  0  0  0  0  0  0  0  0  0  0
  163.8460  213.2560  138.9550 C   0  0  0  0  0  1  0  0  0  0  0  0
  162.7170  209.5990  140.6310 F   0  0  0  0  0  0  0  0  0  0  0  0
  160.9330  213.6070  139.3490 O   0  0  0  0  0  0  0  0  0  0  0  0
  163.1720  210.9630  138.8890 O   0  0  0  0  0  0  0  0  0  0  0  0
  162.4330  212.1610  141.9790 O   0  0  0  0  0  0  0  0  0  0  0  0
  161.3700  211.6680  141.6240 C   0  0  0  0  0  0  0  0  0  0  0  0
  160.3190  211.4100  142.6650 C   0  0  0  0  0  2  0  0  0  0  0  0
  160.4800  212.3630  143.8320 C   0  0  0  0  0  1  0  0  0  0  0  0
  161.5840  206.9460  148.0820 O   0  0  0  0  0  0  0  0  0  0  0  0
  162.6010  207.4750  148.9220 C   0  0  0  0  0  2  0  0  0  0  0  0
  161.0940  206.1410  153.5490 C   0  0  0  0  0  2  0  0  0  0  0  0
  161.6000  210.1270  148.1920 C   0  0  0  0  0  2  0  0  0  0  0  0
  160.0820  207.8920  154.9950 C   0  0  0  0  0  2  0  0  0  0  0  0
  161.0800  208.5600  152.7800 C   0  0  0  0  0  0  0  0  0  0  0  0
  160.6620  209.0230  154.1500 C   0  0  0  0  0  2  0  0  0  0  0  0
  161.0290  206.7020  154.9660 C   0  0  0  0  0  2  0  0  0  0  0  0
  161.3740  207.2070  152.5150 C   0  0  0  0  0  0  0  0  0  0  0  0
  161.7070  209.1870  150.5650 C   0  0  0  0  0  0  0  0  0  0  0  0
  162.0910  211.6240  150.0240 C   0  0  0  0  0  2  0  0  0  0  0  0
  161.2720  209.4940  151.8160 N   0  0  0  0  0  0  0  0  0  0  0  0
  161.9250  212.4750  148.7780 C   0  0  1  0  0  3  0  0  0  0  0  0
  161.8410  206.8500  151.2360 C   0  0  0  0  0  0  0  0  0  0  0  0
  161.8200  211.5060  147.6030 C   0  0  0  0  0  2  0  0  0  0  0  0
  162.0130  207.8440  150.2510 C   0  0  0  0  0  0  0  0  0  0  0  0
  161.8700  210.2530  149.6110 N   0  0  0  0  0  0  0  0  0  0  0  0
  160.6490  213.2950  148.9020 C   0  0  0  0  0  2  0  0  0  0  0  0
  160.0750  213.5970  147.5580 C   0  0  0  0  0  0  0  0  0  0  0  0
  158.8760  213.2160  147.2700 N   0  0  0  0  0  1  0  0  0  0  0  0
  160.7830  214.4410  146.6590 N   0  0  0  0  0  2  0  0  0  0  0  0
  162.1790  205.4140  150.9360 C   0  0  0  0  0  2  0  0  0  0  0  0
  160.2020  204.9410  149.6970 O   0  0  0  0  0  0  0  0  0  0  0  0
  160.9430  204.6250  150.6660 C   0  0  0  0  0  0  0  0  0  0  0  0
  160.6300  203.5360  151.4800 O   0  0  0  0  0  0  0  0  0  0  0  0
  161.4800  202.4020  151.5700 C   0  0  0  0  0  1  0  0  0  0  0  0
  2  6  2  0  0  0  0
  2  3  1  0  0  0  0
  3  5  2  0  0  0  0
  4  1  2  0  0  0  0
  5  1  1  0  0  0  0
  5 30  1  0  0  0  0
  6  4  1  0  0  0  0
  7  2  1  0  0  0  0
  8  7  1  0  0  0  0
  9 12  1  6  0  0  0
  9 10  1  0  0  0  0
 10  8  1  0  0  0  0
 11  9  1  0  0  0  0
 11 10  1  0  0  0  0
 13 14  1  0  0  0  0
 14 12  1  0  0  0  0
 14 17  1  0  0  0  0
 15 14  1  0  0  0  0
 16 25  1  0  0  0  0
 16 22  1  1  0  0  0
 16 21  1  0  0  0  0
 17 19  1  0  0  0  0
 17 23  1  1  0  0  0
 19 18  1  6  0  0  0
 19 27  1  0  0  0  0
 20 16  1  0  0  0  0
 21 19  1  0  0  0  0
 24 21  2  0  0  0  0
 25 17  1  0  0  0  0
 27 26  2  0  0  0  0
 27 28  1  0  0  0  0
 28 29  1  0  0  0  0
 30 31  1  0  0  0  0
 31 45  1  0  0  0  0
 32 37  1  0  0  0  0
 33 46  1  0  0  0  0
 35 36  1  0  0  0  0
 36 34  1  0  0  0  0
 37 34  1  0  0  0  0
 38 35  1  0  0  0  0
 38 32  1  0  0  0  0
 39 41  1  0  0  0  0
 41 35  2  0  0  0  0
 42 47  1  1  0  0  0
 42 40  1  0  0  0  0
 43 38  2  0  0  0  0
 44 33  1  0  0  0  0
 44 42  1  0  0  0  0
 45 39  2  0  0  0  0
 45 43  1  0  0  0  0
 46 40  1  0  0  0  0
 46 39  1  0  0  0  0
 48 47  1  0  0  0  0
 49 48  1  0  0  0  0
 50 48  2  0  0  0  0
 51 43  1  0  0  0  0
 52 53  2  0  0  0  0
 53 51  1  0  0  0  0
 53 54  1  0  0  0  0
 54 55  1  0  0  0  0
M  END
>  <MODEL>
3

>  <REMARK>
 VINA RESULT:      -5.7      1.089      2.021
  Name = 
  16 active torsions:
  status: ('A' for Active; 'I' for Inactive)
    1  A    between atoms: O_2  and  C_28
    2  A    between atoms: O_2  and  C_44
    3  A    between atoms: O_4  and  C_40
    4  A    between atoms: C_6  and  C_20
    5  A    between atoms: C_8  and  C_22
    6  A    between atoms: C_10  and  C_32
    7  A    between atoms: C_11  and  C_38
    8  A    between atoms: C_14  and  C_38
    9  A    between atoms: C_19  and  C_40
   10  A    between atoms: C_19  and  C_45
   11  A    between atoms: C_20  and  C_22
   12  A    between atoms: C_27  and  C_54
   13  A    between atoms: C_28  and  C_49
   14  A    between atoms: C_32  and  C_39
   15  A    between atoms: N_35  and  C_51
   16  A    between atoms: C_51  and  C_54
                            x       y       z     vdW  Elec       q    Type
                         _______ _______ _______ _____ _____    ______ ____

>  <TORSDO>
F 16

$$$$
=
 OpenBabel11062408573D

 55 60  0  0  1  0  0  0  0  0999 V2000
  160.6300  208.4900  153.9410 C   0  0  0  0  0  3  0  0  0  0  0  0
  161.6460  206.3990  152.4280 C   0  0  0  0  0  0  0  0  0  0  0  0
  161.3830  207.6270  151.8150 C   0  0  0  0  0  3  0  0  0  0  0  0
  160.9010  207.2480  154.5170 C   0  0  0  0  0  3  0  0  0  0  0  0
  160.8680  208.6840  152.5790 C   0  0  0  0  0  0  0  0  0  0  0  0
  161.3940  206.2340  153.7550 N   0  0  0  0  0  0  0  0  0  0  0  0
  162.1760  205.2630  151.6270 C   0  0  0  0  0  2  0  0  0  0  0  0
  161.5530  203.9610  152.0950 C   0  0  0  0  0  2  0  0  0  0  0  0
  161.3080  203.0270  149.9660 C   0  0  1  0  0  3  0  0  0  0  0  0
  160.5590  203.5240  151.1290 N   0  0  0  0  0  0  0  0  0  0  0  0
  160.7670  202.0820  150.9350 C   0  0  0  0  0  2  0  0  0  0  0  0
  160.4120  203.0620  148.7360 C   0  0  0  0  0  2  0  0  0  0  0  0
  162.0880  201.7030  147.7120 O   0  0  0  0  0  1  0  0  0  0  0  0
  161.1410  202.6940  147.4350 C   0  0  0  0  0  0  0  0  0  0  0  0
  160.2050  202.1570  146.5470 O   0  0  0  0  0  1  0  0  0  0  0  0
  160.8840  204.6410  144.8060 C   0  0  2  0  0  0  0  0  0  0  0  0
  161.8540  203.9150  146.7720 C   0  0  1  0  0  0  0  0  0  0  0  0
  160.2340  205.3440  148.2480 C   0  0  0  0  0  1  0  0  0  0  0  0
  161.2590  205.3320  147.1070 C   0  0  2  0  0  0  0  0  0  0  0  0
  159.7370  203.9720  144.4180 F   0  0  0  0  0  0  0  0  0  0  0  0
  160.5670  205.6330  145.8470 C   0  0  0  0  0  0  0  0  0  0  0  0
  161.5110  205.3180  143.6000 C   0  0  0  0  0  1  0  0  0  0  0  0
  163.1920  203.8670  147.1390 F   0  0  0  0  0  0  0  0  0  0  0  0
  159.8290  206.5940  145.6750 O   0  0  0  0  0  0  0  0  0  0  0  0
  161.8060  203.7290  145.3610 O   0  0  0  0  0  0  0  0  0  0  0  0
  163.1760  206.5940  146.4630 O   0  0  0  0  0  0  0  0  0  0  0  0
  162.3440  206.3820  147.3350 C   0  0  0  0  0  0  0  0  0  0  0  0
  162.4030  207.1970  148.5940 C   0  0  0  0  0  2  0  0  0  0  0  0
  161.8310  208.5800  148.3590 C   0  0  0  0  0  1  0  0  0  0  0  0
  160.5870  209.9290  152.0120 O   0  0  0  0  0  0  0  0  0  0  0  0
  160.7610  211.1500  152.7190 C   0  0  0  0  0  2  0  0  0  0  0  0
  156.3400  212.3530  154.8330 C   0  0  0  0  0  2  0  0  0  0  0  0
  160.8990  212.0510  149.9370 C   0  0  0  0  0  2  0  0  0  0  0  0
  154.8630  213.9430  153.6200 C   0  0  0  0  0  2  0  0  0  0  0  0
  157.1820  213.5090  152.7370 C   0  0  0  0  0  0  0  0  0  0  0  0
  156.0100  214.4530  152.7520 C   0  0  0  0  0  2  0  0  0  0  0  0
  155.4020  213.5460  154.9870 C   0  0  0  0  0  2  0  0  0  0  0  0
  157.3910  212.5730  153.7700 C   0  0  0  0  0  0  0  0  0  0  0  0
  159.2290  212.8840  151.6820 C   0  0  0  0  0  0  0  0  0  0  0  0
  160.2040  214.3640  149.8820 C   0  0  0  0  0  2  0  0  0  0  0  0
  158.1040  213.6450  151.7520 N   0  0  0  0  0  0  0  0  0  0  0  0
  161.0500  214.1180  148.6470 C   0  0  1  0  0  3  0  0  0  0  0  0
  158.5510  211.7770  153.7430 C   0  0  0  0  0  0  0  0  0  0  0  0
  161.6450  212.7210  148.8010 C   0  0  0  0  0  2  0  0  0  0  0  0
  159.4820  211.9310  152.6940 C   0  0  0  0  0  0  0  0  0  0  0  0
  160.1420  213.1010  150.5900 N   0  0  0  0  0  0  0  0  0  0  0  0
  160.1600  214.1800  147.4140 C   0  0  0  0  0  2  0  0  0  0  0  0
  160.6420  213.2390  146.3590 C   0  0  0  0  0  0  0  0  0  0  0  0
  161.7540  213.4740  145.7480 N   0  0  0  0  0  2  0  0  0  0  0  0
  159.9640  212.0080  146.1450 N   0  0  0  0  0  1  0  0  0  0  0  0
  158.8050  210.7840  154.8450 C   0  0  0  0  0  2  0  0  0  0  0  0
  158.7220  211.9300  156.9290 O   0  0  0  0  0  0  0  0  0  0  0  0
  159.4450  211.4470  156.0170 C   0  0  0  0  0  0  0  0  0  0  0  0
  160.8360  211.5100  156.0970 O   0  0  0  0  0  0  0  0  0  0  0  0
  161.5960  210.4920  156.7320 C   0  0  0  0  0  1  0  0  0  0  0  0
  1  4  1  0  0  0  0
  2  6  1  0  0  0  0
  3  2  2  0  0  0  0
  3  5  1  0  0  0  0
  5  1  2  0  0  0  0
  6  4  2  0  0  0  0
  7  8  1  0  0  0  0
  7  2  1  0  0  0  0
  9 12  1  6  0  0  0
  9 11  1  0  0  0  0
  9 10  1  0  0  0  0
 10  8  1  0  0  0  0
 11 10  1  0  0  0  0
 14 13  1  0  0  0  0
 14 12  1  0  0  0  0
 15 14  1  0  0  0  0
 16 22  1  6  0  0  0
 16 25  1  0  0  0  0
 16 21  1  0  0  0  0
 17 19  1  0  0  0  0
 17 23  1  1  0  0  0
 17 14  1  0  0  0  0
 19 27  1  0  0  0  0
 19 18  1  1  0  0  0
 20 16  1  0  0  0  0
 21 19  1  0  0  0  0
 24 21  2  0  0  0  0
 25 17  1  0  0  0  0
 26 27  2  0  0  0  0
 27 28  1  0  0  0  0
 29 28  1  0  0  0  0
 30  5  1  0  0  0  0
 30 31  1  0  0  0  0
 32 37  1  0  0  0  0
 33 46  1  0  0  0  0
 34 37  1  0  0  0  0
 35 36  1  0  0  0  0
 35 38  1  0  0  0  0
 36 34  1  0  0  0  0
 38 32  1  0  0  0  0
 39 41  1  0  0  0  0
 39 45  2  0  0  0  0
 40 46  1  0  0  0  0
 41 35  2  0  0  0  0
 42 47  1  6  0  0  0
 42 44  1  0  0  0  0
 42 40  1  0  0  0  0
 43 38  2  0  0  0  0
 43 51  1  0  0  0  0
 44 33  1  0  0  0  0
 45 31  1  0  0  0  0
 45 43  1  0  0  0  0
 46 39  1  0  0  0  0
 48 47  1  0  0  0  0
 49 48  2  0  0  0  0
 50 48  1  0  0  0  0
 51 53  1  0  0  0  0
 53 54  1  0  0  0  0
 53 52  2  0  0  0  0
 54 55  1  0  0  0  0
M  END
>  <MODEL>
4

>  <REMARK>
 VINA RESULT:      -5.7      4.579      8.229
  Name = 
  16 active torsions:
  status: ('A' for Active; 'I' for Inactive)
    1  A    between atoms: O_2  and  C_28
    2  A    between atoms: O_2  and  C_44
    3  A    between atoms: O_4  and  C_40
    4  A    between atoms: C_6  and  C_20
    5  A    between atoms: C_8  and  C_22
    6  A    between atoms: C_10  and  C_32
    7  A    between atoms: C_11  and  C_38
    8  A    between atoms: C_14  and  C_38
    9  A    between atoms: C_19  and  C_40
   10  A    between atoms: C_19  and  C_45
   11  A    between atoms: C_20  and  C_22
   12  A    between atoms: C_27  and  C_54
   13  A    between atoms: C_28  and  C_49
   14  A    between atoms: C_32  and  C_39
   15  A    between atoms: N_35  and  C_51
   16  A    between atoms: C_51  and  C_54
                            x       y       z     vdW  Elec       q    Type
                         _______ _______ _______ _____ _____    ______ ____

>  <TORSDO>
F 16

$$$$
=
 OpenBabel11062408573D

 55 60  0  0  1  0  0  0  0  0999 V2000
  163.7120  209.9120  147.9990 C   0  0  0  0  0  3  0  0  0  0  0  0
  161.8790  211.9570  148.3930 C   0  0  0  0  0  0  0  0  0  0  0  0
  161.5490  210.6540  148.7730 C   0  0  0  0  0  3  0  0  0  0  0  0
  164.0060  211.2260  147.6270 C   0  0  0  0  0  3  0  0  0  0  0  0
  162.4740  209.6200  148.5730 C   0  0  0  0  0  0  0  0  0  0  0  0
  163.0900  212.2120  147.8240 N   0  0  0  0  0  0  0  0  0  0  0  0
  160.9020  213.0630  148.5820 C   0  0  0  0  0  2  0  0  0  0  0  0
  159.5490  212.6630  148.0250 C   0  0  0  0  0  2  0  0  0  0  0  0
  159.1860  213.6700  150.1040 C   0  0  1  0  0  3  0  0  0  0  0  0
  158.5140  212.9770  148.9950 N   0  0  0  0  0  0  0  0  0  0  0  0
  158.4650  214.4420  149.0990 C   0  0  0  0  0  2  0  0  0  0  0  0
  158.3360  213.5550  151.3610 C   0  0  0  0  0  2  0  0  0  0  0  0
  160.3120  212.5500  152.2500 O   0  0  0  0  0  1  0  0  0  0  0  0
  159.1490  213.2320  152.6230 C   0  0  0  0  0  0  0  0  0  0  0  0
  159.5300  214.4380  153.2170 O   0  0  0  0  0  1  0  0  0  0  0  0
  159.0580  212.5930  155.8410 C   0  0  2  0  0  0  0  0  0  0  0  0
  158.3550  212.3670  153.6530 C   0  0  1  0  0  0  0  0  0  0  0  0
  156.7800  214.4490  153.8100 C   0  0  0  0  0  1  0  0  0  0  0  0
  157.1670  213.0850  154.3930 C   0  0  2  0  0  0  0  0  0  0  0  0
  160.0760  213.5050  156.0540 F   0  0  0  0  0  0  0  0  0  0  0  0
  157.7670  213.2920  155.7180 C   0  0  0  0  0  0  0  0  0  0  0  0
  159.0170  211.5990  156.9870 C   0  0  0  0  0  1  0  0  0  0  0  0
  157.8830  211.2470  152.9820 F   0  0  0  0  0  0  0  0  0  0  0  0
  157.2560  213.9480  156.6150 O   0  0  0  0  0  0  0  0  0  0  0  0
  159.2800  211.9030  154.6310 O   0  0  0  0  0  0  0  0  0  0  0  0
  154.8970  212.4860  153.9820 O   0  0  0  0  0  0  0  0  0  0  0  0
  155.9420  212.1860  154.5420 C   0  0  0  0  0  0  0  0  0  0  0  0
  155.9900  210.9100  155.3320 C   0  0  0  0  0  2  0  0  0  0  0  0
  155.0950  211.0060  156.5510 C   0  0  0  0  0  1  0  0  0  0  0  0
  162.1880  208.3020  148.9360 O   0  0  0  0  0  0  0  0  0  0  0  0
  160.8710  207.7680  148.9110 C   0  0  0  0  0  2  0  0  0  0  0  0
  160.6650  202.7380  148.5820 C   0  0  0  0  0  2  0  0  0  0  0  0
  160.3900  208.6850  151.6490 C   0  0  0  0  0  2  0  0  0  0  0  0
  160.6540  201.4320  150.6980 C   0  0  0  0  0  2  0  0  0  0  0  0
  161.0120  203.9230  150.8000 C   0  0  0  0  0  0  0  0  0  0  0  0
  161.1930  202.6070  151.5080 C   0  0  0  0  0  2  0  0  0  0  0  0
  161.2080  201.4960  149.2830 C   0  0  0  0  0  2  0  0  0  0  0  0
  160.8520  203.9940  149.4010 C   0  0  0  0  0  0  0  0  0  0  0  0
  161.0220  206.3030  150.9740 C   0  0  0  0  0  0  0  0  0  0  0  0
  161.8100  207.3900  153.1130 C   0  0  0  0  0  2  0  0  0  0  0  0
  161.1090  205.0640  151.5270 N   0  0  0  0  0  0  0  0  0  0  0  0
  161.4690  208.6790  153.8390 C   0  0  1  0  0  3  0  0  0  0  0  0
  160.7720  205.2590  148.7880 C   0  0  0  0  0  0  0  0  0  0  0  0
  160.7470  209.5660  152.8290 C   0  0  0  0  0  2  0  0  0  0  0  0
  160.8600  206.4250  149.5750 C   0  0  0  0  0  0  0  0  0  0  0  0
  161.1290  207.4520  151.8360 N   0  0  0  0  0  0  0  0  0  0  0  0
  160.5530  208.3610  155.0130 C   0  0  0  0  0  2  0  0  0  0  0  0
  161.3070  208.3850  156.3000 C   0  0  0  0  0  0  0  0  0  0  0  0
  161.3200  207.3400  157.0580 N   0  0  0  0  0  1  0  0  0  0  0  0
  162.1400  209.4940  156.6120 N   0  0  0  0  0  2  0  0  0  0  0  0
  160.6210  205.3590  147.2940 C   0  0  0  0  0  2  0  0  0  0  0  0
  162.3110  206.4620  146.0330 O   0  0  0  0  0  0  0  0  0  0  0  0
  161.9540  205.4110  146.6290 C   0  0  0  0  0  0  0  0  0  0  0  0
  162.7970  204.3010  146.6880 O   0  0  0  0  0  0  0  0  0  0  0  0
  163.9820  204.2190  145.9090 C   0  0  0  0  0  1  0  0  0  0  0  0
  1  5  1  0  0  0  0
  2  7  1  0  0  0  0
  2  3  1  0  0  0  0
  4  6  1  0  0  0  0
  4  1  2  0  0  0  0
  5  3  2  0  0  0  0
  5 30  1  0  0  0  0
  6  2  2  0  0  0  0
  8  7  1  0  0  0  0
  8 10  1  0  0  0  0
  9 12  1  1  0  0  0
 10 11  1  0  0  0  0
 10  9  1  0  0  0  0
 11  9  1  0  0  0  0
 12 14  1  0  0  0  0
 13 14  1  0  0  0  0
 14 15  1  0  0  0  0
 14 17  1  0  0  0  0
 16 20  1  0  0  0  0
 16 22  1  1  0  0  0
 17 23  1  6  0  0  0
 17 19  1  0  0  0  0
 17 25  1  0  0  0  0
 19 18  1  6  0  0  0
 19 27  1  0  0  0  0
 19 21  1  0  0  0  0
 21 16  1  0  0  0  0
 21 24  2  0  0  0  0
 25 16  1  0  0  0  0
 26 27  2  0  0  0  0
 27 28  1  0  0  0  0
 28 29  1  0  0  0  0
 31 30  1  0  0  0  0
 31 45  1  0  0  0  0
 32 37  1  0  0  0  0
 32 38  1  0  0  0  0
 33 46  1  0  0  0  0
 33 44  1  0  0  0  0
 34 36  1  0  0  0  0
 35 36  1  0  0  0  0
 35 41  1  0  0  0  0
 37 34  1  0  0  0  0
 38 35  2  0  0  0  0
 39 41  2  0  0  0  0
 39 46  1  0  0  0  0
 40 42  1  0  0  0  0
 42 47  1  1  0  0  0
 43 38  1  0  0  0  0
 43 45  2  0  0  0  0
 44 42  1  0  0  0  0
 45 39  1  0  0  0  0
 46 40  1  0  0  0  0
 47 48  1  0  0  0  0
 48 50  2  0  0  0  0
 48 49  1  0  0  0  0
 51 43  1  0  0  0  0
 52 53  2  0  0  0  0
 53 54  1  0  0  0  0
 53 51  1  0  0  0  0
 55 54  1  0  0  0  0
M  END
>  <MODEL>
5

>  <REMARK>
 VINA RESULT:      -3.6      5.593     10.245
  Name = 
  16 active torsions:
  status: ('A' for Active; 'I' for Inactive)
    1  A    between atoms: O_2  and  C_28
    2  A    between atoms: O_2  and  C_44
    3  A    between atoms: O_4  and  C_40
    4  A    between atoms: C_6  and  C_20
    5  A    between atoms: C_8  and  C_22
    6  A    between atoms: C_10  and  C_32
    7  A    between atoms: C_11  and  C_38
    8  A    between atoms: C_14  and  C_38
    9  A    between atoms: C_19  and  C_40
   10  A    between atoms: C_19  and  C_45
   11  A    between atoms: C_20  and  C_22
   12  A    between atoms: C_27  and  C_54
   13  A    between atoms: C_28  and  C_49
   14  A    between atoms: C_32  and  C_39
   15  A    between atoms: N_35  and  C_51
   16  A    between atoms: C_51  and  C_54
                            x       y       z     vdW  Elec       q    Type
                         _______ _______ _______ _____ _____    ______ ____

>  <TORSDO>
F 16

$$$$
