=
 OpenBabel11052421583D

 30 32  0  0  1  0  0  0  0  0999 V2000
  161.6790  207.0660  152.3860 N   0  0  0  0  0  2  0  0  0  0  0  0
  160.5490  208.4800  154.0430 C   0  0  0  0  0  0  0  0  0  0  0  0
  162.2350  206.7950  151.0650 C   0  0  2  0  0  3  0  0  0  0  0  0
  160.0590  209.7250  154.4430 C   0  0  0  0  0  3  0  0  0  0  0  0
  160.3370  207.1020  155.1100 Cl  0  0  0  0  0  0  0  0  0  0  0  0
  162.0410  209.3280  150.7050 N   0  0  0  0  0  0  0  0  0  0  0  0
  160.2150  210.8390  153.6180 C   0  0  0  0  0  3  0  0  0  0  0  0
  161.1930  208.3450  152.8020 C   0  0  0  0  0  0  0  0  0  0  0  0
  162.5170  208.0430  150.2680 C   0  0  0  0  0  0  0  0  0  0  0  0
  163.2050  207.9490  149.2150 O   0  0  0  0  0  0  0  0  0  0  0  0
  160.8620  210.7090  152.3870 C   0  0  0  0  0  3  0  0  0  0  0  0
  161.3570  209.4630  151.9660 C   0  0  0  0  0  0  0  0  0  0  0  0
  162.3420  210.5130  149.9000 C   0  0  0  0  0  2  0  0  0  0  0  0
  161.6130  210.4620  148.5660 C   0  0  0  0  0  2  0  0  0  0  0  0
  161.6230  211.8270  147.9090 C   0  0  0  0  0  1  0  0  0  0  0  0
  161.4180  205.7090  150.3360 C   0  0  1  0  0  3  0  0  0  0  0  0
  161.0750  204.7300  152.6890 C   0  0  0  0  0  1  0  0  0  0  0  0
  160.7900  204.5970  151.1990 C   0  0  2  0  0  3  0  0  0  0  0  0
  160.7630  202.9290  149.3030 N   0  0  0  0  0  2  0  0  0  0  0  0
  161.5250  202.3230  151.4260 O   0  0  0  0  0  0  0  0  0  0  0  0
  161.0450  203.2170  150.6740 C   0  0  0  0  0  0  0  0  0  0  0  0
  161.2370  200.5870  148.2580 C   0  0  0  0  0  3  0  0  0  0  0  0
  161.0180  201.6700  148.7410 C   0  0  0  0  0  0  0  0  0  0  0  0
  160.4020  206.3110  149.3720 C   0  0  0  0  0  2  0  0  0  0  0  0
  161.9410  205.8680  147.4950 C   0  0  1  0  0  3  0  0  0  0  0  0
  160.8160  206.7430  146.9740 C   0  0  0  0  0  2  0  0  0  0  0  0
  160.5250  205.6720  148.0020 C   0  0  2  0  0  3  0  0  0  0  0  0
  161.2950  203.9030  146.0910 O   0  0  0  0  0  1  0  0  0  0  0  0
  162.2690  204.8060  146.4980 C   0  0  0  0  0  0  0  0  0  0  0  0
  163.4210  204.7520  145.9910 O   0  0  0  0  0  0  0  0  0  0  0  0
  1  8  1  0  0  0  0
  2  4  1  0  0  0  0
  2  5  1  0  0  0  0
  3 16  1  6  0  0  0
  3  1  1  0  0  0  0
  6 12  1  0  0  0  0
  7  4  2  0  0  0  0
  8  2  2  0  0  0  0
  9  6  1  0  0  0  0
  9  3  1  0  0  0  0
 10  9  2  0  0  0  0
 11  7  1  0  0  0  0
 12 11  2  0  0  0  0
 12  8  1  0  0  0  0
 13  6  1  0  0  0  0
 14 13  1  0  0  0  0
 15 14  1  0  0  0  0
 16 24  1  1  0  0  0
 16 18  1  0  0  0  0
 18 17  1  1  0  0  0
 19 21  1  0  0  0  0
 21 18  1  0  0  0  0
 21 20  2  0  0  0  0
 22 23  3  0  0  0  0
 23 19  1  0  0  0  0
 25 29  1  6  0  0  0
 25 27  1  0  0  0  0
 26 25  1  0  0  0  0
 26 27  1  0  0  0  0
 27 24  1  1  0  0  0
 28 29  1  0  0  0  0
 30 29  2  0  0  0  0
M  END
>  <MODEL>
1

>  <REMARK>
 VINA RESULT:      -7.8      0.000      0.000
  Name = 
  9 active torsions:
  status: ('A' for Active; 'I' for Inactive)
    1  A    between atoms: C_3  and  C_11
    2  A    between atoms: C_3  and  N_19
    3  A    between atoms: C_4  and  C_13
    4  A    between atoms: N_5  and  C_21
    5  A    between atoms: C_7  and  C_15
    6  A    between atoms: C_8  and  C_12
    7  A    between atoms: C_8  and  C_13
    8  A    between atoms: C_13  and  C_27
    9  A    between atoms: C_27  and  C_30
                            x       y       z     vdW  Elec       q    Type
                         _______ _______ _______ _____ _____    ______ ____

>  <TORSDO>
F 9

$$$$
=
 OpenBabel11052421583D

 30 32  0  0  1  0  0  0  0  0999 V2000
  161.8970  207.9970  151.5340 N   0  0  0  0  0  2  0  0  0  0  0  0
  161.6530  207.9770  149.0930 C   0  0  0  0  0  0  0  0  0  0  0  0
  161.6590  207.4700  152.8730 C   0  0  2  0  0  3  0  0  0  0  0  0
  161.2590  207.3320  147.9180 C   0  0  0  0  0  3  0  0  0  0  0  0
  162.3210  209.5980  148.9880 Cl  0  0  0  0  0  0  0  0  0  0  0  0
  160.8520  205.3580  151.6590 N   0  0  0  0  0  0  0  0  0  0  0  0
  160.7270  206.0440  147.9700 C   0  0  0  0  0  3  0  0  0  0  0  0
  161.5080  207.3300  150.3320 C   0  0  0  0  0  0  0  0  0  0  0  0
  161.2220  206.0270  152.8780 C   0  0  0  0  0  0  0  0  0  0  0  0
  161.2100  205.3990  153.9720 O   0  0  0  0  0  0  0  0  0  0  0  0
  160.5890  205.3950  149.1980 C   0  0  0  0  0  3  0  0  0  0  0  0
  160.9770  206.0300  150.3900 C   0  0  0  0  0  0  0  0  0  0  0  0
  160.4370  203.9550  151.7120 C   0  0  0  0  0  2  0  0  0  0  0  0
  161.6080  203.0310  151.4210 C   0  0  0  0  0  2  0  0  0  0  0  0
  161.1850  201.9290  150.4720 C   0  0  0  0  0  1  0  0  0  0  0  0
  160.7830  208.4340  153.6980 C   0  0  1  0  0  3  0  0  0  0  0  0
  159.3640  207.7410  155.7280 C   0  0  0  0  0  1  0  0  0  0  0  0
  160.7230  208.2080  155.2210 C   0  0  2  0  0  3  0  0  0  0  0  0
  162.6920  209.5950  155.9800 N   0  0  0  0  0  2  0  0  0  0  0  0
  160.5260  210.0920  156.6970 O   0  0  0  0  0  0  0  0  0  0  0  0
  161.2860  209.3460  156.0180 C   0  0  0  0  0  0  0  0  0  0  0  0
  163.7790  211.5900  157.2610 C   0  0  0  0  0  3  0  0  0  0  0  0
  163.2760  210.6680  156.6680 C   0  0  0  0  0  0  0  0  0  0  0  0
  161.0650  209.8930  153.3590 C   0  0  0  0  0  2  0  0  0  0  0  0
  159.8710  212.0250  153.0180 C   0  0  1  0  0  3  0  0  0  0  0  0
  158.9570  211.1040  153.8040 C   0  0  0  0  0  2  0  0  0  0  0  0
  159.8490  210.5370  152.7230 C   0  0  2  0  0  3  0  0  0  0  0  0
  159.6500  213.0090  150.7300 O   0  0  0  0  0  0  0  0  0  0  0  0
  159.0890  212.7560  151.9760 C   0  0  0  0  0  0  0  0  0  0  0  0
  157.9030  213.1100  152.2100 O   0  0  0  0  0  1  0  0  0  0  0  0
  1  3  1  0  0  0  0
  2  8  1  0  0  0  0
  3  9  1  0  0  0  0
  3 16  1  6  0  0  0
  4  7  1  0  0  0  0
  4  2  2  0  0  0  0
  5  2  1  0  0  0  0
  6 13  1  0  0  0  0
  6  9  1  0  0  0  0
  7 11  2  0  0  0  0
  8 12  2  0  0  0  0
  8  1  1  0  0  0  0
  9 10  2  0  0  0  0
 11 12  1  0  0  0  0
 12  6  1  0  0  0  0
 14 13  1  0  0  0  0
 15 14  1  0  0  0  0
 16 24  1  1  0  0  0
 16 18  1  0  0  0  0
 18 17  1  1  0  0  0
 18 21  1  0  0  0  0
 19 21  1  0  0  0  0
 19 23  1  0  0  0  0
 21 20  2  0  0  0  0
 23 22  3  0  0  0  0
 25 29  1  6  0  0  0
 25 26  1  0  0  0  0
 27 25  1  0  0  0  0
 27 24  1  1  0  0  0
 27 26  1  0  0  0  0
 28 29  2  0  0  0  0
 29 30  1  0  0  0  0
M  END
>  <MODEL>
2

>  <REMARK>
 VINA RESULT:      -7.2      3.367      7.677
  Name = 
  9 active torsions:
  status: ('A' for Active; 'I' for Inactive)
    1  A    between atoms: C_3  and  C_11
    2  A    between atoms: C_3  and  N_19
    3  A    between atoms: C_4  and  C_13
    4  A    between atoms: N_5  and  C_21
    5  A    between atoms: C_7  and  C_15
    6  A    between atoms: C_8  and  C_12
    7  A    between atoms: C_8  and  C_13
    8  A    between atoms: C_13  and  C_27
    9  A    between atoms: C_27  and  C_30
                            x       y       z     vdW  Elec       q    Type
                         _______ _______ _______ _____ _____    ______ ____

>  <TORSDO>
F 9

$$$$
=
 OpenBabel11052421583D

 30 32  0  0  1  0  0  0  0  0999 V2000
  161.7070  207.4730  152.3630 N   0  0  0  0  0  2  0  0  0  0  0  0
  160.7800  207.2850  154.6260 C   0  0  0  0  0  0  0  0  0  0  0  0
  161.8960  208.1460  151.0820 C   0  0  2  0  0  3  0  0  0  0  0  0
  160.1120  207.8510  155.7150 C   0  0  0  0  0  3  0  0  0  0  0  0
  161.2800  205.6050  154.7180 Cl  0  0  0  0  0  0  0  0  0  0  0  0
  160.9200  210.2020  152.2680 N   0  0  0  0  0  0  0  0  0  0  0  0
  159.7050  209.1850  155.6720 C   0  0  0  0  0  3  0  0  0  0  0  0
  161.0370  208.0580  153.4820 C   0  0  0  0  0  0  0  0  0  0  0  0
  161.5760  209.6180  151.1280 C   0  0  0  0  0  0  0  0  0  0  0  0
  161.9180  210.3450  150.1560 O   0  0  0  0  0  0  0  0  0  0  0  0
  159.9660  209.9570  154.5390 C   0  0  0  0  0  3  0  0  0  0  0  0
  160.6330  209.4030  153.4330 C   0  0  0  0  0  0  0  0  0  0  0  0
  160.6330  211.6370  152.2700 C   0  0  0  0  0  2  0  0  0  0  0  0
  159.1650  211.8970  151.9690 C   0  0  0  0  0  2  0  0  0  0  0  0
  158.6340  213.0020  152.8580 C   0  0  0  0  0  1  0  0  0  0  0  0
  161.2270  207.3540  149.9400 C   0  0  1  0  0  3  0  0  0  0  0  0
  162.9870  208.1730  148.2520 C   0  0  0  0  0  1  0  0  0  0  0  0
  162.0910  207.0270  148.7060 C   0  0  2  0  0  3  0  0  0  0  0  0
  162.0030  205.5790  146.6390 N   0  0  0  0  0  2  0  0  0  0  0  0
  160.0730  206.5900  147.4810 O   0  0  0  0  0  0  0  0  0  0  0  0
  161.3190  206.4060  147.5820 C   0  0  0  0  0  0  0  0  0  0  0  0
  160.7540  204.3820  144.6880 C   0  0  0  0  0  3  0  0  0  0  0  0
  161.3310  204.9350  145.5900 C   0  0  0  0  0  0  0  0  0  0  0  0
  160.4940  206.1210  150.4530 C   0  0  0  0  0  2  0  0  0  0  0  0
  160.3990  203.6560  150.3920 C   0  0  1  0  0  3  0  0  0  0  0  0
  161.4630  204.0520  151.3980 C   0  0  0  0  0  2  0  0  0  0  0  0
  161.2800  204.8630  150.1340 C   0  0  2  0  0  3  0  0  0  0  0  0
  160.8780  201.2190  150.1010 O   0  0  0  0  0  1  0  0  0  0  0  0
  160.8730  202.5030  149.5700 C   0  0  0  0  0  0  0  0  0  0  0  0
  161.2330  202.6850  148.3770 O   0  0  0  0  0  0  0  0  0  0  0  0
  1  8  1  0  0  0  0
  2  5  1  0  0  0  0
  2  4  1  0  0  0  0
  3 16  1  6  0  0  0
  3  9  1  0  0  0  0
  3  1  1  0  0  0  0
  6 13  1  0  0  0  0
  6 12  1  0  0  0  0
  7  4  2  0  0  0  0
  8  2  2  0  0  0  0
  9  6  1  0  0  0  0
 10  9  2  0  0  0  0
 11  7  1  0  0  0  0
 12  8  1  0  0  0  0
 12 11  2  0  0  0  0
 14 13  1  0  0  0  0
 14 15  1  0  0  0  0
 16 24  1  1  0  0  0
 18 17  1  6  0  0  0
 18 16  1  0  0  0  0
 19 21  1  0  0  0  0
 20 21  2  0  0  0  0
 21 18  1  0  0  0  0
 22 23  3  0  0  0  0
 23 19  1  0  0  0  0
 25 29  1  6  0  0  0
 25 26  1  0  0  0  0
 27 25  1  0  0  0  0
 27 24  1  1  0  0  0
 27 26  1  0  0  0  0
 29 28  1  0  0  0  0
 30 29  2  0  0  0  0
M  END
>  <MODEL>
3

>  <REMARK>
 VINA RESULT:      -7.2      1.889      3.587
  Name = 
  9 active torsions:
  status: ('A' for Active; 'I' for Inactive)
    1  A    between atoms: C_3  and  C_11
    2  A    between atoms: C_3  and  N_19
    3  A    between atoms: C_4  and  C_13
    4  A    between atoms: N_5  and  C_21
    5  A    between atoms: C_7  and  C_15
    6  A    between atoms: C_8  and  C_12
    7  A    between atoms: C_8  and  C_13
    8  A    between atoms: C_13  and  C_27
    9  A    between atoms: C_27  and  C_30
                            x       y       z     vdW  Elec       q    Type
                         _______ _______ _______ _____ _____    ______ ____

>  <TORSDO>
F 9

$$$$
=
 OpenBabel11052421583D

 30 32  0  0  1  0  0  0  0  0999 V2000
  160.3650  205.4250  150.5280 N   0  0  0  0  0  2  0  0  0  0  0  0
  160.5710  202.9980  150.2330 C   0  0  0  0  0  0  0  0  0  0  0  0
  160.6280  206.8110  150.1570 C   0  0  2  0  0  3  0  0  0  0  0  0
  160.9530  201.8970  149.4620 C   0  0  0  0  0  3  0  0  0  0  0  0
  159.8900  202.7220  151.8270 Cl  0  0  0  0  0  0  0  0  0  0  0  0
  161.4330  205.8310  147.9260 N   0  0  0  0  0  0  0  0  0  0  0  0
  161.4960  202.0860  148.1900 C   0  0  0  0  0  3  0  0  0  0  0  0
  160.7410  204.2990  149.7310 C   0  0  0  0  0  0  0  0  0  0  0  0
  161.0770  206.9720  148.7270 C   0  0  0  0  0  0  0  0  0  0  0  0
  161.1100  208.1300  148.2270 O   0  0  0  0  0  0  0  0  0  0  0  0
  161.6580  203.3780  147.6860 C   0  0  0  0  0  3  0  0  0  0  0  0
  161.2840  204.4960  148.4500 C   0  0  0  0  0  0  0  0  0  0  0  0
  161.8610  206.0350  146.5410 C   0  0  0  0  0  2  0  0  0  0  0  0
  160.6690  206.0210  145.5970 C   0  0  0  0  0  2  0  0  0  0  0  0
  160.8930  205.0180  144.4840 C   0  0  0  0  0  1  0  0  0  0  0  0
  161.5090  207.5070  151.2140 C   0  0  1  0  0  3  0  0  0  0  0  0
  162.8680  205.3540  151.5760 C   0  0  0  0  0  1  0  0  0  0  0  0
  162.2690  206.6050  152.2060 C   0  0  2  0  0  3  0  0  0  0  0  0
  161.1770  207.4020  154.3390 N   0  0  0  0  0  2  0  0  0  0  0  0
  161.1330  205.1450  153.7370 O   0  0  0  0  0  0  0  0  0  0  0  0
  161.5050  206.3210  153.4630 C   0  0  0  0  0  0  0  0  0  0  0  0
  159.7840  207.0430  156.5150 C   0  0  0  0  0  3  0  0  0  0  0  0
  160.4280  207.2090  155.5090 C   0  0  0  0  0  0  0  0  0  0  0  0
  162.4270  208.5530  150.5920 C   0  0  0  0  0  2  0  0  0  0  0  0
  161.0530  210.0930  151.9460 C   0  0  1  0  0  3  0  0  0  0  0  0
  161.6210  210.8820  150.7810 C   0  0  0  0  0  2  0  0  0  0  0  0
  162.4560  209.8090  151.4420 C   0  0  2  0  0  3  0  0  0  0  0  0
  160.2110  211.9270  153.4210 O   0  0  0  0  0  0  0  0  0  0  0  0
  161.1230  210.9030  153.1980 C   0  0  0  0  0  0  0  0  0  0  0  0
  161.9860  210.6340  154.0760 O   0  0  0  0  0  1  0  0  0  0  0  0
  2  5  1  0  0  0  0
  3  1  1  0  0  0  0
  3 16  1  1  0  0  0
  4  2  2  0  0  0  0
  6 12  1  0  0  0  0
  6  9  1  0  0  0  0
  7  4  1  0  0  0  0
  8  2  1  0  0  0  0
  8  1  1  0  0  0  0
  9  3  1  0  0  0  0
 10  9  2  0  0  0  0
 11  7  2  0  0  0  0
 11 12  1  0  0  0  0
 12  8  2  0  0  0  0
 13  6  1  0  0  0  0
 14 13  1  0  0  0  0
 15 14  1  0  0  0  0
 16 24  1  6  0  0  0
 16 18  1  0  0  0  0
 18 17  1  6  0  0  0
 18 21  1  0  0  0  0
 19 23  1  0  0  0  0
 21 20  2  0  0  0  0
 21 19  1  0  0  0  0
 23 22  3  0  0  0  0
 25 29  1  1  0  0  0
 26 27  1  0  0  0  0
 26 25  1  0  0  0  0
 27 24  1  6  0  0  0
 27 25  1  0  0  0  0
 29 28  2  0  0  0  0
 29 30  1  0  0  0  0
M  END
>  <MODEL>
4

>  <REMARK>
 VINA RESULT:      -7.2      2.542      6.510
  Name = 
  9 active torsions:
  status: ('A' for Active; 'I' for Inactive)
    1  A    between atoms: C_3  and  C_11
    2  A    between atoms: C_3  and  N_19
    3  A    between atoms: C_4  and  C_13
    4  A    between atoms: N_5  and  C_21
    5  A    between atoms: C_7  and  C_15
    6  A    between atoms: C_8  and  C_12
    7  A    between atoms: C_8  and  C_13
    8  A    between atoms: C_13  and  C_27
    9  A    between atoms: C_27  and  C_30
                            x       y       z     vdW  Elec       q    Type
                         _______ _______ _______ _____ _____    ______ ____

>  <TORSDO>
F 9

$$$$
=
 OpenBabel11052421583D

 30 32  0  0  1  0  0  0  0  0999 V2000
  160.6400  205.3040  150.6390 N   0  0  0  0  0  2  0  0  0  0  0  0
  160.6790  202.8510  150.6480 C   0  0  0  0  0  0  0  0  0  0  0  0
  160.8740  206.6100  150.0330 C   0  0  2  0  0  3  0  0  0  0  0  0
  160.8410  201.6370  149.9750 C   0  0  0  0  0  3  0  0  0  0  0  0
  160.3450  202.8270  152.3720 Cl  0  0  0  0  0  0  0  0  0  0  0  0
  161.1400  205.3000  147.8420 N   0  0  0  0  0  0  0  0  0  0  0  0
  161.1050  201.6240  148.6060 C   0  0  0  0  0  3  0  0  0  0  0  0
  160.7900  204.0620  149.9470 C   0  0  0  0  0  0  0  0  0  0  0  0
  161.0110  206.5550  148.5330 C   0  0  0  0  0  0  0  0  0  0  0  0
  160.9840  207.6350  147.8810 O   0  0  0  0  0  0  0  0  0  0  0  0
  161.2080  202.8270  147.9040 C   0  0  0  0  0  3  0  0  0  0  0  0
  161.0520  204.0570  148.5660 C   0  0  0  0  0  0  0  0  0  0  0  0
  161.2680  205.2970  146.3840 C   0  0  0  0  0  2  0  0  0  0  0  0
  162.6960  205.6090  145.9630 C   0  0  0  0  0  2  0  0  0  0  0  0
  163.4410  204.3300  145.6420 C   0  0  0  0  0  1  0  0  0  0  0  0
  161.9890  207.3710  150.7770 C   0  0  1  0  0  3  0  0  0  0  0  0
  160.4930  209.3310  151.5090 C   0  0  0  0  0  1  0  0  0  0  0  0
  161.8290  208.8970  150.9200 C   0  0  2  0  0  3  0  0  0  0  0  0
  161.9560  211.0640  149.6300 N   0  0  0  0  0  2  0  0  0  0  0  0
  162.7400  209.0680  148.7050 O   0  0  0  0  0  0  0  0  0  0  0  0
  162.1980  209.6570  149.6820 C   0  0  0  0  0  0  0  0  0  0  0  0
  162.6260  212.5060  147.5620 C   0  0  0  0  0  3  0  0  0  0  0  0
  162.3160  211.8390  148.5180 C   0  0  0  0  0  0  0  0  0  0  0  0
  162.3360  206.7170  152.1090 C   0  0  0  0  0  2  0  0  0  0  0  0
  161.6710  206.9710  154.4720 C   0  0  1  0  0  3  0  0  0  0  0  0
  161.2070  205.6040  154.0050 C   0  0  0  0  0  2  0  0  0  0  0  0
  161.1550  206.7810  153.0580 C   0  0  2  0  0  3  0  0  0  0  0  0
  160.1200  206.9600  156.4330 O   0  0  0  0  0  1  0  0  0  0  0  0
  160.6140  207.6120  155.3100 C   0  0  0  0  0  0  0  0  0  0  0  0
  160.1970  208.7660  155.0250 O   0  0  0  0  0  0  0  0  0  0  0  0
  2  5  1  0  0  0  0
  3  1  1  0  0  0  0
  3 16  1  1  0  0  0
  4  2  1  0  0  0  0
  6  9  1  0  0  0  0
  6 12  1  0  0  0  0
  7  4  2  0  0  0  0
  8  1  1  0  0  0  0
  8  2  2  0  0  0  0
  9  3  1  0  0  0  0
 10  9  2  0  0  0  0
 11 12  2  0  0  0  0
 11  7  1  0  0  0  0
 12  8  1  0  0  0  0
 13  6  1  0  0  0  0
 14 13  1  0  0  0  0
 15 14  1  0  0  0  0
 16 18  1  0  0  0  0
 16 24  1  1  0  0  0
 18 17  1  6  0  0  0
 19 21  1  0  0  0  0
 20 21  2  0  0  0  0
 21 18  1  0  0  0  0
 22 23  3  0  0  0  0
 23 19  1  0  0  0  0
 25 29  1  1  0  0  0
 26 25  1  0  0  0  0
 27 24  1  6  0  0  0
 27 26  1  0  0  0  0
 27 25  1  0  0  0  0
 29 28  1  0  0  0  0
 30 29  2  0  0  0  0
M  END
>  <MODEL>
5

>  <REMARK>
 VINA RESULT:      -7.0      2.444      7.111
  Name = 
  9 active torsions:
  status: ('A' for Active; 'I' for Inactive)
    1  A    between atoms: C_3  and  C_11
    2  A    between atoms: C_3  and  N_19
    3  A    between atoms: C_4  and  C_13
    4  A    between atoms: N_5  and  C_21
    5  A    between atoms: C_7  and  C_15
    6  A    between atoms: C_8  and  C_12
    7  A    between atoms: C_8  and  C_13
    8  A    between atoms: C_13  and  C_27
    9  A    between atoms: C_27  and  C_30
                            x       y       z     vdW  Elec       q    Type
                         _______ _______ _______ _____ _____    ______ ____

>  <TORSDO>
F 9

$$$$
=
 OpenBabel11052421583D

 30 32  0  0  1  0  0  0  0  0999 V2000
  160.6620  205.0540  150.2280 N   0  0  0  0  0  2  0  0  0  0  0  0
  160.8890  202.6330  150.5550 C   0  0  0  0  0  0  0  0  0  0  0  0
  160.7490  206.2770  149.4380 C   0  0  2  0  0  3  0  0  0  0  0  0
  161.0930  201.3520  150.0360 C   0  0  0  0  0  3  0  0  0  0  0  0
  160.6850  202.8240  152.2880 Cl  0  0  0  0  0  0  0  0  0  0  0  0
  160.9540  204.7010  147.4230 N   0  0  0  0  0  0  0  0  0  0  0  0
  161.2560  201.1690  148.6630 C   0  0  0  0  0  3  0  0  0  0  0  0
  160.8550  203.7420  149.6940 C   0  0  0  0  0  0  0  0  0  0  0  0
  160.7800  206.0270  147.9510 C   0  0  0  0  0  0  0  0  0  0  0  0
  160.6220  207.0040  147.1680 O   0  0  0  0  0  0  0  0  0  0  0  0
  161.2140  202.2690  147.8030 C   0  0  0  0  0  3  0  0  0  0  0  0
  161.0140  203.5650  148.3080 C   0  0  0  0  0  0  0  0  0  0  0  0
  160.9740  204.5060  145.9720 C   0  0  0  0  0  2  0  0  0  0  0  0
  162.1860  205.1830  145.3510 C   0  0  0  0  0  2  0  0  0  0  0  0
  163.4560  204.7040  146.0220 C   0  0  0  0  0  1  0  0  0  0  0  0
  161.8550  207.2060  149.9800 C   0  0  1  0  0  3  0  0  0  0  0  0
  162.1730  209.4390  148.7460 C   0  0  0  0  0  1  0  0  0  0  0  0
  161.5820  208.7220  149.9530 C   0  0  2  0  0  3  0  0  0  0  0  0
  160.8070  209.8780  152.0600 N   0  0  0  0  0  2  0  0  0  0  0  0
  163.0800  209.5510  151.6360 O   0  0  0  0  0  0  0  0  0  0  0  0
  161.8860  209.4090  151.2500 C   0  0  0  0  0  0  0  0  0  0  0  0
  161.2070  211.0170  154.3720 C   0  0  0  0  0  3  0  0  0  0  0  0
  161.0230  210.4900  153.3030 C   0  0  0  0  0  0  0  0  0  0  0  0
  162.3620  206.7530  151.3440 C   0  0  0  0  0  2  0  0  0  0  0  0
  161.8550  206.7230  153.7590 C   0  0  1  0  0  3  0  0  0  0  0  0
  161.2060  205.5020  153.1350 C   0  0  0  0  0  2  0  0  0  0  0  0
  161.2480  206.8060  152.3710 C   0  0  2  0  0  3  0  0  0  0  0  0
  161.4180  207.8280  155.9590 O   0  0  0  0  0  1  0  0  0  0  0  0
  160.9290  207.3460  154.7510 C   0  0  0  0  0  0  0  0  0  0  0  0
  159.7060  207.4750  154.4780 O   0  0  0  0  0  0  0  0  0  0  0  0
  2  5  1  0  0  0  0
  3 16  1  1  0  0  0
  3  1  1  0  0  0  0
  4  2  1  0  0  0  0
  6  9  1  0  0  0  0
  6 12  1  0  0  0  0
  7  4  2  0  0  0  0
  8  1  1  0  0  0  0
  8  2  2  0  0  0  0
  9  3  1  0  0  0  0
 10  9  2  0  0  0  0
 11 12  2  0  0  0  0
 11  7  1  0  0  0  0
 12  8  1  0  0  0  0
 13  6  1  0  0  0  0
 14 13  1  0  0  0  0
 14 15  1  0  0  0  0
 16 24  1  1  0  0  0
 18 17  1  6  0  0  0
 18 16  1  0  0  0  0
 18 21  1  0  0  0  0
 19 23  1  0  0  0  0
 21 20  2  0  0  0  0
 21 19  1  0  0  0  0
 23 22  3  0  0  0  0
 25 29  1  1  0  0  0
 26 25  1  0  0  0  0
 27 24  1  6  0  0  0
 27 26  1  0  0  0  0
 27 25  1  0  0  0  0
 29 28  1  0  0  0  0
 30 29  2  0  0  0  0
M  END
>  <MODEL>
6

>  <REMARK>
 VINA RESULT:      -7.0      2.454      7.124
  Name = 
  9 active torsions:
  status: ('A' for Active; 'I' for Inactive)
    1  A    between atoms: C_3  and  C_11
    2  A    between atoms: C_3  and  N_19
    3  A    between atoms: C_4  and  C_13
    4  A    between atoms: N_5  and  C_21
    5  A    between atoms: C_7  and  C_15
    6  A    between atoms: C_8  and  C_12
    7  A    between atoms: C_8  and  C_13
    8  A    between atoms: C_13  and  C_27
    9  A    between atoms: C_27  and  C_30
                            x       y       z     vdW  Elec       q    Type
                         _______ _______ _______ _____ _____    ______ ____

>  <TORSDO>
F 9

$$$$
=
 OpenBabel11052421583D

 30 32  0  0  1  0  0  0  0  0999 V2000
  160.5570  205.3680  149.0690 N   0  0  0  0  0  2  0  0  0  0  0  0
  161.3190  207.6560  148.6210 C   0  0  0  0  0  0  0  0  0  0  0  0
  160.5010  204.1430  149.8590 C   0  0  2  0  0  3  0  0  0  0  0  0
  161.9560  208.8280  149.0400 C   0  0  0  0  0  3  0  0  0  0  0  0
  160.6940  207.5710  146.9830 Cl  0  0  0  0  0  0  0  0  0  0  0  0
  161.5450  205.5600  151.7260 N   0  0  0  0  0  0  0  0  0  0  0  0
  162.4610  208.9260  150.3370 C   0  0  0  0  0  3  0  0  0  0  0  0
  161.1940  206.5710  149.5040 C   0  0  0  0  0  0  0  0  0  0  0  0
  160.9240  204.3370  151.2930 C   0  0  0  0  0  0  0  0  0  0  0  0
  160.6990  203.4140  152.1230 O   0  0  0  0  0  0  0  0  0  0  0  0
  162.3310  207.8520  151.2190 C   0  0  0  0  0  3  0  0  0  0  0  0
  161.6980  206.6650  150.8130 C   0  0  0  0  0  0  0  0  0  0  0  0
  161.9370  205.7040  153.1290 C   0  0  0  0  0  2  0  0  0  0  0  0
  160.7870  206.2510  153.9600 C   0  0  0  0  0  2  0  0  0  0  0  0
  161.2020  207.5320  154.6530 C   0  0  0  0  0  1  0  0  0  0  0  0
  161.1810  202.9760  149.1150 C   0  0  1  0  0  3  0  0  0  0  0  0
  159.1260  201.4540  149.3860 C   0  0  0  0  0  1  0  0  0  0  0  0
  160.2660  201.9100  148.4830 C   0  0  2  0  0  3  0  0  0  0  0  0
  160.6700  200.3450  146.5420 N   0  0  0  0  0  2  0  0  0  0  0  0
  161.9560  200.2040  148.4870 O   0  0  0  0  0  0  0  0  0  0  0  0
  161.0150  200.7690  147.8630 C   0  0  0  0  0  0  0  0  0  0  0  0
  161.9520  198.4260  145.3290 C   0  0  0  0  0  3  0  0  0  0  0  0
  161.3590  199.3130  145.8900 C   0  0  0  0  0  0  0  0  0  0  0  0
  162.2350  203.4650  148.1290 C   0  0  0  0  0  2  0  0  0  0  0  0
  162.0070  203.7770  145.6920 C   0  0  1  0  0  3  0  0  0  0  0  0
  162.6810  205.0140  146.2550 C   0  0  0  0  0  2  0  0  0  0  0  0
  161.5980  204.3180  147.0490 C   0  0  2  0  0  3  0  0  0  0  0  0
  161.2050  205.2740  143.8560 O   0  0  0  0  0  0  0  0  0  0  0  0
  160.9920  204.1670  144.6690 C   0  0  0  0  0  0  0  0  0  0  0  0
  159.9550  203.4690  144.5110 O   0  0  0  0  0  1  0  0  0  0  0  0
  1  8  1  0  0  0  0
  1  3  1  0  0  0  0
  2  4  2  0  0  0  0
  2  8  1  0  0  0  0
  3 16  1  6  0  0  0
  3  9  1  0  0  0  0
  4  7  1  0  0  0  0
  5  2  1  0  0  0  0
  6 13  1  0  0  0  0
  7 11  2  0  0  0  0
  8 12  2  0  0  0  0
  9  6  1  0  0  0  0
  9 10  2  0  0  0  0
 12 11  1  0  0  0  0
 12  6  1  0  0  0  0
 13 14  1  0  0  0  0
 14 15  1  0  0  0  0
 16 24  1  6  0  0  0
 18 16  1  0  0  0  0
 18 17  1  1  0  0  0
 19 21  1  0  0  0  0
 21 18  1  0  0  0  0
 21 20  2  0  0  0  0
 22 23  3  0  0  0  0
 23 19  1  0  0  0  0
 25 29  1  6  0  0  0
 25 26  1  0  0  0  0
 25 27  1  0  0  0  0
 26 27  1  0  0  0  0
 27 24  1  1  0  0  0
 28 29  2  0  0  0  0
 30 29  1  0  0  0  0
M  END
>  <MODEL>
7

>  <REMARK>
 VINA RESULT:      -6.8      2.680      4.484
  Name = 
  9 active torsions:
  status: ('A' for Active; 'I' for Inactive)
    1  A    between atoms: C_3  and  C_11
    2  A    between atoms: C_3  and  N_19
    3  A    between atoms: C_4  and  C_13
    4  A    between atoms: N_5  and  C_21
    5  A    between atoms: C_7  and  C_15
    6  A    between atoms: C_8  and  C_12
    7  A    between atoms: C_8  and  C_13
    8  A    between atoms: C_13  and  C_27
    9  A    between atoms: C_27  and  C_30
                            x       y       z     vdW  Elec       q    Type
                         _______ _______ _______ _____ _____    ______ ____

>  <TORSDO>
F 9

$$$$
=
 OpenBabel11052421583D

 30 32  0  0  1  0  0  0  0  0999 V2000
  161.8400  209.3620  151.2300 N   0  0  0  0  0  2  0  0  0  0  0  0
  161.9600  208.7030  148.8700 C   0  0  0  0  0  0  0  0  0  0  0  0
  161.4320  209.1740  152.6180 C   0  0  2  0  0  3  0  0  0  0  0  0
  161.7730  207.7500  147.8650 C   0  0  0  0  0  3  0  0  0  0  0  0
  162.5600  210.2930  148.4310 Cl  0  0  0  0  0  0  0  0  0  0  0  0
  160.9100  206.7640  151.9070 N   0  0  0  0  0  0  0  0  0  0  0  0
  161.2990  206.4780  148.1840 C   0  0  0  0  0  3  0  0  0  0  0  0
  161.6640  208.3820  150.2050 C   0  0  0  0  0  0  0  0  0  0  0  0
  161.0650  207.7490  152.9450 C   0  0  0  0  0  0  0  0  0  0  0  0
  160.9210  207.4200  154.1540 O   0  0  0  0  0  0  0  0  0  0  0  0
  161.0120  206.1530  149.5110 C   0  0  0  0  0  3  0  0  0  0  0  0
  161.1890  207.1000  150.5340 C   0  0  0  0  0  0  0  0  0  0  0  0
  160.5560  205.3910  152.2730 C   0  0  0  0  0  2  0  0  0  0  0  0
  161.7190  204.4450  152.0180 C   0  0  0  0  0  2  0  0  0  0  0  0
  161.2040  203.0740  151.6310 C   0  0  0  0  0  1  0  0  0  0  0  0
  160.4000  210.2400  153.0380 C   0  0  1  0  0  3  0  0  0  0  0  0
  161.9950  210.6950  155.0040 C   0  0  0  0  0  1  0  0  0  0  0  0
  160.6240  210.9470  154.3890 C   0  0  2  0  0  3  0  0  0  0  0  0
  158.5630  211.8090  155.5670 N   0  0  0  0  0  2  0  0  0  0  0  0
  159.3670  209.6540  155.9740 O   0  0  0  0  0  0  0  0  0  0  0  0
  159.5000  210.7500  155.3610 C   0  0  0  0  0  0  0  0  0  0  0  0
  156.5240  211.5550  157.1740 C   0  0  0  0  0  3  0  0  0  0  0  0
  157.4660  211.6720  156.4310 C   0  0  0  0  0  0  0  0  0  0  0  0
  160.1260  211.2410  151.9220 C   0  0  0  0  0  2  0  0  0  0  0  0
  158.3850  212.9480  151.5440 C   0  0  1  0  0  3  0  0  0  0  0  0
  159.7310  213.6480  151.5230 C   0  0  0  0  0  2  0  0  0  0  0  0
  159.4930  212.5010  152.4790 C   0  0  2  0  0  3  0  0  0  0  0  0
  156.3340  214.3750  151.6310 O   0  0  0  0  0  0  0  0  0  0  0  0
  157.3910  213.7690  152.2980 C   0  0  0  0  0  0  0  0  0  0  0  0
  157.4860  213.8810  153.5490 O   0  0  0  0  0  1  0  0  0  0  0  0
  1  3  1  0  0  0  0
  2  8  1  0  0  0  0
  3  9  1  0  0  0  0
  3 16  1  6  0  0  0
  4  7  1  0  0  0  0
  4  2  2  0  0  0  0
  5  2  1  0  0  0  0
  6 13  1  0  0  0  0
  6  9  1  0  0  0  0
  7 11  2  0  0  0  0
  8 12  2  0  0  0  0
  8  1  1  0  0  0  0
  9 10  2  0  0  0  0
 11 12  1  0  0  0  0
 12  6  1  0  0  0  0
 14 13  1  0  0  0  0
 15 14  1  0  0  0  0
 16 24  1  6  0  0  0
 16 18  1  0  0  0  0
 18 17  1  1  0  0  0
 18 21  1  0  0  0  0
 19 23  1  0  0  0  0
 21 19  1  0  0  0  0
 21 20  2  0  0  0  0
 23 22  3  0  0  0  0
 25 29  1  1  0  0  0
 25 27  1  0  0  0  0
 26 25  1  0  0  0  0
 26 27  1  0  0  0  0
 27 24  1  6  0  0  0
 28 29  2  0  0  0  0
 29 30  1  0  0  0  0
M  END
>  <MODEL>
8

>  <REMARK>
 VINA RESULT:      -6.8      4.013      8.152
  Name = 
  9 active torsions:
  status: ('A' for Active; 'I' for Inactive)
    1  A    between atoms: C_3  and  C_11
    2  A    between atoms: C_3  and  N_19
    3  A    between atoms: C_4  and  C_13
    4  A    between atoms: N_5  and  C_21
    5  A    between atoms: C_7  and  C_15
    6  A    between atoms: C_8  and  C_12
    7  A    between atoms: C_8  and  C_13
    8  A    between atoms: C_13  and  C_27
    9  A    between atoms: C_27  and  C_30
                            x       y       z     vdW  Elec       q    Type
                         _______ _______ _______ _____ _____    ______ ____

>  <TORSDO>
F 9

$$$$
=
 OpenBabel11052421583D

 30 32  0  0  1  0  0  0  0  0999 V2000
  160.3210  205.4110  150.3020 N   0  0  0  0  0  2  0  0  0  0  0  0
  160.8200  203.0840  150.8960 C   0  0  0  0  0  0  0  0  0  0  0  0
  160.3560  206.5660  149.4130 C   0  0  2  0  0  3  0  0  0  0  0  0
  161.2660  201.8080  150.5390 C   0  0  0  0  0  3  0  0  0  0  0  0
  160.3470  203.3810  152.5610 Cl  0  0  0  0  0  0  0  0  0  0  0  0
  161.0550  204.8800  147.6100 N   0  0  0  0  0  0  0  0  0  0  0  0
  161.6460  201.5420  149.2240 C   0  0  0  0  0  3  0  0  0  0  0  0
  160.7620  204.1030  149.9320 C   0  0  0  0  0  0  0  0  0  0  0  0
  160.6320  206.2050  147.9750 C   0  0  0  0  0  0  0  0  0  0  0  0
  160.4590  207.0810  147.0850 O   0  0  0  0  0  0  0  0  0  0  0  0
  161.5820  202.5510  148.2610 C   0  0  0  0  0  3  0  0  0  0  0  0
  161.1400  203.8400  148.6040 C   0  0  0  0  0  0  0  0  0  0  0  0
  161.3080  204.5740  146.2000 C   0  0  0  0  0  2  0  0  0  0  0  0
  162.5960  205.2290  145.7260 C   0  0  0  0  0  2  0  0  0  0  0  0
  163.7800  204.3280  146.0120 C   0  0  0  0  0  1  0  0  0  0  0  0
  161.2390  207.6870  149.9990 C   0  0  1  0  0  3  0  0  0  0  0  0
  162.6940  205.9580  151.2270 C   0  0  0  0  0  1  0  0  0  0  0  0
  162.0730  207.3490  151.2500 C   0  0  2  0  0  3  0  0  0  0  0  0
  161.3220  206.6590  153.5610 N   0  0  0  0  0  2  0  0  0  0  0  0
  160.8500  208.7910  152.7310 O   0  0  0  0  0  0  0  0  0  0  0  0
  161.3710  207.6560  152.5380 C   0  0  0  0  0  0  0  0  0  0  0  0
  160.1990  207.1030  155.8720 C   0  0  0  0  0  3  0  0  0  0  0  0
  160.7190  206.8980  154.8040 C   0  0  0  0  0  0  0  0  0  0  0  0
  162.0850  208.3650  148.9290 C   0  0  0  0  0  2  0  0  0  0  0  0
  162.8230  210.7050  148.6660 C   0  0  1  0  0  3  0  0  0  0  0  0
  161.9560  210.6300  149.9100 C   0  0  0  0  0  2  0  0  0  0  0  0
  161.6140  209.7890  148.7010 C   0  0  2  0  0  3  0  0  0  0  0  0
  163.3960  212.9960  147.8430 O   0  0  0  0  0  1  0  0  0  0  0  0
  162.4970  211.9370  147.8880 C   0  0  0  0  0  0  0  0  0  0  0  0
  161.4220  212.0040  147.2340 O   0  0  0  0  0  0  0  0  0  0  0  0
  2  5  1  0  0  0  0
  3 16  1  1  0  0  0
  3  1  1  0  0  0  0
  4  2  1  0  0  0  0
  6  9  1  0  0  0  0
  6 12  1  0  0  0  0
  7  4  2  0  0  0  0
  8  1  1  0  0  0  0
  8  2  2  0  0  0  0
  9  3  1  0  0  0  0
 10  9  2  0  0  0  0
 11 12  2  0  0  0  0
 11  7  1  0  0  0  0
 12  8  1  0  0  0  0
 13  6  1  0  0  0  0
 14 15  1  0  0  0  0
 14 13  1  0  0  0  0
 16 24  1  6  0  0  0
 16 18  1  0  0  0  0
 18 17  1  1  0  0  0
 18 21  1  0  0  0  0
 19 23  1  0  0  0  0
 21 20  2  0  0  0  0
 21 19  1  0  0  0  0
 23 22  3  0  0  0  0
 25 29  1  6  0  0  0
 25 27  1  0  0  0  0
 25 26  1  0  0  0  0
 27 24  1  1  0  0  0
 27 26  1  0  0  0  0
 28 29  1  0  0  0  0
 30 29  2  0  0  0  0
M  END
>  <MODEL>
9

>  <REMARK>
 VINA RESULT:      -6.6      2.478      6.283
  Name = 
  9 active torsions:
  status: ('A' for Active; 'I' for Inactive)
    1  A    between atoms: C_3  and  C_11
    2  A    between atoms: C_3  and  N_19
    3  A    between atoms: C_4  and  C_13
    4  A    between atoms: N_5  and  C_21
    5  A    between atoms: C_7  and  C_15
    6  A    between atoms: C_8  and  C_12
    7  A    between atoms: C_8  and  C_13
    8  A    between atoms: C_13  and  C_27
    9  A    between atoms: C_27  and  C_30
                            x       y       z     vdW  Elec       q    Type
                         _______ _______ _______ _____ _____    ______ ____

>  <TORSDO>
F 9

$$$$
