=
 OpenBabel11062408073D

 34 38  0  0  1  0  0  0  0  0999 V2000
  161.2110  209.8400  155.4060 C   0  0  0  0  0  0  0  0  0  0  0  0
  160.7130  207.3240  154.9700 C   0  0  1  0  0  3  0  0  0  0  0  0
  161.0520  209.0370  153.0140 C   0  0  2  0  0  3  0  0  0  0  0  0
  161.1970  208.1290  157.2600 C   0  0  0  0  0  2  0  0  0  0  0  0
  161.3080  210.8410  151.2480 C   0  0  1  0  0  3  0  0  0  0  0  0
  161.1840  212.3820  149.4600 O   0  0  0  0  0  0  0  0  0  0  0  0
  161.5970  207.1270  156.1930 C   0  0  0  0  0  2  0  0  0  0  0  0
  160.9470  206.5950  152.5980 C   0  0  0  0  0  3  0  0  0  0  0  0
  158.3910  213.2550  150.1890 O   0  0  0  0  0  0  0  0  0  0  0  0
  160.6350  208.7960  154.4770 C   0  0  2  0  0  3  0  0  0  0  0  0
  159.9490  214.2920  151.7800 O   0  0  0  0  0  0  0  0  0  0  0  0
  161.5850  209.5390  156.8300 C   0  0  0  0  0  2  0  0  0  0  0  0
  160.6760  210.4940  152.6170 C   0  0  1  0  0  0  0  0  0  0  0  0
  160.7470  212.0590  150.5540 C   0  0  0  0  0  0  0  0  0  0  0  0
  161.4280  211.0710  154.9440 C   0  0  0  0  0  3  0  0  0  0  0  0
  161.0700  206.3230  153.9020 C   0  0  0  0  0  3  0  0  0  0  0  0
  158.6730  212.0720  152.5710 C   0  0  0  0  0  2  0  0  0  0  0  0
  159.4250  212.9900  151.2460 S   0  0  0  0  0  0  0  0  0  0  0  0
  159.1400  210.6210  152.5530 C   0  0  0  0  0  2  0  0  0  0  0  0
  162.8280  210.9270  151.3350 C   0  0  0  0  0  1  0  0  0  0  0  0
  160.4520  207.9320  152.1220 C   0  0  2  0  0  3  0  0  0  0  0  0
  161.1870  211.4090  153.6040 O   0  0  0  0  0  0  0  0  0  0  0  0
  160.8240  208.1040  150.7830 O   0  0  0  0  0  0  0  0  0  0  0  0
  161.4180  206.8990  150.3980 C   0  0  2  0  0  3  0  0  0  0  0  0
  162.6700  207.1940  149.5960 C   0  0  0  0  0  1  0  0  0  0  0  0
  160.4890  206.1290  149.5850 N   0  0  0  0  0  2  0  0  0  0  0  0
  161.2880  205.3340  148.6680 C   0  0  0  0  0  2  0  0  0  0  0  0
  161.3830  203.2610  146.6890 F   0  0  0  0  0  0  0  0  0  0  0  0
  161.1460  203.8850  148.9930 C   0  0  0  0  0  0  0  0  0  0  0  0
  161.2050  202.9070  147.9870 C   0  0  0  0  0  0  0  0  0  0  0  0
  160.8930  201.1750  149.6530 C   0  0  0  0  0  3  0  0  0  0  0  0
  160.8360  202.1470  150.6560 C   0  0  0  0  0  3  0  0  0  0  0  0
  160.9620  203.5000  150.3270 C   0  0  0  0  0  3  0  0  0  0  0  0
  161.0770  201.5550  148.3200 C   0  0  0  0  0  3  0  0  0  0  0  0
  1 12  1  0  0  0  0
  2 16  1  6  0  0  0
  2  7  1  0  0  0  0
  3 10  1  0  0  0  0
  5 20  1  0  0  0  0
  5 13  1  0  0  0  0
  6 14  2  0  0  0  0
  7  4  1  0  0  0  0
  8 16  2  0  0  0  0
  9 18  2  0  0  0  0
 10  2  1  0  0  0  0
 10  1  1  0  0  0  0
 12  4  1  0  0  0  0
 13  3  1  0  0  0  0
 13 22  1  0  0  0  0
 14 18  1  0  0  0  0
 14  5  1  0  0  0  0
 15  1  2  0  0  0  0
 18 11  2  0  0  0  0
 18 17  1  0  0  0  0
 19 17  1  0  0  0  0
 19 13  1  0  0  0  0
 21  8  1  0  0  0  0
 21  3  1  0  0  0  0
 22 15  1  0  0  0  0
 23 21  1  0  0  0  0
 24 23  1  0  0  0  0
 25 24  1  0  0  0  0
 26 24  1  0  0  0  0
 27 29  1  0  0  0  0
 27 26  1  0  0  0  0
 28 30  1  0  0  0  0
 29 33  1  0  0  0  0
 30 34  1  0  0  0  0
 30 29  2  0  0  0  0
 31 32  1  0  0  0  0
 33 32  2  0  0  0  0
 34 31  2  0  0  0  0
M  END
>  <MODEL>
1

>  <REMARK>
 VINA RESULT:      -7.0      0.000      0.000
  Name = 
  5 active torsions:
  status: ('A' for Active; 'I' for Inactive)
    1  A    between atoms: C_3  and  C_13
    2  A    between atoms: C_3  and  N_17
    3  A    between atoms: O_5  and  C_18
    4  A    between atoms: O_5  and  C_31
    5  A    between atoms: N_17  and  C_18
                            x       y       z     vdW  Elec       q    Type
                         _______ _______ _______ _____ _____    ______ ____

>  <TORSDO>
F 5

$$$$
=
 OpenBabel11062408073D

 34 38  0  0  1  0  0  0  0  0999 V2000
  161.8830  208.3660  149.2800 C   0  0  0  0  0  0  0  0  0  0  0  0
  161.0190  207.1670  151.4210 C   0  0  1  0  0  3  0  0  0  0  0  0
  161.7230  205.8430  149.2710 C   0  0  2  0  0  3  0  0  0  0  0  0
  161.5040  209.5950  151.4500 C   0  0  0  0  0  2  0  0  0  0  0  0
  162.3510  204.7260  147.0810 C   0  0  1  0  0  3  0  0  0  0  0  0
  162.5630  203.5070  145.0670 O   0  0  0  0  0  0  0  0  0  0  0  0
  161.7970  208.2690  152.1280 C   0  0  0  0  0  2  0  0  0  0  0  0
  161.2590  204.6870  151.4150 C   0  0  0  0  0  3  0  0  0  0  0  0
  159.9080  204.4700  144.0110 O   0  0  0  0  0  0  0  0  0  0  0  0
  161.1990  207.1580  149.8780 C   0  0  2  0  0  3  0  0  0  0  0  0
  161.5240  206.3060  143.7850 O   0  0  0  0  0  0  0  0  0  0  0  0
  162.1300  209.6250  150.0610 C   0  0  0  0  0  2  0  0  0  0  0  0
  161.6020  205.9190  147.7220 C   0  0  1  0  0  0  0  0  0  0  0  0
  162.0250  204.4460  145.6330 C   0  0  0  0  0  0  0  0  0  0  0  0
  162.3140  208.3100  148.0200 C   0  0  0  0  0  3  0  0  0  0  0  0
  161.2700  205.8420  152.0910 C   0  0  0  0  0  3  0  0  0  0  0  0
  159.8770  206.3660  145.8980 C   0  0  0  0  0  2  0  0  0  0  0  0
  160.8310  205.3920  144.7550 S   0  0  0  0  0  0  0  0  0  0  0  0
  160.1110  205.8970  147.3290 C   0  0  0  0  0  2  0  0  0  0  0  0
  163.8590  204.8360  147.2780 C   0  0  0  0  0  1  0  0  0  0  0  0
  161.0050  204.6500  149.9340 C   0  0  2  0  0  3  0  0  0  0  0  0
  162.1990  207.1420  147.2520 O   0  0  0  0  0  0  0  0  0  0  0  0
  161.4680  203.4320  149.4230 O   0  0  0  0  0  0  0  0  0  0  0  0
  160.5750  202.4640  149.8890 C   0  0  2  0  0  3  0  0  0  0  0  0
  161.3440  201.3990  150.6470 C   0  0  0  0  0  1  0  0  0  0  0  0
  159.8780  201.8540  148.7670 N   0  0  0  0  0  2  0  0  0  0  0  0
  160.6440  202.1670  147.5720 C   0  0  0  0  0  2  0  0  0  0  0  0
  159.4170  201.8230  145.0040 F   0  0  0  0  0  0  0  0  0  0  0  0
  160.8160  200.9410  146.7410 C   0  0  0  0  0  0  0  0  0  0  0  0
  160.1960  200.8230  145.4860 C   0  0  0  0  0  0  0  0  0  0  0  0
  161.1810  198.6260  145.2070 C   0  0  0  0  0  3  0  0  0  0  0  0
  161.8000  198.7430  146.4550 C   0  0  0  0  0  3  0  0  0  0  0  0
  161.6170  199.8980  147.2210 C   0  0  0  0  0  3  0  0  0  0  0  0
  160.3800  199.6650  144.7240 C   0  0  0  0  0  3  0  0  0  0  0  0
  1 10  1  0  0  0  0
  1 12  1  0  0  0  0
  2 16  1  1  0  0  0
  2  7  1  0  0  0  0
  3 10  1  0  0  0  0
  3 21  1  0  0  0  0
  4  7  1  0  0  0  0
  5 20  1  0  0  0  0
  5 13  1  0  0  0  0
  6 14  2  0  0  0  0
  8 16  2  0  0  0  0
  9 18  2  0  0  0  0
 10  2  1  0  0  0  0
 11 18  2  0  0  0  0
 12  4  1  0  0  0  0
 13  3  1  0  0  0  0
 14  5  1  0  0  0  0
 15  1  2  0  0  0  0
 17 19  1  0  0  0  0
 18 14  1  0  0  0  0
 18 17  1  0  0  0  0
 19 13  1  0  0  0  0
 21  8  1  0  0  0  0
 22 13  1  0  0  0  0
 22 15  1  0  0  0  0
 23 24  1  0  0  0  0
 23 21  1  0  0  0  0
 24 25  1  0  0  0  0
 26 24  1  0  0  0  0
 27 26  1  0  0  0  0
 28 30  1  0  0  0  0
 29 33  1  0  0  0  0
 29 27  1  0  0  0  0
 30 29  2  0  0  0  0
 31 32  1  0  0  0  0
 32 33  2  0  0  0  0
 34 31  2  0  0  0  0
 34 30  1  0  0  0  0
M  END
>  <MODEL>
2

>  <REMARK>
 VINA RESULT:      -6.2      4.007      6.426
  Name = 
  5 active torsions:
  status: ('A' for Active; 'I' for Inactive)
    1  A    between atoms: C_3  and  C_13
    2  A    between atoms: C_3  and  N_17
    3  A    between atoms: O_5  and  C_18
    4  A    between atoms: O_5  and  C_31
    5  A    between atoms: N_17  and  C_18
                            x       y       z     vdW  Elec       q    Type
                         _______ _______ _______ _____ _____    ______ ____

>  <TORSDO>
F 5

$$$$
=
 OpenBabel11062408073D

 34 38  0  0  1  0  0  0  0  0999 V2000
  161.2810  209.8180  155.3860 C   0  0  0  0  0  0  0  0  0  0  0  0
  160.7310  207.3070  154.9860 C   0  0  1  0  0  3  0  0  0  0  0  0
  161.0790  208.9900  153.0060 C   0  0  2  0  0  3  0  0  0  0  0  0
  161.2560  208.1300  157.2610 C   0  0  0  0  0  2  0  0  0  0  0  0
  161.3490  210.7670  151.2150 C   0  0  1  0  0  3  0  0  0  0  0  0
  161.2320  212.2890  149.4100 O   0  0  0  0  0  0  0  0  0  0  0  0
  161.6250  207.1080  156.2020 C   0  0  0  0  0  2  0  0  0  0  0  0
  160.9240  206.5450  152.6210 C   0  0  0  0  0  3  0  0  0  0  0  0
  158.4650  213.2220  150.1600 O   0  0  0  0  0  0  0  0  0  0  0  0
  160.6740  208.7740  154.4770 C   0  0  2  0  0  3  0  0  0  0  0  0
  160.0600  214.2490  151.7210 O   0  0  0  0  0  0  0  0  0  0  0  0
  161.6650  209.5270  156.8090 C   0  0  0  0  0  2  0  0  0  0  0  0
  160.7250  210.4480  152.5960 C   0  0  1  0  0  0  0  0  0  0  0  0
  160.8020  211.9870  150.5130 C   0  0  0  0  0  0  0  0  0  0  0  0
  161.5150  211.0390  154.9070 C   0  0  0  0  0  3  0  0  0  0  0  0
  161.0570  206.2870  153.9270 C   0  0  0  0  0  3  0  0  0  0  0  0
  158.7520  212.0630  152.5530 C   0  0  0  0  0  2  0  0  0  0  0  0
  159.5050  212.9510  151.2080 S   0  0  0  0  0  0  0  0  0  0  0  0
  159.1920  210.6040  152.5470 C   0  0  0  0  0  2  0  0  0  0  0  0
  162.8710  210.8260  151.2840 C   0  0  0  0  0  1  0  0  0  0  0  0
  160.4490  207.8850  152.1350 C   0  0  2  0  0  3  0  0  0  0  0  0
  161.2650  211.3660  153.5660 O   0  0  0  0  0  0  0  0  0  0  0  0
  160.8080  208.0340  150.7900 O   0  0  0  0  0  0  0  0  0  0  0  0
  161.5360  206.8860  150.4640 C   0  0  2  0  0  3  0  0  0  0  0  0
  162.8740  207.2940  149.8790 C   0  0  0  0  0  1  0  0  0  0  0  0
  160.7990  206.0950  149.4910 N   0  0  0  0  0  2  0  0  0  0  0  0
  161.1870  206.5750  148.1740 C   0  0  0  0  0  2  0  0  0  0  0  0
  160.4220  206.8790  145.4280 F   0  0  0  0  0  0  0  0  0  0  0  0
  161.1770  205.4480  147.1980 C   0  0  0  0  0  0  0  0  0  0  0  0
  160.7990  205.6500  145.8610 C   0  0  0  0  0  0  0  0  0  0  0  0
  161.1920  203.3040  145.3950 C   0  0  0  0  0  3  0  0  0  0  0  0
  161.5700  203.1020  146.7250 C   0  0  0  0  0  3  0  0  0  0  0  0
  161.5620  204.1710  147.6260 C   0  0  0  0  0  3  0  0  0  0  0  0
  160.8060  204.5770  144.9640 C   0  0  0  0  0  3  0  0  0  0  0  0
  1 12  1  0  0  0  0
  2 16  1  6  0  0  0
  2  7  1  0  0  0  0
  3 10  1  0  0  0  0
  5 20  1  0  0  0  0
  5 13  1  0  0  0  0
  6 14  2  0  0  0  0
  7  4  1  0  0  0  0
  8 16  2  0  0  0  0
  9 18  2  0  0  0  0
 10  2  1  0  0  0  0
 10  1  1  0  0  0  0
 12  4  1  0  0  0  0
 13  3  1  0  0  0  0
 13 22  1  0  0  0  0
 14 18  1  0  0  0  0
 14  5  1  0  0  0  0
 15  1  2  0  0  0  0
 18 11  2  0  0  0  0
 18 17  1  0  0  0  0
 19 17  1  0  0  0  0
 19 13  1  0  0  0  0
 21  8  1  0  0  0  0
 21  3  1  0  0  0  0
 22 15  1  0  0  0  0
 23 21  1  0  0  0  0
 24 23  1  0  0  0  0
 25 24  1  0  0  0  0
 26 24  1  0  0  0  0
 27 26  1  0  0  0  0
 28 30  1  0  0  0  0
 29 33  1  0  0  0  0
 29 27  1  0  0  0  0
 30 29  2  0  0  0  0
 31 32  1  0  0  0  0
 32 33  2  0  0  0  0
 34 31  2  0  0  0  0
 34 30  1  0  0  0  0
M  END
>  <MODEL>
3

>  <REMARK>
 VINA RESULT:      -6.1      1.345      1.748
  Name = 
  5 active torsions:
  status: ('A' for Active; 'I' for Inactive)
    1  A    between atoms: C_3  and  C_13
    2  A    between atoms: C_3  and  N_17
    3  A    between atoms: O_5  and  C_18
    4  A    between atoms: O_5  and  C_31
    5  A    between atoms: N_17  and  C_18
                            x       y       z     vdW  Elec       q    Type
                         _______ _______ _______ _____ _____    ______ ____

>  <TORSDO>
F 5

$$$$
=
 OpenBabel11062408073D

 34 38  0  0  1  0  0  0  0  0999 V2000
  161.9010  208.6640  149.2340 C   0  0  0  0  0  0  0  0  0  0  0  0
  161.0490  207.5810  151.4400 C   0  0  1  0  0  3  0  0  0  0  0  0
  161.7740  206.1430  149.3720 C   0  0  2  0  0  3  0  0  0  0  0  0
  161.5020  210.0120  151.3290 C   0  0  0  0  0  2  0  0  0  0  0  0
  162.4210  204.9090  147.2520 C   0  0  1  0  0  3  0  0  0  0  0  0
  162.6520  203.5780  145.3120 O   0  0  0  0  0  0  0  0  0  0  0  0
  161.8100  208.7320  152.0830 C   0  0  0  0  0  2  0  0  0  0  0  0
  161.3200  205.1080  151.5790 C   0  0  0  0  0  3  0  0  0  0  0  0
  159.9870  204.4430  144.1990 O   0  0  0  0  0  0  0  0  0  0  0  0
  161.2310  207.4840  149.9010 C   0  0  2  0  0  3  0  0  0  0  0  0
  161.5800  206.2840  143.8690 O   0  0  0  0  0  0  0  0  0  0  0  0
  162.1300  209.9700  149.9410 C   0  0  0  0  0  2  0  0  0  0  0  0
  161.6540  206.1270  147.8210 C   0  0  1  0  0  0  0  0  0  0  0  0
  162.1000  204.5410  145.8220 C   0  0  0  0  0  0  0  0  0  0  0  0
  162.3340  208.5410  147.9800 C   0  0  0  0  0  3  0  0  0  0  0  0
  161.3150  206.3000  152.1860 C   0  0  0  0  0  3  0  0  0  0  0  0
  159.9270  206.4450  145.9720 C   0  0  0  0  0  2  0  0  0  0  0  0
  160.8960  205.4190  144.8890 S   0  0  0  0  0  0  0  0  0  0  0  0
  160.1640  206.0630  147.4280 C   0  0  0  0  0  2  0  0  0  0  0  0
  163.9260  205.0500  147.4440 C   0  0  0  0  0  1  0  0  0  0  0  0
  161.0700  204.9820  150.1030 C   0  0  2  0  0  3  0  0  0  0  0  0
  162.2370  207.3290  147.2810 O   0  0  0  0  0  0  0  0  0  0  0  0
  161.5500  203.7420  149.6640 O   0  0  0  0  0  0  0  0  0  0  0  0
  160.7230  202.7850  150.2600 C   0  0  2  0  0  3  0  0  0  0  0  0
  161.5610  201.8910  151.1530 C   0  0  0  0  0  1  0  0  0  0  0  0
  160.0790  201.9820  149.2330 N   0  0  0  0  0  2  0  0  0  0  0  0
  160.5730  202.4560  147.9510 C   0  0  0  0  0  2  0  0  0  0  0  0
  162.1810  200.1390  148.4680 F   0  0  0  0  0  0  0  0  0  0  0  0
  160.6940  201.3150  146.9990 C   0  0  0  0  0  0  0  0  0  0  0  0
  161.4920  200.1990  147.3010 C   0  0  0  0  0  0  0  0  0  0  0  0
  160.8760  199.1860  145.1870 C   0  0  0  0  0  3  0  0  0  0  0  0
  160.0810  200.2950  144.8850 C   0  0  0  0  0  3  0  0  0  0  0  0
  159.9900  201.3580  145.7890 C   0  0  0  0  0  3  0  0  0  0  0  0
  161.5810  199.1390  146.3940 C   0  0  0  0  0  3  0  0  0  0  0  0
  1 10  1  0  0  0  0
  1 12  1  0  0  0  0
  2  7  1  1  0  0  0
  2 16  1  0  0  0  0
  3 10  1  0  0  0  0
  3 21  1  0  0  0  0
  4  7  1  0  0  0  0
  5 20  1  0  0  0  0
  5 13  1  0  0  0  0
  6 14  2  0  0  0  0
  8 16  2  0  0  0  0
  9 18  2  0  0  0  0
 10  2  1  0  0  0  0
 11 18  2  0  0  0  0
 12  4  1  0  0  0  0
 13  3  1  0  0  0  0
 14  5  1  0  0  0  0
 15  1  2  0  0  0  0
 17 19  1  0  0  0  0
 18 14  1  0  0  0  0
 18 17  1  0  0  0  0
 19 13  1  0  0  0  0
 21  8  1  0  0  0  0
 22 13  1  0  0  0  0
 22 15  1  0  0  0  0
 23 21  1  0  0  0  0
 23 24  1  0  0  0  0
 24 25  1  0  0  0  0
 26 24  1  0  0  0  0
 27 26  1  0  0  0  0
 29 30  1  0  0  0  0
 29 27  1  0  0  0  0
 30 28  1  0  0  0  0
 31 34  1  0  0  0  0
 32 31  2  0  0  0  0
 32 33  1  0  0  0  0
 33 29  2  0  0  0  0
 34 30  2  0  0  0  0
M  END
>  <MODEL>
4

>  <REMARK>
 VINA RESULT:      -6.0      3.942      6.318
  Name = 
  5 active torsions:
  status: ('A' for Active; 'I' for Inactive)
    1  A    between atoms: C_3  and  C_13
    2  A    between atoms: C_3  and  N_17
    3  A    between atoms: O_5  and  C_18
    4  A    between atoms: O_5  and  C_31
    5  A    between atoms: N_17  and  C_18
                            x       y       z     vdW  Elec       q    Type
                         _______ _______ _______ _____ _____    ______ ____

>  <TORSDO>
F 5

$$$$
=
 OpenBabel11062408073D

 34 38  0  0  1  0  0  0  0  0999 V2000
  160.1110  208.4020  154.3540 C   0  0  0  0  0  0  0  0  0  0  0  0
  161.0000  208.8080  151.9430 C   0  0  1  0  0  3  0  0  0  0  0  0
  160.1800  210.7720  153.4740 C   0  0  2  0  0  3  0  0  0  0  0  0
  161.1920  206.5740  152.9920 C   0  0  0  0  0  2  0  0  0  0  0  0
  159.2610  212.5370  155.0480 C   0  0  1  0  0  3  0  0  0  0  0  0
  158.1610  214.2870  156.1950 O   0  0  0  0  0  0  0  0  0  0  0  0
  161.9640  207.6880  152.3080 C   0  0  0  0  0  2  0  0  0  0  0  0
  161.3630  211.1980  151.3360 C   0  0  0  0  0  3  0  0  0  0  0  0
  155.4200  213.2570  155.4760 O   0  0  0  0  0  0  0  0  0  0  0  0
  160.0990  209.2750  153.1190 C   0  0  2  0  0  3  0  0  0  0  0  0
  156.3220  211.8300  157.2610 O   0  0  0  0  0  0  0  0  0  0  0  0
  160.7210  207.0300  154.3680 C   0  0  0  0  0  2  0  0  0  0  0  0
  159.0470  211.1120  154.4840 C   0  0  1  0  0  0  0  0  0  0  0  0
  158.0710  213.1550  155.7430 C   0  0  0  0  0  0  0  0  0  0  0  0
  159.5890  208.8720  155.4860 C   0  0  0  0  0  3  0  0  0  0  0  0
  161.7350  209.9170  151.2370 C   0  0  0  0  0  3  0  0  0  0  0  0
  156.5160  210.9290  154.7440 C   0  0  0  0  0  2  0  0  0  0  0  0
  156.5290  212.3180  155.8560 S   0  0  0  0  0  0  0  0  0  0  0  0
  157.6840  211.0120  153.7690 C   0  0  0  0  0  2  0  0  0  0  0  0
  160.4980  212.6110  155.9360 C   0  0  0  0  0  1  0  0  0  0  0  0
  160.1860  211.6060  152.1780 C   0  0  2  0  0  3  0  0  0  0  0  0
  159.0790  210.1760  155.5780 O   0  0  0  0  0  0  0  0  0  0  0  0
  160.2780  212.9740  152.4560 O   0  0  0  0  0  0  0  0  0  0  0  0
  159.3850  213.5990  151.5800 C   0  0  2  0  0  3  0  0  0  0  0  0
  158.3670  212.5830  151.0990 C   0  0  0  0  0  1  0  0  0  0  0  0
  160.1090  214.1400  150.4410 N   0  0  0  0  0  2  0  0  0  0  0  0
  159.4390  213.6570  149.2450 C   0  0  0  0  0  2  0  0  0  0  0  0
  158.7080  212.9110  146.5740 F   0  0  0  0  0  0  0  0  0  0  0  0
  160.4320  213.4590  148.1500 C   0  0  0  0  0  0  0  0  0  0  0  0
  160.0210  213.0990  146.8560 C   0  0  0  0  0  0  0  0  0  0  0  0
  162.3300  213.1180  146.1190 C   0  0  0  0  0  3  0  0  0  0  0  0
  162.7400  213.4780  147.4060 C   0  0  0  0  0  3  0  0  0  0  0  0
  161.7930  213.6480  148.4200 C   0  0  0  0  0  3  0  0  0  0  0  0
  160.9730  212.9280  145.8450 C   0  0  0  0  0  3  0  0  0  0  0  0
  1 12  1  0  0  0  0
  1 15  2  0  0  0  0
  2 16  1  1  0  0  0
  2  7  1  0  0  0  0
  2 10  1  0  0  0  0
  3 13  1  0  0  0  0
  4 12  1  0  0  0  0
  5 14  1  0  0  0  0
  5 20  1  0  0  0  0
  7  4  1  0  0  0  0
  8 21  1  0  0  0  0
  9 18  2  0  0  0  0
 10  3  1  0  0  0  0
 10  1  1  0  0  0  0
 13  5  1  0  0  0  0
 13 22  1  0  0  0  0
 14 18  1  0  0  0  0
 14  6  2  0  0  0  0
 15 22  1  0  0  0  0
 16  8  2  0  0  0  0
 17 18  1  0  0  0  0
 18 11  2  0  0  0  0
 19 13  1  0  0  0  0
 19 17  1  0  0  0  0
 21 23  1  0  0  0  0
 21  3  1  0  0  0  0
 24 23  1  0  0  0  0
 25 24  1  0  0  0  0
 26 24  1  0  0  0  0
 27 26  1  0  0  0  0
 28 30  1  0  0  0  0
 29 33  1  0  0  0  0
 29 27  1  0  0  0  0
 30 29  2  0  0  0  0
 31 32  1  0  0  0  0
 32 33  2  0  0  0  0
 34 31  2  0  0  0  0
 34 30  1  0  0  0  0
M  END
>  <MODEL>
5

>  <REMARK>
 VINA RESULT:      -5.1      3.868      6.721
  Name = 
  5 active torsions:
  status: ('A' for Active; 'I' for Inactive)
    1  A    between atoms: C_3  and  C_13
    2  A    between atoms: C_3  and  N_17
    3  A    between atoms: O_5  and  C_18
    4  A    between atoms: O_5  and  C_31
    5  A    between atoms: N_17  and  C_18
                            x       y       z     vdW  Elec       q    Type
                         _______ _______ _______ _____ _____    ______ ____

>  <TORSDO>
F 5

$$$$
=
 OpenBabel11062408073D

 34 38  0  0  1  0  0  0  0  0999 V2000
  160.8390  206.9260  153.8030 C   0  0  0  0  0  0  0  0  0  0  0  0
  161.2510  207.1290  151.2430 C   0  0  1  0  0  3  0  0  0  0  0  0
  161.1530  209.2290  152.8100 C   0  0  2  0  0  3  0  0  0  0  0  0
  161.2480  204.9110  152.3410 C   0  0  0  0  0  2  0  0  0  0  0  0
  160.9330  211.1540  154.4480 C   0  0  1  0  0  3  0  0  0  0  0  0
  160.4450  213.0920  155.7090 O   0  0  0  0  0  0  0  0  0  0  0  0
  162.0470  205.8490  151.4560 C   0  0  0  0  0  2  0  0  0  0  0  0
  161.9090  209.4000  150.4540 C   0  0  0  0  0  3  0  0  0  0  0  0
  157.4720  212.5970  155.6290 O   0  0  0  0  0  0  0  0  0  0  0  0
  160.7240  207.7720  152.5550 C   0  0  2  0  0  3  0  0  0  0  0  0
  158.4560  211.0430  157.2570 O   0  0  0  0  0  0  0  0  0  0  0  0
  161.1740  205.4620  153.7600 C   0  0  0  0  0  2  0  0  0  0  0  0
  160.3440  209.7890  154.0140 C   0  0  1  0  0  0  0  0  0  0  0  0
  160.0540  211.9940  155.3430 C   0  0  0  0  0  0  0  0  0  0  0  0
  160.6670  207.4980  154.9940 C   0  0  0  0  0  3  0  0  0  0  0  0
  162.0100  208.0700  150.3440 C   0  0  0  0  0  3  0  0  0  0  0  0
  157.9390  210.0950  154.8040 C   0  0  0  0  0  2  0  0  0  0  0  0
  158.4440  211.4680  155.8170 S   0  0  0  0  0  0  0  0  0  0  0  0
  158.8650  209.9440  153.6040 C   0  0  0  0  0  2  0  0  0  0  0  0
  162.3230  211.0000  155.0550 C   0  0  0  0  0  1  0  0  0  0  0  0
  161.0350  210.0330  151.5000 C   0  0  2  0  0  3  0  0  0  0  0  0
  160.4370  208.8760  155.1240 O   0  0  0  0  0  0  0  0  0  0  0  0
  161.4350  211.3620  151.6830 O   0  0  0  0  0  0  0  0  0  0  0  0
  160.5060  212.1360  150.9820 C   0  0  2  0  0  3  0  0  0  0  0  0
  161.2080  212.8390  149.8360 C   0  0  0  0  0  1  0  0  0  0  0  0
  159.9160  213.1240  151.8710 N   0  0  0  0  0  2  0  0  0  0  0  0
  159.5010  214.2450  151.0430 C   0  0  0  0  0  2  0  0  0  0  0  0
  158.2460  213.7220  148.5180 F   0  0  0  0  0  0  0  0  0  0  0  0
  158.0220  214.2180  150.8540 C   0  0  0  0  0  0  0  0  0  0  0  0
  157.4560  213.9520  149.5970 C   0  0  0  0  0  0  0  0  0  0  0  0
  155.2380  214.1600  150.5520 C   0  0  0  0  0  3  0  0  0  0  0  0
  155.8000  214.4240  151.8040 C   0  0  0  0  0  3  0  0  0  0  0  0
  157.1890  214.4530  151.9550 C   0  0  0  0  0  3  0  0  0  0  0  0
  156.0650  213.9250  149.4500 C   0  0  0  0  0  3  0  0  0  0  0  0
  1 15  2  0  0  0  0
  2 16  1  1  0  0  0
  2  7  1  0  0  0  0
  2 10  1  0  0  0  0
  3 13  1  0  0  0  0
  4 12  1  0  0  0  0
  5 20  1  0  0  0  0
  5 14  1  0  0  0  0
  7  4  1  0  0  0  0
  8 21  1  0  0  0  0
  9 18  2  0  0  0  0
 10  3  1  0  0  0  0
 10  1  1  0  0  0  0
 12  1  1  0  0  0  0
 13  5  1  0  0  0  0
 13 22  1  0  0  0  0
 14  6  2  0  0  0  0
 14 18  1  0  0  0  0
 15 22  1  0  0  0  0
 16  8  2  0  0  0  0
 17 18  1  0  0  0  0
 18 11  2  0  0  0  0
 19 13  1  0  0  0  0
 19 17  1  0  0  0  0
 21 23  1  0  0  0  0
 21  3  1  0  0  0  0
 24 23  1  0  0  0  0
 24 26  1  0  0  0  0
 25 24  1  0  0  0  0
 27 26  1  0  0  0  0
 28 30  1  0  0  0  0
 29 27  1  0  0  0  0
 29 33  1  0  0  0  0
 30 29  2  0  0  0  0
 31 32  1  0  0  0  0
 32 33  2  0  0  0  0
 34 30  1  0  0  0  0
 34 31  2  0  0  0  0
M  END
>  <MODEL>
6

>  <REMARK>
 VINA RESULT:      -5.0      3.397      7.000
  Name = 
  5 active torsions:
  status: ('A' for Active; 'I' for Inactive)
    1  A    between atoms: C_3  and  C_13
    2  A    between atoms: C_3  and  N_17
    3  A    between atoms: O_5  and  C_18
    4  A    between atoms: O_5  and  C_31
    5  A    between atoms: N_17  and  C_18
                            x       y       z     vdW  Elec       q    Type
                         _______ _______ _______ _____ _____    ______ ____

>  <TORSDO>
F 5

$$$$
=
 OpenBabel11062408073D

 34 38  0  0  1  0  0  0  0  0999 V2000
  160.5740  212.1340  151.5980 C   0  0  0  0  0  0  0  0  0  0  0  0
  161.9000  211.0980  149.6140 C   0  0  1  0  0  3  0  0  0  0  0  0
  161.3870  209.7490  151.8030 C   0  0  2  0  0  3  0  0  0  0  0  0
  160.8010  213.3030  149.3740 C   0  0  0  0  0  2  0  0  0  0  0  0
  160.8900  208.6230  154.0210 C   0  0  1  0  0  3  0  0  0  0  0  0
  160.8340  207.5000  156.1010 O   0  0  0  0  0  0  0  0  0  0  0  0
  160.9240  211.9130  148.7770 C   0  0  0  0  0  2  0  0  0  0  0  0
  162.3180  208.6470  149.7860 C   0  0  0  0  0  3  0  0  0  0  0  0
  163.0450  209.1900  157.2600 O   0  0  0  0  0  0  0  0  0  0  0  0
  161.5990  211.1220  151.1380 C   0  0  2  0  0  3  0  0  0  0  0  0
  160.9920  210.5380  157.2400 O   0  0  0  0  0  0  0  0  0  0  0  0
  160.0730  213.2380  150.7110 C   0  0  0  0  0  2  0  0  0  0  0  0
  161.3530  209.9370  153.3470 C   0  0  1  0  0  0  0  0  0  0  0  0
  161.1540  208.5170  155.5050 C   0  0  0  0  0  0  0  0  0  0  0  0
  160.0680  212.0320  152.8260 C   0  0  0  0  0  3  0  0  0  0  0  0
  162.0630  209.7190  149.0280 C   0  0  0  0  0  3  0  0  0  0  0  0
  162.7400  210.9230  155.2460 C   0  0  0  0  0  2  0  0  0  0  0  0
  161.9800  209.7920  156.3900 S   0  0  0  0  0  0  0  0  0  0  0  0
  162.7590  210.3340  153.8410 C   0  0  0  0  0  2  0  0  0  0  0  0
  159.4280  208.3160  153.7150 C   0  0  0  0  0  1  0  0  0  0  0  0
  162.4460  208.7580  151.2790 C   0  0  2  0  0  3  0  0  0  0  0  0
  160.4190  210.9790  153.6840 O   0  0  0  0  0  0  0  0  0  0  0  0
  162.2760  207.4890  151.8460 O   0  0  0  0  0  0  0  0  0  0  0  0
  161.8900  206.6550  150.7940 C   0  0  2  0  0  3  0  0  0  0  0  0
  160.4060  206.8350  150.5330 C   0  0  0  0  0  1  0  0  0  0  0  0
  162.1580  205.2680  151.1400 N   0  0  0  0  0  2  0  0  0  0  0  0
  160.8860  204.5650  151.0910 C   0  0  0  0  0  2  0  0  0  0  0  0
  161.1420  204.8660  148.2510 F   0  0  0  0  0  0  0  0  0  0  0  0
  160.9780  203.4110  150.1510 C   0  0  0  0  0  0  0  0  0  0  0  0
  161.1080  203.6120  148.7660 C   0  0  0  0  0  0  0  0  0  0  0  0
  161.1670  201.2130  148.4240 C   0  0  0  0  0  3  0  0  0  0  0  0
  161.0390  201.0120  149.8010 C   0  0  0  0  0  3  0  0  0  0  0  0
  160.9450  202.1090  150.6630 C   0  0  0  0  0  3  0  0  0  0  0  0
  161.2000  202.5120  147.9080 C   0  0  0  0  0  3  0  0  0  0  0  0
  1 15  2  0  0  0  0
  2  7  1  6  0  0  0
  2 10  1  0  0  0  0
  3 13  1  0  0  0  0
  4 12  1  0  0  0  0
  5 14  1  0  0  0  0
  7  4  1  0  0  0  0
  8 21  1  0  0  0  0
 10  1  1  0  0  0  0
 10  3  1  0  0  0  0
 12  1  1  0  0  0  0
 13 22  1  0  0  0  0
 13 19  1  0  0  0  0
 13  5  1  0  0  0  0
 14  6  2  0  0  0  0
 14 18  1  0  0  0  0
 15 22  1  0  0  0  0
 16  2  1  0  0  0  0
 16  8  2  0  0  0  0
 17 18  1  0  0  0  0
 18 11  2  0  0  0  0
 18  9  2  0  0  0  0
 19 17  1  0  0  0  0
 20  5  1  0  0  0  0
 21  3  1  0  0  0  0
 21 23  1  0  0  0  0
 24 26  1  0  0  0  0
 24 23  1  0  0  0  0
 25 24  1  0  0  0  0
 27 26  1  0  0  0  0
 28 30  1  0  0  0  0
 29 33  1  0  0  0  0
 29 27  1  0  0  0  0
 30 29  2  0  0  0  0
 31 32  1  0  0  0  0
 32 33  2  0  0  0  0
 34 31  2  0  0  0  0
 34 30  1  0  0  0  0
M  END
>  <MODEL>
7

>  <REMARK>
 VINA RESULT:      -4.8      2.169      4.745
  Name = 
  5 active torsions:
  status: ('A' for Active; 'I' for Inactive)
    1  A    between atoms: C_3  and  C_13
    2  A    between atoms: C_3  and  N_17
    3  A    between atoms: O_5  and  C_18
    4  A    between atoms: O_5  and  C_31
    5  A    between atoms: N_17  and  C_18
                            x       y       z     vdW  Elec       q    Type
                         _______ _______ _______ _____ _____    ______ ____

>  <TORSDO>
F 5

$$$$
=
 OpenBabel11062408073D

 34 38  0  0  1  0  0  0  0  0999 V2000
  160.9210  206.7160  153.6720 C   0  0  0  0  0  0  0  0  0  0  0  0
  161.2900  206.9730  151.1100 C   0  0  1  0  0  3  0  0  0  0  0  0
  161.2370  209.0380  152.7230 C   0  0  2  0  0  3  0  0  0  0  0  0
  161.2880  204.7310  152.1590 C   0  0  0  0  0  2  0  0  0  0  0  0
  161.0610  210.9280  154.4070 C   0  0  1  0  0  3  0  0  0  0  0  0
  160.6110  212.8430  155.7190 O   0  0  0  0  0  0  0  0  0  0  0  0
  162.0780  205.6820  151.2800 C   0  0  0  0  0  2  0  0  0  0  0  0
  161.9520  209.2550  150.3590 C   0  0  0  0  0  3  0  0  0  0  0  0
  157.6330  212.3720  155.6800 O   0  0  0  0  0  0  0  0  0  0  0  0
  160.7910  207.5900  152.4450 C   0  0  2  0  0  3  0  0  0  0  0  0
  158.6330  210.7750  157.2560 O   0  0  0  0  0  0  0  0  0  0  0  0
  161.2430  205.2510  153.5910 C   0  0  0  0  0  2  0  0  0  0  0  0
  160.4530  209.5780  153.9540 C   0  0  1  0  0  0  0  0  0  0  0  0
  160.2050  211.7560  155.3350 C   0  0  0  0  0  0  0  0  0  0  0  0
  160.7740  207.2640  154.8770 C   0  0  0  0  0  3  0  0  0  0  0  0
  162.0400  207.9270  150.2180 C   0  0  0  0  0  3  0  0  0  0  0  0
  158.0650  209.8860  154.7930 C   0  0  0  0  0  2  0  0  0  0  0  0
  158.6000  211.2320  155.8260 S   0  0  0  0  0  0  0  0  0  0  0  0
  158.9690  209.7530  153.5730 C   0  0  0  0  0  2  0  0  0  0  0  0
  162.4610  210.7500  154.9860 C   0  0  0  0  0  1  0  0  0  0  0  0
  161.1020  209.8720  151.4330 C   0  0  2  0  0  3  0  0  0  0  0  0
  160.5580  208.6400  155.0410 O   0  0  0  0  0  0  0  0  0  0  0  0
  161.5160  211.1930  151.6390 O   0  0  0  0  0  0  0  0  0  0  0  0
  160.7840  211.9630  150.7310 C   0  0  2  0  0  3  0  0  0  0  0  0
  161.7030  212.4280  149.6170 C   0  0  0  0  0  1  0  0  0  0  0  0
  160.2180  213.1190  151.4080 N   0  0  0  0  0  2  0  0  0  0  0  0
  160.0580  214.1610  150.4070 C   0  0  0  0  0  2  0  0  0  0  0  0
  157.6140  214.2180  151.9060 F   0  0  0  0  0  0  0  0  0  0  0  0
  158.7100  214.0600  149.7780 C   0  0  0  0  0  0  0  0  0  0  0  0
  157.5410  214.0980  150.5570 C   0  0  0  0  0  0  0  0  0  0  0  0
  156.1980  213.8850  148.5510 C   0  0  0  0  0  3  0  0  0  0  0  0
  157.3590  213.8480  147.7740 C   0  0  0  0  0  3  0  0  0  0  0  0
  158.6130  213.9350  148.3870 C   0  0  0  0  0  3  0  0  0  0  0  0
  156.2890  214.0090  149.9410 C   0  0  0  0  0  3  0  0  0  0  0  0
  1 15  2  0  0  0  0
  2 16  1  1  0  0  0
  2  7  1  0  0  0  0
  2 10  1  0  0  0  0
  3 13  1  0  0  0  0
  4 12  1  0  0  0  0
  5 20  1  0  0  0  0
  5 14  1  0  0  0  0
  7  4  1  0  0  0  0
  8 21  1  0  0  0  0
  9 18  2  0  0  0  0
 10  3  1  0  0  0  0
 10  1  1  0  0  0  0
 12  1  1  0  0  0  0
 13  5  1  0  0  0  0
 13 22  1  0  0  0  0
 14  6  2  0  0  0  0
 14 18  1  0  0  0  0
 15 22  1  0  0  0  0
 16  8  2  0  0  0  0
 17 18  1  0  0  0  0
 18 11  2  0  0  0  0
 19 13  1  0  0  0  0
 19 17  1  0  0  0  0
 21 23  1  0  0  0  0
 21  3  1  0  0  0  0
 24 26  1  0  0  0  0
 24 23  1  0  0  0  0
 25 24  1  0  0  0  0
 27 26  1  0  0  0  0
 29 27  1  0  0  0  0
 29 30  1  0  0  0  0
 30 28  1  0  0  0  0
 31 34  1  0  0  0  0
 32 33  1  0  0  0  0
 32 31  2  0  0  0  0
 33 29  2  0  0  0  0
 34 30  2  0  0  0  0
M  END
>  <MODEL>
8

>  <REMARK>
 VINA RESULT:      -4.1      3.548      6.958
  Name = 
  5 active torsions:
  status: ('A' for Active; 'I' for Inactive)
    1  A    between atoms: C_3  and  C_13
    2  A    between atoms: C_3  and  N_17
    3  A    between atoms: O_5  and  C_18
    4  A    between atoms: O_5  and  C_31
    5  A    between atoms: N_17  and  C_18
                            x       y       z     vdW  Elec       q    Type
                         _______ _______ _______ _____ _____    ______ ____

>  <TORSDO>
F 5

$$$$
