=
 OpenBabel11062409363D

 34 39  0  0  1  0  0  0  0  0999 V2000
  161.1280  209.4130  152.3360 C   0  0  2  0  0  3  0  0  0  0  0  0
  160.7960  208.6690  154.7380 C   0  0  0  0  0  2  0  0  0  0  0  0
  162.0270  206.6670  151.8030 C   0  0  2  0  0  0  0  0  0  0  0  0
  159.9570  211.0250  154.8450 N   0  0  0  0  0  0  0  0  0  0  0  0
  162.2320  207.7870  150.7710 C   0  0  0  0  0  2  0  0  0  0  0  0
  161.2050  208.9030  150.9050 C   0  0  0  0  0  2  0  0  0  0  0  0
  161.9030  207.2200  153.1610 N   0  0  0  0  0  2  0  0  0  0  0  0
  160.8510  208.2340  153.2800 C   0  0  2  0  0  3  0  0  0  0  0  0
  163.3060  205.8480  151.7630 C   0  0  0  0  0  1  0  0  0  0  0  0
  159.6220  209.6030  155.0290 C   0  0  0  0  0  2  0  0  0  0  0  0
  159.9850  210.4100  152.3800 C   0  0  0  0  0  2  0  0  0  0  0  0
  160.2040  211.4840  153.4570 C   0  0  1  0  0  3  0  0  0  0  0  0
  159.2870  213.6910  154.3660 C   0  0  0  0  0  2  0  0  0  0  0  0
  158.1730  212.1810  151.0190 C   0  0  0  0  0  2  0  0  0  0  0  0
  159.5420  212.7730  148.9830 C   0  0  0  0  0  2  0  0  0  0  0  0
  157.1120  211.8790  153.3270 C   0  0  0  0  0  2  0  0  0  0  0  0
  157.9550  213.8770  156.4740 C   0  0  0  0  0  3  0  0  0  0  0  0
  155.8140  212.7850  156.7650 C   0  0  0  0  0  3  0  0  0  0  0  0
  160.8120  214.4530  149.9370 N   0  0  0  0  0  2  0  0  0  0  0  0
  156.8350  213.6010  157.2610 C   0  0  0  0  0  3  0  0  0  0  0  0
  157.0220  212.5250  154.6790 C   0  0  0  0  0  0  0  0  0  0  0  0
  158.0680  213.3360  155.1880 C   0  0  0  0  0  0  0  0  0  0  0  0
  155.9100  212.2460  155.4800 C   0  0  0  0  0  3  0  0  0  0  0  0
  158.7790  213.3060  150.1820 C   0  0  2  0  0  3  0  0  0  0  0  0
  160.7050  213.6970  148.9110 C   0  0  0  0  0  2  0  0  0  0  0  0
  160.4260  213.5960  152.1640 C   0  0  0  0  0  2  0  0  0  0  0  0
  159.7840  214.2240  150.9120 C   0  0  1  0  0  3  0  0  0  0  0  0
  158.0890  212.6490  152.4570 C   0  0  1  0  0  3  0  0  0  0  0  0
  159.4790  212.8260  153.1090 C   0  0  1  0  0  0  0  0  0  0  0  0
  160.8540  205.7160  151.4410 C   0  0  0  0  0  3  0  0  0  0  0  0
  160.7610  205.4530  149.9440 C   0  0  0  0  0  1  0  0  0  0  0  0
  160.8570  204.3840  152.1770 C   0  0  0  0  0  1  0  0  0  0  0  0
  160.5740  211.4180  157.2440 C   0  0  0  0  0  1  0  0  0  0  0  0
  161.0060  211.4610  155.7820 C   0  0  0  0  0  2  0  0  0  0  0  0
  1  6  1  6  0  0  0
  1 11  1  0  0  0  0
  1  8  1  0  0  0  0
  2 10  1  0  0  0  0
  3  9  1  6  0  0  0
  3  7  1  0  0  0  0
  4 10  1  0  0  0  0
  4 34  1  0  0  0  0
  5  6  1  0  0  0  0
  5  3  1  0  0  0  0
  7  8  1  0  0  0  0
  8  2  1  1  0  0  0
 12 11  1  6  0  0  0
 12  4  1  0  0  0  0
 13 22  1  0  0  0  0
 16 21  1  0  0  0  0
 17 20  1  0  0  0  0
 18 20  2  0  0  0  0
 19 27  1  0  0  0  0
 21 22  1  0  0  0  0
 21 23  2  0  0  0  0
 22 17  2  0  0  0  0
 23 18  1  0  0  0  0
 24 15  1  6  0  0  0
 24 27  1  0  0  0  0
 24 14  1  0  0  0  0
 25 15  1  0  0  0  0
 25 19  1  0  0  0  0
 27 26  1  1  0  0  0
 28 14  1  6  0  0  0
 28 29  1  0  0  0  0
 28 16  1  0  0  0  0
 29 26  1  6  0  0  0
 29 12  1  0  0  0  0
 29 13  1  0  0  0  0
 30  3  1  0  0  0  0
 30 32  1  0  0  0  0
 31 30  1  0  0  0  0
 34 33  1  0  0  0  0
M  END
>  <MODEL>
1

>  <REMARK>
 VINA RESULT:      -3.2      0.000      0.000
  Name = 
  3 active torsions:
  status: ('A' for Active; 'I' for Inactive)
    1  A    between atoms: C_7  and  C_11
    2  A    between atoms: N_9  and  C_18
    3  A    between atoms: C_33  and  C_34
                            x       y       z     vdW  Elec       q    Type
                         _______ _______ _______ _____ _____    ______ ____

>  <TORSDO>
F 3

$$$$
=
 OpenBabel11062409363D

 34 39  0  0  1  0  0  0  0  0999 V2000
  160.3910  212.3460  151.3550 C   0  0  2  0  0  3  0  0  0  0  0  0
  161.6260  210.2990  150.5080 C   0  0  0  0  0  2  0  0  0  0  0  0
  160.8330  213.4900  148.6850 C   0  0  2  0  0  0  0  0  0  0  0  0
  160.9780  209.5520  152.8070 N   0  0  0  0  0  0  0  0  0  0  0  0
  160.3340  214.3580  149.8500 C   0  0  0  0  0  2  0  0  0  0  0  0
  159.5830  213.5530  150.9010 C   0  0  0  0  0  2  0  0  0  0  0  0
  161.5590  212.3100  149.1810 N   0  0  0  0  0  2  0  0  0  0  0  0
  160.7810  211.5070  150.1290 C   0  0  2  0  0  3  0  0  0  0  0  0
  161.8340  214.3580  147.9400 C   0  0  0  0  0  1  0  0  0  0  0  0
  160.8600  209.2910  151.3630 C   0  0  0  0  0  2  0  0  0  0  0  0
  159.4960  211.5480  152.2840 C   0  0  0  0  0  2  0  0  0  0  0  0
  160.3080  210.7670  153.3290 C   0  0  1  0  0  3  0  0  0  0  0  0
  157.9800  210.5430  154.3630 C   0  0  0  0  0  2  0  0  0  0  0  0
  161.1230  211.3120  156.4270 C   0  0  0  0  0  2  0  0  0  0  0  0
  162.4570  209.3380  157.2610 C   0  0  0  0  0  2  0  0  0  0  0  0
  159.4690  212.9600  155.3830 C   0  0  0  0  0  2  0  0  0  0  0  0
  156.0800  212.0840  153.8480 C   0  0  0  0  0  3  0  0  0  0  0  0
  156.1500  214.4530  154.3420 C   0  0  0  0  0  3  0  0  0  0  0  0
  160.9220  207.6850  156.7500 N   0  0  0  0  0  2  0  0  0  0  0  0
  155.4690  213.3410  153.8410 C   0  0  0  0  0  3  0  0  0  0  0  0
  158.0590  213.0570  154.8770 C   0  0  0  0  0  0  0  0  0  0  0  0
  157.3770  211.9300  154.3500 C   0  0  0  0  0  0  0  0  0  0  0  0
  157.4420  214.3120  154.8540 C   0  0  0  0  0  3  0  0  0  0  0  0
  161.0860  209.9850  157.1840 C   0  0  2  0  0  3  0  0  0  0  0  0
  162.1340  207.8940  157.1020 C   0  0  0  0  0  2  0  0  0  0  0  0
  159.8440  209.0800  155.0950 C   0  0  0  0  0  2  0  0  0  0  0  0
  160.1680  208.8950  156.5900 C   0  0  1  0  0  3  0  0  0  0  0  0
  159.7740  211.5240  155.7720 C   0  0  1  0  0  3  0  0  0  0  0  0
  159.4930  210.5120  154.6390 C   0  0  1  0  0  0  0  0  0  0  0  0
  159.7070  213.1150  147.6820 C   0  0  0  0  0  3  0  0  0  0  0  0
  158.8750  214.3200  147.2680 C   0  0  0  0  0  1  0  0  0  0  0  0
  160.1780  212.3860  146.4320 C   0  0  0  0  0  1  0  0  0  0  0  0
  162.9210  210.7100  153.8910 C   0  0  0  0  0  1  0  0  0  0  0  0
  162.3710  209.4310  153.2680 C   0  0  0  0  0  2  0  0  0  0  0  0
  1  6  1  6  0  0  0
  1 11  1  0  0  0  0
  2 10  1  0  0  0  0
  3  9  1  6  0  0  0
  3  7  1  0  0  0  0
  3  5  1  0  0  0  0
  4 34  1  0  0  0  0
  4 12  1  0  0  0  0
  5  6  1  0  0  0  0
  7  8  1  0  0  0  0
  8  2  1  1  0  0  0
  8  1  1  0  0  0  0
 10  4  1  0  0  0  0
 12 11  1  6  0  0  0
 12 29  1  0  0  0  0
 17 22  1  0  0  0  0
 18 23  2  0  0  0  0
 19 25  1  0  0  0  0
 20 17  2  0  0  0  0
 20 18  1  0  0  0  0
 21 16  1  0  0  0  0
 22 13  1  0  0  0  0
 22 21  2  0  0  0  0
 23 21  1  0  0  0  0
 24 14  1  6  0  0  0
 24 15  1  0  0  0  0
 25 15  1  0  0  0  0
 27 26  1  6  0  0  0
 27 19  1  0  0  0  0
 27 24  1  0  0  0  0
 28 16  1  6  0  0  0
 28 14  1  0  0  0  0
 29 13  1  6  0  0  0
 29 26  1  0  0  0  0
 29 28  1  0  0  0  0
 30  3  1  0  0  0  0
 31 30  1  0  0  0  0
 32 30  1  0  0  0  0
 34 33  1  0  0  0  0
M  END
>  <MODEL>
2

>  <REMARK>
 VINA RESULT:      -2.6      2.117      5.928
  Name = 
  3 active torsions:
  status: ('A' for Active; 'I' for Inactive)
    1  A    between atoms: C_7  and  C_11
    2  A    between atoms: N_9  and  C_18
    3  A    between atoms: C_33  and  C_34
                            x       y       z     vdW  Elec       q    Type
                         _______ _______ _______ _____ _____    ______ ____

>  <TORSDO>
F 3

$$$$
=
 OpenBabel11062409363D

 34 39  0  0  1  0  0  0  0  0999 V2000
  160.0840  211.7800  151.7560 C   0  0  2  0  0  3  0  0  0  0  0  0
  158.6300  213.7320  151.0410 C   0  0  0  0  0  2  0  0  0  0  0  0
  161.3220  211.9670  149.0980 C   0  0  2  0  0  0  0  0  0  0  0  0
  157.8760  213.4120  153.4060 N   0  0  0  0  0  0  0  0  0  0  0  0
  161.5730  210.7570  150.0100 C   0  0  0  0  0  2  0  0  0  0  0  0
  161.4140  211.0920  151.4860 C   0  0  0  0  0  2  0  0  0  0  0  0
  160.0510  212.6270  149.4380 N   0  0  0  0  0  2  0  0  0  0  0  0
  159.9580  213.0130  150.8490 C   0  0  2  0  0  3  0  0  0  0  0  0
  161.1720  211.3900  147.7000 C   0  0  0  0  0  1  0  0  0  0  0  0
  158.4860  214.3370  152.4370 C   0  0  0  0  0  2  0  0  0  0  0  0
  160.0960  212.1920  153.2160 C   0  0  0  0  0  2  0  0  0  0  0  0
  158.6800  212.2340  153.8110 C   0  0  1  0  0  3  0  0  0  0  0  0
  160.1010  211.6930  155.8660 C   0  0  0  0  0  2  0  0  0  0  0  0
  156.3050  211.1440  155.7420 C   0  0  0  0  0  2  0  0  0  0  0  0
  154.8430  213.0960  156.3900 C   0  0  0  0  0  2  0  0  0  0  0  0
  158.1670  209.4810  155.1860 C   0  0  0  0  0  2  0  0  0  0  0  0
  161.8930  209.9510  155.8940 C   0  0  0  0  0  3  0  0  0  0  0  0
  161.4400  207.6050  155.5020 C   0  0  0  0  0  3  0  0  0  0  0  0
  156.5010  214.4530  157.2610 N   0  0  0  0  0  2  0  0  0  0  0  0
  162.3430  208.6320  155.7880 C   0  0  0  0  0  3  0  0  0  0  0  0
  159.6220  209.2080  155.4400 C   0  0  0  0  0  0  0  0  0  0  0  0
  160.5400  210.2540  155.7100 C   0  0  0  0  0  0  0  0  0  0  0  0
  160.0850  207.8930  155.3250 C   0  0  0  0  0  3  0  0  0  0  0  0
  156.0050  212.2070  156.7970 C   0  0  2  0  0  3  0  0  0  0  0  0
  155.2790  214.4310  156.8810 C   0  0  0  0  0  2  0  0  0  0  0  0
  158.2180  213.3020  156.0070 C   0  0  0  0  0  2  0  0  0  0  0  0
  157.1560  213.1840  157.1170 C   0  0  1  0  0  3  0  0  0  0  0  0
  157.7810  210.8100  155.8090 C   0  0  1  0  0  3  0  0  0  0  0  0
  158.6800  211.9820  155.3540 C   0  0  1  0  0  0  0  0  0  0  0  0
  162.5150  212.9610  149.0650 C   0  0  0  0  0  3  0  0  0  0  0  0
  163.6450  212.4800  148.1650 C   0  0  0  0  0  1  0  0  0  0  0  0
  162.1520  214.3880  148.6810 C   0  0  0  0  0  1  0  0  0  0  0  0
  155.5580  214.2530  152.9490 C   0  0  0  0  0  1  0  0  0  0  0  0
  156.5000  213.0550  153.0240 C   0  0  0  0  0  2  0  0  0  0  0  0
  1  6  1  6  0  0  0
  1 11  1  0  0  0  0
  2 10  1  0  0  0  0
  3  9  1  6  0  0  0
  3  7  1  0  0  0  0
  3  5  1  0  0  0  0
  4 12  1  0  0  0  0
  5  6  1  0  0  0  0
  7  8  1  0  0  0  0
  8  2  1  6  0  0  0
  8  1  1  0  0  0  0
 10  4  1  0  0  0  0
 12 11  1  1  0  0  0
 12 29  1  0  0  0  0
 14 28  1  0  0  0  0
 15 24  1  0  0  0  0
 15 25  1  0  0  0  0
 16 21  1  0  0  0  0
 18 20  2  0  0  0  0
 20 17  1  0  0  0  0
 21 22  1  0  0  0  0
 22 13  1  0  0  0  0
 22 17  2  0  0  0  0
 23 21  2  0  0  0  0
 23 18  1  0  0  0  0
 24 14  1  6  0  0  0
 24 27  1  0  0  0  0
 25 19  1  0  0  0  0
 27 26  1  6  0  0  0
 27 19  1  0  0  0  0
 28 16  1  6  0  0  0
 29 28  1  0  0  0  0
 29 13  1  1  0  0  0
 29 26  1  0  0  0  0
 30  3  1  0  0  0  0
 31 30  1  0  0  0  0
 32 30  1  0  0  0  0
 33 34  1  0  0  0  0
 34  4  1  0  0  0  0
M  END
>  <MODEL>
3

>  <REMARK>
 VINA RESULT:      -1.8      2.588      6.046
  Name = 
  3 active torsions:
  status: ('A' for Active; 'I' for Inactive)
    1  A    between atoms: C_7  and  C_11
    2  A    between atoms: N_9  and  C_18
    3  A    between atoms: C_33  and  C_34
                            x       y       z     vdW  Elec       q    Type
                         _______ _______ _______ _____ _____    ______ ____

>  <TORSDO>
F 3

$$$$
