=
 OpenBabel11052421593D

 30 34  0  0  1  0  0  0  0  0999 V2000
  161.4320  209.3620  149.7840 C   0  0  1  0  0  3  0  0  0  0  0  0
  161.8420  207.5870  148.3150 C   0  0  0  0  0  2  0  0  0  0  0  0
  161.0370  208.0430  153.7600 C   0  0  0  0  0  0  0  0  0  0  0  0
  160.6470  211.5110  150.8610 C   0  0  2  0  0  3  0  0  0  0  0  0
  161.7360  210.8440  150.0310 C   0  0  2  0  0  3  0  0  0  0  0  0
  161.4890  214.1970  148.7100 C   0  0  0  0  0  2  0  0  0  0  0  0
  158.4530  211.5330  153.0280 C   0  0  0  0  0  2  0  0  0  0  0  0
  160.8510  212.8630  149.1060 C   0  0  1  0  0  3  0  0  0  0  0  0
  163.1390  212.0170  148.3610 C   0  0  0  0  0  2  0  0  0  0  0  0
  160.0200  210.1580  154.4700 C   0  0  1  0  0  3  0  0  0  0  0  0
  161.0640  209.0730  154.5650 C   0  0  0  0  0  0  0  0  0  0  0  0
  161.7120  211.6390  148.7580 C   0  0  1  0  0  3  0  0  0  0  0  0
  160.5750  212.8580  150.4850 O   0  0  0  0  0  0  0  0  0  0  0  0
  162.0310  206.3570  149.1920 C   0  0  0  0  0  2  0  0  0  0  0  0
  160.3080  211.2210  155.3370 O   0  0  0  0  0  0  0  0  0  0  0  0
  158.4250  212.7440  155.2800 C   0  0  0  0  0  2  0  0  0  0  0  0
  163.1410  213.0000  147.1860 C   0  0  0  0  0  2  0  0  0  0  0  0
  162.4500  208.7520  148.9410 N   0  0  0  0  0  2  0  0  0  0  0  0
  161.0400  207.0890  152.8570 C   0  0  0  0  0  3  0  0  0  0  0  0
  160.3720  205.3780  150.5840 O   0  0  0  0  0  0  0  0  0  0  0  0
  162.0780  214.1030  147.3050 C   0  0  0  0  0  2  0  0  0  0  0  0
  161.4110  208.7030  151.1180 C   0  0  0  0  0  3  0  0  0  0  0  0
  160.9010  211.3840  152.3670 C   0  0  0  0  0  2  0  0  0  0  0  0
  162.0550  209.1440  155.5360 O   0  0  0  0  0  1  0  0  0  0  0  0
  159.7210  210.6680  153.0410 C   0  0  2  0  0  3  0  0  0  0  0  0
  159.0790  211.5230  155.9350 C   0  0  0  0  0  2  0  0  0  0  0  0
  157.8000  213.8210  153.2440 O   0  0  0  0  0  1  0  0  0  0  0  0
  161.1390  206.3600  150.4000 C   0  0  0  0  0  0  0  0  0  0  0  0
  161.2210  207.4200  151.4250 C   0  0  0  0  0  0  0  0  0  0  0  0
  158.6570  212.8550  153.7700 C   0  0  2  0  0  3  0  0  0  0  0  0
  1  5  1  0  0  0  0
  1 22  1  1  0  0  0
  2 18  1  0  0  0  0
  2 14  1  0  0  0  0
  3 11  2  0  0  0  0
  4 23  1  1  0  0  0
  5  4  1  0  0  0  0
  6  8  1  0  0  0  0
  7 25  1  0  0  0  0
  7 30  1  0  0  0  0
  8 13  1  0  0  0  0
  9 12  1  0  0  0  0
 10 11  1  0  0  0  0
 10 15  1  0  0  0  0
 11 24  1  0  0  0  0
 12  8  1  0  0  0  0
 12  5  1  0  0  0  0
 13  4  1  0  0  0  0
 14 28  1  0  0  0  0
 15 26  1  0  0  0  0
 16 26  1  0  0  0  0
 17 21  1  0  0  0  0
 17  9  1  0  0  0  0
 18  1  1  0  0  0  0
 19  3  2  0  0  0  0
 21  6  1  0  0  0  0
 22 29  2  0  0  0  0
 23 25  1  0  0  0  0
 25 10  1  0  0  0  0
 27 30  1  0  0  0  0
 28 20  2  0  0  0  0
 28 29  1  0  0  0  0
 29 19  1  0  0  0  0
 30 16  1  0  0  0  0
M  END
>  <MODEL>
1

>  <REMARK>
 VINA RESULT:      -6.8      0.000      0.000
  Name = 
  0 active torsions:
  status: ('A' for Active; 'I' for Inactive)
                            x       y       z     vdW  Elec       q    Type
                         _______ _______ _______ _____ _____    ______ ____

>  <TORSDO>
F 0

$$$$
=
 OpenBabel11052421593D

 30 34  0  0  1  0  0  0  0  0999 V2000
  161.2690  208.9050  151.0670 C   0  0  1  0  0  3  0  0  0  0  0  0
  161.6360  207.0120  149.7410 C   0  0  0  0  0  2  0  0  0  0  0  0
  161.2900  207.9720  155.1690 C   0  0  0  0  0  0  0  0  0  0  0  0
  160.4740  211.1160  152.0020 C   0  0  2  0  0  3  0  0  0  0  0  0
  161.5180  210.4150  151.1420 C   0  0  2  0  0  3  0  0  0  0  0  0
  160.9900  213.6080  149.5370 C   0  0  0  0  0  2  0  0  0  0  0  0
  158.4810  211.2630  154.3500 C   0  0  0  0  0  2  0  0  0  0  0  0
  160.4560  212.2950  150.1150 C   0  0  1  0  0  3  0  0  0  0  0  0
  162.7090  211.4740  149.2470 C   0  0  0  0  0  2  0  0  0  0  0  0
  160.2350  210.1030  155.7660 C   0  0  1  0  0  3  0  0  0  0  0  0
  161.3360  209.0770  155.8670 C   0  0  0  0  0  0  0  0  0  0  0  0
  161.3440  211.0790  149.8080 C   0  0  1  0  0  3  0  0  0  0  0  0
  160.3030  212.4150  151.5080 O   0  0  0  0  0  0  0  0  0  0  0  0
  161.9630  205.8830  150.7110 C   0  0  0  0  0  2  0  0  0  0  0  0
  160.5450  211.2580  156.4970 O   0  0  0  0  0  0  0  0  0  0  0  0
  158.5910  212.6900  156.4700 C   0  0  0  0  0  2  0  0  0  0  0  0
  162.5600  212.3350  147.9880 C   0  0  0  0  0  2  0  0  0  0  0  0
  162.2380  208.2570  150.1950 N   0  0  0  0  0  2  0  0  0  0  0  0
  161.2610  206.9340  154.3640 C   0  0  0  0  0  3  0  0  0  0  0  0
  160.4830  204.9800  152.3360 O   0  0  0  0  0  0  0  0  0  0  0  0
  161.4570  213.3990  148.0990 C   0  0  0  0  0  2  0  0  0  0  0  0
  161.3980  208.3810  152.4530 C   0  0  0  0  0  3  0  0  0  0  0  0
  160.8660  211.1500  153.4830 C   0  0  0  0  0  2  0  0  0  0  0  0
  162.4040  209.2850  156.7310 O   0  0  0  0  0  1  0  0  0  0  0  0
  159.7870  210.4570  154.3280 C   0  0  2  0  0  3  0  0  0  0  0  0
  159.3600  211.5680  157.1740 C   0  0  0  0  0  2  0  0  0  0  0  0
  157.7360  213.5320  154.4070 O   0  0  0  0  0  1  0  0  0  0  0  0
  161.1800  205.9700  151.9900 C   0  0  0  0  0  0  0  0  0  0  0  0
  161.3000  207.1280  152.8970 C   0  0  0  0  0  0  0  0  0  0  0  0
  158.6830  212.6590  154.9410 C   0  0  2  0  0  3  0  0  0  0  0  0
  1  5  1  0  0  0  0
  1 22  1  1  0  0  0
  2 18  1  0  0  0  0
  2 14  1  0  0  0  0
  3 11  2  0  0  0  0
  4 23  1  1  0  0  0
  5  4  1  0  0  0  0
  6  8  1  0  0  0  0
  7 30  1  0  0  0  0
  8 13  1  0  0  0  0
  9 12  1  0  0  0  0
 10 11  1  0  0  0  0
 10 15  1  0  0  0  0
 11 24  1  0  0  0  0
 12  8  1  0  0  0  0
 12  5  1  0  0  0  0
 13  4  1  0  0  0  0
 14 28  1  0  0  0  0
 15 26  1  0  0  0  0
 16 26  1  0  0  0  0
 17 21  1  0  0  0  0
 17  9  1  0  0  0  0
 18  1  1  0  0  0  0
 19  3  2  0  0  0  0
 21  6  1  0  0  0  0
 22 29  2  0  0  0  0
 23 25  1  0  0  0  0
 25  7  1  0  0  0  0
 25 10  1  0  0  0  0
 27 30  1  0  0  0  0
 28 20  2  0  0  0  0
 28 29  1  0  0  0  0
 29 19  1  0  0  0  0
 30 16  1  0  0  0  0
M  END
>  <MODEL>
2

>  <REMARK>
 VINA RESULT:      -6.4      1.122      1.331
  Name = 
  0 active torsions:
  status: ('A' for Active; 'I' for Inactive)
                            x       y       z     vdW  Elec       q    Type
                         _______ _______ _______ _____ _____    ______ ____

>  <TORSDO>
F 0

$$$$
=
 OpenBabel11052421593D

 30 34  0  0  1  0  0  0  0  0999 V2000
  161.6930  208.4780  150.4210 C   0  0  1  0  0  3  0  0  0  0  0  0
  162.5310  208.8070  148.2610 C   0  0  0  0  0  2  0  0  0  0  0  0
  160.1420  212.0300  152.0570 C   0  0  0  0  0  0  0  0  0  0  0  0
  161.2950  207.7050  152.7960 C   0  0  2  0  0  3  0  0  0  0  0  0
  160.9990  207.4510  151.3230 C   0  0  2  0  0  3  0  0  0  0  0  0
  161.2050  204.1630  152.8060 C   0  0  0  0  0  2  0  0  0  0  0  0
  161.9030  209.5170  155.2150 C   0  0  0  0  0  2  0  0  0  0  0  0
  161.7930  205.5520  152.5400 C   0  0  1  0  0  3  0  0  0  0  0  0
  160.5130  205.2240  150.3580 C   0  0  0  0  0  2  0  0  0  0  0  0
  160.1380  211.1060  154.3270 C   0  0  1  0  0  3  0  0  0  0  0  0
  159.4660  211.7520  153.1410 C   0  0  0  0  0  0  0  0  0  0  0  0
  161.5390  206.0660  151.1140 C   0  0  1  0  0  3  0  0  0  0  0  0
  161.2720  206.4750  153.4640 O   0  0  0  0  0  0  0  0  0  0  0  0
  162.1620  210.2360  147.8860 C   0  0  0  0  0  2  0  0  0  0  0  0
  159.2090  210.7840  155.3260 O   0  0  0  0  0  0  0  0  0  0  0  0
  160.4500  210.0160  157.2610 C   0  0  0  0  0  2  0  0  0  0  0  0
  160.9390  203.7530  150.3070 C   0  0  0  0  0  2  0  0  0  0  0  0
  161.4500  208.1880  149.0160 N   0  0  0  0  0  2  0  0  0  0  0  0
  160.8310  212.1840  150.9480 C   0  0  0  0  0  3  0  0  0  0  0  0
  162.9660  212.2010  148.9540 O   0  0  0  0  0  0  0  0  0  0  0  0
  161.5060  203.2300  151.6360 C   0  0  0  0  0  2  0  0  0  0  0  0
  161.1280  209.8080  150.7740 C   0  0  0  0  0  3  0  0  0  0  0  0
  160.3000  208.6820  153.4300 C   0  0  0  0  0  2  0  0  0  0  0  0
  158.1200  212.0860  153.2000 O   0  0  0  0  0  1  0  0  0  0  0  0
  161.0460  209.8980  154.0000 C   0  0  2  0  0  3  0  0  0  0  0  0
  159.8220  211.1980  156.5150 C   0  0  0  0  0  2  0  0  0  0  0  0
  161.8330  208.0750  157.1190 O   0  0  0  0  0  1  0  0  0  0  0  0
  162.2340  211.1810  149.0510 C   0  0  0  0  0  0  0  0  0  0  0  0
  161.3880  211.0050  150.2480 C   0  0  0  0  0  0  0  0  0  0  0  0
  161.0550  208.9410  156.3520 C   0  0  2  0  0  3  0  0  0  0  0  0
  1 22  1  1  0  0  0
  1  5  1  0  0  0  0
  2 18  1  0  0  0  0
  3 11  2  0  0  0  0
  4 23  1  1  0  0  0
  4 13  1  0  0  0  0
  5  4  1  0  0  0  0
  7 30  1  0  0  0  0
  8  6  1  0  0  0  0
  8 13  1  0  0  0  0
  9 12  1  0  0  0  0
 10 15  1  0  0  0  0
 11 24  1  0  0  0  0
 11 10  1  0  0  0  0
 12  5  1  0  0  0  0
 12  8  1  0  0  0  0
 14  2  1  0  0  0  0
 14 28  1  0  0  0  0
 15 26  1  0  0  0  0
 17  9  1  0  0  0  0
 17 21  1  0  0  0  0
 18  1  1  0  0  0  0
 19  3  2  0  0  0  0
 20 28  2  0  0  0  0
 21  6  1  0  0  0  0
 23 25  1  0  0  0  0
 25 10  1  0  0  0  0
 25  7  1  0  0  0  0
 26 16  1  0  0  0  0
 28 29  1  0  0  0  0
 29 22  2  0  0  0  0
 29 19  1  0  0  0  0
 30 27  1  0  0  0  0
 30 16  1  0  0  0  0
M  END
>  <MODEL>
3

>  <REMARK>
 VINA RESULT:      -6.2      1.721      5.629
  Name = 
  0 active torsions:
  status: ('A' for Active; 'I' for Inactive)
                            x       y       z     vdW  Elec       q    Type
                         _______ _______ _______ _____ _____    ______ ____

>  <TORSDO>
F 0

$$$$
=
 OpenBabel11052421593D

 30 34  0  0  1  0  0  0  0  0999 V2000
  161.5670  210.8010  150.4530 C   0  0  1  0  0  3  0  0  0  0  0  0
  163.0220  211.0060  148.6320 C   0  0  0  0  0  2  0  0  0  0  0  0
  158.8360  213.9960  150.6440 C   0  0  0  0  0  0  0  0  0  0  0  0
  160.5300  210.3300  152.7110 C   0  0  2  0  0  3  0  0  0  0  0  0
  160.8310  209.7770  151.3240 C   0  0  2  0  0  3  0  0  0  0  0  0
  161.1830  206.9490  153.5450 C   0  0  0  0  0  2  0  0  0  0  0  0
  159.8580  212.5950  154.6920 C   0  0  0  0  0  2  0  0  0  0  0  0
  161.5240  208.3860  153.1420 C   0  0  1  0  0  3  0  0  0  0  0  0
  161.1900  207.3790  150.8220 C   0  0  0  0  0  2  0  0  0  0  0  0
  158.2280  213.4740  152.9600 C   0  0  1  0  0  3  0  0  0  0  0  0
  157.8960  213.7150  151.5080 C   0  0  0  0  0  0  0  0  0  0  0  0
  161.6850  208.5800  151.6260 C   0  0  1  0  0  3  0  0  0  0  0  0
  160.5320  209.2620  153.6170 O   0  0  0  0  0  0  0  0  0  0  0  0
  162.5190  212.2000  147.8310 C   0  0  0  0  0  2  0  0  0  0  0  0
  157.0960  213.0680  153.6810 O   0  0  0  0  0  0  0  0  0  0  0  0
  157.7090  212.9860  156.0240 C   0  0  0  0  0  2  0  0  0  0  0  0
  161.9030  206.0940  151.2560 C   0  0  0  0  0  2  0  0  0  0  0  0
  161.8990  210.2390  149.1520 N   0  0  0  0  0  2  0  0  0  0  0  0
  159.8220  214.1590  149.7900 C   0  0  0  0  0  3  0  0  0  0  0  0
  162.4680  214.4530  148.5870 O   0  0  0  0  0  0  0  0  0  0  0  0
  162.0640  205.9640  152.7790 C   0  0  0  0  0  2  0  0  0  0  0  0
  160.6500  211.9610  150.2900 C   0  0  0  0  0  3  0  0  0  0  0  0
  159.1950  211.0800  152.7640 C   0  0  0  0  0  2  0  0  0  0  0  0
  156.5770  213.6680  151.0790 O   0  0  0  0  0  1  0  0  0  0  0  0
  159.4240  212.5290  153.2210 C   0  0  2  0  0  3  0  0  0  0  0  0
  157.1510  213.8160  154.8630 C   0  0  0  0  0  2  0  0  0  0  0  0
  159.4260  211.5070  156.7750 O   0  0  0  0  0  1  0  0  0  0  0  0
  161.9780  213.2980  148.7020 C   0  0  0  0  0  0  0  0  0  0  0  0
  160.8220  213.0850  149.5950 C   0  0  0  0  0  0  0  0  0  0  0  0
  158.8050  211.9930  155.6250 C   0  0  2  0  0  3  0  0  0  0  0  0
  1 22  1  6  0  0  0
  1  5  1  0  0  0  0
  2 18  1  0  0  0  0
  3 11  2  0  0  0  0
  4 23  1  6  0  0  0
  4 13  1  0  0  0  0
  5 12  1  0  0  0  0
  5  4  1  0  0  0  0
  7 30  1  0  0  0  0
  8  6  1  0  0  0  0
  8 13  1  0  0  0  0
  9 17  1  0  0  0  0
  9 12  1  0  0  0  0
 10 25  1  0  0  0  0
 10 15  1  0  0  0  0
 11 10  1  0  0  0  0
 12  8  1  0  0  0  0
 14  2  1  0  0  0  0
 14 28  1  0  0  0  0
 15 26  1  0  0  0  0
 17 21  1  0  0  0  0
 18  1  1  0  0  0  0
 19  3  2  0  0  0  0
 20 28  2  0  0  0  0
 21  6  1  0  0  0  0
 23 25  1  0  0  0  0
 24 11  1  0  0  0  0
 25  7  1  0  0  0  0
 26 16  1  0  0  0  0
 28 29  1  0  0  0  0
 29 19  1  0  0  0  0
 29 22  2  0  0  0  0
 30 16  1  0  0  0  0
 30 27  1  0  0  0  0
M  END
>  <MODEL>
4

>  <REMARK>
 VINA RESULT:      -5.5      1.666      5.486
  Name = 
  0 active torsions:
  status: ('A' for Active; 'I' for Inactive)
                            x       y       z     vdW  Elec       q    Type
                         _______ _______ _______ _____ _____    ______ ____

>  <TORSDO>
F 0

$$$$
=
 OpenBabel11052421593D

 30 34  0  0  1  0  0  0  0  0999 V2000
  159.8730  210.0020  154.7110 C   0  0  1  0  0  3  0  0  0  0  0  0
  159.8040  209.6820  157.0280 C   0  0  0  0  0  2  0  0  0  0  0  0
  161.4740  206.6600  152.7170 C   0  0  0  0  0  0  0  0  0  0  0  0
  160.0830  210.9650  152.3820 C   0  0  2  0  0  3  0  0  0  0  0  0
  159.1420  210.6750  153.5440 C   0  0  2  0  0  3  0  0  0  0  0  0
  157.9720  213.8020  152.1650 C   0  0  0  0  0  2  0  0  0  0  0  0
  162.5250  210.3730  150.5950 C   0  0  0  0  0  2  0  0  0  0  0  0
  159.0890  212.9240  152.7350 C   0  0  1  0  0  3  0  0  0  0  0  0
  157.1220  212.0050  154.0750 C   0  0  0  0  0  2  0  0  0  0  0  0
  161.8360  207.9340  150.6540 C   0  0  1  0  0  3  0  0  0  0  0  0
  161.2610  206.7760  151.4320 C   0  0  0  0  0  0  0  0  0  0  0  0
  158.6410  212.0410  153.9100 C   0  0  1  0  0  3  0  0  0  0  0  0
  159.6190  212.1090  151.7200 O   0  0  0  0  0  0  0  0  0  0  0  0
  160.2200  208.2360  157.2600 C   0  0  0  0  0  2  0  0  0  0  0  0
  161.3840  207.9310  149.3270 O   0  0  0  0  0  0  0  0  0  0  0  0
  162.5890  209.6640  148.1380 C   0  0  0  0  0  2  0  0  0  0  0  0
  156.5530  213.4180  154.2450 C   0  0  0  0  0  2  0  0  0  0  0  0
  158.9750  209.7830  155.8350 N   0  0  0  0  0  2  0  0  0  0  0  0
  161.6140  206.6470  154.0230 C   0  0  0  0  0  3  0  0  0  0  0  0
  162.3540  207.3120  156.7700 O   0  0  0  0  0  0  0  0  0  0  0  0
  157.1820  214.4520  153.2980 C   0  0  0  0  0  2  0  0  0  0  0  0
  160.3810  208.6990  154.2020 C   0  0  0  0  0  3  0  0  0  0  0  0
  160.1920  209.7860  151.4100 C   0  0  0  0  0  2  0  0  0  0  0  0
  160.5190  205.8000  150.7810 O   0  0  0  0  0  1  0  0  0  0  0  0
  161.6530  209.3260  151.3020 C   0  0  2  0  0  3  0  0  0  0  0  0
  162.5310  208.1950  148.5690 C   0  0  0  0  0  2  0  0  0  0  0  0
  162.3950  211.9480  148.8030 O   0  0  0  0  0  1  0  0  0  0  0  0
  161.2810  207.7740  156.3020 C   0  0  0  0  0  0  0  0  0  0  0  0
  161.0500  207.7420  154.8440 C   0  0  0  0  0  0  0  0  0  0  0  0
  162.0380  210.6520  149.1710 C   0  0  2  0  0  3  0  0  0  0  0  0
  1 22  1  6  0  0  0
  1 18  1  0  0  0  0
  2 14  1  0  0  0  0
  3 19  2  0  0  0  0
  4 23  1  6  0  0  0
  4  5  1  0  0  0  0
  5 12  1  0  0  0  0
  5  1  1  0  0  0  0
  6  8  1  0  0  0  0
  6 21  1  0  0  0  0
  7 25  1  0  0  0  0
  8 12  1  0  0  0  0
  9 17  1  0  0  0  0
 10 25  1  0  0  0  0
 10 11  1  0  0  0  0
 11  3  2  0  0  0  0
 12  9  1  0  0  0  0
 13  4  1  0  0  0  0
 13  8  1  0  0  0  0
 15 10  1  0  0  0  0
 16 26  1  0  0  0  0
 16 30  1  0  0  0  0
 18  2  1  0  0  0  0
 19 29  1  0  0  0  0
 21 17  1  0  0  0  0
 22 29  2  0  0  0  0
 24 11  1  0  0  0  0
 25 23  1  0  0  0  0
 26 15  1  0  0  0  0
 27 30  1  0  0  0  0
 28 20  2  0  0  0  0
 28 14  1  0  0  0  0
 29 28  1  0  0  0  0
 30  7  1  0  0  0  0
M  END
>  <MODEL>
5

>  <REMARK>
 VINA RESULT:      -4.1      2.365      5.983
  Name = 
  0 active torsions:
  status: ('A' for Active; 'I' for Inactive)
                            x       y       z     vdW  Elec       q    Type
                         _______ _______ _______ _____ _____    ______ ____

>  <TORSDO>
F 0

$$$$
