=
 OpenBabel11062410113D

 43 49  0  0  1  0  0  0  0  0999 V2000
  160.8790  203.4480  149.2520 C   0  0  0  0  0  0  0  0  0  0  0  0
  161.9850  208.3850  149.4870 C   0  0  0  0  0  0  0  0  0  0  0  0
  161.7080  209.0750  152.1750 C   0  0  0  0  0  0  0  0  0  0  0  0
  161.4950  205.7310  148.7060 C   0  0  0  0  0  0  0  0  0  0  0  0
  160.7600  203.7990  150.5980 C   0  0  0  0  0  3  0  0  0  0  0  0
  160.6090  202.0490  148.8210 C   0  0  0  0  0  1  0  0  0  0  0  0
  161.3750  206.0920  150.0680 C   0  0  0  0  0  0  0  0  0  0  0  0
  161.2460  204.4130  148.3080 C   0  0  0  0  0  3  0  0  0  0  0  0
  161.0070  205.1150  151.0060 C   0  0  0  0  0  3  0  0  0  0  0  0
  161.5010  207.7930  151.7660 N   0  0  0  0  0  0  0  0  0  0  0  0
  161.6170  207.4240  150.4580 C   0  0  0  0  0  0  0  0  0  0  0  0
  162.1040  208.0060  148.1410 C   0  0  0  0  0  3  0  0  0  0  0  0
  162.2350  209.7050  149.9010 C   0  0  0  0  0  0  0  0  0  0  0  0
  162.0900  210.0460  151.2480 C   0  0  0  0  0  3  0  0  0  0  0  0
  161.8580  206.6880  147.7550 C   0  0  0  0  0  3  0  0  0  0  0  0
  161.6300  209.4390  153.6260 C   0  0  1  0  0  3  0  0  0  0  0  0
  160.8980  210.7580  153.8420 C   0  0  0  0  0  2  0  0  0  0  0  0
  160.8220  208.4030  154.3710 C   0  0  0  0  0  2  0  0  0  0  0  0
  159.6410  210.4660  154.5170 N   0  0  0  0  0  0  0  0  0  0  0  0
  159.8740  209.2110  155.2210 C   0  0  0  0  0  2  0  0  0  0  0  0
  159.4250  211.5120  155.5070 C   0  0  0  0  0  2  0  0  0  0  0  0
  157.9270  211.7970  155.6650 C   0  0  2  0  0  3  0  0  0  0  0  0
  156.1640  213.2370  155.0620 O   0  0  0  0  0  0  0  0  0  0  0  0
  157.0970  211.0660  154.6640 C   0  0  0  0  0  2  0  0  0  0  0  0
  157.5100  213.2450  155.4760 C   0  0  1  0  0  0  0  0  0  0  0  0
  157.6180  213.9570  156.8150 C   0  0  0  0  0  1  0  0  0  0  0  0
  155.9050  211.9740  154.4870 C   0  0  0  0  0  2  0  0  0  0  0  0
  158.3670  213.9680  154.4190 C   0  0  0  0  0  2  0  0  0  0  0  0
  158.0760  213.4930  152.9990 C   0  0  0  0  0  3  0  0  0  0  0  0
  156.8310  213.9680  150.8800 C   0  0  0  0  0  2  0  0  0  0  0  0
  159.1040  212.9160  150.7930 C   0  0  0  0  0  2  0  0  0  0  0  0
  158.1330  213.8600  150.0890 C   0  0  0  0  0  2  0  0  0  0  0  0
  159.3820  213.4150  152.2120 C   0  0  0  0  0  2  0  0  0  0  0  0
  157.1140  214.4530  152.3030 C   0  0  0  0  0  2  0  0  0  0  0  0
  162.6660  210.7640  148.9380 C   0  0  0  0  0  2  0  0  0  0  0  0
  162.3900  213.2570  146.8870 C   0  0  0  0  0  2  0  0  0  0  0  0
  161.0910  213.1050  146.0800 C   0  0  1  0  0  3  0  0  0  0  0  0
  160.8020  211.1050  147.5510 C   0  0  0  0  0  2  0  0  0  0  0  0
  162.1580  213.0020  148.3840 C   0  0  0  0  0  2  0  0  0  0  0  0
  161.5680  211.6780  148.6700 N   0  0  0  0  0  0  0  0  0  0  0  0
  160.0700  212.1800  146.7490 C   0  0  0  0  0  2  0  0  0  0  0  0
  159.0840  214.3060  145.0940 C   0  0  0  0  0  1  0  0  0  0  0  0
  160.4750  214.4530  145.7030 C   0  0  0  0  0  2  0  0  0  0  0  0
  1  5  1  0  0  0  0
  2 13  2  0  0  0  0
  2 11  1  0  0  0  0
  4  7  2  0  0  0  0
  5  9  2  0  0  0  0
  6  1  1  0  0  0  0
  7 11  1  0  0  0  0
  7  9  1  0  0  0  0
  8  4  1  0  0  0  0
  8  1  2  0  0  0  0
 10  3  1  0  0  0  0
 11 10  2  0  0  0  0
 12  2  1  0  0  0  0
 13 14  1  0  0  0  0
 14  3  2  0  0  0  0
 15 12  2  0  0  0  0
 15  4  1  0  0  0  0
 16  3  1  6  0  0  0
 16 17  1  0  0  0  0
 16 18  1  0  0  0  0
 17 19  1  0  0  0  0
 18 20  1  0  0  0  0
 19 20  1  0  0  0  0
 19 21  1  0  0  0  0
 22 21  1  6  0  0  0
 23 25  1  0  0  0  0
 24 22  1  0  0  0  0
 25 22  1  0  0  0  0
 25 26  1  1  0  0  0
 27 24  1  0  0  0  0
 27 23  1  0  0  0  0
 28 25  1  0  0  0  0
 29 28  1  0  0  0  0
 30 34  1  0  0  0  0
 31 33  1  0  0  0  0
 32 31  1  0  0  0  0
 32 30  1  0  0  0  0
 33 29  1  0  0  0  0
 34 29  1  0  0  0  0
 35 13  1  0  0  0  0
 36 39  1  0  0  0  0
 37 43  1  1  0  0  0
 37 41  1  0  0  0  0
 37 36  1  0  0  0  0
 38 40  1  0  0  0  0
 39 40  1  0  0  0  0
 40 35  1  0  0  0  0
 41 38  1  0  0  0  0
 42 43  1  0  0  0  0
M  END
>  <MODEL>
1

>  <REMARK>
 VINA RESULT:      -8.4      0.000      0.000
  Name = 
  8 active torsions:
  status: ('A' for Active; 'I' for Inactive)
    1  A    between atoms: C_1  and  C_34
    2  A    between atoms: C_1  and  N_35
    3  A    between atoms: C_2  and  C_13
    4  A    between atoms: C_3  and  C_4
    5  A    between atoms: C_3  and  N_12
    6  A    between atoms: C_11  and  C_14
    7  A    between atoms: C_14  and  C_22
    8  A    between atoms: C_19  and  C_37
                            x       y       z     vdW  Elec       q    Type
                         _______ _______ _______ _____ _____    ______ ____

>  <TORSDO>
F 8

$$$$
=
 OpenBabel11062410113D

 43 49  0  0  1  0  0  0  0  0999 V2000
  160.8140  202.0080  146.4510 C   0  0  0  0  0  0  0  0  0  0  0  0
  161.9510  206.6740  148.0580 C   0  0  0  0  0  0  0  0  0  0  0  0
  162.0530  206.4920  150.8390 C   0  0  0  0  0  0  0  0  0  0  0  0
  161.3530  204.3710  146.5640 C   0  0  0  0  0  0  0  0  0  0  0  0
  160.8850  201.9220  147.8430 C   0  0  0  0  0  3  0  0  0  0  0  0
  160.4840  200.7990  145.6470 C   0  0  0  0  0  1  0  0  0  0  0  0
  161.4240  204.2910  147.9740 C   0  0  0  0  0  0  0  0  0  0  0  0
  161.0480  203.2300  145.8140 C   0  0  0  0  0  3  0  0  0  0  0  0
  161.1890  203.0570  148.6030 C   0  0  0  0  0  3  0  0  0  0  0  0
  161.7890  205.3900  150.0840 N   0  0  0  0  0  0  0  0  0  0  0  0
  161.7210  205.4460  148.7220 C   0  0  0  0  0  0  0  0  0  0  0  0
  161.8810  206.7320  146.6580 C   0  0  0  0  0  3  0  0  0  0  0  0
  162.2590  207.8120  148.8240 C   0  0  0  0  0  0  0  0  0  0  0  0
  162.3040  207.7150  150.2170 C   0  0  0  0  0  3  0  0  0  0  0  0
  161.5810  205.5890  145.9170 C   0  0  0  0  0  3  0  0  0  0  0  0
  162.1790  206.3880  152.3280 C   0  0  1  0  0  3  0  0  0  0  0  0
  161.6660  207.6400  153.0300 C   0  0  0  0  0  2  0  0  0  0  0  0
  161.3160  205.2580  152.8370 C   0  0  0  0  0  2  0  0  0  0  0  0
  160.4590  207.2800  153.7590 N   0  0  0  0  0  0  0  0  0  0  0  0
  160.5850  205.8500  154.0160 C   0  0  0  0  0  2  0  0  0  0  0  0
  160.4960  207.9790  155.0360 C   0  0  0  0  0  2  0  0  0  0  0  0
  161.1630  209.3490  154.8760 C   0  0  2  0  0  3  0  0  0  0  0  0
  160.9150  211.6660  155.2200 O   0  0  0  0  0  0  0  0  0  0  0  0
  162.0220  209.7060  156.0430 C   0  0  0  0  0  2  0  0  0  0  0  0
  160.2160  210.5320  154.7640 C   0  0  1  0  0  0  0  0  0  0  0  0
  159.8550  210.7220  153.2990 C   0  0  0  0  0  1  0  0  0  0  0  0
  161.9530  211.2140  156.0640 C   0  0  0  0  0  2  0  0  0  0  0  0
  158.9410  210.3420  155.6060 C   0  0  0  0  0  2  0  0  0  0  0  0
  158.0520  211.5820  155.6180 C   0  0  0  0  0  3  0  0  0  0  0  0
  155.7750  212.4920  155.1170 C   0  0  0  0  0  2  0  0  0  0  0  0
  157.0830  213.3800  157.0620 C   0  0  0  0  0  2  0  0  0  0  0  0
  155.6870  213.0580  156.5330 C   0  0  0  0  0  2  0  0  0  0  0  0
  157.9520  212.1210  157.0430 C   0  0  0  0  0  2  0  0  0  0  0  0
  156.6570  211.2420  155.0980 C   0  0  0  0  0  2  0  0  0  0  0  0
  162.5520  209.1330  148.1890 C   0  0  0  0  0  2  0  0  0  0  0  0
  162.8540  212.3280  148.6340 C   0  0  0  0  0  2  0  0  0  0  0  0
  161.6820  213.0460  147.9450 C   0  0  1  0  0  3  0  0  0  0  0  0
  160.9650  210.7020  147.4590 C   0  0  0  0  0  2  0  0  0  0  0  0
  162.3740  211.1200  149.4510 C   0  0  0  0  0  2  0  0  0  0  0  0
  161.6100  210.1370  148.6550 N   0  0  0  0  0  0  0  0  0  0  0  0
  160.4800  212.1320  147.6920 C   0  0  0  0  0  2  0  0  0  0  0  0
  160.2680  214.0730  149.7870 C   0  0  0  0  0  1  0  0  0  0  0  0
  161.2750  214.3300  148.6700 C   0  0  0  0  0  2  0  0  0  0  0  0
  1  5  1  0  0  0  0
  2 11  1  0  0  0  0
  2 13  1  0  0  0  0
  4  7  1  0  0  0  0
  5  9  2  0  0  0  0
  6  1  1  0  0  0  0
  7  9  1  0  0  0  0
  7 11  2  0  0  0  0
  8  1  2  0  0  0  0
  8  4  1  0  0  0  0
 10  3  2  0  0  0  0
 11 10  1  0  0  0  0
 12  2  2  0  0  0  0
 13 14  2  0  0  0  0
 14  3  1  0  0  0  0
 15  4  2  0  0  0  0
 15 12  1  0  0  0  0
 16  3  1  6  0  0  0
 16 18  1  0  0  0  0
 16 17  1  0  0  0  0
 17 19  1  0  0  0  0
 18 20  1  0  0  0  0
 19 20  1  0  0  0  0
 19 21  1  0  0  0  0
 22 21  1  1  0  0  0
 22 24  1  0  0  0  0
 23 27  1  0  0  0  0
 24 27  1  0  0  0  0
 25 26  1  6  0  0  0
 25 22  1  0  0  0  0
 25 23  1  0  0  0  0
 25 28  1  0  0  0  0
 28 29  1  0  0  0  0
 29 33  1  0  0  0  0
 30 32  1  0  0  0  0
 32 31  1  0  0  0  0
 33 31  1  0  0  0  0
 34 30  1  0  0  0  0
 34 29  1  0  0  0  0
 35 40  1  0  0  0  0
 35 13  1  0  0  0  0
 36 39  1  0  0  0  0
 37 36  1  0  0  0  0
 37 43  1  1  0  0  0
 38 41  1  0  0  0  0
 38 40  1  0  0  0  0
 40 39  1  0  0  0  0
 41 37  1  0  0  0  0
 43 42  1  0  0  0  0
M  END
>  <MODEL>
2

>  <REMARK>
 VINA RESULT:      -7.9      1.976      3.659
  Name = 
  8 active torsions:
  status: ('A' for Active; 'I' for Inactive)
    1  A    between atoms: C_1  and  C_34
    2  A    between atoms: C_1  and  N_35
    3  A    between atoms: C_2  and  C_13
    4  A    between atoms: C_3  and  C_4
    5  A    between atoms: C_3  and  N_12
    6  A    between atoms: C_11  and  C_14
    7  A    between atoms: C_14  and  C_22
    8  A    between atoms: C_19  and  C_37
                            x       y       z     vdW  Elec       q    Type
                         _______ _______ _______ _____ _____    ______ ____

>  <TORSDO>
F 8

$$$$
=
 OpenBabel11062410113D

 43 49  0  0  1  0  0  0  0  0999 V2000
  161.3230  204.2470  147.8830 C   0  0  0  0  0  0  0  0  0  0  0  0
  161.5610  208.3190  150.8850 C   0  0  0  0  0  0  0  0  0  0  0  0
  162.0610  210.4660  149.1770 C   0  0  0  0  0  0  0  0  0  0  0  0
  161.3190  205.7410  149.7960 C   0  0  0  0  0  0  0  0  0  0  0  0
  161.5560  205.3300  147.0330 C   0  0  0  0  0  3  0  0  0  0  0  0
  161.2070  202.8730  147.3210 C   0  0  0  0  0  1  0  0  0  0  0  0
  161.5560  206.8420  148.9400 C   0  0  0  0  0  0  0  0  0  0  0  0
  161.2040  204.4530  149.2610 C   0  0  0  0  0  3  0  0  0  0  0  0
  161.6720  206.6230  147.5580 C   0  0  0  0  0  3  0  0  0  0  0  0
  161.9150  209.2070  148.6790 N   0  0  0  0  0  0  0  0  0  0  0  0
  161.6810  208.1330  149.4870 C   0  0  0  0  0  0  0  0  0  0  0  0
  161.3190  207.2150  151.7170 C   0  0  0  0  0  3  0  0  0  0  0  0
  161.6740  209.6200  151.4080 C   0  0  0  0  0  0  0  0  0  0  0  0
  161.9300  210.6900  150.5480 C   0  0  0  0  0  3  0  0  0  0  0  0
  161.2030  205.9350  151.1740 C   0  0  0  0  0  3  0  0  0  0  0  0
  162.2600  211.6340  148.2600 C   0  0  1  0  0  3  0  0  0  0  0  0
  161.2870  211.6070  147.0870 C   0  0  0  0  0  2  0  0  0  0  0  0
  161.9660  212.9190  148.9980 C   0  0  0  0  0  2  0  0  0  0  0  0
  160.3630  212.7210  147.2470 N   0  0  0  0  0  0  0  0  0  0  0  0
  161.0860  213.6980  148.0520 C   0  0  0  0  0  2  0  0  0  0  0  0
  160.1380  213.2930  145.9270 C   0  0  0  0  0  2  0  0  0  0  0  0
  161.3030  212.9540  144.9910 C   0  0  2  0  0  3  0  0  0  0  0  0
  162.2170  213.2990  142.8480 O   0  0  0  0  0  0  0  0  0  0  0  0
  162.4600  213.8800  145.1600 C   0  0  0  0  0  2  0  0  0  0  0  0
  160.9980  213.0410  143.5050 C   0  0  1  0  0  0  0  0  0  0  0  0
  160.4550  211.6980  143.0450 C   0  0  0  0  0  1  0  0  0  0  0  0
  163.0900  213.8860  143.7890 C   0  0  0  0  0  2  0  0  0  0  0  0
  159.9930  214.1620  143.1790 C   0  0  0  0  0  2  0  0  0  0  0  0
  159.6480  214.2300  141.6940 C   0  0  0  0  0  3  0  0  0  0  0  0
  160.5590  214.4520  139.3740 C   0  0  0  0  0  2  0  0  0  0  0  0
  158.5430  213.0250  139.8020 C   0  0  0  0  0  2  0  0  0  0  0  0
  159.8020  213.1930  138.9550 C   0  0  0  0  0  2  0  0  0  0  0  0
  158.9150  212.9560  141.2840 C   0  0  0  0  0  2  0  0  0  0  0  0
  160.9170  214.3850  140.8590 C   0  0  0  0  0  2  0  0  0  0  0  0
  161.5200  209.8970  152.8690 C   0  0  0  0  0  2  0  0  0  0  0  0
  159.9690  210.8420  155.5510 C   0  0  0  0  0  2  0  0  0  0  0  0
  158.7480  211.6890  155.1560 C   0  0  1  0  0  3  0  0  0  0  0  0
  159.5080  211.1080  152.8470 C   0  0  0  0  0  2  0  0  0  0  0  0
  160.0700  209.5670  154.7010 C   0  0  0  0  0  2  0  0  0  0  0  0
  160.1190  209.8300  153.2490 N   0  0  0  0  0  0  0  0  0  0  0  0
  158.2970  211.4600  153.7100 C   0  0  0  0  0  2  0  0  0  0  0  0
  156.2280  211.6250  155.4560 C   0  0  0  0  0  1  0  0  0  0  0  0
  157.5880  211.5400  156.1420 C   0  0  0  0  0  2  0  0  0  0  0  0
  1  8  1  0  0  0  0
  2 13  1  0  0  0  0
  2 12  1  0  0  0  0
  3 14  1  0  0  0  0
  4 15  1  0  0  0  0
  5  9  1  0  0  0  0
  5  1  2  0  0  0  0
  6  1  1  0  0  0  0
  7 11  1  0  0  0  0
  7  4  1  0  0  0  0
  8  4  2  0  0  0  0
  9  7  2  0  0  0  0
 10  3  2  0  0  0  0
 10 11  1  0  0  0  0
 11  2  2  0  0  0  0
 13 35  1  0  0  0  0
 14 13  2  0  0  0  0
 15 12  2  0  0  0  0
 16 18  1  0  0  0  0
 16  3  1  1  0  0  0
 17 19  1  0  0  0  0
 17 16  1  0  0  0  0
 19 20  1  0  0  0  0
 20 18  1  0  0  0  0
 21 19  1  0  0  0  0
 22 24  1  0  0  0  0
 22 21  1  1  0  0  0
 23 25  1  0  0  0  0
 23 27  1  0  0  0  0
 25 26  1  6  0  0  0
 25 22  1  0  0  0  0
 27 24  1  0  0  0  0
 28 25  1  0  0  0  0
 29 28  1  0  0  0  0
 30 34  1  0  0  0  0
 31 33  1  0  0  0  0
 32 30  1  0  0  0  0
 32 31  1  0  0  0  0
 33 29  1  0  0  0  0
 34 29  1  0  0  0  0
 35 40  1  0  0  0  0
 37 36  1  0  0  0  0
 37 43  1  1  0  0  0
 38 40  1  0  0  0  0
 38 41  1  0  0  0  0
 39 36  1  0  0  0  0
 40 39  1  0  0  0  0
 41 37  1  0  0  0  0
 42 43  1  0  0  0  0
M  END
>  <MODEL>
3

>  <REMARK>
 VINA RESULT:      -7.4      3.120      8.282
  Name = 
  8 active torsions:
  status: ('A' for Active; 'I' for Inactive)
    1  A    between atoms: C_1  and  C_34
    2  A    between atoms: C_1  and  N_35
    3  A    between atoms: C_2  and  C_13
    4  A    between atoms: C_3  and  C_4
    5  A    between atoms: C_3  and  N_12
    6  A    between atoms: C_11  and  C_14
    7  A    between atoms: C_14  and  C_22
    8  A    between atoms: C_19  and  C_37
                            x       y       z     vdW  Elec       q    Type
                         _______ _______ _______ _____ _____    ______ ____

>  <TORSDO>
F 8

$$$$
=
 OpenBabel11062410113D

 43 49  0  0  1  0  0  0  0  0999 V2000
  160.2750  208.4360  155.8230 C   0  0  0  0  0  0  0  0  0  0  0  0
  161.2620  210.5360  151.3210 C   0  0  0  0  0  0  0  0  0  0  0  0
  161.9820  208.4140  149.6600 C   0  0  0  0  0  0  0  0  0  0  0  0
  160.5880  210.0020  153.9960 C   0  0  0  0  0  0  0  0  0  0  0  0
  160.6190  207.3780  154.9800 C   0  0  0  0  0  3  0  0  0  0  0  0
  159.9300  208.1700  157.2460 C   0  0  0  0  0  1  0  0  0  0  0  0
  160.9400  208.9350  153.1370 C   0  0  0  0  0  0  0  0  0  0  0  0
  160.2590  209.7450  155.3310 C   0  0  0  0  0  3  0  0  0  0  0  0
  160.9500  207.6250  153.6420 C   0  0  0  0  0  3  0  0  0  0  0  0
  161.6280  208.1880  150.9550 N   0  0  0  0  0  0  0  0  0  0  0  0
  161.2800  209.2040  151.7980 C   0  0  0  0  0  0  0  0  0  0  0  0
  160.9050  211.5810  152.1870 C   0  0  0  0  0  3  0  0  0  0  0  0
  161.5920  210.7790  149.9760 C   0  0  0  0  0  0  0  0  0  0  0  0
  161.9560  209.7130  149.1500 C   0  0  0  0  0  3  0  0  0  0  0  0
  160.5730  211.3140  153.5160 C   0  0  0  0  0  3  0  0  0  0  0  0
  162.3020  207.2740  148.7430 C   0  0  1  0  0  3  0  0  0  0  0  0
  161.9510  205.9290  149.3660 C   0  0  0  0  0  2  0  0  0  0  0  0
  161.4600  207.3710  147.4930 C   0  0  0  0  0  2  0  0  0  0  0  0
  160.8360  205.3670  148.6170 N   0  0  0  0  0  0  0  0  0  0  0  0
  160.9240  205.9750  147.2950 C   0  0  0  0  0  2  0  0  0  0  0  0
  161.0790  203.9380  148.4790 C   0  0  0  0  0  2  0  0  0  0  0  0
  160.6960  203.2030  149.7690 C   0  0  2  0  0  3  0  0  0  0  0  0
  160.7930  201.1510  150.9200 O   0  0  0  0  0  0  0  0  0  0  0  0
  161.7220  203.3590  150.8410 C   0  0  0  0  0  2  0  0  0  0  0  0
  160.5430  201.6970  149.6460 C   0  0  1  0  0  0  0  0  0  0  0  0
  159.1100  201.3900  149.2420 C   0  0  0  0  0  1  0  0  0  0  0  0
  161.5760  202.0830  151.6350 C   0  0  0  0  0  2  0  0  0  0  0  0
  161.5250  201.0900  148.6260 C   0  0  0  0  0  2  0  0  0  0  0  0
  160.8280  200.5760  147.3700 C   0  0  0  0  0  3  0  0  0  0  0  0
  160.0810  201.1410  145.0490 C   0  0  0  0  0  2  0  0  0  0  0  0
  160.8780  198.8260  145.5840 C   0  0  0  0  0  2  0  0  0  0  0  0
  160.8110  199.9120  144.5130 C   0  0  0  0  0  2  0  0  0  0  0  0
  161.5830  199.3640  146.8300 C   0  0  0  0  0  2  0  0  0  0  0  0
  160.7790  201.6680  146.3040 C   0  0  0  0  0  2  0  0  0  0  0  0
  161.5550  212.1550  149.3930 C   0  0  0  0  0  2  0  0  0  0  0  0
  160.0650  213.6510  146.9360 C   0  0  0  0  0  2  0  0  0  0  0  0
  161.1210  214.2920  146.0210 C   0  0  1  0  0  3  0  0  0  0  0  0
  162.6940  213.1930  147.6210 C   0  0  0  0  0  2  0  0  0  0  0  0
  160.4430  212.2110  147.3120 C   0  0  0  0  0  2  0  0  0  0  0  0
  161.7680  212.1000  147.9560 N   0  0  0  0  0  0  0  0  0  0  0  0
  162.5130  213.6770  146.1830 C   0  0  0  0  0  2  0  0  0  0  0  0
  161.6420  213.5660  143.6450 C   0  0  0  0  0  1  0  0  0  0  0  0
  160.6820  214.3260  144.5560 C   0  0  0  0  0  2  0  0  0  0  0  0
  1  6  1  0  0  0  0
  2 11  1  0  0  0  0
  2 12  1  0  0  0  0
  3 10  1  0  0  0  0
  4  8  2  0  0  0  0
  5  1  2  0  0  0  0
  7  9  2  0  0  0  0
  7  4  1  0  0  0  0
  8  1  1  0  0  0  0
  9  5  1  0  0  0  0
 10 11  2  0  0  0  0
 11  7  1  0  0  0  0
 12 15  2  0  0  0  0
 13  2  2  0  0  0  0
 14  3  2  0  0  0  0
 14 13  1  0  0  0  0
 15  4  1  0  0  0  0
 16 17  1  0  0  0  0
 16  3  1  1  0  0  0
 18 16  1  0  0  0  0
 19 17  1  0  0  0  0
 20 18  1  0  0  0  0
 20 19  1  0  0  0  0
 21 19  1  0  0  0  0
 22 21  1  6  0  0  0
 22 24  1  0  0  0  0
 23 27  1  0  0  0  0
 24 27  1  0  0  0  0
 25 26  1  6  0  0  0
 25 22  1  0  0  0  0
 25 23  1  0  0  0  0
 28 25  1  0  0  0  0
 29 28  1  0  0  0  0
 30 34  1  0  0  0  0
 31 33  1  0  0  0  0
 32 30  1  0  0  0  0
 32 31  1  0  0  0  0
 33 29  1  0  0  0  0
 34 29  1  0  0  0  0
 35 13  1  0  0  0  0
 36 39  1  0  0  0  0
 37 43  1  6  0  0  0
 37 41  1  0  0  0  0
 37 36  1  0  0  0  0
 38 40  1  0  0  0  0
 39 40  1  0  0  0  0
 40 35  1  0  0  0  0
 41 38  1  0  0  0  0
 42 43  1  0  0  0  0
M  END
>  <MODEL>
4

>  <REMARK>
 VINA RESULT:      -7.0      3.138      8.827
  Name = 
  8 active torsions:
  status: ('A' for Active; 'I' for Inactive)
    1  A    between atoms: C_1  and  C_34
    2  A    between atoms: C_1  and  N_35
    3  A    between atoms: C_2  and  C_13
    4  A    between atoms: C_3  and  C_4
    5  A    between atoms: C_3  and  N_12
    6  A    between atoms: C_11  and  C_14
    7  A    between atoms: C_14  and  C_22
    8  A    between atoms: C_19  and  C_37
                            x       y       z     vdW  Elec       q    Type
                         _______ _______ _______ _____ _____    ______ ____

>  <TORSDO>
F 8

$$$$
=
 OpenBabel11062410113D

 43 49  0  0  1  0  0  0  0  0999 V2000
  159.3160  212.9530  142.8280 C   0  0  0  0  0  0  0  0  0  0  0  0
  159.5440  213.3670  147.8710 C   0  0  0  0  0  0  0  0  0  0  0  0
  161.3790  211.4320  148.6870 C   0  0  0  0  0  0  0  0  0  0  0  0
  158.9760  213.6350  145.1330 C   0  0  0  0  0  0  0  0  0  0  0  0
  160.2460  211.9990  143.2440 C   0  0  0  0  0  3  0  0  0  0  0  0
  158.9940  213.0960  141.3820 C   0  0  0  0  0  1  0  0  0  0  0  0
  159.9170  212.6700  145.5600 C   0  0  0  0  0  0  0  0  0  0  0  0
  158.6830  213.7690  143.7710 C   0  0  0  0  0  3  0  0  0  0  0  0
  160.5470  211.8570  144.6040 C   0  0  0  0  0  3  0  0  0  0  0  0
  161.0990  211.6040  147.3660 N   0  0  0  0  0  0  0  0  0  0  0  0
  160.1980  212.5340  146.9330 C   0  0  0  0  0  0  0  0  0  0  0  0
  158.6180  214.3230  147.4260 C   0  0  0  0  0  3  0  0  0  0  0  0
  159.8510  213.2240  149.2360 C   0  0  0  0  0  0  0  0  0  0  0  0
  160.7680  212.2500  149.6380 C   0  0  0  0  0  3  0  0  0  0  0  0
  158.3350  214.4530  146.0660 C   0  0  0  0  0  3  0  0  0  0  0  0
  162.4150  210.4440  149.1280 C   0  0  1  0  0  3  0  0  0  0  0  0
  161.9760  209.6790  150.3700 C   0  0  0  0  0  2  0  0  0  0  0  0
  162.6120  209.3970  148.0580 C   0  0  0  0  0  2  0  0  0  0  0  0
  161.7550  208.2920  149.9850 N   0  0  0  0  0  0  0  0  0  0  0  0
  162.5910  208.0890  148.8080 C   0  0  0  0  0  2  0  0  0  0  0  0
  162.2680  207.4540  151.0600 C   0  0  0  0  0  2  0  0  0  0  0  0
  161.2740  206.3330  151.3850 C   0  0  2  0  0  3  0  0  0  0  0  0
  160.4920  204.2050  150.7490 O   0  0  0  0  0  0  0  0  0  0  0  0
  161.8150  205.3610  152.3800 C   0  0  0  0  0  2  0  0  0  0  0  0
  160.8720  205.4520  150.2160 C   0  0  1  0  0  0  0  0  0  0  0  0
  159.6750  206.0850  149.5240 C   0  0  0  0  0  1  0  0  0  0  0  0
  161.1130  204.0770  152.0110 C   0  0  0  0  0  2  0  0  0  0  0  0
  162.0220  205.2500  149.2120 C   0  0  0  0  0  2  0  0  0  0  0  0
  161.5280  204.9070  147.8100 C   0  0  0  0  0  3  0  0  0  0  0  0
  161.7890  205.3620  145.3630 C   0  0  0  0  0  2  0  0  0  0  0  0
  161.2120  203.0570  146.1580 C   0  0  0  0  0  2  0  0  0  0  0  0
  161.9590  203.8670  145.1010 C   0  0  0  0  0  2  0  0  0  0  0  0
  161.7270  203.4160  147.5520 C   0  0  0  0  0  2  0  0  0  0  0  0
  162.2920  205.7160  146.7630 C   0  0  0  0  0  2  0  0  0  0  0  0
  159.2290  214.0950  150.2780 C   0  0  0  0  0  2  0  0  0  0  0  0
  159.4180  212.8730  153.2720 C   0  0  0  0  0  2  0  0  0  0  0  0
  158.1660  213.2830  154.0650 C   0  0  1  0  0  3  0  0  0  0  0  0
  157.5210  214.3040  151.8770 C   0  0  0  0  0  2  0  0  0  0  0  0
  159.0550  212.3610  151.8700 C   0  0  0  0  0  2  0  0  0  0  0  0
  158.2800  213.3330  151.0720 N   0  0  0  0  0  0  0  0  0  0  0  0
  156.9910  213.6870  153.1690 C   0  0  0  0  0  2  0  0  0  0  0  0
  158.9190  211.3280  155.4990 C   0  0  0  0  0  1  0  0  0  0  0  0
  157.7570  212.2320  155.0980 C   0  0  0  0  0  2  0  0  0  0  0  0
  1  5  2  0  0  0  0
  1  8  1  0  0  0  0
  2 13  1  0  0  0  0
  3 14  1  0  0  0  0
  4  7  1  0  0  0  0
  4 15  1  0  0  0  0
  5  9  1  0  0  0  0
  6  1  1  0  0  0  0
  7 11  1  0  0  0  0
  8  4  2  0  0  0  0
  9  7  2  0  0  0  0
 10  3  2  0  0  0  0
 11 10  1  0  0  0  0
 11  2  2  0  0  0  0
 12  2  1  0  0  0  0
 13 14  2  0  0  0  0
 13 35  1  0  0  0  0
 15 12  2  0  0  0  0
 16  3  1  6  0  0  0
 16 17  1  0  0  0  0
 18 20  1  0  0  0  0
 18 16  1  0  0  0  0
 19 17  1  0  0  0  0
 19 21  1  0  0  0  0
 20 19  1  0  0  0  0
 22 21  1  6  0  0  0
 22 24  1  0  0  0  0
 23 27  1  0  0  0  0
 25 26  1  6  0  0  0
 25 23  1  0  0  0  0
 25 22  1  0  0  0  0
 27 24  1  0  0  0  0
 28 25  1  0  0  0  0
 29 28  1  0  0  0  0
 30 34  1  0  0  0  0
 31 33  1  0  0  0  0
 32 30  1  0  0  0  0
 32 31  1  0  0  0  0
 33 29  1  0  0  0  0
 34 29  1  0  0  0  0
 35 40  1  0  0  0  0
 36 37  1  0  0  0  0
 37 43  1  6  0  0  0
 38 41  1  0  0  0  0
 39 36  1  0  0  0  0
 40 39  1  0  0  0  0
 40 38  1  0  0  0  0
 41 37  1  0  0  0  0
 43 42  1  0  0  0  0
M  END
>  <MODEL>
5

>  <REMARK>
 VINA RESULT:      -5.4      2.437      8.631
  Name = 
  8 active torsions:
  status: ('A' for Active; 'I' for Inactive)
    1  A    between atoms: C_1  and  C_34
    2  A    between atoms: C_1  and  N_35
    3  A    between atoms: C_2  and  C_13
    4  A    between atoms: C_3  and  C_4
    5  A    between atoms: C_3  and  N_12
    6  A    between atoms: C_11  and  C_14
    7  A    between atoms: C_14  and  C_22
    8  A    between atoms: C_19  and  C_37
                            x       y       z     vdW  Elec       q    Type
                         _______ _______ _______ _____ _____    ______ ____

>  <TORSDO>
F 8

$$$$
