=
 OpenBabel11062408203D

 32 37  0  0  1  0  0  0  0  0999 V2000
  161.2070  210.4670  155.6810 C   0  0  0  0  0  0  0  0  0  0  0  0
  160.5380  211.5650  156.5240 C   0  0  1  0  0  3  0  0  0  0  0  0
  162.1880  209.5840  156.4290 C   0  0  0  0  0  2  0  0  0  0  0  0
  159.4500  212.0650  152.5890 C   0  0  0  0  0  2  0  0  0  0  0  0
  158.0010  214.4270  153.5800 C   0  0  0  0  0  3  0  0  0  0  0  0
  158.3110  211.8850  153.5830 C   0  0  2  0  0  3  0  0  0  0  0  0
  156.9400  211.6280  156.1860 C   0  0  2  0  0  3  0  0  0  0  0  0
  158.0810  213.1750  154.3940 C   0  0  2  0  0  0  0  0  0  0  0  0
  160.1170  212.6970  155.5940 C   0  0  0  0  0  2  0  0  0  0  0  0
  157.2600  213.0470  155.6580 C   0  0  2  0  0  3  0  0  0  0  0  0
  159.4750  211.0450  157.2600 O   0  0  0  0  0  1  0  0  0  0  0  0
  158.7720  213.4360  155.7480 C   0  0  2  0  0  3  0  0  0  0  0  0
  159.0980  209.7590  154.6510 N   0  0  0  0  0  0  0  0  0  0  0  0
  158.5180  214.4520  152.3390 C   0  0  0  0  0  3  0  0  0  0  0  0
  160.5200  209.9310  154.3900 C   0  0  2  0  0  3  0  0  0  0  0  0
  157.0380  210.6160  155.1870 O   0  0  0  0  0  0  0  0  0  0  0  0
  159.1030  213.2290  151.6460 C   0  0  0  0  0  2  0  0  0  0  0  0
  162.6960  210.6940  155.5200 C   0  0  0  0  0  2  0  0  0  0  0  0
  158.1720  210.6360  154.4060 C   0  0  0  0  0  0  0  0  0  0  0  0
  161.6160  207.3500  151.7090 C   0  0  0  0  0  2  0  0  0  0  0  0
  161.1900  206.1340  153.8790 C   0  0  0  0  0  2  0  0  0  0  0  0
  161.1360  208.6460  153.8100 C   0  0  1  0  0  3  0  0  0  0  0  0
  161.0180  206.0980  152.3500 C   0  0  2  0  0  3  0  0  0  0  0  0
  160.5320  207.3860  154.4460 C   0  0  0  0  0  2  0  0  0  0  0  0
  160.9740  208.6090  152.2860 C   0  0  1  0  0  3  0  0  0  0  0  0
  161.5770  209.7170  151.7190 F   0  0  0  0  0  0  0  0  0  0  0  0
  160.8750  203.6860  152.1970 C   0  0  0  0  0  1  0  0  0  0  0  0
  161.3530  204.9700  150.2840 C   0  0  0  0  0  1  0  0  0  0  0  0
  161.5600  204.8840  151.7220 N   0  0  0  0  0  0  0  0  0  0  0  0
  155.5560  211.6150  156.8050 C   0  0  0  0  0  2  0  0  0  0  0  0
  153.7020  210.0410  157.2610 C   0  0  0  0  0  1  0  0  0  0  0  0
  154.7430  210.4640  156.2450 C   0  0  0  0  0  2  0  0  0  0  0  0
  1  3  1  0  0  0  0
  1  2  1  0  0  0  0
  2 11  1  6  0  0  0
  6  4  1  1  0  0  0
  6  8  1  0  0  0  0
  6 19  1  0  0  0  0
  7 30  1  6  0  0  0
  8  5  1  6  0  0  0
  8 10  1  0  0  0  0
  8 12  1  0  0  0  0
  9 12  1  0  0  0  0
  9  2  1  0  0  0  0
 10 12  1  0  0  0  0
 10  7  1  0  0  0  0
 14  5  2  0  0  0  0
 15 13  1  0  0  0  0
 15  1  1  0  0  0  0
 16  7  1  0  0  0  0
 17 14  1  0  0  0  0
 17  4  1  0  0  0  0
 18  1  1  0  0  0  0
 18  3  1  0  0  0  0
 19 13  2  0  0  0  0
 19 16  1  0  0  0  0
 20 25  1  0  0  0  0
 20 23  1  0  0  0  0
 21 24  1  0  0  0  0
 22 15  1  0  0  0  0
 22 24  1  0  0  0  0
 23 21  1  0  0  0  0
 25 22  1  0  0  0  0
 26 25  1  0  0  0  0
 28 29  1  0  0  0  0
 29 27  1  0  0  0  0
 29 23  1  0  0  0  0
 32 30  1  0  0  0  0
 32 31  1  0  0  0  0
M  END
>  <MODEL>
1

>  <REMARK>
 VINA RESULT:      -6.2      0.000      0.000
  Name = 
  4 active torsions:
  status: ('A' for Active; 'I' for Inactive)
    1  A    between atoms: C_11  and  C_12
    2  A    between atoms: C_11  and  C_31
    3  A    between atoms: C_16  and  C_27
    4  A    between atoms: C_19  and  N_26
                            x       y       z     vdW  Elec       q    Type
                         _______ _______ _______ _____ _____    ______ ____

>  <TORSDO>
F 4

$$$$
=
 OpenBabel11062408203D

 32 37  0  0  1  0  0  0  0  0999 V2000
  160.8430  206.9880  154.0980 C   0  0  0  0  0  0  0  0  0  0  0  0
  160.1750  207.2990  155.4460 C   0  0  1  0  0  3  0  0  0  0  0  0
  160.4580  205.6610  153.4750 C   0  0  0  0  0  2  0  0  0  0  0  0
  162.9500  210.2250  154.6370 C   0  0  0  0  0  2  0  0  0  0  0  0
  162.1670  211.3040  157.2610 C   0  0  0  0  0  3  0  0  0  0  0  0
  161.5200  210.6980  154.8580 C   0  0  2  0  0  3  0  0  0  0  0  0
  158.6540  210.5760  155.5620 C   0  0  2  0  0  3  0  0  0  0  0  0
  161.1580  210.6710  156.3560 C   0  0  2  0  0  0  0  0  0  0  0  0
  161.0670  208.2660  156.2160 C   0  0  0  0  0  2  0  0  0  0  0  0
  159.6870  210.7460  156.7010 C   0  0  2  0  0  3  0  0  0  0  0  0
  158.8830  207.7880  155.2570 O   0  0  0  0  0  1  0  0  0  0  0  0
  160.4990  209.4490  157.0260 C   0  0  2  0  0  3  0  0  0  0  0  0
  160.3880  209.2170  153.1840 N   0  0  0  0  0  0  0  0  0  0  0  0
  163.4340  211.4670  156.8400 C   0  0  0  0  0  3  0  0  0  0  0  0
  161.3670  208.1400  153.1900 C   0  0  2  0  0  3  0  0  0  0  0  0
  159.1890  210.8460  154.2680 O   0  0  0  0  0  0  0  0  0  0  0  0
  163.9000  211.1390  155.4290 C   0  0  0  0  0  2  0  0  0  0  0  0
  161.7940  205.8130  154.1870 C   0  0  0  0  0  2  0  0  0  0  0  0
  160.3940  210.2520  153.9690 C   0  0  0  0  0  0  0  0  0  0  0  0
  162.1540  208.5280  149.4100 C   0  0  0  0  0  2  0  0  0  0  0  0
  161.2140  206.2200  149.8110 C   0  0  0  0  0  2  0  0  0  0  0  0
  161.7390  207.7220  151.7570 C   0  0  1  0  0  3  0  0  0  0  0  0
  161.2170  207.4440  148.8780 C   0  0  2  0  0  3  0  0  0  0  0  0
  160.7970  206.6390  151.2150 C   0  0  0  0  0  2  0  0  0  0  0  0
  161.7510  208.9390  150.8250 C   0  0  1  0  0  3  0  0  0  0  0  0
  162.6510  209.8810  151.2880 F   0  0  0  0  0  0  0  0  0  0  0  0
  162.5670  206.0870  147.3950 C   0  0  0  0  0  1  0  0  0  0  0  0
  160.3430  206.6080  146.8310 C   0  0  0  0  0  1  0  0  0  0  0  0
  161.5400  207.1210  147.4800 N   0  0  0  0  0  0  0  0  0  0  0  0
  157.4550  211.4670  155.8250 C   0  0  0  0  0  2  0  0  0  0  0  0
  155.3970  210.2700  155.1520 C   0  0  0  0  0  1  0  0  0  0  0  0
  156.4260  211.2960  154.7250 C   0  0  0  0  0  2  0  0  0  0  0  0
  1 18  1  0  0  0  0
  1  2  1  0  0  0  0
  2 11  1  6  0  0  0
  2  9  1  0  0  0  0
  3  1  1  0  0  0  0
  3 18  1  0  0  0  0
  4 17  1  0  0  0  0
  6  4  1  1  0  0  0
  6  8  1  0  0  0  0
  7 30  1  1  0  0  0
  7 10  1  0  0  0  0
  8 10  1  0  0  0  0
  8 12  1  0  0  0  0
  8  5  1  1  0  0  0
  9 12  1  0  0  0  0
 10 12  1  0  0  0  0
 13 15  1  0  0  0  0
 13 19  2  0  0  0  0
 14  5  2  0  0  0  0
 15  1  1  0  0  0  0
 16  7  1  0  0  0  0
 17 14  1  0  0  0  0
 19 16  1  0  0  0  0
 19  6  1  0  0  0  0
 20 25  1  0  0  0  0
 21 24  1  0  0  0  0
 22 15  1  0  0  0  0
 23 20  1  0  0  0  0
 23 21  1  0  0  0  0
 24 22  1  0  0  0  0
 25 26  1  0  0  0  0
 25 22  1  0  0  0  0
 27 29  1  0  0  0  0
 28 29  1  0  0  0  0
 29 23  1  0  0  0  0
 32 31  1  0  0  0  0
 32 30  1  0  0  0  0
M  END
>  <MODEL>
2

>  <REMARK>
 VINA RESULT:      -3.4      2.201      4.015
  Name = 
  4 active torsions:
  status: ('A' for Active; 'I' for Inactive)
    1  A    between atoms: C_11  and  C_12
    2  A    between atoms: C_11  and  C_31
    3  A    between atoms: C_16  and  C_27
    4  A    between atoms: C_19  and  N_26
                            x       y       z     vdW  Elec       q    Type
                         _______ _______ _______ _____ _____    ______ ____

>  <TORSDO>
F 4

$$$$
