=
 OpenBabel11062408263D

 32 37  0  0  1  0  0  0  0  0999 V2000
  161.5000  206.4480  151.1880 C   0  0  0  0  0  0  0  0  0  0  0  0
  161.0340  204.9420  149.3210 C   0  0  0  0  0  0  0  0  0  0  0  0
  161.6230  206.7460  152.6680 C   0  0  0  0  0  2  0  0  0  0  0  0
  161.1990  205.1300  150.7210 C   0  0  0  0  0  0  0  0  0  0  0  0
  160.9820  203.8140  148.5780 C   0  0  1  0  0  3  0  0  0  0  0  0
  161.7910  205.8280  145.0150 C   0  0  0  0  0  3  0  0  0  0  0  0
  161.0040  206.0380  148.4740 C   0  0  0  0  0  0  0  0  0  0  0  0
  161.7120  203.6360  146.1430 C   0  0  0  0  0  3  0  0  0  0  0  0
  160.7230  204.1860  147.1450 C   0  0  2  0  0  3  0  0  0  0  0  0
  160.7500  201.6580  149.8430 C   0  0  0  0  0  0  0  0  0  0  0  0
  160.7830  204.0610  151.7230 C   0  0  1  0  0  3  0  0  0  0  0  0
  161.5780  202.4810  148.9230 C   0  0  0  0  0  2  0  0  0  0  0  0
  161.7020  202.8620  151.7930 C   0  0  0  0  0  2  0  0  0  0  0  0
  160.5220  204.5910  153.1290 C   0  0  0  0  0  2  0  0  0  0  0  0
  161.3020  207.3200  148.9160 C   0  0  0  0  0  3  0  0  0  0  0  0
  159.8790  200.8750  149.3850 O   0  0  0  0  0  0  0  0  0  0  0  0
  161.5690  207.5320  150.2690 C   0  0  0  0  0  0  0  0  0  0  0  0
  160.8420  205.6660  147.2170 C   0  0  2  0  0  3  0  0  0  0  0  0
  160.9810  201.7290  151.2460 N   0  0  0  0  0  2  0  0  0  0  0  0
  161.6590  205.5040  153.5400 C   0  0  0  0  0  2  0  0  0  0  0  0
  162.1540  204.3910  145.1240 C   0  0  0  0  0  3  0  0  0  0  0  0
  161.1820  206.4580  146.0270 C   0  0  0  0  0  3  0  0  0  0  0  0
  161.5750  211.2910  149.6170 C   0  0  0  0  0  0  0  0  0  0  0  0
  161.5930  212.0950  148.5260 F   0  0  0  0  0  0  0  0  0  0  0  0
  161.8730  208.9490  150.6810 C   0  0  2  0  0  3  0  0  0  0  0  0
  161.1120  211.7680  150.7740 C   0  0  0  0  0  3  0  0  0  0  0  0
  160.8550  209.4580  151.7080 C   0  0  0  0  0  2  0  0  0  0  0  0
  162.0200  209.8890  149.5050 C   0  0  0  0  0  0  0  0  0  0  0  0
  162.5670  209.4930  148.4410 O   0  0  0  0  0  0  0  0  0  0  0  0
  161.1110  210.9310  152.0240 C   0  0  2  0  0  3  0  0  0  0  0  0
  158.7960  211.1740  152.6320 O   0  0  0  0  0  1  0  0  0  0  0  0
  160.1030  211.4610  153.0350 C   0  0  0  0  0  2  0  0  0  0  0  0
  1  3  1  0  0  0  0
  2  4  2  0  0  0  0
  3 20  1  0  0  0  0
  4  1  1  0  0  0  0
  4 11  1  0  0  0  0
  5 12  1  6  0  0  0
  5  2  1  0  0  0  0
  6 21  1  0  0  0  0
  6 22  2  0  0  0  0
  7 15  2  0  0  0  0
  7  2  1  0  0  0  0
  9  8  1  6  0  0  0
  9 18  1  0  0  0  0
  9  5  1  0  0  0  0
 10 19  1  0  0  0  0
 11 13  1  1  0  0  0
 11 14  1  0  0  0  0
 12 10  1  0  0  0  0
 14 20  1  0  0  0  0
 15 17  1  0  0  0  0
 16 10  2  0  0  0  0
 17  1  2  0  0  0  0
 18 22  1  6  0  0  0
 18  7  1  0  0  0  0
 19 13  1  0  0  0  0
 21  8  2  0  0  0  0
 23 26  2  0  0  0  0
 24 23  1  0  0  0  0
 25 17  1  6  0  0  0
 25 27  1  0  0  0  0
 26 30  1  0  0  0  0
 27 30  1  0  0  0  0
 28 23  1  0  0  0  0
 28 25  1  0  0  0  0
 29 28  2  0  0  0  0
 30 32  1  1  0  0  0
 31 32  1  0  0  0  0
M  END
>  <MODEL>
1

>  <REMARK>
 VINA RESULT:      -9.5      0.000      0.000
  Name = 
  2 active torsions:
  status: ('A' for Active; 'I' for Inactive)
    1  A    between atoms: C_15  and  C_26
    2  A    between atoms: C_16  and  C_27
                            x       y       z     vdW  Elec       q    Type
                         _______ _______ _______ _____ _____    ______ ____

>  <TORSDO>
F 2

$$$$
=
 OpenBabel11062408263D

 32 37  0  0  1  0  0  0  0  0999 V2000
  161.0890  206.2770  150.7850 C   0  0  0  0  0  0  0  0  0  0  0  0
  161.5940  208.6290  151.2130 C   0  0  0  0  0  0  0  0  0  0  0  0
  160.8450  204.8550  151.2470 C   0  0  0  0  0  2  0  0  0  0  0  0
  161.3070  207.3330  151.7250 C   0  0  0  0  0  0  0  0  0  0  0  0
  161.6120  209.8370  151.8180 C   0  0  1  0  0  3  0  0  0  0  0  0
  161.3690  211.9230  148.2130 C   0  0  0  0  0  3  0  0  0  0  0  0
  161.8170  208.8040  149.8570 C   0  0  0  0  0  0  0  0  0  0  0  0
  161.1200  212.0550  150.6630 C   0  0  0  0  0  3  0  0  0  0  0  0
  162.0500  210.8750  150.8230 C   0  0  2  0  0  3  0  0  0  0  0  0
  161.5030  209.8270  154.3260 C   0  0  0  0  0  0  0  0  0  0  0  0
  161.5130  206.9940  153.1940 C   0  0  1  0  0  3  0  0  0  0  0  0
  160.8570  210.2370  153.0520 C   0  0  0  0  0  2  0  0  0  0  0  0
  160.4790  207.5750  154.1330 C   0  0  0  0  0  2  0  0  0  0  0  0
  161.6790  205.5040  153.4730 C   0  0  0  0  0  2  0  0  0  0  0  0
  161.6010  207.7870  148.9370 C   0  0  0  0  0  3  0  0  0  0  0  0
  162.3360  210.5840  154.8880 O   0  0  0  0  0  0  0  0  0  0  0  0
  161.2190  206.5240  149.3900 C   0  0  0  0  0  0  0  0  0  0  0  0
  162.0690  210.0690  149.5730 C   0  0  2  0  0  3  0  0  0  0  0  0
  161.1380  208.5910  154.9310 N   0  0  0  0  0  2  0  0  0  0  0  0
  160.6010  204.7320  152.7410 C   0  0  0  0  0  2  0  0  0  0  0  0
  160.8590  212.5690  149.4500 C   0  0  0  0  0  3  0  0  0  0  0  0
  161.9300  210.7080  148.2570 C   0  0  0  0  0  3  0  0  0  0  0  0
  162.4560  204.4180  146.4600 C   0  0  0  0  0  0  0  0  0  0  0  0
  163.3890  204.5480  145.4850 F   0  0  0  0  0  0  0  0  0  0  0  0
  161.0150  205.4650  148.3380 C   0  0  2  0  0  3  0  0  0  0  0  0
  162.0390  203.1980  146.8070 C   0  0  0  0  0  3  0  0  0  0  0  0
  161.0680  204.0600  148.9490 C   0  0  0  0  0  2  0  0  0  0  0  0
  161.9490  205.6140  147.1580 C   0  0  0  0  0  0  0  0  0  0  0  0
  162.2600  206.7600  146.7360 O   0  0  0  0  0  0  0  0  0  0  0  0
  160.9760  203.0000  147.8520 C   0  0  2  0  0  3  0  0  0  0  0  0
  160.4270  201.5490  149.6910 O   0  0  0  0  0  1  0  0  0  0  0  0
  161.0390  201.5950  148.4360 C   0  0  0  0  0  2  0  0  0  0  0  0
  1  3  1  0  0  0  0
  1  4  1  0  0  0  0
  2  4  2  0  0  0  0
  2  5  1  0  0  0  0
  3 20  1  0  0  0  0
  4 11  1  0  0  0  0
  5 12  1  6  0  0  0
  6 22  2  0  0  0  0
  6 21  1  0  0  0  0
  7  2  1  0  0  0  0
  9  8  1  6  0  0  0
  9  5  1  0  0  0  0
 10 16  2  0  0  0  0
 10 19  1  0  0  0  0
 11 14  1  6  0  0  0
 11 13  1  0  0  0  0
 12 10  1  0  0  0  0
 13 19  1  0  0  0  0
 15 17  1  0  0  0  0
 15  7  2  0  0  0  0
 17  1  2  0  0  0  0
 18 22  1  6  0  0  0
 18  7  1  0  0  0  0
 18  9  1  0  0  0  0
 20 14  1  0  0  0  0
 21  8  2  0  0  0  0
 23 26  2  0  0  0  0
 23 28  1  0  0  0  0
 24 23  1  0  0  0  0
 25 27  1  0  0  0  0
 25 17  1  1  0  0  0
 26 30  1  0  0  0  0
 28 25  1  0  0  0  0
 29 28  2  0  0  0  0
 30 32  1  1  0  0  0
 30 27  1  0  0  0  0
 32 31  1  0  0  0  0
M  END
>  <MODEL>
2

>  <REMARK>
 VINA RESULT:      -9.4      2.457      6.704
  Name = 
  2 active torsions:
  status: ('A' for Active; 'I' for Inactive)
    1  A    between atoms: C_15  and  C_26
    2  A    between atoms: C_16  and  C_27
                            x       y       z     vdW  Elec       q    Type
                         _______ _______ _______ _____ _____    ______ ____

>  <TORSDO>
F 2

$$$$
=
 OpenBabel11062408263D

 32 37  0  0  1  0  0  0  0  0999 V2000
  161.6800  209.2380  151.2510 C   0  0  0  0  0  0  0  0  0  0  0  0
  161.2410  207.0320  150.2960 C   0  0  0  0  0  0  0  0  0  0  0  0
  161.7890  210.1900  152.4240 C   0  0  0  0  0  2  0  0  0  0  0  0
  161.3940  207.8510  151.4490 C   0  0  0  0  0  0  0  0  0  0  0  0
  161.2050  205.6880  150.1610 C   0  0  1  0  0  3  0  0  0  0  0  0
  162.0200  205.8280  146.0720 C   0  0  0  0  0  3  0  0  0  0  0  0
  161.2060  207.6090  149.0370 C   0  0  0  0  0  0  0  0  0  0  0  0
  161.9540  204.4080  148.0880 C   0  0  0  0  0  3  0  0  0  0  0  0
  160.9530  205.3490  148.7190 C   0  0  2  0  0  3  0  0  0  0  0  0
  160.9850  204.3630  152.2820 C   0  0  0  0  0  0  0  0  0  0  0  0
  160.9820  207.3640  152.8320 C   0  0  1  0  0  3  0  0  0  0  0  0
  161.8120  204.6740  151.0870 C   0  0  0  0  0  2  0  0  0  0  0  0
  161.9120  206.3450  153.4520 C   0  0  0  0  0  2  0  0  0  0  0  0
  160.7060  208.4830  153.8310 C   0  0  0  0  0  2  0  0  0  0  0  0
  161.4890  208.9530  148.8340 C   0  0  0  0  0  3  0  0  0  0  0  0
  160.1250  203.4460  152.2380 O   0  0  0  0  0  0  0  0  0  0  0  0
  161.7450  209.7730  149.9340 C   0  0  0  0  0  0  0  0  0  0  0  0
  161.0570  206.6950  148.0960 C   0  0  2  0  0  3  0  0  0  0  0  0
  161.2060  205.0790  153.4920 N   0  0  0  0  0  2  0  0  0  0  0  0
  161.8310  209.4950  153.7730 C   0  0  0  0  0  2  0  0  0  0  0  0
  162.3960  204.6100  146.8360 C   0  0  0  0  0  3  0  0  0  0  0  0
  161.3980  206.8480  146.6750 C   0  0  0  0  0  3  0  0  0  0  0  0
  162.4100  212.6410  147.5090 C   0  0  0  0  0  0  0  0  0  0  0  0
  162.9180  212.7690  146.2590 F   0  0  0  0  0  0  0  0  0  0  0  0
  162.0320  211.2220  149.6420 C   0  0  2  0  0  3  0  0  0  0  0  0
  161.6100  213.5950  147.9910 C   0  0  0  0  0  3  0  0  0  0  0  0
  160.7710  212.0800  149.8000 C   0  0  0  0  0  2  0  0  0  0  0  0
  162.7060  211.4340  148.3040 C   0  0  0  0  0  0  0  0  0  0  0  0
  163.5580  210.6060  147.8850 O   0  0  0  0  0  0  0  0  0  0  0  0
  161.0550  213.5230  149.3870 C   0  0  2  0  0  3  0  0  0  0  0  0
  158.6730  213.7030  149.0960 O   0  0  0  0  0  1  0  0  0  0  0  0
  159.8110  214.3910  149.5250 C   0  0  0  0  0  2  0  0  0  0  0  0
  1  4  1  0  0  0  0
  1  3  1  0  0  0  0
  2  4  2  0  0  0  0
  3 20  1  0  0  0  0
  4 11  1  0  0  0  0
  5  2  1  0  0  0  0
  5 12  1  6  0  0  0
  6 22  2  0  0  0  0
  6 21  1  0  0  0  0
  7  2  1  0  0  0  0
  9  8  1  6  0  0  0
  9  5  1  0  0  0  0
 10 19  1  0  0  0  0
 11 13  1  1  0  0  0
 11 14  1  0  0  0  0
 12 10  1  0  0  0  0
 13 19  1  0  0  0  0
 15  7  2  0  0  0  0
 15 17  1  0  0  0  0
 16 10  2  0  0  0  0
 17  1  2  0  0  0  0
 18 22  1  6  0  0  0
 18  9  1  0  0  0  0
 18  7  1  0  0  0  0
 20 14  1  0  0  0  0
 21  8  2  0  0  0  0
 23 26  2  0  0  0  0
 23 28  1  0  0  0  0
 24 23  1  0  0  0  0
 25 27  1  0  0  0  0
 25 17  1  6  0  0  0
 26 30  1  0  0  0  0
 28 25  1  0  0  0  0
 29 28  2  0  0  0  0
 30 32  1  6  0  0  0
 30 27  1  0  0  0  0
 31 32  1  0  0  0  0
M  END
>  <MODEL>
3

>  <REMARK>
 VINA RESULT:      -8.8      1.936      2.961
  Name = 
  2 active torsions:
  status: ('A' for Active; 'I' for Inactive)
    1  A    between atoms: C_15  and  C_26
    2  A    between atoms: C_16  and  C_27
                            x       y       z     vdW  Elec       q    Type
                         _______ _______ _______ _____ _____    ______ ____

>  <TORSDO>
F 2

$$$$
=
 OpenBabel11062408263D

 32 37  0  0  1  0  0  0  0  0999 V2000
  161.2300  207.1900  150.1850 C   0  0  0  0  0  0  0  0  0  0  0  0
  161.5290  204.9720  149.2050 C   0  0  0  0  0  0  0  0  0  0  0  0
  161.3440  208.7000  150.1390 C   0  0  0  0  0  2  0  0  0  0  0  0
  161.6000  206.3860  149.0620 C   0  0  0  0  0  0  0  0  0  0  0  0
  161.5810  203.9850  148.2840 C   0  0  1  0  0  3  0  0  0  0  0  0
  159.8960  201.1620  150.8520 C   0  0  0  0  0  3  0  0  0  0  0  0
  161.2700  204.4130  150.4460 C   0  0  0  0  0  0  0  0  0  0  0  0
  160.4460  201.7140  148.5120 C   0  0  0  0  0  3  0  0  0  0  0  0
  161.5270  202.6580  148.9880 C   0  0  2  0  0  3  0  0  0  0  0  0
  162.3010  204.6550  145.9740 C   0  0  0  0  0  0  0  0  0  0  0  0
  162.3190  207.0320  147.8860 C   0  0  1  0  0  3  0  0  0  0  0  0
  161.2250  204.0900  146.8290 C   0  0  0  0  0  2  0  0  0  0  0  0
  161.5810  206.9530  146.5670 C   0  0  0  0  0  2  0  0  0  0  0  0
  162.7650  208.4680  148.1400 C   0  0  0  0  0  2  0  0  0  0  0  0
  160.9030  205.1860  151.5400 C   0  0  0  0  0  3  0  0  0  0  0  0
  163.1630  203.8980  145.4550 O   0  0  0  0  0  0  0  0  0  0  0  0
  160.8630  206.5750  151.4150 C   0  0  0  0  0  0  0  0  0  0  0  0
  161.2440  203.0950  150.3800 C   0  0  2  0  0  3  0  0  0  0  0  0
  162.3230  206.0520  145.7070 N   0  0  0  0  0  2  0  0  0  0  0  0
  161.6200  209.2490  148.7500 C   0  0  0  0  0  2  0  0  0  0  0  0
  159.7370  200.9810  149.3850 C   0  0  0  0  0  3  0  0  0  0  0  0
  160.5980  202.1900  151.3420 C   0  0  0  0  0  3  0  0  0  0  0  0
  161.4660  207.7050  155.0080 C   0  0  0  0  0  0  0  0  0  0  0  0
  162.1220  207.2200  156.0900 F   0  0  0  0  0  0  0  0  0  0  0  0
  160.4690  207.3500  152.6440 C   0  0  2  0  0  3  0  0  0  0  0  0
  161.2180  209.0150  154.9260 C   0  0  0  0  0  3  0  0  0  0  0  0
  160.7530  208.8470  152.4700 C   0  0  0  0  0  2  0  0  0  0  0  0
  161.0750  206.7960  153.9140 C   0  0  0  0  0  0  0  0  0  0  0  0
  161.2060  205.5510  154.0630 O   0  0  0  0  0  0  0  0  0  0  0  0
  160.4570  209.5980  153.7670 C   0  0  2  0  0  3  0  0  0  0  0  0
  160.4570  211.5230  152.3240 O   0  0  0  0  0  1  0  0  0  0  0  0
  160.7430  211.0860  153.6200 C   0  0  0  0  0  2  0  0  0  0  0  0
  1 17  1  0  0  0  0
  2  7  2  0  0  0  0
  3  1  1  0  0  0  0
  4  2  1  0  0  0  0
  4  1  2  0  0  0  0
  5 12  1  6  0  0  0
  5  9  1  0  0  0  0
  5  2  1  0  0  0  0
  6 22  2  0  0  0  0
  7 15  1  0  0  0  0
  8 21  2  0  0  0  0
  9  8  1  6  0  0  0
  9 18  1  0  0  0  0
 10 12  1  0  0  0  0
 11 13  1  6  0  0  0
 11 14  1  0  0  0  0
 11  4  1  0  0  0  0
 14 20  1  0  0  0  0
 16 10  2  0  0  0  0
 17 15  2  0  0  0  0
 18  7  1  0  0  0  0
 18 22  1  6  0  0  0
 19 10  1  0  0  0  0
 19 13  1  0  0  0  0
 20  3  1  0  0  0  0
 21  6  1  0  0  0  0
 23 24  1  0  0  0  0
 25 17  1  6  0  0  0
 25 28  1  0  0  0  0
 26 23  2  0  0  0  0
 27 25  1  0  0  0  0
 27 30  1  0  0  0  0
 28 29  2  0  0  0  0
 28 23  1  0  0  0  0
 30 32  1  6  0  0  0
 30 26  1  0  0  0  0
 31 32  1  0  0  0  0
M  END
>  <MODEL>
4

>  <REMARK>
 VINA RESULT:      -7.5      2.850      4.780
  Name = 
  2 active torsions:
  status: ('A' for Active; 'I' for Inactive)
    1  A    between atoms: C_15  and  C_26
    2  A    between atoms: C_16  and  C_27
                            x       y       z     vdW  Elec       q    Type
                         _______ _______ _______ _____ _____    ______ ____

>  <TORSDO>
F 2

$$$$
=
 OpenBabel11062408263D

 32 37  0  0  1  0  0  0  0  0999 V2000
  161.3490  205.9350  149.3950 C   0  0  0  0  0  0  0  0  0  0  0  0
  161.5790  207.7890  150.9700 C   0  0  0  0  0  0  0  0  0  0  0  0
  161.2130  204.4620  149.0750 C   0  0  0  0  0  2  0  0  0  0  0  0
  161.3830  206.3980  150.7490 C   0  0  0  0  0  0  0  0  0  0  0  0
  161.4260  208.5400  152.0840 C   0  0  1  0  0  3  0  0  0  0  0  0
  161.2650  212.1200  149.9490 C   0  0  0  0  0  3  0  0  0  0  0  0
  161.8910  208.6230  149.9090 C   0  0  0  0  0  0  0  0  0  0  0  0
  160.8070  211.0130  152.1040 C   0  0  0  0  0  3  0  0  0  0  0  0
  161.8360  209.9530  151.7800 C   0  0  2  0  0  3  0  0  0  0  0  0
  161.1170  207.2860  154.2370 C   0  0  0  0  0  0  0  0  0  0  0  0
  161.5030  205.3870  151.8800 C   0  0  1  0  0  3  0  0  0  0  0  0
  160.5380  208.2400  153.2560 C   0  0  0  0  0  2  0  0  0  0  0  0
  160.3430  205.3780  152.8520 C   0  0  0  0  0  2  0  0  0  0  0  0
  161.7960  203.9640  151.4170 C   0  0  0  0  0  2  0  0  0  0  0  0
  161.8540  208.1850  148.5920 C   0  0  0  0  0  3  0  0  0  0  0  0
  161.8220  207.7050  155.1910 O   0  0  0  0  0  0  0  0  0  0  0  0
  161.5660  206.8460  148.3240 C   0  0  0  0  0  0  0  0  0  0  0  0
  162.0360  209.8730  150.3090 C   0  0  2  0  0  3  0  0  0  0  0  0
  160.8310  205.8970  154.1150 N   0  0  0  0  0  2  0  0  0  0  0  0
  160.8630  203.6040  150.2790 C   0  0  0  0  0  2  0  0  0  0  0  0
  160.5940  212.0450  151.2730 C   0  0  0  0  0  3  0  0  0  0  0  0
  161.9410  211.0720  149.4640 C   0  0  0  0  0  3  0  0  0  0  0  0
  162.5200  204.4680  145.4980 C   0  0  0  0  0  0  0  0  0  0  0  0
  163.5150  203.5780  145.2610 F   0  0  0  0  0  0  0  0  0  0  0  0
  161.5540  206.4370  146.8740 C   0  0  2  0  0  3  0  0  0  0  0  0
  161.3630  204.3450  144.8440 C   0  0  0  0  0  3  0  0  0  0  0  0
  160.1970  205.8450  146.4760 C   0  0  0  0  0  2  0  0  0  0  0  0
  162.7060  205.5290  146.5060 C   0  0  0  0  0  0  0  0  0  0  0  0
  163.8420  205.7050  147.0210 O   0  0  0  0  0  0  0  0  0  0  0  0
  160.2430  205.3300  145.0390 C   0  0  2  0  0  3  0  0  0  0  0  0
  159.0760  203.4290  144.1360 O   0  0  0  0  0  1  0  0  0  0  0  0
  158.9070  204.7260  144.6260 C   0  0  0  0  0  2  0  0  0  0  0  0
  1  4  1  0  0  0  0
  2  5  1  0  0  0  0
  3  1  1  0  0  0  0
  3 20  1  0  0  0  0
  4  2  2  0  0  0  0
  4 11  1  0  0  0  0
  5 12  1  6  0  0  0
  6 21  1  0  0  0  0
  7 18  1  0  0  0  0
  7  2  1  0  0  0  0
  9  5  1  0  0  0  0
  9  8  1  6  0  0  0
 10 16  2  0  0  0  0
 11 14  1  6  0  0  0
 11 13  1  0  0  0  0
 12 10  1  0  0  0  0
 13 19  1  0  0  0  0
 15  7  2  0  0  0  0
 17 15  1  0  0  0  0
 17  1  2  0  0  0  0
 18 22  1  6  0  0  0
 18  9  1  0  0  0  0
 19 10  1  0  0  0  0
 20 14  1  0  0  0  0
 21  8  2  0  0  0  0
 22  6  2  0  0  0  0
 23 28  1  0  0  0  0
 24 23  1  0  0  0  0
 25 17  1  1  0  0  0
 26 30  1  0  0  0  0
 26 23  2  0  0  0  0
 27 25  1  0  0  0  0
 28 25  1  0  0  0  0
 28 29  2  0  0  0  0
 30 32  1  1  0  0  0
 30 27  1  0  0  0  0
 31 32  1  0  0  0  0
M  END
>  <MODEL>
5

>  <REMARK>
 VINA RESULT:      -7.1      2.699      6.572
  Name = 
  2 active torsions:
  status: ('A' for Active; 'I' for Inactive)
    1  A    between atoms: C_15  and  C_26
    2  A    between atoms: C_16  and  C_27
                            x       y       z     vdW  Elec       q    Type
                         _______ _______ _______ _____ _____    ______ ____

>  <TORSDO>
F 2

$$$$
=
 OpenBabel11062408263D

 32 37  0  0  1  0  0  0  0  0999 V2000
  161.5520  209.5990  151.0020 C   0  0  0  0  0  0  0  0  0  0  0  0
  161.7470  207.2050  150.5530 C   0  0  0  0  0  0  0  0  0  0  0  0
  161.6030  211.0500  150.5700 C   0  0  0  0  0  2  0  0  0  0  0  0
  161.7440  208.5400  150.0610 C   0  0  0  0  0  0  0  0  0  0  0  0
  161.6690  206.0210  149.9070 C   0  0  1  0  0  3  0  0  0  0  0  0
  160.5650  203.9330  153.3450 C   0  0  0  0  0  3  0  0  0  0  0  0
  161.7320  206.9710  151.9190 C   0  0  0  0  0  0  0  0  0  0  0  0
  160.6720  203.8880  150.8810 C   0  0  0  0  0  3  0  0  0  0  0  0
  161.7870  204.9080  150.9100 C   0  0  2  0  0  3  0  0  0  0  0  0
  161.9440  206.0960  147.4120 C   0  0  0  0  0  0  0  0  0  0  0  0
  162.2190  208.8700  148.6530 C   0  0  1  0  0  3  0  0  0  0  0  0
  161.0570  205.7700  148.5590 C   0  0  0  0  0  2  0  0  0  0  0  0
  161.2620  208.4780  147.5480 C   0  0  0  0  0  2  0  0  0  0  0  0
  162.6540  210.3190  148.4650 C   0  0  0  0  0  2  0  0  0  0  0  0
  161.5390  207.9920  152.8390 C   0  0  0  0  0  3  0  0  0  0  0  0
  162.7260  205.2270  146.9470 O   0  0  0  0  0  0  0  0  0  0  0  0
  161.4300  209.3080  152.3900 C   0  0  0  0  0  0  0  0  0  0  0  0
  161.7400  205.6770  152.1820 C   0  0  2  0  0  3  0  0  0  0  0  0
  161.8700  207.3850  146.8140 N   0  0  0  0  0  2  0  0  0  0  0  0
  161.6100  211.2380  149.0630 C   0  0  0  0  0  2  0  0  0  0  0  0
  160.1540  203.4000  152.0200 C   0  0  0  0  0  3  0  0  0  0  0  0
  161.3070  205.0430  153.4350 C   0  0  0  0  0  3  0  0  0  0  0  0
  159.3190  211.0510  155.0460 C   0  0  0  0  0  0  0  0  0  0  0  0
  157.9960  211.2220  155.2890 F   0  0  0  0  0  0  0  0  0  0  0  0
  161.2340  210.3660  153.4440 C   0  0  2  0  0  3  0  0  0  0  0  0
  160.1890  211.1670  156.0520 C   0  0  0  0  0  3  0  0  0  0  0  0
  161.9760  210.0050  154.7360 C   0  0  0  0  0  2  0  0  0  0  0  0
  159.7780  210.6940  153.6910 C   0  0  0  0  0  0  0  0  0  0  0  0
  158.9600  210.7100  152.7320 O   0  0  0  0  0  0  0  0  0  0  0  0
  161.6700  211.0290  155.8280 C   0  0  2  0  0  3  0  0  0  0  0  0
  162.6350  209.3100  157.2070 O   0  0  0  0  0  1  0  0  0  0  0  0
  162.3880  210.6830  157.1250 C   0  0  0  0  0  2  0  0  0  0  0  0
  1 17  1  0  0  0  0
  2  7  2  0  0  0  0
  3  1  1  0  0  0  0
  4  2  1  0  0  0  0
  4  1  2  0  0  0  0
  5 12  1  1  0  0  0
  5  2  1  0  0  0  0
  5  9  1  0  0  0  0
  6 22  2  0  0  0  0
  7 18  1  0  0  0  0
  7 15  1  0  0  0  0
  8 21  2  0  0  0  0
  9  8  1  1  0  0  0
  9 18  1  0  0  0  0
 10 12  1  0  0  0  0
 11 13  1  6  0  0  0
 11  4  1  0  0  0  0
 14 11  1  0  0  0  0
 14 20  1  0  0  0  0
 16 10  2  0  0  0  0
 17 15  2  0  0  0  0
 18 22  1  6  0  0  0
 19 10  1  0  0  0  0
 19 13  1  0  0  0  0
 20  3  1  0  0  0  0
 21  6  1  0  0  0  0
 23 24  1  0  0  0  0
 23 26  2  0  0  0  0
 25 17  1  6  0  0  0
 25 28  1  0  0  0  0
 25 27  1  0  0  0  0
 27 30  1  0  0  0  0
 28 23  1  0  0  0  0
 29 28  2  0  0  0  0
 30 26  1  0  0  0  0
 30 32  1  1  0  0  0
 32 31  1  0  0  0  0
M  END
>  <MODEL>
6

>  <REMARK>
 VINA RESULT:      -6.9      2.798      5.425
  Name = 
  2 active torsions:
  status: ('A' for Active; 'I' for Inactive)
    1  A    between atoms: C_15  and  C_26
    2  A    between atoms: C_16  and  C_27
                            x       y       z     vdW  Elec       q    Type
                         _______ _______ _______ _____ _____    ______ ____

>  <TORSDO>
F 2

$$$$
=
 OpenBabel11062408263D

 32 37  0  0  1  0  0  0  0  0999 V2000
  161.3380  208.0540  151.1800 C   0  0  0  0  0  0  0  0  0  0  0  0
  161.5820  205.8450  150.1630 C   0  0  0  0  0  0  0  0  0  0  0  0
  161.4110  209.5650  151.1280 C   0  0  0  0  0  2  0  0  0  0  0  0
  161.6060  207.2600  150.0200 C   0  0  0  0  0  0  0  0  0  0  0  0
  161.5600  204.8610  149.2370 C   0  0  1  0  0  3  0  0  0  0  0  0
  160.2190  201.9940  151.9540 C   0  0  0  0  0  3  0  0  0  0  0  0
  161.4680  205.2780  151.4210 C   0  0  0  0  0  0  0  0  0  0  0  0
  160.5070  202.5640  149.5720 C   0  0  0  0  0  3  0  0  0  0  0  0
  161.6100  203.5320  149.9360 C   0  0  2  0  0  3  0  0  0  0  0  0
  162.0180  205.5530  146.8670 C   0  0  0  0  0  0  0  0  0  0  0  0
  162.1820  207.9260  148.7780 C   0  0  1  0  0  3  0  0  0  0  0  0
  161.0510  204.9620  147.8280 C   0  0  0  0  0  2  0  0  0  0  0  0
  161.3120  207.8330  147.5440 C   0  0  0  0  0  2  0  0  0  0  0  0
  162.6200  209.3710  148.9900 C   0  0  0  0  0  2  0  0  0  0  0  0
  161.2000  206.0390  152.5510 C   0  0  0  0  0  3  0  0  0  0  0  0
  162.8380  204.8180  146.2580 O   0  0  0  0  0  0  0  0  0  0  0  0
  161.1160  207.4270  152.4380 C   0  0  0  0  0  0  0  0  0  0  0  0
  161.4650  203.9590  151.3530 C   0  0  2  0  0  3  0  0  0  0  0  0
  161.9800  206.9510  146.6060 N   0  0  0  0  0  2  0  0  0  0  0  0
  161.5280  210.1240  149.7210 C   0  0  0  0  0  2  0  0  0  0  0  0
  159.9100  201.8130  150.5120 C   0  0  0  0  0  3  0  0  0  0  0  0
  160.9440  203.0380  152.3730 C   0  0  0  0  0  3  0  0  0  0  0  0
  160.8880  207.6560  156.2390 C   0  0  0  0  0  0  0  0  0  0  0  0
  160.6730  206.7920  157.2610 F   0  0  0  0  0  0  0  0  0  0  0  0
  160.8350  208.1900  153.7050 C   0  0  2  0  0  3  0  0  0  0  0  0
  161.5110  208.8120  156.4790 C   0  0  0  0  0  3  0  0  0  0  0  0
  161.9850  209.1470  154.0420 C   0  0  0  0  0  2  0  0  0  0  0  0
  160.4750  207.2940  154.8690 C   0  0  0  0  0  0  0  0  0  0  0  0
  159.7810  206.2590  154.6820 O   0  0  0  0  0  0  0  0  0  0  0  0
  161.7360  209.8240  155.3890 C   0  0  2  0  0  3  0  0  0  0  0  0
  163.4180  210.4450  156.9930 O   0  0  0  0  0  1  0  0  0  0  0  0
  162.8730  210.7710  155.7490 C   0  0  0  0  0  2  0  0  0  0  0  0
  1 17  1  0  0  0  0
  2  7  2  0  0  0  0
  3  1  1  0  0  0  0
  4  2  1  0  0  0  0
  4  1  2  0  0  0  0
  5 12  1  1  0  0  0
  5  9  1  0  0  0  0
  5  2  1  0  0  0  0
  6 22  2  0  0  0  0
  7 15  1  0  0  0  0
  8 21  2  0  0  0  0
  9  8  1  6  0  0  0
  9 18  1  0  0  0  0
 10 12  1  0  0  0  0
 11 13  1  6  0  0  0
 11 14  1  0  0  0  0
 11  4  1  0  0  0  0
 14 20  1  0  0  0  0
 16 10  2  0  0  0  0
 17 15  2  0  0  0  0
 18  7  1  0  0  0  0
 18 22  1  6  0  0  0
 19 10  1  0  0  0  0
 19 13  1  0  0  0  0
 20  3  1  0  0  0  0
 21  6  1  0  0  0  0
 23 26  2  0  0  0  0
 23 24  1  0  0  0  0
 25 17  1  6  0  0  0
 25 27  1  0  0  0  0
 25 28  1  0  0  0  0
 27 30  1  0  0  0  0
 28 23  1  0  0  0  0
 29 28  2  0  0  0  0
 30 32  1  1  0  0  0
 30 26  1  0  0  0  0
 32 31  1  0  0  0  0
M  END
>  <MODEL>
7

>  <REMARK>
 VINA RESULT:      -6.8      3.296      5.319
  Name = 
  2 active torsions:
  status: ('A' for Active; 'I' for Inactive)
    1  A    between atoms: C_15  and  C_26
    2  A    between atoms: C_16  and  C_27
                            x       y       z     vdW  Elec       q    Type
                         _______ _______ _______ _____ _____    ______ ____

>  <TORSDO>
F 2

$$$$
=
 OpenBabel11062408263D

 32 37  0  0  1  0  0  0  0  0999 V2000
  161.6700  206.1860  149.5450 C   0  0  0  0  0  0  0  0  0  0  0  0
  161.1600  207.7590  151.3440 C   0  0  0  0  0  0  0  0  0  0  0  0
  161.9720  205.8630  148.0970 C   0  0  0  0  0  2  0  0  0  0  0  0
  161.5070  207.5380  149.9820 C   0  0  0  0  0  0  0  0  0  0  0  0
  161.1680  208.8860  152.0890 C   0  0  1  0  0  3  0  0  0  0  0  0
  161.1000  206.7960  155.6990 C   0  0  0  0  0  3  0  0  0  0  0  0
  160.8310  206.6870  152.1570 C   0  0  0  0  0  0  0  0  0  0  0  0
  161.5340  208.9660  154.6100 C   0  0  0  0  0  3  0  0  0  0  0  0
  160.6380  208.5690  153.4590 C   0  0  2  0  0  3  0  0  0  0  0  0
  161.4680  211.0440  150.8400 C   0  0  0  0  0  0  0  0  0  0  0  0
  161.4200  208.6520  148.9470 C   0  0  1  0  0  3  0  0  0  0  0  0
  162.0080  210.1100  151.8620 C   0  0  0  0  0  2  0  0  0  0  0  0
  162.5120  209.6940  149.0390 C   0  0  0  0  0  2  0  0  0  0  0  0
  161.3000  208.1590  147.5090 C   0  0  0  0  0  2  0  0  0  0  0  0
  160.9930  205.3720  151.7440 C   0  0  0  0  0  3  0  0  0  0  0  0
  160.6680  211.9560  151.1740 O   0  0  0  0  0  0  0  0  0  0  0  0
  161.4300  205.1110  150.4450 C   0  0  0  0  0  0  0  0  0  0  0  0
  160.5370  207.0880  153.3810 C   0  0  2  0  0  3  0  0  0  0  0  0
  161.8990  210.9290  149.4890 N   0  0  0  0  0  2  0  0  0  0  0  0
  162.3320  207.0790  147.2610 C   0  0  0  0  0  2  0  0  0  0  0  0
  161.6930  208.1590  155.6710 C   0  0  0  0  0  3  0  0  0  0  0  0
  160.5640  206.2610  154.5950 C   0  0  0  0  0  3  0  0  0  0  0  0
  160.2160  201.4950  150.4750 C   0  0  0  0  0  0  0  0  0  0  0  0
  159.4550  200.7240  151.2900 F   0  0  0  0  0  0  0  0  0  0  0  0
  161.5710  203.6610  150.0600 C   0  0  2  0  0  3  0  0  0  0  0  0
  160.3570  201.1500  149.1930 C   0  0  0  0  0  3  0  0  0  0  0  0
  161.1850  203.4370  148.5940 C   0  0  0  0  0  2  0  0  0  0  0  0
  160.8390  202.7260  150.9960 C   0  0  0  0  0  0  0  0  0  0  0  0
  160.7980  202.9690  152.2320 O   0  0  0  0  0  0  0  0  0  0  0  0
  161.2230  201.9470  148.2570 C   0  0  2  0  0  3  0  0  0  0  0  0
  161.2060  202.7760  145.9980 O   0  0  0  0  0  1  0  0  0  0  0  0
  160.8310  201.7000  146.8060 C   0  0  0  0  0  2  0  0  0  0  0  0
  1  4  2  0  0  0  0
  1 17  1  0  0  0  0
  2  5  1  0  0  0  0
  2  7  2  0  0  0  0
  3  1  1  0  0  0  0
  4  2  1  0  0  0  0
  5 12  1  1  0  0  0
  5  9  1  0  0  0  0
  7 18  1  0  0  0  0
  8 21  2  0  0  0  0
  9  8  1  1  0  0  0
 10 16  2  0  0  0  0
 10 12  1  0  0  0  0
 11 14  1  6  0  0  0
 11 13  1  0  0  0  0
 11  4  1  0  0  0  0
 13 19  1  0  0  0  0
 15  7  1  0  0  0  0
 17 15  2  0  0  0  0
 18  9  1  0  0  0  0
 18 22  1  1  0  0  0
 19 10  1  0  0  0  0
 20 14  1  0  0  0  0
 20  3  1  0  0  0  0
 21  6  1  0  0  0  0
 22  6  2  0  0  0  0
 23 28  1  0  0  0  0
 23 24  1  0  0  0  0
 25 17  1  1  0  0  0
 25 28  1  0  0  0  0
 26 23  2  0  0  0  0
 27 25  1  0  0  0  0
 28 29  2  0  0  0  0
 30 32  1  6  0  0  0
 30 27  1  0  0  0  0
 30 26  1  0  0  0  0
 31 32  1  0  0  0  0
M  END
>  <MODEL>
8

>  <REMARK>
 VINA RESULT:      -6.7      3.212      8.035
  Name = 
  2 active torsions:
  status: ('A' for Active; 'I' for Inactive)
    1  A    between atoms: C_15  and  C_26
    2  A    between atoms: C_16  and  C_27
                            x       y       z     vdW  Elec       q    Type
                         _______ _______ _______ _____ _____    ______ ____

>  <TORSDO>
F 2

$$$$
=
 OpenBabel11062408263D

 32 37  0  0  1  0  0  0  0  0999 V2000
  160.8720  209.2790  153.8250 C   0  0  0  0  0  0  0  0  0  0  0  0
  159.9240  211.5270  153.6860 C   0  0  0  0  0  0  0  0  0  0  0  0
  161.3570  208.0780  154.6100 C   0  0  0  0  0  2  0  0  0  0  0  0
  160.2940  210.4090  154.4850 C   0  0  0  0  0  0  0  0  0  0  0  0
  159.1640  212.6070  153.9720 C   0  0  1  0  0  3  0  0  0  0  0  0
  158.5270  213.5320  149.9550 C   0  0  0  0  0  3  0  0  0  0  0  0
  160.2710  211.5660  152.3460 C   0  0  0  0  0  0  0  0  0  0  0  0
  157.7790  213.9090  152.2740 C   0  0  0  0  0  3  0  0  0  0  0  0
  159.1500  213.5230  152.7800 C   0  0  2  0  0  3  0  0  0  0  0  0
  158.5970  212.9600  156.3920 C   0  0  0  0  0  0  0  0  0  0  0  0
  160.3640  210.5030  156.0030 C   0  0  1  0  0  3  0  0  0  0  0  0
  158.0920  212.7030  155.0190 C   0  0  0  0  0  2  0  0  0  0  0  0
  159.0220  210.5350  156.7010 C   0  0  0  0  0  2  0  0  0  0  0  0
  161.2560  209.4510  156.6530 C   0  0  0  0  0  2  0  0  0  0  0  0
  160.8260  210.4720  151.6960 C   0  0  0  0  0  3  0  0  0  0  0  0
  158.7570  214.1390  156.8000 O   0  0  0  0  0  0  0  0  0  0  0  0
  161.1130  209.3170  152.4230 C   0  0  0  0  0  0  0  0  0  0  0  0
  159.8440  212.6770  151.7730 C   0  0  2  0  0  3  0  0  0  0  0  0
  158.8540  211.8620  157.2610 N   0  0  0  0  0  2  0  0  0  0  0  0
  160.9360  208.0910  156.0690 C   0  0  0  0  0  2  0  0  0  0  0  0
  157.5200  213.9660  150.9580 C   0  0  0  0  0  3  0  0  0  0  0  0
  159.6370  212.8880  150.3340 C   0  0  0  0  0  3  0  0  0  0  0  0
  160.8920  205.8920  150.7580 C   0  0  0  0  0  0  0  0  0  0  0  0
  160.1320  204.7790  150.9050 F   0  0  0  0  0  0  0  0  0  0  0  0
  161.7250  208.1730  151.6570 C   0  0  2  0  0  3  0  0  0  0  0  0
  161.5080  206.1150  149.5950 C   0  0  0  0  0  3  0  0  0  0  0  0
  161.8850  208.5230  150.1730 C   0  0  0  0  0  2  0  0  0  0  0  0
  160.9930  206.8650  151.8620 C   0  0  0  0  0  0  0  0  0  0  0  0
  160.5090  206.5800  152.9900 O   0  0  0  0  0  0  0  0  0  0  0  0
  162.3960  207.3120  149.3940 C   0  0  2  0  0  3  0  0  0  0  0  0
  161.9480  206.6530  147.1230 O   0  0  0  0  0  1  0  0  0  0  0  0
  162.5520  207.6340  147.9140 C   0  0  0  0  0  2  0  0  0  0  0  0
  1  4  1  0  0  0  0
  1  3  1  0  0  0  0
  2  5  1  0  0  0  0
  2  4  2  0  0  0  0
  3 20  1  0  0  0  0
  4 11  1  0  0  0  0
  5 12  1  6  0  0  0
  6 22  2  0  0  0  0
  6 21  1  0  0  0  0
  7  2  1  0  0  0  0
  9  8  1  6  0  0  0
  9  5  1  0  0  0  0
 10 16  2  0  0  0  0
 10 19  1  0  0  0  0
 11 14  1  1  0  0  0
 11 13  1  0  0  0  0
 12 10  1  0  0  0  0
 13 19  1  0  0  0  0
 15  7  2  0  0  0  0
 15 17  1  0  0  0  0
 17  1  2  0  0  0  0
 18 22  1  6  0  0  0
 18  7  1  0  0  0  0
 18  9  1  0  0  0  0
 20 14  1  0  0  0  0
 21  8  2  0  0  0  0
 23 24  1  0  0  0  0
 23 28  1  0  0  0  0
 25 28  1  0  0  0  0
 25 17  1  1  0  0  0
 26 23  2  0  0  0  0
 27 25  1  0  0  0  0
 28 29  2  0  0  0  0
 30 32  1  6  0  0  0
 30 26  1  0  0  0  0
 30 27  1  0  0  0  0
 31 32  1  0  0  0  0
M  END
>  <MODEL>
9

>  <REMARK>
 VINA RESULT:      -6.6      3.713      8.252
  Name = 
  2 active torsions:
  status: ('A' for Active; 'I' for Inactive)
    1  A    between atoms: C_15  and  C_26
    2  A    between atoms: C_16  and  C_27
                            x       y       z     vdW  Elec       q    Type
                         _______ _______ _______ _____ _____    ______ ____

>  <TORSDO>
F 2

$$$$
