=
 OpenBabel11052422053D

 25 28  0  0  1  0  0  0  0  0999 V2000
  161.3350  205.2960  149.4540 C   0  0  0  0  0  0  0  0  0  0  0  0
  161.3580  206.2670  150.4550 C   0  0  0  0  0  0  0  0  0  0  0  0
  161.8280  206.9180  147.7280 C   0  0  0  0  0  3  0  0  0  0  0  0
  161.1100  203.9430  149.4820 C   0  0  0  0  0  0  0  0  0  0  0  0
  160.7550  201.2680  148.8750 C   0  0  0  0  0  3  0  0  0  0  0  0
  161.8580  207.9200  148.7150 C   0  0  0  0  0  3  0  0  0  0  0  0
  161.2160  203.5140  148.1750 C   0  0  0  0  0  0  0  0  0  0  0  0
  161.0430  202.1740  147.8380 C   0  0  0  0  0  2  0  0  0  0  0  0
  161.6430  208.5800  151.0840 C   0  0  0  0  0  0  0  0  0  0  0  0
  161.9090  210.0160  150.7780 C   0  0  0  0  0  1  0  0  0  0  0  0
  161.1320  205.9570  151.7570 N   0  0  0  0  0  0  0  0  0  0  0  0
  160.6490  201.7120  150.2100 C   0  0  0  0  0  3  0  0  0  0  0  0
  161.5630  205.6100  148.1290 C   0  0  0  0  0  0  0  0  0  0  0  0
  161.4950  204.5260  147.3210 N   0  0  0  0  0  0  0  0  0  0  0  0
  161.4100  208.2150  152.3740 N   0  0  0  0  0  0  0  0  0  0  0  0
  160.8270  203.0700  150.5300 C   0  0  0  0  0  3  0  0  0  0  0  0
  161.1650  206.9210  152.7140 C   0  0  0  0  0  0  0  0  0  0  0  0
  161.6240  207.6050  150.0750 C   0  0  0  0  0  0  0  0  0  0  0  0
  160.8870  206.5680  154.1310 C   0  0  0  0  0  2  0  0  0  0  0  0
  161.2540  207.6800  154.9910 N   0  0  0  0  0  2  0  0  0  0  0  0
  160.7490  207.8080  156.3210 C   0  0  0  0  0  0  0  0  0  0  0  0
  159.9560  206.9460  156.7890 O   0  0  0  0  0  0  0  0  0  0  0  0
  161.1440  208.9720  157.1650 C   0  0  1  0  0  3  0  0  0  0  0  0
  162.5270  209.1490  157.1170 O   0  0  0  0  0  1  0  0  0  0  0  0
  160.4520  210.2300  156.6780 C   0  0  0  0  0  1  0  0  0  0  0  0
  1  4  1  0  0  0  0
  1  2  2  0  0  0  0
  2 11  1  0  0  0  0
  3 13  2  0  0  0  0
  3  6  1  0  0  0  0
  4 16  2  0  0  0  0
  5 12  2  0  0  0  0
  6 18  2  0  0  0  0
  7  4  1  0  0  0  0
  8  7  1  0  0  0  0
  8  5  1  0  0  0  0
  9 15  2  0  0  0  0
 10  9  1  0  0  0  0
 11 17  2  0  0  0  0
 12 16  1  0  0  0  0
 13  1  1  0  0  0  0
 14 13  1  0  0  0  0
 14  7  2  0  0  0  0
 15 17  1  0  0  0  0
 17 19  1  0  0  0  0
 18  2  1  0  0  0  0
 18  9  1  0  0  0  0
 19 20  1  0  0  0  0
 20 21  1  0  0  0  0
 21 22  2  0  0  0  0
 21 23  1  0  0  0  0
 23 25  1  6  0  0  0
 24 23  1  0  0  0  0
M  END
>  <MODEL>
1

>  <REMARK>
 VINA RESULT:     -10.0      0.000      0.000
  Name = 
  3 active torsions:
  status: ('A' for Active; 'I' for Inactive)
    1  A    between atoms: C_2  and  C_21
    2  A    between atoms: C_6  and  N_15
    3  A    between atoms: C_6  and  C_23
                            x       y       z     vdW  Elec       q    Type
                         _______ _______ _______ _____ _____    ______ ____

>  <TORSDO>
F 3

$$$$
=
 OpenBabel11052422053D

 25 28  0  0  1  0  0  0  0  0999 V2000
  161.2320  205.3540  151.0560 C   0  0  0  0  0  0  0  0  0  0  0  0
  161.4210  206.7350  151.0050 C   0  0  0  0  0  0  0  0  0  0  0  0
  161.0970  205.3610  153.4720 C   0  0  0  0  0  3  0  0  0  0  0  0
  161.1600  204.3930  150.0810 C   0  0  0  0  0  0  0  0  0  0  0  0
  160.9280  202.0440  148.6390 C   0  0  0  0  0  3  0  0  0  0  0  0
  161.2860  206.7540  153.4530 C   0  0  0  0  0  3  0  0  0  0  0  0
  160.9610  203.1980  150.7410 C   0  0  0  0  0  0  0  0  0  0  0  0
  160.8410  201.9980  150.0420 C   0  0  0  0  0  2  0  0  0  0  0  0
  161.6420  208.8360  152.1730 C   0  0  0  0  0  0  0  0  0  0  0  0
  161.6920  209.6670  153.4110 C   0  0  0  0  0  1  0  0  0  0  0  0
  161.5760  207.3920  149.8270 N   0  0  0  0  0  0  0  0  0  0  0  0
  161.1300  203.2700  147.9700 C   0  0  0  0  0  3  0  0  0  0  0  0
  161.0750  204.6850  152.2540 C   0  0  0  0  0  0  0  0  0  0  0  0
  160.9060  203.3530  152.0840 N   0  0  0  0  0  0  0  0  0  0  0  0
  161.7940  209.4440  150.9660 N   0  0  0  0  0  0  0  0  0  0  0  0
  161.2490  204.4700  148.6920 C   0  0  0  0  0  3  0  0  0  0  0  0
  161.7540  208.7390  149.8040 C   0  0  0  0  0  0  0  0  0  0  0  0
  161.4490  207.4470  152.2290 C   0  0  0  0  0  0  0  0  0  0  0  0
  161.9520  209.4370  148.5070 C   0  0  0  0  0  2  0  0  0  0  0  0
  162.3230  210.8210  148.7510 N   0  0  0  0  0  2  0  0  0  0  0  0
  161.6860  211.9060  148.0740 C   0  0  0  0  0  0  0  0  0  0  0  0
  160.7740  211.6870  147.2320 O   0  0  0  0  0  0  0  0  0  0  0  0
  162.1070  213.3110  148.3480 C   0  0  1  0  0  3  0  0  0  0  0  0
  162.4660  213.9430  147.1570 O   0  0  0  0  0  1  0  0  0  0  0  0
  160.9780  214.0750  149.0110 C   0  0  0  0  0  1  0  0  0  0  0  0
  1 13  1  0  0  0  0
  2  1  2  0  0  0  0
  2 18  1  0  0  0  0
  4  7  1  0  0  0  0
  4  1  1  0  0  0  0
  5  8  1  0  0  0  0
  6  3  1  0  0  0  0
  7 14  2  0  0  0  0
  8  7  1  0  0  0  0
  9 18  1  0  0  0  0
  9 10  1  0  0  0  0
 11  2  1  0  0  0  0
 12  5  2  0  0  0  0
 12 16  1  0  0  0  0
 13  3  2  0  0  0  0
 14 13  1  0  0  0  0
 15  9  2  0  0  0  0
 16  4  2  0  0  0  0
 17 11  2  0  0  0  0
 17 15  1  0  0  0  0
 18  6  2  0  0  0  0
 19 20  1  0  0  0  0
 19 17  1  0  0  0  0
 21 23  1  0  0  0  0
 21 20  1  0  0  0  0
 22 21  2  0  0  0  0
 23 25  1  6  0  0  0
 24 23  1  0  0  0  0
M  END
>  <MODEL>
2

>  <REMARK>
 VINA RESULT:      -9.9      3.683      5.482
  Name = 
  3 active torsions:
  status: ('A' for Active; 'I' for Inactive)
    1  A    between atoms: C_2  and  C_21
    2  A    between atoms: C_6  and  N_15
    3  A    between atoms: C_6  and  C_23
                            x       y       z     vdW  Elec       q    Type
                         _______ _______ _______ _____ _____    ______ ____

>  <TORSDO>
F 3

$$$$
=
 OpenBabel11052422053D

 25 28  0  0  1  0  0  0  0  0999 V2000
  161.1830  204.6370  149.5980 C   0  0  0  0  0  0  0  0  0  0  0  0
  161.3850  205.9540  150.0100 C   0  0  0  0  0  0  0  0  0  0  0  0
  160.7490  203.8890  151.8570 C   0  0  0  0  0  3  0  0  0  0  0  0
  161.2280  204.0360  148.3660 C   0  0  0  0  0  0  0  0  0  0  0  0
  161.1640  202.2730  146.2350 C   0  0  0  0  0  3  0  0  0  0  0  0
  160.9470  205.2080  152.3040 C   0  0  0  0  0  3  0  0  0  0  0  0
  160.9430  202.7040  148.5840 C   0  0  0  0  0  0  0  0  0  0  0  0
  160.9030  201.7920  147.5320 C   0  0  0  0  0  2  0  0  0  0  0  0
  161.4700  207.5680  151.8030 C   0  0  0  0  0  0  0  0  0  0  0  0
  161.3710  207.9650  153.2380 C   0  0  0  0  0  1  0  0  0  0  0  0
  161.6890  206.9410  149.1290 N   0  0  0  0  0  0  0  0  0  0  0  0
  161.4550  203.6370  146.0190 C   0  0  0  0  0  3  0  0  0  0  0  0
  160.8750  203.6320  150.4930 C   0  0  0  0  0  0  0  0  0  0  0  0
  160.7210  202.4310  149.8910 N   0  0  0  0  0  0  0  0  0  0  0  0
  161.7740  208.5180  150.8780 N   0  0  0  0  0  0  0  0  0  0  0  0
  161.4890  204.5420  147.0940 C   0  0  0  0  0  3  0  0  0  0  0  0
  161.8750  208.2170  149.5560 C   0  0  0  0  0  0  0  0  0  0  0  0
  161.2640  206.2430  151.3910 C   0  0  0  0  0  0  0  0  0  0  0  0
  162.2370  209.2790  148.5800 C   0  0  0  0  0  2  0  0  0  0  0  0
  161.5170  210.5000  148.9010 N   0  0  0  0  0  2  0  0  0  0  0  0
  161.9900  211.7860  148.4960 C   0  0  0  0  0  0  0  0  0  0  0  0
  163.0630  211.8960  147.8440 O   0  0  0  0  0  0  0  0  0  0  0  0
  161.2250  213.0140  148.8570 C   0  0  1  0  0  3  0  0  0  0  0  0
  162.0290  214.1430  148.6950 O   0  0  0  0  0  1  0  0  0  0  0  0
  159.9910  213.1370  147.9840 C   0  0  0  0  0  1  0  0  0  0  0  0
  1  2  2  0  0  0  0
  1 13  1  0  0  0  0
  2 18  1  0  0  0  0
  3  6  1  0  0  0  0
  4  7  1  0  0  0  0
  4  1  1  0  0  0  0
  5  8  1  0  0  0  0
  7 14  2  0  0  0  0
  8  7  1  0  0  0  0
  9 10  1  0  0  0  0
 11 17  2  0  0  0  0
 11  2  1  0  0  0  0
 12  5  2  0  0  0  0
 12 16  1  0  0  0  0
 13  3  2  0  0  0  0
 14 13  1  0  0  0  0
 15  9  2  0  0  0  0
 16  4  2  0  0  0  0
 17 15  1  0  0  0  0
 18  9  1  0  0  0  0
 18  6  2  0  0  0  0
 19 20  1  0  0  0  0
 19 17  1  0  0  0  0
 21 23  1  0  0  0  0
 21 20  1  0  0  0  0
 22 21  2  0  0  0  0
 23 25  1  6  0  0  0
 24 23  1  0  0  0  0
M  END
>  <MODEL>
3

>  <REMARK>
 VINA RESULT:      -9.6      3.560      5.291
  Name = 
  3 active torsions:
  status: ('A' for Active; 'I' for Inactive)
    1  A    between atoms: C_2  and  C_21
    2  A    between atoms: C_6  and  N_15
    3  A    between atoms: C_6  and  C_23
                            x       y       z     vdW  Elec       q    Type
                         _______ _______ _______ _____ _____    ______ ____

>  <TORSDO>
F 3

$$$$
=
 OpenBabel11052422053D

 25 28  0  0  1  0  0  0  0  0999 V2000
  161.1700  204.6240  151.0290 C   0  0  0  0  0  0  0  0  0  0  0  0
  161.3340  205.9800  150.7480 C   0  0  0  0  0  0  0  0  0  0  0  0
  161.0560  205.0280  153.4120 C   0  0  0  0  0  3  0  0  0  0  0  0
  161.1070  203.5130  150.2270 C   0  0  1  0  0  3  0  0  0  0  0  0
  160.9040  200.9540  149.1960 C   0  0  0  0  0  3  0  0  0  0  0  0
  161.2210  206.4020  153.1600 C   0  0  0  0  0  3  0  0  0  0  0  0
  160.9360  202.4400  151.0780 C   0  0  0  0  0  0  0  0  0  0  0  0
  160.8310  201.1400  150.5890 C   0  0  0  0  0  3  0  0  0  0  0  0
  161.5270  208.2480  151.5500 C   0  0  0  0  0  0  0  0  0  0  0  0
  161.5740  209.2740  152.6320 C   0  0  0  0  0  1  0  0  0  0  0  0
  161.4670  206.4350  149.4760 N   0  0  0  0  0  0  0  0  0  0  0  0
  161.0790  202.0560  148.3310 C   0  0  0  0  0  3  0  0  0  0  0  0
  161.0360  204.1590  152.3220 C   0  0  0  0  0  0  0  0  0  0  0  0
  160.8890  202.8150  152.3770 N   0  0  0  0  0  0  0  0  0  0  0  0
  161.6570  208.6510  150.2570 N   0  0  0  0  0  0  0  0  0  0  0  0
  161.1820  203.3610  148.8440 C   0  0  0  0  0  3  0  0  0  0  0  0
  161.6200  207.7620  149.2280 C   0  0  0  0  0  0  0  0  0  0  0  0
  161.3600  206.8850  151.8360 C   0  0  0  0  0  0  0  0  0  0  0  0
  161.7940  208.2390  147.8310 C   0  0  0  0  0  2  0  0  0  0  0  0
  162.1840  207.1270  146.9820 N   0  0  0  0  0  2  0  0  0  0  0  0
  161.2210  206.2840  146.3480 C   0  0  0  0  0  0  0  0  0  0  0  0
  159.9870  206.4850  146.5150 O   0  0  0  0  0  0  0  0  0  0  0  0
  161.6670  205.1460  145.4930 C   0  0  1  0  0  3  0  0  0  0  0  0
  161.5490  205.4860  144.1450 O   0  0  0  0  0  1  0  0  0  0  0  0
  163.1070  204.7910  145.8050 C   0  0  0  0  0  1  0  0  0  0  0  0
  1 13  1  0  0  0  0
  2  1  2  0  0  0  0
  2 18  1  0  0  0  0
  4 16  1  6  0  0  0
  4  1  1  0  0  0  0
  4  7  1  0  0  0  0
  5  8  2  0  0  0  0
  6  3  1  0  0  0  0
  7 14  2  0  0  0  0
  8  7  1  0  0  0  0
  9 18  1  0  0  0  0
  9 10  1  0  0  0  0
 11  2  1  0  0  0  0
 12 16  2  0  0  0  0
 12  5  1  0  0  0  0
 13 14  1  0  0  0  0
 13  3  2  0  0  0  0
 15  9  2  0  0  0  0
 17 11  2  0  0  0  0
 17 15  1  0  0  0  0
 18  6  2  0  0  0  0
 19 17  1  0  0  0  0
 20 19  1  0  0  0  0
 21 22  2  0  0  0  0
 21 20  1  0  0  0  0
 23 25  1  1  0  0  0
 23 21  1  0  0  0  0
 24 23  1  0  0  0  0
M  END
>  <MODEL>
4

>  <REMARK>
 VINA RESULT:      -9.6      3.697      6.241
  Name = 
  3 active torsions:
  status: ('A' for Active; 'I' for Inactive)
    1  A    between atoms: C_2  and  C_21
    2  A    between atoms: C_6  and  N_15
    3  A    between atoms: C_6  and  C_23
                            x       y       z     vdW  Elec       q    Type
                         _______ _______ _______ _____ _____    ______ ____

>  <TORSDO>
F 3

$$$$
=
 OpenBabel11052422053D

 25 28  0  0  1  0  0  0  0  0999 V2000
  161.3370  204.6660  149.0270 C   0  0  0  0  0  0  0  0  0  0  0  0
  161.3940  205.5560  150.1000 C   0  0  0  0  0  0  0  0  0  0  0  0
  160.8630  202.7890  150.4780 C   0  0  0  0  0  3  0  0  0  0  0  0
  161.4980  204.8340  147.6750 C   0  0  0  0  0  0  0  0  0  0  0  0
  161.7040  204.5120  144.9360 C   0  0  0  0  0  3  0  0  0  0  0  0
  160.9150  203.6610  151.5800 C   0  0  0  0  0  3  0  0  0  0  0  0
  161.3280  203.5850  147.1150 C   0  0  0  0  0  0  0  0  0  0  0  0
  161.4250  203.3910  145.7390 C   0  0  0  0  0  2  0  0  0  0  0  0
  161.2400  205.9380  152.4780 C   0  0  0  0  0  0  0  0  0  0  0  0
  161.0340  205.4860  153.8850 C   0  0  0  0  0  1  0  0  0  0  0  0
  161.6480  206.8780  149.9200 N   0  0  0  0  0  0  0  0  0  0  0  0
  161.8760  205.7880  145.5150 C   0  0  0  0  0  3  0  0  0  0  0  0
  161.0800  203.3220  149.2090 C   0  0  0  0  0  0  0  0  0  0  0  0
  161.0690  202.6350  148.0430 N   0  0  0  0  0  0  0  0  0  0  0  0
  161.4990  207.2520  152.2420 N   0  0  0  0  0  0  0  0  0  0  0  0
  161.7730  205.9630  146.9060 C   0  0  0  0  0  3  0  0  0  0  0  0
  161.6930  207.7240  150.9810 C   0  0  0  0  0  0  0  0  0  0  0  0
  161.1790  205.0410  151.4010 C   0  0  0  0  0  0  0  0  0  0  0  0
  162.0010  209.1620  150.7680 C   0  0  0  0  0  2  0  0  0  0  0  0
  162.2080  209.8110  152.0520 N   0  0  0  0  0  2  0  0  0  0  0  0
  161.1290  210.3820  152.7940 C   0  0  0  0  0  0  0  0  0  0  0  0
  159.9520  210.3400  152.3450 O   0  0  0  0  0  0  0  0  0  0  0  0
  161.3890  211.0490  154.1030 C   0  0  1  0  0  3  0  0  0  0  0  0
  160.3180  211.8790  154.4370 O   0  0  0  0  0  1  0  0  0  0  0  0
  161.5870  210.0090  155.1890 C   0  0  0  0  0  1  0  0  0  0  0  0
  1 13  1  0  0  0  0
  1  2  2  0  0  0  0
  2 18  1  0  0  0  0
  3  6  1  0  0  0  0
  4  1  1  0  0  0  0
  5 12  2  0  0  0  0
  5  8  1  0  0  0  0
  7  4  1  0  0  0  0
  7 14  2  0  0  0  0
  8  7  1  0  0  0  0
  9 10  1  0  0  0  0
 11  2  1  0  0  0  0
 11 17  2  0  0  0  0
 12 16  1  0  0  0  0
 13  3  2  0  0  0  0
 14 13  1  0  0  0  0
 15  9  2  0  0  0  0
 16  4  2  0  0  0  0
 17 15  1  0  0  0  0
 18  6  2  0  0  0  0
 18  9  1  0  0  0  0
 19 17  1  0  0  0  0
 19 20  1  0  0  0  0
 20 21  1  0  0  0  0
 21 23  1  0  0  0  0
 22 21  2  0  0  0  0
 23 24  1  0  0  0  0
 23 25  1  1  0  0  0
M  END
>  <MODEL>
5

>  <REMARK>
 VINA RESULT:      -9.5      2.155      3.711
  Name = 
  3 active torsions:
  status: ('A' for Active; 'I' for Inactive)
    1  A    between atoms: C_2  and  C_21
    2  A    between atoms: C_6  and  N_15
    3  A    between atoms: C_6  and  C_23
                            x       y       z     vdW  Elec       q    Type
                         _______ _______ _______ _____ _____    ______ ____

>  <TORSDO>
F 3

$$$$
=
 OpenBabel11052422053D

 25 28  0  0  1  0  0  0  0  0999 V2000
  161.4370  205.4730  149.2090 C   0  0  0  0  0  0  0  0  0  0  0  0
  161.5100  206.5630  150.0760 C   0  0  0  0  0  0  0  0  0  0  0  0
  160.7680  203.9750  150.9860 C   0  0  0  0  0  3  0  0  0  0  0  0
  161.6690  205.3440  147.8630 C   0  0  0  0  0  0  0  0  0  0  0  0
  161.9710  204.4420  145.2660 C   0  0  0  0  0  3  0  0  0  0  0  0
  160.8330  205.0540  151.8860 C   0  0  0  0  0  3  0  0  0  0  0  0
  161.4340  204.0170  147.5640 C   0  0  0  0  0  0  0  0  0  0  0  0
  161.5780  203.5330  146.2660 C   0  0  0  0  0  2  0  0  0  0  0  0
  161.2800  207.4440  152.3110 C   0  0  0  0  0  0  0  0  0  0  0  0
  160.9810  207.3110  153.7670 C   0  0  0  0  0  1  0  0  0  0  0  0
  161.8660  207.8000  149.6420 N   0  0  0  0  0  0  0  0  0  0  0  0
  162.2080  205.7980  145.5780 C   0  0  0  0  0  3  0  0  0  0  0  0
  161.0770  204.2150  149.6490 C   0  0  0  0  0  0  0  0  0  0  0  0
  161.0680  203.3010  148.6510 N   0  0  0  0  0  0  0  0  0  0  0  0
  161.6430  208.6620  151.8240 N   0  0  0  0  0  0  0  0  0  0  0  0
  162.0570  206.2670  146.8940 C   0  0  0  0  0  3  0  0  0  0  0  0
  161.9250  208.8450  150.5070 C   0  0  0  0  0  0  0  0  0  0  0  0
  161.2030  206.3470  151.4410 C   0  0  0  0  0  0  0  0  0  0  0  0
  162.3440  210.1860  150.0190 C   0  0  0  0  0  2  0  0  0  0  0  0
  161.7290  210.4490  148.7290 N   0  0  0  0  0  2  0  0  0  0  0  0
  161.5100  211.7780  148.2520 C   0  0  0  0  0  0  0  0  0  0  0  0
  161.8460  212.7720  148.9510 O   0  0  0  0  0  0  0  0  0  0  0  0
  160.8650  212.0010  146.9260 C   0  0  1  0  0  3  0  0  0  0  0  0
  159.5570  212.4530  147.1010 O   0  0  0  0  0  1  0  0  0  0  0  0
  161.6530  213.0190  146.1250 C   0  0  0  0  0  1  0  0  0  0  0  0
  1 13  1  0  0  0  0
  1  2  2  0  0  0  0
  2 18  1  0  0  0  0
  3  6  1  0  0  0  0
  4  1  1  0  0  0  0
  5 12  2  0  0  0  0
  5  8  1  0  0  0  0
  7  4  1  0  0  0  0
  7 14  2  0  0  0  0
  8  7  1  0  0  0  0
  9 10  1  0  0  0  0
 11  2  1  0  0  0  0
 11 17  2  0  0  0  0
 12 16  1  0  0  0  0
 13  3  2  0  0  0  0
 14 13  1  0  0  0  0
 15  9  2  0  0  0  0
 16  4  2  0  0  0  0
 17 15  1  0  0  0  0
 18  6  2  0  0  0  0
 18  9  1  0  0  0  0
 19 17  1  0  0  0  0
 20 19  1  0  0  0  0
 21 20  1  0  0  0  0
 21 22  2  0  0  0  0
 23 25  1  1  0  0  0
 23 24  1  0  0  0  0
 23 21  1  0  0  0  0
M  END
>  <MODEL>
6

>  <REMARK>
 VINA RESULT:      -9.5      3.584      5.673
  Name = 
  3 active torsions:
  status: ('A' for Active; 'I' for Inactive)
    1  A    between atoms: C_2  and  C_21
    2  A    between atoms: C_6  and  N_15
    3  A    between atoms: C_6  and  C_23
                            x       y       z     vdW  Elec       q    Type
                         _______ _______ _______ _____ _____    ______ ____

>  <TORSDO>
F 3

$$$$
=
 OpenBabel11052422053D

 25 28  0  0  1  0  0  0  0  0999 V2000
  161.4200  204.9570  148.8280 C   0  0  0  0  0  0  0  0  0  0  0  0
  161.4990  206.1340  149.5740 C   0  0  0  0  0  0  0  0  0  0  0  0
  161.8390  206.1260  146.7520 C   0  0  0  0  0  3  0  0  0  0  0  0
  161.1870  203.6530  149.1800 C   0  0  0  0  0  0  0  0  0  0  0  0
  160.7850  200.9160  149.2300 C   0  0  0  0  0  3  0  0  0  0  0  0
  161.9240  207.3290  147.4760 C   0  0  0  0  0  3  0  0  0  0  0  0
  161.2260  202.9310  148.0050 C   0  0  0  0  0  0  0  0  0  0  0  0
  161.0270  201.5520  147.9980 C   0  0  0  0  0  2  0  0  0  0  0  0
  161.8310  208.5240  149.6340 C   0  0  0  0  0  0  0  0  0  0  0  0
  162.0910  209.8450  148.9910 C   0  0  0  0  0  1  0  0  0  0  0  0
  161.3360  206.1380  150.9220 N   0  0  0  0  0  0  0  0  0  0  0  0
  160.7470  201.6610  150.4280 C   0  0  0  0  0  3  0  0  0  0  0  0
  161.5840  204.9510  147.4580 C   0  0  0  0  0  0  0  0  0  0  0  0
  161.4690  203.7120  146.9280 N   0  0  0  0  0  0  0  0  0  0  0  0
  161.6590  208.4720  150.9820 N   0  0  0  0  0  0  0  0  0  0  0  0
  160.9510  203.0510  150.4150 C   0  0  0  0  0  3  0  0  0  0  0  0
  161.4220  207.2970  151.6250 C   0  0  0  0  0  0  0  0  0  0  0  0
  161.7550  207.3420  148.8820 C   0  0  0  0  0  0  0  0  0  0  0  0
  161.2120  207.2870  153.0970 C   0  0  0  0  0  2  0  0  0  0  0  0
  160.8790  208.6280  153.5500 N   0  0  0  0  0  2  0  0  0  0  0  0
  161.0950  209.0460  154.8990 C   0  0  0  0  0  0  0  0  0  0  0  0
  161.5840  208.2500  155.7450 O   0  0  0  0  0  0  0  0  0  0  0  0
  160.7280  210.4280  155.3230 C   0  0  1  0  0  3  0  0  0  0  0  0
  161.8390  211.0710  155.8700 O   0  0  0  0  0  1  0  0  0  0  0  0
  160.2140  211.2200  154.1360 C   0  0  0  0  0  1  0  0  0  0  0  0
  1  4  1  0  0  0  0
  1  2  2  0  0  0  0
  2 11  1  0  0  0  0
  3 13  2  0  0  0  0
  3  6  1  0  0  0  0
  4 16  2  0  0  0  0
  5 12  2  0  0  0  0
  6 18  2  0  0  0  0
  7  4  1  0  0  0  0
  8  7  1  0  0  0  0
  8  5  1  0  0  0  0
  9 15  2  0  0  0  0
 10  9  1  0  0  0  0
 11 17  2  0  0  0  0
 13  1  1  0  0  0  0
 14 13  1  0  0  0  0
 14  7  2  0  0  0  0
 15 17  1  0  0  0  0
 16 12  1  0  0  0  0
 17 19  1  0  0  0  0
 18  2  1  0  0  0  0
 18  9  1  0  0  0  0
 19 20  1  0  0  0  0
 20 21  1  0  0  0  0
 21 23  1  0  0  0  0
 21 22  2  0  0  0  0
 23 25  1  6  0  0  0
 23 24  1  0  0  0  0
M  END
>  <MODEL>
7

>  <REMARK>
 VINA RESULT:      -9.5      1.258      1.439
  Name = 
  3 active torsions:
  status: ('A' for Active; 'I' for Inactive)
    1  A    between atoms: C_2  and  C_21
    2  A    between atoms: C_6  and  N_15
    3  A    between atoms: C_6  and  C_23
                            x       y       z     vdW  Elec       q    Type
                         _______ _______ _______ _____ _____    ______ ____

>  <TORSDO>
F 3

$$$$
=
 OpenBabel11052422053D

 25 28  0  0  1  0  0  0  0  0999 V2000
  161.2060  208.3900  153.0530 C   0  0  0  0  0  0  0  0  0  0  0  0
  161.3060  207.5820  151.9200 C   0  0  0  0  0  0  0  0  0  0  0  0
  161.9090  210.3590  151.8360 C   0  0  0  0  0  3  0  0  0  0  0  0
  160.8450  208.1250  154.3490 C   0  0  1  0  0  3  0  0  0  0  0  0
  160.2340  208.2480  157.0440 C   0  0  0  0  0  3  0  0  0  0  0  0
  162.0200  209.5700  150.6760 C   0  0  0  0  0  3  0  0  0  0  0  0
  160.9380  209.3270  155.0210 C   0  0  0  0  0  0  0  0  0  0  0  0
  160.6360  209.4210  156.3780 C   0  0  0  0  0  3  0  0  0  0  0  0
  161.8230  207.3710  149.5720 C   0  0  0  0  0  0  0  0  0  0  0  0
  162.2600  207.9180  148.2540 C   0  0  0  0  0  1  0  0  0  0  0  0
  161.0180  206.2560  151.9600 N   0  0  0  0  0  0  0  0  0  0  0  0
  160.1410  207.0230  156.3510 C   0  0  0  0  0  3  0  0  0  0  0  0
  161.4990  209.7380  153.0140 C   0  0  0  0  0  0  0  0  0  0  0  0
  161.3400  210.3380  154.2170 N   0  0  0  0  0  0  0  0  0  0  0  0
  161.5250  206.0470  149.6670 N   0  0  0  0  0  0  0  0  0  0  0  0
  160.4480  206.9480  154.9820 C   0  0  0  0  0  3  0  0  0  0  0  0
  161.1190  205.4920  150.8410 C   0  0  0  0  0  0  0  0  0  0  0  0
  161.7210  208.1860  150.7090 C   0  0  0  0  0  0  0  0  0  0  0  0
  160.8290  204.0360  150.9100 C   0  0  0  0  0  2  0  0  0  0  0  0
  160.7700  203.4870  149.5660 N   0  0  0  0  0  2  0  0  0  0  0  0
  160.7100  202.0800  149.3240 C   0  0  0  0  0  0  0  0  0  0  0  0
  160.7100  201.2660  150.2870 O   0  0  0  0  0  0  0  0  0  0  0  0
  160.6620  201.5600  147.9280 C   0  0  1  0  0  3  0  0  0  0  0  0
  161.1250  202.5320  147.0400 O   0  0  0  0  0  1  0  0  0  0  0  0
  161.5120  200.3110  147.8050 C   0  0  0  0  0  1  0  0  0  0  0  0
  1  4  1  0  0  0  0
  2 11  1  0  0  0  0
  2  1  1  0  0  0  0
  3 13  1  0  0  0  0
  4 16  1  6  0  0  0
  4  7  1  0  0  0  0
  6 18  1  0  0  0  0
  6  3  2  0  0  0  0
  7  8  1  0  0  0  0
  8  5  2  0  0  0  0
  9 15  2  0  0  0  0
  9 18  1  0  0  0  0
 10  9  1  0  0  0  0
 12  5  1  0  0  0  0
 13  1  2  0  0  0  0
 13 14  1  0  0  0  0
 14  7  2  0  0  0  0
 15 17  1  0  0  0  0
 16 12  2  0  0  0  0
 17 19  1  0  0  0  0
 17 11  2  0  0  0  0
 18  2  2  0  0  0  0
 20 19  1  0  0  0  0
 21 20  1  0  0  0  0
 21 22  2  0  0  0  0
 23 25  1  1  0  0  0
 23 21  1  0  0  0  0
 24 23  1  0  0  0  0
M  END
>  <MODEL>
8

>  <REMARK>
 VINA RESULT:      -8.8      3.078      7.399
  Name = 
  3 active torsions:
  status: ('A' for Active; 'I' for Inactive)
    1  A    between atoms: C_2  and  C_21
    2  A    between atoms: C_6  and  N_15
    3  A    between atoms: C_6  and  C_23
                            x       y       z     vdW  Elec       q    Type
                         _______ _______ _______ _____ _____    ______ ____

>  <TORSDO>
F 3

$$$$
=
 OpenBabel11052422053D

 25 28  0  0  1  0  0  0  0  0999 V2000
  161.2050  205.7400  150.3660 C   0  0  0  0  0  0  0  0  0  0  0  0
  161.2020  206.7400  151.3390 C   0  0  0  0  0  0  0  0  0  0  0  0
  161.1960  203.9820  152.0290 C   0  0  0  0  0  3  0  0  0  0  0  0
  161.2130  205.7830  148.9960 C   0  0  0  0  0  0  0  0  0  0  0  0
  161.2270  205.1990  146.2920 C   0  0  0  0  0  3  0  0  0  0  0  0
  161.1940  204.9680  153.0330 C   0  0  0  0  0  3  0  0  0  0  0  0
  161.2130  204.4680  148.5760 C   0  0  0  0  0  0  0  0  0  0  0  0
  161.2200  204.1420  147.2220 C   0  0  0  0  0  2  0  0  0  0  0  0
  161.1970  207.3510  153.6740 C   0  0  0  0  0  0  0  0  0  0  0  0
  161.1990  207.0290  155.1310 C   0  0  0  0  0  1  0  0  0  0  0  0
  161.2060  208.0570  151.0100 N   0  0  0  0  0  0  0  0  0  0  0  0
  161.2260  206.5410  146.7280 C   0  0  0  0  0  3  0  0  0  0  0  0
  161.2030  204.4000  150.6990 C   0  0  0  0  0  0  0  0  0  0  0  0
  161.2070  203.5960  149.6110 N   0  0  0  0  0  0  0  0  0  0  0  0
  161.2020  208.6560  153.2900 N   0  0  0  0  0  0  0  0  0  0  0  0
  161.2180  206.8500  148.0990 C   0  0  0  0  0  3  0  0  0  0  0  0
  161.1980  209.0110  151.9770 C   0  0  0  0  0  0  0  0  0  0  0  0
  161.1970  206.3440  152.6980 C   0  0  0  0  0  0  0  0  0  0  0  0
  161.2310  210.4490  151.5990 C   0  0  0  0  0  2  0  0  0  0  0  0
  160.2940  211.1920  152.4250 N   0  0  0  0  0  2  0  0  0  0  0  0
  159.7500  212.4460  152.0110 C   0  0  0  0  0  0  0  0  0  0  0  0
  160.0770  212.9510  150.9030 O   0  0  0  0  0  0  0  0  0  0  0  0
  158.8000  213.1800  152.8960 C   0  0  1  0  0  3  0  0  0  0  0  0
  157.9180  213.9380  152.1250 O   0  0  0  0  0  1  0  0  0  0  0  0
  158.0180  212.2000  153.7490 C   0  0  0  0  0  1  0  0  0  0  0  0
  1 13  1  0  0  0  0
  1  2  2  0  0  0  0
  2 18  1  0  0  0  0
  3  6  1  0  0  0  0
  4  1  1  0  0  0  0
  5 12  2  0  0  0  0
  5  8  1  0  0  0  0
  7  4  1  0  0  0  0
  7 14  2  0  0  0  0
  8  7  1  0  0  0  0
  9 10  1  0  0  0  0
 11  2  1  0  0  0  0
 11 17  2  0  0  0  0
 12 16  1  0  0  0  0
 13  3  2  0  0  0  0
 14 13  1  0  0  0  0
 15  9  2  0  0  0  0
 16  4  2  0  0  0  0
 17 15  1  0  0  0  0
 18  6  2  0  0  0  0
 18  9  1  0  0  0  0
 19 17  1  0  0  0  0
 19 20  1  0  0  0  0
 21 20  1  0  0  0  0
 21 23  1  0  0  0  0
 22 21  2  0  0  0  0
 23 25  1  6  0  0  0
 24 23  1  0  0  0  0
M  END
>  <MODEL>
9

>  <REMARK>
 VINA RESULT:      -8.8      3.005      4.462
  Name = 
  3 active torsions:
  status: ('A' for Active; 'I' for Inactive)
    1  A    between atoms: C_2  and  C_21
    2  A    between atoms: C_6  and  N_15
    3  A    between atoms: C_6  and  C_23
                            x       y       z     vdW  Elec       q    Type
                         _______ _______ _______ _____ _____    ______ ____

>  <TORSDO>
F 3

$$$$
