=
 OpenBabel11052422223D

 25 28  0  0  1  0  0  0  0  0999 V2000
  160.0550  210.1040  153.6290 C   0  0  0  0  0  0  0  0  0  0  0  0
  160.9460  209.7870  152.4550 C   0  0  0  0  0  0  0  0  0  0  0  0
  158.9830  211.8470  152.1540 C   0  0  0  0  0  2  0  0  0  0  0  0
  160.1590  209.4760  154.9080 C   0  0  0  0  0  0  0  0  0  0  0  0
  161.1390  207.6760  151.1850 C   0  0  1  0  0  3  0  0  0  0  0  0
  160.3810  212.0250  151.5760 C   0  0  0  0  0  2  0  0  0  0  0  0
  159.2700  209.8600  155.9290 C   0  0  0  0  0  3  0  0  0  0  0  0
  158.2930  210.8270  155.7160 C   0  0  0  0  0  3  0  0  0  0  0  0
  161.8770  210.4980  150.2070 C   0  0  0  0  0  0  0  0  0  0  0  0
  162.3710  211.5180  149.6570 O   0  0  0  0  0  0  0  0  0  0  0  0
  161.6220  208.4560  152.3850 C   0  0  0  0  0  2  0  0  0  0  0  0
  159.0840  211.1210  153.4550 C   0  0  0  0  0  0  0  0  0  0  0  0
  158.2040  211.4590  154.4820 C   0  0  0  0  0  3  0  0  0  0  0  0
  161.9860  209.2480  149.5090 N   0  0  0  0  0  2  0  0  0  0  0  0
  162.1390  207.9190  150.0840 C   0  0  0  0  0  2  0  0  0  0  0  0
  161.0700  210.6910  151.4460 C   0  0  0  0  0  0  0  0  0  0  0  0
  160.7290  203.8820  150.8970 N   0  0  0  0  0  0  0  0  0  0  0  0
  160.4180  202.8580  149.9130 C   0  0  0  0  0  1  0  0  0  0  0  0
  160.9420  203.4760  152.2770 C   0  0  0  0  0  1  0  0  0  0  0  0
  161.1120  206.2580  151.5020 N   0  0  0  0  0  2  0  0  0  0  0  0
  160.6250  205.6000  149.3180 O   0  0  0  0  0  0  0  0  0  0  0  0
  160.8130  205.2610  150.5200 C   0  0  0  0  0  0  0  0  0  0  0  0
  160.9460  207.7640  156.5160 C   0  0  0  0  0  2  0  0  0  0  0  0
  162.0230  208.8220  156.5170 C   0  0  0  0  0  2  0  0  0  0  0  0
  161.2720  208.5030  155.2300 C   0  0  0  0  0  3  0  0  0  0  0  0
  1  4  1  0  0  0  0
  2  1  1  0  0  0  0
  3 12  1  0  0  0  0
  4 25  1  0  0  0  0
  4  7  2  0  0  0  0
  5 20  1  1  0  0  0
  5 11  1  0  0  0  0
  6  3  1  0  0  0  0
  8  7  1  0  0  0  0
  9 16  1  0  0  0  0
 10  9  2  0  0  0  0
 11  2  1  0  0  0  0
 12  1  2  0  0  0  0
 12 13  1  0  0  0  0
 13  8  2  0  0  0  0
 14 15  1  0  0  0  0
 14  9  1  0  0  0  0
 15  5  1  0  0  0  0
 16  6  1  0  0  0  0
 16  2  2  0  0  0  0
 17 19  1  0  0  0  0
 18 17  1  0  0  0  0
 21 22  2  0  0  0  0
 22 17  1  0  0  0  0
 22 20  1  0  0  0  0
 23 24  1  0  0  0  0
 25 23  1  0  0  0  0
 25 24  1  0  0  0  0
M  END
>  <MODEL>
1

>  <REMARK>
 VINA RESULT:      -6.9      0.000      0.000
  Name = 
  2 active torsions:
  status: ('A' for Active; 'I' for Inactive)
    1  A    between atoms: C_5  and  C_22
    2  A    between atoms: C_6  and  N_15
                            x       y       z     vdW  Elec       q    Type
                         _______ _______ _______ _____ _____    ______ ____

>  <TORSDO>
F 2

$$$$
=
 OpenBabel11052422223D

 25 28  0  0  1  0  0  0  0  0999 V2000
  161.4300  208.3880  150.9540 C   0  0  0  0  0  0  0  0  0  0  0  0
  161.2760  208.9390  152.3490 C   0  0  0  0  0  0  0  0  0  0  0  0
  160.7680  206.1550  151.9240 C   0  0  0  0  0  2  0  0  0  0  0  0
  161.8660  209.1560  149.8320 C   0  0  0  0  0  0  0  0  0  0  0  0
  159.7050  210.6620  153.1670 C   0  0  1  0  0  3  0  0  0  0  0  0
  161.5230  206.6200  153.1630 C   0  0  0  0  0  2  0  0  0  0  0  0
  161.9730  208.5280  148.5770 C   0  0  0  0  0  3  0  0  0  0  0  0
  161.6590  207.1830  148.4090 C   0  0  0  0  0  3  0  0  0  0  0  0
  161.0920  208.4810  154.8350 C   0  0  0  0  0  0  0  0  0  0  0  0
  161.6470  207.7770  155.7210 O   0  0  0  0  0  0  0  0  0  0  0  0
  161.0550  210.4040  152.5390 C   0  0  0  0  0  2  0  0  0  0  0  0
  161.1650  207.0090  150.7650 C   0  0  0  0  0  0  0  0  0  0  0  0
  161.2590  206.4250  149.5030 C   0  0  0  0  0  3  0  0  0  0  0  0
  160.1860  209.5050  155.2720 N   0  0  0  0  0  2  0  0  0  0  0  0
  159.9410  210.7990  154.6490 C   0  0  0  0  0  2  0  0  0  0  0  0
  161.2760  208.0860  153.4090 C   0  0  0  0  0  0  0  0  0  0  0  0
  157.3750  213.6290  152.5240 N   0  0  0  0  0  0  0  0  0  0  0  0
  156.1050  214.1760  152.9720 C   0  0  0  0  0  1  0  0  0  0  0  0
  158.0870  214.3130  151.4560 C   0  0  0  0  0  1  0  0  0  0  0  0
  159.1560  211.9050  152.6530 N   0  0  0  0  0  2  0  0  0  0  0  0
  157.2790  211.8520  154.0370 O   0  0  0  0  0  0  0  0  0  0  0  0
  157.9090  212.4360  153.1110 C   0  0  0  0  0  0  0  0  0  0  0  0
  161.3420  211.5160  149.2900 C   0  0  0  0  0  2  0  0  0  0  0  0
  162.6910  211.2620  148.6590 C   0  0  0  0  0  2  0  0  0  0  0  0
  162.3290  210.5890  149.9780 C   0  0  0  0  0  3  0  0  0  0  0  0
  1  2  1  0  0  0  0
  2 11  1  0  0  0  0
  2 16  2  0  0  0  0
  3  6  1  0  0  0  0
  4 25  1  0  0  0  0
  4  1  2  0  0  0  0
  5 20  1  6  0  0  0
  5 15  1  0  0  0  0
  6 16  1  0  0  0  0
  7  4  1  0  0  0  0
  8  7  2  0  0  0  0
  8 13  1  0  0  0  0
  9 14  1  0  0  0  0
  9 10  2  0  0  0  0
 11  5  1  0  0  0  0
 12  1  1  0  0  0  0
 12  3  1  0  0  0  0
 13 12  2  0  0  0  0
 15 14  1  0  0  0  0
 16  9  1  0  0  0  0
 17 18  1  0  0  0  0
 17 22  1  0  0  0  0
 19 17  1  0  0  0  0
 20 22  1  0  0  0  0
 22 21  2  0  0  0  0
 23 25  1  0  0  0  0
 24 23  1  0  0  0  0
 24 25  1  0  0  0  0
M  END
>  <MODEL>
2

>  <REMARK>
 VINA RESULT:      -6.5      3.151      7.077
  Name = 
  2 active torsions:
  status: ('A' for Active; 'I' for Inactive)
    1  A    between atoms: C_5  and  C_22
    2  A    between atoms: C_6  and  N_15
                            x       y       z     vdW  Elec       q    Type
                         _______ _______ _______ _____ _____    ______ ____

>  <TORSDO>
F 2

$$$$
=
 OpenBabel11052422223D

 25 28  0  0  1  0  0  0  0  0999 V2000
  161.3480  208.3000  152.3460 C   0  0  0  0  0  0  0  0  0  0  0  0
  161.2260  209.0960  153.6210 C   0  0  0  0  0  0  0  0  0  0  0  0
  160.6220  206.3010  153.7000 C   0  0  0  0  0  2  0  0  0  0  0  0
  161.7980  208.8420  151.1030 C   0  0  0  0  0  0  0  0  0  0  0  0
  159.7210  210.9910  154.1250 C   0  0  1  0  0  3  0  0  0  0  0  0
  161.4030  206.9520  154.8340 C   0  0  0  0  0  2  0  0  0  0  0  0
  161.8720  207.9970  149.9800 C   0  0  0  0  0  3  0  0  0  0  0  0
  161.5120  206.6550  150.0550 C   0  0  0  0  0  3  0  0  0  0  0  0
  161.0500  209.0940  156.1500 C   0  0  0  0  0  0  0  0  0  0  0  0
  161.5900  208.5410  157.1440 O   0  0  0  0  0  0  0  0  0  0  0  0
  161.0550  210.5790  153.5480 C   0  0  0  0  0  2  0  0  0  0  0  0
  161.0350  206.9200  152.4060 C   0  0  0  0  0  0  0  0  0  0  0  0
  161.0970  206.1180  151.2680 C   0  0  0  0  0  3  0  0  0  0  0  0
  160.1840  210.2110  156.4000 N   0  0  0  0  0  2  0  0  0  0  0  0
  159.9760  211.3810  155.5580 C   0  0  0  0  0  2  0  0  0  0  0  0
  161.2080  208.4460  154.8160 C   0  0  0  0  0  0  0  0  0  0  0  0
  157.3660  213.6480  152.6970 N   0  0  0  0  0  0  0  0  0  0  0  0
  155.9770  214.0710  152.7670 C   0  0  0  0  0  1  0  0  0  0  0  0
  158.2630  214.3580  151.7990 C   0  0  0  0  0  1  0  0  0  0  0  0
  159.2080  212.1410  153.3990 N   0  0  0  0  0  2  0  0  0  0  0  0
  157.0500  211.9420  154.2610 O   0  0  0  0  0  0  0  0  0  0  0  0
  157.8400  212.5500  153.4860 C   0  0  0  0  0  0  0  0  0  0  0  0
  161.1960  211.1660  150.4930 C   0  0  0  0  0  2  0  0  0  0  0  0
  162.3310  210.8020  149.5650 C   0  0  0  0  0  2  0  0  0  0  0  0
  162.3100  210.2610  150.9900 C   0  0  0  0  0  3  0  0  0  0  0  0
  1 12  1  0  0  0  0
  1  2  1  0  0  0  0
  2 16  2  0  0  0  0
  3  6  1  0  0  0  0
  4  1  2  0  0  0  0
  5 20  1  6  0  0  0
  5 15  1  0  0  0  0
  7  8  2  0  0  0  0
  7  4  1  0  0  0  0
  8 13  1  0  0  0  0
  9 14  1  0  0  0  0
  9 10  2  0  0  0  0
 11  2  1  0  0  0  0
 11  5  1  0  0  0  0
 12  3  1  0  0  0  0
 13 12  2  0  0  0  0
 15 14  1  0  0  0  0
 16  6  1  0  0  0  0
 16  9  1  0  0  0  0
 17 18  1  0  0  0  0
 17 22  1  0  0  0  0
 19 17  1  0  0  0  0
 20 22  1  0  0  0  0
 22 21  2  0  0  0  0
 23 25  1  0  0  0  0
 24 23  1  0  0  0  0
 24 25  1  0  0  0  0
 25  4  1  0  0  0  0
M  END
>  <MODEL>
3

>  <REMARK>
 VINA RESULT:      -6.0      3.537      6.992
  Name = 
  2 active torsions:
  status: ('A' for Active; 'I' for Inactive)
    1  A    between atoms: C_5  and  C_22
    2  A    between atoms: C_6  and  N_15
                            x       y       z     vdW  Elec       q    Type
                         _______ _______ _______ _____ _____    ______ ____

>  <TORSDO>
F 2

$$$$
=
 OpenBabel11052422223D

 25 28  0  0  1  0  0  0  0  0999 V2000
  161.2670  207.9850  152.9400 C   0  0  0  0  0  0  0  0  0  0  0  0
  161.2360  209.2270  153.7950 C   0  0  0  0  0  0  0  0  0  0  0  0
  160.4300  206.7470  154.9720 C   0  0  0  0  0  2  0  0  0  0  0  0
  161.7240  207.9530  151.5880 C   0  0  0  0  0  0  0  0  0  0  0  0
  159.8870  211.2770  153.4970 C   0  0  1  0  0  3  0  0  0  0  0  0
  161.2850  207.7310  155.7600 C   0  0  0  0  0  2  0  0  0  0  0  0
  161.7070  206.7300  150.8920 C   0  0  0  0  0  3  0  0  0  0  0  0
  161.2510  205.5600  151.4910 C   0  0  0  0  0  3  0  0  0  0  0  0
  161.1240  210.2400  156.1160 C   0  0  0  0  0  0  0  0  0  0  0  0
  161.6470  210.0850  157.2520 O   0  0  0  0  0  0  0  0  0  0  0  0
  161.1720  210.5680  153.1390 C   0  0  0  0  0  2  0  0  0  0  0  0
  160.8550  206.7700  153.5410 C   0  0  0  0  0  0  0  0  0  0  0  0
  160.8290  205.5800  152.8150 C   0  0  0  0  0  3  0  0  0  0  0  0
  160.3490  211.4280  155.8980 N   0  0  0  0  0  2  0  0  0  0  0  0
  160.2060  212.1810  154.6600 C   0  0  0  0  0  2  0  0  0  0  0  0
  161.2000  209.1070  155.1500 C   0  0  0  0  0  0  0  0  0  0  0  0
  157.7610  213.4920  151.2130 N   0  0  0  0  0  0  0  0  0  0  0  0
  156.4840  214.1870  151.1950 C   0  0  0  0  0  1  0  0  0  0  0  0
  158.5920  213.5380  150.0210 C   0  0  0  0  0  1  0  0  0  0  0  0
  159.4420  212.0820  152.3720 N   0  0  0  0  0  2  0  0  0  0  0  0
  157.4540  212.7350  153.4020 O   0  0  0  0  0  0  0  0  0  0  0  0
  158.1860  212.7670  152.3740 C   0  0  0  0  0  0  0  0  0  0  0  0
  161.2760  209.8920  150.1120 C   0  0  0  0  0  2  0  0  0  0  0  0
  162.3490  209.1020  149.4010 C   0  0  0  0  0  2  0  0  0  0  0  0
  162.3350  209.1680  150.9240 C   0  0  0  0  0  3  0  0  0  0  0  0
  1 12  1  0  0  0  0
  1  2  1  0  0  0  0
  2 16  2  0  0  0  0
  3  6  1  0  0  0  0
  4  1  2  0  0  0  0
  5 20  1  6  0  0  0
  5 15  1  0  0  0  0
  7  8  2  0  0  0  0
  7  4  1  0  0  0  0
  8 13  1  0  0  0  0
  9 10  2  0  0  0  0
 11  5  1  0  0  0  0
 11  2  1  0  0  0  0
 12  3  1  0  0  0  0
 13 12  2  0  0  0  0
 14  9  1  0  0  0  0
 15 14  1  0  0  0  0
 16  6  1  0  0  0  0
 16  9  1  0  0  0  0
 17 22  1  0  0  0  0
 18 17  1  0  0  0  0
 19 17  1  0  0  0  0
 20 22  1  0  0  0  0
 22 21  2  0  0  0  0
 23 25  1  0  0  0  0
 24 23  1  0  0  0  0
 24 25  1  0  0  0  0
 25  4  1  0  0  0  0
M  END
>  <MODEL>
4

>  <REMARK>
 VINA RESULT:      -5.7      3.460      6.765
  Name = 
  2 active torsions:
  status: ('A' for Active; 'I' for Inactive)
    1  A    between atoms: C_5  and  C_22
    2  A    between atoms: C_6  and  N_15
                            x       y       z     vdW  Elec       q    Type
                         _______ _______ _______ _____ _____    ______ ____

>  <TORSDO>
F 2

$$$$
=
 OpenBabel11052422223D

 25 28  0  0  1  0  0  0  0  0999 V2000
  161.2930  206.8410  151.0670 C   0  0  0  0  0  0  0  0  0  0  0  0
  161.3140  207.6240  152.3560 C   0  0  0  0  0  0  0  0  0  0  0  0
  160.3210  204.9410  152.4110 C   0  0  0  0  0  2  0  0  0  0  0  0
  161.7870  207.3340  149.8210 C   0  0  0  0  0  0  0  0  0  0  0  0
  160.1050  209.7030  152.9230 C   0  0  1  0  0  3  0  0  0  0  0  0
  161.2120  205.4550  153.5340 C   0  0  0  0  0  2  0  0  0  0  0  0
  161.7150  206.5070  148.6850 C   0  0  0  0  0  3  0  0  0  0  0  0
  161.1700  205.2290  148.7510 C   0  0  0  0  0  3  0  0  0  0  0  0
  161.1970  207.6030  154.8880 C   0  0  0  0  0  0  0  0  0  0  0  0
  161.6750  206.9620  155.8610 O   0  0  0  0  0  0  0  0  0  0  0  0
  161.3530  209.1170  152.3080 C   0  0  0  0  0  2  0  0  0  0  0  0
  160.7880  205.5180  151.1160 C   0  0  0  0  0  0  0  0  0  0  0  0
  160.7110  204.7350  149.9660 C   0  0  0  0  0  3  0  0  0  0  0  0
  160.5030  208.8270  155.1750 N   0  0  0  0  0  2  0  0  0  0  0  0
  160.4440  210.0290  154.3550 C   0  0  0  0  0  2  0  0  0  0  0  0
  161.2300  206.9620  153.5420 C   0  0  0  0  0  0  0  0  0  0  0  0
  158.2600  212.8790  151.8480 N   0  0  0  0  0  0  0  0  0  0  0  0
  157.1110  213.6890  152.2180 C   0  0  0  0  0  1  0  0  0  0  0  0
  159.0330  213.2660  150.6790 C   0  0  0  0  0  1  0  0  0  0  0  0
  159.7440  210.9270  152.2270 N   0  0  0  0  0  2  0  0  0  0  0  0
  157.9340  211.3940  153.6210 O   0  0  0  0  0  0  0  0  0  0  0  0
  158.6150  211.7180  152.6090 C   0  0  0  0  0  0  0  0  0  0  0  0
  161.5890  209.6680  149.0140 C   0  0  0  0  0  2  0  0  0  0  0  0
  162.7850  209.1040  148.2840 C   0  0  0  0  0  2  0  0  0  0  0  0
  162.4920  208.6690  149.7150 C   0  0  0  0  0  3  0  0  0  0  0  0
  1 12  1  0  0  0  0
  1  2  1  0  0  0  0
  2 16  2  0  0  0  0
  3  6  1  0  0  0  0
  4  1  2  0  0  0  0
  5 20  1  6  0  0  0
  5 15  1  0  0  0  0
  6 16  1  0  0  0  0
  7  8  2  0  0  0  0
  7  4  1  0  0  0  0
  8 13  1  0  0  0  0
  9 14  1  0  0  0  0
  9 10  2  0  0  0  0
 11  2  1  0  0  0  0
 11  5  1  0  0  0  0
 12  3  1  0  0  0  0
 13 12  2  0  0  0  0
 15 14  1  0  0  0  0
 16  9  1  0  0  0  0
 17 18  1  0  0  0  0
 17 22  1  0  0  0  0
 19 17  1  0  0  0  0
 20 22  1  0  0  0  0
 22 21  2  0  0  0  0
 23 25  1  0  0  0  0
 24 23  1  0  0  0  0
 24 25  1  0  0  0  0
 25  4  1  0  0  0  0
M  END
>  <MODEL>
5

>  <REMARK>
 VINA RESULT:      -5.6      2.861      6.985
  Name = 
  2 active torsions:
  status: ('A' for Active; 'I' for Inactive)
    1  A    between atoms: C_5  and  C_22
    2  A    between atoms: C_6  and  N_15
                            x       y       z     vdW  Elec       q    Type
                         _______ _______ _______ _____ _____    ______ ____

>  <TORSDO>
F 2

$$$$
=
 OpenBabel11052422223D

 25 28  0  0  1  0  0  0  0  0999 V2000
  161.3970  204.4080  149.2170 C   0  0  0  0  0  0  0  0  0  0  0  0
  161.8020  205.5040  150.1700 C   0  0  0  0  0  0  0  0  0  0  0  0
  160.1450  203.3900  151.1550 C   0  0  0  0  0  2  0  0  0  0  0  0
  161.8310  204.3260  147.8590 C   0  0  0  0  0  0  0  0  0  0  0  0
  161.2830  207.9180  150.0640 C   0  0  1  0  0  3  0  0  0  0  0  0
  161.2860  203.9330  152.0060 C   0  0  0  0  0  2  0  0  0  0  0  0
  161.3860  203.2510  147.0660 C   0  0  0  0  0  3  0  0  0  0  0  0
  160.5330  202.2780  147.5750 C   0  0  0  0  0  3  0  0  0  0  0  0
  162.0300  206.2940  152.5680 C   0  0  0  0  0  0  0  0  0  0  0  0
  162.4480  205.8700  153.6790 O   0  0  0  0  0  0  0  0  0  0  0  0
  162.2330  206.8280  149.6270 C   0  0  0  0  0  2  0  0  0  0  0  0
  160.5690  203.3760  149.7240 C   0  0  0  0  0  0  0  0  0  0  0  0
  160.1280  202.3390  148.9040 C   0  0  0  0  0  3  0  0  0  0  0  0
  161.7350  207.6950  152.4610 N   0  0  0  0  0  2  0  0  0  0  0  0
  161.8890  208.5490  151.2910 C   0  0  0  0  0  2  0  0  0  0  0  0
  161.7080  205.2930  151.5120 C   0  0  0  0  0  0  0  0  0  0  0  0
  161.6410  211.1630  148.0680 N   0  0  0  0  0  0  0  0  0  0  0  0
  162.3050  212.4550  148.1360 C   0  0  0  0  0  1  0  0  0  0  0  0
  160.7630  210.8930  146.9420 C   0  0  0  0  0  1  0  0  0  0  0  0
  161.1710  208.9180  149.0170 N   0  0  0  0  0  2  0  0  0  0  0  0
  162.6030  210.4300  150.0670 O   0  0  0  0  0  0  0  0  0  0  0  0
  161.8380  210.1820  149.0940 C   0  0  0  0  0  0  0  0  0  0  0  0
  162.3290  205.8550  145.9750 C   0  0  0  0  0  2  0  0  0  0  0  0
  163.4490  204.8420  145.9600 C   0  0  0  0  0  2  0  0  0  0  0  0
  162.8460  205.2910  147.2860 C   0  0  0  0  0  3  0  0  0  0  0  0
  1 12  1  0  0  0  0
  1  2  1  0  0  0  0
  2 16  2  0  0  0  0
  3  6  1  0  0  0  0
  4  1  2  0  0  0  0
  5 20  1  6  0  0  0
  5 15  1  0  0  0  0
  7  8  2  0  0  0  0
  7  4  1  0  0  0  0
  8 13  1  0  0  0  0
  9 10  2  0  0  0  0
 11  5  1  0  0  0  0
 11  2  1  0  0  0  0
 12  3  1  0  0  0  0
 13 12  2  0  0  0  0
 14  9  1  0  0  0  0
 15 14  1  0  0  0  0
 16  6  1  0  0  0  0
 16  9  1  0  0  0  0
 17 18  1  0  0  0  0
 17 22  1  0  0  0  0
 19 17  1  0  0  0  0
 20 22  1  0  0  0  0
 22 21  2  0  0  0  0
 23 25  1  0  0  0  0
 24 23  1  0  0  0  0
 24 25  1  0  0  0  0
 25  4  1  0  0  0  0
M  END
>  <MODEL>
6

>  <REMARK>
 VINA RESULT:      -5.1      3.432      7.805
  Name = 
  2 active torsions:
  status: ('A' for Active; 'I' for Inactive)
    1  A    between atoms: C_5  and  C_22
    2  A    between atoms: C_6  and  N_15
                            x       y       z     vdW  Elec       q    Type
                         _______ _______ _______ _____ _____    ______ ____

>  <TORSDO>
F 2

$$$$
=
 OpenBabel11052422223D

 25 28  0  0  1  0  0  0  0  0999 V2000
  160.9490  208.4510  152.9100 C   0  0  0  0  0  0  0  0  0  0  0  0
  160.9710  208.0560  151.4550 C   0  0  0  0  0  0  0  0  0  0  0  0
  161.8220  206.1360  153.3980 C   0  0  0  0  0  2  0  0  0  0  0  0
  160.4790  209.7110  153.3920 C   0  0  0  0  0  0  0  0  0  0  0  0
  162.2890  209.0330  149.6070 C   0  0  1  0  0  3  0  0  0  0  0  0
  160.9610  205.7060  152.2170 C   0  0  0  0  0  2  0  0  0  0  0  0
  160.5050  209.9630  154.7760 C   0  0  0  0  0  3  0  0  0  0  0  0
  160.9830  209.0170  155.6780 C   0  0  0  0  0  3  0  0  0  0  0  0
  161.0910  206.2020  149.7310 C   0  0  0  0  0  0  0  0  0  0  0  0
  160.5820  205.0720  149.5060 O   0  0  0  0  0  0  0  0  0  0  0  0
  161.0100  209.1200  150.4060 C   0  0  0  0  0  2  0  0  0  0  0  0
  161.3830  207.4880  153.8540 C   0  0  0  0  0  0  0  0  0  0  0  0
  161.4170  207.7800  155.2160 C   0  0  0  0  0  3  0  0  0  0  0  0
  161.8490  206.8110  148.6740 N   0  0  0  0  0  2  0  0  0  0  0  0
  161.9690  208.2310  148.3720 C   0  0  0  0  0  2  0  0  0  0  0  0
  161.0220  206.7380  151.1200 C   0  0  0  0  0  0  0  0  0  0  0  0
  162.4760  212.4340  147.8620 N   0  0  0  0  0  0  0  0  0  0  0  0
  161.7500  213.2410  146.8950 C   0  0  0  0  0  1  0  0  0  0  0  0
  163.7240  212.9520  148.3990 C   0  0  0  0  0  1  0  0  0  0  0  0
  162.7120  210.3670  149.2150 N   0  0  0  0  0  2  0  0  0  0  0  0
  160.8960  210.7150  147.7920 O   0  0  0  0  0  0  0  0  0  0  0  0
  161.9810  211.1520  148.2680 C   0  0  0  0  0  0  0  0  0  0  0  0
  159.9050  212.1050  153.1150 C   0  0  0  0  0  2  0  0  0  0  0  0
  158.5840  211.3770  153.0360 C   0  0  0  0  0  2  0  0  0  0  0  0
  159.8440  210.7300  152.4710 C   0  0  0  0  0  3  0  0  0  0  0  0
  1  4  2  0  0  0  0
  1 12  1  0  0  0  0
  2  1  1  0  0  0  0
  3 12  1  0  0  0  0
  4  7  1  0  0  0  0
  5 20  1  6  0  0  0
  5 11  1  0  0  0  0
  6  3  1  0  0  0  0
  7  8  2  0  0  0  0
  9 16  1  0  0  0  0
 10  9  2  0  0  0  0
 11  2  1  0  0  0  0
 12 13  2  0  0  0  0
 13  8  1  0  0  0  0
 14  9  1  0  0  0  0
 15 14  1  0  0  0  0
 15  5  1  0  0  0  0
 16  2  2  0  0  0  0
 16  6  1  0  0  0  0
 17 22  1  0  0  0  0
 17 19  1  0  0  0  0
 18 17  1  0  0  0  0
 21 22  2  0  0  0  0
 22 20  1  0  0  0  0
 24 23  1  0  0  0  0
 25 24  1  0  0  0  0
 25 23  1  0  0  0  0
 25  4  1  0  0  0  0
M  END
>  <MODEL>
7

>  <REMARK>
 VINA RESULT:      -5.1      1.925      5.431
  Name = 
  2 active torsions:
  status: ('A' for Active; 'I' for Inactive)
    1  A    between atoms: C_5  and  C_22
    2  A    between atoms: C_6  and  N_15
                            x       y       z     vdW  Elec       q    Type
                         _______ _______ _______ _____ _____    ______ ____

>  <TORSDO>
F 2

$$$$
=
 OpenBabel11052422223D

 25 28  0  0  1  0  0  0  0  0999 V2000
  159.2970  212.2070  152.7770 C   0  0  0  0  0  0  0  0  0  0  0  0
  160.4000  211.8440  151.8140 C   0  0  0  0  0  0  0  0  0  0  0  0
  158.1700  213.3400  150.8260 C   0  0  0  0  0  2  0  0  0  0  0  0
  159.3150  211.8950  154.1700 C   0  0  0  0  0  0  0  0  0  0  0  0
  161.1600  209.6030  151.1030 C   0  0  1  0  0  3  0  0  0  0  0  0
  159.5840  213.6820  150.3780 C   0  0  0  0  0  2  0  0  0  0  0  0
  158.2260  212.2890  154.9700 C   0  0  0  0  0  3  0  0  0  0  0  0
  157.1360  212.9650  154.4310 C   0  0  0  0  0  3  0  0  0  0  0  0
  161.5210  212.2490  149.5770 C   0  0  0  0  0  0  0  0  0  0  0  0
  161.9030  213.2120  148.8600 O   0  0  0  0  0  0  0  0  0  0  0  0
  161.3060  210.7000  152.1320 C   0  0  0  0  0  2  0  0  0  0  0  0
  158.1980  212.9390  152.2640 C   0  0  0  0  0  0  0  0  0  0  0  0
  157.1250  213.2930  153.0800 C   0  0  0  0  0  3  0  0  0  0  0  0
  161.9580  210.9320  149.2080 N   0  0  0  0  0  2  0  0  0  0  0  0
  162.2560  209.8140  150.0920 C   0  0  0  0  0  2  0  0  0  0  0  0
  160.5120  212.5230  150.6400 C   0  0  0  0  0  0  0  0  0  0  0  0
  161.2460  205.8280  151.7310 N   0  0  0  0  0  0  0  0  0  0  0  0
  161.0240  204.5700  151.0370 C   0  0  0  0  0  1  0  0  0  0  0  0
  161.5810  205.7910  153.1450 C   0  0  0  0  0  1  0  0  0  0  0  0
  161.3380  208.3090  151.7400 N   0  0  0  0  0  2  0  0  0  0  0  0
  160.8320  207.0960  149.8120 O   0  0  0  0  0  0  0  0  0  0  0  0
  161.1250  207.0780  151.0400 C   0  0  0  0  0  0  0  0  0  0  0  0
  160.0860  210.5170  156.0790 C   0  0  0  0  0  2  0  0  0  0  0  0
  160.8340  211.8220  156.2150 C   0  0  0  0  0  2  0  0  0  0  0  0
  160.5220  211.2640  154.8310 C   0  0  0  0  0  3  0  0  0  0  0  0
  1  4  1  0  0  0  0
  2 11  1  0  0  0  0
  2  1  1  0  0  0  0
  3 12  1  0  0  0  0
  4 25  1  0  0  0  0
  4  7  2  0  0  0  0
  5 20  1  1  0  0  0
  5 11  1  0  0  0  0
  6 16  1  0  0  0  0
  6  3  1  0  0  0  0
  8  7  1  0  0  0  0
  9 16  1  0  0  0  0
 10  9  2  0  0  0  0
 12  1  2  0  0  0  0
 12 13  1  0  0  0  0
 13  8  2  0  0  0  0
 14  9  1  0  0  0  0
 14 15  1  0  0  0  0
 15  5  1  0  0  0  0
 16  2  2  0  0  0  0
 17 19  1  0  0  0  0
 18 17  1  0  0  0  0
 21 22  2  0  0  0  0
 22 17  1  0  0  0  0
 22 20  1  0  0  0  0
 23 24  1  0  0  0  0
 25 23  1  0  0  0  0
 25 24  1  0  0  0  0
M  END
>  <MODEL>
8

>  <REMARK>
 VINA RESULT:      -4.9      1.604      2.328
  Name = 
  2 active torsions:
  status: ('A' for Active; 'I' for Inactive)
    1  A    between atoms: C_5  and  C_22
    2  A    between atoms: C_6  and  N_15
                            x       y       z     vdW  Elec       q    Type
                         _______ _______ _______ _____ _____    ______ ____

>  <TORSDO>
F 2

$$$$
=
 OpenBabel11052422223D

 25 28  0  0  1  0  0  0  0  0999 V2000
  160.9710  203.0210  147.7020 C   0  0  0  0  0  0  0  0  0  0  0  0
  161.3720  203.4690  149.0850 C   0  0  0  0  0  0  0  0  0  0  0  0
  159.3190  201.4910  148.8390 C   0  0  0  0  0  2  0  0  0  0  0  0
  161.5860  203.4840  146.4990 C   0  0  0  0  0  0  0  0  0  0  0  0
  161.2010  205.7190  150.0940 C   0  0  1  0  0  3  0  0  0  0  0  0
  160.3830  201.3660  149.9210 C   0  0  0  0  0  2  0  0  0  0  0  0
  161.1250  202.9900  145.2650 C   0  0  0  0  0  3  0  0  0  0  0  0
  160.0830  202.0710  145.1940 C   0  0  0  0  0  3  0  0  0  0  0  0
  161.3450  203.0290  151.5810 C   0  0  0  0  0  0  0  0  0  0  0  0
  161.5320  202.0790  152.3860 O   0  0  0  0  0  0  0  0  0  0  0  0
  162.0520  204.7880  149.2610 C   0  0  0  0  0  2  0  0  0  0  0  0
  159.9460  202.0480  147.6030 C   0  0  0  0  0  0  0  0  0  0  0  0
  159.4970  201.5980  146.3630 C   0  0  0  0  0  3  0  0  0  0  0  0
  161.2580  204.3540  152.1270 N   0  0  0  0  0  2  0  0  0  0  0  0
  161.6970  205.5990  151.5120 C   0  0  0  0  0  2  0  0  0  0  0  0
  161.0520  202.6960  150.1580 C   0  0  0  0  0  0  0  0  0  0  0  0
  161.7230  209.5100  150.0490 N   0  0  0  0  0  0  0  0  0  0  0  0
  161.9570  210.6210  150.9560 C   0  0  0  0  0  1  0  0  0  0  0  0
  161.5810  209.7910  148.6300 C   0  0  0  0  0  1  0  0  0  0  0  0
  161.3820  207.0860  149.6370 N   0  0  0  0  0  2  0  0  0  0  0  0
  161.7450  207.9380  151.7770 O   0  0  0  0  0  0  0  0  0  0  0  0
  161.6210  208.1680  150.5420 C   0  0  0  0  0  0  0  0  0  0  0  0
  162.3580  205.8280  146.2830 C   0  0  0  0  0  2  0  0  0  0  0  0
  163.0810  205.0780  145.1890 C   0  0  0  0  0  2  0  0  0  0  0  0
  162.7950  204.3940  146.5210 C   0  0  0  0  0  3  0  0  0  0  0  0
  1  2  1  0  0  0  0
  2 11  1  0  0  0  0
  2 16  2  0  0  0  0
  3  6  1  0  0  0  0
  4 25  1  0  0  0  0
  4  1  2  0  0  0  0
  5 20  1  6  0  0  0
  5 15  1  0  0  0  0
  6 16  1  0  0  0  0
  7  4  1  0  0  0  0
  8  7  2  0  0  0  0
  8 13  1  0  0  0  0
  9 14  1  0  0  0  0
  9 10  2  0  0  0  0
 11  5  1  0  0  0  0
 12  1  1  0  0  0  0
 12  3  1  0  0  0  0
 13 12  2  0  0  0  0
 15 14  1  0  0  0  0
 16  9  1  0  0  0  0
 17 22  1  0  0  0  0
 17 18  1  0  0  0  0
 19 17  1  0  0  0  0
 20 22  1  0  0  0  0
 22 21  2  0  0  0  0
 23 25  1  0  0  0  0
 24 23  1  0  0  0  0
 24 25  1  0  0  0  0
M  END
>  <MODEL>
9

>  <REMARK>
 VINA RESULT:      -4.8      3.432      8.791
  Name = 
  2 active torsions:
  status: ('A' for Active; 'I' for Inactive)
    1  A    between atoms: C_5  and  C_22
    2  A    between atoms: C_6  and  N_15
                            x       y       z     vdW  Elec       q    Type
                         _______ _______ _______ _____ _____    ______ ____

>  <TORSDO>
F 2

$$$$
