=
 OpenBabel11052422123D

 25 28  0  0  1  0  0  0  0  0999 V2000
  161.2900  204.3010  149.1790 C   0  0  0  0  0  0  0  0  0  0  0  0
  161.3810  205.2220  150.2450 C   0  0  0  0  0  0  0  0  0  0  0  0
  160.8250  202.4760  150.7330 C   0  0  0  0  0  3  0  0  0  0  0  0
  161.4430  204.5400  147.7990 C   0  0  0  0  0  0  0  0  0  0  0  0
  161.6720  204.6170  145.0490 N   0  0  0  0  0  0  0  0  0  0  0  0
  160.9130  203.3820  151.7950 C   0  0  0  0  0  3  0  0  0  0  0  0
  161.2870  203.3900  147.0340 C   0  0  0  0  0  0  0  0  0  0  0  0
  161.4010  203.4240  145.6500 C   0  0  0  0  0  3  0  0  0  0  0  0
  161.2640  205.6920  152.6790 C   0  0  0  0  0  0  0  0  0  0  0  0
  161.1270  205.2980  153.8680 O   0  0  0  0  0  0  0  0  0  0  0  0
  161.7100  206.6730  149.9980 C   0  0  0  0  0  2  0  0  0  0  0  0
  161.8320  205.7680  145.7690 C   0  0  0  0  0  3  0  0  0  0  0  0
  161.0150  202.9580  149.4420 C   0  0  0  0  0  0  0  0  0  0  0  0
  160.9580  202.0620  148.0140 S   0  0  0  0  0  0  0  0  0  0  0  0
  161.4820  207.0790  152.4180 N   0  0  0  0  0  0  0  0  0  0  0  0
  161.7210  205.7570  147.1690 C   0  0  0  0  0  3  0  0  0  0  0  0
  161.6630  207.5540  151.2210 C   0  0  0  0  0  0  0  0  0  0  0  0
  161.1880  204.7430  151.5610 C   0  0  0  0  0  0  0  0  0  0  0  0
  161.9230  209.3090  151.0150 S   0  0  0  0  0  0  0  0  0  0  0  0
  160.6660  209.7170  152.2660 C   0  0  0  0  0  2  0  0  0  0  0  0
  161.1840  210.7920  153.2060 C   0  0  1  0  0  3  0  0  0  0  0  0
  160.1400  211.8790  153.3990 C   0  0  0  0  0  1  0  0  0  0  0  0
  161.5550  210.1940  154.5220 C   0  0  0  0  0  0  0  0  0  0  0  0
  162.6050  210.7370  155.2500 O   0  0  0  0  0  1  0  0  0  0  0  0
  160.9250  209.2030  154.9790 O   0  0  0  0  0  0  0  0  0  0  0  0
  1 13  1  0  0  0  0
  1  2  2  0  0  0  0
  2 18  1  0  0  0  0
  3  6  1  0  0  0  0
  4  1  1  0  0  0  0
  5  8  2  0  0  0  0
  5 12  1  0  0  0  0
  7  4  2  0  0  0  0
  7 14  1  0  0  0  0
  8  7  1  0  0  0  0
  9 10  2  0  0  0  0
 11  2  1  0  0  0  0
 11 17  1  0  0  0  0
 12 16  2  0  0  0  0
 13  3  2  0  0  0  0
 14 13  1  0  0  0  0
 15  9  1  0  0  0  0
 16  4  1  0  0  0  0
 17 15  2  0  0  0  0
 18  6  2  0  0  0  0
 18  9  1  0  0  0  0
 19 17  1  0  0  0  0
 19 20  1  0  0  0  0
 20 21  1  0  0  0  0
 21 22  1  1  0  0  0
 21 23  1  0  0  0  0
 23 25  2  0  0  0  0
 23 24  1  0  0  0  0
M  END
>  <MODEL>
1

>  <REMARK>
 VINA RESULT:      -9.4      0.000      0.000
  Name = 
  4 active torsions:
  status: ('A' for Active; 'I' for Inactive)
    1  A    between atoms: C_2  and  C_21
    2  A    between atoms: S_6  and  C_15
    3  A    between atoms: S_6  and  C_23
    4  A    between atoms: C_15  and  C_21
                            x       y       z     vdW  Elec       q    Type
                         _______ _______ _______ _____ _____    ______ ____

>  <TORSDO>
F 4

$$$$
=
 OpenBabel11052422123D

 25 28  0  0  1  0  0  0  0  0999 V2000
  161.4070  205.0680  148.9310 C   0  0  0  0  0  0  0  0  0  0  0  0
  161.4220  206.0730  149.9220 C   0  0  0  0  0  0  0  0  0  0  0  0
  161.9790  206.6970  147.2040 C   0  0  0  0  0  3  0  0  0  0  0  0
  161.1390  203.6940  149.0810 C   0  0  0  0  0  0  0  0  0  0  0  0
  160.6740  200.9740  148.9800 N   0  0  0  0  0  0  0  0  0  0  0  0
  161.9960  207.6990  148.1800 C   0  0  0  0  0  3  0  0  0  0  0  0
  161.2120  202.9980  147.8800 C   0  0  0  0  0  0  0  0  0  0  0  0
  160.9790  201.6290  147.8240 C   0  0  0  0  0  3  0  0  0  0  0  0
  161.7550  208.4510  150.5500 C   0  0  0  0  0  0  0  0  0  0  0  0
  161.9900  209.6480  150.2330 O   0  0  0  0  0  0  0  0  0  0  0  0
  161.0930  205.7580  151.3600 C   0  0  0  0  0  2  0  0  0  0  0  0
  160.5930  201.6250  150.1790 C   0  0  0  0  0  3  0  0  0  0  0  0
  161.6850  205.3980  147.6030 C   0  0  0  0  0  0  0  0  0  0  0  0
  161.6050  204.0340  146.6130 S   0  0  0  0  0  0  0  0  0  0  0  0
  161.5350  208.1160  151.9210 N   0  0  0  0  0  0  0  0  0  0  0  0
  160.8250  203.0080  150.2580 C   0  0  0  0  0  3  0  0  0  0  0  0
  161.2580  206.9100  152.3190 C   0  0  0  0  0  0  0  0  0  0  0  0
  161.7210  207.3970  149.5280 C   0  0  0  0  0  0  0  0  0  0  0  0
  161.0060  206.6080  154.0610 S   0  0  0  0  0  0  0  0  0  0  0  0
  160.8600  208.3840  154.4240 C   0  0  0  0  0  2  0  0  0  0  0  0
  160.2750  208.5960  155.8100 C   0  0  1  0  0  3  0  0  0  0  0  0
  159.9390  207.2630  156.4560 C   0  0  0  0  0  1  0  0  0  0  0  0
  161.2330  209.3570  156.6650 C   0  0  0  0  0  0  0  0  0  0  0  0
  160.9140  210.6450  157.0740 O   0  0  0  0  0  1  0  0  0  0  0  0
  162.3280  208.8420  157.0200 O   0  0  0  0  0  0  0  0  0  0  0  0
  1  4  1  0  0  0  0
  1  2  2  0  0  0  0
  2 11  1  0  0  0  0
  3 13  2  0  0  0  0
  3  6  1  0  0  0  0
  4 16  1  0  0  0  0
  5 12  1  0  0  0  0
  6 18  2  0  0  0  0
  7  4  2  0  0  0  0
  8  7  1  0  0  0  0
  8  5  2  0  0  0  0
  9 15  1  0  0  0  0
 10  9  2  0  0  0  0
 11 17  1  0  0  0  0
 12 16  2  0  0  0  0
 13  1  1  0  0  0  0
 14 13  1  0  0  0  0
 14  7  1  0  0  0  0
 15 17  2  0  0  0  0
 17 19  1  0  0  0  0
 18  2  1  0  0  0  0
 18  9  1  0  0  0  0
 19 20  1  0  0  0  0
 20 21  1  0  0  0  0
 21 22  1  1  0  0  0
 21 23  1  0  0  0  0
 23 25  2  0  0  0  0
 23 24  1  0  0  0  0
M  END
>  <MODEL>
2

>  <REMARK>
 VINA RESULT:      -9.3      2.377      3.617
  Name = 
  4 active torsions:
  status: ('A' for Active; 'I' for Inactive)
    1  A    between atoms: C_2  and  C_21
    2  A    between atoms: S_6  and  C_15
    3  A    between atoms: S_6  and  C_23
    4  A    between atoms: C_15  and  C_21
                            x       y       z     vdW  Elec       q    Type
                         _______ _______ _______ _____ _____    ______ ____

>  <TORSDO>
F 4

$$$$
=
 OpenBabel11052422123D

 25 28  0  0  1  0  0  0  0  0999 V2000
  161.4590  207.4190  151.3680 C   0  0  0  0  0  0  0  0  0  0  0  0
  161.3110  206.0680  150.9900 C   0  0  0  0  0  0  0  0  0  0  0  0
  161.1890  206.8390  153.7240 C   0  0  0  0  0  3  0  0  0  0  0  0
  161.6730  208.5420  150.5440 C   0  0  0  0  0  0  0  0  0  0  0  0
  162.0960  210.9530  149.2680 N   0  0  0  0  0  0  0  0  0  0  0  0
  161.0420  205.4970  153.3580 C   0  0  0  0  0  3  0  0  0  0  0  0
  161.7700  209.7270  151.2640 C   0  0  0  0  0  0  0  0  0  0  0  0
  161.9820  210.9430  150.6260 C   0  0  0  0  0  3  0  0  0  0  0  0
  160.9620  203.6950  151.6300 C   0  0  0  0  0  0  0  0  0  0  0  0
  160.7450  202.8140  152.5040 O   0  0  0  0  0  0  0  0  0  0  0  0
  161.3390  205.6540  149.5400 C   0  0  0  0  0  2  0  0  0  0  0  0
  162.0060  209.8080  148.5280 C   0  0  0  0  0  3  0  0  0  0  0  0
  161.3960  207.7750  152.7170 C   0  0  0  0  0  0  0  0  0  0  0  0
  161.5980  209.4380  152.9140 S   0  0  0  0  0  0  0  0  0  0  0  0
  161.0870  203.3110  150.2600 N   0  0  0  0  0  0  0  0  0  0  0  0
  161.7910  208.5680  149.1510 C   0  0  0  0  0  3  0  0  0  0  0  0
  161.2790  204.1670  149.3000 C   0  0  0  0  0  0  0  0  0  0  0  0
  161.1010  205.1080  152.0060 C   0  0  0  0  0  0  0  0  0  0  0  0
  161.4250  203.5700  147.6230 S   0  0  0  0  0  0  0  0  0  0  0  0
  161.1380  205.2270  146.9290 C   0  0  0  0  0  2  0  0  0  0  0  0
  162.0310  205.4570  145.7220 C   0  0  1  0  0  3  0  0  0  0  0  0
  163.3010  204.6310  145.8320 C   0  0  0  0  0  1  0  0  0  0  0  0
  161.3010  205.1160  144.4650 C   0  0  0  0  0  0  0  0  0  0  0  0
  160.3980  204.0610  144.4630 O   0  0  0  0  0  1  0  0  0  0  0  0
  161.4950  205.7740  143.4090 O   0  0  0  0  0  0  0  0  0  0  0  0
  1 13  1  0  0  0  0
  2  1  2  0  0  0  0
  2 18  1  0  0  0  0
  4  7  1  0  0  0  0
  4  1  1  0  0  0  0
  5  8  1  0  0  0  0
  6  3  1  0  0  0  0
  7 14  1  0  0  0  0
  8  7  2  0  0  0  0
  9 18  1  0  0  0  0
  9 10  2  0  0  0  0
 11  2  1  0  0  0  0
 12 16  1  0  0  0  0
 12  5  2  0  0  0  0
 13 14  1  0  0  0  0
 13  3  2  0  0  0  0
 15  9  1  0  0  0  0
 16  4  2  0  0  0  0
 17 11  1  0  0  0  0
 17 15  2  0  0  0  0
 18  6  2  0  0  0  0
 19 17  1  0  0  0  0
 20 19  1  0  0  0  0
 21 22  1  1  0  0  0
 21 20  1  0  0  0  0
 23 21  1  0  0  0  0
 24 23  1  0  0  0  0
 25 23  2  0  0  0  0
M  END
>  <MODEL>
3

>  <REMARK>
 VINA RESULT:      -9.1      3.462      6.951
  Name = 
  4 active torsions:
  status: ('A' for Active; 'I' for Inactive)
    1  A    between atoms: C_2  and  C_21
    2  A    between atoms: S_6  and  C_15
    3  A    between atoms: S_6  and  C_23
    4  A    between atoms: C_15  and  C_21
                            x       y       z     vdW  Elec       q    Type
                         _______ _______ _______ _____ _____    ______ ____

>  <TORSDO>
F 4

$$$$
=
 OpenBabel11052422123D

 25 28  0  0  1  0  0  0  0  0999 V2000
  161.2940  204.3710  149.2200 C   0  0  0  0  0  0  0  0  0  0  0  0
  161.3990  205.3410  150.2390 C   0  0  0  0  0  0  0  0  0  0  0  0
  160.8550  202.6220  150.8670 C   0  0  0  0  0  3  0  0  0  0  0  0
  161.4260  204.5430  147.8280 C   0  0  0  0  0  0  0  0  0  0  0  0
  161.6140  204.4870  145.0750 N   0  0  0  0  0  0  0  0  0  0  0  0
  160.9570  203.5780  151.8830 C   0  0  0  0  0  3  0  0  0  0  0  0
  161.2600  203.3570  147.1220 C   0  0  0  0  0  0  0  0  0  0  0  0
  161.3540  203.3240  145.7360 C   0  0  0  0  0  3  0  0  0  0  0  0
  161.3180  205.9280  152.6490 C   0  0  0  0  0  0  0  0  0  0  0  0
  161.1990  205.5920  153.8580 O   0  0  0  0  0  0  0  0  0  0  0  0
  161.7230  206.7800  149.9180 C   0  0  0  0  0  2  0  0  0  0  0  0
  161.7830  205.6710  145.7360 C   0  0  0  0  0  3  0  0  0  0  0  0
  161.0250  203.0410  149.5520 C   0  0  0  0  0  0  0  0  0  0  0  0
  160.9480  202.0770  148.1700 S   0  0  0  0  0  0  0  0  0  0  0  0
  161.5300  207.3020  152.3180 N   0  0  0  0  0  0  0  0  0  0  0  0
  161.6930  205.7270  147.1360 C   0  0  0  0  0  3  0  0  0  0  0  0
  161.6930  207.7190  151.0970 C   0  0  0  0  0  0  0  0  0  0  0  0
  161.2270  204.9270  151.5790 C   0  0  0  0  0  0  0  0  0  0  0  0
  161.9470  209.4610  150.8030 S   0  0  0  0  0  0  0  0  0  0  0  0
  161.7710  209.8610  152.5690 C   0  0  0  0  0  2  0  0  0  0  0  0
  160.3400  210.2640  152.8810 C   0  0  1  0  0  3  0  0  0  0  0  0
  159.9570  209.8290  154.2850 C   0  0  0  0  0  1  0  0  0  0  0  0
  160.1750  211.7410  152.7370 C   0  0  0  0  0  0  0  0  0  0  0  0
  160.1810  212.3110  151.4710 O   0  0  0  0  0  0  0  0  0  0  0  0
  160.0300  212.4750  153.7520 O   0  0  0  0  0  1  0  0  0  0  0  0
  1 13  1  0  0  0  0
  1  2  2  0  0  0  0
  2 18  1  0  0  0  0
  3  6  1  0  0  0  0
  4  1  1  0  0  0  0
  5  8  2  0  0  0  0
  5 12  1  0  0  0  0
  7  4  2  0  0  0  0
  7 14  1  0  0  0  0
  8  7  1  0  0  0  0
  9 10  2  0  0  0  0
 11  2  1  0  0  0  0
 11 17  1  0  0  0  0
 12 16  2  0  0  0  0
 13  3  2  0  0  0  0
 14 13  1  0  0  0  0
 15  9  1  0  0  0  0
 16  4  1  0  0  0  0
 17 15  2  0  0  0  0
 18  6  2  0  0  0  0
 18  9  1  0  0  0  0
 19 17  1  0  0  0  0
 19 20  1  0  0  0  0
 20 21  1  0  0  0  0
 21 22  1  1  0  0  0
 23 21  1  0  0  0  0
 23 25  1  0  0  0  0
 24 23  2  0  0  0  0
M  END
>  <MODEL>
4

>  <REMARK>
 VINA RESULT:      -9.0      1.270      1.431
  Name = 
  4 active torsions:
  status: ('A' for Active; 'I' for Inactive)
    1  A    between atoms: C_2  and  C_21
    2  A    between atoms: S_6  and  C_15
    3  A    between atoms: S_6  and  C_23
    4  A    between atoms: C_15  and  C_21
                            x       y       z     vdW  Elec       q    Type
                         _______ _______ _______ _____ _____    ______ ____

>  <TORSDO>
F 4

$$$$
=
 OpenBabel11052422123D

 25 28  0  0  1  0  0  0  0  0999 V2000
  161.3540  205.3750  150.8710 C   0  0  0  0  0  0  0  0  0  0  0  0
  161.2260  204.2690  150.0050 C   0  0  0  0  0  0  0  0  0  0  0  0
  160.9380  203.9580  152.8160 C   0  0  0  0  0  3  0  0  0  0  0  0
  161.6230  206.7180  150.5440 C   0  0  0  0  0  0  0  0  0  0  0  0
  162.1310  209.4210  150.2970 N   0  0  0  0  0  0  0  0  0  0  0  0
  160.8100  202.8570  151.9640 C   0  0  0  0  0  3  0  0  0  0  0  0
  161.6790  207.5430  151.6620 C   0  0  0  0  0  0  0  0  0  0  0  0
  161.9340  208.9040  151.5430 C   0  0  0  0  0  3  0  0  0  0  0  0
  160.8290  201.8400  149.6820 C   0  0  0  0  0  0  0  0  0  0  0  0
  160.5570  200.7010  150.1460 O   0  0  0  0  0  0  0  0  0  0  0  0
  161.3420  204.4310  148.5090 C   0  0  0  0  0  2  0  0  0  0  0  0
  162.0830  208.6410  149.1760 C   0  0  0  0  0  3  0  0  0  0  0  0
  161.2100  205.1980  152.2490 C   0  0  0  0  0  0  0  0  0  0  0  0
  161.4050  206.6600  153.0690 S   0  0  0  0  0  0  0  0  0  0  0  0
  161.0380  201.9970  148.2770 N   0  0  0  0  0  0  0  0  0  0  0  0
  161.8270  207.2640  149.2740 C   0  0  0  0  0  3  0  0  0  0  0  0
  161.2920  203.1450  147.7230 C   0  0  0  0  0  0  0  0  0  0  0  0
  160.9500  203.0030  150.5700 C   0  0  0  0  0  0  0  0  0  0  0  0
  161.5380  203.2180  145.9560 S   0  0  0  0  0  0  0  0  0  0  0  0
  162.4480  204.7890  146.0730 C   0  0  0  0  0  2  0  0  0  0  0  0
  161.8170  205.8360  145.1700 C   0  0  1  0  0  3  0  0  0  0  0  0
  161.6730  205.3020  143.7550 C   0  0  0  0  0  1  0  0  0  0  0  0
  160.4850  206.2460  145.7040 C   0  0  0  0  0  0  0  0  0  0  0  0
  159.3290  205.8000  145.0780 O   0  0  0  0  0  0  0  0  0  0  0  0
  160.4000  206.9910  146.7170 O   0  0  0  0  0  1  0  0  0  0  0  0
  1 13  2  0  0  0  0
  2 18  2  0  0  0  0
  2  1  1  0  0  0  0
  4  1  1  0  0  0  0
  4  7  1  0  0  0  0
  5  8  1  0  0  0  0
  6  3  2  0  0  0  0
  7 14  1  0  0  0  0
  8  7  2  0  0  0  0
  9 10  2  0  0  0  0
  9 18  1  0  0  0  0
 11  2  1  0  0  0  0
 12 16  1  0  0  0  0
 12  5  2  0  0  0  0
 13  3  1  0  0  0  0
 13 14  1  0  0  0  0
 15  9  1  0  0  0  0
 16  4  2  0  0  0  0
 17 15  2  0  0  0  0
 17 11  1  0  0  0  0
 18  6  1  0  0  0  0
 19 20  1  0  0  0  0
 19 17  1  0  0  0  0
 21 22  1  6  0  0  0
 21 23  1  0  0  0  0
 21 20  1  0  0  0  0
 23 25  1  0  0  0  0
 24 23  2  0  0  0  0
M  END
>  <MODEL>
5

>  <REMARK>
 VINA RESULT:      -8.6      3.426      6.556
  Name = 
  4 active torsions:
  status: ('A' for Active; 'I' for Inactive)
    1  A    between atoms: C_2  and  C_21
    2  A    between atoms: S_6  and  C_15
    3  A    between atoms: S_6  and  C_23
    4  A    between atoms: C_15  and  C_21
                            x       y       z     vdW  Elec       q    Type
                         _______ _______ _______ _____ _____    ______ ____

>  <TORSDO>
F 4

$$$$
=
 OpenBabel11052422123D

 25 28  0  0  1  0  0  0  0  0999 V2000
  161.3580  204.8070  148.4570 C   0  0  0  0  0  0  0  0  0  0  0  0
  161.3750  205.9940  149.2200 C   0  0  0  0  0  0  0  0  0  0  0  0
  161.8620  206.0540  146.4190 C   0  0  0  0  0  3  0  0  0  0  0  0
  161.1180  203.4890  148.8920 C   0  0  0  0  0  0  0  0  0  0  0  0
  160.7020  200.8010  149.3620 N   0  0  0  0  0  0  0  0  0  0  0  0
  161.8810  207.2350  147.1680 C   0  0  0  0  0  3  0  0  0  0  0  0
  161.1790  202.5630  147.8580 C   0  0  0  0  0  0  0  0  0  0  0  0
  160.9700  201.2080  148.0900 C   0  0  0  0  0  3  0  0  0  0  0  0
  161.6770  208.4550  149.3390 C   0  0  0  0  0  0  0  0  0  0  0  0
  161.8820  209.5640  148.7780 O   0  0  0  0  0  0  0  0  0  0  0  0
  161.0820  205.9770  150.7000 C   0  0  0  0  0  2  0  0  0  0  0  0
  160.6340  201.6830  150.4040 C   0  0  0  0  0  3  0  0  0  0  0  0
  161.6010  204.8610  147.0830 C   0  0  0  0  0  0  0  0  0  0  0  0
  161.5250  203.3220  146.3960 S   0  0  0  0  0  0  0  0  0  0  0  0
  161.4930  208.4050  150.7540 N   0  0  0  0  0  0  0  0  0  0  0  0
  160.8410  203.0560  150.1920 C   0  0  0  0  0  3  0  0  0  0  0  0
  161.2460  207.3030  151.3980 C   0  0  0  0  0  0  0  0  0  0  0  0
  161.6400  207.2130  148.5550 C   0  0  0  0  0  0  0  0  0  0  0  0
  161.0370  207.3620  153.1700 S   0  0  0  0  0  0  0  0  0  0  0  0
  161.4040  209.1430  153.2290 C   0  0  0  0  0  2  0  0  0  0  0  0
  160.5450  209.8270  154.2790 C   0  0  1  0  0  3  0  0  0  0  0  0
  161.3740  210.1740  155.5030 C   0  0  0  0  0  1  0  0  0  0  0  0
  159.9200  211.0590  153.7130 C   0  0  0  0  0  0  0  0  0  0  0  0
  159.0050  210.9480  152.6750 O   0  0  0  0  0  0  0  0  0  0  0  0
  160.2130  212.1970  154.1690 O   0  0  0  0  0  1  0  0  0  0  0  0
  1  4  1  0  0  0  0
  1  2  2  0  0  0  0
  2 11  1  0  0  0  0
  3 13  2  0  0  0  0
  3  6  1  0  0  0  0
  4 16  1  0  0  0  0
  5 12  1  0  0  0  0
  6 18  2  0  0  0  0
  7  8  1  0  0  0  0
  7  4  2  0  0  0  0
  8  5  2  0  0  0  0
  9 15  1  0  0  0  0
 10  9  2  0  0  0  0
 11 17  1  0  0  0  0
 13  1  1  0  0  0  0
 14 13  1  0  0  0  0
 14  7  1  0  0  0  0
 15 17  2  0  0  0  0
 16 12  2  0  0  0  0
 17 19  1  0  0  0  0
 18  2  1  0  0  0  0
 18  9  1  0  0  0  0
 19 20  1  0  0  0  0
 20 21  1  0  0  0  0
 21 22  1  1  0  0  0
 23 25  1  0  0  0  0
 23 21  1  0  0  0  0
 24 23  2  0  0  0  0
M  END
>  <MODEL>
6

>  <REMARK>
 VINA RESULT:      -8.5      2.351      3.651
  Name = 
  4 active torsions:
  status: ('A' for Active; 'I' for Inactive)
    1  A    between atoms: C_2  and  C_21
    2  A    between atoms: S_6  and  C_15
    3  A    between atoms: S_6  and  C_23
    4  A    between atoms: C_15  and  C_21
                            x       y       z     vdW  Elec       q    Type
                         _______ _______ _______ _____ _____    ______ ____

>  <TORSDO>
F 4

$$$$
=
 OpenBabel11052422123D

 25 28  0  0  1  0  0  0  0  0999 V2000
  161.3830  207.8810  151.4620 C   0  0  0  0  0  0  0  0  0  0  0  0
  161.4040  206.8340  150.5160 C   0  0  0  0  0  0  0  0  0  0  0  0
  161.9140  209.5180  149.7310 C   0  0  0  0  0  3  0  0  0  0  0  0
  161.1310  207.8070  152.8460 C   0  0  0  0  0  0  0  0  0  0  0  0
  160.6890  208.0590  155.5600 N   0  0  0  0  0  0  0  0  0  0  0  0
  161.9370  208.4860  148.7870 C   0  0  0  0  0  3  0  0  0  0  0  0
  161.1940  209.0470  153.4700 C   0  0  0  0  0  0  0  0  0  0  0  0
  160.9730  209.1790  154.8360 C   0  0  0  0  0  3  0  0  0  0  0  0
  161.6960  206.0770  148.1700 C   0  0  0  0  0  0  0  0  0  0  0  0
  161.9700  206.3190  146.9650 O   0  0  0  0  0  0  0  0  0  0  0  0
  161.1700  205.4020  150.9300 C   0  0  0  0  0  2  0  0  0  0  0  0
  160.6190  206.8240  154.9790 C   0  0  0  0  0  3  0  0  0  0  0  0
  161.6360  209.1920  151.0530 C   0  0  0  0  0  0  0  0  0  0  0  0
  161.5560  210.2580  152.3580 S   0  0  0  0  0  0  0  0  0  0  0  0
  161.3760  204.7420  148.5650 N   0  0  0  0  0  0  0  0  0  0  0  0
  160.8390  206.6670  153.6020 C   0  0  0  0  0  3  0  0  0  0  0  0
  161.1140  204.4110  149.7950 C   0  0  0  0  0  0  0  0  0  0  0  0
  161.6850  207.1540  149.1690 C   0  0  0  0  0  0  0  0  0  0  0  0
  160.7240  202.7090  150.1700 S   0  0  0  0  0  0  0  0  0  0  0  0
  160.1330  202.3940  148.4790 C   0  0  0  0  0  2  0  0  0  0  0  0
  161.2490  201.8130  147.6270 C   0  0  1  0  0  3  0  0  0  0  0  0
  161.4120  200.3280  147.9020 C   0  0  0  0  0  1  0  0  0  0  0  0
  160.9680  202.0420  146.1790 C   0  0  0  0  0  0  0  0  0  0  0  0
  160.2950  201.0710  145.4500 O   0  0  0  0  0  0  0  0  0  0  0  0
  161.3340  203.1060  145.6130 O   0  0  0  0  0  1  0  0  0  0  0  0
  1  4  1  0  0  0  0
  2 11  1  0  0  0  0
  2  1  1  0  0  0  0
  3 13  1  0  0  0  0
  4  7  2  0  0  0  0
  4 16  1  0  0  0  0
  6 18  1  0  0  0  0
  6  3  2  0  0  0  0
  7  8  1  0  0  0  0
  8  5  2  0  0  0  0
  9 15  1  0  0  0  0
  9 18  1  0  0  0  0
 10  9  2  0  0  0  0
 12  5  1  0  0  0  0
 13  1  2  0  0  0  0
 13 14  1  0  0  0  0
 14  7  1  0  0  0  0
 15 17  2  0  0  0  0
 16 12  2  0  0  0  0
 17 19  1  0  0  0  0
 17 11  1  0  0  0  0
 18  2  2  0  0  0  0
 20 19  1  0  0  0  0
 21 22  1  6  0  0  0
 21 20  1  0  0  0  0
 23 21  1  0  0  0  0
 24 23  2  0  0  0  0
 25 23  1  0  0  0  0
M  END
>  <MODEL>
7

>  <REMARK>
 VINA RESULT:      -8.4      3.425      8.203
  Name = 
  4 active torsions:
  status: ('A' for Active; 'I' for Inactive)
    1  A    between atoms: C_2  and  C_21
    2  A    between atoms: S_6  and  C_15
    3  A    between atoms: S_6  and  C_23
    4  A    between atoms: C_15  and  C_21
                            x       y       z     vdW  Elec       q    Type
                         _______ _______ _______ _____ _____    ______ ____

>  <TORSDO>
F 4

$$$$
=
 OpenBabel11052422123D

 25 28  0  0  1  0  0  0  0  0999 V2000
  161.1870  208.7160  153.1010 C   0  0  0  0  0  0  0  0  0  0  0  0
  161.3570  207.8690  151.9860 C   0  0  0  0  0  0  0  0  0  0  0  0
  161.7570  210.6750  151.7610 C   0  0  0  0  0  3  0  0  0  0  0  0
  160.8220  208.3690  154.4170 C   0  0  0  0  0  0  0  0  0  0  0  0
  160.1320  208.0820  157.0750 N   0  0  0  0  0  0  0  0  0  0  0  0
  161.9280  209.8430  150.6500 C   0  0  0  0  0  3  0  0  0  0  0  0
  160.7490  209.4700  155.2620 C   0  0  0  0  0  0  0  0  0  0  0  0
  160.4030  209.3300  156.6010 C   0  0  0  0  0  3  0  0  0  0  0  0
  161.8980  207.5860  149.5800 C   0  0  0  0  0  0  0  0  0  0  0  0
  162.2590  208.0650  148.4720 O   0  0  0  0  0  0  0  0  0  0  0  0
  161.1820  206.3750  152.1040 C   0  0  0  0  0  2  0  0  0  0  0  0
  160.1930  206.9760  156.2730 C   0  0  0  0  0  3  0  0  0  0  0  0
  161.3880  210.0910  152.9670 C   0  0  0  0  0  0  0  0  0  0  0  0
  161.1260  210.8850  154.4330 S   0  0  0  0  0  0  0  0  0  0  0  0
  161.6340  206.1860  149.6890 N   0  0  0  0  0  0  0  0  0  0  0  0
  160.5410  207.0950  154.9180 C   0  0  0  0  0  3  0  0  0  0  0  0
  161.2890  205.6160  150.8060 C   0  0  0  0  0  0  0  0  0  0  0  0
  161.7320  208.4520  150.7540 C   0  0  0  0  0  0  0  0  0  0  0  0
  160.9800  203.8570  150.8220 S   0  0  0  0  0  0  0  0  0  0  0  0
  160.8730  203.7840  149.0070 C   0  0  0  0  0  2  0  0  0  0  0  0
  161.2000  202.3850  148.5130 C   0  0  1  0  0  3  0  0  0  0  0  0
  160.2500  201.3690  149.1230 C   0  0  0  0  0  1  0  0  0  0  0  0
  161.1240  202.3320  147.0230 C   0  0  0  0  0  0  0  0  0  0  0  0
  161.4100  203.4700  146.2810 O   0  0  0  0  0  0  0  0  0  0  0  0
  160.8040  201.2660  146.4330 O   0  0  0  0  0  1  0  0  0  0  0  0
  1  4  1  0  0  0  0
  2 11  1  0  0  0  0
  2  1  1  0  0  0  0
  3 13  1  0  0  0  0
  4 16  2  0  0  0  0
  4  7  1  0  0  0  0
  6 18  1  0  0  0  0
  6  3  2  0  0  0  0
  7  8  2  0  0  0  0
  8  5  1  0  0  0  0
  9 15  1  0  0  0  0
  9 18  1  0  0  0  0
 10  9  2  0  0  0  0
 12  5  2  0  0  0  0
 13  1  2  0  0  0  0
 13 14  1  0  0  0  0
 14  7  1  0  0  0  0
 15 17  2  0  0  0  0
 16 12  1  0  0  0  0
 17 19  1  0  0  0  0
 17 11  1  0  0  0  0
 18  2  2  0  0  0  0
 20 19  1  0  0  0  0
 21 20  1  0  0  0  0
 21 22  1  1  0  0  0
 23 21  1  0  0  0  0
 24 23  2  0  0  0  0
 25 23  1  0  0  0  0
M  END
>  <MODEL>
8

>  <REMARK>
 VINA RESULT:      -8.4      3.367      8.408
  Name = 
  4 active torsions:
  status: ('A' for Active; 'I' for Inactive)
    1  A    between atoms: C_2  and  C_21
    2  A    between atoms: S_6  and  C_15
    3  A    between atoms: S_6  and  C_23
    4  A    between atoms: C_15  and  C_21
                            x       y       z     vdW  Elec       q    Type
                         _______ _______ _______ _____ _____    ______ ____

>  <TORSDO>
F 4

$$$$
=
 OpenBabel11052422123D

 25 28  0  0  1  0  0  0  0  0999 V2000
  161.0820  203.4350  148.1490 C   0  0  0  0  0  0  0  0  0  0  0  0
  161.0810  203.7470  149.5240 C   0  0  0  0  0  0  0  0  0  0  0  0
  160.8120  201.0590  148.6390 C   0  0  0  0  0  3  0  0  0  0  0  0
  161.2060  204.3100  147.0510 C   0  0  0  0  0  0  0  0  0  0  0  0
  161.4160  205.6960  144.6730 N   0  0  0  0  0  0  0  0  0  0  0  0
  160.8110  201.3590  150.0060 C   0  0  0  0  0  3  0  0  0  0  0  0
  161.1650  203.6480  145.8290 C   0  0  0  0  0  0  0  0  0  0  0  0
  161.2710  204.3420  144.6300 C   0  0  0  0  0  3  0  0  0  0  0  0
  160.9250  202.9990  151.8860 C   0  0  0  0  0  0  0  0  0  0  0  0
  160.8330  202.0800  152.7430 O   0  0  0  0  0  0  0  0  0  0  0  0
  161.2590  205.1660  150.0040 C   0  0  0  0  0  2  0  0  0  0  0  0
  161.4590  206.3800  145.8560 C   0  0  0  0  0  3  0  0  0  0  0  0
  160.9480  202.1070  147.7370 C   0  0  0  0  0  0  0  0  0  0  0  0
  160.9790  201.9900  146.0540 S   0  0  0  0  0  0  0  0  0  0  0  0
  160.9980  204.3590  152.3170 N   0  0  0  0  0  0  0  0  0  0  0  0
  161.3550  205.6990  147.0790 C   0  0  0  0  0  3  0  0  0  0  0  0
  161.1260  205.3570  151.4940 C   0  0  0  0  0  0  0  0  0  0  0  0
  160.9430  202.6890  150.4510 C   0  0  0  0  0  0  0  0  0  0  0  0
  161.2030  207.0170  152.1480 S   0  0  0  0  0  0  0  0  0  0  0  0
  162.1450  207.6190  150.7140 C   0  0  0  0  0  2  0  0  0  0  0  0
  161.7340  209.0410  150.3690 C   0  0  1  0  0  3  0  0  0  0  0  0
  162.3330  210.0240  151.3600 C   0  0  0  0  0  1  0  0  0  0  0  0
  162.1640  209.3810  148.9800 C   0  0  0  0  0  0  0  0  0  0  0  0
  161.9650  210.6670  148.4970 O   0  0  0  0  0  1  0  0  0  0  0  0
  162.7060  208.5140  148.2440 O   0  0  0  0  0  0  0  0  0  0  0  0
  1  2  2  0  0  0  0
  2 11  1  0  0  0  0
  2 18  1  0  0  0  0
  3  6  1  0  0  0  0
  4 16  1  0  0  0  0
  4  1  1  0  0  0  0
  5 12  1  0  0  0  0
  6 18  2  0  0  0  0
  7 14  1  0  0  0  0
  7  4  2  0  0  0  0
  8  5  2  0  0  0  0
  8  7  1  0  0  0  0
  9 15  1  0  0  0  0
  9 10  2  0  0  0  0
 11 17  1  0  0  0  0
 12 16  2  0  0  0  0
 13  1  1  0  0  0  0
 13  3  2  0  0  0  0
 14 13  1  0  0  0  0
 17 19  1  0  0  0  0
 17 15  2  0  0  0  0
 18  9  1  0  0  0  0
 20 19  1  0  0  0  0
 21 20  1  0  0  0  0
 21 22  1  1  0  0  0
 23 21  1  0  0  0  0
 24 23  1  0  0  0  0
 25 23  2  0  0  0  0
M  END
>  <MODEL>
9

>  <REMARK>
 VINA RESULT:      -8.3      2.551      3.093
  Name = 
  4 active torsions:
  status: ('A' for Active; 'I' for Inactive)
    1  A    between atoms: C_2  and  C_21
    2  A    between atoms: S_6  and  C_15
    3  A    between atoms: S_6  and  C_23
    4  A    between atoms: C_15  and  C_21
                            x       y       z     vdW  Elec       q    Type
                         _______ _______ _______ _____ _____    ______ ____

>  <TORSDO>
F 4

$$$$
