=
 OpenBabel11062410353D

 43 47  0  0  1  0  0  0  0  0999 V2000
  161.3140  207.5800  151.8670 C   0  0  1  0  0  3  0  0  0  0  0  0
  161.3360  210.6370  156.0190 C   0  0  0  0  0  0  0  0  0  0  0  0
  161.3630  208.3890  155.2010 C   0  0  0  0  0  0  0  0  0  0  0  0
  160.7050  211.0480  154.8250 C   0  0  0  0  0  3  0  0  0  0  0  0
  161.6990  211.8150  157.2590 Cl  0  0  0  0  0  0  0  0  0  0  0  0
  160.7710  208.7850  154.0370 C   0  0  0  0  0  0  0  0  0  0  0  0
  161.6680  209.2860  156.2210 C   0  0  0  0  0  3  0  0  0  0  0  0
  160.4080  210.1130  153.8160 C   0  0  0  0  0  3  0  0  0  0  0  0
  160.5750  207.5580  153.2140 C   0  0  2  0  0  3  0  0  0  0  0  0
  161.1460  206.5220  154.0850 N   0  0  0  0  0  0  0  0  0  0  0  0
  161.5810  206.9930  155.1880 N   0  0  0  0  0  0  0  0  0  0  0  0
  160.7570  205.5740  150.4390 N   0  0  0  0  0  2  0  0  0  0  0  0
  161.6920  206.2450  151.2880 C   0  0  0  0  0  0  0  0  0  0  0  0
  162.8080  205.7270  151.5620 O   0  0  0  0  0  0  0  0  0  0  0  0
  161.1880  202.6430  148.1340 C   0  0  0  0  0  0  0  0  0  0  0  0
  161.0920  201.5870  149.0440 C   0  0  0  0  0  0  0  0  0  0  0  0
  161.1860  200.3040  148.6140 F   0  0  0  0  0  0  0  0  0  0  0  0
  160.7760  203.1700  150.8480 C   0  0  0  0  0  3  0  0  0  0  0  0
  161.0760  203.9620  148.5820 C   0  0  0  0  0  3  0  0  0  0  0  0
  160.8640  204.2340  149.9420 C   0  0  0  0  0  0  0  0  0  0  0  0
  161.3910  202.3960  146.8170 F   0  0  0  0  0  0  0  0  0  0  0  0
  160.8860  201.8500  150.4010 C   0  0  0  0  0  3  0  0  0  0  0  0
  160.9420  208.6020  150.9580 O   0  0  0  0  0  0  0  0  0  0  0  0
  162.0390  208.9550  150.1470 C   0  0  1  0  0  3  0  0  0  0  0  0
  161.8150  208.4590  148.7290 C   0  0  0  0  0  1  0  0  0  0  0  0
  162.2350  210.4720  150.1230 C   0  0  2  0  0  3  0  0  0  0  0  0
  161.1670  211.1770  150.9400 C   0  0  0  0  0  1  0  0  0  0  0  0
  162.2340  210.9710  148.7720 N   0  0  0  0  0  0  0  0  0  0  0  0
  162.0740  212.1860  148.5520 N   0  0  0  0  0  0  0  0  0  0  0  0
  162.0840  212.6850  147.2020 C   0  0  0  0  0  2  0  0  0  0  0  0
  160.7360  213.2150  146.8260 C   0  0  0  0  0  0  0  0  0  0  0  0
  159.2520  214.4520  145.3530 C   0  0  0  0  0  3  0  0  0  0  0  0
  159.6710  213.0090  147.7080 C   0  0  0  0  0  3  0  0  0  0  0  0
  158.4030  213.5210  147.4160 C   0  0  0  0  0  3  0  0  0  0  0  0
  160.5240  213.9270  145.6280 C   0  0  0  0  0  0  0  0  0  0  0  0
  158.1960  214.2460  146.2410 C   0  0  0  0  0  3  0  0  0  0  0  0
  161.6460  214.1600  144.6580 C   0  0  0  0  0  2  0  0  0  0  0  0
  161.5730  213.2320  143.4870 C   0  0  0  0  0  0  0  0  0  0  0  0
  161.4560  211.5160  141.2790 C   0  0  0  0  0  3  0  0  0  0  0  0
  160.4730  211.4480  142.2690 C   0  0  0  0  0  3  0  0  0  0  0  0
  162.4990  212.4400  141.3920 C   0  0  0  0  0  3  0  0  0  0  0  0
  160.5320  212.3020  143.3740 C   0  0  0  0  0  3  0  0  0  0  0  0
  162.5570  213.2970  142.4940 C   0  0  0  0  0  3  0  0  0  0  0  0
  1 23  1  6  0  0  0
  2  7  1  0  0  0  0
  2  5  1  0  0  0  0
  3  7  2  0  0  0  0
  4  2  2  0  0  0  0
  6  3  1  0  0  0  0
  8  6  2  0  0  0  0
  8  4  1  0  0  0  0
  9  1  1  6  0  0  0
  9  6  1  0  0  0  0
  9 10  1  0  0  0  0
 10 11  2  0  0  0  0
 11  3  1  0  0  0  0
 12 13  1  0  0  0  0
 13 14  2  0  0  0  0
 13  1  1  0  0  0  0
 15 19  2  0  0  0  0
 15 16  1  0  0  0  0
 16 22  2  0  0  0  0
 17 16  1  0  0  0  0
 19 20  1  0  0  0  0
 20 12  1  0  0  0  0
 20 18  2  0  0  0  0
 21 15  1  0  0  0  0
 22 18  1  0  0  0  0
 24 25  1  6  0  0  0
 24 23  1  0  0  0  0
 26 24  1  0  0  0  0
 26 27  1  1  0  0  0
 28 26  1  0  0  0  0
 29 28  2  0  0  0  0
 30 29  1  0  0  0  0
 31 30  1  0  0  0  0
 31 33  1  0  0  0  0
 32 35  1  0  0  0  0
 32 36  2  0  0  0  0
 34 33  2  0  0  0  0
 35 31  2  0  0  0  0
 36 34  1  0  0  0  0
 37 35  1  0  0  0  0
 38 37  1  0  0  0  0
 39 41  2  0  0  0  0
 39 40  1  0  0  0  0
 40 42  2  0  0  0  0
 41 43  1  0  0  0  0
 42 38  1  0  0  0  0
 43 38  2  0  0  0  0
M  END
>  <MODEL>
1

>  <REMARK>
 VINA RESULT:      -8.3      0.000      0.000
  Name = 
  11 active torsions:
  status: ('A' for Active; 'I' for Inactive)
    1  A    between atoms: N_1  and  C_35
    2  A    between atoms: C_2  and  N_6
    3  A    between atoms: C_2  and  C_13
    4  A    between atoms: C_3  and  C_4
    5  A    between atoms: C_3  and  N_12
    6  A    between atoms: C_8  and  O_27
    7  A    between atoms: C_8  and  C_30
    8  A    between atoms: C_8  and  C_34
    9  A    between atoms: C_11  and  C_14
   10  A    between atoms: C_13  and  O_27
   11  A    between atoms: C_14  and  C_41
                            x       y       z     vdW  Elec       q    Type
                         _______ _______ _______ _____ _____    ______ ____

>  <TORSDO>
F 11

$$$$
=
 OpenBabel11062410353D

 43 47  0  0  1  0  0  0  0  0999 V2000
  160.7960  212.1440  150.9610 C   0  0  1  0  0  3  0  0  0  0  0  0
  157.8300  213.2730  146.8980 C   0  0  0  0  0  0  0  0  0  0  0  0
  160.0340  212.7540  147.6730 C   0  0  0  0  0  0  0  0  0  0  0  0
  157.5110  213.7650  148.1820 C   0  0  0  0  0  3  0  0  0  0  0  0
  156.6260  213.3060  145.6310 Cl  0  0  0  0  0  0  0  0  0  0  0  0
  159.7230  213.2100  148.9210 C   0  0  0  0  0  0  0  0  0  0  0  0
  159.1120  212.7630  146.6280 C   0  0  0  0  0  3  0  0  0  0  0  0
  158.4680  213.7440  149.2120 C   0  0  0  0  0  3  0  0  0  0  0  0
  160.9550  213.0730  149.7490 C   0  0  2  0  0  3  0  0  0  0  0  0
  161.8960  212.4870  148.7850 N   0  0  0  0  0  0  0  0  0  0  0  0
  161.3750  212.3130  147.6330 N   0  0  0  0  0  0  0  0  0  0  0  0
  159.1320  211.6430  152.7940 N   0  0  0  0  0  2  0  0  0  0  0  0
  159.8710  212.6150  152.0490 C   0  0  0  0  0  0  0  0  0  0  0  0
  159.7440  213.8470  152.2860 O   0  0  0  0  0  0  0  0  0  0  0  0
  156.0140  212.9980  154.3830 C   0  0  0  0  0  0  0  0  0  0  0  0
  156.0540  212.3470  155.6200 C   0  0  0  0  0  0  0  0  0  0  0  0
  155.0840  212.5690  156.5400 F   0  0  0  0  0  0  0  0  0  0  0  0
  158.1140  211.2510  154.9740 C   0  0  0  0  0  3  0  0  0  0  0  0
  157.0260  212.7760  153.4450 C   0  0  0  0  0  3  0  0  0  0  0  0
  158.0860  211.9040  153.7360 C   0  0  0  0  0  0  0  0  0  0  0  0
  154.9970  213.8440  154.0880 F   0  0  0  0  0  0  0  0  0  0  0  0
  157.1040  211.4740  155.9150 C   0  0  0  0  0  3  0  0  0  0  0  0
  160.8390  210.7510  150.7020 O   0  0  0  0  0  0  0  0  0  0  0  0
  162.0810  210.2200  151.0990 C   0  0  1  0  0  3  0  0  0  0  0  0
  162.1300  210.0940  152.6120 C   0  0  0  0  0  1  0  0  0  0  0  0
  162.3120  208.8430  150.4740 C   0  0  2  0  0  3  0  0  0  0  0  0
  162.0140  208.8580  148.9860 C   0  0  0  0  0  1  0  0  0  0  0  0
  161.5130  207.8390  151.1290 N   0  0  0  0  0  0  0  0  0  0  0  0
  161.8710  206.6460  151.1170 N   0  0  0  0  0  0  0  0  0  0  0  0
  161.0770  205.6450  151.7790 C   0  0  0  0  0  2  0  0  0  0  0  0
  161.0520  204.3790  150.9820 C   0  0  0  0  0  0  0  0  0  0  0  0
  160.7420  203.1570  148.9050 C   0  0  0  0  0  3  0  0  0  0  0  0
  161.2550  203.1680  151.6510 C   0  0  0  0  0  3  0  0  0  0  0  0
  161.2010  201.9580  150.9530 C   0  0  0  0  0  3  0  0  0  0  0  0
  160.8110  204.3780  149.5930 C   0  0  0  0  0  0  0  0  0  0  0  0
  160.9400  201.9530  149.5810 C   0  0  0  0  0  3  0  0  0  0  0  0
  160.5950  205.6620  148.8450 C   0  0  0  0  0  2  0  0  0  0  0  0
  161.0970  205.5800  147.4390 C   0  0  0  0  0  0  0  0  0  0  0  0
  162.0040  205.4270  144.7950 C   0  0  0  0  0  3  0  0  0  0  0  0
  162.7880  204.9180  145.8330 C   0  0  0  0  0  3  0  0  0  0  0  0
  160.7670  206.0130  145.0770 C   0  0  0  0  0  3  0  0  0  0  0  0
  162.3380  204.9970  147.1530 C   0  0  0  0  0  3  0  0  0  0  0  0
  160.3140  206.0890  146.3960 C   0  0  0  0  0  3  0  0  0  0  0  0
  1 23  1  6  0  0  0
  1 13  1  0  0  0  0
  2  4  1  0  0  0  0
  3  6  2  0  0  0  0
  4  8  2  0  0  0  0
  5  2  1  0  0  0  0
  6  8  1  0  0  0  0
  6  9  1  0  0  0  0
  7  2  2  0  0  0  0
  7  3  1  0  0  0  0
  9  1  1  1  0  0  0
 10  9  1  0  0  0  0
 11  3  1  0  0  0  0
 11 10  2  0  0  0  0
 12 20  1  0  0  0  0
 13 14  2  0  0  0  0
 13 12  1  0  0  0  0
 15 16  1  0  0  0  0
 16 22  2  0  0  0  0
 16 17  1  0  0  0  0
 18 22  1  0  0  0  0
 19 20  1  0  0  0  0
 19 15  2  0  0  0  0
 20 18  2  0  0  0  0
 21 15  1  0  0  0  0
 23 24  1  0  0  0  0
 24 25  1  1  0  0  0
 26 27  1  6  0  0  0
 26 24  1  0  0  0  0
 26 28  1  0  0  0  0
 29 28  2  0  0  0  0
 29 30  1  0  0  0  0
 31 33  1  0  0  0  0
 31 30  1  0  0  0  0
 32 36  2  0  0  0  0
 32 35  1  0  0  0  0
 34 33  2  0  0  0  0
 35 31  2  0  0  0  0
 36 34  1  0  0  0  0
 37 35  1  0  0  0  0
 38 37  1  0  0  0  0
 39 41  2  0  0  0  0
 39 40  1  0  0  0  0
 40 42  2  0  0  0  0
 41 43  1  0  0  0  0
 42 38  1  0  0  0  0
 43 38  2  0  0  0  0
M  END
>  <MODEL>
2

>  <REMARK>
 VINA RESULT:      -7.9      4.723      9.227
  Name = 
  11 active torsions:
  status: ('A' for Active; 'I' for Inactive)
    1  A    between atoms: N_1  and  C_35
    2  A    between atoms: C_2  and  N_6
    3  A    between atoms: C_2  and  C_13
    4  A    between atoms: C_3  and  C_4
    5  A    between atoms: C_3  and  N_12
    6  A    between atoms: C_8  and  O_27
    7  A    between atoms: C_8  and  C_30
    8  A    between atoms: C_8  and  C_34
    9  A    between atoms: C_11  and  C_14
   10  A    between atoms: C_13  and  O_27
   11  A    between atoms: C_14  and  C_41
                            x       y       z     vdW  Elec       q    Type
                         _______ _______ _______ _____ _____    ______ ____

>  <TORSDO>
F 11

$$$$
=
 OpenBabel11062410353D

 43 47  0  0  1  0  0  0  0  0999 V2000
  160.8690  208.9670  153.6430 C   0  0  1  0  0  3  0  0  0  0  0  0
  158.5610  212.5140  156.5890 C   0  0  0  0  0  0  0  0  0  0  0  0
  160.5550  211.2560  156.1780 C   0  0  0  0  0  0  0  0  0  0  0  0
  157.8090  211.4950  155.9640 C   0  0  0  0  0  3  0  0  0  0  0  0
  157.7500  213.9250  157.2270 Cl  0  0  0  0  0  0  0  0  0  0  0  0
  159.8340  210.2800  155.5560 C   0  0  0  0  0  0  0  0  0  0  0  0
  159.9570  212.3970  156.7080 C   0  0  0  0  0  3  0  0  0  0  0  0
  158.4460  210.3540  155.4430 C   0  0  0  0  0  3  0  0  0  0  0  0
  160.8010  209.2180  155.1570 C   0  0  2  0  0  3  0  0  0  0  0  0
  162.0720  209.7820  155.6320 N   0  0  0  0  0  0  0  0  0  0  0  0
  161.9260  210.9150  156.1980 N   0  0  0  0  0  0  0  0  0  0  0  0
  161.1920  207.2450  151.8250 N   0  0  0  0  0  2  0  0  0  0  0  0
  160.9450  207.5310  153.2050 C   0  0  0  0  0  0  0  0  0  0  0  0
  160.7810  206.6020  154.0410 O   0  0  0  0  0  0  0  0  0  0  0  0
  161.1730  203.5310  151.2790 C   0  0  0  0  0  0  0  0  0  0  0  0
  160.9570  203.4780  149.8990 C   0  0  0  0  0  0  0  0  0  0  0  0
  160.8900  202.2810  149.2640 F   0  0  0  0  0  0  0  0  0  0  0  0
  160.9030  205.8970  149.8150 C   0  0  0  0  0  3  0  0  0  0  0  0
  161.2560  204.7680  151.9240 C   0  0  0  0  0  3  0  0  0  0  0  0
  161.1250  205.9600  151.1950 C   0  0  0  0  0  0  0  0  0  0  0  0
  161.3010  202.3890  151.9960 F   0  0  0  0  0  0  0  0  0  0  0  0
  160.8220  204.6600  149.1670 C   0  0  0  0  0  3  0  0  0  0  0  0
  160.1380  209.8600  152.8200 O   0  0  0  0  0  0  0  0  0  0  0  0
  160.9770  210.8940  152.3600 C   0  0  1  0  0  3  0  0  0  0  0  0
  161.6340  210.4840  151.0530 C   0  0  0  0  0  1  0  0  0  0  0  0
  160.1830  212.1830  152.1380 C   0  0  2  0  0  3  0  0  0  0  0  0
  158.6950  211.9540  152.3370 C   0  0  0  0  0  1  0  0  0  0  0  0
  160.4290  212.7230  150.8250 N   0  0  0  0  0  0  0  0  0  0  0  0
  159.7360  213.6620  150.3930 N   0  0  0  0  0  0  0  0  0  0  0  0
  159.9900  214.2060  149.0850 C   0  0  0  0  0  2  0  0  0  0  0  0
  158.8860  213.8460  148.1400 C   0  0  0  0  0  0  0  0  0  0  0  0
  158.0340  212.7040  146.1720 C   0  0  0  0  0  3  0  0  0  0  0  0
  157.6280  214.4240  148.3350 C   0  0  0  0  0  3  0  0  0  0  0  0
  156.5790  214.1460  147.4550 C   0  0  0  0  0  3  0  0  0  0  0  0
  159.0890  212.9630  147.0610 C   0  0  0  0  0  0  0  0  0  0  0  0
  156.7840  213.2900  146.3710 C   0  0  0  0  0  3  0  0  0  0  0  0
  160.4270  212.3210  146.8270 C   0  0  0  0  0  2  0  0  0  0  0  0
  161.1520  212.9440  145.6780 C   0  0  0  0  0  0  0  0  0  0  0  0
  162.5180  214.1360  143.5450 C   0  0  0  0  0  3  0  0  0  0  0  0
  161.4920  213.2230  143.2930 C   0  0  0  0  0  3  0  0  0  0  0  0
  162.8640  214.4530  144.8620 C   0  0  0  0  0  3  0  0  0  0  0  0
  160.8110  212.6240  144.3570 C   0  0  0  0  0  3  0  0  0  0  0  0
  162.1810  213.8580  145.9260 C   0  0  0  0  0  3  0  0  0  0  0  0
  1 23  1  6  0  0  0
  2  7  1  0  0  0  0
  2  5  1  0  0  0  0
  3 11  1  0  0  0  0
  3  7  2  0  0  0  0
  4  2  2  0  0  0  0
  6  3  1  0  0  0  0
  8  6  2  0  0  0  0
  8  4  1  0  0  0  0
  9  1  1  6  0  0  0
  9  6  1  0  0  0  0
  9 10  1  0  0  0  0
 10 11  2  0  0  0  0
 12 13  1  0  0  0  0
 13  1  1  0  0  0  0
 13 14  2  0  0  0  0
 15 19  1  0  0  0  0
 15 21  1  0  0  0  0
 16 15  2  0  0  0  0
 17 16  1  0  0  0  0
 18 20  1  0  0  0  0
 20 12  1  0  0  0  0
 20 19  2  0  0  0  0
 22 18  2  0  0  0  0
 22 16  1  0  0  0  0
 24 25  1  6  0  0  0
 24 23  1  0  0  0  0
 26 27  1  6  0  0  0
 26 24  1  0  0  0  0
 28 26  1  0  0  0  0
 29 28  2  0  0  0  0
 30 29  1  0  0  0  0
 31 33  1  0  0  0  0
 31 30  1  0  0  0  0
 32 36  2  0  0  0  0
 32 35  1  0  0  0  0
 34 33  2  0  0  0  0
 35 31  2  0  0  0  0
 36 34  1  0  0  0  0
 37 35  1  0  0  0  0
 38 43  1  0  0  0  0
 38 37  1  0  0  0  0
 39 41  1  0  0  0  0
 40 39  2  0  0  0  0
 40 42  1  0  0  0  0
 41 43  2  0  0  0  0
 42 38  2  0  0  0  0
M  END
>  <MODEL>
3

>  <REMARK>
 VINA RESULT:      -7.8      2.096      3.008
  Name = 
  11 active torsions:
  status: ('A' for Active; 'I' for Inactive)
    1  A    between atoms: N_1  and  C_35
    2  A    between atoms: C_2  and  N_6
    3  A    between atoms: C_2  and  C_13
    4  A    between atoms: C_3  and  C_4
    5  A    between atoms: C_3  and  N_12
    6  A    between atoms: C_8  and  O_27
    7  A    between atoms: C_8  and  C_30
    8  A    between atoms: C_8  and  C_34
    9  A    between atoms: C_11  and  C_14
   10  A    between atoms: C_13  and  O_27
   11  A    between atoms: C_14  and  C_41
                            x       y       z     vdW  Elec       q    Type
                         _______ _______ _______ _____ _____    ______ ____

>  <TORSDO>
F 11

$$$$
=
 OpenBabel11062410353D

 43 47  0  0  1  0  0  0  0  0999 V2000
  160.3100  213.4560  147.5830 C   0  0  1  0  0  3  0  0  0  0  0  0
  157.7890  213.7040  152.0730 C   0  0  0  0  0  0  0  0  0  0  0  0
  157.6420  213.8960  149.6920 C   0  0  0  0  0  0  0  0  0  0  0  0
  159.1610  214.0250  151.9980 C   0  0  0  0  0  3  0  0  0  0  0  0
  157.0530  213.3900  153.6270 Cl  0  0  0  0  0  0  0  0  0  0  0  0
  158.9720  214.1870  149.6140 C   0  0  0  0  0  0  0  0  0  0  0  0
  157.0070  213.6430  150.9060 C   0  0  0  0  0  3  0  0  0  0  0  0
  159.7690  214.2790  150.7550 C   0  0  0  0  0  3  0  0  0  0  0  0
  159.2770  214.4260  148.1750 C   0  0  2  0  0  3  0  0  0  0  0  0
  157.9650  214.2060  147.5530 N   0  0  0  0  0  0  0  0  0  0  0  0
  157.0610  213.9110  148.4040 N   0  0  0  0  0  0  0  0  0  0  0  0
  159.8260  212.8910  145.1700 N   0  0  0  0  0  2  0  0  0  0  0  0
  160.6160  213.6130  146.1190 C   0  0  0  0  0  0  0  0  0  0  0  0
  161.5600  214.3590  145.7440 O   0  0  0  0  0  0  0  0  0  0  0  0
  161.4950  212.1790  141.8850 C   0  0  0  0  0  0  0  0  0  0  0  0
  160.4820  212.5540  140.9970 C   0  0  0  0  0  0  0  0  0  0  0  0
  160.6790  212.4630  139.6590 F   0  0  0  0  0  0  0  0  0  0  0  0
  159.0630  213.1430  142.8680 C   0  0  0  0  0  3  0  0  0  0  0  0
  161.2910  212.2890  143.2630 C   0  0  0  0  0  3  0  0  0  0  0  0
  160.0750  212.7770  143.7640 C   0  0  0  0  0  0  0  0  0  0  0  0
  162.6760  211.7070  141.4150 F   0  0  0  0  0  0  0  0  0  0  0  0
  159.2670  213.0350  141.4890 C   0  0  0  0  0  3  0  0  0  0  0  0
  161.3780  213.0720  148.4330 O   0  0  0  0  0  0  0  0  0  0  0  0
  161.9240  211.8460  148.0050 C   0  0  1  0  0  3  0  0  0  0  0  0
  163.4320  211.9700  147.8690 C   0  0  0  0  0  1  0  0  0  0  0  0
  161.6000  210.7280  148.9980 C   0  0  2  0  0  3  0  0  0  0  0  0
  162.1550  211.0400  150.3760 C   0  0  0  0  0  1  0  0  0  0  0  0
  162.1090  209.4620  148.5350 N   0  0  0  0  0  0  0  0  0  0  0  0
  161.5970  208.3980  148.9290 N   0  0  0  0  0  0  0  0  0  0  0  0
  162.0990  207.1340  148.4580 C   0  0  0  0  0  2  0  0  0  0  0  0
  161.6090  206.0160  149.3240 C   0  0  0  0  0  0  0  0  0  0  0  0
  161.2950  204.9580  151.4880 C   0  0  0  0  0  3  0  0  0  0  0  0
  161.0490  204.8940  148.7070 C   0  0  0  0  0  3  0  0  0  0  0  0
  160.6140  203.8090  149.4740 C   0  0  0  0  0  3  0  0  0  0  0  0
  161.7190  206.0600  150.7290 C   0  0  0  0  0  0  0  0  0  0  0  0
  160.7420  203.8400  150.8640 C   0  0  0  0  0  3  0  0  0  0  0  0
  162.3110  207.2530  151.4220 C   0  0  0  0  0  2  0  0  0  0  0  0
  161.5680  207.5970  152.6730 C   0  0  0  0  0  0  0  0  0  0  0  0
  160.1690  208.2070  155.0200 C   0  0  0  0  0  3  0  0  0  0  0  0
  160.3760  209.1940  154.0530 C   0  0  0  0  0  3  0  0  0  0  0  0
  160.6620  206.9150  154.8160 C   0  0  0  0  0  3  0  0  0  0  0  0
  161.0760  208.8920  152.8830 C   0  0  0  0  0  3  0  0  0  0  0  0
  161.3600  206.6110  153.6440 C   0  0  0  0  0  3  0  0  0  0  0  0
  1 13  1  6  0  0  0
  1 23  1  0  0  0  0
  2  5  1  0  0  0  0
  3  7  1  0  0  0  0
  4  2  1  0  0  0  0
  6  3  2  0  0  0  0
  6  8  1  0  0  0  0
  7  2  2  0  0  0  0
  8  4  2  0  0  0  0
  9  1  1  6  0  0  0
  9  6  1  0  0  0  0
 10  9  1  0  0  0  0
 10 11  2  0  0  0  0
 11  3  1  0  0  0  0
 12 13  1  0  0  0  0
 14 13  2  0  0  0  0
 15 19  1  0  0  0  0
 16 22  1  0  0  0  0
 16 15  2  0  0  0  0
 17 16  1  0  0  0  0
 18 20  1  0  0  0  0
 19 20  2  0  0  0  0
 20 12  1  0  0  0  0
 21 15  1  0  0  0  0
 22 18  2  0  0  0  0
 24 25  1  1  0  0  0
 24 23  1  0  0  0  0
 24 26  1  0  0  0  0
 26 27  1  1  0  0  0
 28 29  2  0  0  0  0
 28 26  1  0  0  0  0
 30 29  1  0  0  0  0
 30 31  1  0  0  0  0
 31 35  1  0  0  0  0
 33 31  2  0  0  0  0
 33 34  1  0  0  0  0
 34 36  2  0  0  0  0
 35 37  1  0  0  0  0
 35 32  2  0  0  0  0
 36 32  1  0  0  0  0
 37 38  1  0  0  0  0
 38 42  2  0  0  0  0
 38 43  1  0  0  0  0
 40 39  2  0  0  0  0
 41 39  1  0  0  0  0
 42 40  1  0  0  0  0
 43 41  2  0  0  0  0
M  END
>  <MODEL>
4

>  <REMARK>
 VINA RESULT:      -7.5      3.711      9.557
  Name = 
  11 active torsions:
  status: ('A' for Active; 'I' for Inactive)
    1  A    between atoms: N_1  and  C_35
    2  A    between atoms: C_2  and  N_6
    3  A    between atoms: C_2  and  C_13
    4  A    between atoms: C_3  and  C_4
    5  A    between atoms: C_3  and  N_12
    6  A    between atoms: C_8  and  O_27
    7  A    between atoms: C_8  and  C_30
    8  A    between atoms: C_8  and  C_34
    9  A    between atoms: C_11  and  C_14
   10  A    between atoms: C_13  and  O_27
   11  A    between atoms: C_14  and  C_41
                            x       y       z     vdW  Elec       q    Type
                         _______ _______ _______ _____ _____    ______ ____

>  <TORSDO>
F 11

$$$$
=
 OpenBabel11062410353D

 43 47  0  0  1  0  0  0  0  0999 V2000
  160.8470  212.6280  149.9140 C   0  0  1  0  0  3  0  0  0  0  0  0
  157.3130  212.7580  153.6670 C   0  0  0  0  0  0  0  0  0  0  0  0
  158.0700  213.7170  151.6100 C   0  0  0  0  0  0  0  0  0  0  0  0
  158.6310  212.3250  153.9320 C   0  0  0  0  0  3  0  0  0  0  0  0
  156.0380  212.4120  154.8120 Cl  0  0  0  0  0  0  0  0  0  0  0  0
  159.3410  213.2830  151.8530 C   0  0  0  0  0  0  0  0  0  0  0  0
  157.0210  213.4720  152.4920 C   0  0  0  0  0  3  0  0  0  0  0  0
  159.6670  212.5930  153.0200 C   0  0  0  0  0  3  0  0  0  0  0  0
  160.1820  213.7570  150.7170 C   0  0  2  0  0  3  0  0  0  0  0  0
  159.1920  214.4520  149.8840 N   0  0  0  0  0  0  0  0  0  0  0  0
  158.0200  214.4250  150.3880 N   0  0  0  0  0  0  0  0  0  0  0  0
  160.4900  212.5160  147.4180 N   0  0  0  0  0  2  0  0  0  0  0  0
  161.2850  212.9680  148.5170 C   0  0  0  0  0  0  0  0  0  0  0  0
  162.3420  213.6280  148.3250 O   0  0  0  0  0  0  0  0  0  0  0  0
  160.2940  212.3170  143.6750 C   0  0  0  0  0  0  0  0  0  0  0  0
  161.5650  212.7830  143.3280 C   0  0  0  0  0  0  0  0  0  0  0  0
  161.9300  212.8650  142.0240 F   0  0  0  0  0  0  0  0  0  0  0  0
  162.1020  213.0600  145.6720 C   0  0  0  0  0  3  0  0  0  0  0  0
  159.9290  212.2210  145.0210 C   0  0  0  0  0  3  0  0  0  0  0  0
  160.8340  212.5880  146.0290 C   0  0  0  0  0  0  0  0  0  0  0  0
  159.4100  211.9580  142.7120 F   0  0  0  0  0  0  0  0  0  0  0  0
  162.4690  213.1550  144.3260 C   0  0  0  0  0  3  0  0  0  0  0  0
  161.6520  211.7200  150.6470 O   0  0  0  0  0  0  0  0  0  0  0  0
  161.2600  210.3940  150.3770 C   0  0  1  0  0  3  0  0  0  0  0  0
  162.1680  209.7910  149.3200 C   0  0  0  0  0  1  0  0  0  0  0  0
  161.3250  209.5370  151.6430 C   0  0  2  0  0  3  0  0  0  0  0  0
  161.7890  210.3540  152.8350 C   0  0  0  0  0  1  0  0  0  0  0  0
  162.1910  208.4020  151.4530 N   0  0  0  0  0  0  0  0  0  0  0  0
  161.8300  207.2690  151.8230 N   0  0  0  0  0  0  0  0  0  0  0  0
  162.6910  206.1330  151.6240 C   0  0  0  0  0  2  0  0  0  0  0  0
  161.9360  205.0020  151.0000 C   0  0  0  0  0  0  0  0  0  0  0  0
  160.8690  203.9220  149.1030 C   0  0  0  0  0  3  0  0  0  0  0  0
  161.5110  203.9530  151.8210 C   0  0  0  0  0  3  0  0  0  0  0  0
  160.7700  202.8940  151.2880 C   0  0  0  0  0  3  0  0  0  0  0  0
  161.6290  204.9800  149.6250 C   0  0  0  0  0  0  0  0  0  0  0  0
  160.4450  202.8820  149.9310 C   0  0  0  0  0  3  0  0  0  0  0  0
  162.0760  206.0890  148.7150 C   0  0  0  0  0  2  0  0  0  0  0  0
  161.8040  205.7750  147.2780 C   0  0  0  0  0  0  0  0  0  0  0  0
  161.2610  205.1920  144.5940 C   0  0  0  0  0  3  0  0  0  0  0  0
  162.4530  204.7570  145.1770 C   0  0  0  0  0  3  0  0  0  0  0  0
  160.3390  205.9200  145.3520 C   0  0  0  0  0  3  0  0  0  0  0  0
  162.7270  205.0500  146.5150 C   0  0  0  0  0  3  0  0  0  0  0  0
  160.6100  206.2100  146.6920 C   0  0  0  0  0  3  0  0  0  0  0  0
  1 13  1  6  0  0  0
  1 23  1  0  0  0  0
  2  4  1  0  0  0  0
  2  5  1  0  0  0  0
  3  6  2  0  0  0  0
  3  7  1  0  0  0  0
  6  8  1  0  0  0  0
  7  2  2  0  0  0  0
  8  4  2  0  0  0  0
  9  1  1  6  0  0  0
  9  6  1  0  0  0  0
 10 11  2  0  0  0  0
 10  9  1  0  0  0  0
 11  3  1  0  0  0  0
 12 13  1  0  0  0  0
 14 13  2  0  0  0  0
 15 19  1  0  0  0  0
 16 15  2  0  0  0  0
 16 22  1  0  0  0  0
 17 16  1  0  0  0  0
 18 20  1  0  0  0  0
 19 20  2  0  0  0  0
 20 12  1  0  0  0  0
 21 15  1  0  0  0  0
 22 18  2  0  0  0  0
 24 25  1  6  0  0  0
 24 23  1  0  0  0  0
 24 26  1  0  0  0  0
 26 27  1  1  0  0  0
 28 26  1  0  0  0  0
 28 29  2  0  0  0  0
 30 29  1  0  0  0  0
 31 30  1  0  0  0  0
 31 33  1  0  0  0  0
 32 35  1  0  0  0  0
 32 36  2  0  0  0  0
 34 33  2  0  0  0  0
 35 31  2  0  0  0  0
 36 34  1  0  0  0  0
 37 35  1  0  0  0  0
 38 37  1  0  0  0  0
 39 40  2  0  0  0  0
 39 41  1  0  0  0  0
 40 42  1  0  0  0  0
 41 43  2  0  0  0  0
 42 38  2  0  0  0  0
 43 38  1  0  0  0  0
M  END
>  <MODEL>
5

>  <REMARK>
 VINA RESULT:      -7.5      3.672      8.330
  Name = 
  11 active torsions:
  status: ('A' for Active; 'I' for Inactive)
    1  A    between atoms: N_1  and  C_35
    2  A    between atoms: C_2  and  N_6
    3  A    between atoms: C_2  and  C_13
    4  A    between atoms: C_3  and  C_4
    5  A    between atoms: C_3  and  N_12
    6  A    between atoms: C_8  and  O_27
    7  A    between atoms: C_8  and  C_30
    8  A    between atoms: C_8  and  C_34
    9  A    between atoms: C_11  and  C_14
   10  A    between atoms: C_13  and  O_27
   11  A    between atoms: C_14  and  C_41
                            x       y       z     vdW  Elec       q    Type
                         _______ _______ _______ _____ _____    ______ ____

>  <TORSDO>
F 11

$$$$
=
 OpenBabel11062410353D

 43 47  0  0  1  0  0  0  0  0999 V2000
  161.2710  207.3230  149.5300 C   0  0  1  0  0  3  0  0  0  0  0  0
  161.1870  202.2510  148.6110 C   0  0  0  0  0  0  0  0  0  0  0  0
  161.0790  204.4480  147.6690 C   0  0  0  0  0  0  0  0  0  0  0  0
  160.7150  202.7690  149.8360 C   0  0  0  0  0  3  0  0  0  0  0  0
  161.5400  200.5440  148.4680 Cl  0  0  0  0  0  0  0  0  0  0  0  0
  160.6410  204.9560  148.8580 C   0  0  0  0  0  0  0  0  0  0  0  0
  161.3690  203.0960  147.5020 C   0  0  0  0  0  3  0  0  0  0  0  0
  160.4280  204.1400  149.9680 C   0  0  0  0  0  3  0  0  0  0  0  0
  160.4090  206.4130  148.6430 C   0  0  2  0  0  3  0  0  0  0  0  0
  160.7930  206.5700  147.2340 N   0  0  0  0  0  0  0  0  0  0  0  0
  161.1640  205.4730  146.7000 N   0  0  0  0  0  0  0  0  0  0  0  0
  161.1980  209.7600  148.8720 N   0  0  0  0  0  2  0  0  0  0  0  0
  161.8990  208.5130  148.8580 C   0  0  0  0  0  0  0  0  0  0  0  0
  163.0160  208.4030  148.2840 O   0  0  0  0  0  0  0  0  0  0  0  0
  161.1400  212.5740  146.3900 C   0  0  0  0  0  0  0  0  0  0  0  0
  162.2770  213.2860  146.7850 C   0  0  0  0  0  0  0  0  0  0  0  0
  162.6430  214.4100  146.1210 F   0  0  0  0  0  0  0  0  0  0  0  0
  162.6810  211.6660  148.5380 C   0  0  0  0  0  3  0  0  0  0  0  0
  160.7770  211.4080  147.0690 C   0  0  0  0  0  3  0  0  0  0  0  0
  161.5480  210.9440  148.1450 C   0  0  0  0  0  0  0  0  0  0  0  0
  160.3860  213.0100  145.3520 F   0  0  0  0  0  0  0  0  0  0  0  0
  163.0470  212.8320  147.8580 C   0  0  0  0  0  3  0  0  0  0  0  0
  160.8500  207.4810  150.8740 O   0  0  0  0  0  0  0  0  0  0  0  0
  161.9670  207.6130  151.7220 C   0  0  1  0  0  3  0  0  0  0  0  0
  162.2270  209.0810  152.0110 C   0  0  0  0  0  1  0  0  0  0  0  0
  161.7400  206.8750  153.0430 C   0  0  2  0  0  3  0  0  0  0  0  0
  161.1480  205.4970  152.8070 C   0  0  0  0  0  1  0  0  0  0  0  0
  160.8880  207.6360  153.9200 N   0  0  0  0  0  0  0  0  0  0  0  0
  161.0870  207.6290  155.1490 N   0  0  0  0  0  0  0  0  0  0  0  0
  160.2420  208.3980  156.0240 C   0  0  0  0  0  2  0  0  0  0  0  0
  160.9460  209.6350  156.4860 C   0  0  0  0  0  0  0  0  0  0  0  0
  160.9580  211.9540  157.2090 C   0  0  0  0  0  3  0  0  0  0  0  0
  162.3430  209.6210  156.5450 C   0  0  0  0  0  3  0  0  0  0  0  0
  163.0450  210.7650  156.9340 C   0  0  0  0  0  3  0  0  0  0  0  0
  160.2440  210.8050  156.8380 C   0  0  0  0  0  0  0  0  0  0  0  0
  162.3530  211.9330  157.2610 C   0  0  0  0  0  3  0  0  0  0  0  0
  158.7430  210.8500  156.7900 C   0  0  0  0  0  2  0  0  0  0  0  0
  158.2460  211.6160  155.6060 C   0  0  0  0  0  0  0  0  0  0  0  0
  157.3350  213.0320  153.3690 C   0  0  0  0  0  3  0  0  0  0  0  0
  157.2570  213.6070  154.6390 C   0  0  0  0  0  3  0  0  0  0  0  0
  157.8670  211.7480  153.2150 C   0  0  0  0  0  3  0  0  0  0  0  0
  157.7090  212.9000  155.7570 C   0  0  0  0  0  3  0  0  0  0  0  0
  158.3220  211.0420  154.3320 C   0  0  0  0  0  3  0  0  0  0  0  0
  1 13  1  6  0  0  0
  1 23  1  0  0  0  0
  2  4  1  0  0  0  0
  3  6  2  0  0  0  0
  4  8  2  0  0  0  0
  5  2  1  0  0  0  0
  6  8  1  0  0  0  0
  7  3  1  0  0  0  0
  7  2  2  0  0  0  0
  9  6  1  0  0  0  0
  9  1  1  1  0  0  0
 10  9  1  0  0  0  0
 11 10  2  0  0  0  0
 11  3  1  0  0  0  0
 13 12  1  0  0  0  0
 14 13  2  0  0  0  0
 15 16  2  0  0  0  0
 15 19  1  0  0  0  0
 16 22  1  0  0  0  0
 17 16  1  0  0  0  0
 19 20  2  0  0  0  0
 20 18  1  0  0  0  0
 20 12  1  0  0  0  0
 21 15  1  0  0  0  0
 22 18  2  0  0  0  0
 23 24  1  0  0  0  0
 24 25  1  1  0  0  0
 24 26  1  0  0  0  0
 26 27  1  6  0  0  0
 26 28  1  0  0  0  0
 28 29  2  0  0  0  0
 29 30  1  0  0  0  0
 30 31  1  0  0  0  0
 31 33  2  0  0  0  0
 31 35  1  0  0  0  0
 32 36  1  0  0  0  0
 33 34  1  0  0  0  0
 34 36  2  0  0  0  0
 35 32  2  0  0  0  0
 37 35  1  0  0  0  0
 38 42  1  0  0  0  0
 38 37  1  0  0  0  0
 39 40  1  0  0  0  0
 40 42  2  0  0  0  0
 41 39  2  0  0  0  0
 41 43  1  0  0  0  0
 43 38  2  0  0  0  0
M  END
>  <MODEL>
6

>  <REMARK>
 VINA RESULT:      -7.4      4.081      9.603
  Name = 
  11 active torsions:
  status: ('A' for Active; 'I' for Inactive)
    1  A    between atoms: N_1  and  C_35
    2  A    between atoms: C_2  and  N_6
    3  A    between atoms: C_2  and  C_13
    4  A    between atoms: C_3  and  C_4
    5  A    between atoms: C_3  and  N_12
    6  A    between atoms: C_8  and  O_27
    7  A    between atoms: C_8  and  C_30
    8  A    between atoms: C_8  and  C_34
    9  A    between atoms: C_11  and  C_14
   10  A    between atoms: C_13  and  O_27
   11  A    between atoms: C_14  and  C_41
                            x       y       z     vdW  Elec       q    Type
                         _______ _______ _______ _____ _____    ______ ____

>  <TORSDO>
F 11

$$$$
=
 OpenBabel11062410353D

 43 47  0  0  1  0  0  0  0  0999 V2000
  160.4960  213.3890  147.5750 C   0  0  1  0  0  3  0  0  0  0  0  0
  157.7200  213.8790  151.8920 C   0  0  0  0  0  0  0  0  0  0  0  0
  157.7210  213.9880  149.5010 C   0  0  0  0  0  0  0  0  0  0  0  0
  159.1040  214.1540  151.8900 C   0  0  0  0  0  3  0  0  0  0  0  0
  156.8820  213.6440  153.4090 Cl  0  0  0  0  0  0  0  0  0  0  0  0
  159.0640  214.2350  149.4950 C   0  0  0  0  0  0  0  0  0  0  0  0
  157.0070  213.7990  150.6820 C   0  0  0  0  0  3  0  0  0  0  0  0
  159.7930  214.3430  150.6780 C   0  0  0  0  0  3  0  0  0  0  0  0
  159.4620  214.4120  148.0690 C   0  0  2  0  0  3  0  0  0  0  0  0
  158.1820  214.2100  147.3770 N   0  0  0  0  0  0  0  0  0  0  0  0
  157.2200  213.9750  148.1810 N   0  0  0  0  0  0  0  0  0  0  0  0
  160.2370  212.6860  145.1640 N   0  0  0  0  0  2  0  0  0  0  0  0
  160.9080  213.4960  146.1330 C   0  0  0  0  0  0  0  0  0  0  0  0
  161.8370  214.2780  145.7940 O   0  0  0  0  0  0  0  0  0  0  0  0
  160.0450  212.0740  141.4660 C   0  0  0  0  0  0  0  0  0  0  0  0
  161.3870  212.2410  141.1100 C   0  0  0  0  0  0  0  0  0  0  0  0
  161.7740  212.0920  139.8190 F   0  0  0  0  0  0  0  0  0  0  0  0
  161.9430  212.6930  143.4220 C   0  0  0  0  0  3  0  0  0  0  0  0
  159.6550  212.2150  142.8000 C   0  0  0  0  0  3  0  0  0  0  0  0
  160.6030  212.5210  143.7890 C   0  0  0  0  0  0  0  0  0  0  0  0
  159.1190  211.7780  140.5220 F   0  0  0  0  0  0  0  0  0  0  0  0
  162.3350  212.5500  142.0880 C   0  0  0  0  0  3  0  0  0  0  0  0
  161.4860  212.9890  148.5070 O   0  0  0  0  0  0  0  0  0  0  0  0
  161.9550  211.6980  148.1950 C   0  0  1  0  0  3  0  0  0  0  0  0
  163.4730  211.7010  148.1300 C   0  0  0  0  0  1  0  0  0  0  0  0
  161.5000  210.6830  149.2450 C   0  0  2  0  0  3  0  0  0  0  0  0
  161.9240  211.1070  150.6390 C   0  0  0  0  0  1  0  0  0  0  0  0
  162.0120  209.3690  148.9490 N   0  0  0  0  0  0  0  0  0  0  0  0
  162.0240  208.4880  149.8280 N   0  0  0  0  0  0  0  0  0  0  0  0
  162.5270  207.1730  149.5290 C   0  0  0  0  0  2  0  0  0  0  0  0
  161.9430  206.1600  150.4630 C   0  0  0  0  0  0  0  0  0  0  0  0
  160.7080  204.1160  150.9130 C   0  0  0  0  0  3  0  0  0  0  0  0
  162.0400  206.3900  151.8390 C   0  0  0  0  0  3  0  0  0  0  0  0
  161.4760  205.4900  152.7470 C   0  0  0  0  0  3  0  0  0  0  0  0
  161.2870  205.0040  149.9930 C   0  0  0  0  0  0  0  0  0  0  0  0
  160.8060  204.3570  152.2840 C   0  0  0  0  0  3  0  0  0  0  0  0
  161.1710  204.7260  148.5220 C   0  0  0  0  0  2  0  0  0  0  0  0
  161.1730  203.2590  148.2300 C   0  0  0  0  0  0  0  0  0  0  0  0
  161.1590  200.5190  147.6550 C   0  0  0  0  0  3  0  0  0  0  0  0
  161.3120  200.9560  148.9730 C   0  0  0  0  0  3  0  0  0  0  0  0
  161.0130  201.4510  146.6230 C   0  0  0  0  0  3  0  0  0  0  0  0
  161.3220  202.3230  149.2610 C   0  0  0  0  0  3  0  0  0  0  0  0
  161.0200  202.8180  146.9110 C   0  0  0  0  0  3  0  0  0  0  0  0
  1 13  1  6  0  0  0
  1 23  1  0  0  0  0
  2  5  1  0  0  0  0
  3  7  1  0  0  0  0
  4  2  1  0  0  0  0
  6  3  2  0  0  0  0
  6  8  1  0  0  0  0
  7  2  2  0  0  0  0
  8  4  2  0  0  0  0
  9  1  1  6  0  0  0
  9  6  1  0  0  0  0
 10  9  1  0  0  0  0
 10 11  2  0  0  0  0
 11  3  1  0  0  0  0
 12 13  1  0  0  0  0
 14 13  2  0  0  0  0
 15 19  1  0  0  0  0
 16 15  2  0  0  0  0
 16 22  1  0  0  0  0
 17 16  1  0  0  0  0
 18 20  1  0  0  0  0
 19 20  2  0  0  0  0
 20 12  1  0  0  0  0
 21 15  1  0  0  0  0
 22 18  2  0  0  0  0
 24 25  1  1  0  0  0
 24 23  1  0  0  0  0
 24 26  1  0  0  0  0
 26 27  1  1  0  0  0
 28 26  1  0  0  0  0
 28 29  2  0  0  0  0
 30 29  1  0  0  0  0
 30 31  1  0  0  0  0
 31 33  1  0  0  0  0
 32 36  2  0  0  0  0
 33 34  2  0  0  0  0
 35 31  2  0  0  0  0
 35 32  1  0  0  0  0
 36 34  1  0  0  0  0
 37 35  1  0  0  0  0
 38 37  1  0  0  0  0
 38 42  1  0  0  0  0
 39 40  1  0  0  0  0
 40 42  2  0  0  0  0
 41 43  1  0  0  0  0
 41 39  2  0  0  0  0
 43 38  2  0  0  0  0
M  END
>  <MODEL>
7

>  <REMARK>
 VINA RESULT:      -7.4      4.029      9.452
  Name = 
  11 active torsions:
  status: ('A' for Active; 'I' for Inactive)
    1  A    between atoms: N_1  and  C_35
    2  A    between atoms: C_2  and  N_6
    3  A    between atoms: C_2  and  C_13
    4  A    between atoms: C_3  and  C_4
    5  A    between atoms: C_3  and  N_12
    6  A    between atoms: C_8  and  O_27
    7  A    between atoms: C_8  and  C_30
    8  A    between atoms: C_8  and  C_34
    9  A    between atoms: C_11  and  C_14
   10  A    between atoms: C_13  and  O_27
   11  A    between atoms: C_14  and  C_41
                            x       y       z     vdW  Elec       q    Type
                         _______ _______ _______ _____ _____    ______ ____

>  <TORSDO>
F 11

$$$$
=
 OpenBabel11062410353D

 43 47  0  0  1  0  0  0  0  0999 V2000
  160.1740  211.4850  154.7240 C   0  0  1  0  0  3  0  0  0  0  0  0
  155.4670  213.4800  155.3890 C   0  0  0  0  0  0  0  0  0  0  0  0
  157.6020  213.0420  156.3760 C   0  0  0  0  0  0  0  0  0  0  0  0
  155.6740  212.4050  154.4990 C   0  0  0  0  0  3  0  0  0  0  0  0
  153.9870  214.4070  155.3020 Cl  0  0  0  0  0  0  0  0  0  0  0  0
  157.8150  212.0140  155.5040 C   0  0  0  0  0  0  0  0  0  0  0  0
  156.4390  213.8070  156.3510 C   0  0  0  0  0  3  0  0  0  0  0  0
  156.8600  211.6500  154.5550 C   0  0  0  0  0  3  0  0  0  0  0  0
  159.1360  211.4190  155.8540 C   0  0  2  0  0  3  0  0  0  0  0  0
  159.5570  212.2700  156.9750 N   0  0  0  0  0  0  0  0  0  0  0  0
  158.6980  213.1700  157.2580 N   0  0  0  0  0  0  0  0  0  0  0  0
  159.3620  211.8070  152.3540 N   0  0  0  0  0  2  0  0  0  0  0  0
  159.8480  212.3890  153.5670 C   0  0  0  0  0  0  0  0  0  0  0  0
  160.0150  213.6340  153.6680 O   0  0  0  0  0  0  0  0  0  0  0  0
  157.7340  213.4550  149.4020 C   0  0  0  0  0  0  0  0  0  0  0  0
  158.8620  213.8190  148.6590 C   0  0  0  0  0  0  0  0  0  0  0  0
  158.7190  214.4530  147.4690 F   0  0  0  0  0  0  0  0  0  0  0  0
  160.2910  212.8510  150.3570 C   0  0  0  0  0  3  0  0  0  0  0  0
  157.8870  212.7880  150.6200 C   0  0  0  0  0  3  0  0  0  0  0  0
  159.1670  212.4780  151.1040 C   0  0  0  0  0  0  0  0  0  0  0  0
  156.4920  213.7480  148.9470 F   0  0  0  0  0  0  0  0  0  0  0  0
  160.1390  213.5170  149.1360 C   0  0  0  0  0  3  0  0  0  0  0  0
  161.5350  211.3830  155.1060 O   0  0  0  0  0  0  0  0  0  0  0  0
  161.9530  210.0380  155.0650 C   0  0  1  0  0  3  0  0  0  0  0  0
  162.0000  209.4670  156.4710 C   0  0  0  0  0  1  0  0  0  0  0  0
  160.9990  209.1970  154.2130 C   0  0  2  0  0  3  0  0  0  0  0  0
  160.4190  208.0450  155.0140 C   0  0  0  0  0  1  0  0  0  0  0  0
  161.6630  208.6970  153.0360 N   0  0  0  0  0  0  0  0  0  0  0  0
  160.9990  208.2260  152.0940 N   0  0  0  0  0  0  0  0  0  0  0  0
  161.6620  207.7360  150.9150 C   0  0  0  0  0  2  0  0  0  0  0  0
  161.3030  206.3050  150.6630 C   0  0  0  0  0  0  0  0  0  0  0  0
  160.5280  204.5090  149.2220 C   0  0  0  0  0  3  0  0  0  0  0  0
  161.3430  205.4110  151.7370 C   0  0  0  0  0  3  0  0  0  0  0  0
  160.9790  204.0740  151.5570 C   0  0  0  0  0  3  0  0  0  0  0  0
  160.9090  205.8490  149.3890 C   0  0  0  0  0  0  0  0  0  0  0  0
  160.5660  203.6250  150.3010 C   0  0  0  0  0  3  0  0  0  0  0  0
  160.8610  206.7840  148.2140 C   0  0  0  0  0  2  0  0  0  0  0  0
  161.1720  206.0830  146.9300 C   0  0  0  0  0  0  0  0  0  0  0  0
  161.7870  204.7740  144.5330 C   0  0  0  0  0  3  0  0  0  0  0  0
  160.5370  205.3750  144.7000 C   0  0  0  0  0  3  0  0  0  0  0  0
  162.7300  204.8250  145.5640 C   0  0  0  0  0  3  0  0  0  0  0  0
  160.2270  206.0260  145.8970 C   0  0  0  0  0  3  0  0  0  0  0  0
  162.4230  205.4790  146.7600 C   0  0  0  0  0  3  0  0  0  0  0  0
  1 13  1  1  0  0  0
  1 23  1  0  0  0  0
  2  7  1  0  0  0  0
  3 11  1  0  0  0  0
  4  8  1  0  0  0  0
  4  2  2  0  0  0  0
  5  2  1  0  0  0  0
  6  9  1  0  0  0  0
  6  3  1  0  0  0  0
  7  3  2  0  0  0  0
  8  6  2  0  0  0  0
  9  1  1  6  0  0  0
  9 10  1  0  0  0  0
 10 11  2  0  0  0  0
 12 13  1  0  0  0  0
 13 14  2  0  0  0  0
 15 19  1  0  0  0  0
 16 22  1  0  0  0  0
 16 15  2  0  0  0  0
 17 16  1  0  0  0  0
 18 20  1  0  0  0  0
 19 20  2  0  0  0  0
 20 12  1  0  0  0  0
 21 15  1  0  0  0  0
 22 18  2  0  0  0  0
 24 23  1  0  0  0  0
 24 25  1  1  0  0  0
 26 27  1  1  0  0  0
 26 24  1  0  0  0  0
 28 26  1  0  0  0  0
 29 28  2  0  0  0  0
 30 29  1  0  0  0  0
 31 30  1  0  0  0  0
 31 33  1  0  0  0  0
 32 35  1  0  0  0  0
 32 36  2  0  0  0  0
 34 33  2  0  0  0  0
 35 31  2  0  0  0  0
 36 34  1  0  0  0  0
 37 35  1  0  0  0  0
 38 37  1  0  0  0  0
 39 40  2  0  0  0  0
 39 41  1  0  0  0  0
 40 42  1  0  0  0  0
 41 43  2  0  0  0  0
 42 38  2  0  0  0  0
 43 38  1  0  0  0  0
M  END
>  <MODEL>
8

>  <REMARK>
 VINA RESULT:      -7.3      4.709      8.185
  Name = 
  11 active torsions:
  status: ('A' for Active; 'I' for Inactive)
    1  A    between atoms: N_1  and  C_35
    2  A    between atoms: C_2  and  N_6
    3  A    between atoms: C_2  and  C_13
    4  A    between atoms: C_3  and  C_4
    5  A    between atoms: C_3  and  N_12
    6  A    between atoms: C_8  and  O_27
    7  A    between atoms: C_8  and  C_30
    8  A    between atoms: C_8  and  C_34
    9  A    between atoms: C_11  and  C_14
   10  A    between atoms: C_13  and  O_27
   11  A    between atoms: C_14  and  C_41
                            x       y       z     vdW  Elec       q    Type
                         _______ _______ _______ _____ _____    ______ ____

>  <TORSDO>
F 11

$$$$
=
 OpenBabel11062410353D

 43 47  0  0  1  0  0  0  0  0999 V2000
  160.9360  205.4850  151.0450 C   0  0  1  0  0  3  0  0  0  0  0  0
  160.8360  202.1990  147.0740 C   0  0  0  0  0  0  0  0  0  0  0  0
  160.7430  202.4540  149.4510 C   0  0  0  0  0  0  0  0  0  0  0  0
  161.5510  203.4120  146.9870 C   0  0  0  0  0  3  0  0  0  0  0  0
  160.4640  201.3040  145.6190 Cl  0  0  0  0  0  0  0  0  0  0  0  0
  161.4170  203.6370  149.3690 C   0  0  0  0  0  0  0  0  0  0  0  0
  160.4270  201.7010  148.3230 C   0  0  0  0  0  3  0  0  0  0  0  0
  161.8570  204.1460  148.1480 C   0  0  0  0  0  3  0  0  0  0  0  0
  161.5970  204.1270  150.7660 C   0  0  2  0  0  3  0  0  0  0  0  0
  160.9280  203.0720  151.5390 N   0  0  0  0  0  0  0  0  0  0  0  0
  160.4560  202.1460  150.8000 N   0  0  0  0  0  0  0  0  0  0  0  0
  160.4970  207.2720  152.7730 N   0  0  0  0  0  2  0  0  0  0  0  0
  161.2400  206.1180  152.3750 C   0  0  0  0  0  0  0  0  0  0  0  0
  162.1450  205.6420  153.1120 O   0  0  0  0  0  0  0  0  0  0  0  0
  161.8460  210.0110  154.9570 C   0  0  0  0  0  0  0  0  0  0  0  0
  161.2050  209.7140  156.1630 C   0  0  0  0  0  0  0  0  0  0  0  0
  161.4280  210.4780  157.2610 F   0  0  0  0  0  0  0  0  0  0  0  0
  160.1160  207.8210  155.1180 C   0  0  0  0  0  3  0  0  0  0  0  0
  161.6230  209.2100  153.8330 C   0  0  0  0  0  3  0  0  0  0  0  0
  160.7590  208.1070  153.9080 C   0  0  0  0  0  0  0  0  0  0  0  0
  162.6840  211.0730  154.8700 F   0  0  0  0  0  0  0  0  0  0  0  0
  160.3400  208.6200  156.2440 C   0  0  0  0  0  3  0  0  0  0  0  0
  160.7740  206.3500  149.9340 O   0  0  0  0  0  0  0  0  0  0  0  0
  161.6270  207.4640  150.0560 C   0  0  1  0  0  3  0  0  0  0  0  0
  163.0540  206.9990  150.2890 C   0  0  0  0  0  1  0  0  0  0  0  0
  161.5810  208.3280  148.7940 C   0  0  2  0  0  3  0  0  0  0  0  0
  162.6760  207.9360  147.8190 C   0  0  0  0  0  1  0  0  0  0  0  0
  161.6880  209.7270  149.1230 N   0  0  0  0  0  0  0  0  0  0  0  0
  161.9810  210.5570  148.2420 N   0  0  0  0  0  0  0  0  0  0  0  0
  162.0780  211.9550  148.5690 C   0  0  0  0  0  2  0  0  0  0  0  0
  160.8720  212.6960  148.0830 C   0  0  0  0  0  0  0  0  0  0  0  0
  159.0220  214.2350  148.4140 C   0  0  0  0  0  3  0  0  0  0  0  0
  160.4180  212.4480  146.7840 C   0  0  0  0  0  3  0  0  0  0  0  0
  159.2730  213.0880  146.3010 C   0  0  0  0  0  3  0  0  0  0  0  0
  160.1800  213.6110  148.9020 C   0  0  0  0  0  0  0  0  0  0  0  0
  158.5720  213.9770  147.1190 C   0  0  0  0  0  3  0  0  0  0  0  0
  160.6460  213.9040  150.2990 C   0  0  0  0  0  2  0  0  0  0  0  0
  159.7350  213.3110  151.3260 C   0  0  0  0  0  0  0  0  0  0  0  0
  158.0220  212.2320  153.2610 C   0  0  0  0  0  3  0  0  0  0  0  0
  159.0430  211.4490  152.7170 C   0  0  0  0  0  3  0  0  0  0  0  0
  157.8550  213.5540  152.8370 C   0  0  0  0  0  3  0  0  0  0  0  0
  159.8970  211.9850  151.7490 C   0  0  0  0  0  3  0  0  0  0  0  0
  158.7100  214.0920  151.8720 C   0  0  0  0  0  3  0  0  0  0  0  0
  1 23  1  6  0  0  0
  1 13  1  0  0  0  0
  2  7  1  0  0  0  0
  3 11  1  0  0  0  0
  4  2  2  0  0  0  0
  4  8  1  0  0  0  0
  5  2  1  0  0  0  0
  6  3  1  0  0  0  0
  6  9  1  0  0  0  0
  7  3  2  0  0  0  0
  8  6  2  0  0  0  0
  9  1  1  6  0  0  0
  9 10  1  0  0  0  0
 11 10  2  0  0  0  0
 12 20  1  0  0  0  0
 13 12  1  0  0  0  0
 13 14  2  0  0  0  0
 15 16  1  0  0  0  0
 16 22  2  0  0  0  0
 16 17  1  0  0  0  0
 18 22  1  0  0  0  0
 19 20  1  0  0  0  0
 19 15  2  0  0  0  0
 20 18  2  0  0  0  0
 21 15  1  0  0  0  0
 23 24  1  0  0  0  0
 24 25  1  6  0  0  0
 26 27  1  6  0  0  0
 26 28  1  0  0  0  0
 26 24  1  0  0  0  0
 29 30  1  0  0  0  0
 29 28  2  0  0  0  0
 31 30  1  0  0  0  0
 31 35  1  0  0  0  0
 32 35  2  0  0  0  0
 33 31  2  0  0  0  0
 34 33  1  0  0  0  0
 34 36  2  0  0  0  0
 35 37  1  0  0  0  0
 36 32  1  0  0  0  0
 37 38  1  0  0  0  0
 38 42  2  0  0  0  0
 38 43  1  0  0  0  0
 40 39  2  0  0  0  0
 41 39  1  0  0  0  0
 42 40  1  0  0  0  0
 43 41  2  0  0  0  0
M  END
>  <MODEL>
9

>  <REMARK>
 VINA RESULT:      -7.2      4.204      7.537
  Name = 
  11 active torsions:
  status: ('A' for Active; 'I' for Inactive)
    1  A    between atoms: N_1  and  C_35
    2  A    between atoms: C_2  and  N_6
    3  A    between atoms: C_2  and  C_13
    4  A    between atoms: C_3  and  C_4
    5  A    between atoms: C_3  and  N_12
    6  A    between atoms: C_8  and  O_27
    7  A    between atoms: C_8  and  C_30
    8  A    between atoms: C_8  and  C_34
    9  A    between atoms: C_11  and  C_14
   10  A    between atoms: C_13  and  O_27
   11  A    between atoms: C_14  and  C_41
                            x       y       z     vdW  Elec       q    Type
                         _______ _______ _______ _____ _____    ______ ____

>  <TORSDO>
F 11

$$$$
