=
 OpenBabel11052423193D

 27 32  0  0  1  0  0  0  0  0999 V2000
  161.3490  209.1290  150.1360 C   0  0  2  0  0  3  0  0  0  0  0  0
  160.8410  209.1880  151.5200 N   0  0  2  0  0  0  0  0  0  0  0  0
  161.9210  207.1510  151.3290 C   0  0  2  0  0  0  0  0  0  0  0  0
  159.8940  208.8140  155.4880 N   0  0  0  0  0  0  0  0  0  0  0  0
  160.0620  207.0620  157.2610 C   0  0  0  0  0  1  0  0  0  0  0  0
  160.7950  210.4960  152.1800 C   0  0  0  0  0  2  0  0  0  0  0  0
  161.2180  206.7970  154.7150 S   0  0  0  0  0  0  0  0  0  0  0  0
  161.0720  205.4060  149.2260 C   0  0  0  0  0  0  0  0  0  0  0  0
  163.1070  206.2720  151.6340 C   0  0  0  0  0  2  0  0  0  0  0  0
  160.8950  204.5090  148.0460 C   0  0  0  0  0  1  0  0  0  0  0  0
  160.9870  208.0340  153.5990 C   0  0  0  0  0  0  0  0  0  0  0  0
  160.3220  207.5980  155.9000 C   0  0  0  0  0  0  0  0  0  0  0  0
  160.2880  209.0670  154.2130 C   0  0  0  0  0  0  0  0  0  0  0  0
  161.8380  207.6870  149.9090 C   0  0  1  0  0  3  0  0  0  0  0  0
  161.6690  208.2770  152.2940 C   0  0  2  0  0  3  0  0  0  0  0  0
  161.4750  204.8670  150.3870 C   0  0  0  0  0  3  0  0  0  0  0  0
  159.9930  210.3670  153.4970 C   0  0  0  0  0  2  0  0  0  0  0  0
  160.7870  207.3070  147.7920 O   0  0  0  0  0  1  0  0  0  0  0  0
  160.7960  206.8900  149.1240 C   0  0  1  0  0  3  0  0  0  0  0  0
  161.6940  205.6770  151.6430 C   0  0  2  0  0  3  0  0  0  0  0  0
  162.4340  210.1740  149.8080 C   0  0  0  0  0  2  0  0  0  0  0  0
  161.7360  213.7120  147.4970 C   0  0  0  0  0  2  0  0  0  0  0  0
  162.0100  211.2050  148.7690 C   0  0  2  0  0  3  0  0  0  0  0  0
  163.2550  211.7670  148.0670 C   0  0  0  0  0  2  0  0  0  0  0  0
  163.1570  213.2810  147.8690 C   0  0  0  0  0  2  0  0  0  0  0  0
  160.6790  212.9610  148.3240 C   0  0  0  0  0  2  0  0  0  0  0  0
  161.2650  212.2320  149.3760 O   0  0  0  0  0  0  0  0  0  0  0  0
  1 21  1  1  0  0  0
  1  2  1  0  0  0  0
  2  6  1  1  0  0  0
  2 15  1  0  0  0  0
  3  9  1  1  0  0  0
  3 20  1  0  0  0  0
  3 15  1  0  0  0  0
  4 12  2  0  0  0  0
  6 17  1  0  0  0  0
  7 12  1  0  0  0  0
  8 16  2  0  0  0  0
  9 20  1  0  0  0  0
 10  8  1  0  0  0  0
 11 13  2  0  0  0  0
 11  7  1  0  0  0  0
 12  5  1  0  0  0  0
 13  4  1  0  0  0  0
 14  1  1  0  0  0  0
 14  3  1  0  0  0  0
 15 11  1  0  0  0  0
 16 20  1  0  0  0  0
 17 13  1  0  0  0  0
 18 19  1  0  0  0  0
 19  8  1  0  0  0  0
 19 14  1  0  0  0  0
 22 25  1  0  0  0  0
 22 26  1  0  0  0  0
 23 27  1  0  0  0  0
 23 21  1  0  0  0  0
 24 23  1  0  0  0  0
 25 24  1  0  0  0  0
 26 27  1  0  0  0  0
M  END
>  <MODEL>
1

>  <REMARK>
 VINA RESULT:      -7.0      0.000      0.000
  Name = 
  2 active torsions:
  status: ('A' for Active; 'I' for Inactive)
    1  A    between atoms: C_1  and  C_15
    2  A    between atoms: C_9  and  C_15
                            x       y       z     vdW  Elec       q    Type
                         _______ _______ _______ _____ _____    ______ ____

>  <TORSDO>
F 2

$$$$
=
 OpenBabel11052423193D

 27 32  0  0  1  0  0  0  0  0999 V2000
  161.3830  206.3270  149.3830 C   0  0  2  0  0  3  0  0  0  0  0  0
  161.0470  207.1610  150.5520 N   0  0  2  0  0  0  0  0  0  0  0  0
  161.7830  205.1410  151.4070 C   0  0  2  0  0  0  0  0  0  0  0  0
  160.5050  208.9990  154.1730 N   0  0  0  0  0  0  0  0  0  0  0  0
  160.6070  208.3680  156.5880 C   0  0  0  0  0  1  0  0  0  0  0  0
  161.2710  208.6060  150.4530 C   0  0  0  0  0  2  0  0  0  0  0  0
  161.4180  206.6600  154.5120 S   0  0  0  0  0  0  0  0  0  0  0  0
  160.4540  202.7720  150.5070 C   0  0  0  0  0  0  0  0  0  0  0  0
  162.8510  204.3290  152.0930 C   0  0  0  0  0  2  0  0  0  0  0  0
  160.0130  201.4560  149.9550 C   0  0  0  0  0  1  0  0  0  0  0  0
  161.2510  207.1930  152.9260 C   0  0  0  0  0  0  0  0  0  0  0  0
  160.7890  208.0950  155.1400 C   0  0  0  0  0  0  0  0  0  0  0  0
  160.7870  208.5040  152.9400 C   0  0  0  0  0  0  0  0  0  0  0  0
  161.6230  204.9020  149.9140 C   0  0  1  0  0  3  0  0  0  0  0  0
  161.8120  206.6220  151.6670 C   0  0  2  0  0  3  0  0  0  0  0  0
  160.8990  202.8200  151.7730 C   0  0  0  0  0  3  0  0  0  0  0  0
  160.6110  209.3030  151.6670 C   0  0  0  0  0  2  0  0  0  0  0  0
  160.2970  203.7190  148.3090 O   0  0  0  0  0  1  0  0  0  0  0  0
  160.3930  204.0290  149.6680 C   0  0  1  0  0  3  0  0  0  0  0  0
  161.3750  204.0910  152.4340 C   0  0  2  0  0  3  0  0  0  0  0  0
  162.5680  206.8470  148.5450 C   0  0  0  0  0  2  0  0  0  0  0  0
  161.6490  205.2200  144.6910 C   0  0  0  0  0  2  0  0  0  0  0  0
  162.4700  206.5220  147.0600 C   0  0  2  0  0  3  0  0  0  0  0  0
  161.0470  206.8180  146.5620 C   0  0  0  0  0  2  0  0  0  0  0  0
  160.5400  205.7270  145.6170 C   0  0  0  0  0  2  0  0  0  0  0  0
  162.9820  205.0500  145.4400 C   0  0  0  0  0  2  0  0  0  0  0  0
  162.8160  205.1770  146.8320 O   0  0  0  0  0  0  0  0  0  0  0  0
  1 21  1  1  0  0  0
  1 14  1  0  0  0  0
  1  2  1  0  0  0  0
  2  6  1  6  0  0  0
  2 15  1  0  0  0  0
  3 15  1  0  0  0  0
  3  9  1  1  0  0  0
  3 20  1  0  0  0  0
  4 12  2  0  0  0  0
  6 17  1  0  0  0  0
  7 12  1  0  0  0  0
  8 16  2  0  0  0  0
  9 20  1  0  0  0  0
 10  8  1  0  0  0  0
 11 13  2  0  0  0  0
 11  7  1  0  0  0  0
 12  5  1  0  0  0  0
 13  4  1  0  0  0  0
 14  3  1  0  0  0  0
 15 11  1  0  0  0  0
 16 20  1  0  0  0  0
 17 13  1  0  0  0  0
 18 19  1  0  0  0  0
 19 14  1  0  0  0  0
 19  8  1  0  0  0  0
 22 26  1  0  0  0  0
 22 25  1  0  0  0  0
 23 21  1  0  0  0  0
 24 23  1  0  0  0  0
 25 24  1  0  0  0  0
 26 27  1  0  0  0  0
 27 23  1  0  0  0  0
M  END
>  <MODEL>
2

>  <REMARK>
 VINA RESULT:      -6.6      2.878      4.132
  Name = 
  2 active torsions:
  status: ('A' for Active; 'I' for Inactive)
    1  A    between atoms: C_1  and  C_15
    2  A    between atoms: C_9  and  C_15
                            x       y       z     vdW  Elec       q    Type
                         _______ _______ _______ _____ _____    ______ ____

>  <TORSDO>
F 2

$$$$
=
 OpenBabel11052423193D

 27 32  0  0  1  0  0  0  0  0999 V2000
  160.4390  209.9010  153.1190 C   0  0  2  0  0  3  0  0  0  0  0  0
  159.2730  210.7910  153.2780 N   0  0  2  0  0  0  0  0  0  0  0  0
  160.1860  210.5600  155.3910 C   0  0  2  0  0  0  0  0  0  0  0  0
  156.3330  213.4330  154.3570 N   0  0  0  0  0  0  0  0  0  0  0  0
  155.4410  214.4290  156.4670 C   0  0  0  0  0  1  0  0  0  0  0  0
  158.9450  211.6990  152.1760 C   0  0  0  0  0  2  0  0  0  0  0  0
  157.7650  212.8560  156.3660 S   0  0  0  0  0  0  0  0  0  0  0  0
  160.5100  207.9010  156.3990 C   0  0  0  0  0  0  0  0  0  0  0  0
  160.9810  211.1330  156.5370 C   0  0  0  0  0  2  0  0  0  0  0  0
  160.9480  206.5830  156.9460 C   0  0  0  0  0  1  0  0  0  0  0  0
  158.2270  212.2060  154.8850 C   0  0  0  0  0  0  0  0  0  0  0  0
  156.4140  213.6140  155.6950 C   0  0  0  0  0  0  0  0  0  0  0  0
  157.3600  212.6690  153.9020 C   0  0  0  0  0  0  0  0  0  0  0  0
  160.9030  209.5260  154.5370 C   0  0  1  0  0  3  0  0  0  0  0  0
  159.5130  211.5590  154.4910 C   0  0  2  0  0  3  0  0  0  0  0  0
  160.2030  208.8840  157.2600 C   0  0  0  0  0  3  0  0  0  0  0  0
  157.5580  212.3320  152.4400 C   0  0  0  0  0  2  0  0  0  0  0  0
  161.1300  207.1660  154.2010 O   0  0  0  0  0  1  0  0  0  0  0  0
  160.4050  208.1290  154.9070 C   0  0  1  0  0  3  0  0  0  0  0  0
  159.7550  210.2580  156.8220 C   0  0  2  0  0  3  0  0  0  0  0  0
  161.5800  210.4900  152.2660 C   0  0  0  0  0  2  0  0  0  0  0  0
  162.3570  207.8350  148.9970 C   0  0  0  0  0  2  0  0  0  0  0  0
  162.1770  209.5100  151.2640 C   0  0  2  0  0  3  0  0  0  0  0  0
  162.3310  210.2010  149.9000 C   0  0  0  0  0  2  0  0  0  0  0  0
  161.9170  209.2800  148.7500 C   0  0  0  0  0  2  0  0  0  0  0  0
  162.1300  207.4120  150.4580 C   0  0  0  0  0  2  0  0  0  0  0  0
  161.3680  208.3640  151.1610 O   0  0  0  0  0  0  0  0  0  0  0  0
  1 21  1  1  0  0  0
  1  2  1  0  0  0  0
  1 14  1  0  0  0  0
  2  6  1  6  0  0  0
  2 15  1  0  0  0  0
  3  9  1  1  0  0  0
  3 20  1  0  0  0  0
  4 12  2  0  0  0  0
  6 17  1  0  0  0  0
  8 10  1  0  0  0  0
  8 16  2  0  0  0  0
  9 20  1  0  0  0  0
 11  7  1  0  0  0  0
 12  7  1  0  0  0  0
 12  5  1  0  0  0  0
 13  4  1  0  0  0  0
 13 11  2  0  0  0  0
 14 19  1  0  0  0  0
 14  3  1  0  0  0  0
 15 11  1  0  0  0  0
 15  3  1  0  0  0  0
 17 13  1  0  0  0  0
 18 19  1  0  0  0  0
 19  8  1  0  0  0  0
 20 16  1  0  0  0  0
 22 26  1  0  0  0  0
 23 21  1  0  0  0  0
 24 23  1  0  0  0  0
 25 22  1  0  0  0  0
 25 24  1  0  0  0  0
 26 27  1  0  0  0  0
 27 23  1  0  0  0  0
M  END
>  <MODEL>
3

>  <REMARK>
 VINA RESULT:      -5.3      3.322      5.755
  Name = 
  2 active torsions:
  status: ('A' for Active; 'I' for Inactive)
    1  A    between atoms: C_1  and  C_15
    2  A    between atoms: C_9  and  C_15
                            x       y       z     vdW  Elec       q    Type
                         _______ _______ _______ _____ _____    ______ ____

>  <TORSDO>
F 2

$$$$
=
 OpenBabel11052423193D

 27 32  0  0  1  0  0  0  0  0999 V2000
  160.6960  210.5140  151.4910 C   0  0  2  0  0  3  0  0  0  0  0  0
  159.6150  211.2060  152.2180 N   0  0  2  0  0  0  0  0  0  0  0  0
  160.7740  209.9920  153.8120 C   0  0  2  0  0  0  0  0  0  0  0  0
  156.9990  212.9730  154.8300 N   0  0  0  0  0  0  0  0  0  0  0  0
  156.4430  212.8200  157.2600 C   0  0  0  0  0  1  0  0  0  0  0  0
  159.2050  212.5290  151.7440 C   0  0  0  0  0  2  0  0  0  0  0  0
  158.6370  211.5110  156.0940 S   0  0  0  0  0  0  0  0  0  0  0  0
  161.0640  207.1800  153.3660 C   0  0  0  0  0  0  0  0  0  0  0  0
  161.7400  209.9490  154.9680 C   0  0  0  0  0  2  0  0  0  0  0  0
  161.4880  205.7650  153.1480 C   0  0  0  0  0  1  0  0  0  0  0  0
  158.8680  211.6600  154.4350 C   0  0  0  0  0  0  0  0  0  0  0  0
  157.2600  212.4870  156.0650 C   0  0  0  0  0  0  0  0  0  0  0  0
  157.9130  212.5330  153.9260 C   0  0  0  0  0  0  0  0  0  0  0  0
  161.3130  209.5040  152.4760 C   0  0  1  0  0  3  0  0  0  0  0  0
  160.0530  211.2950  153.6040 C   0  0  2  0  0  3  0  0  0  0  0  0
  160.9270  207.6220  154.6270 C   0  0  0  0  0  3  0  0  0  0  0  0
  157.9030  212.9440  152.4690 C   0  0  0  0  0  2  0  0  0  0  0  0
  161.3550  207.6020  151.0230 O   0  0  0  0  0  1  0  0  0  0  0  0
  160.7830  208.0980  152.1970 C   0  0  1  0  0  3  0  0  0  0  0  0
  160.5110  209.0330  154.9670 C   0  0  2  0  0  3  0  0  0  0  0  0
  161.7530  211.4510  150.8750 C   0  0  0  0  0  2  0  0  0  0  0  0
  161.8340  213.0060  146.8840 C   0  0  0  0  0  2  0  0  0  0  0  0
  161.5320  211.7510  149.3970 C   0  0  2  0  0  3  0  0  0  0  0  0
  162.8130  211.4320  148.6110 C   0  0  0  0  0  2  0  0  0  0  0  0
  163.1130  212.5030  147.5600 C   0  0  0  0  0  2  0  0  0  0  0  0
  160.6940  213.2020  147.8980 C   0  0  0  0  0  2  0  0  0  0  0  0
  161.1540  213.0950  149.2240 O   0  0  0  0  0  0  0  0  0  0  0  0
  1 21  1  1  0  0  0
  1  2  1  0  0  0  0
  1 14  1  0  0  0  0
  2  6  1  6  0  0  0
  2 15  1  0  0  0  0
  3 20  1  0  0  0  0
  3  9  1  1  0  0  0
  4 12  2  0  0  0  0
  6 17  1  0  0  0  0
  8 16  2  0  0  0  0
 10  8  1  0  0  0  0
 11  7  1  0  0  0  0
 12  7  1  0  0  0  0
 12  5  1  0  0  0  0
 13 11  2  0  0  0  0
 13  4  1  0  0  0  0
 14  3  1  0  0  0  0
 15  3  1  0  0  0  0
 15 11  1  0  0  0  0
 16 20  1  0  0  0  0
 17 13  1  0  0  0  0
 18 19  1  0  0  0  0
 19 14  1  0  0  0  0
 19  8  1  0  0  0  0
 20  9  1  0  0  0  0
 22 25  1  0  0  0  0
 22 26  1  0  0  0  0
 23 21  1  0  0  0  0
 24 23  1  0  0  0  0
 25 24  1  0  0  0  0
 26 27  1  0  0  0  0
 27 23  1  0  0  0  0
M  END
>  <MODEL>
4

>  <REMARK>
 VINA RESULT:      -5.3      2.562      3.821
  Name = 
  2 active torsions:
  status: ('A' for Active; 'I' for Inactive)
    1  A    between atoms: C_1  and  C_15
    2  A    between atoms: C_9  and  C_15
                            x       y       z     vdW  Elec       q    Type
                         _______ _______ _______ _____ _____    ______ ____

>  <TORSDO>
F 2

$$$$
=
 OpenBabel11052423193D

 27 32  0  0  1  0  0  0  0  0999 V2000
  161.2230  203.3590  149.3440 C   0  0  2  0  0  3  0  0  0  0  0  0
  161.3910  204.1560  150.5740 N   0  0  2  0  0  0  0  0  0  0  0  0
  160.8300  205.6660  148.9130 C   0  0  2  0  0  0  0  0  0  0  0  0
  161.5010  206.8830  153.6280 N   0  0  0  0  0  0  0  0  0  0  0  0
  161.3180  209.3620  153.8880 C   0  0  0  0  0  1  0  0  0  0  0  0
  161.0160  203.5390  151.8490 C   0  0  0  0  0  2  0  0  0  0  0  0
  160.8310  208.0230  151.4680 S   0  0  0  0  0  0  0  0  0  0  0  0
  162.4650  205.7040  146.5650 C   0  0  0  0  0  0  0  0  0  0  0  0
  159.8170  206.5780  148.2700 C   0  0  0  0  0  2  0  0  0  0  0  0
  163.0810  205.6700  145.2050 C   0  0  0  0  0  1  0  0  0  0  0  0
  161.0370  206.3550  151.4200 C   0  0  0  0  0  0  0  0  0  0  0  0
  161.2570  208.1040  153.0990 C   0  0  0  0  0  0  0  0  0  0  0  0
  161.3520  205.9060  152.6980 C   0  0  0  0  0  0  0  0  0  0  0  0
  161.1080  204.3620  148.1820 C   0  0  1  0  0  3  0  0  0  0  0  0
  160.6220  205.3750  150.3740 C   0  0  2  0  0  3  0  0  0  0  0  0
  161.9390  206.8590  147.0020 C   0  0  0  0  0  3  0  0  0  0  0  0
  161.5180  204.4340  153.0080 C   0  0  0  0  0  2  0  0  0  0  0  0
  162.6540  203.3150  146.6830 O   0  0  0  0  0  1  0  0  0  0  0  0
  162.4400  204.4690  147.4400 C   0  0  1  0  0  3  0  0  0  0  0  0
  161.2860  207.0090  148.3550 C   0  0  2  0  0  3  0  0  0  0  0  0
  160.0420  202.3680  149.3810 C   0  0  0  0  0  2  0  0  0  0  0  0
  161.0040  199.8750  146.0330 C   0  0  0  0  0  2  0  0  0  0  0  0
  160.0660  201.3310  148.2650 C   0  0  2  0  0  3  0  0  0  0  0  0
  161.2060  200.3320  148.5170 C   0  0  0  0  0  2  0  0  0  0  0  0
  161.9560  199.9940  147.2260 C   0  0  0  0  0  2  0  0  0  0  0  0
  159.9310  200.9770  146.0490 C   0  0  0  0  0  2  0  0  0  0  0  0
  160.2120  201.9610  147.0160 O   0  0  0  0  0  0  0  0  0  0  0  0
  1 21  1  1  0  0  0
  1  2  1  0  0  0  0
  2  6  1  1  0  0  0
  3  9  1  6  0  0  0
  3 15  1  0  0  0  0
  6 17  1  0  0  0  0
  7 12  1  0  0  0  0
  8 16  2  0  0  0  0
  8 19  1  0  0  0  0
  9 20  1  0  0  0  0
 10  8  1  0  0  0  0
 11  7  1  0  0  0  0
 11 13  2  0  0  0  0
 12  4  2  0  0  0  0
 12  5  1  0  0  0  0
 13 17  1  0  0  0  0
 13  4  1  0  0  0  0
 14  3  1  0  0  0  0
 14  1  1  0  0  0  0
 15  2  1  0  0  0  0
 15 11  1  0  0  0  0
 16 20  1  0  0  0  0
 18 19  1  0  0  0  0
 19 14  1  0  0  0  0
 20  3  1  0  0  0  0
 22 26  1  0  0  0  0
 22 25  1  0  0  0  0
 23 24  1  0  0  0  0
 23 21  1  0  0  0  0
 25 24  1  0  0  0  0
 26 27  1  0  0  0  0
 27 23  1  0  0  0  0
M  END
>  <MODEL>
5

>  <REMARK>
 VINA RESULT:      -5.2      3.754      6.932
  Name = 
  2 active torsions:
  status: ('A' for Active; 'I' for Inactive)
    1  A    between atoms: C_1  and  C_15
    2  A    between atoms: C_9  and  C_15
                            x       y       z     vdW  Elec       q    Type
                         _______ _______ _______ _____ _____    ______ ____

>  <TORSDO>
F 2

$$$$
=
 OpenBabel11052423193D

 27 32  0  0  1  0  0  0  0  0999 V2000
  160.8490  209.3860  152.9960 C   0  0  2  0  0  3  0  0  0  0  0  0
  160.8780  208.3000  151.9980 N   0  0  2  0  0  0  0  0  0  0  0  0
  161.7670  210.1550  150.9390 C   0  0  2  0  0  0  0  0  0  0  0  0
  161.4230  205.7080  148.8730 N   0  0  0  0  0  0  0  0  0  0  0  0
  162.1800  205.8280  146.4950 C   0  0  0  0  0  1  0  0  0  0  0  0
  161.1050  206.9340  152.4750 C   0  0  0  0  0  2  0  0  0  0  0  0
  162.3300  207.9960  148.2730 S   0  0  0  0  0  0  0  0  0  0  0  0
  160.1750  212.5320  150.8950 C   0  0  0  0  0  0  0  0  0  0  0  0
  162.9630  210.8980  150.3990 C   0  0  0  0  0  2  0  0  0  0  0  0
  159.5610  213.8890  150.9990 C   0  0  0  0  0  1  0  0  0  0  0  0
  161.7400  207.7920  149.8350 C   0  0  0  0  0  0  0  0  0  0  0  0
  161.9420  206.4120  147.8400 C   0  0  0  0  0  0  0  0  0  0  0  0
  161.3350  206.4710  149.9920 C   0  0  0  0  0  0  0  0  0  0  0  0
  161.1890  210.6840  152.2420 C   0  0  1  0  0  3  0  0  0  0  0  0
  161.9090  208.6610  151.0360 C   0  0  2  0  0  3  0  0  0  0  0  0
  160.9580  212.2610  149.8390 C   0  0  0  0  0  3  0  0  0  0  0  0
  160.8310  205.9430  151.3180 C   0  0  0  0  0  2  0  0  0  0  0  0
  159.4340  212.0530  153.1250 O   0  0  0  0  0  1  0  0  0  0  0  0
  159.9160  211.4760  151.9480 C   0  0  1  0  0  3  0  0  0  0  0  0
  161.6350  210.9270  149.6320 C   0  0  2  0  0  3  0  0  0  0  0  0
  161.7660  209.1590  154.2140 C   0  0  0  0  0  2  0  0  0  0  0  0
  159.7310  211.3780  157.2600 C   0  0  0  0  0  2  0  0  0  0  0  0
  161.2190  209.7250  155.5180 C   0  0  2  0  0  3  0  0  0  0  0  0
  159.7060  209.4700  155.5940 C   0  0  0  0  0  2  0  0  0  0  0  0
  158.9530  210.6880  156.1360 C   0  0  0  0  0  2  0  0  0  0  0  0
  161.2330  211.4640  156.9440 C   0  0  0  0  0  2  0  0  0  0  0  0
  161.5050  211.1000  155.6110 O   0  0  0  0  0  0  0  0  0  0  0  0
  1 21  1  1  0  0  0
  2  6  1  1  0  0  0
  2  1  1  0  0  0  0
  3  9  1  1  0  0  0
  3 15  1  0  0  0  0
  3 14  1  0  0  0  0
  4 13  1  0  0  0  0
  5 12  1  0  0  0  0
  7 11  1  0  0  0  0
  8 10  1  0  0  0  0
  8 19  1  0  0  0  0
 11 13  2  0  0  0  0
 11 15  1  0  0  0  0
 12  7  1  0  0  0  0
 12  4  2  0  0  0  0
 13 17  1  0  0  0  0
 14  1  1  0  0  0  0
 15  2  1  0  0  0  0
 16  8  2  0  0  0  0
 17  6  1  0  0  0  0
 19 14  1  0  0  0  0
 19 18  1  0  0  0  0
 20 16  1  0  0  0  0
 20  9  1  0  0  0  0
 20  3  1  0  0  0  0
 21 23  1  0  0  0  0
 23 24  1  0  0  0  0
 23 27  1  0  0  0  0
 24 25  1  0  0  0  0
 25 22  1  0  0  0  0
 26 22  1  0  0  0  0
 27 26  1  0  0  0  0
M  END
>  <MODEL>
6

>  <REMARK>
 VINA RESULT:      -5.1      2.773      6.689
  Name = 
  2 active torsions:
  status: ('A' for Active; 'I' for Inactive)
    1  A    between atoms: C_1  and  C_15
    2  A    between atoms: C_9  and  C_15
                            x       y       z     vdW  Elec       q    Type
                         _______ _______ _______ _____ _____    ______ ____

>  <TORSDO>
F 2

$$$$
=
 OpenBabel11052423193D

 27 32  0  0  1  0  0  0  0  0999 V2000
  161.5230  209.9220  152.3290 C   0  0  2  0  0  3  0  0  0  0  0  0
  161.7220  208.6030  151.6990 N   0  0  2  0  0  0  0  0  0  0  0  0
  160.8790  208.1740  153.8110 C   0  0  2  0  0  0  0  0  0  0  0  0
  161.8430  204.6950  150.4740 N   0  0  0  0  0  0  0  0  0  0  0  0
  161.4530  202.4410  151.4780 C   0  0  0  0  0  1  0  0  0  0  0  0
  161.5200  208.4940  150.2520 C   0  0  0  0  0  2  0  0  0  0  0  0
  160.8830  204.8440  152.8140 S   0  0  0  0  0  0  0  0  0  0  0  0
  162.2920  209.2820  156.0390 C   0  0  0  0  0  0  0  0  0  0  0  0
  159.7320  207.7550  154.6950 C   0  0  0  0  0  2  0  0  0  0  0  0
  162.7870  209.9850  157.2610 C   0  0  0  0  0  1  0  0  0  0  0  0
  161.2390  206.2940  152.0400 C   0  0  0  0  0  0  0  0  0  0  0  0
  161.4410  203.9260  151.5120 C   0  0  0  0  0  0  0  0  0  0  0  0
  161.7050  206.0160  150.7590 C   0  0  0  0  0  0  0  0  0  0  0  0
  161.2130  209.6580  153.8140 C   0  0  1  0  0  3  0  0  0  0  0  0
  160.8280  207.6850  152.3900 C   0  0  2  0  0  3  0  0  0  0  0  0
  161.7000  208.0860  156.1820 C   0  0  0  0  0  3  0  0  0  0  0  0
  162.0360  207.1160  149.7730 C   0  0  0  0  0  2  0  0  0  0  0  0
  162.7130  211.2670  154.7590 O   0  0  0  0  0  1  0  0  0  0  0  0
  162.4590  209.8970  154.6660 C   0  0  1  0  0  3  0  0  0  0  0  0
  161.1560  207.2890  155.0200 C   0  0  2  0  0  3  0  0  0  0  0  0
  160.4480  210.7960  151.6530 C   0  0  0  0  0  2  0  0  0  0  0  0
  158.0590  213.7330  153.6560 C   0  0  0  0  0  2  0  0  0  0  0  0
  159.9050  211.9100  152.5400 C   0  0  2  0  0  3  0  0  0  0  0  0
  158.8590  211.3340  153.5060 C   0  0  0  0  0  2  0  0  0  0  0  0
  157.6470  212.2580  153.6430 C   0  0  0  0  0  2  0  0  0  0  0  0
  159.1540  214.0280  152.6170 C   0  0  0  0  0  2  0  0  0  0  0  0
  159.3540  212.9370  151.7510 O   0  0  0  0  0  0  0  0  0  0  0  0
  1 21  1  6  0  0  0
  1 14  1  0  0  0  0
  2  6  1  6  0  0  0
  2  1  1  0  0  0  0
  2 15  1  0  0  0  0
  3 14  1  0  0  0  0
  3  9  1  1  0  0  0
  3 20  1  0  0  0  0
  4 13  1  0  0  0  0
  4 12  2  0  0  0  0
  5 12  1  0  0  0  0
  8 16  2  0  0  0  0
  8 10  1  0  0  0  0
  9 20  1  0  0  0  0
 11 15  1  0  0  0  0
 11  7  1  0  0  0  0
 12  7  1  0  0  0  0
 13 11  2  0  0  0  0
 14 19  1  0  0  0  0
 15  3  1  0  0  0  0
 17  6  1  0  0  0  0
 17 13  1  0  0  0  0
 19 18  1  0  0  0  0
 19  8  1  0  0  0  0
 20 16  1  0  0  0  0
 21 23  1  0  0  0  0
 23 24  1  0  0  0  0
 24 25  1  0  0  0  0
 25 22  1  0  0  0  0
 26 22  1  0  0  0  0
 27 23  1  0  0  0  0
 27 26  1  0  0  0  0
M  END
>  <MODEL>
7

>  <REMARK>
 VINA RESULT:      -4.5      2.876      5.585
  Name = 
  2 active torsions:
  status: ('A' for Active; 'I' for Inactive)
    1  A    between atoms: C_1  and  C_15
    2  A    between atoms: C_9  and  C_15
                            x       y       z     vdW  Elec       q    Type
                         _______ _______ _______ _____ _____    ______ ____

>  <TORSDO>
F 2

$$$$
