=
 OpenBabel11062409443D

 34 38  0  0  1  0  0  0  0  0999 V2000
  161.7280  207.7400  151.2680 C   0  0  0  0  0  0  0  0  0  0  0  0
  160.6400  205.3230  152.4870 C   0  0  0  0  0  2  0  0  0  0  0  0
  161.7550  206.5800  150.6080 C   0  0  0  0  0  3  0  0  0  0  0  0
  160.5640  206.6730  153.2250 C   0  0  1  0  0  3  0  0  0  0  0  0
  161.0730  207.6700  155.5330 C   0  0  0  0  0  2  0  0  0  0  0  0
  160.5810  206.4510  154.7420 C   0  0  0  0  0  2  0  0  0  0  0  0
  161.6940  205.2830  151.3650 C   0  0  2  0  0  3  0  0  0  0  0  0
  161.4700  209.0570  153.4650 C   0  0  0  0  0  2  0  0  0  0  0  0
  161.6350  207.6890  152.7790 C   0  0  2  0  0  3  0  0  0  0  0  0
  160.7410  208.9740  154.8100 C   0  0  0  0  0  2  0  0  0  0  0  0
  160.9960  201.7670  150.0840 C   0  0  0  0  0  3  0  0  0  0  0  0
  161.5230  204.3270  149.0650 C   0  0  0  0  0  3  0  0  0  0  0  0
  160.8820  201.0950  146.4990 C   0  0  0  0  0  0  0  0  0  0  0  0
  160.8400  200.9310  147.8500 N   0  0  0  0  0  0  0  0  0  0  0  0
  161.0470  201.9700  148.7030 C   0  0  0  0  0  0  0  0  0  0  0  0
  161.3610  203.4470  146.8120 C   0  0  0  0  0  3  0  0  0  0  0  0
  161.3140  203.2580  148.1920 C   0  0  0  0  0  0  0  0  0  0  0  0
  161.1440  202.3630  145.9580 C   0  0  0  0  0  3  0  0  0  0  0  0
  161.4690  204.1240  150.4490 C   0  0  0  0  0  0  0  0  0  0  0  0
  161.2080  202.8400  150.9550 C   0  0  0  0  0  3  0  0  0  0  0  0
  159.8750  200.0420  144.6250 O   0  0  0  0  0  0  0  0  0  0  0  0
  160.6450  199.9430  145.6170 C   0  0  0  0  0  0  0  0  0  0  0  0
  161.2630  198.7260  145.8830 O   0  0  0  0  0  1  0  0  0  0  0  0
  161.9910  210.2880  148.2650 C   0  0  0  0  0  2  0  0  0  0  0  0
  162.4680  207.9610  148.4830 O   0  0  0  0  0  0  0  0  0  0  0  0
  161.8840  211.5310  149.1140 C   0  0  0  0  0  0  0  0  0  0  0  0
  161.6670  211.4540  150.4350 C   0  0  0  0  0  3  0  0  0  0  0  0
  162.1070  209.0190  149.0640 C   0  0  0  0  0  0  0  0  0  0  0  0
  161.5840  210.1650  151.1420 C   0  0  0  0  0  3  0  0  0  0  0  0
  161.7760  209.0060  150.5060 C   0  0  0  0  0  0  0  0  0  0  0  0
  161.3060  213.1800  147.2290 C   0  0  0  0  0  0  0  0  0  0  0  0
  161.5100  214.4530  146.7160 O   0  0  0  0  0  1  0  0  0  0  0  0
  160.5440  212.3830  146.6210 O   0  0  0  0  0  0  0  0  0  0  0  0
  161.9640  212.7980  148.4460 N   0  0  0  0  0  2  0  0  0  0  0  0
  1  9  1  0  0  0  0
  3  1  2  0  0  0  0
  3  7  1  0  0  0  0
  4  2  1  6  0  0  0
  4  6  1  0  0  0  0
  6  5  1  0  0  0  0
  7 19  1  6  0  0  0
  7  2  1  0  0  0  0
  8 10  1  0  0  0  0
  9  4  1  0  0  0  0
  9  8  1  6  0  0  0
 10  5  1  0  0  0  0
 11 20  1  0  0  0  0
 12 19  1  0  0  0  0
 13 14  2  0  0  0  0
 14 15  1  0  0  0  0
 15 11  2  0  0  0  0
 16 17  1  0  0  0  0
 17 15  1  0  0  0  0
 17 12  2  0  0  0  0
 18 13  1  0  0  0  0
 18 16  2  0  0  0  0
 19 20  2  0  0  0  0
 21 22  2  0  0  0  0
 22 23  1  0  0  0  0
 22 13  1  0  0  0  0
 24 28  1  0  0  0  0
 24 26  1  0  0  0  0
 25 28  2  0  0  0  0
 26 27  2  0  0  0  0
 27 29  1  0  0  0  0
 28 30  1  0  0  0  0
 30 29  2  0  0  0  0
 30  1  1  0  0  0  0
 31 34  1  0  0  0  0
 32 31  1  0  0  0  0
 33 31  2  0  0  0  0
 34 26  1  0  0  0  0
M  END
>  <MODEL>
1

>  <REMARK>
 VINA RESULT:      -9.6      0.000      0.000
  Name = 
  4 active torsions:
  status: ('A' for Active; 'I' for Inactive)
    1  A    between atoms: C_1  and  C_34
    2  A    between atoms: CA_7  and  C_15
    3  A    between atoms: C_18  and  C_30
    4  A    between atoms: C_23  and  N_25
                            x       y       z     vdW  Elec       q    Type
                         _______ _______ _______ _____ _____    ______ ____

>  <TORSDO>
F 4

$$$$
=
 OpenBabel11062409443D

 34 38  0  0  1  0  0  0  0  0999 V2000
  161.5820  208.0770  151.9630 C   0  0  0  0  0  0  0  0  0  0  0  0
  160.6840  205.5610  153.1380 C   0  0  0  0  0  2  0  0  0  0  0  0
  161.6340  206.9450  151.2560 C   0  0  0  0  0  3  0  0  0  0  0  0
  160.5770  206.8770  153.9320 C   0  0  1  0  0  3  0  0  0  0  0  0
  161.1530  207.8140  156.2490 C   0  0  0  0  0  2  0  0  0  0  0  0
  160.6850  206.6000  155.4360 C   0  0  0  0  0  2  0  0  0  0  0  0
  161.6790  205.6200  151.9640 C   0  0  2  0  0  3  0  0  0  0  0  0
  161.3700  209.2960  154.2210 C   0  0  0  0  0  2  0  0  0  0  0  0
  161.5700  207.9650  153.4730 C   0  0  2  0  0  3  0  0  0  0  0  0
  160.7170  209.1230  155.5960 C   0  0  0  0  0  2  0  0  0  0  0  0
  160.9840  202.1410  150.5820 C   0  0  0  0  0  3  0  0  0  0  0  0
  161.5550  204.7210  149.6380 C   0  0  0  0  0  3  0  0  0  0  0  0
  160.9490  201.5580  146.9790 C   0  0  0  0  0  0  0  0  0  0  0  0
  160.8750  201.3620  148.3250 N   0  0  0  0  0  0  0  0  0  0  0  0
  161.0690  202.3770  149.2080 C   0  0  0  0  0  0  0  0  0  0  0  0
  161.4400  203.8970  147.3600 C   0  0  0  0  0  3  0  0  0  0  0  0
  161.3590  203.6750  148.7340 C   0  0  0  0  0  0  0  0  0  0  0  0
  161.2340  202.8360  146.4760 C   0  0  0  0  0  3  0  0  0  0  0  0
  161.4670  204.4850  151.0150 C   0  0  0  0  0  0  0  0  0  0  0  0
  161.1840  203.1910  151.4830 C   0  0  0  0  0  3  0  0  0  0  0  0
  161.2330  199.3020  146.3010 O   0  0  0  0  0  1  0  0  0  0  0  0
  160.7240  200.4290  146.0640 C   0  0  0  0  0  0  0  0  0  0  0  0
  159.9570  200.6050  144.9190 O   0  0  0  0  0  0  0  0  0  0  0  0
  160.6290  211.7910  151.0260 C   0  0  0  0  0  2  0  0  0  0  0  0
  159.6970  210.1930  152.5330 O   0  0  0  0  0  0  0  0  0  0  0  0
  161.4620  211.8470  149.7700 C   0  0  0  0  0  0  0  0  0  0  0  0
  162.2520  210.8230  149.4150 C   0  0  0  0  0  3  0  0  0  0  0  0
  160.5650  210.4230  151.6490 C   0  0  0  0  0  0  0  0  0  0  0  0
  162.3050  209.5690  150.1850 C   0  0  0  0  0  3  0  0  0  0  0  0
  161.5250  209.3710  151.2500 C   0  0  0  0  0  0  0  0  0  0  0  0
  161.0980  213.1950  147.6130 C   0  0  0  0  0  0  0  0  0  0  0  0
  161.1260  214.4530  147.0270 O   0  0  0  0  0  1  0  0  0  0  0  0
  160.7810  212.1950  146.9150 O   0  0  0  0  0  0  0  0  0  0  0  0
  161.4250  213.0590  149.0030 N   0  0  0  0  0  2  0  0  0  0  0  0
  1  9  1  0  0  0  0
  3  1  2  0  0  0  0
  3  7  1  0  0  0  0
  4  2  1  6  0  0  0
  4  6  1  0  0  0  0
  6  5  1  0  0  0  0
  7 19  1  6  0  0  0
  7  2  1  0  0  0  0
  8 10  1  0  0  0  0
  9  4  1  0  0  0  0
  9  8  1  1  0  0  0
 10  5  1  0  0  0  0
 11 20  1  0  0  0  0
 12 19  1  0  0  0  0
 13 14  2  0  0  0  0
 14 15  1  0  0  0  0
 15 11  2  0  0  0  0
 16 17  1  0  0  0  0
 17 15  1  0  0  0  0
 17 12  2  0  0  0  0
 18 13  1  0  0  0  0
 18 16  2  0  0  0  0
 19 20  2  0  0  0  0
 22 21  1  0  0  0  0
 22 13  1  0  0  0  0
 23 22  2  0  0  0  0
 24 28  1  0  0  0  0
 26 24  1  0  0  0  0
 27 26  2  0  0  0  0
 27 29  1  0  0  0  0
 28 25  2  0  0  0  0
 29 30  2  0  0  0  0
 30 28  1  0  0  0  0
 30  1  1  0  0  0  0
 31 34  1  0  0  0  0
 32 31  1  0  0  0  0
 33 31  2  0  0  0  0
 34 26  1  0  0  0  0
M  END
>  <MODEL>
2

>  <REMARK>
 VINA RESULT:      -9.3      1.181      1.534
  Name = 
  4 active torsions:
  status: ('A' for Active; 'I' for Inactive)
    1  A    between atoms: C_1  and  C_34
    2  A    between atoms: CA_7  and  C_15
    3  A    between atoms: C_18  and  C_30
    4  A    between atoms: C_23  and  N_25
                            x       y       z     vdW  Elec       q    Type
                         _______ _______ _______ _____ _____    ______ ____

>  <TORSDO>
F 4

$$$$
=
 OpenBabel11062409443D

 34 38  0  0  1  0  0  0  0  0999 V2000
  161.2360  211.6110  149.6840 C   0  0  0  0  0  0  0  0  0  0  0  0
  160.0760  210.1800  151.9460 C   0  0  0  0  0  2  0  0  0  0  0  0
  161.4720  210.3070  149.8510 C   0  0  0  0  0  3  0  0  0  0  0  0
  159.7640  211.6710  151.7210 C   0  0  1  0  0  3  0  0  0  0  0  0
  159.7210  213.8780  153.0280 C   0  0  0  0  0  2  0  0  0  0  0  0
  159.4820  212.3630  153.0600 C   0  0  0  0  0  2  0  0  0  0  0  0
  161.3380  209.6890  151.2150 C   0  0  2  0  0  3  0  0  0  0  0  0
  160.4470  213.8780  150.6130 C   0  0  0  0  0  2  0  0  0  0  0  0
  160.8370  212.4160  150.9020 C   0  0  2  0  0  3  0  0  0  0  0  0
  159.4630  214.4530  151.6370 C   0  0  0  0  0  2  0  0  0  0  0  0
  161.7010  206.0310  152.2050 C   0  0  0  0  0  3  0  0  0  0  0  0
  161.1330  207.5620  149.9230 C   0  0  0  0  0  3  0  0  0  0  0  0
  161.2380  203.3910  149.7270 C   0  0  0  0  0  0  0  0  0  0  0  0
  161.4790  204.0400  150.9000 N   0  0  0  0  0  0  0  0  0  0  0  0
  161.4510  205.3970  150.9860 C   0  0  0  0  0  0  0  0  0  0  0  0
  160.9180  205.5230  148.6280 C   0  0  0  0  0  3  0  0  0  0  0  0
  161.1670  206.1680  149.8380 C   0  0  0  0  0  0  0  0  0  0  0  0
  160.9520  204.1290  148.5690 C   0  0  0  0  0  3  0  0  0  0  0  0
  161.3820  208.1970  151.1460 C   0  0  0  0  0  0  0  0  0  0  0  0
  161.6690  207.4260  152.2850 C   0  0  0  0  0  3  0  0  0  0  0  0
  161.2220  201.2510  150.7520 O   0  0  0  0  0  1  0  0  0  0  0  0
  161.2730  201.9220  149.6870 C   0  0  0  0  0  0  0  0  0  0  0  0
  161.3780  201.2630  148.4680 O   0  0  0  0  0  0  0  0  0  0  0  0
  162.8100  213.0710  146.3710 C   0  0  0  0  0  2  0  0  0  0  0  0
  163.6940  212.6120  148.5390 O   0  0  0  0  0  0  0  0  0  0  0  0
  161.4930  213.3720  145.7000 C   0  0  0  0  0  0  0  0  0  0  0  0
  160.3280  213.0300  146.2710 C   0  0  0  0  0  3  0  0  0  0  0  0
  162.6710  212.6300  147.8030 C   0  0  0  0  0  0  0  0  0  0  0  0
  160.2610  212.4060  147.6030 C   0  0  0  0  0  3  0  0  0  0  0  0
  161.3600  212.1990  148.3330 C   0  0  0  0  0  0  0  0  0  0  0  0
  161.4060  213.3260  143.1320 C   0  0  0  0  0  0  0  0  0  0  0  0
  161.4860  214.0770  141.9680 O   0  0  0  0  0  0  0  0  0  0  0  0
  161.2180  212.0830  143.0540 O   0  0  0  0  0  1  0  0  0  0  0  0
  161.5340  213.9810  144.4020 N   0  0  0  0  0  2  0  0  0  0  0  0
  1  3  2  0  0  0  0
  1  9  1  0  0  0  0
  3  7  1  0  0  0  0
  4  2  1  1  0  0  0
  4  6  1  0  0  0  0
  5  6  1  0  0  0  0
  7 19  1  6  0  0  0
  7  2  1  0  0  0  0
  8 10  1  0  0  0  0
  9  8  1  6  0  0  0
  9  4  1  0  0  0  0
 10  5  1  0  0  0  0
 11 20  1  0  0  0  0
 12 19  1  0  0  0  0
 13 14  2  0  0  0  0
 14 15  1  0  0  0  0
 15 11  2  0  0  0  0
 16 17  1  0  0  0  0
 17 12  2  0  0  0  0
 17 15  1  0  0  0  0
 18 16  2  0  0  0  0
 18 13  1  0  0  0  0
 19 20  2  0  0  0  0
 22 13  1  0  0  0  0
 22 21  1  0  0  0  0
 23 22  2  0  0  0  0
 24 28  1  0  0  0  0
 26 27  2  0  0  0  0
 26 24  1  0  0  0  0
 27 29  1  0  0  0  0
 28 30  1  0  0  0  0
 28 25  2  0  0  0  0
 29 30  2  0  0  0  0
 30  1  1  0  0  0  0
 31 34  1  0  0  0  0
 32 31  2  0  0  0  0
 33 31  1  0  0  0  0
 34 26  1  0  0  0  0
M  END
>  <MODEL>
3

>  <REMARK>
 VINA RESULT:      -7.4      2.608      4.579
  Name = 
  4 active torsions:
  status: ('A' for Active; 'I' for Inactive)
    1  A    between atoms: C_1  and  C_34
    2  A    between atoms: CA_7  and  C_15
    3  A    between atoms: C_18  and  C_30
    4  A    between atoms: C_23  and  N_25
                            x       y       z     vdW  Elec       q    Type
                         _______ _______ _______ _____ _____    ______ ____

>  <TORSDO>
F 4

$$$$
