=
 OpenBabel11062410393D

 32 36  0  0  1  0  0  0  0  0999 V2000
  161.1930  208.7630  151.7550 C   0  0  2  0  0  3  0  0  0  0  0  0
  160.8950  207.0360  156.4720 C   0  0  0  0  0  2  0  0  0  0  0  0
  161.5550  208.3220  156.9580 C   0  0  0  0  0  2  0  0  0  0  0  0
  161.3540  211.2400  151.4360 C   0  0  0  0  0  0  0  0  0  0  0  0
  160.0430  211.8370  151.6810 C   0  0  0  0  0  0  0  0  0  0  0  0
  161.2370  207.1570  149.8580 C   0  0  0  0  0  0  0  0  0  0  0  0
  160.8520  206.3230  152.1250 C   0  0  0  0  0  3  0  0  0  0  0  0
  158.1200  212.0930  152.6890 C   0  0  0  0  0  0  0  0  0  0  0  0
  161.3490  206.7270  155.0490 C   0  0  0  0  0  2  0  0  0  0  0  0
  161.4660  207.5780  152.6910 C   0  0  2  0  0  3  0  0  0  0  0  0
  160.9570  207.8650  154.1020 C   0  0  2  0  0  3  0  0  0  0  0  0
  161.2550  210.3160  153.7190 N   0  0  2  0  0  0  0  0  0  0  0  0
  158.1070  212.8370  151.5980 O   0  0  0  0  0  0  0  0  0  0  0  0
  161.2070  206.9630  148.5670 C   0  0  0  0  0  0  0  0  0  0  0  0
  160.7810  206.1080  150.8080 C   0  0  0  0  0  0  0  0  0  0  0  0
  159.2570  212.7080  150.9500 C   0  0  0  0  0  3  0  0  0  0  0  0
  161.1780  206.7690  147.2740 C   0  0  0  0  0  3  0  0  0  0  0  0
  161.1760  209.4840  156.0470 C   0  0  0  0  0  2  0  0  0  0  0  0
  161.5780  209.1840  154.5990 C   0  0  1  0  0  3  0  0  0  0  0  0
  159.8560  210.5560  153.7310 N   0  0  0  0  0  2  0  0  0  0  0  0
  161.7920  208.4500  150.3810 C   0  0  0  0  0  2  0  0  0  0  0  0
  162.0910  211.6290  150.4940 O   0  0  0  0  0  0  0  0  0  0  0  0
  156.9970  211.9860  153.6580 C   0  0  0  0  0  1  0  0  0  0  0  0
  161.7510  210.0800  152.3320 C   0  0  1  0  0  3  0  0  0  0  0  0
  159.3300  211.4610  152.7640 C   0  0  0  0  0  0  0  0  0  0  0  0
  161.9410  205.6730  146.5860 C   0  0  0  0  0  2  0  0  0  0  0  0
  161.4720  205.4370  145.2270 N   0  0  0  0  0  0  0  0  0  0  0  0
  160.3170  206.1270  145.0800 O   0  0  0  0  0  1  0  0  0  0  0  0
  161.1270  204.0290  145.1450 C   0  0  0  0  0  1  0  0  0  0  0  0
  160.2090  204.8150  150.3260 C   0  0  0  0  0  2  0  0  0  0  0  0
  160.8820  203.1210  149.0840 C   0  0  0  0  0  1  0  0  0  0  0  0
  161.2230  203.8640  150.2140 O   0  0  0  0  0  0  0  0  0  0  0  0
  1 21  1  6  0  0  0
  1 24  1  0  0  0  0
  1 10  1  0  0  0  0
  2  3  1  0  0  0  0
  4  5  1  0  0  0  0
  5 25  1  0  0  0  0
  6 21  1  0  0  0  0
  6 15  1  0  0  0  0
  8 25  2  0  0  0  0
  8 23  1  0  0  0  0
  9  2  1  0  0  0  0
 10  7  1  6  0  0  0
 10 11  1  0  0  0  0
 11 19  1  0  0  0  0
 11  9  1  1  0  0  0
 12 20  1  6  0  0  0
 12 19  1  0  0  0  0
 13  8  1  0  0  0  0
 14  6  2  0  0  0  0
 15  7  2  0  0  0  0
 16 13  1  0  0  0  0
 16  5  2  0  0  0  0
 17 14  2  0  0  0  0
 18  3  1  0  0  0  0
 19 18  1  1  0  0  0
 22  4  2  0  0  0  0
 24  4  1  6  0  0  0
 24 12  1  0  0  0  0
 25 20  1  0  0  0  0
 26 17  1  0  0  0  0
 27 26  1  0  0  0  0
 28 27  1  0  0  0  0
 29 27  1  0  0  0  0
 30 15  1  0  0  0  0
 31 32  1  0  0  0  0
 32 30  1  0  0  0  0
M  END
>  <MODEL>
1

>  <REMARK>
 VINA RESULT:      -7.1      0.000      0.000
  Name = 
  4 active torsions:
  status: ('A' for Active; 'I' for Inactive)
    1  A    between atoms: N_1  and  C_10
    2  A    between atoms: C_10  and  C_23
    3  A    between atoms: C_12  and  C_21
    4  A    between atoms: C_12  and  O_24
                            x       y       z     vdW  Elec       q    Type
                         _______ _______ _______ _____ _____    ______ ____

>  <TORSDO>
F 4

$$$$
=
 OpenBabel11062410393D

 32 36  0  0  1  0  0  0  0  0999 V2000
  161.6150  209.1980  150.3150 C   0  0  2  0  0  3  0  0  0  0  0  0
  160.6190  208.5750  155.2080 C   0  0  0  0  0  2  0  0  0  0  0  0
  161.4110  209.8440  155.5050 C   0  0  0  0  0  2  0  0  0  0  0  0
  162.1660  211.5090  149.5300 C   0  0  0  0  0  0  0  0  0  0  0  0
  160.9390  212.3010  149.4860 C   0  0  0  0  0  0  0  0  0  0  0  0
  161.6040  207.2280  148.7980 C   0  0  0  0  0  0  0  0  0  0  0  0
  160.8870  206.9550  151.1200 C   0  0  0  0  0  3  0  0  0  0  0  0
  158.9870  213.0030  150.1760 C   0  0  0  0  0  0  0  0  0  0  0  0
  161.1570  207.9140  153.9430 C   0  0  0  0  0  2  0  0  0  0  0  0
  161.6210  208.2170  151.4950 C   0  0  2  0  0  3  0  0  0  0  0  0
  161.0280  208.8610  152.7470 C   0  0  2  0  0  3  0  0  0  0  0  0
  161.7160  211.1160  151.9210 N   0  0  2  0  0  0  0  0  0  0  0  0
  159.1870  213.4910  148.9660 O   0  0  0  0  0  0  0  0  0  0  0  0
  161.6690  206.7670  147.5770 C   0  0  0  0  0  0  0  0  0  0  0  0
  160.9120  206.4720  149.8740 C   0  0  0  0  0  0  0  0  0  0  0  0
  160.3630  213.0850  148.5040 C   0  0  0  0  0  3  0  0  0  0  0  0
  161.7360  206.3040  146.3560 C   0  0  0  0  0  3  0  0  0  0  0  0
  161.2950  210.8210  154.3400 C   0  0  0  0  0  2  0  0  0  0  0  0
  161.7840  210.1690  153.0430 C   0  0  1  0  0  3  0  0  0  0  0  0
  160.3720  211.5240  151.7120 N   0  0  0  0  0  2  0  0  0  0  0  0
  162.2900  208.5250  149.1170 C   0  0  0  0  0  2  0  0  0  0  0  0
  163.0390  211.5920  148.6270 O   0  0  0  0  0  0  0  0  0  0  0  0
  157.7730  213.2450  151.0010 C   0  0  0  0  0  1  0  0  0  0  0  0
  162.3020  210.5280  150.6810 C   0  0  1  0  0  3  0  0  0  0  0  0
  160.0790  212.2580  150.5250 C   0  0  0  0  0  0  0  0  0  0  0  0
  162.3930  205.0010  146.0010 C   0  0  0  0  0  2  0  0  0  0  0  0
  161.6560  204.2660  144.9800 N   0  0  0  0  0  0  0  0  0  0  0  0
  160.5690  205.0080  144.6640 O   0  0  0  0  0  1  0  0  0  0  0  0
  161.1640  203.0560  145.6120 C   0  0  0  0  0  1  0  0  0  0  0  0
  160.2050  205.1860  149.5930 C   0  0  0  0  0  2  0  0  0  0  0  0
  160.8870  203.1030  149.3480 C   0  0  0  0  0  1  0  0  0  0  0  0
  160.8340  204.1440  150.2750 O   0  0  0  0  0  0  0  0  0  0  0  0
  1 21  1  6  0  0  0
  1 24  1  0  0  0  0
  1 10  1  0  0  0  0
  2  3  1  0  0  0  0
  5  4  1  0  0  0  0
  5 25  1  0  0  0  0
  6 21  1  0  0  0  0
  6 15  1  0  0  0  0
  8 25  2  0  0  0  0
  8 23  1  0  0  0  0
  9  2  1  0  0  0  0
 10  7  1  6  0  0  0
 10 11  1  0  0  0  0
 11 19  1  0  0  0  0
 11  9  1  1  0  0  0
 12 20  1  6  0  0  0
 12 19  1  0  0  0  0
 13  8  1  0  0  0  0
 14  6  2  0  0  0  0
 15  7  2  0  0  0  0
 16 13  1  0  0  0  0
 16  5  2  0  0  0  0
 17 14  2  0  0  0  0
 18  3  1  0  0  0  0
 19 18  1  1  0  0  0
 22  4  2  0  0  0  0
 24  4  1  6  0  0  0
 24 12  1  0  0  0  0
 25 20  1  0  0  0  0
 26 17  1  0  0  0  0
 27 29  1  0  0  0  0
 27 26  1  0  0  0  0
 28 27  1  0  0  0  0
 30 15  1  0  0  0  0
 30 32  1  0  0  0  0
 31 32  1  0  0  0  0
M  END
>  <MODEL>
2

>  <REMARK>
 VINA RESULT:      -6.7      1.492      1.829
  Name = 
  4 active torsions:
  status: ('A' for Active; 'I' for Inactive)
    1  A    between atoms: N_1  and  C_10
    2  A    between atoms: C_10  and  C_23
    3  A    between atoms: C_12  and  C_21
    4  A    between atoms: C_12  and  O_24
                            x       y       z     vdW  Elec       q    Type
                         _______ _______ _______ _____ _____    ______ ____

>  <TORSDO>
F 4

$$$$
=
 OpenBabel11062410393D

 32 36  0  0  1  0  0  0  0  0999 V2000
  160.5550  211.8100  150.7530 C   0  0  2  0  0  3  0  0  0  0  0  0
  161.2640  214.0150  146.2860 C   0  0  0  0  0  2  0  0  0  0  0  0
  162.7370  213.6270  146.3560 C   0  0  0  0  0  2  0  0  0  0  0  0
  162.1850  210.0410  151.4430 C   0  0  0  0  0  0  0  0  0  0  0  0
  161.9140  208.8230  150.6830 C   0  0  0  0  0  0  0  0  0  0  0  0
  158.6710  212.5420  152.2000 C   0  0  0  0  0  0  0  0  0  0  0  0
  158.8650  213.4490  149.9370 C   0  0  0  0  0  3  0  0  0  0  0  0
  161.3790  207.6410  148.9230 C   0  0  0  0  0  0  0  0  0  0  0  0
  160.7070  214.1870  147.6950 C   0  0  0  0  0  2  0  0  0  0  0  0
  160.3250  213.0720  149.9110 C   0  0  2  0  0  3  0  0  0  0  0  0
  160.8290  212.8790  148.4830 C   0  0  2  0  0  3  0  0  0  0  0  0
  162.4950  211.2020  149.2910 N   0  0  2  0  0  0  0  0  0  0  0  0
  161.4000  206.8290  149.9630 O   0  0  0  0  0  0  0  0  0  0  0  0
  157.9600  212.3490  153.2790 C   0  0  0  0  0  0  0  0  0  0  0  0
  158.1040  213.2400  151.0160 C   0  0  0  0  0  0  0  0  0  0  0  0
  161.7150  207.5070  151.0590 C   0  0  0  0  0  3  0  0  0  0  0  0
  157.2490  212.1580  154.3600 C   0  0  0  0  0  3  0  0  0  0  0  0
  162.8990  212.3190  147.1220 C   0  0  0  0  0  2  0  0  0  0  0  0
  162.3060  212.4440  148.5290 C   0  0  1  0  0  3  0  0  0  0  0  0
  161.8290  210.1280  148.6420 N   0  0  0  0  0  2  0  0  0  0  0  0
  160.1020  212.0900  152.1890 C   0  0  0  0  0  2  0  0  0  0  0  0
  162.4760  210.0050  152.6670 O   0  0  0  0  0  0  0  0  0  0  0  0
  161.0600  207.2310  147.5290 C   0  0  0  0  0  1  0  0  0  0  0  0
  162.0270  211.3550  150.7000 C   0  0  1  0  0  3  0  0  0  0  0  0
  161.7060  208.8980  149.3520 C   0  0  0  0  0  0  0  0  0  0  0  0
  156.6650  213.2770  155.1730 C   0  0  0  0  0  2  0  0  0  0  0  0
  156.5310  212.9300  156.5830 N   0  0  0  0  0  0  0  0  0  0  0  0
  157.7560  212.5550  157.0170 O   0  0  0  0  0  1  0  0  0  0  0  0
  155.6900  211.7490  156.6420 C   0  0  0  0  0  1  0  0  0  0  0  0
  156.6810  213.6910  150.9840 C   0  0  0  0  0  2  0  0  0  0  0  0
  155.0050  214.3580  149.7150 C   0  0  0  0  0  1  0  0  0  0  0  0
  156.1990  213.6380  149.6760 O   0  0  0  0  0  0  0  0  0  0  0  0
  1 21  1  1  0  0  0
  2  3  1  0  0  0  0
  2  9  1  0  0  0  0
  3 18  1  0  0  0  0
  4 22  2  0  0  0  0
  5 16  2  0  0  0  0
  5  4  1  0  0  0  0
  6 14  2  0  0  0  0
  7 15  2  0  0  0  0
  8 25  2  0  0  0  0
  8 13  1  0  0  0  0
 10  7  1  6  0  0  0
 10  1  1  0  0  0  0
 11  9  1  6  0  0  0
 11 19  1  0  0  0  0
 11 10  1  0  0  0  0
 12 20  1  6  0  0  0
 12 24  1  0  0  0  0
 13 16  1  0  0  0  0
 14 17  2  0  0  0  0
 15  6  1  0  0  0  0
 17 26  1  0  0  0  0
 19 18  1  6  0  0  0
 19 12  1  0  0  0  0
 20 25  1  0  0  0  0
 21  6  1  0  0  0  0
 23  8  1  0  0  0  0
 24  1  1  0  0  0  0
 24  4  1  1  0  0  0
 25  5  1  0  0  0  0
 26 27  1  0  0  0  0
 27 29  1  0  0  0  0
 27 28  1  0  0  0  0
 30 15  1  0  0  0  0
 32 31  1  0  0  0  0
 32 30  1  0  0  0  0
M  END
>  <MODEL>
3

>  <REMARK>
 VINA RESULT:      -4.8      3.178      8.744
  Name = 
  4 active torsions:
  status: ('A' for Active; 'I' for Inactive)
    1  A    between atoms: N_1  and  C_10
    2  A    between atoms: C_10  and  C_23
    3  A    between atoms: C_12  and  C_21
    4  A    between atoms: C_12  and  O_24
                            x       y       z     vdW  Elec       q    Type
                         _______ _______ _______ _____ _____    ______ ____

>  <TORSDO>
F 4

$$$$
=
 OpenBabel11062410393D

 32 36  0  0  1  0  0  0  0  0999 V2000
  160.3220  210.9180  153.2960 C   0  0  2  0  0  3  0  0  0  0  0  0
  160.9550  206.7130  155.9850 C   0  0  0  0  0  2  0  0  0  0  0  0
  160.8210  207.5380  157.2610 C   0  0  0  0  0  2  0  0  0  0  0  0
  159.1360  212.8280  154.3940 C   0  0  0  0  0  0  0  0  0  0  0  0
  157.7070  212.5290  154.4540 C   0  0  0  0  0  0  0  0  0  0  0  0
  161.2340  211.0500  150.9870 C   0  0  0  0  0  0  0  0  0  0  0  0
  161.3360  208.9260  152.1950 C   0  0  0  0  0  3  0  0  0  0  0  0
  155.9360  211.2750  154.7260 C   0  0  0  0  0  0  0  0  0  0  0  0
  161.5160  207.5810  154.8640 C   0  0  0  0  0  2  0  0  0  0  0  0
  161.1790  209.6620  153.5020 C   0  0  2  0  0  3  0  0  0  0  0  0
  160.5840  208.7630  154.5840 C   0  0  2  0  0  3  0  0  0  0  0  0
  159.5280  210.7530  155.6650 N   0  0  2  0  0  0  0  0  0  0  0  0
  155.5370  212.4430  154.2560 O   0  0  0  0  0  0  0  0  0  0  0  0
  161.3230  211.7130  149.8640 C   0  0  0  0  0  0  0  0  0  0  0  0
  161.4030  209.5740  151.0280 C   0  0  0  0  0  0  0  0  0  0  0  0
  156.5830  213.2370  154.0710 C   0  0  0  0  0  3  0  0  0  0  0  0
  161.4130  212.3760  148.7410 C   0  0  0  0  0  3  0  0  0  0  0  0
  159.8870  208.7200  157.0260 C   0  0  0  0  0  2  0  0  0  0  0  0
  160.3990  209.5870  155.8720 C   0  0  1  0  0  3  0  0  0  0  0  0
  158.2170  210.3250  155.3260 N   0  0  0  0  0  2  0  0  0  0  0  0
  161.0070  211.8130  152.2590 C   0  0  0  0  0  2  0  0  0  0  0  0
  159.5580  213.9780  154.1090 O   0  0  0  0  0  0  0  0  0  0  0  0
  155.0370  210.1350  155.0480 C   0  0  0  0  0  1  0  0  0  0  0  0
  160.0850  211.6650  154.6230 C   0  0  1  0  0  3  0  0  0  0  0  0
  157.2970  211.3100  154.8640 C   0  0  0  0  0  0  0  0  0  0  0  0
  162.6500  212.3930  147.8890 C   0  0  0  0  0  2  0  0  0  0  0  0
  162.4300  213.0400  146.6020 N   0  0  0  0  0  0  0  0  0  0  0  0
  162.6920  214.3570  146.7700 O   0  0  0  0  0  1  0  0  0  0  0  0
  161.0100  212.9320  146.3190 C   0  0  0  0  0  1  0  0  0  0  0  0
  161.6150  208.7780  149.7810 C   0  0  0  0  0  2  0  0  0  0  0  0
  161.2260  206.8990  148.6940 C   0  0  0  0  0  1  0  0  0  0  0  0
  161.1020  207.4920  149.9500 O   0  0  0  0  0  0  0  0  0  0  0  0
  1 21  1  6  0  0  0
  1 10  1  0  0  0  0
  1 24  1  0  0  0  0
  2  3  1  0  0  0  0
  4  5  1  0  0  0  0
  5 25  1  0  0  0  0
  6 15  1  0  0  0  0
  6 21  1  0  0  0  0
  8 25  2  0  0  0  0
  8 23  1  0  0  0  0
  9  2  1  0  0  0  0
 10  7  1  6  0  0  0
 10 11  1  0  0  0  0
 11  9  1  1  0  0  0
 11 19  1  0  0  0  0
 12 20  1  6  0  0  0
 12 19  1  0  0  0  0
 13  8  1  0  0  0  0
 14  6  2  0  0  0  0
 15  7  2  0  0  0  0
 16 13  1  0  0  0  0
 16  5  2  0  0  0  0
 17 14  2  0  0  0  0
 18  3  1  0  0  0  0
 19 18  1  1  0  0  0
 22  4  2  0  0  0  0
 24  4  1  6  0  0  0
 24 12  1  0  0  0  0
 25 20  1  0  0  0  0
 26 17  1  0  0  0  0
 27 28  1  0  0  0  0
 27 26  1  0  0  0  0
 29 27  1  0  0  0  0
 30 32  1  0  0  0  0
 30 15  1  0  0  0  0
 31 32  1  0  0  0  0
M  END
>  <MODEL>
4

>  <REMARK>
 VINA RESULT:      -4.6      2.668      4.252
  Name = 
  4 active torsions:
  status: ('A' for Active; 'I' for Inactive)
    1  A    between atoms: N_1  and  C_10
    2  A    between atoms: C_10  and  C_23
    3  A    between atoms: C_12  and  C_21
    4  A    between atoms: C_12  and  O_24
                            x       y       z     vdW  Elec       q    Type
                         _______ _______ _______ _____ _____    ______ ____

>  <TORSDO>
F 4

$$$$
=
 OpenBabel11062410393D

 32 36  0  0  1  0  0  0  0  0999 V2000
  160.7000  209.0260  152.8730 C   0  0  2  0  0  3  0  0  0  0  0  0
  160.1450  213.6930  151.0740 C   0  0  0  0  0  2  0  0  0  0  0  0
  159.2600  214.0220  152.2720 C   0  0  0  0  0  2  0  0  0  0  0  0
  160.3470  208.6810  155.3260 C   0  0  0  0  0  0  0  0  0  0  0  0
  161.5000  209.2080  156.0510 C   0  0  0  0  0  0  0  0  0  0  0  0
  161.2450  207.1660  151.3170 C   0  0  0  0  0  0  0  0  0  0  0  0
  161.2130  209.4610  150.4740 C   0  0  0  0  0  3  0  0  0  0  0  0
  163.1190  210.6140  156.4840 C   0  0  0  0  0  0  0  0  0  0  0  0
  160.0480  212.2050  150.7530 C   0  0  0  0  0  2  0  0  0  0  0  0
  160.3580  209.8790  151.6440 C   0  0  2  0  0  3  0  0  0  0  0  0
  160.5130  211.3680  151.9480 C   0  0  2  0  0  3  0  0  0  0  0  0
  160.0430  210.9290  154.3630 N   0  0  2  0  0  0  0  0  0  0  0  0
  163.2890  209.5530  157.2510 O   0  0  0  0  0  0  0  0  0  0  0  0
  161.5770  205.9120  151.1590 C   0  0  0  0  0  0  0  0  0  0  0  0
  161.5920  208.1920  150.2990 C   0  0  0  0  0  0  0  0  0  0  0  0
  162.3290  208.6680  157.0180 C   0  0  0  0  0  3  0  0  0  0  0  0
  161.9080  204.6570  151.0000 C   0  0  0  0  0  3  0  0  0  0  0  0
  159.7010  213.2170  153.4890 C   0  0  0  0  0  2  0  0  0  0  0  0
  159.6600  211.7170  153.1830 C   0  0  1  0  0  3  0  0  0  0  0  0
  161.3720  211.2490  154.7480 N   0  0  0  0  0  2  0  0  0  0  0  0
  160.4530  207.5540  152.5320 C   0  0  0  0  0  2  0  0  0  0  0  0
  159.7960  207.5990  155.6580 O   0  0  0  0  0  0  0  0  0  0  0  0
  164.0080  211.8060  156.4720 C   0  0  0  0  0  1  0  0  0  0  0  0
  159.8910  209.4660  154.1090 C   0  0  1  0  0  3  0  0  0  0  0  0
  161.9960  210.4200  155.7270 C   0  0  0  0  0  0  0  0  0  0  0  0
  161.4360  203.8180  149.8470 C   0  0  0  0  0  2  0  0  0  0  0  0
  160.5550  202.7370  150.2690 N   0  0  0  0  0  0  0  0  0  0  0  0
  161.1850  202.0790  151.2700 O   0  0  0  0  0  1  0  0  0  0  0  0
  160.4680  201.8110  149.1550 C   0  0  0  0  0  1  0  0  0  0  0  0
  162.3920  207.8470  149.0850 C   0  0  0  0  0  2  0  0  0  0  0  0
  161.9290  206.5150  147.3890 C   0  0  0  0  0  1  0  0  0  0  0  0
  161.5450  207.7160  147.9850 O   0  0  0  0  0  0  0  0  0  0  0  0
  1 21  1  6  0  0  0
  1 24  1  0  0  0  0
  2  3  1  0  0  0  0
  3 18  1  0  0  0  0
  4 22  2  0  0  0  0
  4  5  1  0  0  0  0
  5 16  2  0  0  0  0
  6 21  1  0  0  0  0
  8 13  1  0  0  0  0
  9  2  1  0  0  0  0
 10  7  1  6  0  0  0
 10 11  1  0  0  0  0
 10  1  1  0  0  0  0
 11  9  1  6  0  0  0
 11 19  1  0  0  0  0
 12 20  1  6  0  0  0
 14  6  2  0  0  0  0
 15  7  2  0  0  0  0
 15  6  1  0  0  0  0
 16 13  1  0  0  0  0
 17 14  2  0  0  0  0
 19 18  1  1  0  0  0
 19 12  1  0  0  0  0
 20 25  1  0  0  0  0
 23  8  1  0  0  0  0
 24 12  1  0  0  0  0
 24  4  1  1  0  0  0
 25  5  1  0  0  0  0
 25  8  2  0  0  0  0
 26 27  1  0  0  0  0
 26 17  1  0  0  0  0
 27 28  1  0  0  0  0
 29 27  1  0  0  0  0
 30 15  1  0  0  0  0
 31 32  1  0  0  0  0
 32 30  1  0  0  0  0
M  END
>  <MODEL>
5

>  <REMARK>
 VINA RESULT:      -4.6      2.532      5.107
  Name = 
  4 active torsions:
  status: ('A' for Active; 'I' for Inactive)
    1  A    between atoms: N_1  and  C_10
    2  A    between atoms: C_10  and  C_23
    3  A    between atoms: C_12  and  C_21
    4  A    between atoms: C_12  and  O_24
                            x       y       z     vdW  Elec       q    Type
                         _______ _______ _______ _____ _____    ______ ____

>  <TORSDO>
F 4

$$$$
