=
 OpenBabel11062409363D

 34 39  0  0  1  0  0  0  0  0999 V2000
  160.8850  209.6850  152.5770 C   0  0  0  0  0  0  0  0  0  0  0  0
  160.4470  213.2980  151.2360 C   0  0  0  0  0  2  0  0  0  0  0  0
  161.2480  213.1830  147.8060 C   0  0  0  0  0  0  0  0  0  0  0  0
  159.7990  212.2070  153.3000 C   0  0  0  0  0  3  0  0  0  0  0  0
  161.1790  207.3780  153.3600 C   0  0  0  0  0  0  0  0  0  0  0  0
  161.3650  208.3750  152.3550 C   0  0  0  0  0  3  0  0  0  0  0  0
  160.0580  208.9960  154.7290 C   0  0  0  0  0  0  0  0  0  0  0  0
  159.3940  209.6070  155.7390 N   0  0  0  0  0  0  0  0  0  0  0  0
  160.4680  214.2780  147.4530 O   0  0  0  0  0  1  0  0  0  0  0  0
  160.5080  207.6850  154.5770 C   0  0  0  0  0  3  0  0  0  0  0  0
  159.7450  211.0520  154.1390 N   0  0  0  0  0  0  0  0  0  0  0  0
  160.2560  209.9040  153.7660 C   0  0  0  0  0  0  0  0  0  0  0  0
  159.2130  210.8760  155.3450 N   0  0  0  0  0  0  0  0  0  0  0  0
  159.9090  212.9340  149.8770 C   0  0  0  0  0  2  0  0  0  0  0  0
  162.1720  212.8130  147.0320 O   0  0  0  0  0  0  0  0  0  0  0  0
  161.0040  212.4850  149.0350 N   0  0  0  0  0  0  0  0  0  0  0  0
  161.8160  211.3440  149.3580 C   0  0  0  0  0  3  0  0  0  0  0  0
  160.4070  212.0900  152.0940 C   0  0  0  0  0  0  0  0  0  0  0  0
  161.7910  210.6140  150.4830 C   0  0  0  0  0  3  0  0  0  0  0  0
  160.9890  210.8070  151.6670 N   0  0  0  0  0  0  0  0  0  0  0  0
  161.6720  205.9910  153.1180 C   0  0  0  0  0  2  0  0  0  0  0  0
  160.9420  203.3780  150.3980 C   0  0  0  0  0  2  0  0  0  0  0  0
  161.6890  206.2080  150.6230 C   0  0  0  0  0  2  0  0  0  0  0  0
  161.6990  204.1890  146.9520 C   0  0  2  0  0  3  0  0  0  0  0  0
  160.9760  203.6120  148.0150 O   0  0  0  0  0  0  0  0  0  0  0  0
  161.5040  204.1430  149.2040 C   0  0  1  0  0  3  0  0  0  0  0  0
  161.7350  206.3860  148.1340 C   0  0  0  0  0  2  0  0  0  0  0  0
  161.1420  205.6350  149.3210 C   0  0  2  0  0  3  0  0  0  0  0  0
  161.3650  205.6840  146.8300 C   0  0  0  0  0  2  0  0  0  0  0  0
  161.1220  205.4360  151.8140 C   0  0  1  0  0  3  0  0  0  0  0  0
  161.4870  203.9580  151.7000 C   0  0  0  0  0  2  0  0  0  0  0  0
  161.4310  203.4250  145.6560 C   0  0  1  0  0  3  0  0  0  0  0  0
  160.6880  202.1210  145.8970 C   0  0  0  0  0  1  0  0  0  0  0  0
  160.6860  204.2520  144.7240 N   0  0  0  0  0  1  0  0  0  0  0  0
  1 12  1  0  0  0  0
  2 18  1  0  0  0  0
  3 16  1  0  0  0  0
  4 11  1  0  0  0  0
  5 10  2  0  0  0  0
  6  1  2  0  0  0  0
  6  5  1  0  0  0  0
  7  8  1  0  0  0  0
  9  3  1  0  0  0  0
 10  7  1  0  0  0  0
 11 13  1  0  0  0  0
 12 11  1  0  0  0  0
 12  7  2  0  0  0  0
 13  8  2  0  0  0  0
 14  2  1  0  0  0  0
 15  3  2  0  0  0  0
 16 17  1  0  0  0  0
 16 14  1  0  0  0  0
 17 19  2  0  0  0  0
 18  4  2  0  0  0  0
 19 20  1  0  0  0  0
 20 18  1  0  0  0  0
 20  1  1  0  0  0  0
 21  5  1  0  0  0  0
 22 31  1  0  0  0  0
 23 30  1  0  0  0  0
 24 32  1  6  0  0  0
 24 25  1  0  0  0  0
 25 26  1  0  0  0  0
 26 28  1  0  0  0  0
 26 22  1  1  0  0  0
 28 27  1  6  0  0  0
 28 23  1  0  0  0  0
 29 24  1  0  0  0  0
 29 27  1  0  0  0  0
 30 21  1  1  0  0  0
 31 30  1  0  0  0  0
 32 33  1  1  0  0  0
 34 32  1  0  0  0  0
M  END
>  <MODEL>
1

>  <REMARK>
 VINA RESULT:     -10.2      0.000      0.000
  Name = 
  3 active torsions:
  status: ('A' for Active; 'I' for Inactive)
    1  A    between atoms: C_7  and  C_11
    2  A    between atoms: C_8  and  C_18
    3  A    between atoms: C_18  and  C_30
                            x       y       z     vdW  Elec       q    Type
                         _______ _______ _______ _____ _____    ______ ____

>  <TORSDO>
F 3

$$$$
=
 OpenBabel11062409363D

 34 39  0  0  1  0  0  0  0  0999 V2000
  160.9000  210.7340  151.6460 C   0  0  0  0  0  0  0  0  0  0  0  0
  160.3230  213.9860  149.6120 C   0  0  0  0  0  2  0  0  0  0  0  0
  161.5270  213.3460  146.3620 C   0  0  0  0  0  0  0  0  0  0  0  0
  159.5300  213.2180  151.7690 C   0  0  0  0  0  3  0  0  0  0  0  0
  161.2910  208.6460  152.8740 C   0  0  0  0  0  0  0  0  0  0  0  0
  161.5110  209.4620  151.7230 C   0  0  0  0  0  3  0  0  0  0  0  0
  159.8870  210.3570  153.7950 C   0  0  0  0  0  0  0  0  0  0  0  0
  159.0600  211.0650  154.6010 N   0  0  0  0  0  0  0  0  0  0  0  0
  160.7050  214.2740  145.7330 O   0  0  0  0  0  0  0  0  0  0  0  0
  160.4590  209.0930  153.9380 C   0  0  0  0  0  3  0  0  0  0  0  0
  159.4750  212.2320  152.8010 N   0  0  0  0  0  0  0  0  0  0  0  0
  160.1200  211.0950  152.7040 C   0  0  0  0  0  0  0  0  0  0  0  0
  158.8210  212.2190  153.9590 N   0  0  0  0  0  0  0  0  0  0  0  0
  159.9800  213.3320  148.3000 C   0  0  0  0  0  2  0  0  0  0  0  0
  162.5630  212.9420  145.7680 O   0  0  0  0  0  1  0  0  0  0  0  0
  161.2000  212.8560  147.6700 N   0  0  0  0  0  0  0  0  0  0  0  0
  162.0610  211.8810  148.2810 C   0  0  0  0  0  3  0  0  0  0  0  0
  160.2830  212.9510  150.6730 C   0  0  0  0  0  0  0  0  0  0  0  0
  161.9640  211.3640  149.5150 C   0  0  0  0  0  3  0  0  0  0  0  0
  161.0160  211.6810  150.5550 N   0  0  0  0  0  0  0  0  0  0  0  0
  161.9230  207.2960  152.9480 C   0  0  0  0  0  2  0  0  0  0  0  0
  160.6120  203.8850  151.7620 C   0  0  0  0  0  2  0  0  0  0  0  0
  161.7640  206.3400  150.6380 C   0  0  0  0  0  2  0  0  0  0  0  0
  161.1860  202.8930  148.3290 C   0  0  2  0  0  3  0  0  0  0  0  0
  160.4800  202.9920  149.5440 O   0  0  0  0  0  0  0  0  0  0  0  0
  161.1740  203.9160  150.3460 C   0  0  1  0  0  3  0  0  0  0  0  0
  161.6270  205.3480  148.3520 C   0  0  0  0  0  2  0  0  0  0  0  0
  161.0360  205.3320  149.7570 C   0  0  2  0  0  3  0  0  0  0  0  0
  161.0560  204.1970  147.5280 C   0  0  0  0  0  2  0  0  0  0  0  0
  161.1940  206.3030  152.0570 C   0  0  1  0  0  3  0  0  0  0  0  0
  161.3380  204.9000  152.6400 C   0  0  0  0  0  2  0  0  0  0  0  0
  160.7080  201.6750  147.5400 C   0  0  1  0  0  3  0  0  0  0  0  0
  160.8160  201.8810  146.0380 C   0  0  0  0  0  1  0  0  0  0  0  0
  161.4540  200.4920  147.9310 N   0  0  0  0  0  1  0  0  0  0  0  0
  1  6  2  0  0  0  0
  1 12  1  0  0  0  0
  2 18  1  0  0  0  0
  3 16  1  0  0  0  0
  4 11  1  0  0  0  0
  5 21  1  0  0  0  0
  5 10  2  0  0  0  0
  6  5  1  0  0  0  0
  7 10  1  0  0  0  0
  7  8  1  0  0  0  0
  9  3  2  0  0  0  0
 11 13  1  0  0  0  0
 12 11  1  0  0  0  0
 12  7  2  0  0  0  0
 13  8  2  0  0  0  0
 14  2  1  0  0  0  0
 15  3  1  0  0  0  0
 16 17  1  0  0  0  0
 16 14  1  0  0  0  0
 17 19  2  0  0  0  0
 18  4  2  0  0  0  0
 19 20  1  0  0  0  0
 20 18  1  0  0  0  0
 20  1  1  0  0  0  0
 22 31  1  0  0  0  0
 23 30  1  0  0  0  0
 24 32  1  6  0  0  0
 24 25  1  0  0  0  0
 25 26  1  0  0  0  0
 26 22  1  1  0  0  0
 28 27  1  6  0  0  0
 28 26  1  0  0  0  0
 28 23  1  0  0  0  0
 29 24  1  0  0  0  0
 29 27  1  0  0  0  0
 30 31  1  0  0  0  0
 30 21  1  1  0  0  0
 32 33  1  6  0  0  0
 32 34  1  0  0  0  0
M  END
>  <MODEL>
2

>  <REMARK>
 VINA RESULT:     -10.1      1.422      1.725
  Name = 
  3 active torsions:
  status: ('A' for Active; 'I' for Inactive)
    1  A    between atoms: C_7  and  C_11
    2  A    between atoms: C_8  and  C_18
    3  A    between atoms: C_18  and  C_30
                            x       y       z     vdW  Elec       q    Type
                         _______ _______ _______ _____ _____    ______ ____

>  <TORSDO>
F 3

$$$$
=
 OpenBabel11062409363D

 34 39  0  0  1  0  0  0  0  0999 V2000
  161.4290  207.8500  149.8280 C   0  0  0  0  0  0  0  0  0  0  0  0
  160.6330  204.1570  148.9480 C   0  0  0  0  0  2  0  0  0  0  0  0
  161.2380  203.8110  145.4940 C   0  0  0  0  0  0  0  0  0  0  0  0
  160.9290  205.3340  151.0460 C   0  0  0  0  0  3  0  0  0  0  0  0
  161.9520  210.1970  150.3160 C   0  0  0  0  0  0  0  0  0  0  0  0
  161.7040  209.1570  149.3690 C   0  0  0  0  0  3  0  0  0  0  0  0
  161.6590  208.6180  152.0970 C   0  0  0  0  0  0  0  0  0  0  0  0
  161.5720  208.0360  153.3170 N   0  0  0  0  0  0  0  0  0  0  0  0
  161.5090  202.4480  145.5440 O   0  0  0  0  0  1  0  0  0  0  0  0
  161.9350  209.9300  151.7150 C   0  0  0  0  0  3  0  0  0  0  0  0
  161.1970  206.5300  151.7800 N   0  0  0  0  0  0  0  0  0  0  0  0
  161.4270  207.6720  151.1790 C   0  0  0  0  0  0  0  0  0  0  0  0
  161.2880  206.7450  153.0890 N   0  0  0  0  0  0  0  0  0  0  0  0
  161.7180  203.9670  147.9210 C   0  0  0  0  0  2  0  0  0  0  0  0
  160.9200  204.3330  144.3910 O   0  0  0  0  0  0  0  0  0  0  0  0
  161.3190  204.6110  146.6820 N   0  0  0  0  0  0  0  0  0  0  0  0
  161.0540  206.0210  146.5880 C   0  0  0  0  0  3  0  0  0  0  0  0
  160.9080  205.4100  149.6920 C   0  0  0  0  0  0  0  0  0  0  0  0
  161.0070  206.9120  147.5890 C   0  0  0  0  0  3  0  0  0  0  0  0
  161.1600  206.6880  149.0060 N   0  0  0  0  0  0  0  0  0  0  0  0
  162.2590  211.5750  149.8320 C   0  0  0  0  0  2  0  0  0  0  0  0
  162.7750  212.8370  146.2400 C   0  0  0  0  0  2  0  0  0  0  0  0
  160.5800  212.1320  148.0580 C   0  0  0  0  0  2  0  0  0  0  0  0
  159.9020  214.0010  144.3700 C   0  0  2  0  0  3  0  0  0  0  0  0
  161.1480  213.3730  144.5670 O   0  0  0  0  0  0  0  0  0  0  0  0
  161.3430  213.2760  145.9560 C   0  0  1  0  0  3  0  0  0  0  0  0
  158.9290  212.7310  146.2850 C   0  0  0  0  0  2  0  0  0  0  0  0
  160.3540  212.2610  146.5560 C   0  0  2  0  0  3  0  0  0  0  0  0
  158.7600  213.0700  144.8060 C   0  0  0  0  0  2  0  0  0  0  0  0
  162.0180  211.6920  148.3350 C   0  0  1  0  0  3  0  0  0  0  0  0
  162.9960  212.7040  147.7440 C   0  0  0  0  0  2  0  0  0  0  0  0
  159.7630  214.4530  142.9170 C   0  0  1  0  0  3  0  0  0  0  0  0
  161.0930  214.4520  142.1830 C   0  0  0  0  0  1  0  0  0  0  0  0
  158.8100  213.6120  142.2140 N   0  0  0  0  0  1  0  0  0  0  0  0
  1 12  1  0  0  0  0
  2 18  1  0  0  0  0
  3  9  1  0  0  0  0
  3 16  1  0  0  0  0
  4 11  1  0  0  0  0
  5 10  2  0  0  0  0
  6  1  2  0  0  0  0
  6  5  1  0  0  0  0
  7  8  1  0  0  0  0
 10  7  1  0  0  0  0
 11 13  1  0  0  0  0
 12 11  1  0  0  0  0
 12  7  2  0  0  0  0
 13  8  2  0  0  0  0
 14  2  1  0  0  0  0
 15  3  2  0  0  0  0
 16 14  1  0  0  0  0
 17 16  1  0  0  0  0
 17 19  2  0  0  0  0
 18  4  2  0  0  0  0
 19 20  1  0  0  0  0
 20 18  1  0  0  0  0
 20  1  1  0  0  0  0
 21  5  1  0  0  0  0
 22 31  1  0  0  0  0
 23 30  1  0  0  0  0
 24 32  1  6  0  0  0
 24 25  1  0  0  0  0
 24 29  1  0  0  0  0
 25 26  1  0  0  0  0
 26 22  1  6  0  0  0
 26 28  1  0  0  0  0
 28 27  1  1  0  0  0
 28 23  1  0  0  0  0
 29 27  1  0  0  0  0
 30 21  1  1  0  0  0
 31 30  1  0  0  0  0
 32 33  1  6  0  0  0
 34 32  1  0  0  0  0
M  END
>  <MODEL>
3

>  <REMARK>
 VINA RESULT:      -9.1      2.917      7.874
  Name = 
  3 active torsions:
  status: ('A' for Active; 'I' for Inactive)
    1  A    between atoms: C_7  and  C_11
    2  A    between atoms: C_8  and  C_18
    3  A    between atoms: C_18  and  C_30
                            x       y       z     vdW  Elec       q    Type
                         _______ _______ _______ _____ _____    ______ ____

>  <TORSDO>
F 3

$$$$
=
 OpenBabel11062409363D

 34 39  0  0  1  0  0  0  0  0999 V2000
  160.8650  208.7150  152.7100 C   0  0  0  0  0  0  0  0  0  0  0  0
  159.7020  210.2650  156.0700 C   0  0  0  0  0  2  0  0  0  0  0  0
  158.2640  213.3830  155.2760 C   0  0  0  0  0  0  0  0  0  0  0  0
  160.4350  208.0440  155.4350 C   0  0  0  0  0  3  0  0  0  0  0  0
  161.5740  207.7910  150.5500 C   0  0  0  0  0  0  0  0  0  0  0  0
  161.1140  208.8940  151.3310 C   0  0  0  0  0  3  0  0  0  0  0  0
  161.5080  206.4050  152.5060 C   0  0  0  0  0  0  0  0  0  0  0  0
  161.5900  205.3560  153.3580 N   0  0  0  0  0  0  0  0  0  0  0  0
  157.4280  213.4280  156.3860 O   0  0  0  0  0  1  0  0  0  0  0  0
  161.7750  206.5120  151.1420 C   0  0  0  0  0  3  0  0  0  0  0  0
  160.9010  207.1150  154.4560 N   0  0  0  0  0  0  0  0  0  0  0  0
  161.0830  207.4640  153.2050 C   0  0  0  0  0  0  0  0  0  0  0  0
  161.2060  205.8250  154.5550 N   0  0  0  0  0  0  0  0  0  0  0  0
  158.4520  210.9260  155.5530 C   0  0  0  0  0  2  0  0  0  0  0  0
  158.5320  214.4530  154.6660 O   0  0  0  0  0  0  0  0  0  0  0  0
  158.8140  212.1340  154.8330 N   0  0  0  0  0  0  0  0  0  0  0  0
  159.6570  212.1220  153.6680 C   0  0  0  0  0  3  0  0  0  0  0  0
  160.1890  209.3170  155.0390 C   0  0  0  0  0  0  0  0  0  0  0  0
  160.3180  211.0760  153.1480 C   0  0  0  0  0  3  0  0  0  0  0  0
  160.3950  209.7220  153.6390 N   0  0  0  0  0  0  0  0  0  0  0  0
  161.8210  207.9770  149.0900 C   0  0  0  0  0  2  0  0  0  0  0  0
  162.2890  205.4670  146.2190 C   0  0  0  0  0  2  0  0  0  0  0  0
  161.2650  205.5380  148.9700 C   0  0  0  0  0  2  0  0  0  0  0  0
  160.7460  202.2030  146.4860 C   0  0  2  0  0  3  0  0  0  0  0  0
  161.7370  203.1390  146.1280 O   0  0  0  0  0  0  0  0  0  0  0  0
  161.4050  204.3500  146.7610 C   0  0  1  0  0  3  0  0  0  0  0  0
  160.6860  203.1150  148.8080 C   0  0  0  0  0  2  0  0  0  0  0  0
  161.5980  204.2190  148.2820 C   0  0  2  0  0  3  0  0  0  0  0  0
  160.8620  201.8470  147.9760 C   0  0  0  0  0  2  0  0  0  0  0  0
  162.1550  206.6530  148.4210 C   0  0  1  0  0  3  0  0  0  0  0  0
  161.9570  206.7850  146.9140 C   0  0  0  0  0  2  0  0  0  0  0  0
  160.8330  200.9730  145.5840 C   0  0  1  0  0  3  0  0  0  0  0  0
  161.2050  199.7170  146.3560 C   0  0  0  0  0  1  0  0  0  0  0  0
  159.5780  200.7680  144.8840 N   0  0  0  0  0  1  0  0  0  0  0  0
  1 12  1  0  0  0  0
  1 20  1  0  0  0  0
  3  9  1  0  0  0  0
  5 10  2  0  0  0  0
  5  6  1  0  0  0  0
  6  1  2  0  0  0  0
  7 12  2  0  0  0  0
  7  8  1  0  0  0  0
  8 13  2  0  0  0  0
 10  7  1  0  0  0  0
 11 13  1  0  0  0  0
 11  4  1  0  0  0  0
 12 11  1  0  0  0  0
 14  2  1  0  0  0  0
 15  3  2  0  0  0  0
 16  3  1  0  0  0  0
 16 14  1  0  0  0  0
 17 16  1  0  0  0  0
 18  4  2  0  0  0  0
 18  2  1  0  0  0  0
 19 20  1  0  0  0  0
 19 17  2  0  0  0  0
 20 18  1  0  0  0  0
 21  5  1  0  0  0  0
 22 31  1  0  0  0  0
 24 32  1  6  0  0  0
 24 29  1  0  0  0  0
 25 24  1  0  0  0  0
 25 26  1  0  0  0  0
 26 22  1  6  0  0  0
 26 28  1  0  0  0  0
 28 27  1  1  0  0  0
 28 23  1  0  0  0  0
 29 27  1  0  0  0  0
 30 23  1  0  0  0  0
 30 21  1  1  0  0  0
 31 30  1  0  0  0  0
 32 33  1  1  0  0  0
 34 32  1  0  0  0  0
M  END
>  <MODEL>
4

>  <REMARK>
 VINA RESULT:      -9.0      2.879      4.549
  Name = 
  3 active torsions:
  status: ('A' for Active; 'I' for Inactive)
    1  A    between atoms: C_7  and  C_11
    2  A    between atoms: C_8  and  C_18
    3  A    between atoms: C_18  and  C_30
                            x       y       z     vdW  Elec       q    Type
                         _______ _______ _______ _____ _____    ______ ____

>  <TORSDO>
F 3

$$$$
=
 OpenBabel11062409363D

 34 39  0  0  1  0  0  0  0  0999 V2000
  160.3190  209.1780  153.6670 C   0  0  0  0  0  0  0  0  0  0  0  0
  158.0570  211.6760  155.5880 C   0  0  0  0  0  2  0  0  0  0  0  0
  156.5370  213.7130  153.1460 C   0  0  0  0  0  0  0  0  0  0  0  0
  159.2090  209.6460  156.2390 C   0  0  0  0  0  3  0  0  0  0  0  0
  161.7270  207.6260  152.3910 C   0  0  0  0  0  0  0  0  0  0  0  0
  160.9290  208.8090  152.4480 C   0  0  0  0  0  3  0  0  0  0  0  0
  161.2730  207.2320  154.7120 C   0  0  0  0  0  0  0  0  0  0  0  0
  161.2340  206.6980  155.9560 N   0  0  0  0  0  0  0  0  0  0  0  0
  155.4180  214.0220  153.9120 O   0  0  0  0  0  1  0  0  0  0  0  0
  161.9060  206.8100  153.5440 C   0  0  0  0  0  3  0  0  0  0  0  0
  160.0480  208.5320  155.9300 N   0  0  0  0  0  0  0  0  0  0  0  0
  160.5380  208.3500  154.7270 C   0  0  0  0  0  0  0  0  0  0  0  0
  160.4670  207.5220  156.6860 N   0  0  0  0  0  0  0  0  0  0  0  0
  156.9370  211.7320  154.5830 C   0  0  0  0  0  2  0  0  0  0  0  0
  156.8350  214.4520  152.1700 O   0  0  0  0  0  0  0  0  0  0  0  0
  157.3400  212.5680  153.4650 N   0  0  0  0  0  0  0  0  0  0  0  0
  158.4770  212.2660  152.6390 C   0  0  0  0  0  3  0  0  0  0  0  0
  158.9330  210.5300  155.2480 C   0  0  0  0  0  0  0  0  0  0  0  0
  159.3830  211.2930  152.8180 C   0  0  0  0  0  3  0  0  0  0  0  0
  159.4820  210.3380  153.8960 N   0  0  0  0  0  0  0  0  0  0  0  0
  162.3590  207.2280  151.0990 C   0  0  0  0  0  2  0  0  0  0  0  0
  160.7690  203.7930  150.4430 C   0  0  0  0  0  2  0  0  0  0  0  0
  162.0170  205.9900  148.9490 C   0  0  0  0  0  2  0  0  0  0  0  0
  161.0970  202.3170  147.1540 C   0  0  2  0  0  3  0  0  0  0  0  0
  160.4640  202.6270  148.3740 O   0  0  0  0  0  0  0  0  0  0  0  0
  161.2570  203.5960  149.0120 C   0  0  1  0  0  3  0  0  0  0  0  0
  161.6980  204.7170  146.8260 C   0  0  0  0  0  2  0  0  0  0  0  0
  161.1800  204.9280  148.2450 C   0  0  2  0  0  3  0  0  0  0  0  0
  161.0110  203.5110  146.1900 C   0  0  0  0  0  2  0  0  0  0  0  0
  161.5220  206.1810  150.3830 C   0  0  1  0  0  3  0  0  0  0  0  0
  161.6050  204.8610  151.1440 C   0  0  0  0  0  2  0  0  0  0  0  0
  160.5000  201.0430  146.5580 C   0  0  1  0  0  3  0  0  0  0  0  0
  160.1830  201.1910  145.0790 C   0  0  0  0  0  1  0  0  0  0  0  0
  161.3970  199.9200  146.7610 N   0  0  0  0  0  1  0  0  0  0  0  0
  1 20  1  0  0  0  0
  1 12  1  0  0  0  0
  3 16  1  0  0  0  0
  3  9  1  0  0  0  0
  5  6  1  0  0  0  0
  5 10  2  0  0  0  0
  6  1  2  0  0  0  0
  7 12  2  0  0  0  0
  7  8  1  0  0  0  0
  8 13  2  0  0  0  0
 10  7  1  0  0  0  0
 11  4  1  0  0  0  0
 11 13  1  0  0  0  0
 12 11  1  0  0  0  0
 14  2  1  0  0  0  0
 15  3  2  0  0  0  0
 16 14  1  0  0  0  0
 17 19  2  0  0  0  0
 17 16  1  0  0  0  0
 18  2  1  0  0  0  0
 18  4  2  0  0  0  0
 19 20  1  0  0  0  0
 20 18  1  0  0  0  0
 21  5  1  0  0  0  0
 22 31  1  0  0  0  0
 23 30  1  0  0  0  0
 24 32  1  6  0  0  0
 24 25  1  0  0  0  0
 25 26  1  0  0  0  0
 26 22  1  1  0  0  0
 28 27  1  6  0  0  0
 28 23  1  0  0  0  0
 28 26  1  0  0  0  0
 29 27  1  0  0  0  0
 29 24  1  0  0  0  0
 30 21  1  1  0  0  0
 30 31  1  0  0  0  0
 32 33  1  6  0  0  0
 32 34  1  0  0  0  0
M  END
>  <MODEL>
5

>  <REMARK>
 VINA RESULT:      -8.9      2.714      3.657
  Name = 
  3 active torsions:
  status: ('A' for Active; 'I' for Inactive)
    1  A    between atoms: C_7  and  C_11
    2  A    between atoms: C_8  and  C_18
    3  A    between atoms: C_18  and  C_30
                            x       y       z     vdW  Elec       q    Type
                         _______ _______ _______ _____ _____    ______ ____

>  <TORSDO>
F 3

$$$$
=
 OpenBabel11062409363D

 34 39  0  0  1  0  0  0  0  0999 V2000
  161.1310  206.3430  150.7880 C   0  0  0  0  0  0  0  0  0  0  0  0
  160.8480  203.5750  148.0860 C   0  0  0  0  0  2  0  0  0  0  0  0
  161.5770  205.1240  145.0050 C   0  0  0  0  0  0  0  0  0  0  0  0
  160.9350  203.5240  150.5070 C   0  0  0  0  0  3  0  0  0  0  0  0
  161.3290  208.1400  152.4470 C   0  0  0  0  0  0  0  0  0  0  0  0
  161.2430  207.7190  151.0860 C   0  0  0  0  0  3  0  0  0  0  0  0
  161.2030  205.8490  153.1420 C   0  0  0  0  0  0  0  0  0  0  0  0
  161.1630  204.7160  153.8840 N   0  0  0  0  0  0  0  0  0  0  0  0
  162.0230  203.9650  144.3790 O   0  0  0  0  0  1  0  0  0  0  0  0
  161.3130  207.1900  153.5070 C   0  0  0  0  0  3  0  0  0  0  0  0
  161.0260  204.1890  151.7680 N   0  0  0  0  0  0  0  0  0  0  0  0
  161.1190  205.4940  151.8550 C   0  0  0  0  0  0  0  0  0  0  0  0
  161.0560  203.7060  153.0060 N   0  0  0  0  0  0  0  0  0  0  0  0
  161.9720  204.0520  147.2060 C   0  0  0  0  0  2  0  0  0  0  0  0
  161.2200  206.1040  144.2980 O   0  0  0  0  0  0  0  0  0  0  0  0
  161.5230  205.1990  146.4370 N   0  0  0  0  0  0  0  0  0  0  0  0
  161.0770  206.4210  147.0500 C   0  0  0  0  0  3  0  0  0  0  0  0
  160.9380  204.2850  149.3850 C   0  0  0  0  0  0  0  0  0  0  0  0
  160.8900  206.6580  148.3570 C   0  0  0  0  0  3  0  0  0  0  0  0
  161.0360  205.7510  149.4700 N   0  0  0  0  0  0  0  0  0  0  0  0
  161.4640  209.5930  152.7610 C   0  0  0  0  0  2  0  0  0  0  0  0
  158.7070  212.2600  152.5400 C   0  0  0  0  0  2  0  0  0  0  0  0
  159.8250  210.3680  154.4880 C   0  0  0  0  0  2  0  0  0  0  0  0
  157.0500  213.3110  155.5820 C   0  0  2  0  0  3  0  0  0  0  0  0
  157.1580  212.9890  154.2140 O   0  0  0  0  0  0  0  0  0  0  0  0
  158.4230  212.4020  154.0310 C   0  0  1  0  0  3  0  0  0  0  0  0
  158.2040  211.1870  156.2010 C   0  0  0  0  0  2  0  0  0  0  0  0
  158.4640  211.0200  154.7070 C   0  0  2  0  0  3  0  0  0  0  0  0
  156.9510  212.0300  156.4250 C   0  0  0  0  0  2  0  0  0  0  0  0
  160.1030  210.2290  152.9910 C   0  0  1  0  0  3  0  0  0  0  0  0
  160.0670  211.6010  152.3240 C   0  0  0  0  0  2  0  0  0  0  0  0
  155.8660  214.2500  155.8100 C   0  0  1  0  0  3  0  0  0  0  0  0
  154.9160  214.2800  154.6240 C   0  0  0  0  0  1  0  0  0  0  0  0
  155.1440  213.8740  157.0120 N   0  0  0  0  0  1  0  0  0  0  0  0
  1  6  2  0  0  0  0
  1 12  1  0  0  0  0
  2 18  1  0  0  0  0
  3 16  1  0  0  0  0
  4 11  1  0  0  0  0
  5 21  1  0  0  0  0
  5 10  2  0  0  0  0
  6  5  1  0  0  0  0
  7 10  1  0  0  0  0
  7  8  1  0  0  0  0
  9  3  1  0  0  0  0
 11 12  1  0  0  0  0
 11 13  1  0  0  0  0
 12  7  2  0  0  0  0
 13  8  2  0  0  0  0
 14  2  1  0  0  0  0
 15  3  2  0  0  0  0
 16 17  1  0  0  0  0
 16 14  1  0  0  0  0
 17 19  2  0  0  0  0
 18 20  1  0  0  0  0
 18  4  2  0  0  0  0
 19 20  1  0  0  0  0
 20  1  1  0  0  0  0
 24 32  1  6  0  0  0
 24 29  1  0  0  0  0
 25 24  1  0  0  0  0
 26 22  1  6  0  0  0
 26 25  1  0  0  0  0
 26 28  1  0  0  0  0
 27 29  1  0  0  0  0
 28 23  1  1  0  0  0
 28 27  1  0  0  0  0
 30 21  1  1  0  0  0
 30 23  1  0  0  0  0
 31 22  1  0  0  0  0
 31 30  1  0  0  0  0
 32 33  1  6  0  0  0
 32 34  1  0  0  0  0
M  END
>  <MODEL>
6

>  <REMARK>
 VINA RESULT:      -8.8      3.387      8.882
  Name = 
  3 active torsions:
  status: ('A' for Active; 'I' for Inactive)
    1  A    between atoms: C_7  and  C_11
    2  A    between atoms: C_8  and  C_18
    3  A    between atoms: C_18  and  C_30
                            x       y       z     vdW  Elec       q    Type
                         _______ _______ _______ _____ _____    ______ ____

>  <TORSDO>
F 3

$$$$
=
 OpenBabel11062409363D

 34 39  0  0  1  0  0  0  0  0999 V2000
  159.8010  211.8730  151.8680 C   0  0  0  0  0  0  0  0  0  0  0  0
  157.0060  214.2670  153.0930 C   0  0  0  0  0  2  0  0  0  0  0  0
  156.1350  213.1920  156.3340 C   0  0  0  0  0  0  0  0  0  0  0  0
  158.5490  214.3390  151.2260 C   0  0  0  0  0  3  0  0  0  0  0  0
  161.5680  210.3260  151.1560 C   0  0  0  0  0  0  0  0  0  0  0  0
  160.5240  210.6750  152.0650 C   0  0  0  0  0  3  0  0  0  0  0  0
  161.1440  212.3400  149.9260 C   0  0  0  0  0  0  0  0  0  0  0  0
  161.1970  213.3440  149.0190 N   0  0  0  0  0  0  0  0  0  0  0  0
  155.6790  214.4330  156.7650 O   0  0  0  0  0  0  0  0  0  0  0  0
  161.8950  211.1730  150.0600 C   0  0  0  0  0  3  0  0  0  0  0  0
  159.6150  213.7710  150.4630 N   0  0  0  0  0  0  0  0  0  0  0  0
  160.1700  212.6310  150.7960 C   0  0  0  0  0  0  0  0  0  0  0  0
  160.2420  214.2150  149.3780 N   0  0  0  0  0  0  0  0  0  0  0  0
  157.4210  214.3200  154.5390 C   0  0  0  0  0  2  0  0  0  0  0  0
  155.7710  212.1560  156.9530 O   0  0  0  0  0  1  0  0  0  0  0  0
  157.0080  213.0940  155.2000 N   0  0  0  0  0  0  0  0  0  0  0  0
  157.4770  211.7970  154.7960 C   0  0  0  0  0  3  0  0  0  0  0  0
  158.1100  213.6580  152.3130 C   0  0  0  0  0  0  0  0  0  0  0  0
  158.2310  211.4960  153.7280 C   0  0  0  0  0  3  0  0  0  0  0  0
  158.7210  212.3740  152.6930 N   0  0  0  0  0  0  0  0  0  0  0  0
  162.3420  209.0680  151.3740 C   0  0  0  0  0  2  0  0  0  0  0  0
  160.8260  205.5630  151.7940 C   0  0  0  0  0  2  0  0  0  0  0  0
  161.9490  207.2640  149.6810 C   0  0  0  0  0  2  0  0  0  0  0  0
  161.0640  203.2190  149.0460 C   0  0  2  0  0  3  0  0  0  0  0  0
  160.4720  203.8520  150.1570 O   0  0  0  0  0  0  0  0  0  0  0  0
  161.2620  204.9760  150.4560 C   0  0  1  0  0  3  0  0  0  0  0  0
  161.5810  205.4350  148.0240 C   0  0  0  0  0  2  0  0  0  0  0  0
  161.1160  206.0330  149.3470 C   0  0  2  0  0  3  0  0  0  0  0  0
  160.9040  204.0870  147.7890 C   0  0  0  0  0  2  0  0  0  0  0  0
  161.5070  207.8470  151.0230 C   0  0  1  0  0  3  0  0  0  0  0  0
  161.6590  206.8000  152.1230 C   0  0  0  0  0  2  0  0  0  0  0  0
  160.4810  201.8180  148.8650 C   0  0  1  0  0  3  0  0  0  0  0  0
  161.2140  201.0200  147.7990 C   0  0  0  0  0  1  0  0  0  0  0  0
  160.5000  201.0940  150.1230 N   0  0  0  0  0  1  0  0  0  0  0  0
  1  6  1  0  0  0  0
  1 20  1  0  0  0  0
  2 14  1  0  0  0  0
  3  9  2  0  0  0  0
  3 15  1  0  0  0  0
  4 18  2  0  0  0  0
  5 21  1  0  0  0  0
  5  6  2  0  0  0  0
  7 10  2  0  0  0  0
  7 12  1  0  0  0  0
  8 13  2  0  0  0  0
  8  7  1  0  0  0  0
 10  5  1  0  0  0  0
 11 12  1  0  0  0  0
 11  4  1  0  0  0  0
 12  1  2  0  0  0  0
 13 11  1  0  0  0  0
 14 16  1  0  0  0  0
 16  3  1  0  0  0  0
 17 16  1  0  0  0  0
 18 20  1  0  0  0  0
 18  2  1  0  0  0  0
 19 17  2  0  0  0  0
 20 19  1  0  0  0  0
 22 31  1  0  0  0  0
 23 30  1  0  0  0  0
 24 32  1  6  0  0  0
 24 25  1  0  0  0  0
 25 26  1  0  0  0  0
 26 22  1  1  0  0  0
 28 27  1  6  0  0  0
 28 23  1  0  0  0  0
 28 26  1  0  0  0  0
 29 27  1  0  0  0  0
 29 24  1  0  0  0  0
 30 21  1  1  0  0  0
 30 31  1  0  0  0  0
 32 33  1  6  0  0  0
 32 34  1  0  0  0  0
M  END
>  <MODEL>
7

>  <REMARK>
 VINA RESULT:      -8.7      3.401      5.157
  Name = 
  3 active torsions:
  status: ('A' for Active; 'I' for Inactive)
    1  A    between atoms: C_7  and  C_11
    2  A    between atoms: C_8  and  C_18
    3  A    between atoms: C_18  and  C_30
                            x       y       z     vdW  Elec       q    Type
                         _______ _______ _______ _____ _____    ______ ____

>  <TORSDO>
F 3

$$$$
=
 OpenBabel11062409363D

 34 39  0  0  1  0  0  0  0  0999 V2000
  161.5210  205.5950  149.6350 C   0  0  0  0  0  0  0  0  0  0  0  0
  161.8270  204.3480  145.9750 C   0  0  0  0  0  2  0  0  0  0  0  0
  160.6480  201.0270  145.9590 C   0  0  0  0  0  0  0  0  0  0  0  0
  161.9800  206.5400  146.9970 C   0  0  0  0  0  3  0  0  0  0  0  0
  161.2980  206.3210  151.9680 C   0  0  0  0  0  0  0  0  0  0  0  0
  161.2960  205.2780  150.9930 C   0  0  0  0  0  3  0  0  0  0  0  0
  161.7280  207.9170  150.2310 C   0  0  0  0  0  0  0  0  0  0  0  0
  161.9560  209.0630  149.5480 N   0  0  0  0  0  0  0  0  0  0  0  0
  160.2660  201.0310  144.6220 O   0  0  0  0  0  0  0  0  0  0  0  0
  161.5150  207.6750  151.5880 C   0  0  0  0  0  3  0  0  0  0  0  0
  161.9430  207.3880  148.1460 N   0  0  0  0  0  0  0  0  0  0  0  0
  161.7240  206.9120  149.3480 C   0  0  0  0  0  0  0  0  0  0  0  0
  162.0820  208.7050  148.2610 N   0  0  0  0  0  0  0  0  0  0  0  0
  160.5800  203.5060  145.9550 C   0  0  0  0  0  2  0  0  0  0  0  0
  160.8310  199.9250  146.5420 O   0  0  0  0  0  1  0  0  0  0  0  0
  160.8310  202.2630  146.6640 N   0  0  0  0  0  0  0  0  0  0  0  0
  161.2050  202.2220  148.0520 C   0  0  0  0  0  3  0  0  0  0  0  0
  161.7900  205.2100  147.1810 C   0  0  0  0  0  0  0  0  0  0  0  0
  161.4920  203.2590  148.8520 C   0  0  0  0  0  3  0  0  0  0  0  0
  161.5490  204.6640  148.5260 N   0  0  0  0  0  0  0  0  0  0  0  0
  161.0440  205.9880  153.4010 C   0  0  0  0  0  2  0  0  0  0  0  0
  160.5330  208.1880  156.5080 C   0  0  0  0  0  2  0  0  0  0  0  0
  160.4560  208.4160  153.5820 C   0  0  0  0  0  2  0  0  0  0  0  0
  159.1290  211.4980  156.0900 C   0  0  2  0  0  3  0  0  0  0  0  0
  159.9600  210.5080  156.6530 O   0  0  0  0  0  0  0  0  0  0  0  0
  159.8610  209.3750  155.8270 C   0  0  1  0  0  3  0  0  0  0  0  0
  159.8340  210.8230  153.7940 C   0  0  0  0  0  2  0  0  0  0  0  0
  160.5360  209.6510  154.4710 C   0  0  2  0  0  3  0  0  0  0  0  0
  159.7190  211.9980  154.7620 C   0  0  0  0  0  2  0  0  0  0  0  0
  161.1310  207.2300  154.2730 C   0  0  1  0  0  3  0  0  0  0  0  0
  160.4560  206.9530  155.6130 C   0  0  0  0  0  2  0  0  0  0  0  0
  158.9080  212.6310  157.0920 C   0  0  1  0  0  3  0  0  0  0  0  0
  160.0430  213.6410  157.0820 C   0  0  0  0  0  1  0  0  0  0  0  0
  157.6470  213.3020  156.8270 N   0  0  0  0  0  1  0  0  0  0  0  0
  1  6  1  0  0  0  0
  2 18  1  0  0  0  0
  3 15  1  0  0  0  0
  3 16  1  0  0  0  0
  4 18  2  0  0  0  0
  4 11  1  0  0  0  0
  5 21  1  0  0  0  0
  6  5  2  0  0  0  0
  7 10  2  0  0  0  0
  8  7  1  0  0  0  0
  9  3  2  0  0  0  0
 10  5  1  0  0  0  0
 11 13  1  0  0  0  0
 11 12  1  0  0  0  0
 12  1  2  0  0  0  0
 12  7  1  0  0  0  0
 13  8  2  0  0  0  0
 14  2  1  0  0  0  0
 14 16  1  0  0  0  0
 16 17  1  0  0  0  0
 17 19  2  0  0  0  0
 18 20  1  0  0  0  0
 20 19  1  0  0  0  0
 20  1  1  0  0  0  0
 23 30  1  0  0  0  0
 24 25  1  0  0  0  0
 24 32  1  1  0  0  0
 26 22  1  1  0  0  0
 26 25  1  0  0  0  0
 27 28  1  0  0  0  0
 27 29  1  0  0  0  0
 28 23  1  6  0  0  0
 28 26  1  0  0  0  0
 29 24  1  0  0  0  0
 30 21  1  6  0  0  0
 30 31  1  0  0  0  0
 31 22  1  0  0  0  0
 32 33  1  6  0  0  0
 34 32  1  0  0  0  0
M  END
>  <MODEL>
8

>  <REMARK>
 VINA RESULT:      -8.7      3.454      9.089
  Name = 
  3 active torsions:
  status: ('A' for Active; 'I' for Inactive)
    1  A    between atoms: C_7  and  C_11
    2  A    between atoms: C_8  and  C_18
    3  A    between atoms: C_18  and  C_30
                            x       y       z     vdW  Elec       q    Type
                         _______ _______ _______ _____ _____    ______ ____

>  <TORSDO>
F 3

$$$$
=
 OpenBabel11062409363D

 34 39  0  0  1  0  0  0  0  0999 V2000
  159.9450  210.1700  152.9240 C   0  0  0  0  0  0  0  0  0  0  0  0
  157.9300  213.4350  153.4960 C   0  0  0  0  0  2  0  0  0  0  0  0
  156.3510  213.0860  156.6270 C   0  0  0  0  0  0  0  0  0  0  0  0
  159.6420  212.8010  151.9020 C   0  0  0  0  0  3  0  0  0  0  0  0
  161.1990  208.0810  152.6270 C   0  0  0  0  0  0  0  0  0  0  0  0
  160.2140  208.8430  153.3270 C   0  0  0  0  0  3  0  0  0  0  0  0
  161.6040  209.9610  151.1940 C   0  0  0  0  0  0  0  0  0  0  0  0
  162.0930  210.7800  150.2330 N   0  0  0  0  0  0  0  0  0  0  0  0
  156.2650  214.4500  156.8830 O   0  0  0  0  0  0  0  0  0  0  0  0
  161.9190  208.6460  151.5360 C   0  0  0  0  0  3  0  0  0  0  0  0
  160.5590  211.8450  151.3670 N   0  0  0  0  0  0  0  0  0  0  0  0
  160.6710  210.6400  151.8710 C   0  0  0  0  0  0  0  0  0  0  0  0
  161.4290  211.9390  150.3660 N   0  0  0  0  0  0  0  0  0  0  0  0
  158.1500  213.5370  154.9820 C   0  0  0  0  0  2  0  0  0  0  0  0
  155.5980  212.2960  157.2570 O   0  0  0  0  0  1  0  0  0  0  0  0
  157.2850  212.5880  155.6590 N   0  0  0  0  0  0  0  0  0  0  0  0
  157.3620  211.1690  155.4370 C   0  0  0  0  0  3  0  0  0  0  0  0
  158.8720  212.4260  152.9530 C   0  0  0  0  0  0  0  0  0  0  0  0
  158.1110  210.5230  154.5300 C   0  0  0  0  0  3  0  0  0  0  0  0
  158.9850  211.0740  153.5240 N   0  0  0  0  0  0  0  0  0  0  0  0
  161.4940  206.6850  153.0620 C   0  0  0  0  0  2  0  0  0  0  0  0
  161.4150  205.4950  149.4110 C   0  0  0  0  0  2  0  0  0  0  0  0
  161.2900  204.3730  152.1210 C   0  0  0  0  0  2  0  0  0  0  0  0
  160.5240  202.0550  148.7160 C   0  0  2  0  0  3  0  0  0  0  0  0
  161.2080  203.2740  148.5380 O   0  0  0  0  0  0  0  0  0  0  0  0
  160.9140  204.0750  149.6550 C   0  0  1  0  0  3  0  0  0  0  0  0
  161.0500  202.0840  151.1540 C   0  0  0  0  0  2  0  0  0  0  0  0
  161.5840  203.4920  150.9120 C   0  0  2  0  0  3  0  0  0  0  0  0
  161.1450  201.2590  149.8730 C   0  0  0  0  0  2  0  0  0  0  0  0
  161.7950  205.7940  151.8680 C   0  0  1  0  0  3  0  0  0  0  0  0
  161.1240  206.3730  150.6250 C   0  0  0  0  0  2  0  0  0  0  0  0
  160.5070  201.2650  147.4080 C   0  0  1  0  0  3  0  0  0  0  0  0
  160.7720  202.1450  146.1980 C   0  0  0  0  0  1  0  0  0  0  0  0
  161.4770  200.1850  147.4560 N   0  0  0  0  0  1  0  0  0  0  0  0
  1  6  1  0  0  0  0
  1 20  1  0  0  0  0
  2 14  1  0  0  0  0
  3  9  2  0  0  0  0
  3 15  1  0  0  0  0
  4 18  2  0  0  0  0
  5 21  1  0  0  0  0
  5  6  2  0  0  0  0
  7 10  2  0  0  0  0
  7 12  1  0  0  0  0
  8 13  2  0  0  0  0
  8  7  1  0  0  0  0
 10  5  1  0  0  0  0
 11 12  1  0  0  0  0
 11  4  1  0  0  0  0
 12  1  2  0  0  0  0
 13 11  1  0  0  0  0
 14 16  1  0  0  0  0
 16  3  1  0  0  0  0
 17 16  1  0  0  0  0
 18  2  1  0  0  0  0
 18 20  1  0  0  0  0
 19 17  2  0  0  0  0
 20 19  1  0  0  0  0
 22 31  1  0  0  0  0
 24 32  1  6  0  0  0
 24 29  1  0  0  0  0
 25 24  1  0  0  0  0
 25 26  1  0  0  0  0
 26 22  1  6  0  0  0
 26 28  1  0  0  0  0
 28 27  1  1  0  0  0
 28 23  1  0  0  0  0
 29 27  1  0  0  0  0
 30 23  1  0  0  0  0
 30 21  1  1  0  0  0
 31 30  1  0  0  0  0
 32 33  1  6  0  0  0
 32 34  1  0  0  0  0
M  END
>  <MODEL>
9

>  <REMARK>
 VINA RESULT:      -8.3      3.206      4.845
  Name = 
  3 active torsions:
  status: ('A' for Active; 'I' for Inactive)
    1  A    between atoms: C_7  and  C_11
    2  A    between atoms: C_8  and  C_18
    3  A    between atoms: C_18  and  C_30
                            x       y       z     vdW  Elec       q    Type
                         _______ _______ _______ _____ _____    ______ ____

>  <TORSDO>
F 3

$$$$
