=
 OpenBabel11052422503D

 28 31  0  0  1  0  0  0  0  0999 V2000
  160.4120  210.5290  154.3770 C   0  0  1  0  0  3  0  0  0  0  0  0
  160.2060  207.3100  157.2610 C   0  0  0  0  0  1  0  0  0  0  0  0
  161.6960  207.4940  152.2900 C   0  0  1  0  0  3  0  0  0  0  0  0
  161.0550  208.1260  154.9550 C   0  0  2  0  0  3  0  0  0  0  0  0
  161.2740  208.9470  152.5820 C   0  0  0  0  0  2  0  0  0  0  0  0
  159.4890  209.4070  156.3320 O   0  0  0  0  0  0  0  0  0  0  0  0
  160.8430  206.6590  154.5380 C   0  0  0  0  0  2  0  0  0  0  0  0
  160.5610  208.4980  156.3790 C   0  0  1  0  0  3  0  0  0  0  0  0
  160.8310  206.4550  153.0140 C   0  0  0  0  0  2  0  0  0  0  0  0
  160.0300  210.6200  155.8670 C   0  0  0  0  0  2  0  0  0  0  0  0
  160.4880  209.0760  153.8900 C   0  0  2  0  0  3  0  0  0  0  0  0
  161.5830  205.8440  150.4430 C   0  0  0  0  0  2  0  0  0  0  0  0
  161.5470  208.2310  148.4750 C   0  0  0  0  0  2  0  0  0  0  0  0
  160.9200  205.8360  148.0050 C   0  0  1  0  0  3  0  0  0  0  0  0
  161.7390  207.2370  150.8510 N   0  0  0  0  0  0  0  0  0  0  0  0
  162.5570  209.3630  150.2920 O   0  0  0  0  0  0  0  0  0  0  0  0
  161.9670  206.9320  147.8070 C   0  0  0  0  0  2  0  0  0  0  0  0
  162.0020  208.3000  149.9040 C   0  0  0  0  0  0  0  0  0  0  0  0
  161.4350  204.6190  147.5590 O   0  0  0  0  0  1  0  0  0  0  0  0
  160.4380  205.6930  149.4510 C   0  0  0  0  0  2  0  0  0  0  0  0
  159.4900  211.3540  153.5210 C   0  0  0  0  0  0  0  0  0  0  0  0
  158.0470  211.4490  153.9460 C   0  0  0  0  0  2  0  0  0  0  0  0
  158.9820  212.8340  151.6530 C   0  0  0  0  0  0  0  0  0  0  0  0
  157.4710  212.8310  153.6360 C   0  0  0  0  0  2  0  0  0  0  0  0
  161.1890  211.8300  151.9590 F   0  0  0  0  0  0  0  0  0  0  0  0
  159.9100  211.9640  152.3950 C   0  0  0  0  0  0  0  0  0  0  0  0
  159.2880  213.2770  150.5150 O   0  0  0  0  0  0  0  0  0  0  0  0
  157.7220  213.1700  152.2390 N   0  0  0  0  0  2  0  0  0  0  0  0
  1 21  1  6  0  0  0
  1 10  1  0  0  0  0
  3 15  1  6  0  0  0
  3  5  1  0  0  0  0
  3  9  1  0  0  0  0
  4  7  1  6  0  0  0
  4  8  1  0  0  0  0
  6  8  1  0  0  0  0
  8  2  1  6  0  0  0
  9  7  1  0  0  0  0
 10  6  1  0  0  0  0
 11  5  1  6  0  0  0
 11  1  1  0  0  0  0
 11  4  1  0  0  0  0
 12 15  1  0  0  0  0
 13 18  1  0  0  0  0
 14 19  1  1  0  0  0
 14 20  1  0  0  0  0
 17 14  1  0  0  0  0
 17 13  1  0  0  0  0
 18 16  2  0  0  0  0
 18 15  1  0  0  0  0
 20 12  1  0  0  0  0
 21 22  1  0  0  0  0
 23 28  1  0  0  0  0
 23 26  1  0  0  0  0
 24 22  1  0  0  0  0
 25 26  1  0  0  0  0
 26 21  2  0  0  0  0
 27 23  2  0  0  0  0
 28 24  1  0  0  0  0
M  END
>  <MODEL>
1

>  <REMARK>
 VINA RESULT:      -8.2      0.000      0.000
  Name = 
  2 active torsions:
  status: ('A' for Active; 'I' for Inactive)
    1  A    between atoms: C_1  and  C_2
    2  A    between atoms: C_10  and  N_13
                            x       y       z     vdW  Elec       q    Type
                         _______ _______ _______ _____ _____    ______ ____

>  <TORSDO>
F 2

$$$$
=
 OpenBabel11052422503D

 28 31  0  0  1  0  0  0  0  0999 V2000
  162.3340  207.7290  149.9470 C   0  0  1  0  0  3  0  0  0  0  0  0
  161.5760  211.5920  148.1530 C   0  0  0  0  0  1  0  0  0  0  0  0
  161.5470  209.9290  153.0720 C   0  0  1  0  0  3  0  0  0  0  0  0
  162.0130  210.2360  150.3140 C   0  0  2  0  0  3  0  0  0  0  0  0
  161.8920  208.6560  152.2740 C   0  0  0  0  0  2  0  0  0  0  0  0
  161.6050  209.1900  148.1400 O   0  0  0  0  0  0  0  0  0  0  0  0
  161.0820  211.2770  150.9640 C   0  0  0  0  0  2  0  0  0  0  0  0
  162.1460  210.3240  148.7710 C   0  0  1  0  0  3  0  0  0  0  0  0
  160.5580  210.8490  152.3440 C   0  0  0  0  0  2  0  0  0  0  0  0
  162.4610  208.1210  148.4630 C   0  0  0  0  0  2  0  0  0  0  0  0
  161.6380  208.8190  150.7740 C   0  0  2  0  0  3  0  0  0  0  0  0
  160.6760  208.2070  154.6290 C   0  0  0  0  0  2  0  0  0  0  0  0
  160.9680  210.2880  156.9000 C   0  0  0  0  0  2  0  0  0  0  0  0
  160.6770  207.7950  157.1220 C   0  0  1  0  0  3  0  0  0  0  0  0
  161.0710  209.5960  154.4130 N   0  0  0  0  0  0  0  0  0  0  0  0
  160.8470  211.8260  155.1060 O   0  0  0  0  0  0  0  0  0  0  0  0
  160.0110  209.1640  157.2610 C   0  0  0  0  0  2  0  0  0  0  0  0
  160.9280  210.6130  155.4350 C   0  0  0  0  0  0  0  0  0  0  0  0
  159.7140  206.7960  157.2610 O   0  0  0  0  0  1  0  0  0  0  0  0
  161.4320  207.6030  155.8040 C   0  0  0  0  0  2  0  0  0  0  0  0
  161.6590  206.3940  150.1090 C   0  0  0  0  0  0  0  0  0  0  0  0
  160.7450  205.9400  148.9990 C   0  0  0  0  0  2  0  0  0  0  0  0
  161.2110  204.2970  151.2640 C   0  0  0  0  0  0  0  0  0  0  0  0
  160.8250  204.4250  148.8050 C   0  0  0  0  0  2  0  0  0  0  0  0
  162.5860  206.0610  152.2490 F   0  0  0  0  0  0  0  0  0  0  0  0
  161.8240  205.6340  151.2090 C   0  0  0  0  0  0  0  0  0  0  0  0
  161.2040  203.6380  152.3370 O   0  0  0  0  0  0  0  0  0  0  0  0
  160.6200  203.7510  150.0830 N   0  0  0  0  0  2  0  0  0  0  0  0
  1 21  1  6  0  0  0
  1 11  1  0  0  0  0
  3  5  1  6  0  0  0
  3 15  1  0  0  0  0
  4 11  1  0  0  0  0
  4  7  1  6  0  0  0
  6 10  1  0  0  0  0
  6  8  1  0  0  0  0
  7  9  1  0  0  0  0
  8  2  1  6  0  0  0
  8  4  1  0  0  0  0
  9  3  1  0  0  0  0
 10  1  1  0  0  0  0
 11  5  1  1  0  0  0
 12 20  1  0  0  0  0
 13 17  1  0  0  0  0
 14 19  1  6  0  0  0
 14 17  1  0  0  0  0
 15 12  1  0  0  0  0
 15 18  1  0  0  0  0
 16 18  2  0  0  0  0
 18 13  1  0  0  0  0
 20 14  1  0  0  0  0
 21 26  2  0  0  0  0
 22 21  1  0  0  0  0
 23 27  2  0  0  0  0
 24 22  1  0  0  0  0
 24 28  1  0  0  0  0
 26 23  1  0  0  0  0
 26 25  1  0  0  0  0
 28 23  1  0  0  0  0
M  END
>  <MODEL>
2

>  <REMARK>
 VINA RESULT:      -7.8      2.631      7.377
  Name = 
  2 active torsions:
  status: ('A' for Active; 'I' for Inactive)
    1  A    between atoms: C_1  and  C_2
    2  A    between atoms: C_10  and  N_13
                            x       y       z     vdW  Elec       q    Type
                         _______ _______ _______ _____ _____    ______ ____

>  <TORSDO>
F 2

$$$$
=
 OpenBabel11052422503D

 28 31  0  0  1  0  0  0  0  0999 V2000
  161.6060  209.8840  153.0290 C   0  0  1  0  0  3  0  0  0  0  0  0
  160.7060  207.3680  156.4320 C   0  0  0  0  0  1  0  0  0  0  0  0
  161.5710  206.3310  151.4190 C   0  0  1  0  0  3  0  0  0  0  0  0
  161.4940  207.5120  153.9710 C   0  0  2  0  0  3  0  0  0  0  0  0
  161.6850  207.8660  151.4830 C   0  0  0  0  0  2  0  0  0  0  0  0
  160.6080  209.4300  155.2040 O   0  0  0  0  0  0  0  0  0  0  0  0
  160.7660  206.1620  153.8270 C   0  0  0  0  0  2  0  0  0  0  0  0
  161.3220  208.2260  155.3370 C   0  0  1  0  0  3  0  0  0  0  0  0
  160.5070  205.7620  152.3660 C   0  0  0  0  0  2  0  0  0  0  0  0
  161.4560  210.3080  154.5030 C   0  0  0  0  0  2  0  0  0  0  0  0
  161.1460  208.4380  152.7960 C   0  0  2  0  0  3  0  0  0  0  0  0
  161.0390  206.9120  149.0680 C   0  0  0  0  0  2  0  0  0  0  0  0
  161.6920  203.9810  148.3230 C   0  0  0  0  0  2  0  0  0  0  0  0
  161.5040  205.9610  146.7740 C   0  0  1  0  0  3  0  0  0  0  0  0
  161.3560  205.8750  150.0460 N   0  0  0  0  0  0  0  0  0  0  0  0
  161.2110  203.6030  150.6080 O   0  0  0  0  0  0  0  0  0  0  0  0
  160.8430  204.6740  147.2700 C   0  0  0  0  0  2  0  0  0  0  0  0
  161.3780  204.4680  149.7080 C   0  0  0  0  0  0  0  0  0  0  0  0
  160.6050  206.6620  145.9710 O   0  0  0  0  0  1  0  0  0  0  0  0
  162.0100  206.8700  147.8970 C   0  0  0  0  0  2  0  0  0  0  0  0
  160.9100  210.8440  152.1060 C   0  0  0  0  0  0  0  0  0  0  0  0
  159.5520  211.3480  152.5230 C   0  0  0  0  0  2  0  0  0  0  0  0
  160.7570  212.2410  150.1150 C   0  0  0  0  0  0  0  0  0  0  0  0
  159.3460  212.8010  152.0930 C   0  0  0  0  0  2  0  0  0  0  0  0
  162.6340  210.7260  150.5040 F   0  0  0  0  0  0  0  0  0  0  0  0
  161.4450  211.2260  150.9290 C   0  0  0  0  0  0  0  0  0  0  0  0
  161.1390  212.4910  148.9420 O   0  0  0  0  0  0  0  0  0  0  0  0
  159.6420  212.9420  150.6720 N   0  0  0  0  0  2  0  0  0  0  0  0
  1 21  1  6  0  0  0
  1 10  1  0  0  0  0
  3 15  1  6  0  0  0
  3  5  1  0  0  0  0
  3  9  1  0  0  0  0
  4  7  1  1  0  0  0
  4  8  1  0  0  0  0
  6  8  1  0  0  0  0
  8  2  1  1  0  0  0
  9  7  1  0  0  0  0
 10  6  1  0  0  0  0
 11  5  1  6  0  0  0
 11  1  1  0  0  0  0
 11  4  1  0  0  0  0
 12 15  1  0  0  0  0
 13 18  1  0  0  0  0
 14 19  1  1  0  0  0
 14 17  1  0  0  0  0
 14 20  1  0  0  0  0
 17 13  1  0  0  0  0
 18 15  1  0  0  0  0
 18 16  2  0  0  0  0
 20 12  1  0  0  0  0
 21 22  1  0  0  0  0
 23 28  1  0  0  0  0
 23 26  1  0  0  0  0
 24 22  1  0  0  0  0
 25 26  1  0  0  0  0
 26 21  2  0  0  0  0
 27 23  2  0  0  0  0
 28 24  1  0  0  0  0
M  END
>  <MODEL>
3

>  <REMARK>
 VINA RESULT:      -7.7      1.678      2.412
  Name = 
  2 active torsions:
  status: ('A' for Active; 'I' for Inactive)
    1  A    between atoms: C_1  and  C_2
    2  A    between atoms: C_10  and  N_13
                            x       y       z     vdW  Elec       q    Type
                         _______ _______ _______ _____ _____    ______ ____

>  <TORSDO>
F 2

$$$$
=
 OpenBabel11052422503D

 28 31  0  0  1  0  0  0  0  0999 V2000
  160.5740  203.5680  147.7640 C   0  0  1  0  0  3  0  0  0  0  0  0
  161.1000  200.2650  150.5090 C   0  0  0  0  0  1  0  0  0  0  0  0
  160.8310  205.4050  151.1960 C   0  0  1  0  0  3  0  0  0  0  0  0
  160.6010  202.7850  150.1950 C   0  0  2  0  0  3  0  0  0  0  0  0
  160.6960  205.2480  149.6690 C   0  0  0  0  0  2  0  0  0  0  0  0
  161.3190  201.3280  148.3660 O   0  0  0  0  0  0  0  0  0  0  0  0
  161.3540  202.9360  151.5300 C   0  0  0  0  0  2  0  0  0  0  0  0
  160.6070  201.3620  149.5780 C   0  0  1  0  0  3  0  0  0  0  0  0
  161.7850  204.3820  151.8270 C   0  0  0  0  0  2  0  0  0  0  0  0
  160.5490  202.0610  147.4430 C   0  0  0  0  0  2  0  0  0  0  0  0
  161.0730  203.8450  149.1880 C   0  0  2  0  0  3  0  0  0  0  0  0
  162.0420  207.4810  150.5880 C   0  0  0  0  0  2  0  0  0  0  0  0
  160.7180  208.8260  153.0400 C   0  0  0  0  0  2  0  0  0  0  0  0
  161.8520  209.9500  151.0890 C   0  0  1  0  0  3  0  0  0  0  0  0
  161.2080  206.7710  151.5540 N   0  0  0  0  0  0  0  0  0  0  0  0
  160.5210  206.5900  153.7890 O   0  0  0  0  0  0  0  0  0  0  0  0
  161.9570  209.5690  152.5670 C   0  0  0  0  0  2  0  0  0  0  0  0
  160.8380  207.3440  152.8310 C   0  0  0  0  0  0  0  0  0  0  0  0
  163.0810  210.4400  150.6500 O   0  0  0  0  0  1  0  0  0  0  0  0
  161.4020  208.8010  150.1830 C   0  0  0  0  0  2  0  0  0  0  0  0
  161.3630  204.3360  146.7400 C   0  0  0  0  0  0  0  0  0  0  0  0
  162.7630  204.7550  147.1120 C   0  0  0  0  0  2  0  0  0  0  0  0
  161.7020  205.3470  144.5490 C   0  0  0  0  0  0  0  0  0  0  0  0
  163.6950  204.7030  145.9010 C   0  0  0  0  0  2  0  0  0  0  0  0
  159.5640  204.3710  145.2190 F   0  0  0  0  0  0  0  0  0  0  0  0
  160.8460  204.6770  145.5420 C   0  0  0  0  0  0  0  0  0  0  0  0
  161.2060  205.8280  143.4960 O   0  0  0  0  0  0  0  0  0  0  0  0
  163.1060  205.4480  144.7930 N   0  0  0  0  0  2  0  0  0  0  0  0
  1 21  1  6  0  0  0
  1 11  1  0  0  0  0
  3  5  1  6  0  0  0
  3 15  1  0  0  0  0
  3  9  1  0  0  0  0
  4  7  1  1  0  0  0
  6  8  1  0  0  0  0
  7  9  1  0  0  0  0
  8  4  1  0  0  0  0
  8  2  1  1  0  0  0
 10  1  1  0  0  0  0
 10  6  1  0  0  0  0
 11  5  1  1  0  0  0
 11  4  1  0  0  0  0
 12 15  1  0  0  0  0
 14 19  1  6  0  0  0
 14 17  1  0  0  0  0
 15 18  1  0  0  0  0
 17 13  1  0  0  0  0
 18 13  1  0  0  0  0
 18 16  2  0  0  0  0
 20 12  1  0  0  0  0
 20 14  1  0  0  0  0
 21 22  1  0  0  0  0
 23 28  1  0  0  0  0
 23 26  1  0  0  0  0
 24 22  1  0  0  0  0
 25 26  1  0  0  0  0
 26 21  2  0  0  0  0
 27 23  2  0  0  0  0
 28 24  1  0  0  0  0
M  END
>  <MODEL>
4

>  <REMARK>
 VINA RESULT:      -7.2      3.580      8.117
  Name = 
  2 active torsions:
  status: ('A' for Active; 'I' for Inactive)
    1  A    between atoms: C_1  and  C_2
    2  A    between atoms: C_10  and  N_13
                            x       y       z     vdW  Elec       q    Type
                         _______ _______ _______ _____ _____    ______ ____

>  <TORSDO>
F 2

$$$$
=
 OpenBabel11052422503D

 28 31  0  0  1  0  0  0  0  0999 V2000
  160.6130  203.7420  147.6490 C   0  0  1  0  0  3  0  0  0  0  0  0
  161.2050  200.7670  150.7340 C   0  0  0  0  0  1  0  0  0  0  0  0
  160.6410  205.9270  150.8820 C   0  0  1  0  0  3  0  0  0  0  0  0
  160.5870  203.2110  150.1470 C   0  0  2  0  0  3  0  0  0  0  0  0
  160.5730  205.6100  149.3750 C   0  0  0  0  0  2  0  0  0  0  0  0
  161.4500  201.6200  148.5020 O   0  0  0  0  0  0  0  0  0  0  0  0
  161.2800  203.5380  151.4840 C   0  0  0  0  0  2  0  0  0  0  0  0
  160.6910  201.7360  149.6800 C   0  0  1  0  0  3  0  0  0  0  0  0
  161.6220  205.0280  151.6450 C   0  0  0  0  0  2  0  0  0  0  0  0
  160.6790  202.2120  147.4840 C   0  0  0  0  0  2  0  0  0  0  0  0
  161.0420  204.1890  149.0540 C   0  0  2  0  0  3  0  0  0  0  0  0
  160.4590  207.8980  152.3740 C   0  0  0  0  0  2  0  0  0  0  0  0
  162.3600  209.3860  150.4390 C   0  0  0  0  0  2  0  0  0  0  0  0
  161.7570  210.0230  152.8020 C   0  0  1  0  0  3  0  0  0  0  0  0
  160.9330  207.3410  151.1100 N   0  0  0  0  0  0  0  0  0  0  0  0
  161.5720  207.7750  148.8960 O   0  0  0  0  0  0  0  0  0  0  0  0
  161.5640  210.3370  151.3180 C   0  0  0  0  0  2  0  0  0  0  0  0
  161.5810  208.1490  150.0990 C   0  0  0  0  0  0  0  0  0  0  0  0
  160.8580  210.7770  153.5550 O   0  0  0  0  0  1  0  0  0  0  0  0
  161.6020  208.5390  153.1480 C   0  0  0  0  0  2  0  0  0  0  0  0
  161.4000  204.4460  146.5780 C   0  0  0  0  0  0  0  0  0  0  0  0
  162.8220  204.8300  146.9000 C   0  0  0  0  0  2  0  0  0  0  0  0
  161.7130  205.3680  144.3440 C   0  0  0  0  0  0  0  0  0  0  0  0
  163.7190  204.7040  145.6670 C   0  0  0  0  0  2  0  0  0  0  0  0
  159.5620  204.4910  145.1040 F   0  0  0  0  0  0  0  0  0  0  0  0
  160.8630  204.7640  145.3830 C   0  0  0  0  0  0  0  0  0  0  0  0
  161.2060  205.8290  143.2880 O   0  0  0  0  0  0  0  0  0  0  0  0
  163.1260  205.4290  144.5490 N   0  0  0  0  0  2  0  0  0  0  0  0
  1 21  1  6  0  0  0
  1 11  1  0  0  0  0
  3  5  1  6  0  0  0
  3 15  1  0  0  0  0
  3  9  1  0  0  0  0
  4  7  1  1  0  0  0
  6  8  1  0  0  0  0
  7  9  1  0  0  0  0
  8  4  1  0  0  0  0
  8  2  1  1  0  0  0
 10  1  1  0  0  0  0
 10  6  1  0  0  0  0
 11  5  1  1  0  0  0
 11  4  1  0  0  0  0
 12 20  1  0  0  0  0
 13 17  1  0  0  0  0
 14 20  1  0  0  0  0
 14 19  1  1  0  0  0
 15 12  1  0  0  0  0
 16 18  2  0  0  0  0
 17 14  1  0  0  0  0
 18 13  1  0  0  0  0
 18 15  1  0  0  0  0
 21 22  1  0  0  0  0
 23 28  1  0  0  0  0
 23 26  1  0  0  0  0
 24 22  1  0  0  0  0
 25 26  1  0  0  0  0
 26 21  2  0  0  0  0
 27 23  2  0  0  0  0
 28 24  1  0  0  0  0
M  END
>  <MODEL>
5

>  <REMARK>
 VINA RESULT:      -6.7      3.503      8.089
  Name = 
  2 active torsions:
  status: ('A' for Active; 'I' for Inactive)
    1  A    between atoms: C_1  and  C_2
    2  A    between atoms: C_10  and  N_13
                            x       y       z     vdW  Elec       q    Type
                         _______ _______ _______ _____ _____    ______ ____

>  <TORSDO>
F 2

$$$$
=
 OpenBabel11052422503D

 28 31  0  0  1  0  0  0  0  0999 V2000
  162.3310  209.4040  151.4050 C   0  0  1  0  0  3  0  0  0  0  0  0
  160.5720  207.3270  154.7690 C   0  0  0  0  0  1  0  0  0  0  0  0
  161.6830  205.8570  149.9140 C   0  0  1  0  0  3  0  0  0  0  0  0
  161.6130  207.1660  152.4040 C   0  0  2  0  0  3  0  0  0  0  0  0
  162.1210  207.3340  149.9410 C   0  0  0  0  0  2  0  0  0  0  0  0
  161.0470  209.2930  153.4720 O   0  0  0  0  0  0  0  0  0  0  0  0
  160.6260  205.9960  152.2250 C   0  0  0  0  0  2  0  0  0  0  0  0
  161.4650  207.9730  153.7200 C   0  0  1  0  0  3  0  0  0  0  0  0
  160.4320  205.5810  150.7570 C   0  0  0  0  0  2  0  0  0  0  0  0
  162.1310  209.9300  152.8390 C   0  0  0  0  0  2  0  0  0  0  0  0
  161.5920  208.0790  151.1690 C   0  0  2  0  0  3  0  0  0  0  0  0
  161.3050  206.4150  147.5280 C   0  0  0  0  0  2  0  0  0  0  0  0
  161.8220  203.4350  146.8750 C   0  0  0  0  0  2  0  0  0  0  0  0
  161.8290  205.3870  145.2800 C   0  0  1  0  0  3  0  0  0  0  0  0
  161.5110  205.3840  148.5420 N   0  0  0  0  0  0  0  0  0  0  0  0
  161.2050  203.1370  149.1400 O   0  0  0  0  0  0  0  0  0  0  0  0
  161.0700  204.1510  145.7660 C   0  0  0  0  0  2  0  0  0  0  0  0
  161.4670  203.9700  148.2320 C   0  0  0  0  0  0  0  0  0  0  0  0
  161.0150  206.1200  144.4180 O   0  0  0  0  0  1  0  0  0  0  0  0
  162.3310  206.2900  146.4100 C   0  0  0  0  0  2  0  0  0  0  0  0
  161.9560  210.4390  150.3810 C   0  0  0  0  0  0  0  0  0  0  0  0
  162.5630  210.3090  149.0070 C   0  0  0  0  0  2  0  0  0  0  0  0
  160.7350  212.3960  149.5970 C   0  0  0  0  0  0  0  0  0  0  0  0
  161.5770  210.7510  147.9250 C   0  0  0  0  0  2  0  0  0  0  0  0
  160.6410  211.6440  151.9210 F   0  0  0  0  0  0  0  0  0  0  0  0
  161.1380  211.4710  150.6690 C   0  0  0  0  0  0  0  0  0  0  0  0
  160.1160  213.4600  149.8670 O   0  0  0  0  0  0  0  0  0  0  0  0
  161.0560  212.0760  148.2420 N   0  0  0  0  0  2  0  0  0  0  0  0
  1 21  1  6  0  0  0
  1 10  1  0  0  0  0
  3 15  1  6  0  0  0
  3  5  1  0  0  0  0
  3  9  1  0  0  0  0
  4  7  1  6  0  0  0
  4  8  1  0  0  0  0
  6  8  1  0  0  0  0
  8  2  1  1  0  0  0
  9  7  1  0  0  0  0
 10  6  1  0  0  0  0
 11  5  1  6  0  0  0
 11  1  1  0  0  0  0
 11  4  1  0  0  0  0
 12 15  1  0  0  0  0
 13 18  1  0  0  0  0
 14 19  1  6  0  0  0
 14 17  1  0  0  0  0
 14 20  1  0  0  0  0
 17 13  1  0  0  0  0
 18 15  1  0  0  0  0
 18 16  2  0  0  0  0
 20 12  1  0  0  0  0
 21 26  2  0  0  0  0
 22 21  1  0  0  0  0
 23 27  2  0  0  0  0
 23 26  1  0  0  0  0
 24 28  1  0  0  0  0
 24 22  1  0  0  0  0
 26 25  1  0  0  0  0
 28 23  1  0  0  0  0
M  END
>  <MODEL>
6

>  <REMARK>
 VINA RESULT:      -6.3      2.499      3.841
  Name = 
  2 active torsions:
  status: ('A' for Active; 'I' for Inactive)
    1  A    between atoms: C_1  and  C_2
    2  A    between atoms: C_10  and  N_13
                            x       y       z     vdW  Elec       q    Type
                         _______ _______ _______ _____ _____    ______ ____

>  <TORSDO>
F 2

$$$$
=
 OpenBabel11052422503D

 28 31  0  0  1  0  0  0  0  0999 V2000
  160.6830  208.7170  151.4430 C   0  0  1  0  0  3  0  0  0  0  0  0
  163.0270  211.0320  148.6370 C   0  0  0  0  0  1  0  0  0  0  0  0
  161.2820  206.1420  148.5740 C   0  0  1  0  0  3  0  0  0  0  0  0
  161.6560  208.8830  149.0870 C   0  0  2  0  0  3  0  0  0  0  0  0
  160.7780  206.6760  149.9290 C   0  0  0  0  0  2  0  0  0  0  0  0
  162.2640  210.4710  150.8450 O   0  0  0  0  0  0  0  0  0  0  0  0
  162.6630  208.2310  148.1200 C   0  0  0  0  0  2  0  0  0  0  0  0
  161.9560  210.3540  149.4780 C   0  0  1  0  0  3  0  0  0  0  0  0
  162.6570  206.6950  148.1790 C   0  0  0  0  0  2  0  0  0  0  0  0
  161.0680  210.2060  151.5370 C   0  0  0  0  0  2  0  0  0  0  0  0
  161.4450  207.9960  150.3230 C   0  0  2  0  0  3  0  0  0  0  0  0
  161.2560  204.0140  149.8460 C   0  0  0  0  0  2  0  0  0  0  0  0
  160.8310  202.5510  147.1530 C   0  0  0  0  0  2  0  0  0  0  0  0
  160.4600  201.6450  149.4760 C   0  0  1  0  0  3  0  0  0  0  0  0
  161.2720  204.6800  148.5460 N   0  0  0  0  0  0  0  0  0  0  0  0
  161.8050  204.5180  146.2680 O   0  0  0  0  0  0  0  0  0  0  0  0
  161.3600  201.6290  148.2390 C   0  0  0  0  0  2  0  0  0  0  0  0
  161.3550  203.9500  147.2990 C   0  0  0  0  0  0  0  0  0  0  0  0
  161.0860  200.9530  150.5120 O   0  0  0  0  0  1  0  0  0  0  0  0
  160.0810  203.0510  149.9480 C   0  0  0  0  0  2  0  0  0  0  0  0
  160.8490  208.0210  152.7650 C   0  0  0  0  0  0  0  0  0  0  0  0
  160.9990  206.5210  152.7460 C   0  0  0  0  0  2  0  0  0  0  0  0
  161.0930  207.9610  155.1880 C   0  0  0  0  0  0  0  0  0  0  0  0
  161.9560  206.0490  153.8410 C   0  0  0  0  0  2  0  0  0  0  0  0
  160.6240  210.0300  153.9760 F   0  0  0  0  0  0  0  0  0  0  0  0
  160.8310  208.6880  153.9360 C   0  0  0  0  0  0  0  0  0  0  0  0
  160.9160  208.5180  156.3040 O   0  0  0  0  0  0  0  0  0  0  0  0
  161.5510  206.6080  155.1260 N   0  0  0  0  0  2  0  0  0  0  0  0
  1 10  1  0  0  0  0
  1 21  1  1  0  0  0
  3  9  1  1  0  0  0
  3  5  1  0  0  0  0
  4  7  1  1  0  0  0
  4  8  1  0  0  0  0
  4 11  1  0  0  0  0
  6 10  1  0  0  0  0
  7  9  1  0  0  0  0
  8  2  1  6  0  0  0
  8  6  1  0  0  0  0
 11  5  1  6  0  0  0
 11  1  1  0  0  0  0
 12 20  1  0  0  0  0
 13 18  1  0  0  0  0
 13 17  1  0  0  0  0
 14 20  1  0  0  0  0
 14 19  1  1  0  0  0
 15  3  1  0  0  0  0
 15 12  1  0  0  0  0
 16 18  2  0  0  0  0
 17 14  1  0  0  0  0
 18 15  1  0  0  0  0
 21 26  2  0  0  0  0
 22 21  1  0  0  0  0
 22 24  1  0  0  0  0
 23 27  2  0  0  0  0
 24 28  1  0  0  0  0
 26 25  1  0  0  0  0
 26 23  1  0  0  0  0
 28 23  1  0  0  0  0
M  END
>  <MODEL>
7

>  <REMARK>
 VINA RESULT:      -6.2      2.688      5.570
  Name = 
  2 active torsions:
  status: ('A' for Active; 'I' for Inactive)
    1  A    between atoms: C_1  and  C_2
    2  A    between atoms: C_10  and  N_13
                            x       y       z     vdW  Elec       q    Type
                         _______ _______ _______ _____ _____    ______ ____

>  <TORSDO>
F 2

$$$$
=
 OpenBabel11052422503D

 28 31  0  0  1  0  0  0  0  0999 V2000
  162.3150  208.1520  150.3400 C   0  0  1  0  0  3  0  0  0  0  0  0
  161.8520  211.7030  147.9130 C   0  0  0  0  0  1  0  0  0  0  0  0
  161.1950  210.7950  152.9830 C   0  0  1  0  0  3  0  0  0  0  0  0
  161.9980  210.6860  150.2880 C   0  0  2  0  0  3  0  0  0  0  0  0
  161.6110  209.4170  152.4310 C   0  0  0  0  0  2  0  0  0  0  0  0
  161.8370  209.3260  148.2610 O   0  0  0  0  0  0  0  0  0  0  0  0
  161.0150  211.8130  150.6570 C   0  0  0  0  0  2  0  0  0  0  0  0
  162.3190  210.5420  148.7770 C   0  0  1  0  0  3  0  0  0  0  0  0
  160.3200  211.5970  152.0110 C   0  0  0  0  0  2  0  0  0  0  0  0
  162.6280  208.3170  148.8410 C   0  0  0  0  0  2  0  0  0  0  0  0
  161.5440  209.3540  150.9040 C   0  0  2  0  0  3  0  0  0  0  0  0
  159.6400  211.7430  154.6640 C   0  0  0  0  0  2  0  0  0  0  0  0
  159.9280  209.0970  156.2430 C   0  0  0  0  0  2  0  0  0  0  0  0
  158.1560  210.8690  156.5140 C   0  0  1  0  0  3  0  0  0  0  0  0
  160.5540  210.6670  154.2900 N   0  0  0  0  0  0  0  0  0  0  0  0
  161.9560  208.9410  155.0350 O   0  0  0  0  0  0  0  0  0  0  0  0
  159.4160  210.2370  157.1080 C   0  0  0  0  0  2  0  0  0  0  0  0
  160.8790  209.5760  155.1850 C   0  0  0  0  0  0  0  0  0  0  0  0
  157.8450  212.0300  157.2220 O   0  0  0  0  0  1  0  0  0  0  0  0
  158.2670  211.1890  155.0210 C   0  0  0  0  0  2  0  0  0  0  0  0
  161.6010  206.8570  150.6140 C   0  0  0  0  0  0  0  0  0  0  0  0
  160.5860  206.3950  149.5980 C   0  0  0  0  0  2  0  0  0  0  0  0
  161.1580  204.8330  151.8970 C   0  0  0  0  0  0  0  0  0  0  0  0
  160.5890  204.8710  149.4700 C   0  0  0  0  0  2  0  0  0  0  0  0
  162.6750  206.5770  152.6920 F   0  0  0  0  0  0  0  0  0  0  0  0
  161.8180  206.1390  151.7330 C   0  0  0  0  0  0  0  0  0  0  0  0
  161.2060  204.2230  152.9970 O   0  0  0  0  0  0  0  0  0  0  0  0
  160.4560  204.2640  150.7890 N   0  0  0  0  0  2  0  0  0  0  0  0
  1 21  1  6  0  0  0
  1 11  1  0  0  0  0
  3  9  1  6  0  0  0
  3 15  1  0  0  0  0
  4  7  1  6  0  0  0
  4 11  1  0  0  0  0
  5  3  1  0  0  0  0
  6  8  1  0  0  0  0
  6 10  1  0  0  0  0
  7  9  1  0  0  0  0
  8  2  1  6  0  0  0
  8  4  1  0  0  0  0
 10  1  1  0  0  0  0
 11  5  1  1  0  0  0
 12 20  1  0  0  0  0
 13 17  1  0  0  0  0
 14 17  1  0  0  0  0
 14 19  1  1  0  0  0
 15 12  1  0  0  0  0
 15 18  1  0  0  0  0
 16 18  2  0  0  0  0
 18 13  1  0  0  0  0
 20 14  1  0  0  0  0
 21 26  2  0  0  0  0
 22 21  1  0  0  0  0
 23 27  2  0  0  0  0
 24 22  1  0  0  0  0
 24 28  1  0  0  0  0
 26 23  1  0  0  0  0
 26 25  1  0  0  0  0
 28 23  1  0  0  0  0
M  END
>  <MODEL>
8

>  <REMARK>
 VINA RESULT:      -6.2      2.470      7.513
  Name = 
  2 active torsions:
  status: ('A' for Active; 'I' for Inactive)
    1  A    between atoms: C_1  and  C_2
    2  A    between atoms: C_10  and  N_13
                            x       y       z     vdW  Elec       q    Type
                         _______ _______ _______ _____ _____    ______ ____

>  <TORSDO>
F 2

$$$$
=
 OpenBabel11052422503D

 28 31  0  0  1  0  0  0  0  0999 V2000
  160.7690  204.2430  148.0330 C   0  0  1  0  0  3  0  0  0  0  0  0
  161.3730  201.9530  151.6540 C   0  0  0  0  0  1  0  0  0  0  0  0
  161.0090  207.0500  150.7320 C   0  0  1  0  0  3  0  0  0  0  0  0
  160.8240  204.2470  150.5870 C   0  0  2  0  0  3  0  0  0  0  0  0
  160.8680  206.4300  149.3280 C   0  0  0  0  0  2  0  0  0  0  0  0
  161.5600  202.3100  149.2860 O   0  0  0  0  0  0  0  0  0  0  0  0
  161.5810  204.8130  151.8030 C   0  0  0  0  0  2  0  0  0  0  0  0
  160.8530  202.7030  150.4370 C   0  0  1  0  0  3  0  0  0  0  0  0
  161.9860  206.2870  151.6360 C   0  0  0  0  0  2  0  0  0  0  0  0
  160.7710  202.7110  148.1910 C   0  0  0  0  0  2  0  0  0  0  0  0
  161.2700  204.9530  149.2980 C   0  0  2  0  0  3  0  0  0  0  0  0
  162.1890  208.8560  149.5100 C   0  0  0  0  0  2  0  0  0  0  0  0
  160.8310  210.8720  151.4240 C   0  0  0  0  0  2  0  0  0  0  0  0
  161.9560  211.3550  149.2210 C   0  0  1  0  0  3  0  0  0  0  0  0
  161.3620  208.4660  150.6490 N   0  0  0  0  0  0  0  0  0  0  0  0
  160.6660  208.9760  152.8300 O   0  0  0  0  0  0  0  0  0  0  0  0
  162.0590  211.4530  150.7440 C   0  0  0  0  0  2  0  0  0  0  0  0
  160.9760  209.4010  151.6850 C   0  0  0  0  0  0  0  0  0  0  0  0
  163.1790  211.7060  148.6520 O   0  0  0  0  0  1  0  0  0  0  0  0
  161.5290  209.9750  148.7160 C   0  0  0  0  0  2  0  0  0  0  0  0
  161.5380  204.6720  146.8140 C   0  0  0  0  0  0  0  0  0  0  0  0
  163.0390  204.7420  146.9290 C   0  0  0  0  0  2  0  0  0  0  0  0
  161.7390  205.3390  144.4790 C   0  0  0  0  0  0  0  0  0  0  0  0
  163.7120  204.3280  145.6190 C   0  0  0  0  0  2  0  0  0  0  0  0
  159.5720  205.0320  145.5660 F   0  0  0  0  0  0  0  0  0  0  0  0
  160.9260  205.0190  145.6640 C   0  0  0  0  0  0  0  0  0  0  0  0
  161.2060  205.8280  143.4480 O   0  0  0  0  0  0  0  0  0  0  0  0
  163.1460  205.0890  144.5110 N   0  0  0  0  0  2  0  0  0  0  0  0
  1 21  1  6  0  0  0
  1 10  1  0  0  0  0
  1 11  1  0  0  0  0
  3  5  1  6  0  0  0
  3  9  1  0  0  0  0
  4  7  1  1  0  0  0
  6  8  1  0  0  0  0
  8  4  1  0  0  0  0
  8  2  1  1  0  0  0
  9  7  1  0  0  0  0
 10  6  1  0  0  0  0
 11  5  1  1  0  0  0
 11  4  1  0  0  0  0
 12 15  1  0  0  0  0
 13 18  1  0  0  0  0
 14 19  1  6  0  0  0
 14 17  1  0  0  0  0
 15  3  1  0  0  0  0
 15 18  1  0  0  0  0
 17 13  1  0  0  0  0
 18 16  2  0  0  0  0
 20 14  1  0  0  0  0
 20 12  1  0  0  0  0
 21 22  1  0  0  0  0
 23 28  1  0  0  0  0
 23 26  1  0  0  0  0
 24 22  1  0  0  0  0
 25 26  1  0  0  0  0
 26 21  2  0  0  0  0
 27 23  2  0  0  0  0
 28 24  1  0  0  0  0
M  END
>  <MODEL>
9

>  <REMARK>
 VINA RESULT:      -6.2      3.607      7.738
  Name = 
  2 active torsions:
  status: ('A' for Active; 'I' for Inactive)
    1  A    between atoms: C_1  and  C_2
    2  A    between atoms: C_10  and  N_13
                            x       y       z     vdW  Elec       q    Type
                         _______ _______ _______ _____ _____    ______ ____

>  <TORSDO>
F 2

$$$$
