=
 OpenBabel11062407563D

 34 39  0  0  1  0  0  0  0  0999 V2000
  162.1320  211.5490  148.7950 C   0  0  2  0  0  3  0  0  0  0  0  0
  161.1720  213.6570  149.7910 C   0  0  0  0  0  0  0  0  0  0  0  0
  161.1280  211.3300  151.1110 C   0  0  2  0  0  3  0  0  0  0  0  0
  160.0860  210.8230  153.3430 N   0  0  0  0  0  0  0  0  0  0  0  0
  162.8940  213.6300  147.8580 C   0  0  0  0  0  2  0  0  0  0  0  0
  162.0540  214.4430  148.8400 C   0  0  0  0  0  2  0  0  0  0  0  0
  159.8900  213.0920  152.4230 C   0  0  0  0  0  0  0  0  0  0  0  0
  161.0570  212.1150  149.7460 C   0  0  2  0  0  3  0  0  0  0  0  0
  159.2790  214.0190  151.4330 C   0  0  1  0  0  3  0  0  0  0  0  0
  158.9070  211.0540  154.1690 C   0  0  0  0  0  1  0  0  0  0  0  0
  162.2210  212.3240  147.5040 C   0  0  0  0  0  2  0  0  0  0  0  0
  161.1030  209.8010  150.8360 C   0  0  2  0  0  3  0  0  0  0  0  0
  161.9560  210.0720  148.5360 C   0  0  0  0  0  2  0  0  0  0  0  0
  160.3520  214.4530  150.4920 C   0  0  0  0  0  3  0  0  0  0  0  0
  160.0240  209.4040  153.0200 C   0  0  0  0  0  2  0  0  0  0  0  0
  161.1880  209.0010  152.1350 C   0  0  1  0  0  3  0  0  0  0  0  0
  160.4320  213.5480  153.4200 O   0  0  0  0  0  0  0  0  0  0  0  0
  159.9700  211.6260  152.1050 C   0  0  1  0  0  3  0  0  0  0  0  0
  162.1830  209.3660  149.8520 C   0  0  0  0  0  2  0  0  0  0  0  0
  158.0660  213.4220  150.6970 C   0  0  1  0  0  3  0  0  0  0  0  0
  155.7110  214.4530  153.1730 C   0  0  0  0  0  1  0  0  0  0  0  0
  156.9820  213.1900  151.5880 O   0  0  0  0  0  0  0  0  0  0  0  0
  156.2440  214.3790  151.7570 C   0  0  1  0  0  3  0  0  0  0  0  0
  155.2360  213.4730  149.5900 C   0  0  0  0  0  2  0  0  0  0  0  0
  156.4570  213.7410  148.7010 C   0  0  0  0  0  2  0  0  0  0  0  0
  157.7000  214.2470  149.4400 C   0  0  0  0  0  2  0  0  0  0  0  0
  155.0780  214.4520  150.7610 C   0  0  0  0  0  2  0  0  0  0  0  0
  160.9900  205.5990  150.4230 C   0  0  0  0  0  0  0  0  0  0  0  0
  161.0750  204.7420  151.5250 C   0  0  0  0  0  3  0  0  0  0  0  0
  161.1470  207.5170  151.9040 C   0  0  0  0  0  0  0  0  0  0  0  0
  161.1950  205.2700  152.8130 C   0  0  0  0  0  3  0  0  0  0  0  0
  161.0250  206.9840  150.6110 C   0  0  0  0  0  3  0  0  0  0  0  0
  161.2300  206.6540  153.0020 C   0  0  0  0  0  3  0  0  0  0  0  0
  160.8700  205.0740  149.1430 O   0  0  0  0  0  1  0  0  0  0  0  0
  1 11  1  6  0  0  0
  1  8  1  0  0  0  0
  2 14  2  0  0  0  0
  3 18  1  0  0  0  0
  4 10  1  0  0  0  0
  5  6  1  0  0  0  0
  6  2  1  0  0  0  0
  7 17  2  0  0  0  0
  8  2  1  0  0  0  0
  8  3  1  0  0  0  0
  9  7  1  0  0  0  0
 11  5  1  0  0  0  0
 12  3  1  0  0  0  0
 12 16  1  0  0  0  0
 13  1  1  0  0  0  0
 13 19  1  0  0  0  0
 14  9  1  0  0  0  0
 15  4  1  0  0  0  0
 16 15  1  0  0  0  0
 18  7  1  0  0  0  0
 18  4  1  0  0  0  0
 19 12  1  0  0  0  0
 20  9  1  0  0  0  0
 20 22  1  0  0  0  0
 22 23  1  0  0  0  0
 23 21  1  0  0  0  0
 24 27  1  0  0  0  0
 25 26  1  0  0  0  0
 25 24  1  0  0  0  0
 26 20  1  0  0  0  0
 27 23  1  0  0  0  0
 28 32  2  0  0  0  0
 28 29  1  0  0  0  0
 29 31  2  0  0  0  0
 30 16  1  0  0  0  0
 30 33  2  0  0  0  0
 31 33  1  0  0  0  0
 32 30  1  0  0  0  0
 34 28  1  0  0  0  0
M  END
>  <MODEL>
1

>  <REMARK>
 VINA RESULT:      -4.3      0.000      0.000
  Name = 
  2 active torsions:
  status: ('A' for Active; 'I' for Inactive)
    1  A    between atoms: C_3  and  C_17
    2  A    between atoms: C_12  and  C_28
                            x       y       z     vdW  Elec       q    Type
                         _______ _______ _______ _____ _____    ______ ____

>  <TORSDO>
F 2

$$$$
=
 OpenBabel11062407563D

 34 39  0  0  1  0  0  0  0  0999 V2000
  159.2440  209.9070  155.3860 C   0  0  2  0  0  3  0  0  0  0  0  0
  161.3730  208.8260  154.5770 C   0  0  0  0  0  0  0  0  0  0  0  0
  160.2040  210.8170  153.2260 C   0  0  2  0  0  3  0  0  0  0  0  0
  160.8760  211.8040  151.0120 N   0  0  0  0  0  0  0  0  0  0  0  0
  160.5350  208.7080  157.0240 C   0  0  0  0  0  2  0  0  0  0  0  0
  161.6180  208.3690  156.0030 C   0  0  0  0  0  2  0  0  0  0  0  0
  162.1840  209.9410  151.9340 C   0  0  0  0  0  0  0  0  0  0  0  0
  160.0720  209.5390  154.1380 C   0  0  2  0  0  3  0  0  0  0  0  0
  162.2950  208.4900  152.2430 C   0  0  1  0  0  3  0  0  0  0  0  0
  161.3440  211.4730  149.6720 C   0  0  0  0  0  1  0  0  0  0  0  0
  159.1690  208.7750  156.3810 C   0  0  0  0  0  2  0  0  0  0  0  0
  158.7990  211.4380  152.9910 C   0  0  2  0  0  3  0  0  0  0  0  0
  157.8680  210.4210  155.0370 C   0  0  0  0  0  2  0  0  0  0  0  0
  162.2890  208.3390  153.7270 C   0  0  0  0  0  3  0  0  0  0  0  0
  159.5290  212.3170  150.8020 C   0  0  0  0  0  2  0  0  0  0  0  0
  158.8830  212.6930  152.1230 C   0  0  1  0  0  3  0  0  0  0  0  0
  163.1950  210.6280  151.9010 O   0  0  0  0  0  0  0  0  0  0  0  0
  160.8230  210.5660  151.8210 C   0  0  1  0  0  3  0  0  0  0  0  0
  158.0600  211.7210  154.2930 C   0  0  0  0  0  2  0  0  0  0  0  0
  161.2130  207.6310  151.5650 C   0  0  1  0  0  3  0  0  0  0  0  0
  162.5020  208.1150  148.2730 C   0  0  0  0  0  1  0  0  0  0  0  0
  161.0780  207.9590  150.1890 O   0  0  0  0  0  0  0  0  0  0  0  0
  162.0450  207.2610  149.4370 C   0  0  1  0  0  3  0  0  0  0  0  0
  160.2130  205.4920  149.6510 C   0  0  0  0  0  2  0  0  0  0  0  0
  160.4130  205.2100  151.1470 C   0  0  0  0  0  2  0  0  0  0  0  0
  161.4210  206.1250  151.8510 C   0  0  0  0  0  2  0  0  0  0  0  0
  161.4850  205.9310  148.9150 C   0  0  0  0  0  2  0  0  0  0  0  0
  155.4050  214.1680  152.6430 C   0  0  0  0  0  0  0  0  0  0  0  0
  155.0380  214.4530  151.3240 C   0  0  0  0  0  3  0  0  0  0  0  0
  157.5370  213.3080  151.8630 C   0  0  0  0  0  0  0  0  0  0  0  0
  155.9160  214.1660  150.2760 C   0  0  0  0  0  3  0  0  0  0  0  0
  156.6520  213.5960  152.9130 C   0  0  0  0  0  3  0  0  0  0  0  0
  157.1630  213.5930  150.5450 C   0  0  0  0  0  3  0  0  0  0  0  0
  154.5320  214.4530  153.6840 O   0  0  0  0  0  1  0  0  0  0  0  0
  1 13  1  6  0  0  0
  1 11  1  0  0  0  0
  2  6  1  0  0  0  0
  3  8  1  0  0  0  0
  4 18  1  0  0  0  0
  6  5  1  0  0  0  0
  7  9  1  0  0  0  0
  8  2  1  0  0  0  0
  8  1  1  0  0  0  0
  9 14  1  0  0  0  0
 10  4  1  0  0  0  0
 11  5  1  0  0  0  0
 12  3  1  0  0  0  0
 12 19  1  0  0  0  0
 14  2  2  0  0  0  0
 15  4  1  0  0  0  0
 15 16  1  0  0  0  0
 16 12  1  0  0  0  0
 17  7  2  0  0  0  0
 18  7  1  0  0  0  0
 18  3  1  0  0  0  0
 19 13  1  0  0  0  0
 20 26  1  0  0  0  0
 20  9  1  0  0  0  0
 21 23  1  0  0  0  0
 22 20  1  0  0  0  0
 23 22  1  0  0  0  0
 24 25  1  0  0  0  0
 25 26  1  0  0  0  0
 27 23  1  0  0  0  0
 27 24  1  0  0  0  0
 28 32  1  0  0  0  0
 28 34  1  0  0  0  0
 29 28  2  0  0  0  0
 30 16  1  0  0  0  0
 30 32  2  0  0  0  0
 31 33  2  0  0  0  0
 31 29  1  0  0  0  0
 33 30  1  0  0  0  0
M  END
>  <MODEL>
2

>  <REMARK>
 VINA RESULT:      -3.5      1.979      7.874
  Name = 
  2 active torsions:
  status: ('A' for Active; 'I' for Inactive)
    1  A    between atoms: C_3  and  C_17
    2  A    between atoms: C_12  and  C_28
                            x       y       z     vdW  Elec       q    Type
                         _______ _______ _______ _____ _____    ______ ____

>  <TORSDO>
F 2

$$$$
=
 OpenBabel11062407563D

 34 39  0  0  1  0  0  0  0  0999 V2000
  159.2660  209.6490  155.3620 C   0  0  2  0  0  3  0  0  0  0  0  0
  161.3730  208.5320  154.5450 C   0  0  0  0  0  0  0  0  0  0  0  0
  160.2810  210.5990  153.2440 C   0  0  2  0  0  3  0  0  0  0  0  0
  161.0130  211.6360  151.0720 N   0  0  0  0  0  0  0  0  0  0  0  0
  160.5000  208.3610  156.9760 C   0  0  0  0  0  2  0  0  0  0  0  0
  161.5860  208.0220  155.9580 C   0  0  0  0  0  2  0  0  0  0  0  0
  162.2530  209.7070  151.9500 C   0  0  0  0  0  0  0  0  0  0  0  0
  160.1000  209.2970  154.1120 C   0  0  2  0  0  3  0  0  0  0  0  0
  162.3170  208.2440  152.2130 C   0  0  1  0  0  3  0  0  0  0  0  0
  161.4890  211.3350  149.7280 C   0  0  0  0  0  1  0  0  0  0  0  0
  159.1450  208.4890  156.3180 C   0  0  0  0  0  2  0  0  0  0  0  0
  158.8990  211.2680  153.0120 C   0  0  2  0  0  3  0  0  0  0  0  0
  157.9110  210.2140  155.0120 C   0  0  0  0  0  2  0  0  0  0  0  0
  162.2860  208.0460  153.6910 C   0  0  0  0  0  3  0  0  0  0  0  0
  159.6840  212.1950  150.8620 C   0  0  0  0  0  2  0  0  0  0  0  0
  159.0320  212.5480  152.1860 C   0  0  1  0  0  3  0  0  0  0  0  0
  163.2840  210.3650  151.9520 O   0  0  0  0  0  0  0  0  0  0  0  0
  160.9120  210.3750  151.8400 C   0  0  1  0  0  3  0  0  0  0  0  0
  158.1510  211.5320  154.3130 C   0  0  0  0  0  2  0  0  0  0  0  0
  161.2200  207.4390  151.4940 C   0  0  1  0  0  3  0  0  0  0  0  0
  162.4880  208.1090  148.2260 C   0  0  0  0  0  1  0  0  0  0  0  0
  161.0780  207.8520  150.1410 O   0  0  0  0  0  0  0  0  0  0  0  0
  162.0310  207.1910  149.3400 C   0  0  1  0  0  3  0  0  0  0  0  0
  160.1800  205.4320  149.4630 C   0  0  0  0  0  2  0  0  0  0  0  0
  160.3890  205.0580  150.9360 C   0  0  0  0  0  2  0  0  0  0  0  0
  161.4130  205.9160  151.6860 C   0  0  0  0  0  2  0  0  0  0  0  0
  161.4510  205.9010  148.7430 C   0  0  0  0  0  2  0  0  0  0  0  0
  155.9690  213.9700  150.4140 C   0  0  0  0  0  0  0  0  0  0  0  0
  155.2340  214.4520  151.5010 C   0  0  0  0  0  3  0  0  0  0  0  0
  157.7080  213.2100  151.9290 C   0  0  0  0  0  0  0  0  0  0  0  0
  155.7330  214.3160  152.7990 C   0  0  0  0  0  3  0  0  0  0  0  0
  157.2040  213.3510  150.6260 C   0  0  0  0  0  3  0  0  0  0  0  0
  156.9680  213.6960  153.0120 C   0  0  0  0  0  3  0  0  0  0  0  0
  155.4730  214.1070  149.1240 O   0  0  0  0  0  1  0  0  0  0  0  0
  1 13  1  6  0  0  0
  1 11  1  0  0  0  0
  2  6  1  0  0  0  0
  3  8  1  0  0  0  0
  4 18  1  0  0  0  0
  6  5  1  0  0  0  0
  7 17  2  0  0  0  0
  7  9  1  0  0  0  0
  8  2  1  0  0  0  0
  8  1  1  0  0  0  0
  9 14  1  0  0  0  0
 10  4  1  0  0  0  0
 11  5  1  0  0  0  0
 12  3  1  0  0  0  0
 12 19  1  0  0  0  0
 14  2  2  0  0  0  0
 15  4  1  0  0  0  0
 15 16  1  0  0  0  0
 16 12  1  0  0  0  0
 18  7  1  0  0  0  0
 18  3  1  0  0  0  0
 19 13  1  0  0  0  0
 20 26  1  0  0  0  0
 20  9  1  0  0  0  0
 21 23  1  0  0  0  0
 22 20  1  0  0  0  0
 23 22  1  0  0  0  0
 24 25  1  0  0  0  0
 25 26  1  0  0  0  0
 27 23  1  0  0  0  0
 27 24  1  0  0  0  0
 28 32  2  0  0  0  0
 28 29  1  0  0  0  0
 29 31  2  0  0  0  0
 30 16  1  0  0  0  0
 30 33  2  0  0  0  0
 31 33  1  0  0  0  0
 32 30  1  0  0  0  0
 34 28  1  0  0  0  0
M  END
>  <MODEL>
3

>  <REMARK>
 VINA RESULT:      -3.5      1.976      7.784
  Name = 
  2 active torsions:
  status: ('A' for Active; 'I' for Inactive)
    1  A    between atoms: C_3  and  C_17
    2  A    between atoms: C_12  and  C_28
                            x       y       z     vdW  Elec       q    Type
                         _______ _______ _______ _____ _____    ______ ____

>  <TORSDO>
F 2

$$$$
=
 OpenBabel11062407563D

 34 39  0  0  1  0  0  0  0  0999 V2000
  161.8280  209.1740  149.0200 C   0  0  2  0  0  3  0  0  0  0  0  0
  161.9370  211.0080  150.7460 C   0  0  0  0  0  0  0  0  0  0  0  0
  161.9080  208.4240  151.4380 C   0  0  2  0  0  3  0  0  0  0  0  0
  161.8480  207.4290  153.7470 N   0  0  0  0  0  0  0  0  0  0  0  0
  162.5880  211.3260  148.2610 C   0  0  0  0  0  2  0  0  0  0  0  0
  162.4810  211.9200  149.6630 C   0  0  0  0  0  2  0  0  0  0  0  0
  161.8290  209.8720  153.5000 C   0  0  0  0  0  0  0  0  0  0  0  0
  161.4440  209.5700  150.4610 C   0  0  2  0  0  3  0  0  0  0  0  0
  161.0930  211.1120  153.1310 C   0  0  1  0  0  3  0  0  0  0  0  0
  161.2380  207.5550  155.0650 C   0  0  0  0  0  1  0  0  0  0  0  0
  161.5340  210.2690  148.0250 C   0  0  0  0  0  2  0  0  0  0  0  0
  161.3960  207.0530  150.9160 C   0  0  2  0  0  3  0  0  0  0  0  0
  161.2060  207.8660  148.5940 C   0  0  0  0  0  2  0  0  0  0  0  0
  161.7230  211.6630  151.8960 C   0  0  0  0  0  3  0  0  0  0  0  0
  161.3100  206.1800  153.2230 C   0  0  0  0  0  2  0  0  0  0  0  0
  161.8390  205.9090  151.8270 C   0  0  1  0  0  3  0  0  0  0  0  0
  162.8410  209.9530  154.1810 O   0  0  0  0  0  0  0  0  0  0  0  0
  161.4050  208.5610  152.9030 C   0  0  1  0  0  3  0  0  0  0  0  0
  161.8020  206.7900  149.4700 C   0  0  0  0  0  2  0  0  0  0  0  0
  159.5770  210.9030  152.9690 C   0  0  1  0  0  3  0  0  0  0  0  0
  158.9540  210.7040  156.4780 C   0  0  0  0  0  1  0  0  0  0  0  0
  159.0130  210.2920  154.1220 O   0  0  0  0  0  0  0  0  0  0  0  0
  158.7330  211.2750  155.0930 C   0  0  1  0  0  3  0  0  0  0  0  0
  156.6550  211.4340  153.6140 C   0  0  0  0  0  2  0  0  0  0  0  0
  157.3470  212.0780  152.4040 C   0  0  0  0  0  2  0  0  0  0  0  0
  158.8700  212.2030  152.5180 C   0  0  0  0  0  2  0  0  0  0  0  0
  157.2900  211.7830  154.9660 C   0  0  0  0  0  2  0  0  0  0  0  0
  160.8310  202.9950  149.5830 C   0  0  0  0  0  0  0  0  0  0  0  0
  160.4120  202.0610  150.5340 C   0  0  0  0  0  3  0  0  0  0  0  0
  161.3440  204.5710  151.3580 C   0  0  0  0  0  0  0  0  0  0  0  0
  160.4570  202.3780  151.8940 C   0  0  0  0  0  3  0  0  0  0  0  0
  161.2960  204.2480  149.9930 C   0  0  0  0  0  3  0  0  0  0  0  0
  160.9210  203.6320  152.3050 C   0  0  0  0  0  3  0  0  0  0  0  0
  160.7860  202.6790  148.2320 O   0  0  0  0  0  1  0  0  0  0  0  0
  1 11  1  6  0  0  0
  1  8  1  0  0  0  0
  2 14  2  0  0  0  0
  3 18  1  0  0  0  0
  4 10  1  0  0  0  0
  5  6  1  0  0  0  0
  6  2  1  0  0  0  0
  7 17  2  0  0  0  0
  8  2  1  0  0  0  0
  8  3  1  0  0  0  0
  9  7  1  0  0  0  0
 11  5  1  0  0  0  0
 12  3  1  0  0  0  0
 12 16  1  0  0  0  0
 13  1  1  0  0  0  0
 13 19  1  0  0  0  0
 14  9  1  0  0  0  0
 15  4  1  0  0  0  0
 16 15  1  0  0  0  0
 18  7  1  0  0  0  0
 18  4  1  0  0  0  0
 19 12  1  0  0  0  0
 20  9  1  0  0  0  0
 20 22  1  0  0  0  0
 22 23  1  0  0  0  0
 23 21  1  0  0  0  0
 24 27  1  0  0  0  0
 25 26  1  0  0  0  0
 25 24  1  0  0  0  0
 26 20  1  0  0  0  0
 27 23  1  0  0  0  0
 28 32  2  0  0  0  0
 28 29  1  0  0  0  0
 29 31  2  0  0  0  0
 30 16  1  0  0  0  0
 30 33  2  0  0  0  0
 31 33  1  0  0  0  0
 32 30  1  0  0  0  0
 34 28  1  0  0  0  0
M  END
>  <MODEL>
4

>  <REMARK>
 VINA RESULT:      -2.7      2.339      3.578
  Name = 
  2 active torsions:
  status: ('A' for Active; 'I' for Inactive)
    1  A    between atoms: C_3  and  C_17
    2  A    between atoms: C_12  and  C_28
                            x       y       z     vdW  Elec       q    Type
                         _______ _______ _______ _____ _____    ______ ____

>  <TORSDO>
F 2

$$$$
=
 OpenBabel11062407563D

 34 39  0  0  1  0  0  0  0  0999 V2000
  161.9820  207.3690  151.2030 C   0  0  2  0  0  3  0  0  0  0  0  0
  160.7990  207.4720  153.4270 C   0  0  0  0  0  0  0  0  0  0  0  0
  160.6740  209.4880  151.6720 C   0  0  2  0  0  3  0  0  0  0  0  0
  159.5640  211.7280  151.9460 N   0  0  0  0  0  0  0  0  0  0  0  0
  161.5680  205.2710  152.3050 C   0  0  0  0  0  2  0  0  0  0  0  0
  160.8480  205.9570  153.4630 C   0  0  0  0  0  2  0  0  0  0  0  0
  159.5010  210.1300  153.8090 C   0  0  0  0  0  0  0  0  0  0  0  0
  161.4900  208.3080  152.3250 C   0  0  2  0  0  3  0  0  0  0  0  0
  160.2090  209.4330  154.9170 C   0  0  1  0  0  3  0  0  0  0  0  0
  159.3530  212.8280  152.8790 C   0  0  0  0  0  1  0  0  0  0  0  0
  162.6690  206.1400  151.7440 C   0  0  0  0  0  2  0  0  0  0  0  0
  161.5040  210.1230  150.5220 C   0  0  2  0  0  3  0  0  0  0  0  0
  162.8460  208.0790  150.1900 C   0  0  0  0  0  2  0  0  0  0  0  0
  160.3000  207.9880  154.5610 C   0  0  0  0  0  3  0  0  0  0  0  0
  160.4060  212.3010  150.9040 C   0  0  0  0  0  2  0  0  0  0  0  0
  160.7400  211.2630  149.8480 C   0  0  1  0  0  3  0  0  0  0  0  0
  158.2790  210.1640  153.8030 O   0  0  0  0  0  0  0  0  0  0  0  0
  160.2920  210.6430  152.6400 C   0  0  1  0  0  3  0  0  0  0  0  0
  161.9680  209.0950  149.4970 C   0  0  0  0  0  2  0  0  0  0  0  0
  161.5840  210.0400  155.2490 C   0  0  1  0  0  3  0  0  0  0  0  0
  160.2840  213.2880  155.9570 C   0  0  0  0  0  1  0  0  0  0  0  0
  161.5710  211.4550  155.1150 O   0  0  0  0  0  0  0  0  0  0  0  0
  161.0730  212.0400  156.2970 C   0  0  1  0  0  3  0  0  0  0  0  0
  163.5250  211.6770  156.9180 C   0  0  0  0  0  2  0  0  0  0  0  0
  163.4560  210.1480  157.0250 C   0  0  0  0  0  2  0  0  0  0  0  0
  162.1200  209.5270  156.6060 C   0  0  0  0  0  2  0  0  0  0  0  0
  162.2130  212.3950  157.2610 C   0  0  0  0  0  2  0  0  0  0  0  0
  161.6410  213.0350  146.5940 C   0  0  0  0  0  0  0  0  0  0  0  0
  163.0320  213.1100  146.7090 C   0  0  0  0  0  3  0  0  0  0  0  0
  161.5250  211.9110  148.7430 C   0  0  0  0  0  0  0  0  0  0  0  0
  163.6700  212.5860  147.8360 C   0  0  0  0  0  3  0  0  0  0  0  0
  160.8880  212.4370  147.6080 C   0  0  0  0  0  3  0  0  0  0  0  0
  162.9170  211.9870  148.8510 C   0  0  0  0  0  3  0  0  0  0  0  0
  161.0080  213.5550  145.4730 O   0  0  0  0  0  1  0  0  0  0  0  0
  1 13  1  6  0  0  0
  1 11  1  0  0  0  0
  1  8  1  0  0  0  0
  2  6  1  0  0  0  0
  2 14  2  0  0  0  0
  3  8  1  0  0  0  0
  3 18  1  0  0  0  0
  4 18  1  0  0  0  0
  4 10  1  0  0  0  0
  5  6  1  0  0  0  0
  7  9  1  0  0  0  0
  8  2  1  0  0  0  0
  9 20  1  0  0  0  0
 11  5  1  0  0  0  0
 12  3  1  0  0  0  0
 14  9  1  0  0  0  0
 15  4  1  0  0  0  0
 16 12  1  0  0  0  0
 16 15  1  0  0  0  0
 17  7  2  0  0  0  0
 18  7  1  0  0  0  0
 19 13  1  0  0  0  0
 19 12  1  0  0  0  0
 20 26  1  0  0  0  0
 21 23  1  0  0  0  0
 22 20  1  0  0  0  0
 22 23  1  0  0  0  0
 23 27  1  0  0  0  0
 24 25  1  0  0  0  0
 24 27  1  0  0  0  0
 26 25  1  0  0  0  0
 28 29  2  0  0  0  0
 28 32  1  0  0  0  0
 29 31  1  0  0  0  0
 30 33  1  0  0  0  0
 30 16  1  0  0  0  0
 31 33  2  0  0  0  0
 32 30  2  0  0  0  0
 34 28  1  0  0  0  0
M  END
>  <MODEL>
5

>  <REMARK>
 VINA RESULT:      -2.4      2.703      6.785
  Name = 
  2 active torsions:
  status: ('A' for Active; 'I' for Inactive)
    1  A    between atoms: C_3  and  C_17
    2  A    between atoms: C_12  and  C_28
                            x       y       z     vdW  Elec       q    Type
                         _______ _______ _______ _____ _____    ______ ____

>  <TORSDO>
F 2

$$$$
=
 OpenBabel11062407563D

 34 39  0  0  1  0  0  0  0  0999 V2000
  161.3890  211.5890  149.7020 C   0  0  2  0  0  3  0  0  0  0  0  0
  160.5370  213.5220  151.0790 C   0  0  0  0  0  0  0  0  0  0  0  0
  160.8280  211.0730  152.1180 C   0  0  2  0  0  3  0  0  0  0  0  0
  160.2260  210.2780  154.4280 N   0  0  0  0  0  0  0  0  0  0  0  0
  161.8840  213.7970  148.8860 C   0  0  0  0  0  2  0  0  0  0  0  0
  161.2000  214.4530  150.0830 C   0  0  0  0  0  2  0  0  0  0  0  0
  159.7740  212.6130  153.8140 C   0  0  0  0  0  0  0  0  0  0  0  0
  160.4800  211.9880  150.8840 C   0  0  2  0  0  3  0  0  0  0  0  0
  158.9560  213.5970  153.0550 C   0  0  1  0  0  3  0  0  0  0  0  0
  159.2050  210.3500  155.4660 C   0  0  0  0  0  1  0  0  0  0  0  0
  161.2130  212.4960  148.5100 C   0  0  0  0  0  2  0  0  0  0  0  0
  160.8170  209.5820  151.6830 C   0  0  2  0  0  3  0  0  0  0  0  0
  161.2320  210.1380  149.3160 C   0  0  0  0  0  2  0  0  0  0  0  0
  159.8240  214.1900  151.9970 C   0  0  0  0  0  3  0  0  0  0  0  0
  160.1660  208.8980  153.9640 C   0  0  0  0  0  2  0  0  0  0  0  0
  161.1680  208.6590  152.8500 C   0  0  1  0  0  3  0  0  0  0  0  0
  160.4660  212.9960  154.7470 O   0  0  0  0  0  0  0  0  0  0  0  0
  159.8560  211.1950  153.3260 C   0  0  1  0  0  3  0  0  0  0  0  0
  161.7210  209.3160  150.4850 C   0  0  0  0  0  2  0  0  0  0  0  0
  157.6570  213.0060  152.4800 C   0  0  1  0  0  3  0  0  0  0  0  0
  155.7550  213.5930  155.4430 C   0  0  0  0  0  1  0  0  0  0  0  0
  156.7680  212.6040  153.5150 O   0  0  0  0  0  0  0  0  0  0  0  0
  156.0200  213.7140  153.9570 C   0  0  1  0  0  3  0  0  0  0  0  0
  154.6710  212.9900  151.9100 C   0  0  0  0  0  2  0  0  0  0  0  0
  155.6940  213.4380  150.8570 C   0  0  0  0  0  2  0  0  0  0  0  0
  157.0280  213.9400  151.4190 C   0  0  0  0  0  2  0  0  0  0  0  0
  154.6880  213.8190  153.2000 C   0  0  0  0  0  2  0  0  0  0  0  0
  161.0490  205.4520  150.7910 C   0  0  0  0  0  0  0  0  0  0  0  0
  161.1150  204.4860  151.8000 C   0  0  0  0  0  3  0  0  0  0  0  0
  161.1490  207.2070  152.4660 C   0  0  0  0  0  0  0  0  0  0  0  0
  161.1950  204.8780  153.1380 C   0  0  0  0  0  3  0  0  0  0  0  0
  161.0660  206.8100  151.1220 C   0  0  0  0  0  3  0  0  0  0  0  0
  161.2110  206.2360  153.4710 C   0  0  0  0  0  3  0  0  0  0  0  0
  160.9680  205.0620  149.4610 O   0  0  0  0  0  1  0  0  0  0  0  0
  1 11  1  6  0  0  0
  1  8  1  0  0  0  0
  2 14  2  0  0  0  0
  3 18  1  0  0  0  0
  4 10  1  0  0  0  0
  5  6  1  0  0  0  0
  6  2  1  0  0  0  0
  7 17  2  0  0  0  0
  8  2  1  0  0  0  0
  8  3  1  0  0  0  0
  9  7  1  0  0  0  0
 11  5  1  0  0  0  0
 12  3  1  0  0  0  0
 12 16  1  0  0  0  0
 13  1  1  0  0  0  0
 13 19  1  0  0  0  0
 14  9  1  0  0  0  0
 15  4  1  0  0  0  0
 16 15  1  0  0  0  0
 18  7  1  0  0  0  0
 18  4  1  0  0  0  0
 19 12  1  0  0  0  0
 20  9  1  0  0  0  0
 20 22  1  0  0  0  0
 22 23  1  0  0  0  0
 23 21  1  0  0  0  0
 24 27  1  0  0  0  0
 25 26  1  0  0  0  0
 25 24  1  0  0  0  0
 26 20  1  0  0  0  0
 27 23  1  0  0  0  0
 28 32  2  0  0  0  0
 28 29  1  0  0  0  0
 29 31  2  0  0  0  0
 30 16  1  0  0  0  0
 30 33  2  0  0  0  0
 31 33  1  0  0  0  0
 32 30  1  0  0  0  0
 34 28  1  0  0  0  0
M  END
>  <MODEL>
6

>  <REMARK>
 VINA RESULT:      -1.7      1.169      1.487
  Name = 
  2 active torsions:
  status: ('A' for Active; 'I' for Inactive)
    1  A    between atoms: C_3  and  C_17
    2  A    between atoms: C_12  and  C_28
                            x       y       z     vdW  Elec       q    Type
                         _______ _______ _______ _____ _____    ______ ____

>  <TORSDO>
F 2

$$$$
