=
 OpenBabel11062408563D

 55 63  0  0  1  0  0  0  0  0999 V2000
  159.7750  213.7860  151.1010 C   0  0  0  0  0  3  0  0  0  0  0  0
  161.0570  212.3330  149.0890 C   0  0  0  0  0  0  0  0  0  0  0  0
  160.4980  211.6650  150.1860 C   0  0  0  0  0  3  0  0  0  0  0  0
  160.3460  214.4530  150.0130 C   0  0  0  0  0  3  0  0  0  0  0  0
  159.8630  212.3900  151.2000 C   0  0  0  0  0  0  0  0  0  0  0  0
  160.9870  213.7260  149.0080 C   0  0  0  0  0  3  0  0  0  0  0  0
  159.2160  211.6500  152.3310 C   0  0  2  0  0  3  0  0  0  0  0  0
  162.3850  211.2860  153.9080 C   0  0  0  0  0  1  0  0  0  0  0  0
  161.5090  209.1970  154.9170 C   0  0  2  0  0  3  0  0  0  0  0  0
  159.7600  212.1270  153.6670 C   0  0  2  0  0  3  0  0  0  0  0  0
  161.3730  210.7150  154.9030 C   0  0  2  0  0  3  0  0  0  0  0  0
  159.4650  209.8620  152.2130 S   0  0  0  0  0  0  0  0  0  0  0  0
  160.1890  208.6580  154.6140 N   0  0  0  0  0  0  0  0  0  0  0  0
  159.9570  211.0040  154.5950 N   0  0  2  0  0  0  0  0  0  0  0  0
  159.4160  209.7670  154.0360 C   0  0  1  0  0  3  0  0  0  0  0  0
  162.4710  209.7900  157.1630 C   0  0  0  0  0  1  0  0  0  0  0  0
  162.0260  208.6560  156.2560 C   0  0  0  0  0  3  0  0  0  0  0  0
  161.0040  207.7850  156.9720 C   0  0  0  0  0  1  0  0  0  0  0  0
  159.3420  213.5660  155.6660 C   0  0  0  0  0  1  0  0  0  0  0  0
  158.8570  213.2040  154.2750 C   0  0  2  0  0  3  0  0  0  0  0  0
  157.3950  212.7710  154.3170 C   0  0  0  0  0  2  0  0  0  0  0  0
  156.4820  213.9830  154.3630 C   0  0  0  0  0  1  0  0  0  0  0  0
  160.1870  207.4030  153.8390 C   0  0  0  0  0  2  0  0  0  0  0  0
  161.5740  205.4110  153.1640 C   0  0  0  0  0  2  0  0  0  0  0  0
  161.9180  207.5410  152.0620 C   0  0  0  0  0  2  0  0  0  0  0  0
  162.7400  206.5030  151.3330 C   0  0  0  0  0  2  0  0  0  0  0  0
  162.2470  205.1560  151.8270 C   0  0  2  0  0  3  0  0  0  0  0  0
  161.5710  206.9160  153.3910 C   0  0  1  0  0  3  0  0  0  0  0  0
  160.9070  203.2250  150.8710 C   0  0  0  0  0  0  0  0  0  0  0  0
  159.8810  202.7540  149.9040 C   0  0  0  0  0  1  0  0  0  0  0  0
  161.2590  204.6110  150.9030 N   0  0  0  0  0  2  0  0  0  0  0  0
  161.4540  202.4030  151.6550 O   0  0  0  0  0  0  0  0  0  0  0  0
  161.6960  211.5620  147.9870 C   0  0  0  0  0  2  0  0  0  0  0  0
  161.6120  212.3230  146.6710 C   0  0  0  0  0  2  0  0  0  0  0  0
  160.4190  211.8330  145.8620 C   0  0  0  0  0  2  0  0  0  0  0  0
  160.6790  212.0240  144.3740 C   0  0  0  0  0  2  0  0  0  0  0  0
  160.6500  212.1180  141.3790 C   0  0  2  0  0  0  0  0  0  0  0  0
  162.3530  211.7570  139.0500 C   0  0  2  0  0  3  0  0  0  0  0  0
  162.9870  211.9840  140.4660 C   0  0  2  0  0  0  0  0  0  0  0  0
  157.4310  213.6790  143.0520 O   0  0  0  0  0  0  0  0  0  0  0  0
  159.4220  212.0350  143.6330 N   0  0  0  0  0  0  0  0  0  0  0  0
  161.4970  214.2050  139.3970 C   0  0  0  0  0  2  0  0  0  0  0  0
  163.2910  213.4360  140.8550 C   0  0  0  0  0  2  0  0  0  0  0  0
  163.8350  211.5950  139.2890 C   0  0  0  0  0  2  0  0  0  0  0  0
  158.8830  213.6770  143.4350 S   0  0  0  0  0  0  0  0  0  0  0  0
  161.0170  213.5700  141.8200 C   0  0  1  0  0  3  0  0  0  0  0  0
  159.0550  214.4430  144.7170 O   0  0  0  0  0  0  0  0  0  0  0  0
  162.0050  214.2350  140.8390 C   0  0  2  0  0  3  0  0  0  0  0  0
  160.1150  212.1540  139.9110 C   0  0  2  0  0  3  0  0  0  0  0  0
  159.6040  211.4330  142.3010 C   0  0  0  0  0  2  0  0  0  0  0  0
  161.1780  212.7570  138.9750 C   0  0  2  0  0  3  0  0  0  0  0  0
  159.8220  214.4520  142.1390 C   0  0  0  0  0  2  0  0  0  0  0  0
  161.7620  209.9500  141.0500 O   0  0  0  0  0  1  0  0  0  0  0  0
  158.7580  212.8310  139.7370 C   0  0  0  0  0  1  0  0  0  0  0  0
  161.9750  211.2880  141.4030 C   0  0  2  0  0  3  0  0  0  0  0  0
  1  5  1  0  0  0  0
  2  3  1  0  0  0  0
  3  5  2  0  0  0  0
  4  1  2  0  0  0  0
  6  2  2  0  0  0  0
  6  4  1  0  0  0  0
  7  5  1  6  0  0  0
  7 10  1  0  0  0  0
  9 17  1  1  0  0  0
 10 20  1  1  0  0  0
 10 14  1  0  0  0  0
 11  8  1  6  0  0  0
 11  9  1  0  0  0  0
 12  7  1  0  0  0  0
 12 15  1  0  0  0  0
 13  9  1  0  0  0  0
 14 11  1  0  0  0  0
 15 14  1  0  0  0  0
 15 13  1  0  0  0  0
 17 18  1  0  0  0  0
 17 16  1  0  0  0  0
 20 21  1  0  0  0  0
 20 19  1  0  0  0  0
 21 22  1  0  0  0  0
 23 13  1  0  0  0  0
 24 28  1  0  0  0  0
 25 28  1  0  0  0  0
 26 27  1  0  0  0  0
 26 25  1  0  0  0  0
 27 24  1  0  0  0  0
 28 23  1  0  0  0  0
 29 31  1  0  0  0  0
 29 32  2  0  0  0  0
 30 29  1  0  0  0  0
 31 27  1  0  0  0  0
 33  2  1  0  0  0  0
 34 33  1  0  0  0  0
 35 34  1  0  0  0  0
 36 35  1  0  0  0  0
 37 55  1  0  0  0  0
 37 46  1  0  0  0  0
 37 50  1  0  0  0  0
 38 44  1  0  0  0  0
 38 39  1  0  0  0  0
 39 43  1  0  0  0  0
 39 55  1  0  0  0  0
 40 45  2  0  0  0  0
 41 36  1  0  0  0  0
 42 48  1  0  0  0  0
 44 39  1  0  0  0  0
 45 41  1  0  0  0  0
 45 47  2  0  0  0  0
 46 52  1  0  0  0  0
 48 43  1  0  0  0  0
 48 46  1  0  0  0  0
 49 37  1  0  0  0  0
 50 41  1  0  0  0  0
 51 38  1  0  0  0  0
 51 42  1  0  0  0  0
 51 49  1  0  0  0  0
 52 45  1  0  0  0  0
 53 55  1  0  0  0  0
 54 49  1  0  0  0  0
M  END
>  <MODEL>
1

>  <REMARK>
 VINA RESULT:      -1.5      0.000      0.000
  Name = 
  12 active torsions:
  status: ('A' for Active; 'I' for Inactive)
    1  A    between atoms: C_2  and  C_44
    2  A    between atoms: C_4  and  C_40
    3  A    between atoms: N_8  and  C_43
    4  A    between atoms: C_16  and  C_17
    5  A    between atoms: C_19  and  C_40
    6  A    between atoms: C_27  and  C_54
    7  A    between atoms: N_32  and  C_48
    8  A    between atoms: C_33  and  N_36
    9  A    between atoms: C_33  and  C_52
   10  A    between atoms: C_35  and  C_43
   11  A    between atoms: C_35  and  C_51
   12  A    between atoms: C_51  and  C_54
                            x       y       z     vdW  Elec       q    Type
                         _______ _______ _______ _____ _____    ______ ____

>  <TORSDO>
F 12

$$$$
=
 OpenBabel11062408563D

 55 63  0  0  1  0  0  0  0  0999 V2000
  159.3770  209.0030  156.4490 C   0  0  0  0  0  3  0  0  0  0  0  0
  160.7540  207.0410  155.0130 C   0  0  0  0  0  0  0  0  0  0  0  0
  160.8250  208.3800  154.6100 C   0  0  0  0  0  3  0  0  0  0  0  0
  159.2960  207.6630  156.8410 C   0  0  0  0  0  3  0  0  0  0  0  0
  160.1300  209.3650  155.3210 C   0  0  0  0  0  0  0  0  0  0  0  0
  159.9840  206.6830  156.1220 C   0  0  0  0  0  3  0  0  0  0  0  0
  160.2720  210.7990  154.9110 C   0  0  2  0  0  3  0  0  0  0  0  0
  156.7710  211.2690  155.3350 C   0  0  0  0  0  1  0  0  0  0  0  0
  156.9170  213.0240  153.5900 C   0  0  2  0  0  3  0  0  0  0  0  0
  159.4600  211.7020  155.8240 C   0  0  2  0  0  3  0  0  0  0  0  0
  157.3260  212.6570  155.0110 C   0  0  2  0  0  3  0  0  0  0  0  0
  159.7460  211.0800  153.2040 S   0  0  0  0  0  0  0  0  0  0  0  0
  158.1460  213.3310  152.8690 N   0  0  0  0  0  0  0  0  0  0  0  0
  158.7980  212.7730  155.0640 N   0  0  2  0  0  0  0  0  0  0  0  0
  159.2430  212.7730  153.6720 C   0  0  1  0  0  3  0  0  0  0  0  0
  154.9730  214.0590  152.3770 C   0  0  0  0  0  1  0  0  0  0  0  0
  155.9420  214.2080  153.5360 C   0  0  0  0  0  3  0  0  0  0  0  0
  155.1750  214.3960  154.8380 C   0  0  0  0  0  1  0  0  0  0  0  0
  159.9920  213.7300  157.1810 C   0  0  0  0  0  1  0  0  0  0  0  0
  160.3270  212.2690  156.9510 C   0  0  2  0  0  3  0  0  0  0  0  0
  161.8160  212.1010  156.6690 C   0  0  0  0  0  2  0  0  0  0  0  0
  162.2490  210.6690  156.9250 C   0  0  0  0  0  1  0  0  0  0  0  0
  158.1450  212.9610  151.4400 C   0  0  0  0  0  2  0  0  0  0  0  0
  159.8750  214.3210  150.2140 C   0  0  0  0  0  2  0  0  0  0  0  0
  157.7700  213.8020  149.1320 C   0  0  0  0  0  2  0  0  0  0  0  0
  158.6710  214.4530  148.1070 C   0  0  0  0  0  2  0  0  0  0  0  0
  160.0610  214.4530  148.7130 C   0  0  2  0  0  3  0  0  0  0  0  0
  158.3870  214.1260  150.4710 C   0  0  1  0  0  3  0  0  0  0  0  0
  162.2380  213.3360  148.0390 C   0  0  0  0  0  0  0  0  0  0  0  0
  162.9360  212.1150  147.5560 C   0  0  0  0  0  1  0  0  0  0  0  0
  160.8200  213.3040  148.2330 N   0  0  0  0  0  2  0  0  0  0  0  0
  162.8970  214.3840  148.2750 O   0  0  0  0  0  0  0  0  0  0  0  0
  161.5260  205.9970  154.2850 C   0  0  0  0  0  2  0  0  0  0  0  0
  161.5780  206.2990  152.7940 C   0  0  0  0  0  2  0  0  0  0  0  0
  161.5760  205.0000  151.9990 C   0  0  0  0  0  2  0  0  0  0  0  0
  161.9700  205.2670  150.5540 C   0  0  0  0  0  2  0  0  0  0  0  0
  160.9890  204.9610  147.7380 C   0  0  2  0  0  0  0  0  0  0  0  0
  160.7660  203.0280  145.5770 C   0  0  2  0  0  3  0  0  0  0  0  0
  161.7600  202.7770  146.7640 C   0  0  2  0  0  0  0  0  0  0  0  0
  161.1540  208.7100  148.9690 O   0  0  0  0  0  0  0  0  0  0  0  0
  161.0790  206.2550  149.9550 N   0  0  0  0  0  0  0  0  0  0  0  0
  162.3750  205.0290  145.0790 C   0  0  0  0  0  2  0  0  0  0  0  0
  163.1920  203.2920  146.5770 C   0  0  0  0  0  2  0  0  0  0  0  0
  161.4770  201.7080  145.7480 C   0  0  0  0  0  2  0  0  0  0  0  0
  162.0280  207.5140  149.2170 S   0  0  0  0  0  0  0  0  0  0  0  0
  162.4720  205.4290  147.5950 C   0  0  1  0  0  3  0  0  0  0  0  0
  163.1630  207.9100  150.1180 O   0  0  0  0  0  0  0  0  0  0  0  0
  163.1590  204.7910  146.3690 C   0  0  2  0  0  3  0  0  0  0  0  0
  160.2350  205.2520  146.4010 C   0  0  2  0  0  3  0  0  0  0  0  0
  160.2370  205.6310  148.9210 C   0  0  0  0  0  2  0  0  0  0  0  0
  160.9270  204.5250  145.2340 C   0  0  2  0  0  3  0  0  0  0  0  0
  162.6660  206.9340  147.6620 C   0  0  0  0  0  2  0  0  0  0  0  0
  159.7360  202.8830  148.1340 O   0  0  0  0  0  1  0  0  0  0  0  0
  160.0140  206.7320  146.0960 C   0  0  0  0  0  1  0  0  0  0  0  0
  161.0210  203.4130  147.9620 C   0  0  2  0  0  3  0  0  0  0  0  0
  1  4  1  0  0  0  0
  2  6  1  0  0  0  0
  3  2  2  0  0  0  0
  3  5  1  0  0  0  0
  5  1  2  0  0  0  0
  6  4  2  0  0  0  0
  7  5  1  1  0  0  0
  7 10  1  0  0  0  0
  9 17  1  1  0  0  0
  9 11  1  0  0  0  0
 10 20  1  1  0  0  0
 11 14  1  0  0  0  0
 11  8  1  6  0  0  0
 12 15  1  0  0  0  0
 12  7  1  0  0  0  0
 13  9  1  0  0  0  0
 13 15  1  0  0  0  0
 14 10  1  0  0  0  0
 15 14  1  0  0  0  0
 16 17  1  0  0  0  0
 17 18  1  0  0  0  0
 20 19  1  0  0  0  0
 21 22  1  0  0  0  0
 21 20  1  0  0  0  0
 23 13  1  0  0  0  0
 24 28  1  0  0  0  0
 25 28  1  0  0  0  0
 26 27  1  0  0  0  0
 26 25  1  0  0  0  0
 27 24  1  0  0  0  0
 28 23  1  0  0  0  0
 29 31  1  0  0  0  0
 29 32  2  0  0  0  0
 30 29  1  0  0  0  0
 31 27  1  0  0  0  0
 33  2  1  0  0  0  0
 34 33  1  0  0  0  0
 35 34  1  0  0  0  0
 36 35  1  0  0  0  0
 37 55  1  0  0  0  0
 37 50  1  0  0  0  0
 38 44  1  0  0  0  0
 38 39  1  0  0  0  0
 39 55  1  0  0  0  0
 40 45  2  0  0  0  0
 41 36  1  0  0  0  0
 42 51  1  0  0  0  0
 42 48  1  0  0  0  0
 43 39  1  0  0  0  0
 44 39  1  0  0  0  0
 45 41  1  0  0  0  0
 45 47  2  0  0  0  0
 46 52  1  0  0  0  0
 46 37  1  0  0  0  0
 48 43  1  0  0  0  0
 48 46  1  0  0  0  0
 49 37  1  0  0  0  0
 50 41  1  0  0  0  0
 51 38  1  0  0  0  0
 51 49  1  0  0  0  0
 52 45  1  0  0  0  0
 54 49  1  0  0  0  0
 55 53  1  0  0  0  0
M  END
>  <MODEL>
2

>  <REMARK>
 VINA RESULT:      -0.9      4.609      8.558
  Name = 
  12 active torsions:
  status: ('A' for Active; 'I' for Inactive)
    1  A    between atoms: C_2  and  C_44
    2  A    between atoms: C_4  and  C_40
    3  A    between atoms: N_8  and  C_43
    4  A    between atoms: C_16  and  C_17
    5  A    between atoms: C_19  and  C_40
    6  A    between atoms: C_27  and  C_54
    7  A    between atoms: N_32  and  C_48
    8  A    between atoms: C_33  and  N_36
    9  A    between atoms: C_33  and  C_52
   10  A    between atoms: C_35  and  C_43
   11  A    between atoms: C_35  and  C_51
   12  A    between atoms: C_51  and  C_54
                            x       y       z     vdW  Elec       q    Type
                         _______ _______ _______ _____ _____    ______ ____

>  <TORSDO>
F 12

$$$$
=
 OpenBabel11062408563D

 55 63  0  0  1  0  0  0  0  0999 V2000
  160.9100  209.1920  154.6610 C   0  0  0  0  0  3  0  0  0  0  0  0
  161.2560  207.8690  152.2250 C   0  0  0  0  0  0  0  0  0  0  0  0
  161.1160  209.2620  152.2500 C   0  0  0  0  0  3  0  0  0  0  0  0
  161.0360  207.7990  154.6330 C   0  0  0  0  0  3  0  0  0  0  0  0
  160.9330  209.9280  153.4660 C   0  0  0  0  0  0  0  0  0  0  0  0
  161.2080  207.1390  153.4150 C   0  0  0  0  0  3  0  0  0  0  0  0
  160.8510  211.4240  153.4750 C   0  0  2  0  0  3  0  0  0  0  0  0
  157.5610  211.2520  152.1300 C   0  0  0  0  0  1  0  0  0  0  0  0
  158.0030  213.4570  151.0850 C   0  0  2  0  0  3  0  0  0  0  0  0
  159.5010  211.8850  153.9990 C   0  0  2  0  0  3  0  0  0  0  0  0
  157.8030  212.7360  152.4130 C   0  0  2  0  0  3  0  0  0  0  0  0
  161.1060  212.1350  151.8310 S   0  0  0  0  0  0  0  0  0  0  0  0
  159.2900  214.1360  151.1700 N   0  0  0  0  0  0  0  0  0  0  0  0
  158.9960  213.0330  153.2320 N   0  0  2  0  0  0  0  0  0  0  0  0
  160.0060  213.5180  152.2950 C   0  0  1  0  0  3  0  0  0  0  0  0
  156.4200  214.3170  149.3300 C   0  0  0  0  0  1  0  0  0  0  0  0
  156.8790  214.4530  150.7720 C   0  0  0  0  0  3  0  0  0  0  0  0
  155.6910  214.3140  151.7140 C   0  0  0  0  0  1  0  0  0  0  0  0
  158.7850  211.1630  156.2800 C   0  0  0  0  0  1  0  0  0  0  0  0
  159.5700  212.1970  155.4960 C   0  0  2  0  0  3  0  0  0  0  0  0
  159.0660  213.6010  155.8140 C   0  0  0  0  0  2  0  0  0  0  0  0
  159.9890  214.2870  156.8050 C   0  0  0  0  0  1  0  0  0  0  0  0
  160.0400  214.2210  149.9020 C   0  0  0  0  0  2  0  0  0  0  0  0
  159.5810  213.5620  147.5140 C   0  0  0  0  0  2  0  0  0  0  0  0
  161.0390  212.1890  148.8780 C   0  0  0  0  0  2  0  0  0  0  0  0
  161.1000  211.6650  147.4610 C   0  0  0  0  0  2  0  0  0  0  0  0
  160.4580  212.7310  146.5940 C   0  0  2  0  0  3  0  0  0  0  0  0
  159.8040  213.0550  148.9320 C   0  0  1  0  0  3  0  0  0  0  0  0
  161.8700  213.5270  144.6410 C   0  0  0  0  0  0  0  0  0  0  0  0
  162.9160  214.4530  144.1310 C   0  0  0  0  0  1  0  0  0  0  0  0
  161.4820  213.5950  146.0170 N   0  0  0  0  0  2  0  0  0  0  0  0
  161.3330  212.6950  143.8610 O   0  0  0  0  0  0  0  0  0  0  0  0
  161.4930  207.1610  150.9360 C   0  0  0  0  0  2  0  0  0  0  0  0
  161.2280  208.0820  149.7530 C   0  0  0  0  0  2  0  0  0  0  0  0
  162.1270  207.7000  148.5850 C   0  0  0  0  0  2  0  0  0  0  0  0
  162.0700  206.1980  148.3470 C   0  0  0  0  0  2  0  0  0  0  0  0
  160.6320  203.5680  148.3590 C   0  0  2  0  0  0  0  0  0  0  0  0
  160.0770  201.2580  150.0360 C   0  0  2  0  0  3  0  0  0  0  0  0
  161.2610  202.2240  150.3870 C   0  0  2  0  0  0  0  0  0  0  0  0
  160.9420  205.1970  144.7750 O   0  0  0  0  0  0  0  0  0  0  0  0
  161.0750  205.8790  147.3290 N   0  0  0  0  0  0  0  0  0  0  0  0
  161.5460  200.7440  147.9330 C   0  0  0  0  0  2  0  0  0  0  0  0
  162.6330  201.8650  149.8020 C   0  0  0  0  0  2  0  0  0  0  0  0
  160.8290  201.1480  151.3400 C   0  0  0  0  0  2  0  0  0  0  0  0
  161.8640  205.1510  145.9600 S   0  0  0  0  0  0  0  0  0  0  0  0
  162.0610  203.2390  147.8250 C   0  0  1  0  0  3  0  0  0  0  0  0
  163.1290  205.8920  145.6290 O   0  0  0  0  0  0  0  0  0  0  0  0
  162.5410  201.8480  148.2910 C   0  0  2  0  0  3  0  0  0  0  0  0
  159.6570  202.4200  147.9430 C   0  0  2  0  0  3  0  0  0  0  0  0
  160.0800  204.9320  147.8590 C   0  0  0  0  0  2  0  0  0  0  0  0
  160.1530  201.0750  148.5050 C   0  0  2  0  0  3  0  0  0  0  0  0
  162.2400  203.4530  146.3320 C   0  0  0  0  0  2  0  0  0  0  0  0
  159.4980  203.9140  150.5140 O   0  0  0  0  0  1  0  0  0  0  0  0
  159.3640  202.3360  146.4470 C   0  0  0  0  0  1  0  0  0  0  0  0
  160.7260  203.5960  149.9210 C   0  0  2  0  0  3  0  0  0  0  0  0
  2  3  2  0  0  0  0
  2  6  1  0  0  0  0
  3  5  1  0  0  0  0
  4  1  1  0  0  0  0
  5  1  2  0  0  0  0
  6  4  2  0  0  0  0
  7  5  1  6  0  0  0
  7 10  1  0  0  0  0
  9 17  1  1  0  0  0
  9 13  1  0  0  0  0
  9 11  1  0  0  0  0
 10 20  1  1  0  0  0
 11  8  1  6  0  0  0
 11 14  1  0  0  0  0
 12 15  1  0  0  0  0
 12  7  1  0  0  0  0
 13 15  1  0  0  0  0
 14 10  1  0  0  0  0
 15 14  1  0  0  0  0
 16 17  1  0  0  0  0
 17 18  1  0  0  0  0
 20 21  1  0  0  0  0
 20 19  1  0  0  0  0
 21 22  1  0  0  0  0
 23 13  1  0  0  0  0
 24 28  1  0  0  0  0
 25 28  1  0  0  0  0
 26 25  1  0  0  0  0
 27 26  1  0  0  0  0
 27 24  1  0  0  0  0
 28 23  1  0  0  0  0
 29 31  1  0  0  0  0
 30 29  1  0  0  0  0
 31 27  1  0  0  0  0
 32 29  2  0  0  0  0
 33  2  1  0  0  0  0
 34 33  1  0  0  0  0
 35 34  1  0  0  0  0
 36 35  1  0  0  0  0
 37 55  1  0  0  0  0
 38 39  1  0  0  0  0
 38 44  1  0  0  0  0
 39 44  1  0  0  0  0
 40 45  2  0  0  0  0
 41 50  1  0  0  0  0
 41 36  1  0  0  0  0
 42 48  1  0  0  0  0
 42 51  1  0  0  0  0
 43 39  1  0  0  0  0
 45 52  1  0  0  0  0
 45 41  1  0  0  0  0
 46 48  1  0  0  0  0
 46 37  1  0  0  0  0
 47 45  2  0  0  0  0
 48 43  1  0  0  0  0
 49 37  1  0  0  0  0
 49 51  1  0  0  0  0
 50 37  1  0  0  0  0
 51 38  1  0  0  0  0
 52 46  1  0  0  0  0
 54 49  1  0  0  0  0
 55 39  1  0  0  0  0
 55 53  1  0  0  0  0
M  END
>  <MODEL>
3

>  <REMARK>
 VINA RESULT:       1.0      3.182      9.379
  Name = 
  12 active torsions:
  status: ('A' for Active; 'I' for Inactive)
    1  A    between atoms: C_2  and  C_44
    2  A    between atoms: C_4  and  C_40
    3  A    between atoms: N_8  and  C_43
    4  A    between atoms: C_16  and  C_17
    5  A    between atoms: C_19  and  C_40
    6  A    between atoms: C_27  and  C_54
    7  A    between atoms: N_32  and  C_48
    8  A    between atoms: C_33  and  N_36
    9  A    between atoms: C_33  and  C_52
   10  A    between atoms: C_35  and  C_43
   11  A    between atoms: C_35  and  C_51
   12  A    between atoms: C_51  and  C_54
                            x       y       z     vdW  Elec       q    Type
                         _______ _______ _______ _____ _____    ______ ____

>  <TORSDO>
F 12

$$$$
=
 OpenBabel11062408563D

 55 63  0  0  1  0  0  0  0  0999 V2000
  163.7000  211.5780  148.9290 C   0  0  0  0  0  3  0  0  0  0  0  0
  161.4620  212.1950  147.3740 C   0  0  0  0  0  0  0  0  0  0  0  0
  161.3180  211.4160  148.5290 C   0  0  0  0  0  3  0  0  0  0  0  0
  163.8440  212.3440  147.7680 C   0  0  0  0  0  3  0  0  0  0  0  0
  162.4370  211.0970  149.3050 C   0  0  0  0  0  0  0  0  0  0  0  0
  162.7260  212.6510  146.9920 C   0  0  0  0  0  3  0  0  0  0  0  0
  162.2500  210.3170  150.5710 C   0  0  2  0  0  3  0  0  0  0  0  0
  159.0820  211.8640  151.0580 C   0  0  0  0  0  1  0  0  0  0  0  0
  159.4410  211.5570  153.4920 C   0  0  2  0  0  3  0  0  0  0  0  0
  160.8370  209.7620  150.6570 C   0  0  2  0  0  3  0  0  0  0  0  0
  159.1990  210.8270  152.1770 C   0  0  2  0  0  3  0  0  0  0  0  0
  162.5690  211.3150  152.0450 S   0  0  0  0  0  0  0  0  0  0  0  0
  160.6690  211.0070  154.0540 N   0  0  0  0  0  0  0  0  0  0  0  0
  160.3080  209.8620  152.0250 N   0  0  2  0  0  0  0  0  0  0  0  0
  161.3460  210.3070  152.9530 C   0  0  1  0  0  3  0  0  0  0  0  0
  158.5390  212.2000  155.7490 C   0  0  0  0  0  1  0  0  0  0  0  0
  158.2750  211.4110  154.4780 C   0  0  0  0  0  3  0  0  0  0  0  0
  156.9400  211.8240  153.8750 C   0  0  0  0  0  1  0  0  0  0  0  0
  161.1060  207.3520  151.2560 C   0  0  0  0  0  1  0  0  0  0  0  0
  160.7790  208.3240  150.1380 C   0  0  2  0  0  3  0  0  0  0  0  0
  161.7110  208.1030  148.9510 C   0  0  0  0  0  2  0  0  0  0  0  0
  161.6110  206.6720  148.4530 C   0  0  0  0  0  1  0  0  0  0  0  0
  161.4980  211.9660  154.8100 C   0  0  0  0  0  2  0  0  0  0  0  0
  161.0770  210.3230  156.6730 C   0  0  0  0  0  2  0  0  0  0  0  0
  163.3510  210.9500  156.1170 C   0  0  0  0  0  2  0  0  0  0  0  0
  163.4130  209.8250  157.1250 C   0  0  0  0  0  2  0  0  0  0  0  0
  162.0120  209.2450  157.1910 C   0  0  2  0  0  3  0  0  0  0  0  0
  161.9410  211.4830  156.1970 C   0  0  1  0  0  3  0  0  0  0  0  0
  160.6660  207.6150  155.7870 C   0  0  0  0  0  0  0  0  0  0  0  0
  160.6510  206.4230  154.8980 C   0  0  0  0  0  1  0  0  0  0  0  0
  161.9100  208.0790  156.3210 N   0  0  0  0  0  2  0  0  0  0  0  0
  159.5870  208.2070  156.0600 O   0  0  0  0  0  0  0  0  0  0  0  0
  160.2670  212.5710  146.5690 C   0  0  0  0  0  2  0  0  0  0  0  0
  160.6740  213.0420  145.1800 C   0  0  0  0  0  2  0  0  0  0  0  0
  160.0240  212.1610  144.1210 C   0  0  0  0  0  2  0  0  0  0  0  0
  160.0820  212.8430  142.7620 C   0  0  0  0  0  2  0  0  0  0  0  0
  160.9680  212.1800  139.9770 C   0  0  2  0  0  0  0  0  0  0  0  0
  163.3410  211.9430  138.3140 C   0  0  2  0  0  3  0  0  0  0  0  0
  163.3990  212.7370  139.6640 C   0  0  2  0  0  0  0  0  0  0  0  0
  157.0740  212.7390  140.3180 O   0  0  0  0  0  0  0  0  0  0  0  0
  159.1810  212.1860  141.8210 N   0  0  0  0  0  0  0  0  0  0  0  0
  161.7210  213.8760  137.6200 C   0  0  0  0  0  2  0  0  0  0  0  0
  163.1100  214.2410  139.5870 C   0  0  0  0  0  2  0  0  0  0  0  0
  164.6490  212.4290  138.8920 C   0  0  0  0  0  2  0  0  0  0  0  0
  158.2600  213.3910  140.9680 S   0  0  0  0  0  0  0  0  0  0  0  0
  160.7200  213.7210  139.9600 C   0  0  1  0  0  3  0  0  0  0  0  0
  157.7810  214.4530  141.9160 O   0  0  0  0  0  0  0  0  0  0  0  0
  161.7160  214.4530  139.0360 C   0  0  2  0  0  3  0  0  0  0  0  0
  160.9370  211.6460  138.5090 C   0  0  2  0  0  3  0  0  0  0  0  0
  159.9440  211.3950  140.8430 C   0  0  0  0  0  2  0  0  0  0  0  0
  162.0050  212.3620  137.6620 C   0  0  2  0  0  3  0  0  0  0  0  0
  159.2770  214.1240  139.7070 C   0  0  0  0  0  2  0  0  0  0  0  0
  162.7290  210.5990  140.6450 O   0  0  0  0  0  1  0  0  0  0  0  0
  159.5650  211.6820  137.8400 C   0  0  0  0  0  1  0  0  0  0  0  0
  162.4050  211.9580  140.5550 C   0  0  2  0  0  3  0  0  0  0  0  0
  1  5  1  0  0  0  0
  2  3  1  0  0  0  0
  3  5  2  0  0  0  0
  4  1  2  0  0  0  0
  6  2  2  0  0  0  0
  6  4  1  0  0  0  0
  7  5  1  6  0  0  0
  7 10  1  0  0  0  0
  7 12  1  0  0  0  0
  9 13  1  0  0  0  0
  9 17  1  1  0  0  0
 10 20  1  1  0  0  0
 10 14  1  0  0  0  0
 11  8  1  6  0  0  0
 11  9  1  0  0  0  0
 12 15  1  0  0  0  0
 13 23  1  0  0  0  0
 14 11  1  0  0  0  0
 14 15  1  0  0  0  0
 15 13  1  0  0  0  0
 17 16  1  0  0  0  0
 18 17  1  0  0  0  0
 20 19  1  0  0  0  0
 21 20  1  0  0  0  0
 22 21  1  0  0  0  0
 23 28  1  0  0  0  0
 24 27  1  0  0  0  0
 25 28  1  0  0  0  0
 25 26  1  0  0  0  0
 26 27  1  0  0  0  0
 28 24  1  0  0  0  0
 29 32  2  0  0  0  0
 29 31  1  0  0  0  0
 30 29  1  0  0  0  0
 31 27  1  0  0  0  0
 33  2  1  0  0  0  0
 34 33  1  0  0  0  0
 35 34  1  0  0  0  0
 36 35  1  0  0  0  0
 37 55  1  0  0  0  0
 37 50  1  0  0  0  0
 38 44  1  0  0  0  0
 38 39  1  0  0  0  0
 39 55  1  0  0  0  0
 40 45  2  0  0  0  0
 41 36  1  0  0  0  0
 42 51  1  0  0  0  0
 42 48  1  0  0  0  0
 43 39  1  0  0  0  0
 44 39  1  0  0  0  0
 45 41  1  0  0  0  0
 45 47  2  0  0  0  0
 46 37  1  0  0  0  0
 48 43  1  0  0  0  0
 48 46  1  0  0  0  0
 49 37  1  0  0  0  0
 50 41  1  0  0  0  0
 51 38  1  0  0  0  0
 51 49  1  0  0  0  0
 52 46  1  0  0  0  0
 52 45  1  0  0  0  0
 54 49  1  0  0  0  0
 55 53  1  0  0  0  0
M  END
>  <MODEL>
4

>  <REMARK>
 VINA RESULT:       1.0      2.190      4.335
  Name = 
  12 active torsions:
  status: ('A' for Active; 'I' for Inactive)
    1  A    between atoms: C_2  and  C_44
    2  A    between atoms: C_4  and  C_40
    3  A    between atoms: N_8  and  C_43
    4  A    between atoms: C_16  and  C_17
    5  A    between atoms: C_19  and  C_40
    6  A    between atoms: C_27  and  C_54
    7  A    between atoms: N_32  and  C_48
    8  A    between atoms: C_33  and  N_36
    9  A    between atoms: C_33  and  C_52
   10  A    between atoms: C_35  and  C_43
   11  A    between atoms: C_35  and  C_51
   12  A    between atoms: C_51  and  C_54
                            x       y       z     vdW  Elec       q    Type
                         _______ _______ _______ _____ _____    ______ ____

>  <TORSDO>
F 12

$$$$
=
 OpenBabel11062408563D

 55 63  0  0  1  0  0  0  0  0999 V2000
  161.2210  211.5410  150.4690 C   0  0  0  0  0  3  0  0  0  0  0  0
  162.2140  209.4160  148.9510 C   0  0  0  0  0  0  0  0  0  0  0  0
  162.0440  210.6750  148.3630 C   0  0  0  0  0  3  0  0  0  0  0  0
  161.3790  210.2790  151.0510 C   0  0  0  0  0  3  0  0  0  0  0  0
  161.5380  211.7400  149.1170 C   0  0  0  0  0  0  0  0  0  0  0  0
  161.8740  209.2180  150.2920 C   0  0  0  0  0  3  0  0  0  0  0  0
  161.4250  213.0940  148.4850 C   0  0  2  0  0  3  0  0  0  0  0  0
  158.5650  212.0080  146.6670 C   0  0  0  0  0  1  0  0  0  0  0  0
  159.2020  213.6490  144.9200 C   0  0  2  0  0  3  0  0  0  0  0  0
  159.9790  213.5610  148.4690 C   0  0  2  0  0  3  0  0  0  0  0  0
  158.7000  213.4990  146.3510 C   0  0  2  0  0  3  0  0  0  0  0  0
  162.0570  213.1140  146.7900 S   0  0  0  0  0  0  0  0  0  0  0  0
  160.4160  214.4530  144.9860 N   0  0  0  0  0  0  0  0  0  0  0  0
  159.6520  214.2390  147.2060 N   0  0  2  0  0  0  0  0  0  0  0  0
  160.8500  214.4260  146.3900 C   0  0  1  0  0  3  0  0  0  0  0  0
  158.2470  213.7000  142.5940 C   0  0  0  0  0  1  0  0  0  0  0  0
  158.1680  214.2950  143.9890 C   0  0  0  0  0  3  0  0  0  0  0  0
  156.7470  214.1860  144.5250 C   0  0  0  0  0  1  0  0  0  0  0  0
  160.8450  214.4330  150.6430 C   0  0  0  0  0  1  0  0  0  0  0  0
  159.6760  214.4500  149.6770 C   0  0  2  0  0  3  0  0  0  0  0  0
  158.3910  214.0360  150.3870 C   0  0  0  0  0  2  0  0  0  0  0  0
  158.4540  214.4050  151.8580 C   0  0  0  0  0  1  0  0  0  0  0  0
  161.4490  214.1140  143.9890 C   0  0  0  0  0  2  0  0  0  0  0  0
  161.3120  213.9350  141.4800 C   0  0  0  0  0  2  0  0  0  0  0  0
  161.6540  211.9370  142.8090 C   0  0  0  0  0  2  0  0  0  0  0  0
  161.8020  211.5580  141.3530 C   0  0  0  0  0  2  0  0  0  0  0  0
  161.9170  212.8640  140.5900 C   0  0  2  0  0  3  0  0  0  0  0  0
  160.9540  213.2740  142.8040 C   0  0  1  0  0  3  0  0  0  0  0  0
  163.8180  213.5940  139.0770 C   0  0  0  0  0  0  0  0  0  0  0  0
  165.2620  213.9180  138.9250 C   0  0  0  0  0  1  0  0  0  0  0  0
  163.3190  213.1880  140.3550 N   0  0  0  0  0  2  0  0  0  0  0  0
  163.0480  213.6820  138.0820 O   0  0  0  0  0  0  0  0  0  0  0  0
  162.7910  208.2920  148.1630 C   0  0  0  0  0  2  0  0  0  0  0  0
  162.3060  206.9500  148.6940 C   0  0  0  0  0  2  0  0  0  0  0  0
  160.7860  206.9460  148.7870 C   0  0  0  0  0  2  0  0  0  0  0  0
  160.3320  206.0450  149.9270 C   0  0  0  0  0  2  0  0  0  0  0  0
  161.4410  203.2630  149.8210 C   0  0  2  0  0  0  0  0  0  0  0  0
  161.3940  200.8270  148.2330 C   0  0  2  0  0  3  0  0  0  0  0  0
  160.2770  201.9120  148.0500 C   0  0  2  0  0  0  0  0  0  0  0  0
  162.0290  205.0810  153.2770 O   0  0  0  0  0  0  0  0  0  0  0  0
  161.4680  205.6550  150.7550 N   0  0  0  0  0  0  0  0  0  0  0  0
  160.3240  200.5930  150.6090 C   0  0  0  0  0  2  0  0  0  0  0  0
  159.0180  201.7500  148.9100 C   0  0  0  0  0  2  0  0  0  0  0  0
  160.3920  200.7480  147.1080 C   0  0  0  0  0  2  0  0  0  0  0  0
  160.8910  205.0920  152.2970 S   0  0  0  0  0  0  0  0  0  0  0  0
  160.1190  203.1340  150.6410 C   0  0  1  0  0  3  0  0  0  0  0  0
  159.8060  205.9960  152.8110 O   0  0  0  0  0  0  0  0  0  0  0  0
  159.4060  201.7920  150.3730 C   0  0  2  0  0  3  0  0  0  0  0  0
  162.3460  202.0250  150.1210 C   0  0  2  0  0  3  0  0  0  0  0  0
  162.2280  204.5710  150.1110 C   0  0  0  0  0  2  0  0  0  0  0  0
  161.6040  200.7260  149.7600 C   0  0  2  0  0  3  0  0  0  0  0  0
  160.2650  203.4380  152.1220 C   0  0  0  0  0  2  0  0  0  0  0  0
  162.1560  203.3670  147.4700 O   0  0  0  0  0  1  0  0  0  0  0  0
  162.9190  201.9760  151.5360 C   0  0  0  0  0  1  0  0  0  0  0  0
  161.0420  203.2290  148.3080 C   0  0  2  0  0  3  0  0  0  0  0  0
  1  4  1  0  0  0  0
  2  6  1  0  0  0  0
  3  2  2  0  0  0  0
  3  5  1  0  0  0  0
  5  1  2  0  0  0  0
  6  4  2  0  0  0  0
  7  5  1  6  0  0  0
  9 17  1  6  0  0  0
  9 13  1  0  0  0  0
  9 11  1  0  0  0  0
 10  7  1  0  0  0  0
 10 20  1  1  0  0  0
 11  8  1  1  0  0  0
 11 14  1  0  0  0  0
 12  7  1  0  0  0  0
 13 15  1  0  0  0  0
 14 10  1  0  0  0  0
 15 12  1  0  0  0  0
 15 14  1  0  0  0  0
 16 17  1  0  0  0  0
 17 18  1  0  0  0  0
 20 21  1  0  0  0  0
 20 19  1  0  0  0  0
 21 22  1  0  0  0  0
 23 13  1  0  0  0  0
 24 28  1  0  0  0  0
 26 25  1  0  0  0  0
 27 26  1  0  0  0  0
 27 24  1  0  0  0  0
 28 25  1  0  0  0  0
 28 23  1  0  0  0  0
 29 31  1  0  0  0  0
 30 29  1  0  0  0  0
 31 27  1  0  0  0  0
 32 29  2  0  0  0  0
 33 34  1  0  0  0  0
 33  2  1  0  0  0  0
 34 35  1  0  0  0  0
 35 36  1  0  0  0  0
 36 41  1  0  0  0  0
 37 50  1  0  0  0  0
 37 49  1  0  0  0  0
 37 46  1  0  0  0  0
 38 51  1  0  0  0  0
 39 38  1  0  0  0  0
 39 55  1  0  0  0  0
 39 43  1  0  0  0  0
 41 45  1  0  0  0  0
 43 48  1  0  0  0  0
 44 39  1  0  0  0  0
 44 38  1  0  0  0  0
 45 47  2  0  0  0  0
 45 40  2  0  0  0  0
 46 52  1  0  0  0  0
 48 42  1  0  0  0  0
 48 46  1  0  0  0  0
 49 54  1  0  0  0  0
 50 41  1  0  0  0  0
 51 49  1  0  0  0  0
 51 42  1  0  0  0  0
 52 45  1  0  0  0  0
 53 55  1  0  0  0  0
 55 37  1  0  0  0  0
M  END
>  <MODEL>
5

>  <REMARK>
 VINA RESULT:       1.1      3.362     11.375
  Name = 
  12 active torsions:
  status: ('A' for Active; 'I' for Inactive)
    1  A    between atoms: C_2  and  C_44
    2  A    between atoms: C_4  and  C_40
    3  A    between atoms: N_8  and  C_43
    4  A    between atoms: C_16  and  C_17
    5  A    between atoms: C_19  and  C_40
    6  A    between atoms: C_27  and  C_54
    7  A    between atoms: N_32  and  C_48
    8  A    between atoms: C_33  and  N_36
    9  A    between atoms: C_33  and  C_52
   10  A    between atoms: C_35  and  C_43
   11  A    between atoms: C_35  and  C_51
   12  A    between atoms: C_51  and  C_54
                            x       y       z     vdW  Elec       q    Type
                         _______ _______ _______ _____ _____    ______ ____

>  <TORSDO>
F 12

$$$$
