=
 OpenBabel11062410553D

 32 36  0  0  1  0  0  0  0  0999 V2000
  160.4840  209.1830  155.1000 C   0  0  0  0  0  0  0  0  0  0  0  0
  161.5850  206.4440  150.9950 C   0  0  0  0  0  0  0  0  0  0  0  0
  160.7780  204.2210  150.0990 C   0  0  2  0  0  3  0  0  0  0  0  0
  160.9590  203.1620  149.0530 C   0  0  0  0  0  0  0  0  0  0  0  0
  161.2130  207.1750  153.2800 C   0  0  0  0  0  0  0  0  0  0  0  0
  160.8890  208.7320  151.4450 C   0  0  0  0  0  3  0  0  0  0  0  0
  161.1880  201.1860  147.0800 C   0  0  0  0  0  3  0  0  0  0  0  0
  160.5020  209.4570  153.7220 C   0  0  0  0  0  3  0  0  0  0  0  0
  161.2500  207.7390  150.5250 C   0  0  0  0  0  0  0  0  0  0  0  0
  161.3510  208.1160  149.0640 C   0  0  2  0  0  3  0  0  0  0  0  0
  162.2160  205.7890  148.6250 C   0  0  2  0  0  3  0  0  0  0  0  0
  160.4820  200.9210  148.2570 C   0  0  0  0  0  3  0  0  0  0  0  0
  160.8320  207.9060  155.5570 C   0  0  0  0  0  3  0  0  0  0  0  0
  160.8630  208.4590  152.8130 C   0  0  0  0  0  0  0  0  0  0  0  0
  160.3650  201.9090  149.2390 C   0  0  0  0  0  3  0  0  0  0  0  0
  161.1940  206.9040  154.6500 C   0  0  0  0  0  3  0  0  0  0  0  0
  161.3030  206.9110  148.1220 C   0  0  1  0  0  3  0  0  0  0  0  0
  162.3000  204.6930  147.6640 N   0  0  0  0  0  2  0  0  0  0  0  0
  161.5640  206.1780  152.3700 C   0  0  0  0  0  3  0  0  0  0  0  0
  159.4980  204.7720  150.0030 O   0  0  0  0  0  1  0  0  0  0  0  0
  161.7780  202.4380  146.8860 C   0  0  0  0  0  3  0  0  0  0  0  0
  161.8750  205.3060  150.0490 C   0  0  1  0  0  3  0  0  0  0  0  0
  161.6620  203.4290  147.8640 C   0  0  0  0  0  0  0  0  0  0  0  0
  162.3200  210.2650  148.6340 O   0  0  0  0  0  1  0  0  0  0  0  0
  162.6220  208.9120  148.7950 C   0  0  0  0  0  2  0  0  0  0  0  0
  159.8610  206.2330  146.5840 C   0  0  0  0  0  1  0  0  0  0  0  0
  159.9860  206.4740  147.9540 O   0  0  0  0  0  0  0  0  0  0  0  0
  159.2060  211.0380  155.8030 N   0  0  0  0  0  0  0  0  0  0  0  0
  160.1180  210.1860  156.0500 N   0  0  0  0  0  0  0  0  0  0  0  0
  158.8500  212.0350  156.7610 C   0  0  0  0  0  0  0  0  0  0  0  0
  159.8550  213.0500  157.1720 C   0  0  0  0  0  1  0  0  0  0  0  0
  157.6940  212.0650  157.2610 O   0  0  0  0  0  0  0  0  0  0  0  0
  1 13  1  0  0  0  0
  1 29  1  0  0  0  0
  2 19  1  0  0  0  0
  3 20  1  6  0  0  0
  4 15  1  0  0  0  0
  4  3  1  0  0  0  0
  5 16  1  0  0  0  0
  6 14  2  0  0  0  0
  7 12  1  0  0  0  0
  8  1  2  0  0  0  0
  9  2  2  0  0  0  0
  9  6  1  0  0  0  0
 10 25  1  1  0  0  0
 10  9  1  0  0  0  0
 11 18  1  6  0  0  0
 11 22  1  0  0  0  0
 12 15  2  0  0  0  0
 14  5  1  0  0  0  0
 14  8  1  0  0  0  0
 16 13  2  0  0  0  0
 17 27  1  1  0  0  0
 17 11  1  0  0  0  0
 17 10  1  0  0  0  0
 18 23  1  0  0  0  0
 19  5  2  0  0  0  0
 21  7  2  0  0  0  0
 21 23  1  0  0  0  0
 22  3  1  0  0  0  0
 22  2  1  1  0  0  0
 23  4  2  0  0  0  0
 24 25  1  0  0  0  0
 26 27  1  0  0  0  0
 28 29  2  0  0  0  0
 28 30  1  0  0  0  0
 30 31  1  0  0  0  0
 30 32  2  0  0  0  0
M  END
>  <MODEL>
1

>  <REMARK>
 VINA RESULT:      -6.8      0.000      0.000
  Name = 
  4 active torsions:
  status: ('A' for Active; 'I' for Inactive)
    1  A    between atoms: C_1  and  N_10
    2  A    between atoms: C_2  and  N_24
    3  A    between atoms: C_13  and  C_15
    4  A    between atoms: O_25  and  C_26
                            x       y       z     vdW  Elec       q    Type
                         _______ _______ _______ _____ _____    ______ ____

>  <TORSDO>
F 4

$$$$
=
 OpenBabel11062410553D

 32 36  0  0  1  0  0  0  0  0999 V2000
  161.4250  205.2540  149.0140 C   0  0  0  0  0  0  0  0  0  0  0  0
  161.1140  208.7940  152.6100 C   0  0  0  0  0  0  0  0  0  0  0  0
  159.7960  210.9380  152.8540 C   0  0  2  0  0  3  0  0  0  0  0  0
  159.5660  212.1700  153.6760 C   0  0  0  0  0  0  0  0  0  0  0  0
  161.3980  207.6370  150.4940 C   0  0  0  0  0  0  0  0  0  0  0  0
  160.8950  206.3720  152.5060 C   0  0  0  0  0  3  0  0  0  0  0  0
  159.0290  214.4530  155.2100 C   0  0  0  0  0  3  0  0  0  0  0  0
  161.1620  205.2200  150.3930 C   0  0  0  0  0  3  0  0  0  0  0  0
  160.8780  207.5550  153.2560 C   0  0  0  0  0  0  0  0  0  0  0  0
  160.6930  207.4510  154.7540 C   0  0  2  0  0  3  0  0  0  0  0  0
  161.0710  209.9410  154.8740 C   0  0  2  0  0  3  0  0  0  0  0  0
  158.5860  214.3790  153.8870 C   0  0  0  0  0  3  0  0  0  0  0  0
  161.6720  206.4800  148.3850 C   0  0  0  0  0  3  0  0  0  0  0  0
  161.1470  206.4050  151.1330 C   0  0  0  0  0  0  0  0  0  0  0  0
  158.8510  213.2380  153.1240 C   0  0  0  0  0  3  0  0  0  0  0  0
  161.6590  207.6680  149.1220 C   0  0  0  0  0  3  0  0  0  0  0  0
  160.2450  208.7640  155.4020 C   0  0  1  0  0  3  0  0  0  0  0  0
  160.7620  211.1770  155.5880 N   0  0  0  0  0  2  0  0  0  0  0  0
  161.3740  208.8190  151.2330 C   0  0  0  0  0  3  0  0  0  0  0  0
  158.6260  210.1760  152.8020 O   0  0  0  0  0  1  0  0  0  0  0  0
  159.7400  213.3870  155.7700 C   0  0  0  0  0  3  0  0  0  0  0  0
  161.0010  210.1080  153.3430 C   0  0  1  0  0  3  0  0  0  0  0  0
  160.0050  212.2440  155.0110 C   0  0  0  0  0  0  0  0  0  0  0  0
  162.1770  207.6620  156.6220 O   0  0  0  0  0  1  0  0  0  0  0  0
  161.9710  206.9700  155.4280 C   0  0  0  0  0  2  0  0  0  0  0  0
  158.4410  209.6090  156.3700 C   0  0  0  0  0  1  0  0  0  0  0  0
  158.8750  208.9630  155.2110 O   0  0  0  0  0  0  0  0  0  0  0  0
  160.9640  202.9630  148.6760 N   0  0  0  0  0  0  0  0  0  0  0  0
  161.4450  204.0550  148.2350 N   0  0  0  0  0  0  0  0  0  0  0  0
  160.9910  201.7740  147.8880 C   0  0  0  0  0  0  0  0  0  0  0  0
  160.8070  201.8640  146.4160 C   0  0  0  0  0  1  0  0  0  0  0  0
  161.1700  200.6480  148.4260 O   0  0  0  0  0  0  0  0  0  0  0  0
  1  8  1  0  0  0  0
  2  9  1  0  0  0  0
  3 20  1  1  0  0  0
  3 22  1  0  0  0  0
  3  4  1  0  0  0  0
  4 23  1  0  0  0  0
  5 14  1  0  0  0  0
  5 19  1  0  0  0  0
  6  9  2  0  0  0  0
  7 21  1  0  0  0  0
  8 14  2  0  0  0  0
  9 10  1  0  0  0  0
 10 17  1  0  0  0  0
 10 25  1  1  0  0  0
 11 17  1  0  0  0  0
 11 18  1  1  0  0  0
 12  7  2  0  0  0  0
 13  1  2  0  0  0  0
 13 16  1  0  0  0  0
 14  6  1  0  0  0  0
 15  4  2  0  0  0  0
 15 12  1  0  0  0  0
 16  5  2  0  0  0  0
 17 27  1  6  0  0  0
 19  2  2  0  0  0  0
 22  2  1  6  0  0  0
 22 11  1  0  0  0  0
 23 18  1  0  0  0  0
 23 21  2  0  0  0  0
 25 24  1  0  0  0  0
 27 26  1  0  0  0  0
 29 28  2  0  0  0  0
 29  1  1  0  0  0  0
 30 32  2  0  0  0  0
 30 28  1  0  0  0  0
 31 30  1  0  0  0  0
M  END
>  <MODEL>
2

>  <REMARK>
 VINA RESULT:      -5.7      2.369      9.358
  Name = 
  4 active torsions:
  status: ('A' for Active; 'I' for Inactive)
    1  A    between atoms: C_1  and  N_10
    2  A    between atoms: C_2  and  N_24
    3  A    between atoms: C_13  and  C_15
    4  A    between atoms: O_25  and  C_26
                            x       y       z     vdW  Elec       q    Type
                         _______ _______ _______ _____ _____    ______ ____

>  <TORSDO>
F 4

$$$$
=
 OpenBabel11062410553D

 32 36  0  0  1  0  0  0  0  0999 V2000
  162.0940  211.9870  148.4320 C   0  0  0  0  0  0  0  0  0  0  0  0
  161.4240  213.4740  143.6460 C   0  0  0  0  0  0  0  0  0  0  0  0
  162.5760  212.9320  141.4610 C   0  0  2  0  0  3  0  0  0  0  0  0
  162.6840  213.2500  140.0010 C   0  0  0  0  0  0  0  0  0  0  0  0
  162.3810  212.9700  145.8200 C   0  0  0  0  0  0  0  0  0  0  0  0
  160.0300  212.5260  145.4030 C   0  0  0  0  0  3  0  0  0  0  0  0
  162.8810  213.7370  137.2480 C   0  0  0  0  0  3  0  0  0  0  0  0
  160.9890  212.0090  147.5650 C   0  0  0  0  0  3  0  0  0  0  0  0
  160.1600  213.0140  144.0950 C   0  0  0  0  0  0  0  0  0  0  0  0
  158.9170  213.1100  143.2390 C   0  0  2  0  0  3  0  0  0  0  0  0
  160.3350  214.2290  141.4800 C   0  0  2  0  0  3  0  0  0  0  0  0
  163.8940  213.0350  137.9090 C   0  0  0  0  0  3  0  0  0  0  0  0
  163.3340  212.4570  147.9860 C   0  0  0  0  0  3  0  0  0  0  0  0
  161.1290  212.4970  146.2630 C   0  0  0  0  0  0  0  0  0  0  0  0
  163.7930  212.7890  139.2810 C   0  0  0  0  0  3  0  0  0  0  0  0
  163.4790  212.9470  146.6830 C   0  0  0  0  0  3  0  0  0  0  0  0
  159.2190  213.2140  141.7420 C   0  0  1  0  0  3  0  0  0  0  0  0
  160.5350  214.4530  140.0520 N   0  0  0  0  0  2  0  0  0  0  0  0
  162.5210  213.4480  144.5170 C   0  0  0  0  0  3  0  0  0  0  0  0
  162.1800  211.6020  141.6310 O   0  0  0  0  0  1  0  0  0  0  0  0
  161.7690  214.1940  137.9600 C   0  0  0  0  0  3  0  0  0  0  0  0
  161.6500  213.9070  142.2190 C   0  0  1  0  0  3  0  0  0  0  0  0
  161.6630  213.9490  139.3320 C   0  0  0  0  0  0  0  0  0  0  0  0
  157.2770  213.9560  144.7660 O   0  0  0  0  0  1  0  0  0  0  0  0
  158.0570  214.2950  143.6600 C   0  0  0  0  0  2  0  0  0  0  0  0
  158.6630  211.8000  140.1310 C   0  0  0  0  0  1  0  0  0  0  0  0
  159.5270  211.9560  141.2160 O   0  0  0  0  0  0  0  0  0  0  0  0
  162.0200  210.2470  150.0260 N   0  0  0  0  0  0  0  0  0  0  0  0
  161.9760  211.4920  149.7680 N   0  0  0  0  0  0  0  0  0  0  0  0
  161.9010  209.7670  151.3650 C   0  0  0  0  0  0  0  0  0  0  0  0
  161.0120  208.6120  151.6540 C   0  0  0  0  0  1  0  0  0  0  0  0
  162.5410  210.3120  152.3030 O   0  0  0  0  0  0  0  0  0  0  0  0
  1 29  1  0  0  0  0
  2  9  2  0  0  0  0
  2 19  1  0  0  0  0
  3 20  1  6  0  0  0
  3 22  1  0  0  0  0
  4  3  1  0  0  0  0
  5 14  1  0  0  0  0
  5 16  1  0  0  0  0
  6 14  2  0  0  0  0
  7 12  2  0  0  0  0
  7 21  1  0  0  0  0
  8  1  2  0  0  0  0
  9  6  1  0  0  0  0
 10 25  1  1  0  0  0
 10  9  1  0  0  0  0
 11 18  1  6  0  0  0
 11 17  1  0  0  0  0
 11 22  1  0  0  0  0
 12 15  1  0  0  0  0
 13  1  1  0  0  0  0
 14  8  1  0  0  0  0
 15  4  2  0  0  0  0
 16 13  2  0  0  0  0
 17 27  1  1  0  0  0
 17 10  1  0  0  0  0
 19  5  2  0  0  0  0
 21 23  2  0  0  0  0
 22  2  1  1  0  0  0
 23  4  1  0  0  0  0
 23 18  1  0  0  0  0
 25 24  1  0  0  0  0
 26 27  1  0  0  0  0
 28 30  1  0  0  0  0
 29 28  2  0  0  0  0
 30 31  1  0  0  0  0
 30 32  2  0  0  0  0
M  END
>  <MODEL>
3

>  <REMARK>
 VINA RESULT:      -5.0      7.808     10.424
  Name = 
  4 active torsions:
  status: ('A' for Active; 'I' for Inactive)
    1  A    between atoms: C_1  and  N_10
    2  A    between atoms: C_2  and  N_24
    3  A    between atoms: C_13  and  C_15
    4  A    between atoms: O_25  and  C_26
                            x       y       z     vdW  Elec       q    Type
                         _______ _______ _______ _____ _____    ______ ____

>  <TORSDO>
F 4

$$$$
=
 OpenBabel11062410553D

 32 36  0  0  1  0  0  0  0  0999 V2000
  161.5280  206.0170  148.7020 C   0  0  0  0  0  0  0  0  0  0  0  0
  161.2310  209.0420  152.7420 C   0  0  0  0  0  0  0  0  0  0  0  0
  159.9500  211.1600  153.2600 C   0  0  2  0  0  3  0  0  0  0  0  0
  159.7320  212.2730  154.2400 C   0  0  0  0  0  0  0  0  0  0  0  0
  161.5250  208.1770  150.4920 C   0  0  0  0  0  0  0  0  0  0  0  0
  160.9670  206.6620  152.3070 C   0  0  0  0  0  3  0  0  0  0  0  0
  159.2160  214.3380  156.0630 C   0  0  0  0  0  3  0  0  0  0  0  0
  161.2440  205.8020  150.0610 C   0  0  0  0  0  3  0  0  0  0  0  0
  160.9620  207.7320  153.2120 C   0  0  0  0  0  0  0  0  0  0  0  0
  160.7530  207.4300  154.6790 C   0  0  2  0  0  3  0  0  0  0  0  0
  161.1760  209.8720  155.1410 C   0  0  2  0  0  3  0  0  0  0  0  0
  158.7900  214.4530  154.7370 C   0  0  0  0  0  3  0  0  0  0  0  0
  161.8070  207.3120  148.2490 C   0  0  0  0  0  3  0  0  0  0  0  0
  161.2410  206.8750  150.9550 C   0  0  0  0  0  0  0  0  0  0  0  0
  159.0450  213.4210  153.8290 C   0  0  0  0  0  3  0  0  0  0  0  0
  161.8060  208.3890  149.1410 C   0  0  0  0  0  3  0  0  0  0  0  0
  160.3210  208.6510  155.4930 C   0  0  1  0  0  3  0  0  0  0  0  0
  160.8810  211.0050  156.0120 N   0  0  0  0  0  2  0  0  0  0  0  0
  161.5120  209.2490  151.3850 C   0  0  0  0  0  3  0  0  0  0  0  0
  158.7670  210.4360  153.0900 O   0  0  0  0  0  1  0  0  0  0  0  0
  159.8980  213.1910  156.4810 C   0  0  0  0  0  3  0  0  0  0  0  0
  161.1320  210.2460  153.6460 C   0  0  1  0  0  3  0  0  0  0  0  0
  160.1530  212.1560  155.5770 C   0  0  0  0  0  0  0  0  0  0  0  0
  162.1120  207.2040  156.6380 O   0  0  0  0  0  1  0  0  0  0  0  0
  162.0120  206.8350  155.2970 C   0  0  0  0  0  2  0  0  0  0  0  0
  158.5240  209.4150  156.5390 C   0  0  0  0  0  1  0  0  0  0  0  0
  158.9580  208.9020  155.3150 O   0  0  0  0  0  0  0  0  0  0  0  0
  161.2240  205.1050  146.5460 N   0  0  0  0  0  0  0  0  0  0  0  0
  161.5370  204.9350  147.7670 N   0  0  0  0  0  0  0  0  0  0  0  0
  161.2370  204.0160  145.6230 C   0  0  0  0  0  0  0  0  0  0  0  0
  161.2490  202.6210  146.1340 C   0  0  0  0  0  1  0  0  0  0  0  0
  161.2390  204.2250  144.3810 O   0  0  0  0  0  0  0  0  0  0  0  0
  1  8  1  0  0  0  0
  2  9  1  0  0  0  0
  3 20  1  1  0  0  0
  3 22  1  0  0  0  0
  3  4  1  0  0  0  0
  4 23  1  0  0  0  0
  5 14  1  0  0  0  0
  5 19  1  0  0  0  0
  6  9  2  0  0  0  0
  7 21  1  0  0  0  0
  8 14  2  0  0  0  0
  9 10  1  0  0  0  0
 10 25  1  1  0  0  0
 10 17  1  0  0  0  0
 11 17  1  0  0  0  0
 11 18  1  1  0  0  0
 12  7  2  0  0  0  0
 13  1  2  0  0  0  0
 13 16  1  0  0  0  0
 14  6  1  0  0  0  0
 15  4  2  0  0  0  0
 15 12  1  0  0  0  0
 16  5  2  0  0  0  0
 17 27  1  6  0  0  0
 19  2  2  0  0  0  0
 22  2  1  6  0  0  0
 22 11  1  0  0  0  0
 23 18  1  0  0  0  0
 23 21  2  0  0  0  0
 25 24  1  0  0  0  0
 27 26  1  0  0  0  0
 28 29  2  0  0  0  0
 29  1  1  0  0  0  0
 30 31  1  0  0  0  0
 30 28  1  0  0  0  0
 32 30  2  0  0  0  0
M  END
>  <MODEL>
4

>  <REMARK>
 VINA RESULT:      -4.7      2.257      9.519
  Name = 
  4 active torsions:
  status: ('A' for Active; 'I' for Inactive)
    1  A    between atoms: C_1  and  N_10
    2  A    between atoms: C_2  and  N_24
    3  A    between atoms: C_13  and  C_15
    4  A    between atoms: O_25  and  C_26
                            x       y       z     vdW  Elec       q    Type
                         _______ _______ _______ _____ _____    ______ ____

>  <TORSDO>
F 4

$$$$
