=
 OpenBabel11052422063D

 25 28  0  0  1  0  0  0  0  0999 V2000
  161.1140  206.0840  151.5580 C   0  0  0  0  0  0  0  0  0  0  0  0
  160.9470  205.1720  150.5010 C   0  0  0  0  0  0  0  0  0  0  0  0
  160.9460  204.3170  153.1570 N   0  0  0  0  0  0  0  0  0  0  0  0
  161.2770  207.4940  151.4540 N   0  0  0  0  0  0  0  0  0  0  0  0
  161.8730  204.9000  146.8740 N   0  0  0  0  0  2  0  0  0  0  0  0
  161.5150  210.3000  151.7310 C   0  0  0  0  0  2  0  0  0  0  0  0
  160.7750  203.4050  152.1610 C   0  0  0  0  0  3  0  0  0  0  0  0
  161.3660  208.0710  152.7560 C   0  0  0  0  0  0  0  0  0  0  0  0
  161.5340  209.3820  152.9220 C   0  0  0  0  0  3  0  0  0  0  0  0
  160.5440  202.8220  149.6910 C   0  0  2  0  0  3  0  0  0  0  0  0
  161.0570  201.4280  150.0160 C   0  0  0  0  0  1  0  0  0  0  0  0
  160.8490  205.6170  149.0680 C   0  0  0  0  0  2  0  0  0  0  0  0
  162.0630  209.6020  150.4820 C   0  0  0  0  0  2  0  0  0  0  0  0
  161.1220  205.6310  152.8680 C   0  0  0  0  0  0  0  0  0  0  0  0
  161.3360  206.9010  154.1180 S   0  0  0  0  0  0  0  0  0  0  0  0
  161.1620  203.2780  148.4440 N   0  0  0  0  0  0  0  0  0  0  0  0
  161.2990  208.3000  150.2320 C   0  0  0  0  0  2  0  0  0  0  0  0
  161.2950  204.5340  148.1290 C   0  0  0  0  0  0  0  0  0  0  0  0
  160.7920  203.8050  150.8130 C   0  0  0  0  0  0  0  0  0  0  0  0
  162.2330  203.9700  145.9500 O   0  0  0  0  0  0  0  0  0  0  0  0
  161.2480  203.9810  144.9400 C   0  0  2  0  0  3  0  0  0  0  0  0
  160.4730  205.1320  144.9790 F   0  0  0  0  0  0  0  0  0  0  0  0
  160.4030  202.7430  144.9640 C   0  0  0  0  0  0  0  0  0  0  0  0
  160.7630  201.7720  145.6080 O   0  0  0  0  0  0  0  0  0  0  0  0
  159.2410  202.6910  144.2620 F   0  0  0  0  0  0  0  0  0  0  0  0
  1 14  1  0  0  0  0
  2 19  1  0  0  0  0
  2  1  2  0  0  0  0
  4  1  1  0  0  0  0
  4  8  1  0  0  0  0
  5 18  1  0  0  0  0
  6  9  1  0  0  0  0
  7  3  1  0  0  0  0
  8  9  2  0  0  0  0
  8 15  1  0  0  0  0
 10 11  1  1  0  0  0
 10 19  1  0  0  0  0
 12  2  1  0  0  0  0
 13  6  1  0  0  0  0
 14  3  2  0  0  0  0
 14 15  1  0  0  0  0
 16 10  1  0  0  0  0
 17 13  1  0  0  0  0
 17  4  1  0  0  0  0
 18 16  2  0  0  0  0
 18 12  1  0  0  0  0
 19  7  2  0  0  0  0
 20  5  1  0  0  0  0
 21 23  1  0  0  0  0
 21 22  1  1  0  0  0
 21 20  1  0  0  0  0
 23 24  2  0  0  0  0
 25 23  1  0  0  0  0
M  END
>  <MODEL>
1

>  <REMARK>
 VINA RESULT:      -9.4      0.000      0.000
  Name = 
  3 active torsions:
  status: ('A' for Active; 'I' for Inactive)
    1  A    between atoms: C_2  and  C_21
    2  A    between atoms: N_6  and  O_15
    3  A    between atoms: O_15  and  C_21
                            x       y       z     vdW  Elec       q    Type
                         _______ _______ _______ _____ _____    ______ ____

>  <TORSDO>
F 3

$$$$
=
 OpenBabel11052422063D

 25 28  0  0  1  0  0  0  0  0999 V2000
  161.3370  205.4510  149.3000 C   0  0  0  0  0  0  0  0  0  0  0  0
  161.1900  206.4270  150.3000 C   0  0  0  0  0  0  0  0  0  0  0  0
  162.0650  207.1080  147.7400 N   0  0  0  0  0  0  0  0  0  0  0  0
  161.0630  204.0590  149.4150 N   0  0  0  0  0  0  0  0  0  0  0  0
  161.2620  206.6180  154.0480 N   0  0  0  0  0  2  0  0  0  0  0  0
  160.5520  201.2890  149.1530 C   0  0  0  0  0  2  0  0  0  0  0  0
  161.9290  208.0820  148.6810 C   0  0  0  0  0  3  0  0  0  0  0  0
  161.2920  203.4130  148.1630 C   0  0  0  0  0  0  0  0  0  0  0  0
  161.1150  202.1010  148.0190 C   0  0  0  0  0  3  0  0  0  0  0  0
  161.2910  208.8350  151.0310 C   0  0  2  0  0  3  0  0  0  0  0  0
  162.2410  210.0100  150.8660 C   0  0  0  0  0  1  0  0  0  0  0  0
  160.6310  206.1030  151.6580 C   0  0  0  0  0  2  0  0  0  0  0  0
  160.9610  201.8690  150.5100 C   0  0  0  0  0  2  0  0  0  0  0  0
  161.7860  205.8150  148.0390 C   0  0  0  0  0  0  0  0  0  0  0  0
  161.9220  204.4720  146.8560 S   0  0  0  0  0  0  0  0  0  0  0  0
  161.4370  208.2900  152.3820 N   0  0  0  0  0  0  0  0  0  0  0  0
  160.5630  203.3440  150.5900 C   0  0  0  0  0  2  0  0  0  0  0  0
  161.1290  207.0660  152.6980 C   0  0  0  0  0  0  0  0  0  0  0  0
  161.5090  207.7640  149.9860 C   0  0  0  0  0  0  0  0  0  0  0  0
  161.6400  207.4570  155.0490 O   0  0  0  0  0  0  0  0  0  0  0  0
  160.5090  207.6740  155.8640 C   0  0  2  0  0  3  0  0  0  0  0  0
  159.4550  206.8350  155.5270 F   0  0  0  0  0  0  0  0  0  0  0  0
  160.0900  209.1130  155.8750 C   0  0  0  0  0  0  0  0  0  0  0  0
  160.0110  209.7150  156.9330 O   0  0  0  0  0  0  0  0  0  0  0  0
  159.7870  209.7490  154.7140 F   0  0  0  0  0  0  0  0  0  0  0  0
  1  4  1  0  0  0  0
  1  2  1  0  0  0  0
  2 12  1  0  0  0  0
  3 14  1  0  0  0  0
  3  7  2  0  0  0  0
  4 17  1  0  0  0  0
  5 20  1  0  0  0  0
  6 13  1  0  0  0  0
  7 19  1  0  0  0  0
  8  4  1  0  0  0  0
  9  8  2  0  0  0  0
  9  6  1  0  0  0  0
 10 11  1  6  0  0  0
 10 16  1  0  0  0  0
 12 18  1  0  0  0  0
 13 17  1  0  0  0  0
 14  1  2  0  0  0  0
 15 14  1  0  0  0  0
 15  8  1  0  0  0  0
 16 18  2  0  0  0  0
 18  5  1  0  0  0  0
 19  2  2  0  0  0  0
 19 10  1  0  0  0  0
 20 21  1  0  0  0  0
 21 22  1  6  0  0  0
 21 23  1  0  0  0  0
 23 24  2  0  0  0  0
 25 23  1  0  0  0  0
M  END
>  <MODEL>
2

>  <REMARK>
 VINA RESULT:      -9.2      4.888      7.977
  Name = 
  3 active torsions:
  status: ('A' for Active; 'I' for Inactive)
    1  A    between atoms: C_2  and  C_21
    2  A    between atoms: N_6  and  O_15
    3  A    between atoms: O_15  and  C_21
                            x       y       z     vdW  Elec       q    Type
                         _______ _______ _______ _____ _____    ______ ____

>  <TORSDO>
F 3

$$$$
=
 OpenBabel11052422063D

 25 28  0  0  1  0  0  0  0  0999 V2000
  161.4720  207.6980  151.3570 C   0  0  0  0  0  0  0  0  0  0  0  0
  161.5130  206.6180  150.4590 C   0  0  0  0  0  0  0  0  0  0  0  0
  161.8000  209.2460  149.5670 N   0  0  0  0  0  0  0  0  0  0  0  0
  161.3110  207.6310  152.7700 N   0  0  0  0  0  0  0  0  0  0  0  0
  160.1890  203.1130  150.2450 N   0  0  0  0  0  2  0  0  0  0  0  0
  161.1300  207.9700  155.5730 C   0  0  0  0  0  2  0  0  0  0  0  0
  161.8510  208.2250  148.6670 C   0  0  0  0  0  3  0  0  0  0  0  0
  161.3710  208.9430  153.3290 C   0  0  0  0  0  0  0  0  0  0  0  0
  161.2340  209.1440  154.6380 C   0  0  0  0  0  3  0  0  0  0  0  0
  161.8020  205.7380  148.1180 C   0  0  2  0  0  3  0  0  0  0  0  0
  161.3160  206.0980  146.7230 C   0  0  0  0  0  1  0  0  0  0  0  0
  161.4550  205.1890  150.9230 C   0  0  0  0  0  2  0  0  0  0  0  0
  160.4410  206.7800  154.8970 C   0  0  0  0  0  2  0  0  0  0  0  0
  161.6050  208.9950  150.8860 C   0  0  0  0  0  0  0  0  0  0  0  0
  161.5420  210.2780  152.1400 S   0  0  0  0  0  0  0  0  0  0  0  0
  161.0550  204.5720  148.5960 N   0  0  0  0  0  0  0  0  0  0  0  0
  161.1610  206.4300  153.5930 C   0  0  0  0  0  2  0  0  0  0  0  0
  160.8980  204.2900  149.8570 C   0  0  0  0  0  0  0  0  0  0  0  0
  161.6890  206.8920  149.0870 C   0  0  0  0  0  0  0  0  0  0  0  0
  159.7210  202.2220  149.3300 O   0  0  0  0  0  0  0  0  0  0  0  0
  160.6010  201.1190  149.3310 C   0  0  2  0  0  3  0  0  0  0  0  0
  161.6070  201.2550  150.2780 F   0  0  0  0  0  0  0  0  0  0  0  0
  161.1570  200.8410  147.9680 C   0  0  0  0  0  0  0  0  0  0  0  0
  160.9350  201.6140  147.0500 O   0  0  0  0  0  0  0  0  0  0  0  0
  161.8990  199.7250  147.7430 F   0  0  0  0  0  0  0  0  0  0  0  0
  1  4  1  0  0  0  0
  2 12  1  0  0  0  0
  2  1  2  0  0  0  0
  3 14  2  0  0  0  0
  4  8  1  0  0  0  0
  4 17  1  0  0  0  0
  7 19  2  0  0  0  0
  7  3  1  0  0  0  0
  8  9  2  0  0  0  0
  9  6  1  0  0  0  0
 10 11  1  6  0  0  0
 10 16  1  0  0  0  0
 10 19  1  0  0  0  0
 13  6  1  0  0  0  0
 14  1  1  0  0  0  0
 14 15  1  0  0  0  0
 15  8  1  0  0  0  0
 16 18  2  0  0  0  0
 17 13  1  0  0  0  0
 18  5  1  0  0  0  0
 18 12  1  0  0  0  0
 19  2  1  0  0  0  0
 20 21  1  0  0  0  0
 20  5  1  0  0  0  0
 21 22  1  1  0  0  0
 23 21  1  0  0  0  0
 24 23  2  0  0  0  0
 25 23  1  0  0  0  0
M  END
>  <MODEL>
3

>  <REMARK>
 VINA RESULT:      -9.1      2.528      4.015
  Name = 
  3 active torsions:
  status: ('A' for Active; 'I' for Inactive)
    1  A    between atoms: C_2  and  C_21
    2  A    between atoms: N_6  and  O_15
    3  A    between atoms: O_15  and  C_21
                            x       y       z     vdW  Elec       q    Type
                         _______ _______ _______ _____ _____    ______ ____

>  <TORSDO>
F 3

$$$$
=
 OpenBabel11052422063D

 25 28  0  0  1  0  0  0  0  0999 V2000
  161.4680  205.3030  149.3320 C   0  0  0  0  0  0  0  0  0  0  0  0
  161.7770  206.5590  149.8820 C   0  0  0  0  0  0  0  0  0  0  0  0
  160.8220  204.4810  151.4800 N   0  0  0  0  0  0  0  0  0  0  0  0
  161.6030  204.9080  147.9710 N   0  0  0  0  0  0  0  0  0  0  0  0
  161.9550  210.1340  148.7540 N   0  0  0  0  0  2  0  0  0  0  0  0
  161.8070  203.6650  145.4380 C   0  0  0  0  0  2  0  0  0  0  0  0
  161.1160  205.6820  152.0510 C   0  0  0  0  0  3  0  0  0  0  0  0
  161.2320  203.5380  147.8240 C   0  0  0  0  0  0  0  0  0  0  0  0
  161.2620  202.9360  146.6360 C   0  0  0  0  0  3  0  0  0  0  0  0
  161.9710  208.0760  151.8820 C   0  0  2  0  0  3  0  0  0  0  0  0
  161.1400  208.4150  153.1100 C   0  0  0  0  0  1  0  0  0  0  0  0
  162.3820  207.6650  149.0620 C   0  0  0  0  0  2  0  0  0  0  0  0
  161.5430  205.1710  145.5360 C   0  0  0  0  0  2  0  0  0  0  0  0
  160.9840  204.2910  150.1470 C   0  0  0  0  0  0  0  0  0  0  0  0
  160.6370  202.7370  149.3180 S   0  0  0  0  0  0  0  0  0  0  0  0
  161.8520  209.1670  150.9120 N   0  0  0  0  0  0  0  0  0  0  0  0
  162.0970  205.7140  146.8550 C   0  0  0  0  0  2  0  0  0  0  0  0
  162.0500  209.0130  149.6350 C   0  0  0  0  0  0  0  0  0  0  0  0
  161.5800  206.7530  151.2650 C   0  0  0  0  0  0  0  0  0  0  0  0
  161.7270  211.3930  149.2170 O   0  0  0  0  0  0  0  0  0  0  0  0
  161.4700  212.2100  148.0960 C   0  0  2  0  0  3  0  0  0  0  0  0
  160.6340  211.5890  147.1770 F   0  0  0  0  0  0  0  0  0  0  0  0
  162.7330  212.6990  147.4540 C   0  0  0  0  0  0  0  0  0  0  0  0
  162.6980  213.1920  146.3390 O   0  0  0  0  0  0  0  0  0  0  0  0
  163.9220  212.5840  148.1010 F   0  0  0  0  0  0  0  0  0  0  0  0
  1  2  2  0  0  0  0
  1 14  1  0  0  0  0
  2 19  1  0  0  0  0
  3  7  1  0  0  0  0
  4  1  1  0  0  0  0
  5 20  1  0  0  0  0
  5 18  1  0  0  0  0
  6 13  1  0  0  0  0
  6  9  1  0  0  0  0
  8  4  1  0  0  0  0
  8 15  1  0  0  0  0
  9  8  2  0  0  0  0
 10 11  1  1  0  0  0
 12 18  1  0  0  0  0
 12  2  1  0  0  0  0
 13 17  1  0  0  0  0
 14  3  2  0  0  0  0
 15 14  1  0  0  0  0
 16 10  1  0  0  0  0
 17  4  1  0  0  0  0
 18 16  2  0  0  0  0
 19 10  1  0  0  0  0
 19  7  2  0  0  0  0
 21 22  1  6  0  0  0
 21 20  1  0  0  0  0
 23 21  1  0  0  0  0
 23 25  1  0  0  0  0
 24 23  2  0  0  0  0
M  END
>  <MODEL>
4

>  <REMARK>
 VINA RESULT:      -8.8      3.965      6.732
  Name = 
  3 active torsions:
  status: ('A' for Active; 'I' for Inactive)
    1  A    between atoms: C_2  and  C_21
    2  A    between atoms: N_6  and  O_15
    3  A    between atoms: O_15  and  C_21
                            x       y       z     vdW  Elec       q    Type
                         _______ _______ _______ _____ _____    ______ ____

>  <TORSDO>
F 3

$$$$
=
 OpenBabel11052422063D

 25 28  0  0  1  0  0  0  0  0999 V2000
  161.1980  208.6910  153.0700 C   0  0  0  0  0  0  0  0  0  0  0  0
  161.5120  207.8350  152.0010 C   0  0  0  0  0  0  0  0  0  0  0  0
  161.6380  210.6070  151.7130 N   0  0  0  0  0  0  0  0  0  0  0  0
  160.8130  208.3100  154.3870 N   0  0  0  0  0  0  0  0  0  0  0  0
  160.6580  204.3640  150.8580 N   0  0  0  0  0  2  0  0  0  0  0  0
  160.1320  208.0240  157.1180 C   0  0  0  0  0  2  0  0  0  0  0  0
  161.9550  209.8110  150.6550 C   0  0  0  0  0  3  0  0  0  0  0  0
  160.6280  209.4720  155.1940 C   0  0  0  0  0  0  0  0  0  0  0  0
  160.2530  209.3760  156.4690 C   0  0  0  0  0  3  0  0  0  0  0  0
  162.2870  207.5030  149.6280 C   0  0  2  0  0  3  0  0  0  0  0  0
  162.0010  208.1150  148.2660 C   0  0  0  0  0  1  0  0  0  0  0  0
  161.5450  206.3400  152.1550 C   0  0  0  0  0  2  0  0  0  0  0  0
  159.7070  206.9570  156.1040 C   0  0  0  0  0  2  0  0  0  0  0  0
  161.2570  210.0650  152.8960 C   0  0  0  0  0  0  0  0  0  0  0  0
  160.8380  211.0400  154.3440 S   0  0  0  0  0  0  0  0  0  0  0  0
  161.6110  206.2070  149.7190 N   0  0  0  0  0  0  0  0  0  0  0  0
  160.6690  206.9530  154.9150 C   0  0  0  0  0  2  0  0  0  0  0  0
  161.2810  205.6500  150.8480 C   0  0  0  0  0  0  0  0  0  0  0  0
  161.8810  208.4100  150.7670 C   0  0  0  0  0  0  0  0  0  0  0  0
  160.4550  203.6560  149.7140 O   0  0  0  0  0  0  0  0  0  0  0  0
  160.5970  202.2900  150.0370 C   0  0  2  0  0  3  0  0  0  0  0  0
  161.4700  202.0930  151.0990 F   0  0  0  0  0  0  0  0  0  0  0  0
  160.9800  201.4670  148.8450 C   0  0  0  0  0  0  0  0  0  0  0  0
  160.8230  201.9130  147.7200 O   0  0  0  0  0  0  0  0  0  0  0  0
  161.4920  200.2190  149.0080 F   0  0  0  0  0  0  0  0  0  0  0  0
  1  4  1  0  0  0  0
  2 12  1  0  0  0  0
  2  1  2  0  0  0  0
  3 14  2  0  0  0  0
  4 17  1  0  0  0  0
  4  8  1  0  0  0  0
  7 19  2  0  0  0  0
  7  3  1  0  0  0  0
  8  9  2  0  0  0  0
  9  6  1  0  0  0  0
 10 11  1  6  0  0  0
 10 16  1  0  0  0  0
 10 19  1  0  0  0  0
 13  6  1  0  0  0  0
 14  1  1  0  0  0  0
 14 15  1  0  0  0  0
 15  8  1  0  0  0  0
 16 18  2  0  0  0  0
 17 13  1  0  0  0  0
 18  5  1  0  0  0  0
 18 12  1  0  0  0  0
 19  2  1  0  0  0  0
 20 21  1  0  0  0  0
 20  5  1  0  0  0  0
 21 22  1  1  0  0  0
 23 25  1  0  0  0  0
 23 21  1  0  0  0  0
 24 23  2  0  0  0  0
M  END
>  <MODEL>
5

>  <REMARK>
 VINA RESULT:      -8.4      2.987      4.784
  Name = 
  3 active torsions:
  status: ('A' for Active; 'I' for Inactive)
    1  A    between atoms: C_2  and  C_21
    2  A    between atoms: N_6  and  O_15
    3  A    between atoms: O_15  and  C_21
                            x       y       z     vdW  Elec       q    Type
                         _______ _______ _______ _____ _____    ______ ____

>  <TORSDO>
F 3

$$$$
=
 OpenBabel11052422063D

 25 28  0  0  1  0  0  0  0  0999 V2000
  161.3290  205.3900  150.4740 C   0  0  0  0  0  0  0  0  0  0  0  0
  161.4640  206.4010  151.4400 C   0  0  0  0  0  0  0  0  0  0  0  0
  160.7500  203.8040  152.1640 N   0  0  0  0  0  0  0  0  0  0  0  0
  161.5410  205.5110  149.0720 N   0  0  0  0  0  0  0  0  0  0  0  0
  161.2080  210.1410  151.6230 N   0  0  0  0  0  2  0  0  0  0  0  0
  161.9530  205.2620  146.2840 C   0  0  0  0  0  2  0  0  0  0  0  0
  160.8770  204.7550  153.1290 C   0  0  0  0  0  3  0  0  0  0  0  0
  161.3500  204.2460  148.4390 C   0  0  0  0  0  0  0  0  0  0  0  0
  161.4810  204.1050  147.1220 C   0  0  0  0  0  3  0  0  0  0  0  0
  161.4230  207.1380  153.8480 C   0  0  2  0  0  3  0  0  0  0  0  0
  160.5310  206.9310  155.0620 C   0  0  0  0  0  1  0  0  0  0  0  0
  161.9400  207.7840  151.0900 C   0  0  0  0  0  2  0  0  0  0  0  0
  161.4980  206.5990  146.8760 C   0  0  0  0  0  2  0  0  0  0  0  0
  160.9610  204.1100  150.8590 C   0  0  0  0  0  0  0  0  0  0  0  0
  160.8320  202.9140  149.5270 S   0  0  0  0  0  0  0  0  0  0  0  0
  161.1860  208.4770  153.3060 N   0  0  0  0  0  0  0  0  0  0  0  0
  161.9510  206.7070  148.3340 C   0  0  0  0  0  2  0  0  0  0  0  0
  161.4280  208.8020  152.0690 C   0  0  0  0  0  0  0  0  0  0  0  0
  161.2160  206.0780  152.7900 C   0  0  0  0  0  0  0  0  0  0  0  0
  160.8130  211.1260  152.4740 O   0  0  0  0  0  0  0  0  0  0  0  0
  159.4080  211.2150  152.3860 C   0  0  2  0  0  3  0  0  0  0  0  0
  159.0000  212.3090  151.6340 F   0  0  0  0  0  0  0  0  0  0  0  0
  158.7580  211.1980  153.7370 C   0  0  0  0  0  0  0  0  0  0  0  0
  157.6590  211.7040  153.8900 O   0  0  0  0  0  0  0  0  0  0  0  0
  159.3910  210.6320  154.7970 F   0  0  0  0  0  0  0  0  0  0  0  0
  1 14  2  0  0  0  0
  1  2  1  0  0  0  0
  2 19  2  0  0  0  0
  3  7  2  0  0  0  0
  4  1  1  0  0  0  0
  5 18  1  0  0  0  0
  5 20  1  0  0  0  0
  6 13  1  0  0  0  0
  6  9  1  0  0  0  0
  8  4  1  0  0  0  0
  8 15  1  0  0  0  0
  9  8  2  0  0  0  0
 10 11  1  1  0  0  0
 12  2  1  0  0  0  0
 12 18  1  0  0  0  0
 13 17  1  0  0  0  0
 14  3  1  0  0  0  0
 15 14  1  0  0  0  0
 16 10  1  0  0  0  0
 17  4  1  0  0  0  0
 18 16  2  0  0  0  0
 19  7  1  0  0  0  0
 19 10  1  0  0  0  0
 21 22  1  1  0  0  0
 21 20  1  0  0  0  0
 21 23  1  0  0  0  0
 23 24  2  0  0  0  0
 23 25  1  0  0  0  0
M  END
>  <MODEL>
6

>  <REMARK>
 VINA RESULT:      -8.1      4.761      7.196
  Name = 
  3 active torsions:
  status: ('A' for Active; 'I' for Inactive)
    1  A    between atoms: C_2  and  C_21
    2  A    between atoms: N_6  and  O_15
    3  A    between atoms: O_15  and  C_21
                            x       y       z     vdW  Elec       q    Type
                         _______ _______ _______ _____ _____    ______ ____

>  <TORSDO>
F 3

$$$$
=
 OpenBabel11052422063D

 25 28  0  0  1  0  0  0  0  0999 V2000
  161.2850  204.3280  149.0920 C   0  0  0  0  0  0  0  0  0  0  0  0
  161.4270  205.1940  150.1900 C   0  0  0  0  0  0  0  0  0  0  0  0
  161.0330  202.4560  150.5540 N   0  0  0  0  0  0  0  0  0  0  0  0
  161.3380  204.6790  147.7130 N   0  0  0  0  0  0  0  0  0  0  0  0
  160.8490  208.8170  150.9830 N   0  0  0  0  0  2  0  0  0  0  0  0
  161.4780  204.8910  144.8950 C   0  0  0  0  0  2  0  0  0  0  0  0
  161.1720  203.2620  151.6430 C   0  0  0  0  0  3  0  0  0  0  0  0
  161.1990  203.5080  146.9080 C   0  0  0  0  0  0  0  0  0  0  0  0
  161.2050  203.5790  145.5780 C   0  0  0  0  0  3  0  0  0  0  0  0
  161.5690  205.5560  152.6780 C   0  0  2  0  0  3  0  0  0  0  0  0
  160.8310  205.0780  153.9180 C   0  0  0  0  0  1  0  0  0  0  0  0
  161.7340  206.6560  150.0220 C   0  0  0  0  0  2  0  0  0  0  0  0
  160.9670  206.0700  145.7290 C   0  0  0  0  0  2  0  0  0  0  0  0
  161.0780  202.9740  149.3010 C   0  0  0  0  0  0  0  0  0  0  0  0
  160.9210  201.9820  147.8130 S   0  0  0  0  0  0  0  0  0  0  0  0
  161.1550  206.9290  152.3770 N   0  0  0  0  0  0  0  0  0  0  0  0
  161.5580  206.0080  147.1400 C   0  0  0  0  0  2  0  0  0  0  0  0
  161.2360  207.4570  151.1900 C   0  0  0  0  0  0  0  0  0  0  0  0
  161.3510  204.6490  151.4880 C   0  0  0  0  0  0  0  0  0  0  0  0
  160.4560  209.6160  152.0110 O   0  0  0  0  0  0  0  0  0  0  0  0
  161.6000  210.3040  152.4670 C   0  0  2  0  0  3  0  0  0  0  0  0
  162.7380  209.9570  151.7500 F   0  0  0  0  0  0  0  0  0  0  0  0
  161.8040  210.1420  153.9420 C   0  0  0  0  0  0  0  0  0  0  0  0
  160.9950  209.5100  154.6030 O   0  0  0  0  0  0  0  0  0  0  0  0
  162.8790  210.7040  154.5540 F   0  0  0  0  0  0  0  0  0  0  0  0
  1 14  2  0  0  0  0
  1  2  1  0  0  0  0
  2 19  2  0  0  0  0
  3  7  2  0  0  0  0
  4  1  1  0  0  0  0
  5 18  1  0  0  0  0
  5 20  1  0  0  0  0
  6  9  1  0  0  0  0
  6 13  1  0  0  0  0
  8  4  1  0  0  0  0
  8 15  1  0  0  0  0
  9  8  2  0  0  0  0
 10 11  1  1  0  0  0
 12  2  1  0  0  0  0
 12 18  1  0  0  0  0
 13 17  1  0  0  0  0
 14  3  1  0  0  0  0
 15 14  1  0  0  0  0
 16 10  1  0  0  0  0
 17  4  1  0  0  0  0
 18 16  2  0  0  0  0
 19  7  1  0  0  0  0
 19 10  1  0  0  0  0
 20 21  1  0  0  0  0
 21 22  1  6  0  0  0
 21 23  1  0  0  0  0
 23 25  1  0  0  0  0
 23 24  2  0  0  0  0
M  END
>  <MODEL>
7

>  <REMARK>
 VINA RESULT:      -7.9      4.380      7.016
  Name = 
  3 active torsions:
  status: ('A' for Active; 'I' for Inactive)
    1  A    between atoms: C_2  and  C_21
    2  A    between atoms: N_6  and  O_15
    3  A    between atoms: O_15  and  C_21
                            x       y       z     vdW  Elec       q    Type
                         _______ _______ _______ _____ _____    ______ ____

>  <TORSDO>
F 3

$$$$
=
 OpenBabel11052422063D

 25 28  0  0  1  0  0  0  0  0999 V2000
  161.6110  206.8390  150.4590 C   0  0  0  0  0  0  0  0  0  0  0  0
  161.6390  205.7660  149.5510 C   0  0  0  0  0  0  0  0  0  0  0  0
  161.9190  208.4010  148.6790 N   0  0  0  0  0  0  0  0  0  0  0  0
  161.4670  206.7590  151.8730 N   0  0  0  0  0  0  0  0  0  0  0  0
  160.3080  202.2650  149.3220 N   0  0  0  0  0  2  0  0  0  0  0  0
  161.3210  207.0730  154.6810 C   0  0  0  0  0  2  0  0  0  0  0  0
  161.9580  207.3890  147.7690 C   0  0  0  0  0  3  0  0  0  0  0  0
  161.5360  208.0660  152.4430 C   0  0  0  0  0  0  0  0  0  0  0  0
  161.4160  208.2550  153.7560 C   0  0  0  0  0  3  0  0  0  0  0  0
  161.8990  204.9070  147.1980 C   0  0  2  0  0  3  0  0  0  0  0  0
  161.3960  205.2810  145.8130 C   0  0  0  0  0  1  0  0  0  0  0  0
  161.5850  204.3330  150.0020 C   0  0  0  0  0  2  0  0  0  0  0  0
  160.6220  205.8900  154.0030 C   0  0  0  0  0  2  0  0  0  0  0  0
  161.7400  208.1400  149.9980 C   0  0  0  0  0  0  0  0  0  0  0  0
  161.6940  209.4110  151.2630 S   0  0  0  0  0  0  0  0  0  0  0  0
  161.1560  203.7380  147.6750 N   0  0  0  0  0  0  0  0  0  0  0  0
  161.3260  205.5510  152.6870 C   0  0  0  0  0  2  0  0  0  0  0  0
  161.0140  203.4450  148.9350 C   0  0  0  0  0  0  0  0  0  0  0  0
  161.7990  206.0530  148.1790 C   0  0  0  0  0  0  0  0  0  0  0  0
  159.8270  201.3830  148.4050 O   0  0  0  0  0  0  0  0  0  0  0  0
  160.7990  200.3730  148.2460 C   0  0  2  0  0  3  0  0  0  0  0  0
  161.9170  200.5950  149.0390 F   0  0  0  0  0  0  0  0  0  0  0  0
  161.1710  200.1700  146.8080 C   0  0  0  0  0  0  0  0  0  0  0  0
  161.7520  199.1540  146.4670 O   0  0  0  0  0  0  0  0  0  0  0  0
  160.8750  201.1190  145.8820 F   0  0  0  0  0  0  0  0  0  0  0  0
  1  4  1  0  0  0  0
  2 12  1  0  0  0  0
  2  1  2  0  0  0  0
  3 14  2  0  0  0  0
  4  8  1  0  0  0  0
  4 17  1  0  0  0  0
  7 19  2  0  0  0  0
  7  3  1  0  0  0  0
  8  9  2  0  0  0  0
  9  6  1  0  0  0  0
 10 11  1  6  0  0  0
 10 16  1  0  0  0  0
 10 19  1  0  0  0  0
 13  6  1  0  0  0  0
 14  1  1  0  0  0  0
 14 15  1  0  0  0  0
 15  8  1  0  0  0  0
 16 18  2  0  0  0  0
 17 13  1  0  0  0  0
 18  5  1  0  0  0  0
 18 12  1  0  0  0  0
 19  2  1  0  0  0  0
 20  5  1  0  0  0  0
 21 20  1  0  0  0  0
 21 22  1  1  0  0  0
 23 21  1  0  0  0  0
 24 23  2  0  0  0  0
 25 23  1  0  0  0  0
M  END
>  <MODEL>
8

>  <REMARK>
 VINA RESULT:      -7.6      2.255      3.791
  Name = 
  3 active torsions:
  status: ('A' for Active; 'I' for Inactive)
    1  A    between atoms: C_2  and  C_21
    2  A    between atoms: N_6  and  O_15
    3  A    between atoms: O_15  and  C_21
                            x       y       z     vdW  Elec       q    Type
                         _______ _______ _______ _____ _____    ______ ____

>  <TORSDO>
F 3

$$$$
=
 OpenBabel11052422063D

 25 28  0  0  1  0  0  0  0  0999 V2000
  160.9990  207.4300  152.6520 C   0  0  0  0  0  0  0  0  0  0  0  0
  160.9500  206.6370  151.4920 C   0  0  0  0  0  0  0  0  0  0  0  0
  161.1080  205.4790  154.0250 N   0  0  0  0  0  0  0  0  0  0  0  0
  160.9560  208.8520  152.7190 N   0  0  0  0  0  0  0  0  0  0  0  0
  161.8560  206.9390  147.8630 N   0  0  0  0  0  2  0  0  0  0  0  0
  160.7920  211.6080  153.3330 C   0  0  0  0  0  2  0  0  0  0  0  0
  161.0570  204.6770  152.9260 C   0  0  0  0  0  3  0  0  0  0  0  0
  160.9790  209.2750  154.0820 C   0  0  0  0  0  0  0  0  0  0  0  0
  160.9590  210.5670  154.4060 C   0  0  0  0  0  3  0  0  0  0  0  0
  160.8790  204.3680  150.4030 C   0  0  2  0  0  3  0  0  0  0  0  0
  161.5910  203.0340  150.5590 C   0  0  0  0  0  1  0  0  0  0  0  0
  160.7700  207.2320  150.1230 C   0  0  0  0  0  2  0  0  0  0  0  0
  161.4180  211.1520  152.0110 C   0  0  0  0  0  2  0  0  0  0  0  0
  161.0890  206.8290  153.8980 C   0  0  0  0  0  0  0  0  0  0  0  0
  161.1360  207.9580  155.2930 S   0  0  0  0  0  0  0  0  0  0  0  0
  161.4070  205.0540  149.2220 N   0  0  0  0  0  0  0  0  0  0  0  0
  160.8450  209.7930  151.6040 C   0  0  0  0  0  2  0  0  0  0  0  0
  161.3550  206.3450  149.0610 C   0  0  0  0  0  0  0  0  0  0  0  0
  160.9980  205.2350  151.6360 C   0  0  0  0  0  0  0  0  0  0  0  0
  162.3340  206.1870  146.8340 O   0  0  0  0  0  0  0  0  0  0  0  0
  161.3120  206.1070  145.8650 C   0  0  2  0  0  3  0  0  0  0  0  0
  160.0470  206.1920  146.4320 F   0  0  0  0  0  0  0  0  0  0  0  0
  161.4510  204.8920  145.0000 C   0  0  0  0  0  0  0  0  0  0  0  0
  161.5140  203.7850  145.5090 O   0  0  0  0  0  0  0  0  0  0  0  0
  161.5190  205.0150  143.6480 F   0  0  0  0  0  0  0  0  0  0  0  0
  1  4  1  0  0  0  0
  1 14  1  0  0  0  0
  2 19  1  0  0  0  0
  2  1  2  0  0  0  0
  4  8  1  0  0  0  0
  5 18  1  0  0  0  0
  6  9  1  0  0  0  0
  7  3  1  0  0  0  0
  8  9  2  0  0  0  0
  8 15  1  0  0  0  0
 10 11  1  1  0  0  0
 10 19  1  0  0  0  0
 12  2  1  0  0  0  0
 13  6  1  0  0  0  0
 14  3  2  0  0  0  0
 14 15  1  0  0  0  0
 16 10  1  0  0  0  0
 17 13  1  0  0  0  0
 17  4  1  0  0  0  0
 18 16  2  0  0  0  0
 18 12  1  0  0  0  0
 19  7  2  0  0  0  0
 20  5  1  0  0  0  0
 21 22  1  1  0  0  0
 21 20  1  0  0  0  0
 23 24  2  0  0  0  0
 23 21  1  0  0  0  0
 25 23  1  0  0  0  0
M  END
>  <MODEL>
9

>  <REMARK>
 VINA RESULT:      -7.1      1.610      2.023
  Name = 
  3 active torsions:
  status: ('A' for Active; 'I' for Inactive)
    1  A    between atoms: C_2  and  C_21
    2  A    between atoms: N_6  and  O_15
    3  A    between atoms: O_15  and  C_21
                            x       y       z     vdW  Elec       q    Type
                         _______ _______ _______ _____ _____    ______ ____

>  <TORSDO>
F 3

$$$$
