=
 OpenBabel11062410093D

 43 49  0  0  1  0  0  0  0  0999 V2000
  160.9660  202.6910  148.1730 C   0  0  0  0  0  0  0  0  0  0  0  0
  161.9540  207.5690  149.0570 C   0  0  0  0  0  0  0  0  0  0  0  0
  161.1580  208.0470  151.6550 C   0  0  0  0  0  0  0  0  0  0  0  0
  161.6570  205.0030  147.9630 C   0  0  0  0  0  0  0  0  0  0  0  0
  160.5530  202.9280  149.4870 C   0  0  0  0  0  3  0  0  0  0  0  0
  160.8140  201.3370  147.5810 C   0  0  0  0  0  1  0  0  0  0  0  0
  161.2420  205.2510  149.2950 C   0  0  0  0  0  0  0  0  0  0  0  0
  161.5160  203.7260  147.4120 C   0  0  0  0  0  3  0  0  0  0  0  0
  160.6910  204.2020  150.0470 C   0  0  0  0  0  3  0  0  0  0  0  0
  161.0050  206.8060  151.1170 N   0  0  0  0  0  0  0  0  0  0  0  0
  161.3910  206.5390  149.8400 C   0  0  0  0  0  0  0  0  0  0  0  0
  162.3570  207.3100  147.7410 C   0  0  0  0  0  3  0  0  0  0  0  0
  162.0950  208.8410  149.6250 C   0  0  0  0  0  0  0  0  0  0  0  0
  161.6940  209.0480  150.9090 N   0  0  0  0  0  0  0  0  0  0  0  0
  162.2100  206.0310  147.1970 C   0  0  0  0  0  3  0  0  0  0  0  0
  160.7250  208.3270  153.0560 C   0  0  1  0  0  3  0  0  0  0  0  0
  160.9730  207.1090  153.9290 C   0  0  0  0  0  1  0  0  0  0  0  0
  161.4570  209.5420  153.6100 C   0  0  0  0  0  2  0  0  0  0  0  0
  160.7630  210.0950  154.8120 C   0  0  0  0  0  0  0  0  0  0  0  0
  161.4030  210.3930  155.8090 O   0  0  0  0  0  0  0  0  0  0  0  0
  159.2820  210.2820  154.7870 C   0  0  0  0  0  2  0  0  0  0  0  0
  158.9070  211.7280  155.1260 C   0  0  2  0  0  3  0  0  0  0  0  0
  156.3920  212.7240  154.3760 C   0  0  0  0  0  2  0  0  0  0  0  0
  157.8610  211.8010  156.0760 O   0  0  0  0  0  0  0  0  0  0  0  0
  158.6560  212.6420  153.9000 C   0  0  2  0  0  3  0  0  0  0  0  0
  157.5520  213.4980  154.1270 O   0  0  0  0  0  0  0  0  0  0  0  0
  156.6320  211.6140  155.4110 C   0  0  0  0  0  2  0  0  0  0  0  0
  158.4930  211.8950  152.6510 N   0  0  0  0  0  2  0  0  0  0  0  0
  158.7280  212.7800  151.5890 N   0  0  0  0  0  0  0  0  0  0  0  0
  157.4290  214.4530  150.3700 C   0  0  0  0  0  2  0  0  0  0  0  0
  159.9040  214.1100  150.2350 C   0  0  0  0  0  3  0  0  0  0  0  0
  158.5820  213.9110  149.5410 C   0  0  1  0  0  3  0  0  0  0  0  0
  159.9570  213.4430  151.3730 C   0  0  0  0  0  3  0  0  0  0  0  0
  157.8100  212.9860  150.4830 C   0  0  1  0  0  3  0  0  0  0  0  0
  162.6420  209.8880  148.8760 O   0  0  0  0  0  0  0  0  0  0  0  0
  160.2900  212.0200  146.8910 C   0  0  0  0  0  3  0  0  0  0  0  0
  161.0280  213.1320  146.8100 C   0  0  0  0  0  0  0  0  0  0  0  0
  162.8450  212.1480  148.1130 C   0  0  0  0  0  3  0  0  0  0  0  0
  160.8860  210.7490  147.4330 C   0  0  0  0  0  2  0  0  0  0  0  0
  161.9030  211.0560  148.5420 C   0  0  1  0  0  3  0  0  0  0  0  0
  162.4110  213.1420  147.3300 C   0  0  0  0  0  3  0  0  0  0  0  0
  159.7730  214.0140  145.0180 O   0  0  0  0  0  1  0  0  0  0  0  0
  160.4590  214.3570  146.1830 C   0  0  0  0  0  2  0  0  0  0  0  0
  1  5  1  0  0  0  0
  2 13  1  0  0  0  0
  2 11  1  0  0  0  0
  3 16  1  0  0  0  0
  4  7  1  0  0  0  0
  5  9  2  0  0  0  0
  6  1  1  0  0  0  0
  7 11  2  0  0  0  0
  7  9  1  0  0  0  0
  8  4  1  0  0  0  0
  8  1  2  0  0  0  0
 10  3  2  0  0  0  0
 11 10  1  0  0  0  0
 12  2  2  0  0  0  0
 13 14  2  0  0  0  0
 14  3  1  0  0  0  0
 15 12  1  0  0  0  0
 15  4  2  0  0  0  0
 16 18  1  0  0  0  0
 16 17  1  1  0  0  0
 18 19  1  0  0  0  0
 19 20  2  0  0  0  0
 21 19  1  0  0  0  0
 22 21  1  6  0  0  0
 22 24  1  0  0  0  0
 23 27  1  0  0  0  0
 25 28  1  6  0  0  0
 25 26  1  0  0  0  0
 25 22  1  0  0  0  0
 26 23  1  0  0  0  0
 27 24  1  0  0  0  0
 29 28  1  0  0  0  0
 31 33  2  0  0  0  0
 32 31  1  1  0  0  0
 32 30  1  0  0  0  0
 32 34  1  0  0  0  0
 33 29  1  0  0  0  0
 34 30  1  1  0  0  0
 34 29  1  0  0  0  0
 35 13  1  0  0  0  0
 36 39  1  0  0  0  0
 37 36  2  0  0  0  0
 37 41  1  0  0  0  0
 38 40  1  0  0  0  0
 39 40  1  0  0  0  0
 40 35  1  6  0  0  0
 41 38  2  0  0  0  0
 42 43  1  0  0  0  0
 43 37  1  0  0  0  0
M  END
>  <MODEL>
1

>  <REMARK>
 VINA RESULT:      -8.3      0.000      0.000
  Name = 
  10 active torsions:
  status: ('A' for Active; 'I' for Inactive)
    1  A    between atoms: O_1  and  C_34
    2  A    between atoms: O_1  and  C_35
    3  A    between atoms: C_2  and  C_6
    4  A    between atoms: C_2  and  C_13
    5  A    between atoms: C_3  and  C_4
    6  A    between atoms: C_3  and  C_12
    7  A    between atoms: C_6  and  C_12
    8  A    between atoms: N_11  and  N_14
    9  A    between atoms: N_14  and  C_22
   10  A    between atoms: C_19  and  C_37
                            x       y       z     vdW  Elec       q    Type
                         _______ _______ _______ _____ _____    ______ ____

>  <TORSDO>
F 10

$$$$
=
 OpenBabel11062410093D

 43 49  0  0  1  0  0  0  0  0999 V2000
  160.6130  207.7070  155.0240 C   0  0  0  0  0  0  0  0  0  0  0  0
  161.9280  207.5750  150.1450 C   0  0  0  0  0  0  0  0  0  0  0  0
  161.7450  210.1750  149.2380 C   0  0  0  0  0  0  0  0  0  0  0  0
  161.3140  206.9910  152.8190 C   0  0  0  0  0  0  0  0  0  0  0  0
  160.5110  209.0250  154.5690 C   0  0  0  0  0  3  0  0  0  0  0  0
  160.2910  207.3830  156.4370 C   0  0  0  0  0  1  0  0  0  0  0  0
  161.2130  208.3250  152.3510 C   0  0  0  0  0  0  0  0  0  0  0  0
  161.0130  206.6920  154.1510 C   0  0  0  0  0  3  0  0  0  0  0  0
  160.8100  209.3330  153.2390 C   0  0  0  0  0  3  0  0  0  0  0  0
  161.4370  209.8850  150.5320 N   0  0  0  0  0  0  0  0  0  0  0  0
  161.5210  208.6140  151.0090 C   0  0  0  0  0  0  0  0  0  0  0  0
  162.0210  206.2620  150.6210 C   0  0  0  0  0  3  0  0  0  0  0  0
  162.2330  207.8920  148.8150 C   0  0  0  0  0  0  0  0  0  0  0  0
  162.1340  209.1830  148.3950 N   0  0  0  0  0  0  0  0  0  0  0  0
  161.7150  205.9720  151.9530 C   0  0  0  0  0  3  0  0  0  0  0  0
  161.6440  211.5740  148.7270 C   0  0  1  0  0  3  0  0  0  0  0  0
  160.9710  212.4580  149.7630 C   0  0  0  0  0  1  0  0  0  0  0  0
  163.0230  212.1150  148.3750 C   0  0  0  0  0  2  0  0  0  0  0  0
  162.9300  213.2660  147.4260 C   0  0  0  0  0  0  0  0  0  0  0  0
  162.9580  214.4130  147.8450 O   0  0  0  0  0  0  0  0  0  0  0  0
  162.8020  213.0050  145.9610 C   0  0  0  0  0  2  0  0  0  0  0  0
  161.6220  213.7800  145.3680 C   0  0  2  0  0  3  0  0  0  0  0  0
  159.5460  212.3870  144.0900 C   0  0  0  0  0  2  0  0  0  0  0  0
  160.4120  213.5210  146.0560 O   0  0  0  0  0  0  0  0  0  0  0  0
  161.4640  213.6560  143.8310 C   0  0  2  0  0  3  0  0  0  0  0  0
  160.1020  213.5340  143.4720 O   0  0  0  0  0  0  0  0  0  0  0  0
  159.8780  212.3030  145.5880 C   0  0  0  0  0  2  0  0  0  0  0  0
  162.2580  212.5660  143.2590 N   0  0  0  0  0  2  0  0  0  0  0  0
  162.4350  212.8370  141.8950 N   0  0  0  0  0  0  0  0  0  0  0  0
  161.2230  212.3460  139.8300 C   0  0  0  0  0  2  0  0  0  0  0  0
  163.1320  213.9430  140.0860 C   0  0  0  0  0  3  0  0  0  0  0  0
  162.7020  212.5920  139.5790 C   0  0  1  0  0  3  0  0  0  0  0  0
  162.9880  214.0370  141.3940 C   0  0  0  0  0  3  0  0  0  0  0  0
  162.2470  211.8560  140.8400 C   0  0  1  0  0  3  0  0  0  0  0  0
  162.6330  206.8870  147.9280 O   0  0  0  0  0  0  0  0  0  0  0  0
  161.5330  203.5660  146.5950 C   0  0  0  0  0  3  0  0  0  0  0  0
  160.8460  203.9830  145.5260 C   0  0  0  0  0  0  0  0  0  0  0  0
  161.2930  206.3320  146.0230 C   0  0  0  0  0  3  0  0  0  0  0  0
  162.3750  204.5330  147.3820 C   0  0  0  0  0  2  0  0  0  0  0  0
  161.7260  205.9240  147.4050 C   0  0  1  0  0  3  0  0  0  0  0  0
  160.8430  205.4150  145.1600 C   0  0  0  0  0  3  0  0  0  0  0  0
  160.2460  201.7220  145.2290 O   0  0  0  0  0  1  0  0  0  0  0  0
  160.0950  203.0010  144.6960 C   0  0  0  0  0  2  0  0  0  0  0  0
  1  6  1  0  0  0  0
  2 12  2  0  0  0  0
  2 11  1  0  0  0  0
  3 10  2  0  0  0  0
  4  8  1  0  0  0  0
  5  1  1  0  0  0  0
  7  4  1  0  0  0  0
  7  9  1  0  0  0  0
  8  1  2  0  0  0  0
  9  5  2  0  0  0  0
 10 11  1  0  0  0  0
 11  7  2  0  0  0  0
 12 15  1  0  0  0  0
 13  2  1  0  0  0  0
 14 13  2  0  0  0  0
 14  3  1  0  0  0  0
 15  4  2  0  0  0  0
 16  3  1  0  0  0  0
 16 17  1  1  0  0  0
 18 16  1  0  0  0  0
 19 20  2  0  0  0  0
 19 18  1  0  0  0  0
 21 19  1  0  0  0  0
 22 21  1  1  0  0  0
 22 24  1  0  0  0  0
 23 27  1  0  0  0  0
 25 28  1  1  0  0  0
 25 22  1  0  0  0  0
 26 25  1  0  0  0  0
 26 23  1  0  0  0  0
 27 24  1  0  0  0  0
 29 28  1  0  0  0  0
 31 33  2  0  0  0  0
 32 30  1  6  0  0  0
 32 31  1  0  0  0  0
 32 34  1  0  0  0  0
 33 29  1  0  0  0  0
 34 30  1  6  0  0  0
 34 29  1  0  0  0  0
 35 13  1  0  0  0  0
 36 39  1  0  0  0  0
 37 36  2  0  0  0  0
 38 40  1  0  0  0  0
 39 40  1  0  0  0  0
 40 35  1  6  0  0  0
 41 37  1  0  0  0  0
 41 38  2  0  0  0  0
 43 42  1  0  0  0  0
 43 37  1  0  0  0  0
M  END
>  <MODEL>
2

>  <REMARK>
 VINA RESULT:      -8.0      3.658      8.226
  Name = 
  10 active torsions:
  status: ('A' for Active; 'I' for Inactive)
    1  A    between atoms: O_1  and  C_34
    2  A    between atoms: O_1  and  C_35
    3  A    between atoms: C_2  and  C_6
    4  A    between atoms: C_2  and  C_13
    5  A    between atoms: C_3  and  C_4
    6  A    between atoms: C_3  and  C_12
    7  A    between atoms: C_6  and  C_12
    8  A    between atoms: N_11  and  N_14
    9  A    between atoms: N_14  and  C_22
   10  A    between atoms: C_19  and  C_37
                            x       y       z     vdW  Elec       q    Type
                         _______ _______ _______ _____ _____    ______ ____

>  <TORSDO>
F 10

$$$$
=
 OpenBabel11062410093D

 43 49  0  0  1  0  0  0  0  0999 V2000
  161.2050  204.1420  148.5440 C   0  0  0  0  0  0  0  0  0  0  0  0
  161.8300  208.4580  151.1020 C   0  0  0  0  0  0  0  0  0  0  0  0
  161.7030  210.4780  149.2270 C   0  0  0  0  0  0  0  0  0  0  0  0
  161.5490  205.7880  150.2880 C   0  0  0  0  0  0  0  0  0  0  0  0
  161.1480  205.1610  147.5880 C   0  0  0  0  0  3  0  0  0  0  0  0
  161.0590  202.7240  148.1270 C   0  0  0  0  0  1  0  0  0  0  0  0
  161.4910  206.8250  149.3240 C   0  0  0  0  0  0  0  0  0  0  0  0
  161.4060  204.4550  149.8900 C   0  0  0  0  0  3  0  0  0  0  0  0
  161.2890  206.4960  147.9750 C   0  0  0  0  0  3  0  0  0  0  0  0
  161.5780  209.1800  148.8340 N   0  0  0  0  0  0  0  0  0  0  0  0
  161.6330  208.1630  149.7350 C   0  0  0  0  0  0  0  0  0  0  0  0
  161.8870  207.4220  152.0420 C   0  0  0  0  0  3  0  0  0  0  0  0
  161.9640  209.7980  151.4840 C   0  0  0  0  0  0  0  0  0  0  0  0
  161.8970  210.7740  150.5380 N   0  0  0  0  0  0  0  0  0  0  0  0
  161.7470  206.0930  151.6360 C   0  0  0  0  0  3  0  0  0  0  0  0
  161.6450  211.5840  148.2250 C   0  0  1  0  0  3  0  0  0  0  0  0
  160.6790  212.6580  148.6930 C   0  0  0  0  0  1  0  0  0  0  0  0
  163.0310  212.1710  147.9970 C   0  0  0  0  0  2  0  0  0  0  0  0
  162.9910  213.2950  147.0120 C   0  0  0  0  0  0  0  0  0  0  0  0
  163.0440  214.4530  147.3980 O   0  0  0  0  0  0  0  0  0  0  0  0
  162.8840  212.9940  145.5540 C   0  0  0  0  0  2  0  0  0  0  0  0
  161.7710  213.8210  144.9040 C   0  0  2  0  0  3  0  0  0  0  0  0
  159.7310  212.5260  143.4740 C   0  0  0  0  0  2  0  0  0  0  0  0
  160.5130  213.5950  145.5110 O   0  0  0  0  0  0  0  0  0  0  0  0
  161.7060  213.7290  143.3580 C   0  0  2  0  0  3  0  0  0  0  0  0
  160.3650  213.6630  142.9130 O   0  0  0  0  0  0  0  0  0  0  0  0
  159.9660  212.4050  144.9880 C   0  0  0  0  0  2  0  0  0  0  0  0
  162.4940  212.6200  142.8160 N   0  0  0  0  0  2  0  0  0  0  0  0
  162.5760  212.7930  141.4270 N   0  0  0  0  0  0  0  0  0  0  0  0
  161.1640  212.2700  139.5010 C   0  0  0  0  0  2  0  0  0  0  0  0
  163.1950  213.7310  139.4980 C   0  0  0  0  0  3  0  0  0  0  0  0
  162.6300  212.3880  139.1180 C   0  0  1  0  0  3  0  0  0  0  0  0
  163.1670  213.9160  140.8050 C   0  0  0  0  0  3  0  0  0  0  0  0
  162.2320  211.7670  140.4580 C   0  0  1  0  0  3  0  0  0  0  0  0
  162.1680  210.1270  152.8290 O   0  0  0  0  0  0  0  0  0  0  0  0
  159.4700  210.4040  155.4090 C   0  0  0  0  0  3  0  0  0  0  0  0
  158.5670  211.0900  154.6990 C   0  0  0  0  0  0  0  0  0  0  0  0
  160.0230  211.1870  152.7410 C   0  0  0  0  0  3  0  0  0  0  0  0
  160.6940  209.8420  154.7400 C   0  0  0  0  0  2  0  0  0  0  0  0
  161.1750  210.7710  153.6160 C   0  0  1  0  0  3  0  0  0  0  0  0
  158.8090  211.3730  153.2690 C   0  0  0  0  0  3  0  0  0  0  0  0
  156.2260  210.8430  154.8450 O   0  0  0  0  0  1  0  0  0  0  0  0
  157.3120  211.5580  155.3490 C   0  0  0  0  0  2  0  0  0  0  0  0
  1  8  1  0  0  0  0
  2 13  1  0  0  0  0
  2 12  1  0  0  0  0
  3 14  1  0  0  0  0
  4 15  1  0  0  0  0
  5  9  1  0  0  0  0
  5  1  2  0  0  0  0
  6  1  1  0  0  0  0
  7 11  1  0  0  0  0
  7  4  1  0  0  0  0
  8  4  2  0  0  0  0
  9  7  2  0  0  0  0
 10  3  2  0  0  0  0
 10 11  1  0  0  0  0
 11  2  2  0  0  0  0
 13 35  1  0  0  0  0
 14 13  2  0  0  0  0
 15 12  2  0  0  0  0
 16 17  1  1  0  0  0
 16  3  1  0  0  0  0
 18 16  1  0  0  0  0
 19 20  2  0  0  0  0
 19 18  1  0  0  0  0
 21 19  1  0  0  0  0
 22 24  1  0  0  0  0
 22 21  1  1  0  0  0
 23 27  1  0  0  0  0
 25 28  1  1  0  0  0
 25 22  1  0  0  0  0
 26 25  1  0  0  0  0
 26 23  1  0  0  0  0
 27 24  1  0  0  0  0
 29 28  1  0  0  0  0
 31 33  2  0  0  0  0
 32 31  1  1  0  0  0
 32 30  1  0  0  0  0
 32 34  1  0  0  0  0
 33 29  1  0  0  0  0
 34 30  1  6  0  0  0
 34 29  1  0  0  0  0
 37 43  1  0  0  0  0
 37 36  2  0  0  0  0
 38 41  2  0  0  0  0
 38 40  1  0  0  0  0
 39 36  1  0  0  0  0
 40 35  1  6  0  0  0
 40 39  1  0  0  0  0
 41 37  1  0  0  0  0
 42 43  1  0  0  0  0
M  END
>  <MODEL>
3

>  <REMARK>
 VINA RESULT:      -7.6      3.515      7.893
  Name = 
  10 active torsions:
  status: ('A' for Active; 'I' for Inactive)
    1  A    between atoms: O_1  and  C_34
    2  A    between atoms: O_1  and  C_35
    3  A    between atoms: C_2  and  C_6
    4  A    between atoms: C_2  and  C_13
    5  A    between atoms: C_3  and  C_4
    6  A    between atoms: C_3  and  C_12
    7  A    between atoms: C_6  and  C_12
    8  A    between atoms: N_11  and  N_14
    9  A    between atoms: N_14  and  C_22
   10  A    between atoms: C_19  and  C_37
                            x       y       z     vdW  Elec       q    Type
                         _______ _______ _______ _____ _____    ______ ____

>  <TORSDO>
F 10

$$$$
=
 OpenBabel11062410093D

 43 49  0  0  1  0  0  0  0  0999 V2000
  160.9040  203.3760  150.1120 C   0  0  0  0  0  0  0  0  0  0  0  0
  161.3850  207.7660  152.5720 C   0  0  0  0  0  0  0  0  0  0  0  0
  161.9080  209.6660  150.6400 C   0  0  0  0  0  0  0  0  0  0  0  0
  161.0130  205.0890  151.8220 C   0  0  0  0  0  0  0  0  0  0  0  0
  161.1760  204.3320  149.1300 C   0  0  0  0  0  3  0  0  0  0  0  0
  160.7050  201.9540  149.7290 C   0  0  0  0  0  1  0  0  0  0  0  0
  161.2890  206.0640  150.8300 C   0  0  0  0  0  0  0  0  0  0  0  0
  160.8230  203.7530  151.4550 C   0  0  0  0  0  3  0  0  0  0  0  0
  161.3670  205.6700  149.4860 C   0  0  0  0  0  3  0  0  0  0  0  0
  161.7380  208.3640  150.2810 N   0  0  0  0  0  0  0  0  0  0  0  0
  161.4750  207.4050  151.2100 C   0  0  0  0  0  0  0  0  0  0  0  0
  161.1140  206.7910  153.5400 C   0  0  0  0  0  3  0  0  0  0  0  0
  161.5710  209.1090  152.9210 C   0  0  0  0  0  0  0  0  0  0  0  0
  161.8270  210.0250  151.9480 N   0  0  0  0  0  0  0  0  0  0  0  0
  160.9280  205.4580  153.1650 C   0  0  0  0  0  3  0  0  0  0  0  0
  162.2000  210.7060  149.6100 C   0  0  1  0  0  3  0  0  0  0  0  0
  162.1830  210.0840  148.2240 C   0  0  0  0  0  1  0  0  0  0  0  0
  161.1920  211.8440  149.6990 C   0  0  0  0  0  2  0  0  0  0  0  0
  161.2970  212.7590  148.5210 C   0  0  0  0  0  0  0  0  0  0  0  0
  162.0160  213.7450  148.5710 O   0  0  0  0  0  0  0  0  0  0  0  0
  160.5180  212.4580  147.2840 C   0  0  0  0  0  2  0  0  0  0  0  0
  159.7300  213.6880  146.8220 C   0  0  2  0  0  3  0  0  0  0  0  0
  157.0810  213.3910  145.9390 C   0  0  0  0  0  2  0  0  0  0  0  0
  158.6550  213.9910  147.6910 O   0  0  0  0  0  0  0  0  0  0  0  0
  159.2980  213.6670  145.3330 C   0  0  2  0  0  3  0  0  0  0  0  0
  157.9870  214.1740  145.1820 O   0  0  0  0  0  0  0  0  0  0  0  0
  157.5690  213.1490  147.3770 C   0  0  0  0  0  2  0  0  0  0  0  0
  159.4240  212.3430  144.7190 N   0  0  0  0  0  2  0  0  0  0  0  0
  160.4130  212.4250  143.7280 N   0  0  0  0  0  0  0  0  0  0  0  0
  160.4560  212.5220  141.2860 C   0  0  0  0  0  2  0  0  0  0  0  0
  162.3860  212.9430  142.8220 C   0  0  0  0  0  3  0  0  0  0  0  0
  161.7530  211.9740  141.8580 C   0  0  1  0  0  3  0  0  0  0  0  0
  161.6130  213.1570  143.8700 C   0  0  0  0  0  3  0  0  0  0  0  0
  160.4160  211.6280  142.5140 C   0  0  1  0  0  3  0  0  0  0  0  0
  161.4950  209.5020  154.2620 O   0  0  0  0  0  0  0  0  0  0  0  0
  158.5090  210.7500  156.1440 C   0  0  0  0  0  3  0  0  0  0  0  0
  157.9300  211.4650  155.1720 C   0  0  0  0  0  0  0  0  0  0  0  0
  159.7000  210.9300  153.5770 C   0  0  0  0  0  3  0  0  0  0  0  0
  159.6740  209.8510  155.8330 C   0  0  0  0  0  2  0  0  0  0  0  0
  160.5490  210.4570  154.7260 C   0  0  1  0  0  3  0  0  0  0  0  0
  158.4840  211.4400  153.8030 C   0  0  0  0  0  3  0  0  0  0  0  0
  156.2740  212.9040  154.3070 O   0  0  0  0  0  1  0  0  0  0  0  0
  156.7180  212.2760  155.4700 C   0  0  0  0  0  2  0  0  0  0  0  0
  1  8  1  0  0  0  0
  2 13  1  0  0  0  0
  2 12  1  0  0  0  0
  3 14  1  0  0  0  0
  4 15  1  0  0  0  0
  5  9  1  0  0  0  0
  5  1  2  0  0  0  0
  6  1  1  0  0  0  0
  7 11  1  0  0  0  0
  7  4  1  0  0  0  0
  8  4  2  0  0  0  0
  9  7  2  0  0  0  0
 10  3  2  0  0  0  0
 10 11  1  0  0  0  0
 11  2  2  0  0  0  0
 13 35  1  0  0  0  0
 14 13  2  0  0  0  0
 15 12  2  0  0  0  0
 16 17  1  6  0  0  0
 16 18  1  0  0  0  0
 16  3  1  0  0  0  0
 19 20  2  0  0  0  0
 19 18  1  0  0  0  0
 21 19  1  0  0  0  0
 22 21  1  1  0  0  0
 22 24  1  0  0  0  0
 23 27  1  0  0  0  0
 25 28  1  1  0  0  0
 25 22  1  0  0  0  0
 26 25  1  0  0  0  0
 26 23  1  0  0  0  0
 27 24  1  0  0  0  0
 29 33  1  0  0  0  0
 29 28  1  0  0  0  0
 31 33  2  0  0  0  0
 32 30  1  6  0  0  0
 32 34  1  0  0  0  0
 32 31  1  0  0  0  0
 34 30  1  6  0  0  0
 34 29  1  0  0  0  0
 37 43  1  0  0  0  0
 37 36  2  0  0  0  0
 38 41  2  0  0  0  0
 38 40  1  0  0  0  0
 39 36  1  0  0  0  0
 40 35  1  6  0  0  0
 40 39  1  0  0  0  0
 41 37  1  0  0  0  0
 42 43  1  0  0  0  0
M  END
>  <MODEL>
4

>  <REMARK>
 VINA RESULT:      -7.6      2.655      6.775
  Name = 
  10 active torsions:
  status: ('A' for Active; 'I' for Inactive)
    1  A    between atoms: O_1  and  C_34
    2  A    between atoms: O_1  and  C_35
    3  A    between atoms: C_2  and  C_6
    4  A    between atoms: C_2  and  C_13
    5  A    between atoms: C_3  and  C_4
    6  A    between atoms: C_3  and  C_12
    7  A    between atoms: C_6  and  C_12
    8  A    between atoms: N_11  and  N_14
    9  A    between atoms: N_14  and  C_22
   10  A    between atoms: C_19  and  C_37
                            x       y       z     vdW  Elec       q    Type
                         _______ _______ _______ _____ _____    ______ ____

>  <TORSDO>
F 10

$$$$
=
 OpenBabel11062410093D

 43 49  0  0  1  0  0  0  0  0999 V2000
  160.9570  202.3760  148.8990 C   0  0  0  0  0  0  0  0  0  0  0  0
  161.4530  206.5850  151.6540 C   0  0  0  0  0  0  0  0  0  0  0  0
  161.9570  208.6160  149.8550 C   0  0  0  0  0  0  0  0  0  0  0  0
  161.0790  203.9660  150.7220 C   0  0  0  0  0  0  0  0  0  0  0  0
  161.2200  203.3990  147.9830 C   0  0  0  0  0  3  0  0  0  0  0  0
  160.7570  200.9840  148.4190 C   0  0  0  0  0  1  0  0  0  0  0  0
  161.3450  205.0080  149.7990 C   0  0  0  0  0  0  0  0  0  0  0  0
  160.8870  202.6590  150.2650 C   0  0  0  0  0  3  0  0  0  0  0  0
  161.4120  204.7090  148.4300 C   0  0  0  0  0  3  0  0  0  0  0  0
  161.7860  207.3410  149.4080 N   0  0  0  0  0  0  0  0  0  0  0  0
  161.5320  206.3200  150.2690 C   0  0  0  0  0  0  0  0  0  0  0  0
  161.1920  205.5450  152.5540 C   0  0  0  0  0  3  0  0  0  0  0  0
  161.6410  207.9010  152.0940 C   0  0  0  0  0  0  0  0  0  0  0  0
  161.8870  208.8830  151.1850 N   0  0  0  0  0  0  0  0  0  0  0  0
  161.0050  204.2410  152.0890 C   0  0  0  0  0  3  0  0  0  0  0  0
  162.2390  209.7260  148.8970 C   0  0  1  0  0  3  0  0  0  0  0  0
  161.4270  209.5350  147.6270 C   0  0  0  0  0  1  0  0  0  0  0  0
  161.9280  211.0740  149.5350 C   0  0  0  0  0  2  0  0  0  0  0  0
  162.3160  212.2030  148.6360 C   0  0  0  0  0  0  0  0  0  0  0  0
  163.4310  212.2380  148.1380 O   0  0  0  0  0  0  0  0  0  0  0  0
  161.3320  213.2900  148.3520 C   0  0  0  0  0  2  0  0  0  0  0  0
  160.0330  212.7160  147.7790 C   0  0  2  0  0  3  0  0  0  0  0  0
  158.0650  214.4530  146.7830 C   0  0  0  0  0  2  0  0  0  0  0  0
  159.9210  212.9350  146.3850 O   0  0  0  0  0  0  0  0  0  0  0  0
  158.7470  213.1160  148.5450 C   0  0  2  0  0  3  0  0  0  0  0  0
  157.6910  213.3940  147.6470 O   0  0  0  0  0  0  0  0  0  0  0  0
  159.4610  214.2500  146.1710 C   0  0  0  0  0  2  0  0  0  0  0  0
  158.9550  214.2300  149.4730 N   0  0  0  0  0  2  0  0  0  0  0  0
  158.5440  213.8090  150.7450 N   0  0  0  0  0  0  0  0  0  0  0  0
  159.6360  213.3280  152.8790 C   0  0  0  0  0  2  0  0  0  0  0  0
  157.1740  213.5470  152.4880 C   0  0  0  0  0  3  0  0  0  0  0  0
  158.3130  212.5930  152.7360 C   0  0  1  0  0  3  0  0  0  0  0  0
  157.3280  214.1980  151.3500 C   0  0  0  0  0  3  0  0  0  0  0  0
  159.2210  212.7850  151.5210 C   0  0  1  0  0  3  0  0  0  0  0  0
  161.5760  208.2000  153.4600 O   0  0  0  0  0  0  0  0  0  0  0  0
  161.2130  211.4470  155.2860 C   0  0  0  0  0  3  0  0  0  0  0  0
  160.1040  211.1760  155.9830 C   0  0  0  0  0  0  0  0  0  0  0  0
  159.9150  208.9420  155.0160 C   0  0  0  0  0  3  0  0  0  0  0  0
  161.9170  210.3580  154.5240 C   0  0  0  0  0  2  0  0  0  0  0  0
  160.9050  209.3500  153.9590 C   0  0  1  0  0  3  0  0  0  0  0  0
  159.5140  209.8220  155.9400 C   0  0  0  0  0  3  0  0  0  0  0  0
  158.1050  211.9850  156.9400 O   0  0  0  0  0  1  0  0  0  0  0  0
  159.4710  212.2380  156.8130 C   0  0  0  0  0  2  0  0  0  0  0  0
  1  8  1  0  0  0  0
  2 13  1  0  0  0  0
  2 12  1  0  0  0  0
  3 14  1  0  0  0  0
  4 15  1  0  0  0  0
  5  9  1  0  0  0  0
  5  1  2  0  0  0  0
  6  1  1  0  0  0  0
  7 11  1  0  0  0  0
  7  4  1  0  0  0  0
  8  4  2  0  0  0  0
  9  7  2  0  0  0  0
 10  3  2  0  0  0  0
 10 11  1  0  0  0  0
 11  2  2  0  0  0  0
 13 35  1  0  0  0  0
 14 13  2  0  0  0  0
 15 12  2  0  0  0  0
 16 17  1  6  0  0  0
 16 18  1  0  0  0  0
 16  3  1  0  0  0  0
 19 18  1  0  0  0  0
 20 19  2  0  0  0  0
 21 19  1  0  0  0  0
 22 21  1  1  0  0  0
 22 25  1  0  0  0  0
 23 26  1  0  0  0  0
 24 22  1  0  0  0  0
 25 28  1  6  0  0  0
 26 25  1  0  0  0  0
 27 24  1  0  0  0  0
 27 23  1  0  0  0  0
 28 29  1  0  0  0  0
 29 33  1  0  0  0  0
 29 34  1  0  0  0  0
 32 31  1  6  0  0  0
 32 30  1  0  0  0  0
 33 31  2  0  0  0  0
 34 32  1  0  0  0  0
 34 30  1  1  0  0  0
 36 37  2  0  0  0  0
 37 43  1  0  0  0  0
 38 41  2  0  0  0  0
 39 36  1  0  0  0  0
 40 35  1  1  0  0  0
 40 39  1  0  0  0  0
 40 38  1  0  0  0  0
 41 37  1  0  0  0  0
 43 42  1  0  0  0  0
M  END
>  <MODEL>
5

>  <REMARK>
 VINA RESULT:      -7.4      1.598      5.931
  Name = 
  10 active torsions:
  status: ('A' for Active; 'I' for Inactive)
    1  A    between atoms: O_1  and  C_34
    2  A    between atoms: O_1  and  C_35
    3  A    between atoms: C_2  and  C_6
    4  A    between atoms: C_2  and  C_13
    5  A    between atoms: C_3  and  C_4
    6  A    between atoms: C_3  and  C_12
    7  A    between atoms: C_6  and  C_12
    8  A    between atoms: N_11  and  N_14
    9  A    between atoms: N_14  and  C_22
   10  A    between atoms: C_19  and  C_37
                            x       y       z     vdW  Elec       q    Type
                         _______ _______ _______ _____ _____    ______ ____

>  <TORSDO>
F 10

$$$$
=
 OpenBabel11062410093D

 43 49  0  0  1  0  0  0  0  0999 V2000
  161.1960  203.3310  146.8690 C   0  0  0  0  0  0  0  0  0  0  0  0
  161.2430  205.8220  151.2670 C   0  0  0  0  0  0  0  0  0  0  0  0
  161.5580  208.4880  150.6270 C   0  0  0  0  0  0  0  0  0  0  0  0
  161.1400  203.9060  149.2220 C   0  0  0  0  0  0  0  0  0  0  0  0
  161.3630  204.6790  146.5390 C   0  0  0  0  0  3  0  0  0  0  0  0
  161.1400  202.3050  145.7960 C   0  0  0  0  0  1  0  0  0  0  0  0
  161.3100  205.2740  148.8940 C   0  0  0  0  0  0  0  0  0  0  0  0
  161.0850  202.9450  148.2070 C   0  0  0  0  0  3  0  0  0  0  0  0
  161.4200  205.6460  147.5460 C   0  0  0  0  0  3  0  0  0  0  0  0
  161.5190  207.5530  149.6380 N   0  0  0  0  0  0  0  0  0  0  0  0
  161.3610  206.2330  149.9220 C   0  0  0  0  0  0  0  0  0  0  0  0
  161.0780  204.4660  151.5760 C   0  0  0  0  0  3  0  0  0  0  0  0
  161.2930  206.7980  152.2710 C   0  0  0  0  0  0  0  0  0  0  0  0
  161.4490  208.1050  151.9260 N   0  0  0  0  0  0  0  0  0  0  0  0
  161.0270  203.5130  150.5560 C   0  0  0  0  0  3  0  0  0  0  0  0
  161.7370  209.9340  150.3010 C   0  0  1  0  0  3  0  0  0  0  0  0
  162.6200  210.5970  151.3440 C   0  0  0  0  0  1  0  0  0  0  0  0
  162.3330  210.0980  148.9100 C   0  0  0  0  0  2  0  0  0  0  0  0
  161.9880  211.4290  148.3230 C   0  0  0  0  0  0  0  0  0  0  0  0
  162.6390  212.4190  148.6200 O   0  0  0  0  0  0  0  0  0  0  0  0
  160.8430  211.5400  147.3720 C   0  0  0  0  0  2  0  0  0  0  0  0
  160.4210  213.0010  147.1910 C   0  0  2  0  0  3  0  0  0  0  0  0
  157.8000  213.6030  146.3880 C   0  0  0  0  0  2  0  0  0  0  0  0
  159.4610  213.4030  148.1500 O   0  0  0  0  0  0  0  0  0  0  0  0
  160.0140  213.3910  145.7470 C   0  0  2  0  0  3  0  0  0  0  0  0
  158.8900  214.2500  145.7560 O   0  0  0  0  0  0  0  0  0  0  0  0
  158.1900  212.9610  147.7290 C   0  0  0  0  0  2  0  0  0  0  0  0
  159.7820  212.2310  144.8840 N   0  0  0  0  0  2  0  0  0  0  0  0
  160.6440  212.3380  143.7840 N   0  0  0  0  0  0  0  0  0  0  0  0
  160.3930  212.7000  141.3790 C   0  0  0  0  0  2  0  0  0  0  0  0
  162.5300  212.7870  142.6780 C   0  0  0  0  0  3  0  0  0  0  0  0
  161.6920  211.9860  141.7160 C   0  0  1  0  0  3  0  0  0  0  0  0
  161.9180  212.9470  143.8360 C   0  0  0  0  0  3  0  0  0  0  0  0
  160.4190  211.6830  142.5070 C   0  0  1  0  0  3  0  0  0  0  0  0
  161.1860  206.4270  153.6160 O   0  0  0  0  0  0  0  0  0  0  0  0
  159.7120  208.4140  156.4250 C   0  0  0  0  0  3  0  0  0  0  0  0
  160.1450  209.6300  156.0750 C   0  0  0  0  0  0  0  0  0  0  0  0
  161.3030  208.7670  154.1060 C   0  0  0  0  0  3  0  0  0  0  0  0
  159.8670  207.2520  155.4820 C   0  0  0  0  0  2  0  0  0  0  0  0
  161.1640  207.3800  154.6710 C   0  0  1  0  0  3  0  0  0  0  0  0
  160.8560  209.8230  154.7940 C   0  0  0  0  0  3  0  0  0  0  0  0
  158.5310  211.0470  157.0490 O   0  0  0  0  0  1  0  0  0  0  0  0
  159.9000  210.7920  156.9730 C   0  0  0  0  0  2  0  0  0  0  0  0
  1  8  1  0  0  0  0
  2 12  1  0  0  0  0
  2 13  1  0  0  0  0
  3 14  1  0  0  0  0
  4 15  1  0  0  0  0
  5  1  2  0  0  0  0
  5  9  1  0  0  0  0
  6  1  1  0  0  0  0
  7  4  1  0  0  0  0
  7 11  1  0  0  0  0
  8  4  2  0  0  0  0
  9  7  2  0  0  0  0
 10 11  1  0  0  0  0
 10  3  2  0  0  0  0
 11  2  2  0  0  0  0
 13 35  1  0  0  0  0
 14 13  2  0  0  0  0
 15 12  2  0  0  0  0
 16  3  1  0  0  0  0
 16 17  1  1  0  0  0
 18 16  1  0  0  0  0
 19 20  2  0  0  0  0
 19 18  1  0  0  0  0
 21 19  1  0  0  0  0
 22 21  1  6  0  0  0
 22 24  1  0  0  0  0
 23 27  1  0  0  0  0
 25 28  1  6  0  0  0
 25 26  1  0  0  0  0
 25 22  1  0  0  0  0
 26 23  1  0  0  0  0
 27 24  1  0  0  0  0
 29 33  1  0  0  0  0
 29 28  1  0  0  0  0
 31 33  2  0  0  0  0
 32 30  1  6  0  0  0
 32 34  1  0  0  0  0
 32 31  1  0  0  0  0
 34 30  1  6  0  0  0
 34 29  1  0  0  0  0
 37 36  2  0  0  0  0
 37 43  1  0  0  0  0
 38 40  1  0  0  0  0
 38 41  2  0  0  0  0
 39 36  1  0  0  0  0
 40 35  1  6  0  0  0
 40 39  1  0  0  0  0
 41 37  1  0  0  0  0
 43 42  1  0  0  0  0
M  END
>  <MODEL>
6

>  <REMARK>
 VINA RESULT:      -7.4      2.713      6.806
  Name = 
  10 active torsions:
  status: ('A' for Active; 'I' for Inactive)
    1  A    between atoms: O_1  and  C_34
    2  A    between atoms: O_1  and  C_35
    3  A    between atoms: C_2  and  C_6
    4  A    between atoms: C_2  and  C_13
    5  A    between atoms: C_3  and  C_4
    6  A    between atoms: C_3  and  C_12
    7  A    between atoms: C_6  and  C_12
    8  A    between atoms: N_11  and  N_14
    9  A    between atoms: N_14  and  C_22
   10  A    between atoms: C_19  and  C_37
                            x       y       z     vdW  Elec       q    Type
                         _______ _______ _______ _____ _____    ______ ____

>  <TORSDO>
F 10

$$$$
=
 OpenBabel11062410093D

 43 49  0  0  1  0  0  0  0  0999 V2000
  160.6520  207.6520  154.9390 C   0  0  0  0  0  0  0  0  0  0  0  0
  162.0060  207.3920  150.0750 C   0  0  0  0  0  0  0  0  0  0  0  0
  162.0240  209.9910  149.1510 C   0  0  0  0  0  0  0  0  0  0  0  0
  161.3220  206.8720  152.7460 C   0  0  0  0  0  0  0  0  0  0  0  0
  160.6510  208.9710  154.4750 C   0  0  0  0  0  3  0  0  0  0  0  0
  160.2910  207.3630  156.3500 C   0  0  0  0  0  1  0  0  0  0  0  0
  161.3250  208.2070  152.2690 C   0  0  0  0  0  0  0  0  0  0  0  0
  160.9860  206.6050  154.0760 C   0  0  0  0  0  3  0  0  0  0  0  0
  160.9870  209.2480  153.1460 C   0  0  0  0  0  3  0  0  0  0  0  0
  161.6820  209.7340  150.4430 N   0  0  0  0  0  0  0  0  0  0  0  0
  161.6670  208.4640  150.9290 C   0  0  0  0  0  0  0  0  0  0  0  0
  161.9970  206.0780  150.5610 C   0  0  0  0  0  3  0  0  0  0  0  0
  162.3470  207.6760  148.7480 C   0  0  0  0  0  0  0  0  0  0  0  0
  162.3480  208.9680  148.3190 N   0  0  0  0  0  0  0  0  0  0  0  0
  161.6570  205.8200  151.8910 C   0  0  0  0  0  3  0  0  0  0  0  0
  162.0310  211.3910  148.6310 C   0  0  1  0  0  3  0  0  0  0  0  0
  161.3180  211.4510  147.2910 C   0  0  0  0  0  1  0  0  0  0  0  0
  161.3770  212.3360  149.6300 C   0  0  0  0  0  2  0  0  0  0  0  0
  161.2530  213.7170  149.0720 C   0  0  0  0  0  0  0  0  0  0  0  0
  162.2490  214.3260  148.7100 O   0  0  0  0  0  0  0  0  0  0  0  0
  159.9050  214.3490  148.9610 C   0  0  0  0  0  2  0  0  0  0  0  0
  158.8220  213.2900  148.7320 C   0  0  2  0  0  3  0  0  0  0  0  0
  156.1240  214.0610  148.6230 C   0  0  0  0  0  2  0  0  0  0  0  0
  158.1790  213.4450  147.4810 O   0  0  0  0  0  0  0  0  0  0  0  0
  157.8140  213.1230  149.8970 C   0  0  2  0  0  3  0  0  0  0  0  0
  156.5010  212.9410  149.4050 O   0  0  0  0  0  0  0  0  0  0  0  0
  157.2000  214.4530  147.5980 C   0  0  0  0  0  2  0  0  0  0  0  0
  157.8660  214.2220  150.8630 N   0  0  0  0  0  2  0  0  0  0  0  0
  157.7990  213.6660  152.1480 N   0  0  0  0  0  0  0  0  0  0  0  0
  159.3410  212.5080  153.6500 C   0  0  0  0  0  2  0  0  0  0  0  0
  157.0810  213.4010  154.2450 C   0  0  0  0  0  3  0  0  0  0  0  0
  157.8900  212.1660  153.9480 C   0  0  1  0  0  3  0  0  0  0  0  0
  157.0340  214.2110  153.2040 C   0  0  0  0  0  3  0  0  0  0  0  0
  158.3520  212.3710  152.5050 C   0  0  1  0  0  3  0  0  0  0  0  0
  162.6820  206.6380  147.8710 O   0  0  0  0  0  0  0  0  0  0  0  0
  161.4270  203.1890  147.1340 C   0  0  0  0  0  3  0  0  0  0  0  0
  160.8670  203.4180  145.9410 C   0  0  0  0  0  0  0  0  0  0  0  0
  161.4620  205.7860  145.9960 C   0  0  0  0  0  3  0  0  0  0  0  0
  162.2780  204.2430  147.7880 C   0  0  0  0  0  2  0  0  0  0  0  0
  161.7460  205.6480  147.4680 C   0  0  1  0  0  3  0  0  0  0  0  0
  161.0110  204.7390  145.2960 C   0  0  0  0  0  3  0  0  0  0  0  0
  160.1900  201.1590  146.0030 O   0  0  0  0  0  1  0  0  0  0  0  0
  160.1080  202.3340  145.2570 C   0  0  0  0  0  2  0  0  0  0  0  0
  1  6  1  0  0  0  0
  2 12  2  0  0  0  0
  2 11  1  0  0  0  0
  3 10  2  0  0  0  0
  4  8  1  0  0  0  0
  5  1  1  0  0  0  0
  7  4  1  0  0  0  0
  7  9  1  0  0  0  0
  8  1  2  0  0  0  0
  9  5  2  0  0  0  0
 10 11  1  0  0  0  0
 11  7  2  0  0  0  0
 12 15  1  0  0  0  0
 13  2  1  0  0  0  0
 14 13  2  0  0  0  0
 14  3  1  0  0  0  0
 15  4  2  0  0  0  0
 16 17  1  6  0  0  0
 16  3  1  0  0  0  0
 16 18  1  0  0  0  0
 19 18  1  0  0  0  0
 20 19  2  0  0  0  0
 21 19  1  0  0  0  0
 22 21  1  1  0  0  0
 22 25  1  0  0  0  0
 23 26  1  0  0  0  0
 24 27  1  0  0  0  0
 24 22  1  0  0  0  0
 25 28  1  1  0  0  0
 26 25  1  0  0  0  0
 27 23  1  0  0  0  0
 28 29  1  0  0  0  0
 29 34  1  0  0  0  0
 29 33  1  0  0  0  0
 32 30  1  1  0  0  0
 32 31  1  0  0  0  0
 33 31  2  0  0  0  0
 34 30  1  1  0  0  0
 34 32  1  0  0  0  0
 35 13  1  0  0  0  0
 36 39  1  0  0  0  0
 37 36  2  0  0  0  0
 38 40  1  0  0  0  0
 40 39  1  0  0  0  0
 40 35  1  6  0  0  0
 41 37  1  0  0  0  0
 41 38  2  0  0  0  0
 43 37  1  0  0  0  0
 43 42  1  0  0  0  0
M  END
>  <MODEL>
7

>  <REMARK>
 VINA RESULT:      -7.3      2.387      6.437
  Name = 
  10 active torsions:
  status: ('A' for Active; 'I' for Inactive)
    1  A    between atoms: O_1  and  C_34
    2  A    between atoms: O_1  and  C_35
    3  A    between atoms: C_2  and  C_6
    4  A    between atoms: C_2  and  C_13
    5  A    between atoms: C_3  and  C_4
    6  A    between atoms: C_3  and  C_12
    7  A    between atoms: C_6  and  C_12
    8  A    between atoms: N_11  and  N_14
    9  A    between atoms: N_14  and  C_22
   10  A    between atoms: C_19  and  C_37
                            x       y       z     vdW  Elec       q    Type
                         _______ _______ _______ _____ _____    ______ ____

>  <TORSDO>
F 10

$$$$
=
 OpenBabel11062410093D

 43 49  0  0  1  0  0  0  0  0999 V2000
  160.9910  201.2010  147.3670 C   0  0  0  0  0  0  0  0  0  0  0  0
  161.2050  204.4500  151.2340 C   0  0  0  0  0  0  0  0  0  0  0  0
  161.8050  206.9070  150.1300 C   0  0  0  0  0  0  0  0  0  0  0  0
  160.9470  202.2060  149.5710 C   0  0  0  0  0  0  0  0  0  0  0  0
  161.3020  202.4410  146.8020 C   0  0  0  0  0  3  0  0  0  0  0  0
  160.8520  200.0040  146.4990 C   0  0  0  0  0  1  0  0  0  0  0  0
  161.2630  203.4660  149.0050 C   0  0  0  0  0  0  0  0  0  0  0  0
  160.8140  201.0830  148.7480 C   0  0  0  0  0  3  0  0  0  0  0  0
  161.4380  203.5690  147.6170 C   0  0  0  0  0  3  0  0  0  0  0  0
  161.6900  205.8130  149.3270 N   0  0  0  0  0  0  0  0  0  0  0  0
  161.3920  204.5900  149.8410 C   0  0  0  0  0  0  0  0  0  0  0  0
  160.8960  203.1980  151.7780 C   0  0  0  0  0  3  0  0  0  0  0  0
  161.3350  205.5850  152.0430 C   0  0  0  0  0  0  0  0  0  0  0  0
  161.6310  206.7840  151.4720 N   0  0  0  0  0  0  0  0  0  0  0  0
  160.7670  202.0810  150.9500 C   0  0  0  0  0  3  0  0  0  0  0  0
  162.1370  208.2420  149.5510 C   0  0  1  0  0  3  0  0  0  0  0  0
  162.0620  208.1850  148.0350 C   0  0  0  0  0  1  0  0  0  0  0  0
  161.1980  209.3100  150.0950 C   0  0  0  0  0  2  0  0  0  0  0  0
  161.9550  210.4850  150.6230 C   0  0  0  0  0  0  0  0  0  0  0  0
  162.7500  210.3440  151.5400 O   0  0  0  0  0  0  0  0  0  0  0  0
  161.7350  211.8340  150.0210 C   0  0  0  0  0  2  0  0  0  0  0  0
  161.6610  211.7470  148.4940 C   0  0  2  0  0  3  0  0  0  0  0  0
  162.3220  213.9890  146.9400 C   0  0  0  0  0  2  0  0  0  0  0  0
  162.9380  211.8400  147.8910 O   0  0  0  0  0  0  0  0  0  0  0  0
  160.6260  212.6930  147.8340 C   0  0  2  0  0  3  0  0  0  0  0  0
  161.1450  213.2570  146.6460 O   0  0  0  0  0  0  0  0  0  0  0  0
  163.3050  213.1990  147.8180 C   0  0  0  0  0  2  0  0  0  0  0  0
  160.1390  213.7330  148.7420 N   0  0  0  0  0  2  0  0  0  0  0  0
  158.7410  213.7580  148.6540 N   0  0  0  0  0  0  0  0  0  0  0  0
  157.0800  213.3770  146.9010 C   0  0  0  0  0  2  0  0  0  0  0  0
  156.6270  213.5940  149.3520 C   0  0  0  0  0  3  0  0  0  0  0  0
  156.5450  214.2700  148.0090 C   0  0  1  0  0  3  0  0  0  0  0  0
  157.8770  213.3400  149.6910 C   0  0  0  0  0  3  0  0  0  0  0  0
  158.0050  214.3810  147.5670 C   0  0  1  0  0  3  0  0  0  0  0  0
  161.1630  205.4840  153.4280 O   0  0  0  0  0  0  0  0  0  0  0  0
  160.0350  207.8860  156.0680 C   0  0  0  0  0  3  0  0  0  0  0  0
  160.3220  209.0350  155.4460 C   0  0  0  0  0  0  0  0  0  0  0  0
  161.2000  207.8770  153.4840 C   0  0  0  0  0  3  0  0  0  0  0  0
  160.1120  206.5800  155.3250 C   0  0  0  0  0  2  0  0  0  0  0  0
  161.2490  206.6090  154.2930 C   0  0  1  0  0  3  0  0  0  0  0  0
  160.8000  209.0210  154.0480 C   0  0  0  0  0  3  0  0  0  0  0  0
  161.1840  211.1980  155.8220 O   0  0  0  0  0  1  0  0  0  0  0  0
  160.1480  210.3290  156.1610 C   0  0  0  0  0  2  0  0  0  0  0  0
  1  8  1  0  0  0  0
  2 12  1  0  0  0  0
  2 13  1  0  0  0  0
  3 14  1  0  0  0  0
  4 15  1  0  0  0  0
  5  1  2  0  0  0  0
  5  9  1  0  0  0  0
  6  1  1  0  0  0  0
  7  4  1  0  0  0  0
  7 11  1  0  0  0  0
  8  4  2  0  0  0  0
  9  7  2  0  0  0  0
 10 11  1  0  0  0  0
 10  3  2  0  0  0  0
 11  2  2  0  0  0  0
 13 35  1  0  0  0  0
 14 13  2  0  0  0  0
 15 12  2  0  0  0  0
 16 17  1  6  0  0  0
 16 18  1  0  0  0  0
 16  3  1  0  0  0  0
 18 19  1  0  0  0  0
 19 20  2  0  0  0  0
 21 19  1  0  0  0  0
 22 21  1  1  0  0  0
 23 27  1  0  0  0  0
 24 22  1  0  0  0  0
 25 22  1  0  0  0  0
 25 28  1  1  0  0  0
 26 23  1  0  0  0  0
 26 25  1  0  0  0  0
 27 24  1  0  0  0  0
 29 28  1  0  0  0  0
 29 33  1  0  0  0  0
 31 33  2  0  0  0  0
 32 30  1  6  0  0  0
 32 31  1  0  0  0  0
 34 30  1  6  0  0  0
 34 32  1  0  0  0  0
 34 29  1  0  0  0  0
 37 36  2  0  0  0  0
 37 43  1  0  0  0  0
 38 41  2  0  0  0  0
 38 40  1  0  0  0  0
 39 36  1  0  0  0  0
 40 35  1  6  0  0  0
 40 39  1  0  0  0  0
 41 37  1  0  0  0  0
 42 43  1  0  0  0  0
M  END
>  <MODEL>
8

>  <REMARK>
 VINA RESULT:      -7.3      2.074      6.009
  Name = 
  10 active torsions:
  status: ('A' for Active; 'I' for Inactive)
    1  A    between atoms: O_1  and  C_34
    2  A    between atoms: O_1  and  C_35
    3  A    between atoms: C_2  and  C_6
    4  A    between atoms: C_2  and  C_13
    5  A    between atoms: C_3  and  C_4
    6  A    between atoms: C_3  and  C_12
    7  A    between atoms: C_6  and  C_12
    8  A    between atoms: N_11  and  N_14
    9  A    between atoms: N_14  and  C_22
   10  A    between atoms: C_19  and  C_37
                            x       y       z     vdW  Elec       q    Type
                         _______ _______ _______ _____ _____    ______ ____

>  <TORSDO>
F 10

$$$$
=
 OpenBabel11062410093D

 43 49  0  0  1  0  0  0  0  0999 V2000
  155.8250  212.6980  156.1510 C   0  0  0  0  0  0  0  0  0  0  0  0
  158.9330  212.9340  152.1700 C   0  0  0  0  0  0  0  0  0  0  0  0
  160.5200  210.6810  152.3100 C   0  0  0  0  0  0  0  0  0  0  0  0
  156.9780  213.3790  154.1310 C   0  0  0  0  0  0  0  0  0  0  0  0
  156.6320  211.5590  156.2320 C   0  0  0  0  0  3  0  0  0  0  0  0
  154.7870  212.9470  157.1820 C   0  0  0  0  0  1  0  0  0  0  0  0
  157.7980  212.2260  154.2070 C   0  0  0  0  0  0  0  0  0  0  0  0
  155.9980  213.6070  155.1030 C   0  0  0  0  0  3  0  0  0  0  0  0
  157.6130  211.3230  155.2650 C   0  0  0  0  0  3  0  0  0  0  0  0
  159.5770  210.9070  153.2670 N   0  0  0  0  0  0  0  0  0  0  0  0
  158.7780  212.0060  153.2220 C   0  0  0  0  0  0  0  0  0  0  0  0
  158.1160  214.0700  152.1100 C   0  0  0  0  0  3  0  0  0  0  0  0
  159.9130  212.6880  151.2010 C   0  0  0  0  0  0  0  0  0  0  0  0
  160.6810  211.5690  151.2950 N   0  0  0  0  0  0  0  0  0  0  0  0
  157.1420  214.2910  153.0870 C   0  0  0  0  0  3  0  0  0  0  0  0
  161.3940  209.4720  152.3740 C   0  0  1  0  0  3  0  0  0  0  0  0
  161.5540  209.0230  153.8170 C   0  0  0  0  0  1  0  0  0  0  0  0
  160.8160  208.3490  151.5240 C   0  0  0  0  0  2  0  0  0  0  0  0
  161.7570  207.9510  150.4340 C   0  0  0  0  0  0  0  0  0  0  0  0
  162.2000  208.7920  149.6660 O   0  0  0  0  0  0  0  0  0  0  0  0
  162.1530  206.5190  150.2880 C   0  0  0  0  0  2  0  0  0  0  0  0
  160.9330  205.6000  150.3980 C   0  0  2  0  0  3  0  0  0  0  0  0
  161.2900  202.8160  150.4740 C   0  0  0  0  0  2  0  0  0  0  0  0
  160.8890  204.9140  151.6340 O   0  0  0  0  0  0  0  0  0  0  0  0
  160.7160  204.6540  149.1890 C   0  0  2  0  0  3  0  0  0  0  0  0
  160.3050  203.3710  149.6200 O   0  0  0  0  0  0  0  0  0  0  0  0
  161.7500  203.8000  151.5630 C   0  0  0  0  0  2  0  0  0  0  0  0
  161.8880  204.5640  148.3140 N   0  0  0  0  0  2  0  0  0  0  0  0
  161.4710  204.8670  147.0100 N   0  0  0  0  0  0  0  0  0  0  0  0
  160.6790  203.6000  145.0760 C   0  0  0  0  0  2  0  0  0  0  0  0
  160.6060  206.0850  145.3530 C   0  0  0  0  0  3  0  0  0  0  0  0
  161.2940  204.9300  144.6730 C   0  0  1  0  0  3  0  0  0  0  0  0
  160.7440  206.0270  146.6640 C   0  0  0  0  0  3  0  0  0  0  0  0
  161.8870  204.1270  145.8310 C   0  0  1  0  0  3  0  0  0  0  0  0
  160.1000  213.5890  150.1470 O   0  0  0  0  0  0  0  0  0  0  0  0
  162.5520  214.2640  147.4000 C   0  0  0  0  0  3  0  0  0  0  0  0
  161.8970  213.6900  146.3850 C   0  0  0  0  0  0  0  0  0  0  0  0
  160.0470  213.0070  147.8250 C   0  0  0  0  0  3  0  0  0  0  0  0
  161.8770  214.4520  148.7310 C   0  0  0  0  0  2  0  0  0  0  0  0
  160.9150  213.2900  149.0210 C   0  0  1  0  0  3  0  0  0  0  0  0
  160.5330  213.1610  146.5890 C   0  0  0  0  0  3  0  0  0  0  0  0
  161.7060  212.9020  144.1700 O   0  0  0  0  0  1  0  0  0  0  0  0
  162.5400  213.5970  145.0450 C   0  0  0  0  0  2  0  0  0  0  0  0
  1  5  1  0  0  0  0
  1  6  1  0  0  0  0
  2 11  1  0  0  0  0
  3 16  1  0  0  0  0
  3 10  2  0  0  0  0
  4  7  1  0  0  0  0
  4  8  1  0  0  0  0
  7  9  1  0  0  0  0
  8  1  2  0  0  0  0
  9  5  2  0  0  0  0
 11 10  1  0  0  0  0
 11  7  2  0  0  0  0
 12  2  2  0  0  0  0
 12 15  1  0  0  0  0
 13 14  2  0  0  0  0
 13  2  1  0  0  0  0
 14  3  1  0  0  0  0
 15  4  2  0  0  0  0
 16 17  1  1  0  0  0
 18 16  1  0  0  0  0
 19 18  1  0  0  0  0
 20 19  2  0  0  0  0
 21 19  1  0  0  0  0
 22 21  1  6  0  0  0
 22 24  1  0  0  0  0
 23 27  1  0  0  0  0
 25 28  1  1  0  0  0
 25 26  1  0  0  0  0
 25 22  1  0  0  0  0
 26 23  1  0  0  0  0
 27 24  1  0  0  0  0
 29 28  1  0  0  0  0
 31 33  2  0  0  0  0
 32 30  1  1  0  0  0
 32 31  1  0  0  0  0
 32 34  1  0  0  0  0
 33 29  1  0  0  0  0
 34 30  1  1  0  0  0
 34 29  1  0  0  0  0
 35 13  1  0  0  0  0
 36 39  1  0  0  0  0
 37 41  1  0  0  0  0
 37 36  2  0  0  0  0
 38 40  1  0  0  0  0
 39 40  1  0  0  0  0
 40 35  1  1  0  0  0
 41 38  2  0  0  0  0
 42 43  1  0  0  0  0
 43 37  1  0  0  0  0
M  END
>  <MODEL>
9

>  <REMARK>
 VINA RESULT:      -7.2      2.372      8.317
  Name = 
  10 active torsions:
  status: ('A' for Active; 'I' for Inactive)
    1  A    between atoms: O_1  and  C_34
    2  A    between atoms: O_1  and  C_35
    3  A    between atoms: C_2  and  C_6
    4  A    between atoms: C_2  and  C_13
    5  A    between atoms: C_3  and  C_4
    6  A    between atoms: C_3  and  C_12
    7  A    between atoms: C_6  and  C_12
    8  A    between atoms: N_11  and  N_14
    9  A    between atoms: N_14  and  C_22
   10  A    between atoms: C_19  and  C_37
                            x       y       z     vdW  Elec       q    Type
                         _______ _______ _______ _____ _____    ______ ____

>  <TORSDO>
F 10

$$$$
