=
 OpenBabel11062410403D

 32 37  0  0  1  0  0  0  0  0999 V2000
  158.6480  212.5850  147.5890 N   0  0  0  0  0  0  0  0  0  0  0  0
  162.1610  212.4690  146.4630 C   0  0  0  0  0  2  0  0  0  0  0  0
  160.1880  212.0810  151.5000 C   0  0  0  0  0  3  0  0  0  0  0  0
  162.3490  206.6520  150.6490 C   0  0  0  0  0  2  0  0  0  0  0  0
  161.2900  206.4050  151.7300 C   0  0  0  0  0  2  0  0  0  0  0  0
  161.2160  213.2140  149.3890 C   0  0  0  0  0  0  0  0  0  0  0  0
  162.3700  211.0200  149.5950 N   0  0  0  0  0  0  0  0  0  0  0  0
  159.7070  211.9200  146.8330 C   0  0  0  0  0  2  0  0  0  0  0  0
  162.9450  212.6070  147.7740 C   0  0  0  0  0  2  0  0  0  0  0  0
  162.2120  208.0340  150.0230 C   0  0  0  0  0  2  0  0  0  0  0  0
  161.8340  210.4350  150.6190 C   0  0  0  0  0  0  0  0  0  0  0  0
  162.2760  209.1020  151.1230 C   0  0  1  0  0  3  0  0  0  0  0  0
  160.6550  209.9460  152.5270 N   0  0  0  0  0  0  0  0  0  0  0  0
  158.8730  213.9780  147.5440 N   0  0  0  0  0  2  0  0  0  0  0  0
  160.2840  214.1890  147.2490 C   0  0  1  0  0  3  0  0  0  0  0  0
  157.4020  212.3350  146.8870 C   0  0  0  0  0  1  0  0  0  0  0  0
  162.1240  212.2960  148.9890 C   0  0  0  0  0  0  0  0  0  0  0  0
  161.0490  214.4530  148.5560 C   0  0  0  0  0  2  0  0  0  0  0  0
  160.7040  212.9740  146.4400 C   0  0  1  0  0  3  0  0  0  0  0  0
  160.5240  207.6760  152.1000 C   0  0  0  0  0  2  0  0  0  0  0  0
  161.4450  208.7960  152.3270 N   0  0  1  0  0  0  0  0  0  0  0  0
  160.3450  213.1010  150.5190 N   0  0  0  0  0  0  0  0  0  0  0  0
  160.8470  210.9320  151.5270 C   0  0  2  0  0  3  0  0  0  0  0  0
  159.9640  210.1930  153.7900 C   0  0  0  0  0  2  0  0  0  0  0  0
  161.9050  210.7350  155.1740 C   0  0  0  0  0  3  0  0  0  0  0  0
  162.8380  210.4640  156.2820 C   0  0  0  0  0  0  0  0  0  0  0  0
  160.6800  208.7160  155.7910 C   0  0  0  0  0  0  0  0  0  0  0  0
  161.6170  208.4470  156.8950 C   0  0  0  0  0  3  0  0  0  0  0  0
  162.6400  209.2740  157.1290 C   0  0  0  0  0  3  0  0  0  0  0  0
  163.8010  211.2430  156.5020 O   0  0  0  0  0  0  0  0  0  0  0  0
  159.7200  207.9270  155.5800 O   0  0  0  0  0  0  0  0  0  0  0  0
  160.8750  209.9140  154.9390 C   0  0  0  0  0  0  0  0  0  0  0  0
  2  9  1  0  0  0  0
  4  5  1  0  0  0  0
  5 20  1  0  0  0  0
  6 22  1  0  0  0  0
  7 11  2  0  0  0  0
  8  1  1  0  0  0  0
  9 17  1  0  0  0  0
 10  4  1  0  0  0  0
 11 12  1  0  0  0  0
 11 23  1  0  0  0  0
 12 10  1  6  0  0  0
 12 21  1  0  0  0  0
 13 24  1  0  0  0  0
 14  1  1  0  0  0  0
 15 14  1  0  0  0  0
 15 18  1  1  0  0  0
 16  1  1  0  0  0  0
 17  6  2  0  0  0  0
 17  7  1  0  0  0  0
 18  6  1  0  0  0  0
 19  2  1  1  0  0  0
 19  8  1  0  0  0  0
 19 15  1  0  0  0  0
 21 20  1  6  0  0  0
 21 13  1  0  0  0  0
 22  3  2  0  0  0  0
 23  3  1  6  0  0  0
 23 13  1  0  0  0  0
 24 32  1  0  0  0  0
 25 26  1  0  0  0  0
 26 30  2  0  0  0  0
 26 29  1  0  0  0  0
 27 28  1  0  0  0  0
 28 29  2  0  0  0  0
 31 27  2  0  0  0  0
 32 25  2  0  0  0  0
 32 27  1  0  0  0  0
M  END
>  <MODEL>
1

>  <REMARK>
 VINA RESULT:      -6.1      0.000      0.000
  Name = 
  2 active torsions:
  status: ('A' for Active; 'I' for Inactive)
    1  A    between atoms: N_16  and  C_27
    2  A    between atoms: C_27  and  C_32
                            x       y       z     vdW  Elec       q    Type
                         _______ _______ _______ _____ _____    ______ ____

>  <TORSDO>
F 2

$$$$
