=
 OpenBabel11062408373D

 55 62  0  0  1  0  0  0  0  0999 V2000
  162.6710  210.4730  149.9480 O   0  0  0  0  0  0  0  0  0  0  0  0
  158.9820  211.4970  145.2420 C   0  0  0  0  0  2  0  0  0  0  0  0
  159.8480  208.2980  145.8690 O   0  0  0  0  0  0  0  0  0  0  0  0
  162.1160  206.3760  146.5880 C   0  0  0  0  0  3  0  0  0  0  0  0
  162.3640  204.9570  146.2760 C   0  0  0  0  0  3  0  0  0  0  0  0
  161.6790  205.7630  148.9060 C   0  0  0  0  0  0  0  0  0  0  0  0
  161.7670  204.2900  148.6080 C   0  0  0  0  0  3  0  0  0  0  0  0
  161.6720  209.1970  147.1290 C   0  0  0  0  0  2  0  0  0  0  0  0
  162.2220  204.0030  147.2020 C   0  0  0  0  0  3  0  0  0  0  0  0
  164.3720  212.0470  149.2510 C   0  0  0  0  0  3  0  0  0  0  0  0
  161.7830  206.7650  147.8240 C   0  0  1  0  0  3  0  0  0  0  0  0
  162.4270  213.6540  148.0430 C   0  0  0  0  0  0  0  0  0  0  0  0
  161.3400  209.9690  149.9230 C   0  0  0  0  0  2  0  0  0  0  0  0
  162.0570  212.4790  148.7070 C   0  0  0  0  0  3  0  0  0  0  0  0
  161.3180  207.5490  150.4900 C   0  0  0  0  0  0  0  0  0  0  0  0
  159.8560  212.0950  146.1260 C   0  0  1  0  0  3  0  0  0  0  0  0
  161.4590  206.1590  150.1220 N   0  0  0  0  0  0  0  0  0  0  0  0
  159.8880  210.6080  146.0210 N   0  0  0  0  0  0  0  0  0  0  0  0
  160.4060  209.3200  146.3420 C   0  0  0  0  0  0  0  0  0  0  0  0
  164.7470  213.2250  148.5880 C   0  0  0  0  0  3  0  0  0  0  0  0
  161.1560  212.6640  145.5250 C   0  0  2  0  0  3  0  0  0  0  0  0
  163.0230  211.6680  149.3130 C   0  0  0  0  0  0  0  0  0  0  0  0
  161.5740  208.1530  148.1560 N   0  0  0  0  0  0  0  0  0  0  0  0
  161.3620  208.5150  149.5400 C   0  0  0  0  0  0  0  0  0  0  0  0
  161.3510  214.1540  145.8420 C   0  0  0  0  0  2  0  0  0  0  0  0
  161.3800  214.4530  147.3390 C   0  0  0  0  0  2  0  0  0  0  0  0
  163.7770  214.0270  147.9780 C   0  0  0  0  0  3  0  0  0  0  0  0
  160.8070  209.1560  152.3410 C   0  0  0  0  0  3  0  0  0  0  0  0
  160.7740  208.4160  154.6530 C   0  0  0  0  0  0  0  0  0  0  0  0
  161.2790  206.8400  152.8720 C   0  0  0  0  0  3  0  0  0  0  0  0
  161.1030  207.1150  154.2340 C   0  0  0  0  0  3  0  0  0  0  0  0
  160.6260  209.4320  153.7020 C   0  0  0  0  0  3  0  0  0  0  0  0
  161.1490  207.8630  151.9220 C   0  0  0  0  0  0  0  0  0  0  0  0
  160.6240  208.7430  156.1080 C   0  0  0  0  0  3  0  0  0  0  0  0
  159.7410  209.9750  156.3090 C   0  0  0  0  0  1  0  0  0  0  0  0
  161.9840  208.9440  156.7800 C   0  0  0  0  0  1  0  0  0  0  0  0
  161.4670  212.3360  144.0570 C   0  0  0  0  0  2  0  0  0  0  0  0
  160.7080  213.2250  143.0670 C   0  0  0  0  0  2  0  0  0  0  0  0
  163.4590  213.6470  141.4090 F   0  0  0  0  0  0  0  0  0  0  0  0
  161.8850  211.8800  141.3330 C   0  0  1  0  0  3  0  0  0  0  0  0
  159.5010  211.6600  141.7020 O   0  0  0  0  0  1  0  0  0  0  0  0
  161.6500  213.8470  139.8940 C   0  0  1  0  0  3  0  0  0  0  0  0
  162.6830  212.9120  140.5310 C   0  0  1  0  0  0  0  0  0  0  0  0
  160.5650  212.5720  141.6880 C   0  0  1  0  0  0  0  0  0  0  0  0
  163.9650  213.2270  138.3380 C   0  0  1  0  0  3  0  0  0  0  0  0
  161.5110  213.6400  138.3790 C   0  0  1  0  0  3  0  0  0  0  0  0
  163.6110  212.2640  139.4930 C   0  0  0  0  0  2  0  0  0  0  0  0
  160.3230  213.6210  140.6070 C   0  0  0  0  0  2  0  0  0  0  0  0
  161.6380  210.7170  140.5760 O   0  0  0  0  0  1  0  0  0  0  0  0
  162.7950  213.8690  137.7000 N   0  0  0  0  0  2  0  0  0  0  0  0
  164.9740  214.2890  138.7760 C   0  0  0  0  0  2  0  0  0  0  0  0
  166.2730  213.8640  138.5080 O   0  0  0  0  0  1  0  0  0  0  0  0
  161.0250  212.3570  138.0780 O   0  0  0  0  0  0  0  0  0  0  0  0
  159.6650  212.5420  137.8270 C   0  0  0  0  0  2  0  0  0  0  0  0
  159.1820  211.4140  137.1470 O   0  0  0  0  0  1  0  0  0  0  0  0
  2 18  1  0  0  0  0
  3 19  2  0  0  0  0
  5  4  2  0  0  0  0
  5  9  1  0  0  0  0
  6 17  2  0  0  0  0
  7  6  1  0  0  0  0
  8 23  1  0  0  0  0
  9  7  2  0  0  0  0
 10 22  1  0  0  0  0
 11  4  1  1  0  0  0
 11 23  1  0  0  0  0
 11  6  1  0  0  0  0
 12 14  1  0  0  0  0
 13  1  1  0  0  0  0
 14 22  2  0  0  0  0
 15 33  1  0  0  0  0
 16  2  1  6  0  0  0
 17 15  1  0  0  0  0
 18 16  1  0  0  0  0
 18 19  1  0  0  0  0
 19  8  1  0  0  0  0
 20 10  2  0  0  0  0
 21 37  1  6  0  0  0
 21 25  1  0  0  0  0
 21 16  1  0  0  0  0
 22  1  1  0  0  0  0
 23 24  1  0  0  0  0
 24 13  1  0  0  0  0
 24 15  2  0  0  0  0
 25 26  1  0  0  0  0
 26 12  1  0  0  0  0
 27 12  2  0  0  0  0
 27 20  1  0  0  0  0
 28 32  1  0  0  0  0
 29 34  1  0  0  0  0
 30 31  2  0  0  0  0
 31 29  1  0  0  0  0
 32 29  2  0  0  0  0
 33 28  2  0  0  0  0
 33 30  1  0  0  0  0
 34 35  1  0  0  0  0
 34 36  1  0  0  0  0
 38 37  1  0  0  0  0
 40 49  1  6  0  0  0
 40 44  1  0  0  0  0
 42 43  1  0  0  0  0
 42 48  1  1  0  0  0
 43 40  1  0  0  0  0
 43 39  1  1  0  0  0
 44 41  1  1  0  0  0
 44 38  1  0  0  0  0
 45 51  1  1  0  0  0
 45 47  1  0  0  0  0
 46 53  1  1  0  0  0
 46 42  1  0  0  0  0
 47 43  1  0  0  0  0
 48 44  1  0  0  0  0
 50 45  1  0  0  0  0
 50 46  1  0  0  0  0
 52 51  1  0  0  0  0
 54 53  1  0  0  0  0
 55 54  1  0  0  0  0
M  END
>  <MODEL>
1

>  <REMARK>
 VINA RESULT:      10.7      0.000      0.000
  Name = 
  8 active torsions:
  status: ('A' for Active; 'I' for Inactive)
    1  A    between atoms: C_1  and  O_53
    2  A    between atoms: C_8  and  C_22
    3  A    between atoms: C_8  and  C_43
    4  A    between atoms: C_10  and  C_32
    5  A    between atoms: C_11  and  CA_29
    6  A    between atoms: C_20  and  C_22
    7  A    between atoms: C_30  and  O_53
    8  A    between atoms: C_33  and  C_52
                            x       y       z     vdW  Elec       q    Type
                         _______ _______ _______ _____ _____    ______ ____

>  <TORSDO>
F 8

$$$$
=
 OpenBabel11062408373D

 55 62  0  0  1  0  0  0  0  0999 V2000
  162.5780  210.6640  149.8200 O   0  0  0  0  0  0  0  0  0  0  0  0
  158.8820  211.3230  145.0540 C   0  0  0  0  0  2  0  0  0  0  0  0
  159.8150  208.1870  145.8740 O   0  0  0  0  0  0  0  0  0  0  0  0
  162.1220  206.3610  146.7120 C   0  0  0  0  0  3  0  0  0  0  0  0
  162.4010  204.9320  146.4860 C   0  0  0  0  0  3  0  0  0  0  0  0
  161.6900  205.8800  149.0610 C   0  0  0  0  0  0  0  0  0  0  0  0
  161.8110  204.3940  148.8530 C   0  0  0  0  0  3  0  0  0  0  0  0
  161.6160  209.2000  147.0810 C   0  0  0  0  0  2  0  0  0  0  0  0
  162.2770  204.0330  147.4680 C   0  0  0  0  0  3  0  0  0  0  0  0
  164.2470  212.2310  149.0320 C   0  0  0  0  0  3  0  0  0  0  0  0
  161.7760  206.8170  147.9210 C   0  0  1  0  0  3  0  0  0  0  0  0
  162.2710  213.7190  147.7260 C   0  0  0  0  0  0  0  0  0  0  0  0
  161.2580  210.1310  149.8230 C   0  0  0  0  0  2  0  0  0  0  0  0
  161.9250  212.5780  148.4590 C   0  0  0  0  0  3  0  0  0  0  0  0
  161.2870  207.7500  150.5340 C   0  0  0  0  0  0  0  0  0  0  0  0
  159.7410  211.9920  145.9010 C   0  0  1  0  0  3  0  0  0  0  0  0
  161.4580  206.3430  150.2510 N   0  0  0  0  0  0  0  0  0  0  0  0
  159.8040  210.5020  145.8870 N   0  0  0  0  0  0  0  0  0  0  0  0
  160.3500  209.2480  146.2850 C   0  0  0  0  0  0  0  0  0  0  0  0
  164.5980  213.3740  148.3000 C   0  0  0  0  0  3  0  0  0  0  0  0
  161.0300  212.5520  145.2690 C   0  0  2  0  0  3  0  0  0  0  0  0
  162.9060  211.8260  149.1140 C   0  0  0  0  0  0  0  0  0  0  0  0
  161.5360  208.2170  148.1690 N   0  0  0  0  0  0  0  0  0  0  0  0
  161.3120  208.6580  149.5280 C   0  0  0  0  0  0  0  0  0  0  0  0
  161.1920  214.0620  145.4970 C   0  0  0  0  0  2  0  0  0  0  0  0
  161.2100  214.4510  146.9730 C   0  0  0  0  0  2  0  0  0  0  0  0
  163.6130  214.1160  147.6410 C   0  0  0  0  0  3  0  0  0  0  0  0
  160.5670  209.3960  152.2790 C   0  0  0  0  0  3  0  0  0  0  0  0
  160.7180  208.8470  154.6390 C   0  0  0  0  0  0  0  0  0  0  0  0
  161.4280  207.2370  152.9620 C   0  0  0  0  0  3  0  0  0  0  0  0
  161.2450  207.5870  154.3050 C   0  0  0  0  0  3  0  0  0  0  0  0
  160.3790  209.7470  153.6220 C   0  0  0  0  0  3  0  0  0  0  0  0
  161.1060  208.1450  151.9450 C   0  0  0  0  0  0  0  0  0  0  0  0
  160.5550  209.2610  156.0700 C   0  0  0  0  0  3  0  0  0  0  0  0
  160.7870  210.7620  156.2420 C   0  0  0  0  0  1  0  0  0  0  0  0
  161.4840  208.4660  156.9930 C   0  0  0  0  0  1  0  0  0  0  0  0
  161.3530  212.1430  143.8240 C   0  0  0  0  0  2  0  0  0  0  0  0
  160.2090  212.4300  142.8470 C   0  0  0  0  0  2  0  0  0  0  0  0
  160.5130  210.1270  140.5900 F   0  0  0  0  0  0  0  0  0  0  0  0
  159.9640  212.4190  140.3690 C   0  0  1  0  0  3  0  0  0  0  0  0
  160.4780  214.4520  141.5810 O   0  0  0  0  0  1  0  0  0  0  0  0
  162.2920  211.6650  140.3150 C   0  0  1  0  0  3  0  0  0  0  0  0
  160.8690  211.2740  139.9050 C   0  0  1  0  0  0  0  0  0  0  0  0
  160.7000  213.0690  141.5450 C   0  0  1  0  0  0  0  0  0  0  0  0
  161.9950  210.2940  137.8250 C   0  0  1  0  0  3  0  0  0  0  0  0
  163.1690  212.0650  139.1200 C   0  0  1  0  0  3  0  0  0  0  0  0
  160.7440  210.9970  138.4000 C   0  0  0  0  0  2  0  0  0  0  0  0
  162.1860  212.7970  141.3270 C   0  0  0  0  0  2  0  0  0  0  0  0
  159.7550  213.3610  139.3430 O   0  0  0  0  0  1  0  0  0  0  0  0
  163.2730  210.9610  138.1540 N   0  0  0  0  0  2  0  0  0  0  0  0
  162.0510  208.8190  138.2300 C   0  0  0  0  0  2  0  0  0  0  0  0
  160.7730  208.3470  138.5190 O   0  0  0  0  0  1  0  0  0  0  0  0
  162.6800  213.2190  138.4870 O   0  0  0  0  0  0  0  0  0  0  0  0
  163.6950  213.6000  137.6080 C   0  0  0  0  0  2  0  0  0  0  0  0
  164.7390  214.1660  138.3550 O   0  0  0  0  0  1  0  0  0  0  0  0
  1 13  1  0  0  0  0
  2 18  1  0  0  0  0
  3 19  2  0  0  0  0
  5  4  2  0  0  0  0
  5  9  1  0  0  0  0
  6 17  2  0  0  0  0
  7  6  1  0  0  0  0
  8 23  1  0  0  0  0
  9  7  2  0  0  0  0
 10 22  1  0  0  0  0
 11  4  1  1  0  0  0
 11 23  1  0  0  0  0
 11  6  1  0  0  0  0
 12 14  1  0  0  0  0
 14 22  2  0  0  0  0
 15 33  1  0  0  0  0
 16  2  1  6  0  0  0
 17 15  1  0  0  0  0
 18 16  1  0  0  0  0
 18 19  1  0  0  0  0
 19  8  1  0  0  0  0
 20 10  2  0  0  0  0
 21 37  1  6  0  0  0
 21 25  1  0  0  0  0
 21 16  1  0  0  0  0
 22  1  1  0  0  0  0
 23 24  1  0  0  0  0
 24 13  1  0  0  0  0
 24 15  2  0  0  0  0
 25 26  1  0  0  0  0
 26 12  1  0  0  0  0
 27 12  2  0  0  0  0
 27 20  1  0  0  0  0
 28 32  1  0  0  0  0
 29 34  1  0  0  0  0
 30 31  2  0  0  0  0
 31 29  1  0  0  0  0
 32 29  2  0  0  0  0
 33 28  2  0  0  0  0
 33 30  1  0  0  0  0
 34 35  1  0  0  0  0
 34 36  1  0  0  0  0
 38 37  1  0  0  0  0
 40 49  1  6  0  0  0
 40 44  1  0  0  0  0
 42 48  1  1  0  0  0
 43 42  1  0  0  0  0
 43 40  1  0  0  0  0
 43 39  1  1  0  0  0
 44 41  1  1  0  0  0
 44 38  1  0  0  0  0
 45 50  1  0  0  0  0
 45 51  1  1  0  0  0
 45 47  1  0  0  0  0
 46 53  1  6  0  0  0
 46 42  1  0  0  0  0
 47 43  1  0  0  0  0
 48 44  1  0  0  0  0
 50 46  1  0  0  0  0
 51 52  1  0  0  0  0
 54 55  1  0  0  0  0
 54 53  1  0  0  0  0
M  END
>  <MODEL>
2

>  <REMARK>
 VINA RESULT:      11.3      1.377      2.213
  Name = 
  8 active torsions:
  status: ('A' for Active; 'I' for Inactive)
    1  A    between atoms: C_1  and  O_53
    2  A    between atoms: C_8  and  C_22
    3  A    between atoms: C_8  and  C_43
    4  A    between atoms: C_10  and  C_32
    5  A    between atoms: C_11  and  CA_29
    6  A    between atoms: C_20  and  C_22
    7  A    between atoms: C_30  and  O_53
    8  A    between atoms: C_33  and  C_52
                            x       y       z     vdW  Elec       q    Type
                         _______ _______ _______ _____ _____    ______ ____

>  <TORSDO>
F 8

$$$$
=
 OpenBabel11062408373D

 55 62  0  0  1  0  0  0  0  0999 V2000
  157.9320  212.0180  143.1810 O   0  0  0  0  0  0  0  0  0  0  0  0
  163.4830  214.2300  144.2250 C   0  0  0  0  0  2  0  0  0  0  0  0
  163.1450  212.0070  141.7110 O   0  0  0  0  0  0  0  0  0  0  0  0
  161.8960  209.3650  140.8090 C   0  0  0  0  0  3  0  0  0  0  0  0
  162.3270  208.3270  139.8550 C   0  0  0  0  0  3  0  0  0  0  0  0
  160.1380  210.0240  139.2560 C   0  0  0  0  0  0  0  0  0  0  0  0
  160.6340  209.0900  138.1850 C   0  0  0  0  0  2  0  0  0  0  0  0
  161.0890  211.3680  142.7540 C   0  0  0  0  0  2  0  0  0  0  0  0
  161.7410  208.1870  138.6620 C   0  0  0  0  0  3  0  0  0  0  0  0
  157.5410  211.3000  145.4600 C   0  0  0  0  0  3  0  0  0  0  0  0
  160.8700  210.1780  140.5300 C   0  0  0  0  0  0  0  0  0  0  0  0
  159.1440  213.3820  146.4180 C   0  0  0  0  0  0  0  0  0  0  0  0
  158.6110  212.8100  142.2130 C   0  0  0  0  0  2  0  0  0  0  0  0
  158.9270  213.2360  145.0430 C   0  0  0  0  0  3  0  0  0  0  0  0
  158.5600  211.6960  139.9910 C   0  0  0  0  0  0  0  0  0  0  0  0
  162.2190  214.0890  144.7590 C   0  0  1  0  0  3  0  0  0  0  0  0
  159.0810  210.7440  139.0370 N   0  0  0  0  0  0  0  0  0  0  0  0
  162.5710  213.2450  143.5810 N   0  0  0  0  0  0  0  0  0  0  0  0
  162.3020  212.2330  142.6150 C   0  0  0  0  0  0  0  0  0  0  0  0
  157.7540  211.4440  146.8380 C   0  0  0  0  0  3  0  0  0  0  0  0
  162.0970  213.1850  146.0010 C   0  0  2  0  0  3  0  0  0  0  0  0
  158.1280  212.1960  144.5540 C   0  0  0  0  0  0  0  0  0  0  0  0
  160.4110  211.1740  141.4660 N   0  0  0  0  0  0  0  0  0  0  0  0
  159.2070  211.9150  141.1630 C   0  0  0  0  0  0  0  0  0  0  0  0
  161.4610  213.9070  147.1980 C   0  0  0  0  0  2  0  0  0  0  0  0
  160.0660  214.4530  146.9000 C   0  0  0  0  0  2  0  0  0  0  0  0
  158.5600  212.4800  147.3190 C   0  0  0  0  0  3  0  0  0  0  0  0
  157.3020  213.7510  139.3040 C   0  0  0  0  0  3  0  0  0  0  0  0
  154.9040  213.6710  138.9360 C   0  0  0  0  0  0  0  0  0  0  0  0
  156.1040  211.6670  139.6080 C   0  0  0  0  0  3  0  0  0  0  0  0
  154.9060  212.3040  139.2640 C   0  0  0  0  0  3  0  0  0  0  0  0
  156.1060  214.3890  138.9560 C   0  0  0  0  0  3  0  0  0  0  0  0
  157.3040  212.3910  139.6470 C   0  0  0  0  0  0  0  0  0  0  0  0
  153.6280  214.3850  138.6070 C   0  0  0  0  0  3  0  0  0  0  0  0
  152.6960  214.4390  139.8190 C   0  0  0  0  0  1  0  0  0  0  0  0
  152.9170  213.7400  137.4140 C   0  0  0  0  0  1  0  0  0  0  0  0
  163.3270  212.3590  146.4070 C   0  0  0  0  0  2  0  0  0  0  0  0
  163.5720  212.3470  147.9190 C   0  0  0  0  0  2  0  0  0  0  0  0
  161.0650  213.4940  149.6200 F   0  0  0  0  0  0  0  0  0  0  0  0
  161.3520  211.4070  148.5400 C   0  0  1  0  0  3  0  0  0  0  0  0
  163.2280  209.9720  148.0030 O   0  0  0  0  0  1  0  0  0  0  0  0
  162.0540  211.7370  150.8620 C   0  0  1  0  0  3  0  0  0  0  0  0
  160.9850  212.1320  149.8390 C   0  0  1  0  0  0  0  0  0  0  0  0
  162.8650  211.1800  148.6150 C   0  0  1  0  0  0  0  0  0  0  0  0
  159.3830  212.0330  151.8330 C   0  0  1  0  0  3  0  0  0  0  0  0
  161.5270  210.7750  151.9360 C   0  0  1  0  0  3  0  0  0  0  0  0
  159.5630  211.8020  150.3150 C   0  0  0  0  0  2  0  0  0  0  0  0
  163.2210  211.1280  150.0980 C   0  0  0  0  0  2  0  0  0  0  0  0
  160.6780  210.1740  148.4280 O   0  0  0  0  0  1  0  0  0  0  0  0
  160.4070  211.3760  152.6740 N   0  0  0  0  0  2  0  0  0  0  0  0
  159.2980  213.5220  152.1730 C   0  0  0  0  0  2  0  0  0  0  0  0
  158.1670  213.7790  152.9440 O   0  0  0  0  0  1  0  0  0  0  0  0
  161.1370  209.5460  151.3780 O   0  0  0  0  0  0  0  0  0  0  0  0
  161.3210  208.6160  152.4020 C   0  0  0  0  0  2  0  0  0  0  0  0
  161.5640  207.3620  151.8230 O   0  0  0  0  0  1  0  0  0  0  0  0
  1 22  1  0  0  0  0
  3 19  2  0  0  0  0
  5  4  1  0  0  0  0
  6 11  1  0  0  0  0
  7  9  1  0  0  0  0
  7  6  1  0  0  0  0
  9  5  2  0  0  0  0
 10 20  1  0  0  0  0
 11  4  2  0  0  0  0
 11 23  1  0  0  0  0
 12 26  1  0  0  0  0
 12 27  1  0  0  0  0
 13  1  1  0  0  0  0
 14 12  2  0  0  0  0
 15 24  2  0  0  0  0
 16  2  1  1  0  0  0
 16 21  1  0  0  0  0
 17  6  2  0  0  0  0
 17 15  1  0  0  0  0
 18  2  1  0  0  0  0
 18 16  1  0  0  0  0
 19  8  1  0  0  0  0
 19 18  1  0  0  0  0
 20 27  2  0  0  0  0
 21 37  1  1  0  0  0
 21 25  1  0  0  0  0
 22 14  1  0  0  0  0
 22 10  2  0  0  0  0
 23  8  1  0  0  0  0
 24 23  1  0  0  0  0
 24 13  1  0  0  0  0
 26 25  1  0  0  0  0
 28 33  1  0  0  0  0
 29 32  1  0  0  0  0
 29 31  2  0  0  0  0
 30 33  2  0  0  0  0
 31 30  1  0  0  0  0
 32 28  2  0  0  0  0
 33 15  1  0  0  0  0
 34 29  1  0  0  0  0
 34 35  1  0  0  0  0
 36 34  1  0  0  0  0
 37 38  1  0  0  0  0
 38 44  1  0  0  0  0
 40 49  1  1  0  0  0
 40 44  1  0  0  0  0
 40 43  1  0  0  0  0
 42 48  1  6  0  0  0
 42 46  1  0  0  0  0
 43 39  1  6  0  0  0
 43 47  1  0  0  0  0
 43 42  1  0  0  0  0
 44 41  1  6  0  0  0
 44 48  1  0  0  0  0
 45 51  1  6  0  0  0
 45 50  1  0  0  0  0
 46 53  1  6  0  0  0
 46 50  1  0  0  0  0
 47 45  1  0  0  0  0
 51 52  1  0  0  0  0
 53 54  1  0  0  0  0
 55 54  1  0  0  0  0
M  END
>  <MODEL>
3

>  <REMARK>
 VINA RESULT:      12.5      3.626     11.046
  Name = 
  8 active torsions:
  status: ('A' for Active; 'I' for Inactive)
    1  A    between atoms: C_1  and  O_53
    2  A    between atoms: C_8  and  C_22
    3  A    between atoms: C_8  and  C_43
    4  A    between atoms: C_10  and  C_32
    5  A    between atoms: C_11  and  CA_29
    6  A    between atoms: C_20  and  C_22
    7  A    between atoms: C_30  and  O_53
    8  A    between atoms: C_33  and  C_52
                            x       y       z     vdW  Elec       q    Type
                         _______ _______ _______ _____ _____    ______ ____

>  <TORSDO>
F 8

$$$$
=
 OpenBabel11062408373D

 55 62  0  0  1  0  0  0  0  0999 V2000
  158.0130  212.0570  143.4770 O   0  0  0  0  0  0  0  0  0  0  0  0
  163.3930  214.4450  144.9460 C   0  0  0  0  0  2  0  0  0  0  0  0
  163.3060  212.2950  142.3480 O   0  0  0  0  0  0  0  0  0  0  0  0
  162.2250  209.6380  141.2870 C   0  0  0  0  0  3  0  0  0  0  0  0
  162.7570  208.6490  140.3330 C   0  0  0  0  0  3  0  0  0  0  0  0
  160.5440  210.2810  139.6440 C   0  0  0  0  0  0  0  0  0  0  0  0
  161.1440  209.4020  138.5800 C   0  0  0  0  0  2  0  0  0  0  0  0
  161.2150  211.5430  143.2360 C   0  0  0  0  0  2  0  0  0  0  0  0
  162.2540  208.5270  139.1000 C   0  0  0  0  0  3  0  0  0  0  0  0
  157.5070  211.2490  145.7030 C   0  0  0  0  0  3  0  0  0  0  0  0
  161.1860  210.4200  140.9680 C   0  0  0  0  0  0  0  0  0  0  0  0
  158.9610  213.3590  146.8270 C   0  0  0  0  0  0  0  0  0  0  0  0
  158.7200  212.9060  142.5800 C   0  0  0  0  0  2  0  0  0  0  0  0
  158.8380  213.2500  145.4370 C   0  0  0  0  0  3  0  0  0  0  0  0
  158.8550  211.8650  140.3270 C   0  0  0  0  0  0  0  0  0  0  0  0
  162.1050  214.2380  145.3930 C   0  0  1  0  0  3  0  0  0  0  0  0
  159.4740  210.9660  139.3800 N   0  0  0  0  0  0  0  0  0  0  0  0
  162.5640  213.4470  144.2150 N   0  0  0  0  0  0  0  0  0  0  0  0
  162.3980  212.4580  143.2030 C   0  0  0  0  0  0  0  0  0  0  0  0
  157.6270  211.3560  147.0960 C   0  0  0  0  0  3  0  0  0  0  0  0
  161.9400  213.2890  146.5960 C   0  0  2  0  0  3  0  0  0  0  0  0
  158.1140  212.1970  144.8650 C   0  0  0  0  0  0  0  0  0  0  0  0
  160.6290  211.3660  141.9020 N   0  0  0  0  0  0  0  0  0  0  0  0
  159.4180  212.0700  141.5440 C   0  0  0  0  0  0  0  0  0  0  0  0
  161.2000  213.9460  147.7700 C   0  0  0  0  0  2  0  0  0  0  0  0
  159.8060  214.4480  147.3990 C   0  0  0  0  0  2  0  0  0  0  0  0
  158.3580  212.4060  147.6600 C   0  0  0  0  0  3  0  0  0  0  0  0
  157.2270  213.7640  140.4590 C   0  0  0  0  0  3  0  0  0  0  0  0
  155.2240  213.7770  139.0890 C   0  0  0  0  0  0  0  0  0  0  0  0
  156.7870  211.9220  138.9490 C   0  0  0  0  0  3  0  0  0  0  0  0
  155.6000  212.5400  138.5390 C   0  0  0  0  0  3  0  0  0  0  0  0
  156.0420  214.3860  140.0480 C   0  0  0  0  0  3  0  0  0  0  0  0
  157.5960  212.5220  139.9230 C   0  0  0  0  0  0  0  0  0  0  0  0
  153.9360  214.4370  138.6980 C   0  0  0  0  0  3  0  0  0  0  0  0
  152.9010  214.3390  139.8200 C   0  0  0  0  0  1  0  0  0  0  0  0
  153.3750  213.8460  137.4010 C   0  0  0  0  0  1  0  0  0  0  0  0
  163.1740  212.4980  147.0550 C   0  0  0  0  0  2  0  0  0  0  0  0
  163.0670  212.0000  148.5000 C   0  0  0  0  0  2  0  0  0  0  0  0
  162.8580  211.1730  151.6250 F   0  0  0  0  0  0  0  0  0  0  0  0
  161.2360  211.0650  149.9040 C   0  0  1  0  0  3  0  0  0  0  0  0
  161.2700  210.7590  147.5020 O   0  0  0  0  0  1  0  0  0  0  0  0
  162.7530  209.1930  150.3330 C   0  0  1  0  0  3  0  0  0  0  0  0
  161.9640  210.3110  151.0210 C   0  0  1  0  0  0  0  0  0  0  0  0
  162.0780  210.8400  148.6440 C   0  0  1  0  0  0  0  0  0  0  0  0
  161.5970  208.5830  152.8740 C   0  0  1  0  0  3  0  0  0  0  0  0
  162.1550  207.8000  150.5780 C   0  0  1  0  0  3  0  0  0  0  0  0
  161.0040  209.7790  152.0950 C   0  0  0  0  0  2  0  0  0  0  0  0
  162.8090  209.5160  148.8460 C   0  0  0  0  0  2  0  0  0  0  0  0
  159.9300  210.5730  149.7140 O   0  0  0  0  0  1  0  0  0  0  0  0
  162.1140  207.4940  152.0160 N   0  0  0  0  0  2  0  0  0  0  0  0
  162.6740  209.0290  153.8640 C   0  0  0  0  0  2  0  0  0  0  0  0
  162.1630  209.9870  154.7360 O   0  0  0  0  0  1  0  0  0  0  0  0
  160.8710  207.6870  150.0210 O   0  0  0  0  0  0  0  0  0  0  0  0
  160.3450  206.5180  150.5720 C   0  0  0  0  0  2  0  0  0  0  0  0
  160.0870  205.6140  149.5310 O   0  0  0  0  0  1  0  0  0  0  0  0
  1 22  1  0  0  0  0
  3 19  2  0  0  0  0
  5  4  1  0  0  0  0
  6 11  1  0  0  0  0
  7  9  1  0  0  0  0
  7  6  1  0  0  0  0
  9  5  2  0  0  0  0
 10 20  1  0  0  0  0
 11  4  2  0  0  0  0
 11 23  1  0  0  0  0
 12 26  1  0  0  0  0
 12 27  1  0  0  0  0
 13  1  1  0  0  0  0
 14 12  2  0  0  0  0
 15 24  2  0  0  0  0
 16  2  1  1  0  0  0
 16 21  1  0  0  0  0
 17  6  2  0  0  0  0
 17 15  1  0  0  0  0
 18  2  1  0  0  0  0
 18 16  1  0  0  0  0
 19  8  1  0  0  0  0
 19 18  1  0  0  0  0
 20 27  2  0  0  0  0
 21 37  1  1  0  0  0
 21 25  1  0  0  0  0
 22 14  1  0  0  0  0
 22 10  2  0  0  0  0
 23  8  1  0  0  0  0
 24 23  1  0  0  0  0
 24 13  1  0  0  0  0
 26 25  1  0  0  0  0
 29 32  2  0  0  0  0
 30 33  1  0  0  0  0
 31 30  2  0  0  0  0
 31 29  1  0  0  0  0
 32 28  1  0  0  0  0
 33 15  1  0  0  0  0
 33 28  2  0  0  0  0
 34 29  1  0  0  0  0
 34 35  1  0  0  0  0
 36 34  1  0  0  0  0
 37 38  1  0  0  0  0
 38 44  1  0  0  0  0
 40 49  1  6  0  0  0
 40 43  1  0  0  0  0
 42 48  1  6  0  0  0
 42 46  1  0  0  0  0
 42 43  1  0  0  0  0
 43 39  1  1  0  0  0
 43 47  1  0  0  0  0
 44 41  1  6  0  0  0
 44 48  1  0  0  0  0
 44 40  1  0  0  0  0
 45 51  1  6  0  0  0
 46 53  1  1  0  0  0
 46 50  1  0  0  0  0
 47 45  1  0  0  0  0
 50 45  1  0  0  0  0
 51 52  1  0  0  0  0
 53 54  1  0  0  0  0
 55 54  1  0  0  0  0
M  END
>  <MODEL>
4

>  <REMARK>
 VINA RESULT:      13.3      3.311     11.044
  Name = 
  8 active torsions:
  status: ('A' for Active; 'I' for Inactive)
    1  A    between atoms: C_1  and  O_53
    2  A    between atoms: C_8  and  C_22
    3  A    between atoms: C_8  and  C_43
    4  A    between atoms: C_10  and  C_32
    5  A    between atoms: C_11  and  CA_29
    6  A    between atoms: C_20  and  C_22
    7  A    between atoms: C_30  and  O_53
    8  A    between atoms: C_33  and  C_52
                            x       y       z     vdW  Elec       q    Type
                         _______ _______ _______ _____ _____    ______ ____

>  <TORSDO>
F 8

$$$$
