=
 OpenBabel11062410103D

 43 48  0  0  1  0  0  0  0  0999 V2000
  158.8330  210.8580  156.2300 C   0  0  0  0  0  0  0  0  0  0  0  0
  161.2650  207.5870  153.2430 C   0  0  0  0  0  0  0  0  0  0  0  0
  161.9560  209.0570  150.8820 C   0  0  0  0  0  0  0  0  0  0  0  0
  159.9170  208.8880  155.3240 C   0  0  0  0  0  0  0  0  0  0  0  0
  159.0760  211.5450  155.0370 C   0  0  0  0  0  3  0  0  0  0  0  0
  158.2030  211.4780  157.2520 F   0  0  0  0  0  0  0  0  0  0  0  0
  160.1700  209.5800  154.1160 C   0  0  0  0  0  0  0  0  0  0  0  0
  159.2540  209.5330  156.3730 C   0  0  0  0  0  3  0  0  0  0  0  0
  159.7410  210.9100  153.9850 C   0  0  0  0  0  3  0  0  0  0  0  0
  161.1340  209.6000  151.7880 C   0  0  0  0  0  3  0  0  0  0  0  0
  160.8530  208.9250  153.0740 C   0  0  0  0  0  0  0  0  0  0  0  0
  160.9940  206.9140  154.4370 C   0  0  0  0  0  3  0  0  0  0  0  0
  161.9060  206.8450  152.1010 C   0  0  2  0  0  3  0  0  0  0  0  0
  162.7210  207.7970  151.2150 C   0  0  0  0  0  2  0  0  0  0  0  0
  160.3280  207.5630  155.4760 C   0  0  0  0  0  3  0  0  0  0  0  0
  162.1750  209.7250  149.5890 C   0  0  0  0  0  0  0  0  0  0  0  0
  162.2280  211.1580  149.5270 N   0  0  0  0  0  2  0  0  0  0  0  0
  162.3200  209.0300  148.5460 O   0  0  0  0  0  0  0  0  0  0  0  0
  162.1760  211.9840  148.3530 C   0  0  0  0  0  0  0  0  0  0  0  0
  163.5170  212.3410  147.4790 S   0  0  0  0  0  0  0  0  0  0  0  0
  160.8620  212.5090  147.8810 C   0  0  2  0  0  3  0  0  0  0  0  0
  161.0710  213.4490  146.6930 C   0  0  0  0  0  2  0  0  0  0  0  0
  158.8170  214.4200  147.3850 C   0  0  0  0  0  2  0  0  0  0  0  0
  160.2000  213.1880  148.9180 O   0  0  0  0  0  0  0  0  0  0  0  0
  159.7290  214.0230  146.2190 C   0  0  2  0  0  3  0  0  0  0  0  0
  158.8730  213.3690  148.4940 C   0  0  0  0  0  2  0  0  0  0  0  0
  159.0280  213.1350  145.1860 C   0  0  0  0  0  2  0  0  0  0  0  0
  158.6550  213.8790  143.9100 C   0  0  0  0  0  2  0  0  0  0  0  0
  158.9650  213.0570  142.7530 N   0  0  0  0  0  0  0  0  0  0  0  0
  160.1190  213.1750  140.5660 C   0  0  0  0  0  2  0  0  0  0  0  0
  160.6600  211.4510  141.9220 C   0  0  0  0  0  2  0  0  0  0  0  0
  159.9600  211.7860  140.7470 O   0  0  0  0  0  0  0  0  0  0  0  0
  160.0250  212.1260  143.1520 C   0  0  0  0  0  2  0  0  0  0  0  0
  159.4680  213.9630  141.7170 C   0  0  0  0  0  2  0  0  0  0  0  0
  160.9180  206.2200  151.3300 O   0  0  0  0  0  0  0  0  0  0  0  0
  160.2840  203.2300  150.6680 N   0  0  0  0  0  0  0  0  0  0  0  0
  162.1430  204.2180  151.6120 C   0  0  0  0  0  2  0  0  0  0  0  0
  160.5810  204.3960  149.8560 C   0  0  0  0  0  2  0  0  0  0  0  0
  161.5810  205.2100  150.6280 C   0  0  1  0  0  3  0  0  0  0  0  0
  161.4510  202.9510  151.4050 N   0  0  0  0  0  2  0  0  0  0  0  0
  160.0770  202.1180  149.7550 C   0  0  0  0  0  2  0  0  0  0  0  0
  160.9150  201.0620  147.6610 C   0  0  0  0  0  1  0  0  0  0  0  0
  160.8380  202.3500  148.4610 C   0  0  0  0  0  2  0  0  0  0  0  0
  1  8  1  0  0  0  0
  1  6  1  0  0  0  0
  2 12  1  0  0  0  0
  3 14  1  0  0  0  0
  3 10  2  0  0  0  0
  4 15  1  0  0  0  0
  4  8  2  0  0  0  0
  5  1  2  0  0  0  0
  7  4  1  0  0  0  0
  9  7  2  0  0  0  0
  9  5  1  0  0  0  0
 10 11  1  0  0  0  0
 11  2  2  0  0  0  0
 11  7  1  0  0  0  0
 12 15  2  0  0  0  0
 13 35  1  6  0  0  0
 13  2  1  0  0  0  0
 14 13  1  0  0  0  0
 16  3  1  0  0  0  0
 17 16  1  0  0  0  0
 18 16  2  0  0  0  0
 19 17  1  0  0  0  0
 20 19  2  0  0  0  0
 21 19  1  1  0  0  0
 21 24  1  0  0  0  0
 22 21  1  0  0  0  0
 23 26  1  0  0  0  0
 25 27  1  1  0  0  0
 25 22  1  0  0  0  0
 25 23  1  0  0  0  0
 26 24  1  0  0  0  0
 28 27  1  0  0  0  0
 29 33  1  0  0  0  0
 29 28  1  0  0  0  0
 30 32  1  0  0  0  0
 30 34  1  0  0  0  0
 31 33  1  0  0  0  0
 32 31  1  0  0  0  0
 34 29  1  0  0  0  0
 36 40  1  0  0  0  0
 38 39  1  0  0  0  0
 38 36  1  0  0  0  0
 39 35  1  1  0  0  0
 39 37  1  0  0  0  0
 40 37  1  0  0  0  0
 41 36  1  0  0  0  0
 42 43  1  0  0  0  0
 43 41  1  0  0  0  0
M  END
>  <MODEL>
1

>  <REMARK>
 VINA RESULT:      -7.7      0.000      0.000
  Name = 
  10 active torsions:
  status: ('A' for Active; 'I' for Inactive)
    1  A    between atoms: O_1  and  C_34
    2  A    between atoms: O_1  and  C_35
    3  A    between atoms: C_2  and  C_13
    4  A    between atoms: C_3  and  C_12
    5  A    between atoms: N_6  and  C_12
    6  A    between atoms: C_9  and  N_19
    7  A    between atoms: C_9  and  C_37
    8  A    between atoms: N_11  and  C_14
    9  A    between atoms: C_14  and  C_41
   10  A    between atoms: C_22  and  C_41
                            x       y       z     vdW  Elec       q    Type
                         _______ _______ _______ _____ _____    ______ ____

>  <TORSDO>
F 10

$$$$
=
 OpenBabel11062410103D

 43 48  0  0  1  0  0  0  0  0999 V2000
  160.5990  207.3360  155.1310 C   0  0  0  0  0  0  0  0  0  0  0  0
  161.7990  206.8560  150.2450 C   0  0  0  0  0  0  0  0  0  0  0  0
  162.0860  209.5270  149.2490 C   0  0  0  0  0  0  0  0  0  0  0  0
  161.1690  206.4570  152.9450 C   0  0  0  0  0  0  0  0  0  0  0  0
  160.6350  208.6370  154.6200 C   0  0  0  0  0  3  0  0  0  0  0  0
  160.3180  207.1280  156.4350 F   0  0  0  0  0  0  0  0  0  0  0  0
  161.2120  207.7730  152.4240 C   0  0  0  0  0  0  0  0  0  0  0  0
  160.8670  206.2490  154.2940 C   0  0  0  0  0  3  0  0  0  0  0  0
  160.9400  208.8550  153.2750 C   0  0  0  0  0  3  0  0  0  0  0  0
  161.5830  209.3230  150.4730 C   0  0  0  0  0  3  0  0  0  0  0  0
  161.5340  207.9700  151.0680 C   0  0  0  0  0  0  0  0  0  0  0  0
  161.7370  205.5630  150.7720 C   0  0  0  0  0  3  0  0  0  0  0  0
  162.0450  207.0480  148.7720 C   0  0  2  0  0  3  0  0  0  0  0  0
  162.7390  208.3890  148.5010 C   0  0  0  0  0  2  0  0  0  0  0  0
  161.4300  205.3640  152.1170 C   0  0  0  0  0  3  0  0  0  0  0  0
  162.0710  210.8770  148.6610 C   0  0  0  0  0  0  0  0  0  0  0  0
  160.9710  211.7600  148.9300 N   0  0  0  0  0  2  0  0  0  0  0  0
  163.0300  211.2480  147.9300 O   0  0  0  0  0  0  0  0  0  0  0  0
  160.6560  212.9900  148.2590 C   0  0  0  0  0  0  0  0  0  0  0  0
  160.9920  214.4530  148.9190 S   0  0  0  0  0  0  0  0  0  0  0  0
  160.0360  212.9500  146.9030 C   0  0  2  0  0  3  0  0  0  0  0  0
  160.9420  213.6530  145.8920 C   0  0  0  0  0  2  0  0  0  0  0  0
  158.7960  213.9430  144.5450 C   0  0  0  0  0  2  0  0  0  0  0  0
  158.7710  213.5620  146.9200 O   0  0  0  0  0  0  0  0  0  0  0  0
  160.2990  213.6480  144.4980 C   0  0  2  0  0  3  0  0  0  0  0  0
  158.1400  213.2080  145.7150 C   0  0  0  0  0  2  0  0  0  0  0  0
  160.6380  212.3950  143.6870 C   0  0  0  0  0  2  0  0  0  0  0  0
  161.8400  212.5800  142.7700 C   0  0  0  0  0  2  0  0  0  0  0  0
  161.4360  212.4060  141.3860 N   0  0  0  0  0  0  0  0  0  0  0  0
  161.8600  210.9500  139.4290 C   0  0  0  0  0  2  0  0  0  0  0  0
  159.7040  211.2970  140.0050 C   0  0  0  0  0  2  0  0  0  0  0  0
  160.6840  211.6280  139.0490 O   0  0  0  0  0  0  0  0  0  0  0  0
  160.0860  211.8330  141.3960 C   0  0  0  0  0  2  0  0  0  0  0  0
  162.3740  211.4490  140.7920 C   0  0  0  0  0  2  0  0  0  0  0  0
  160.8280  207.0030  148.0800 O   0  0  0  0  0  0  0  0  0  0  0  0
  161.5270  203.9730  147.7390 N   0  0  0  0  0  0  0  0  0  0  0  0
  162.5310  205.8710  146.8940 C   0  0  0  0  0  2  0  0  0  0  0  0
  160.4530  204.8160  147.2460 C   0  0  0  0  0  2  0  0  0  0  0  0
  161.0580  206.1670  146.9830 C   0  0  1  0  0  3  0  0  0  0  0  0
  162.7100  204.4440  147.1370 N   0  0  0  0  0  2  0  0  0  0  0  0
  161.2870  202.6350  147.2240 C   0  0  0  0  0  2  0  0  0  0  0  0
  160.9830  202.0170  149.6160 C   0  0  0  0  0  1  0  0  0  0  0  0
  160.4500  201.8350  148.2060 C   0  0  0  0  0  2  0  0  0  0  0  0
  1  6  1  0  0  0  0
  2 12  2  0  0  0  0
  2 11  1  0  0  0  0
  3 10  2  0  0  0  0
  4  8  1  0  0  0  0
  5  1  1  0  0  0  0
  7  4  1  0  0  0  0
  7  9  1  0  0  0  0
  8  1  2  0  0  0  0
  9  5  2  0  0  0  0
 10 11  1  0  0  0  0
 11  7  2  0  0  0  0
 12 15  1  0  0  0  0
 13 35  1  6  0  0  0
 13  2  1  0  0  0  0
 14 13  1  0  0  0  0
 14  3  1  0  0  0  0
 15  4  2  0  0  0  0
 16 17  1  0  0  0  0
 16  3  1  0  0  0  0
 18 16  2  0  0  0  0
 19 20  2  0  0  0  0
 19 17  1  0  0  0  0
 21 24  1  0  0  0  0
 21 19  1  1  0  0  0
 22 21  1  0  0  0  0
 23 26  1  0  0  0  0
 25 27  1  1  0  0  0
 25 23  1  0  0  0  0
 25 22  1  0  0  0  0
 26 24  1  0  0  0  0
 28 27  1  0  0  0  0
 29 33  1  0  0  0  0
 29 28  1  0  0  0  0
 30 34  1  0  0  0  0
 31 33  1  0  0  0  0
 32 30  1  0  0  0  0
 32 31  1  0  0  0  0
 34 29  1  0  0  0  0
 37 39  1  0  0  0  0
 37 40  1  0  0  0  0
 38 36  1  0  0  0  0
 39 38  1  0  0  0  0
 39 35  1  1  0  0  0
 40 36  1  0  0  0  0
 41 36  1  0  0  0  0
 41 43  1  0  0  0  0
 43 42  1  0  0  0  0
M  END
>  <MODEL>
2

>  <REMARK>
 VINA RESULT:      -7.6      2.082      3.013
  Name = 
  10 active torsions:
  status: ('A' for Active; 'I' for Inactive)
    1  A    between atoms: O_1  and  C_34
    2  A    between atoms: O_1  and  C_35
    3  A    between atoms: C_2  and  C_13
    4  A    between atoms: C_3  and  C_12
    5  A    between atoms: N_6  and  C_12
    6  A    between atoms: C_9  and  N_19
    7  A    between atoms: C_9  and  C_37
    8  A    between atoms: N_11  and  C_14
    9  A    between atoms: C_14  and  C_41
   10  A    between atoms: C_22  and  C_41
                            x       y       z     vdW  Elec       q    Type
                         _______ _______ _______ _____ _____    ______ ____

>  <TORSDO>
F 10

$$$$
=
 OpenBabel11062410103D

 43 48  0  0  1  0  0  0  0  0999 V2000
  161.5750  203.9260  148.1540 C   0  0  0  0  0  0  0  0  0  0  0  0
  161.1970  208.0880  150.9960 C   0  0  0  0  0  0  0  0  0  0  0  0
  161.7640  210.2820  149.2410 C   0  0  0  0  0  0  0  0  0  0  0  0
  161.2100  205.4790  149.9810 C   0  0  0  0  0  0  0  0  0  0  0  0
  161.9540  204.9860  147.3250 C   0  0  0  0  0  3  0  0  0  0  0  0
  161.5550  202.6640  147.6740 F   0  0  0  0  0  0  0  0  0  0  0  0
  161.5880  206.5560  149.1430 C   0  0  0  0  0  0  0  0  0  0  0  0
  161.2030  204.1730  149.4790 C   0  0  0  0  0  3  0  0  0  0  0  0
  161.9610  206.2940  147.8160 C   0  0  0  0  0  3  0  0  0  0  0  0
  161.9710  209.0260  148.8260 C   0  0  0  0  0  3  0  0  0  0  0  0
  161.5760  207.8670  149.6560 C   0  0  0  0  0  0  0  0  0  0  0  0
  160.8410  207.0120  151.8120 C   0  0  0  0  0  3  0  0  0  0  0  0
  161.2760  209.4730  151.5840 C   0  0  2  0  0  3  0  0  0  0  0  0
  160.9950  210.5390  150.5160 C   0  0  0  0  0  2  0  0  0  0  0  0
  160.8410  205.7130  151.3060 C   0  0  0  0  0  3  0  0  0  0  0  0
  162.2170  211.4150  148.4190 C   0  0  0  0  0  0  0  0  0  0  0  0
  161.2770  212.1120  147.5860 N   0  0  0  0  0  2  0  0  0  0  0  0
  163.4260  211.7690  148.4580 O   0  0  0  0  0  0  0  0  0  0  0  0
  161.5680  213.0550  146.5420 C   0  0  0  0  0  0  0  0  0  0  0  0
  162.3780  214.4510  146.8300 S   0  0  0  0  0  0  0  0  0  0  0  0
  161.1580  212.7490  145.1400 C   0  0  2  0  0  3  0  0  0  0  0  0
  161.9210  213.6470  144.1650 C   0  0  0  0  0  2  0  0  0  0  0  0
  159.9680  213.1750  142.5940 C   0  0  0  0  0  2  0  0  0  0  0  0
  159.7740  212.9330  144.9790 O   0  0  0  0  0  0  0  0  0  0  0  0
  161.4840  213.3650  142.7210 C   0  0  2  0  0  3  0  0  0  0  0  0
  159.4320  212.3350  143.7540 C   0  0  0  0  0  2  0  0  0  0  0  0
  162.2850  212.2400  142.0600 C   0  0  0  0  0  2  0  0  0  0  0  0
  162.4150  212.4010  140.5520 C   0  0  0  0  0  2  0  0  0  0  0  0
  162.2960  211.1060  139.9050 N   0  0  0  0  0  0  0  0  0  0  0  0
  160.5840  209.5120  139.0940 C   0  0  0  0  0  2  0  0  0  0  0  0
  162.2350  210.0670  137.6560 C   0  0  0  0  0  2  0  0  0  0  0  0
  161.7580  209.0300  138.4800 O   0  0  0  0  0  0  0  0  0  0  0  0
  162.6530  211.2890  138.4950 C   0  0  0  0  0  2  0  0  0  0  0  0
  160.8890  210.7110  140.0110 C   0  0  0  0  0  2  0  0  0  0  0  0
  162.5490  209.6810  152.1300 O   0  0  0  0  0  0  0  0  0  0  0  0
  160.9690  209.2750  154.7990 N   0  0  0  0  0  0  0  0  0  0  0  0
  160.9250  210.9850  153.2510 C   0  0  0  0  0  2  0  0  0  0  0  0
  162.3550  209.5780  154.4900 C   0  0  0  0  0  2  0  0  0  0  0  0
  162.3360  210.4600  153.2710 C   0  0  1  0  0  3  0  0  0  0  0  0
  160.2150  210.3850  154.3740 N   0  0  0  0  0  2  0  0  0  0  0  0
  160.8620  209.2120  156.2470 C   0  0  0  0  0  2  0  0  0  0  0  0
  160.0130  206.9500  155.6470 C   0  0  0  0  0  1  0  0  0  0  0  0
  160.7310  207.7690  156.7040 C   0  0  0  0  0  2  0  0  0  0  0  0
  1  8  1  0  0  0  0
  2 13  1  0  0  0  0
  2 12  1  0  0  0  0
  3 14  1  0  0  0  0
  4 15  1  0  0  0  0
  5  9  1  0  0  0  0
  5  1  2  0  0  0  0
  6  1  1  0  0  0  0
  7 11  1  0  0  0  0
  7  4  1  0  0  0  0
  8  4  2  0  0  0  0
  9  7  2  0  0  0  0
 10  3  2  0  0  0  0
 10 11  1  0  0  0  0
 11  2  2  0  0  0  0
 13 35  1  6  0  0  0
 14 13  1  0  0  0  0
 15 12  2  0  0  0  0
 16 18  2  0  0  0  0
 16  3  1  0  0  0  0
 17 16  1  0  0  0  0
 19 20  2  0  0  0  0
 19 17  1  0  0  0  0
 21 19  1  1  0  0  0
 22 21  1  0  0  0  0
 23 25  1  0  0  0  0
 23 26  1  0  0  0  0
 24 21  1  0  0  0  0
 25 27  1  1  0  0  0
 25 22  1  0  0  0  0
 26 24  1  0  0  0  0
 28 27  1  0  0  0  0
 29 34  1  0  0  0  0
 29 28  1  0  0  0  0
 30 34  1  0  0  0  0
 31 32  1  0  0  0  0
 31 33  1  0  0  0  0
 32 30  1  0  0  0  0
 33 29  1  0  0  0  0
 36 41  1  0  0  0  0
 37 39  1  0  0  0  0
 37 40  1  0  0  0  0
 38 36  1  0  0  0  0
 39 35  1  6  0  0  0
 39 38  1  0  0  0  0
 40 36  1  0  0  0  0
 41 43  1  0  0  0  0
 42 43  1  0  0  0  0
M  END
>  <MODEL>
3

>  <REMARK>
 VINA RESULT:      -6.6      3.336      6.045
  Name = 
  10 active torsions:
  status: ('A' for Active; 'I' for Inactive)
    1  A    between atoms: O_1  and  C_34
    2  A    between atoms: O_1  and  C_35
    3  A    between atoms: C_2  and  C_13
    4  A    between atoms: C_3  and  C_12
    5  A    between atoms: N_6  and  C_12
    6  A    between atoms: C_9  and  N_19
    7  A    between atoms: C_9  and  C_37
    8  A    between atoms: N_11  and  C_14
    9  A    between atoms: C_14  and  C_41
   10  A    between atoms: C_22  and  C_41
                            x       y       z     vdW  Elec       q    Type
                         _______ _______ _______ _____ _____    ______ ____

>  <TORSDO>
F 10

$$$$
=
 OpenBabel11062410103D

 43 48  0  0  1  0  0  0  0  0999 V2000
  160.8330  202.5590  146.9510 C   0  0  0  0  0  0  0  0  0  0  0  0
  162.3420  206.8100  149.2290 C   0  0  0  0  0  0  0  0  0  0  0  0
  161.6750  206.4880  151.9980 C   0  0  0  0  0  0  0  0  0  0  0  0
  161.7830  204.7380  147.4310 C   0  0  0  0  0  0  0  0  0  0  0  0
  160.4130  202.4460  148.2800 C   0  0  0  0  0  3  0  0  0  0  0  0
  160.5900  201.5590  146.0770 F   0  0  0  0  0  0  0  0  0  0  0  0
  161.3640  204.6250  148.7790 C   0  0  0  0  0  0  0  0  0  0  0  0
  161.5180  203.7030  146.5290 C   0  0  0  0  0  3  0  0  0  0  0  0
  160.6770  203.4720  149.1890 C   0  0  0  0  0  3  0  0  0  0  0  0
  161.2280  205.6040  151.0970 C   0  0  0  0  0  3  0  0  0  0  0  0
  161.6510  205.6670  149.6820 C   0  0  0  0  0  0  0  0  0  0  0  0
  162.7350  206.9110  147.8920 C   0  0  0  0  0  3  0  0  0  0  0  0
  162.5660  207.9730  150.1600 C   0  0  2  0  0  3  0  0  0  0  0  0
  162.7330  207.4940  151.6080 C   0  0  0  0  0  2  0  0  0  0  0  0
  162.4620  205.8770  146.9980 C   0  0  0  0  0  3  0  0  0  0  0  0
  161.1940  206.4330  153.3880 C   0  0  0  0  0  0  0  0  0  0  0  0
  160.6370  207.6090  153.9960 N   0  0  0  0  0  2  0  0  0  0  0  0
  161.2690  205.3510  154.0300 O   0  0  0  0  0  0  0  0  0  0  0  0
  160.3570  207.8210  155.3880 C   0  0  0  0  0  0  0  0  0  0  0  0
  159.4010  206.8050  156.2500 S   0  0  0  0  0  0  0  0  0  0  0  0
  160.9780  208.9790  156.0950 C   0  0  2  0  0  3  0  0  0  0  0  0
  160.8150  210.2500  155.2600 C   0  0  0  0  0  2  0  0  0  0  0  0
  162.8330  211.0770  156.5830 C   0  0  0  0  0  2  0  0  0  0  0  0
  162.3410  208.7360  156.3380 O   0  0  0  0  0  0  0  0  0  0  0  0
  161.4800  211.4420  155.9620 C   0  0  2  0  0  3  0  0  0  0  0  0
  162.7620  209.7090  157.2610 C   0  0  0  0  0  2  0  0  0  0  0  0
  160.5460  212.1590  156.9410 C   0  0  0  0  0  2  0  0  0  0  0  0
  159.9650  213.4500  156.3790 C   0  0  0  0  0  2  0  0  0  0  0  0
  158.5770  213.2430  156.0020 N   0  0  0  0  0  0  0  0  0  0  0  0
  156.6110  211.8600  156.5940 C   0  0  0  0  0  2  0  0  0  0  0  0
  156.2990  214.0930  156.4780 C   0  0  0  0  0  2  0  0  0  0  0  0
  156.0350  212.8810  155.8130 O   0  0  0  0  0  0  0  0  0  0  0  0
  157.8110  214.3800  156.5230 C   0  0  0  0  0  2  0  0  0  0  0  0
  158.1420  212.0100  156.6640 C   0  0  0  0  0  2  0  0  0  0  0  0
  161.4820  208.8570  150.0810 O   0  0  0  0  0  0  0  0  0  0  0  0
  160.1560  211.4890  151.1260 N   0  0  0  0  0  0  0  0  0  0  0  0
  161.7500  211.1320  149.4970 C   0  0  0  0  0  2  0  0  0  0  0  0
  161.1120  210.5550  151.6920 C   0  0  0  0  0  2  0  0  0  0  0  0
  161.9690  210.0800  150.5510 C   0  0  1  0  0  3  0  0  0  0  0  0
  160.7950  212.0980  150.0290 N   0  0  0  0  0  2  0  0  0  0  0  0
  159.9340  212.5250  152.1220 C   0  0  0  0  0  2  0  0  0  0  0  0
  157.7850  213.7290  152.4800 C   0  0  0  0  0  1  0  0  0  0  0  0
  158.9960  213.5880  151.5770 C   0  0  0  0  0  2  0  0  0  0  0  0
  1  5  1  0  0  0  0
  2 11  1  0  0  0  0
  2 13  1  0  0  0  0
  3 16  1  0  0  0  0
  4  7  1  0  0  0  0
  5  9  2  0  0  0  0
  6  1  1  0  0  0  0
  7  9  1  0  0  0  0
  7 11  2  0  0  0  0
  8  1  2  0  0  0  0
  8  4  1  0  0  0  0
 10  3  2  0  0  0  0
 11 10  1  0  0  0  0
 12  2  2  0  0  0  0
 13 35  1  1  0  0  0
 13 14  1  0  0  0  0
 14  3  1  0  0  0  0
 15  4  2  0  0  0  0
 15 12  1  0  0  0  0
 16 17  1  0  0  0  0
 16 18  2  0  0  0  0
 17 19  1  0  0  0  0
 19 20  2  0  0  0  0
 21 19  1  6  0  0  0
 21 24  1  0  0  0  0
 22 25  1  0  0  0  0
 22 21  1  0  0  0  0
 23 26  1  0  0  0  0
 24 26  1  0  0  0  0
 25 23  1  0  0  0  0
 25 27  1  1  0  0  0
 28 27  1  0  0  0  0
 29 28  1  0  0  0  0
 29 33  1  0  0  0  0
 29 34  1  0  0  0  0
 30 34  1  0  0  0  0
 31 33  1  0  0  0  0
 32 31  1  0  0  0  0
 32 30  1  0  0  0  0
 36 38  1  0  0  0  0
 36 41  1  0  0  0  0
 37 40  1  0  0  0  0
 37 39  1  0  0  0  0
 39 35  1  6  0  0  0
 39 38  1  0  0  0  0
 40 36  1  0  0  0  0
 43 41  1  0  0  0  0
 43 42  1  0  0  0  0
M  END
>  <MODEL>
4

>  <REMARK>
 VINA RESULT:      -6.6      4.953     10.006
  Name = 
  10 active torsions:
  status: ('A' for Active; 'I' for Inactive)
    1  A    between atoms: O_1  and  C_34
    2  A    between atoms: O_1  and  C_35
    3  A    between atoms: C_2  and  C_13
    4  A    between atoms: C_3  and  C_12
    5  A    between atoms: N_6  and  C_12
    6  A    between atoms: C_9  and  N_19
    7  A    between atoms: C_9  and  C_37
    8  A    between atoms: N_11  and  C_14
    9  A    between atoms: C_14  and  C_41
   10  A    between atoms: C_22  and  C_41
                            x       y       z     vdW  Elec       q    Type
                         _______ _______ _______ _____ _____    ______ ____

>  <TORSDO>
F 10

$$$$
=
 OpenBabel11062410103D

 43 48  0  0  1  0  0  0  0  0999 V2000
  160.8160  206.7260  154.8800 C   0  0  0  0  0  0  0  0  0  0  0  0
  161.7580  206.7060  149.9150 C   0  0  0  0  0  0  0  0  0  0  0  0
  161.8430  209.4610  149.1290 C   0  0  0  0  0  0  0  0  0  0  0  0
  161.3060  206.0580  152.6020 C   0  0  0  0  0  0  0  0  0  0  0  0
  160.7530  208.0630  154.4780 C   0  0  0  0  0  3  0  0  0  0  0  0
  160.6220  206.3990  156.1760 F   0  0  0  0  0  0  0  0  0  0  0  0
  161.2490  207.4110  152.1900 C   0  0  0  0  0  0  0  0  0  0  0  0
  161.0930  205.7260  153.9430 C   0  0  0  0  0  3  0  0  0  0  0  0
  160.9680  208.4050  153.1410 C   0  0  0  0  0  3  0  0  0  0  0  0
  161.4230  209.1310  150.3570 C   0  0  0  0  0  3  0  0  0  0  0  0
  161.4810  207.7340  150.8400 C   0  0  0  0  0  0  0  0  0  0  0  0
  161.7960  205.3740  150.3360 C   0  0  0  0  0  3  0  0  0  0  0  0
  161.9080  207.0280  148.4520 C   0  0  2  0  0  3  0  0  0  0  0  0
  162.5130  208.4250  148.2560 C   0  0  0  0  0  2  0  0  0  0  0  0
  161.5780  205.0520  151.6740 C   0  0  0  0  0  3  0  0  0  0  0  0
  161.7230  210.8490  148.6560 C   0  0  0  0  0  0  0  0  0  0  0  0
  161.6040  211.9180  149.6070 N   0  0  0  0  0  2  0  0  0  0  0  0
  161.7320  211.0880  147.4180 O   0  0  0  0  0  0  0  0  0  0  0  0
  161.2280  213.2800  149.3470 C   0  0  0  0  0  0  0  0  0  0  0  0
  162.2340  214.3330  148.5940 S   0  0  0  0  0  0  0  0  0  0  0  0
  159.8670  213.7530  149.7350 C   0  0  2  0  0  3  0  0  0  0  0  0
  159.3150  212.8880  150.8690 C   0  0  0  0  0  2  0  0  0  0  0  0
  157.0410  213.6820  150.0330 C   0  0  0  0  0  2  0  0  0  0  0  0
  158.9960  213.7120  148.6330 O   0  0  0  0  0  0  0  0  0  0  0  0
  157.9020  213.3440  151.2550 C   0  0  2  0  0  3  0  0  0  0  0  0
  157.8580  214.4520  148.9950 C   0  0  0  0  0  2  0  0  0  0  0  0
  157.8980  214.4500  152.3140 C   0  0  0  0  0  2  0  0  0  0  0  0
  156.8040  214.2750  153.3600 C   0  0  0  0  0  2  0  0  0  0  0  0
  157.1870  213.2390  154.3040 N   0  0  0  0  0  0  0  0  0  0  0  0
  158.1890  212.9620  156.5510 C   0  0  0  0  0  2  0  0  0  0  0  0
  156.2570  211.8640  156.1440 C   0  0  0  0  0  2  0  0  0  0  0  0
  157.6450  211.6860  156.3060 O   0  0  0  0  0  0  0  0  0  0  0  0
  155.9530  212.7140  154.8970 C   0  0  0  0  0  2  0  0  0  0  0  0
  157.9930  213.8920  155.3390 C   0  0  0  0  0  2  0  0  0  0  0  0
  160.6580  206.9680  147.8240 O   0  0  0  0  0  0  0  0  0  0  0  0
  161.6190  204.0420  147.2760 N   0  0  0  0  0  0  0  0  0  0  0  0
  162.3400  206.0640  146.4300 C   0  0  0  0  0  2  0  0  0  0  0  0
  160.4220  204.7870  146.9280 C   0  0  0  0  0  2  0  0  0  0  0  0
  160.8610  206.2020  146.6720 C   0  0  1  0  0  3  0  0  0  0  0  0
  162.6830  204.6550  146.5880 N   0  0  0  0  0  2  0  0  0  0  0  0
  161.4640  202.7060  146.7240 C   0  0  0  0  0  2  0  0  0  0  0  0
  161.3120  200.3260  147.4390 C   0  0  0  0  0  1  0  0  0  0  0  0
  160.9350  201.7560  147.7840 C   0  0  0  0  0  2  0  0  0  0  0  0
  1  6  1  0  0  0  0
  2 12  2  0  0  0  0
  2 11  1  0  0  0  0
  3 10  2  0  0  0  0
  4  8  1  0  0  0  0
  5  1  1  0  0  0  0
  7  4  1  0  0  0  0
  7  9  1  0  0  0  0
  8  1  2  0  0  0  0
  9  5  2  0  0  0  0
 10 11  1  0  0  0  0
 11  7  2  0  0  0  0
 12 15  1  0  0  0  0
 13 35  1  6  0  0  0
 13  2  1  0  0  0  0
 14 13  1  0  0  0  0
 14  3  1  0  0  0  0
 15  4  2  0  0  0  0
 16  3  1  0  0  0  0
 16 17  1  0  0  0  0
 18 16  2  0  0  0  0
 19 17  1  0  0  0  0
 20 19  2  0  0  0  0
 21 19  1  6  0  0  0
 21 22  1  0  0  0  0
 22 25  1  0  0  0  0
 23 25  1  0  0  0  0
 24 26  1  0  0  0  0
 24 21  1  0  0  0  0
 25 27  1  1  0  0  0
 26 23  1  0  0  0  0
 27 28  1  0  0  0  0
 28 29  1  0  0  0  0
 29 33  1  0  0  0  0
 29 34  1  0  0  0  0
 31 32  1  0  0  0  0
 32 30  1  0  0  0  0
 33 31  1  0  0  0  0
 34 30  1  0  0  0  0
 37 40  1  0  0  0  0
 37 39  1  0  0  0  0
 38 36  1  0  0  0  0
 39 38  1  0  0  0  0
 39 35  1  1  0  0  0
 40 36  1  0  0  0  0
 41 36  1  0  0  0  0
 41 43  1  0  0  0  0
 42 43  1  0  0  0  0
M  END
>  <MODEL>
5

>  <REMARK>
 VINA RESULT:      -6.5      3.513      6.448
  Name = 
  10 active torsions:
  status: ('A' for Active; 'I' for Inactive)
    1  A    between atoms: O_1  and  C_34
    2  A    between atoms: O_1  and  C_35
    3  A    between atoms: C_2  and  C_13
    4  A    between atoms: C_3  and  C_12
    5  A    between atoms: N_6  and  C_12
    6  A    between atoms: C_9  and  N_19
    7  A    between atoms: C_9  and  C_37
    8  A    between atoms: N_11  and  C_14
    9  A    between atoms: C_14  and  C_41
   10  A    between atoms: C_22  and  C_41
                            x       y       z     vdW  Elec       q    Type
                         _______ _______ _______ _____ _____    ______ ____

>  <TORSDO>
F 10

$$$$
=
 OpenBabel11062410103D

 43 48  0  0  1  0  0  0  0  0999 V2000
  160.6050  203.1080  149.1210 C   0  0  0  0  0  0  0  0  0  0  0  0
  162.1390  207.8770  149.7910 C   0  0  0  0  0  0  0  0  0  0  0  0
  161.7200  208.4460  152.5680 C   0  0  0  0  0  0  0  0  0  0  0  0
  161.5090  205.3350  148.8000 C   0  0  0  0  0  0  0  0  0  0  0  0
  160.3030  203.4200  150.4500 C   0  0  0  0  0  3  0  0  0  0  0  0
  160.3280  201.8800  148.6340 F   0  0  0  0  0  0  0  0  0  0  0  0
  161.2100  205.6540  150.1460 C   0  0  0  0  0  0  0  0  0  0  0  0
  161.2080  204.0650  148.2980 C   0  0  0  0  0  3  0  0  0  0  0  0
  160.6030  204.6850  150.9610 C   0  0  0  0  0  3  0  0  0  0  0  0
  161.2330  207.3170  152.0380 C   0  0  0  0  0  3  0  0  0  0  0  0
  161.5330  206.9310  150.6430 C   0  0  0  0  0  0  0  0  0  0  0  0
  162.4140  207.5500  148.4610 C   0  0  0  0  0  3  0  0  0  0  0  0
  162.3970  209.2770  150.2820 C   0  0  2  0  0  3  0  0  0  0  0  0
  162.7030  209.2850  151.7850 C   0  0  0  0  0  2  0  0  0  0  0  0
  162.1070  206.2830  147.9680 C   0  0  0  0  0  3  0  0  0  0  0  0
  161.3600  208.8320  153.9420 C   0  0  0  0  0  0  0  0  0  0  0  0
  161.7060  210.1370  154.4300 N   0  0  0  0  0  2  0  0  0  0  0  0
  160.7440  208.0140  154.6770 O   0  0  0  0  0  0  0  0  0  0  0  0
  161.6710  210.5990  155.7890 C   0  0  0  0  0  0  0  0  0  0  0  0
  162.6350  209.9590  156.9520 S   0  0  0  0  0  0  0  0  0  0  0  0
  160.7600  211.7200  156.1620 C   0  0  2  0  0  3  0  0  0  0  0  0
  159.9360  212.1500  154.9480 C   0  0  0  0  0  2  0  0  0  0  0  0
  159.7180  214.3650  156.1930 C   0  0  0  0  0  2  0  0  0  0  0  0
  161.4960  212.8120  156.6530 O   0  0  0  0  0  0  0  0  0  0  0  0
  159.0190  213.3260  155.3090 C   0  0  2  0  0  3  0  0  0  0  0  0
  160.5700  213.6770  157.2600 C   0  0  0  0  0  2  0  0  0  0  0  0
  157.6650  212.8800  155.8680 C   0  0  0  0  0  2  0  0  0  0  0  0
  156.9980  211.7960  155.0310 C   0  0  0  0  0  2  0  0  0  0  0  0
  156.0420  212.3980  154.1170 N   0  0  0  0  0  0  0  0  0  0  0  0
  154.4220  214.2660  153.9860 C   0  0  0  0  0  2  0  0  0  0  0  0
  155.9020  214.0680  152.2920 C   0  0  0  0  0  2  0  0  0  0  0  0
  154.5490  213.8840  152.6360 O   0  0  0  0  0  0  0  0  0  0  0  0
  156.8100  213.1220  153.0990 C   0  0  0  0  0  2  0  0  0  0  0  0
  155.2490  213.3460  154.9050 C   0  0  0  0  0  2  0  0  0  0  0  0
  161.2780  210.0800  150.0270 O   0  0  0  0  0  0  0  0  0  0  0  0
  160.3710  212.3160  148.0380 N   0  0  0  0  0  0  0  0  0  0  0  0
  162.3810  211.2070  148.2660 C   0  0  0  0  0  2  0  0  0  0  0  0
  160.6660  212.2980  149.4590 C   0  0  0  0  0  2  0  0  0  0  0  0
  161.7940  211.3220  149.6480 C   0  0  1  0  0  3  0  0  0  0  0  0
  161.5840  212.0450  147.3770 N   0  0  0  0  0  2  0  0  0  0  0  0
  159.9950  213.6800  147.7000 C   0  0  0  0  0  2  0  0  0  0  0  0
  157.5160  213.8940  147.6130 C   0  0  0  0  0  1  0  0  0  0  0  0
  158.7520  214.0900  148.4720 C   0  0  0  0  0  2  0  0  0  0  0  0
  1  5  1  0  0  0  0
  2 13  1  0  0  0  0
  2 11  1  0  0  0  0
  3 16  1  0  0  0  0
  4  7  1  0  0  0  0
  5  9  2  0  0  0  0
  6  1  1  0  0  0  0
  7 11  2  0  0  0  0
  7  9  1  0  0  0  0
  8  4  1  0  0  0  0
  8  1  2  0  0  0  0
 10  3  2  0  0  0  0
 11 10  1  0  0  0  0
 12  2  2  0  0  0  0
 13 35  1  1  0  0  0
 13 14  1  0  0  0  0
 14  3  1  0  0  0  0
 15 12  1  0  0  0  0
 15  4  2  0  0  0  0
 16 17  1  0  0  0  0
 16 18  2  0  0  0  0
 17 19  1  0  0  0  0
 19 20  2  0  0  0  0
 21 19  1  6  0  0  0
 21 24  1  0  0  0  0
 22 25  1  0  0  0  0
 22 21  1  0  0  0  0
 23 26  1  0  0  0  0
 24 26  1  0  0  0  0
 25 27  1  1  0  0  0
 25 23  1  0  0  0  0
 28 27  1  0  0  0  0
 29 34  1  0  0  0  0
 29 28  1  0  0  0  0
 30 34  1  0  0  0  0
 31 32  1  0  0  0  0
 31 33  1  0  0  0  0
 32 30  1  0  0  0  0
 33 29  1  0  0  0  0
 36 38  1  0  0  0  0
 37 39  1  0  0  0  0
 38 39  1  0  0  0  0
 39 35  1  6  0  0  0
 40 36  1  0  0  0  0
 40 37  1  0  0  0  0
 41 36  1  0  0  0  0
 41 43  1  0  0  0  0
 42 43  1  0  0  0  0
M  END
>  <MODEL>
6

>  <REMARK>
 VINA RESULT:      -6.3      4.267      8.988
  Name = 
  10 active torsions:
  status: ('A' for Active; 'I' for Inactive)
    1  A    between atoms: O_1  and  C_34
    2  A    between atoms: O_1  and  C_35
    3  A    between atoms: C_2  and  C_13
    4  A    between atoms: C_3  and  C_12
    5  A    between atoms: N_6  and  C_12
    6  A    between atoms: C_9  and  N_19
    7  A    between atoms: C_9  and  C_37
    8  A    between atoms: N_11  and  C_14
    9  A    between atoms: C_14  and  C_41
   10  A    between atoms: C_22  and  C_41
                            x       y       z     vdW  Elec       q    Type
                         _______ _______ _______ _____ _____    ______ ____

>  <TORSDO>
F 10

$$$$
=
 OpenBabel11062410103D

 43 48  0  0  1  0  0  0  0  0999 V2000
  161.1170  201.7720  146.9220 C   0  0  0  0  0  0  0  0  0  0  0  0
  160.9390  205.4000  150.4360 C   0  0  0  0  0  0  0  0  0  0  0  0
  161.6400  207.8280  149.0830 C   0  0  0  0  0  0  0  0  0  0  0  0
  160.8200  203.0060  148.9870 C   0  0  0  0  0  0  0  0  0  0  0  0
  161.5610  202.9360  146.2870 C   0  0  0  0  0  3  0  0  0  0  0  0
  161.0330  200.6140  146.2320 F   0  0  0  0  0  0  0  0  0  0  0  0
  161.2630  204.1890  148.3480 C   0  0  0  0  0  0  0  0  0  0  0  0
  160.7460  201.8090  148.2700 C   0  0  0  0  0  3  0  0  0  0  0  0
  161.6330  204.1380  146.9950 C   0  0  0  0  0  3  0  0  0  0  0  0
  161.7820  206.6520  148.4590 C   0  0  0  0  0  3  0  0  0  0  0  0
  161.3170  205.3920  149.0770 C   0  0  0  0  0  0  0  0  0  0  0  0
  160.5170  204.2210  151.0550 C   0  0  0  0  0  3  0  0  0  0  0  0
  161.0880  206.6570  151.2520 C   0  0  2  0  0  3  0  0  0  0  0  0
  160.8750  207.9040  150.3840 C   0  0  0  0  0  2  0  0  0  0  0  0
  160.4520  203.0310  150.3330 C   0  0  0  0  0  3  0  0  0  0  0  0
  162.1610  209.0590  148.4670 C   0  0  0  0  0  0  0  0  0  0  0  0
  161.5340  210.3190  148.7510 N   0  0  0  0  0  2  0  0  0  0  0  0
  163.1600  208.9960  147.7000 O   0  0  0  0  0  0  0  0  0  0  0  0
  161.7300  211.5650  148.0650 C   0  0  0  0  0  0  0  0  0  0  0  0
  163.0850  212.4660  148.2630 S   0  0  0  0  0  0  0  0  0  0  0  0
  160.6910  212.0490  147.1100 C   0  0  2  0  0  3  0  0  0  0  0  0
  161.3310  212.9490  146.0520 C   0  0  0  0  0  2  0  0  0  0  0  0
  158.9790  213.9020  145.8000 C   0  0  0  0  0  2  0  0  0  0  0  0
  159.6820  212.7520  147.7910 O   0  0  0  0  0  0  0  0  0  0  0  0
  160.2660  213.4810  145.0830 C   0  0  2  0  0  3  0  0  0  0  0  0
  158.6140  212.8930  146.8890 C   0  0  0  0  0  2  0  0  0  0  0  0
  160.0120  212.5440  143.8990 C   0  0  0  0  0  2  0  0  0  0  0  0
  160.8350  212.8970  142.6670 C   0  0  0  0  0  2  0  0  0  0  0  0
  161.0920  211.6990  141.8860 N   0  0  0  0  0  0  0  0  0  0  0  0
  160.3410  210.5490  139.8270 C   0  0  0  0  0  2  0  0  0  0  0  0
  162.5640  210.8480  140.0840 C   0  0  0  0  0  2  0  0  0  0  0  0
  161.5440  209.8780  140.1220 O   0  0  0  0  0  0  0  0  0  0  0  0
  162.3680  211.8990  141.1910 C   0  0  0  0  0  2  0  0  0  0  0  0
  160.0070  211.5960  140.9060 C   0  0  0  0  0  2  0  0  0  0  0  0
  162.3650  206.6990  151.8260 O   0  0  0  0  0  0  0  0  0  0  0  0
  160.4580  206.8970  154.2970 N   0  0  0  0  0  0  0  0  0  0  0  0
  161.0510  208.4570  152.7050 C   0  0  0  0  0  2  0  0  0  0  0  0
  161.8990  206.7970  154.1470 C   0  0  0  0  0  2  0  0  0  0  0  0
  162.2530  207.5740  152.9100 C   0  0  1  0  0  3  0  0  0  0  0  0
  160.0870  208.1400  153.7530 N   0  0  0  0  0  2  0  0  0  0  0  0
  160.1830  206.9540  155.7240 C   0  0  0  0  0  2  0  0  0  0  0  0
  160.7380  208.9590  157.0920 C   0  0  0  0  0  1  0  0  0  0  0  0
  161.2910  207.7020  156.4440 C   0  0  0  0  0  2  0  0  0  0  0  0
  1  8  1  0  0  0  0
  2 12  1  0  0  0  0
  2 13  1  0  0  0  0
  3 14  1  0  0  0  0
  4 15  1  0  0  0  0
  5  1  2  0  0  0  0
  5  9  1  0  0  0  0
  6  1  1  0  0  0  0
  7  4  1  0  0  0  0
  7 11  1  0  0  0  0
  8  4  2  0  0  0  0
  9  7  2  0  0  0  0
 10 11  1  0  0  0  0
 10  3  2  0  0  0  0
 11  2  2  0  0  0  0
 13 35  1  6  0  0  0
 14 13  1  0  0  0  0
 15 12  2  0  0  0  0
 16 17  1  0  0  0  0
 16  3  1  0  0  0  0
 18 16  2  0  0  0  0
 19 20  2  0  0  0  0
 19 17  1  0  0  0  0
 21 24  1  0  0  0  0
 21 19  1  1  0  0  0
 22 21  1  0  0  0  0
 23 26  1  0  0  0  0
 25 27  1  6  0  0  0
 25 23  1  0  0  0  0
 25 22  1  0  0  0  0
 26 24  1  0  0  0  0
 28 27  1  0  0  0  0
 29 28  1  0  0  0  0
 30 32  1  0  0  0  0
 30 34  1  0  0  0  0
 31 32  1  0  0  0  0
 31 33  1  0  0  0  0
 33 29  1  0  0  0  0
 34 29  1  0  0  0  0
 36 41  1  0  0  0  0
 37 39  1  0  0  0  0
 37 40  1  0  0  0  0
 38 36  1  0  0  0  0
 39 35  1  6  0  0  0
 39 38  1  0  0  0  0
 40 36  1  0  0  0  0
 41 43  1  0  0  0  0
 43 42  1  0  0  0  0
M  END
>  <MODEL>
7

>  <REMARK>
 VINA RESULT:      -6.3      3.073      6.057
  Name = 
  10 active torsions:
  status: ('A' for Active; 'I' for Inactive)
    1  A    between atoms: O_1  and  C_34
    2  A    between atoms: O_1  and  C_35
    3  A    between atoms: C_2  and  C_13
    4  A    between atoms: C_3  and  C_12
    5  A    between atoms: N_6  and  C_12
    6  A    between atoms: C_9  and  N_19
    7  A    between atoms: C_9  and  C_37
    8  A    between atoms: N_11  and  C_14
    9  A    between atoms: C_14  and  C_41
   10  A    between atoms: C_22  and  C_41
                            x       y       z     vdW  Elec       q    Type
                         _______ _______ _______ _____ _____    ______ ____

>  <TORSDO>
F 10

$$$$
=
 OpenBabel11062410103D

 43 48  0  0  1  0  0  0  0  0999 V2000
  160.6650  202.2740  148.3390 C   0  0  0  0  0  0  0  0  0  0  0  0
  162.2970  206.9900  149.1370 C   0  0  0  0  0  0  0  0  0  0  0  0
  161.6460  207.5880  151.8630 C   0  0  0  0  0  0  0  0  0  0  0  0
  161.6720  204.4670  148.0970 C   0  0  0  0  0  0  0  0  0  0  0  0
  160.2540  202.6030  149.6340 C   0  0  0  0  0  3  0  0  0  0  0  0
  160.3900  201.0540  147.8300 F   0  0  0  0  0  0  0  0  0  0  0  0
  161.2620  204.8020  149.4090 C   0  0  0  0  0  0  0  0  0  0  0  0
  161.3740  203.2050  147.5730 C   0  0  0  0  0  3  0  0  0  0  0  0
  160.5500  203.8590  150.1670 C   0  0  0  0  0  3  0  0  0  0  0  0
  161.1700  206.4740  151.2930 C   0  0  0  0  0  3  0  0  0  0  0  0
  161.5820  206.0700  149.9310 C   0  0  0  0  0  0  0  0  0  0  0  0
  162.6810  206.6480  147.8370 C   0  0  0  0  0  3  0  0  0  0  0  0
  162.5570  208.3840  149.6460 C   0  0  2  0  0  3  0  0  0  0  0  0
  162.7240  208.3880  151.1710 C   0  0  0  0  0  2  0  0  0  0  0  0
  162.3750  205.3890  147.3220 C   0  0  0  0  0  3  0  0  0  0  0  0
  161.1750  207.9930  153.1970 C   0  0  0  0  0  0  0  0  0  0  0  0
  161.0640  209.3880  153.5210 N   0  0  0  0  0  2  0  0  0  0  0  0
  160.8670  207.1100  154.0430 O   0  0  0  0  0  0  0  0  0  0  0  0
  160.8750  209.9700  154.8200 C   0  0  0  0  0  0  0  0  0  0  0  0
  162.0330  209.9090  155.9790 S   0  0  0  0  0  0  0  0  0  0  0  0
  159.6030  210.6880  155.1250 C   0  0  2  0  0  3  0  0  0  0  0  0
  159.7880  212.1910  154.9180 C   0  0  0  0  0  2  0  0  0  0  0  0
  157.8200  212.4020  156.5260 C   0  0  0  0  0  2  0  0  0  0  0  0
  159.1970  210.4320  156.4460 O   0  0  0  0  0  0  0  0  0  0  0  0
  158.4960  212.9450  155.2620 C   0  0  2  0  0  3  0  0  0  0  0  0
  157.8660  210.8740  156.5470 C   0  0  0  0  0  2  0  0  0  0  0  0
  157.5370  213.0620  154.0740 C   0  0  0  0  0  2  0  0  0  0  0  0
  157.5190  214.4530  153.4530 C   0  0  0  0  0  2  0  0  0  0  0  0
  157.1370  214.3630  152.0540 N   0  0  0  0  0  0  0  0  0  0  0  0
  157.2250  212.8020  150.1350 C   0  0  0  0  0  2  0  0  0  0  0  0
  155.2230  213.7330  150.6110 C   0  0  0  0  0  2  0  0  0  0  0  0
  156.2930  213.7640  149.6960 O   0  0  0  0  0  0  0  0  0  0  0  0
  155.6830  214.1780  152.0110 C   0  0  0  0  0  2  0  0  0  0  0  0
  157.8020  213.1740  151.5130 C   0  0  0  0  0  2  0  0  0  0  0  0
  161.4950  209.2230  149.2890 O   0  0  0  0  0  0  0  0  0  0  0  0
  161.1130  212.3090  148.9480 N   0  0  0  0  0  0  0  0  0  0  0  0
  161.0450  210.5890  147.4120 C   0  0  0  0  0  2  0  0  0  0  0  0
  162.2600  211.4650  149.2320 C   0  0  0  0  0  2  0  0  0  0  0  0
  162.0570  210.1940  148.4550 C   0  0  1  0  0  3  0  0  0  0  0  0
  160.6950  211.9850  147.6430 N   0  0  0  0  0  2  0  0  0  0  0  0
  161.5920  213.6810  148.9170 C   0  0  0  0  0  2  0  0  0  0  0  0
  162.7950  214.2180  146.8040 C   0  0  0  0  0  1  0  0  0  0  0  0
  161.4550  214.2550  147.5180 C   0  0  0  0  0  2  0  0  0  0  0  0
  1  5  1  0  0  0  0
  2 13  1  0  0  0  0
  2 11  1  0  0  0  0
  3 16  1  0  0  0  0
  4  7  1  0  0  0  0
  5  9  2  0  0  0  0
  6  1  1  0  0  0  0
  7 11  2  0  0  0  0
  7  9  1  0  0  0  0
  8  4  1  0  0  0  0
  8  1  2  0  0  0  0
 10  3  2  0  0  0  0
 11 10  1  0  0  0  0
 12  2  2  0  0  0  0
 13 35  1  1  0  0  0
 13 14  1  0  0  0  0
 14  3  1  0  0  0  0
 15 12  1  0  0  0  0
 15  4  2  0  0  0  0
 16 17  1  0  0  0  0
 16 18  2  0  0  0  0
 17 19  1  0  0  0  0
 19 20  2  0  0  0  0
 21 19  1  1  0  0  0
 21 24  1  0  0  0  0
 22 21  1  0  0  0  0
 22 25  1  0  0  0  0
 23 26  1  0  0  0  0
 24 26  1  0  0  0  0
 25 27  1  6  0  0  0
 25 23  1  0  0  0  0
 28 27  1  0  0  0  0
 29 28  1  0  0  0  0
 30 34  1  0  0  0  0
 31 33  1  0  0  0  0
 32 30  1  0  0  0  0
 32 31  1  0  0  0  0
 33 29  1  0  0  0  0
 34 29  1  0  0  0  0
 36 38  1  0  0  0  0
 37 40  1  0  0  0  0
 37 39  1  0  0  0  0
 39 38  1  0  0  0  0
 39 35  1  1  0  0  0
 40 36  1  0  0  0  0
 41 36  1  0  0  0  0
 42 43  1  0  0  0  0
 43 41  1  0  0  0  0
M  END
>  <MODEL>
8

>  <REMARK>
 VINA RESULT:      -6.1      4.158      8.560
  Name = 
  10 active torsions:
  status: ('A' for Active; 'I' for Inactive)
    1  A    between atoms: O_1  and  C_34
    2  A    between atoms: O_1  and  C_35
    3  A    between atoms: C_2  and  C_13
    4  A    between atoms: C_3  and  C_12
    5  A    between atoms: N_6  and  C_12
    6  A    between atoms: C_9  and  N_19
    7  A    between atoms: C_9  and  C_37
    8  A    between atoms: N_11  and  C_14
    9  A    between atoms: C_14  and  C_41
   10  A    between atoms: C_22  and  C_41
                            x       y       z     vdW  Elec       q    Type
                         _______ _______ _______ _____ _____    ______ ____

>  <TORSDO>
F 10

$$$$
=
 OpenBabel11062410103D

 43 48  0  0  1  0  0  0  0  0999 V2000
  161.2710  203.2010  151.0970 C   0  0  0  0  0  0  0  0  0  0  0  0
  160.8530  207.8590  153.0100 C   0  0  0  0  0  0  0  0  0  0  0  0
  161.2650  209.6450  150.8060 C   0  0  0  0  0  0  0  0  0  0  0  0
  160.9230  205.0950  152.5690 C   0  0  0  0  0  0  0  0  0  0  0  0
  161.5770  204.0700  150.0460 C   0  0  0  0  0  3  0  0  0  0  0  0
  161.2790  201.8650  150.8960 F   0  0  0  0  0  0  0  0  0  0  0  0
  161.2260  205.9800  151.5060 C   0  0  0  0  0  0  0  0  0  0  0  0
  160.9440  203.7130  152.3560 C   0  0  0  0  0  3  0  0  0  0  0  0
  161.5540  205.4520  150.2480 C   0  0  0  0  0  3  0  0  0  0  0  0
  161.5020  208.3360  150.6570 C   0  0  0  0  0  3  0  0  0  0  0  0
  161.1850  207.3690  151.7300 C   0  0  0  0  0  0  0  0  0  0  0  0
  160.5710  206.9720  154.0510 C   0  0  0  0  0  3  0  0  0  0  0  0
  160.9040  209.3390  153.2870 C   0  0  2  0  0  3  0  0  0  0  0  0
  160.5400  210.1460  152.0330 C   0  0  0  0  0  2  0  0  0  0  0  0
  160.5990  205.5960  153.8310 C   0  0  0  0  0  3  0  0  0  0  0  0
  161.6420  210.5890  149.7420 C   0  0  0  0  0  0  0  0  0  0  0  0
  161.1200  211.9270  149.7590 N   0  0  0  0  0  2  0  0  0  0  0  0
  162.4270  210.2170  148.8280 O   0  0  0  0  0  0  0  0  0  0  0  0
  161.1630  212.8940  148.6980 C   0  0  0  0  0  0  0  0  0  0  0  0
  162.2390  214.1310  148.6900 S   0  0  0  0  0  0  0  0  0  0  0  0
  160.2300  212.7580  147.5410 C   0  0  2  0  0  3  0  0  0  0  0  0
  160.7370  213.5870  146.3600 C   0  0  0  0  0  2  0  0  0  0  0  0
  158.3000  213.5500  145.6100 C   0  0  0  0  0  2  0  0  0  0  0  0
  158.9370  213.1740  147.8990 O   0  0  0  0  0  0  0  0  0  0  0  0
  159.7680  213.4830  145.1750 C   0  0  2  0  0  3  0  0  0  0  0  0
  158.0780  212.7280  146.8800 C   0  0  0  0  0  2  0  0  0  0  0  0
  160.0670  212.2920  144.2590 C   0  0  0  0  0  2  0  0  0  0  0  0
  159.8240  212.5920  142.7860 C   0  0  0  0  0  2  0  0  0  0  0  0
  160.4330  211.5590  141.9660 N   0  0  0  0  0  0  0  0  0  0  0  0
  160.4480  210.7120  139.6400 C   0  0  0  0  0  2  0  0  0  0  0  0
  162.4520  211.1190  140.5980 C   0  0  0  0  0  2  0  0  0  0  0  0
  161.5840  210.0870  140.1930 O   0  0  0  0  0  0  0  0  0  0  0  0
  161.8240  211.9590  141.7250 C   0  0  0  0  0  2  0  0  0  0  0  0
  159.6980  211.5420  140.6980 C   0  0  0  0  0  2  0  0  0  0  0  0
  162.1890  209.6950  153.7160 O   0  0  0  0  0  0  0  0  0  0  0  0
  160.7820  211.3130  155.9930 N   0  0  0  0  0  0  0  0  0  0  0  0
  162.9870  210.7000  155.7010 C   0  0  0  0  0  2  0  0  0  0  0  0
  160.7670  209.9160  155.5990 C   0  0  0  0  0  2  0  0  0  0  0  0
  162.1520  209.5960  155.1100 C   0  0  1  0  0  3  0  0  0  0  0  0
  162.0910  211.5870  156.4340 N   0  0  0  0  0  2  0  0  0  0  0  0
  159.9060  211.4380  157.1470 C   0  0  0  0  0  2  0  0  0  0  0  0
  157.6430  211.7650  156.1640 C   0  0  0  0  0  1  0  0  0  0  0  0
  158.8050  212.4450  156.8650 C   0  0  0  0  0  2  0  0  0  0  0  0
  1  8  1  0  0  0  0
  2 13  1  0  0  0  0
  2 12  1  0  0  0  0
  3 14  1  0  0  0  0
  4 15  1  0  0  0  0
  5  9  1  0  0  0  0
  5  1  2  0  0  0  0
  6  1  1  0  0  0  0
  7 11  1  0  0  0  0
  7  4  1  0  0  0  0
  8  4  2  0  0  0  0
  9  7  2  0  0  0  0
 10  3  2  0  0  0  0
 10 11  1  0  0  0  0
 11  2  2  0  0  0  0
 13 35  1  6  0  0  0
 14 13  1  0  0  0  0
 15 12  2  0  0  0  0
 16 17  1  0  0  0  0
 16  3  1  0  0  0  0
 18 16  2  0  0  0  0
 19 17  1  0  0  0  0
 20 19  2  0  0  0  0
 21 24  1  0  0  0  0
 21 19  1  1  0  0  0
 22 21  1  0  0  0  0
 23 26  1  0  0  0  0
 25 27  1  1  0  0  0
 25 23  1  0  0  0  0
 25 22  1  0  0  0  0
 26 24  1  0  0  0  0
 28 27  1  0  0  0  0
 29 28  1  0  0  0  0
 30 32  1  0  0  0  0
 30 34  1  0  0  0  0
 31 33  1  0  0  0  0
 32 31  1  0  0  0  0
 33 29  1  0  0  0  0
 34 29  1  0  0  0  0
 36 40  1  0  0  0  0
 36 41  1  0  0  0  0
 37 40  1  0  0  0  0
 38 36  1  0  0  0  0
 39 35  1  6  0  0  0
 39 38  1  0  0  0  0
 39 37  1  0  0  0  0
 42 43  1  0  0  0  0
 43 41  1  0  0  0  0
M  END
>  <MODEL>
9

>  <REMARK>
 VINA RESULT:      -6.0      3.132      5.824
  Name = 
  10 active torsions:
  status: ('A' for Active; 'I' for Inactive)
    1  A    between atoms: O_1  and  C_34
    2  A    between atoms: O_1  and  C_35
    3  A    between atoms: C_2  and  C_13
    4  A    between atoms: C_3  and  C_12
    5  A    between atoms: N_6  and  C_12
    6  A    between atoms: C_9  and  N_19
    7  A    between atoms: C_9  and  C_37
    8  A    between atoms: N_11  and  C_14
    9  A    between atoms: C_14  and  C_41
   10  A    between atoms: C_22  and  C_41
                            x       y       z     vdW  Elec       q    Type
                         _______ _______ _______ _____ _____    ______ ____

>  <TORSDO>
F 10

$$$$
