=
 OpenBabel11062410243D

 43 49  0  0  1  0  0  0  0  0999 V2000
  160.9850  202.4130  148.4510 C   0  0  0  0  0  0  0  0  0  0  0  0
  161.2890  205.8320  152.1460 C   0  0  0  0  0  0  0  0  0  0  0  0
  161.5920  208.3570  150.9410 C   0  0  0  0  0  0  0  0  0  0  0  0
  161.0650  203.5270  150.5990 C   0  0  0  0  0  0  0  0  0  0  0  0
  161.1440  203.6420  147.8040 C   0  0  0  0  0  3  0  0  0  0  0  0
  160.8560  201.1660  147.6530 C   0  0  0  0  0  1  0  0  0  0  0  0
  161.2240  204.7760  149.9550 C   0  0  0  0  0  0  0  0  0  0  0  0
  160.9460  202.3560  149.8470 C   0  0  0  0  0  3  0  0  0  0  0  0
  161.2630  204.8170  148.5500 C   0  0  0  0  0  3  0  0  0  0  0  0
  161.4900  207.2070  150.1490 C   0  0  0  0  0  3  0  0  0  0  0  0
  161.3370  205.9420  150.7350 C   0  0  0  0  0  0  0  0  0  0  0  0
  161.1360  204.6080  152.7250 N   0  0  0  0  0  0  0  0  0  0  0  0
  161.3960  206.9880  152.9410 C   0  0  0  0  0  0  0  0  0  0  0  0
  161.5420  208.2390  152.3340 C   0  0  0  0  0  3  0  0  0  0  0  0
  161.0250  203.4710  151.9910 C   0  0  0  0  0  3  0  0  0  0  0  0
  161.7360  209.6870  150.3240 C   0  0  0  0  0  0  0  0  0  0  0  0
  161.9470  209.7920  149.0450 N   0  0  0  0  0  0  0  0  0  0  0  0
  161.6380  210.7950  151.1070 F   0  0  0  0  0  0  0  0  0  0  0  0
  162.0860  211.0210  148.3210 C   0  0  0  0  0  0  0  0  0  0  0  0
  162.9750  211.8620  148.6220 O   0  0  0  0  0  0  0  0  0  0  0  0
  161.1450  211.3250  147.2070 C   0  0  0  0  0  2  0  0  0  0  0  0
  160.7080  212.7820  147.2540 C   0  0  2  0  0  3  0  0  0  0  0  0
  158.7590  214.4500  146.3220 S   0  0  0  0  0  0  0  0  0  0  0  0
  159.7270  213.0050  148.3830 C   0  0  0  0  0  2  0  0  0  0  0  0
  159.9900  213.1510  145.9690 C   0  0  1  0  0  3  0  0  0  0  0  0
  159.0520  214.3290  148.1120 C   0  0  0  0  0  2  0  0  0  0  0  0
  160.6290  213.5240  143.5350 N   0  0  0  0  0  0  0  0  0  0  0  0
  160.9650  213.6060  144.9250 C   0  0  0  0  0  0  0  0  0  0  0  0
  161.9550  212.7310  141.6430 C   0  0  0  0  0  2  0  0  0  0  0  0
  159.4710  213.0190  141.5410 C   0  0  0  0  0  3  0  0  0  0  0  0
  160.8250  213.6320  141.1770 C   0  0  1  0  0  3  0  0  0  0  0  0
  159.3480  213.0490  143.0540 C   0  0  0  0  0  3  0  0  0  0  0  0
  161.5430  213.9280  142.4830 C   0  0  1  0  0  3  0  0  0  0  0  0
  162.0960  214.0420  145.2750 O   0  0  0  0  0  0  0  0  0  0  0  0
  161.3250  206.9100  154.4330 C   0  0  0  0  0  2  0  0  0  0  0  0
  159.2180  209.7010  155.7290 C   0  0  0  0  0  2  0  0  0  0  0  0
  160.3990  210.4460  156.3580 C   0  0  2  0  0  3  0  0  0  0  0  0
  161.7520  208.2960  156.2740 C   0  0  0  0  0  2  0  0  0  0  0  0
  159.6080  208.3000  155.2420 C   0  0  0  0  0  2  0  0  0  0  0  0
  161.0470  208.2250  154.9910 N   0  0  0  0  0  0  0  0  0  0  0  0
  161.2990  209.4850  157.1390 C   0  0  0  0  0  2  0  0  0  0  0  0
  159.5740  212.6820  156.5000 O   0  0  0  0  0  1  0  0  0  0  0  0
  159.8850  211.5540  157.2610 C   0  0  0  0  0  2  0  0  0  0  0  0
  1  8  1  0  0  0  0
  2 12  1  0  0  0  0
  2 13  1  0  0  0  0
  3 14  1  0  0  0  0
  4 15  1  0  0  0  0
  5  1  2  0  0  0  0
  5  9  1  0  0  0  0
  6  1  1  0  0  0  0
  7  4  1  0  0  0  0
  7 11  1  0  0  0  0
  8  4  2  0  0  0  0
  9  7  2  0  0  0  0
 10 11  1  0  0  0  0
 10  3  2  0  0  0  0
 11  2  2  0  0  0  0
 13 35  1  0  0  0  0
 14 13  2  0  0  0  0
 15 12  2  0  0  0  0
 16  3  1  0  0  0  0
 16 18  1  0  0  0  0
 17 16  2  0  0  0  0
 19 20  2  0  0  0  0
 19 17  1  0  0  0  0
 21 19  1  0  0  0  0
 22 21  1  6  0  0  0
 22 24  1  0  0  0  0
 23 26  1  0  0  0  0
 25 28  1  6  0  0  0
 25 23  1  0  0  0  0
 25 22  1  0  0  0  0
 26 24  1  0  0  0  0
 27 28  1  0  0  0  0
 28 34  2  0  0  0  0
 30 32  2  0  0  0  0
 31 30  1  1  0  0  0
 31 29  1  0  0  0  0
 31 33  1  0  0  0  0
 32 27  1  0  0  0  0
 33 29  1  6  0  0  0
 33 27  1  0  0  0  0
 35 40  1  0  0  0  0
 36 37  1  0  0  0  0
 37 41  1  0  0  0  0
 37 43  1  1  0  0  0
 38 41  1  0  0  0  0
 39 36  1  0  0  0  0
 40 39  1  0  0  0  0
 40 38  1  0  0  0  0
 42 43  1  0  0  0  0
M  END
>  <MODEL>
1

>  <REMARK>
 VINA RESULT:      -9.1      0.000      0.000
  Name = 
  8 active torsions:
  status: ('A' for Active; 'I' for Inactive)
    1  A    between atoms: C_1  and  C_34
    2  A    between atoms: C_1  and  N_35
    3  A    between atoms: C_2  and  C_13
    4  A    between atoms: C_3  and  C_4
    5  A    between atoms: C_3  and  C_12
    6  A    between atoms: N_6  and  C_12
    7  A    between atoms: C_14  and  C_22
    8  A    between atoms: C_19  and  C_37
                            x       y       z     vdW  Elec       q    Type
                         _______ _______ _______ _____ _____    ______ ____

>  <TORSDO>
F 8

$$$$
=
 OpenBabel11062410243D

 43 49  0  0  1  0  0  0  0  0999 V2000
  161.1360  203.9020  148.8260 C   0  0  0  0  0  0  0  0  0  0  0  0
  161.7230  208.3020  151.2210 C   0  0  0  0  0  0  0  0  0  0  0  0
  162.1380  210.2820  149.2650 C   0  0  0  0  0  0  0  0  0  0  0  0
  161.3320  205.6400  150.5000 C   0  0  0  0  0  0  0  0  0  0  0  0
  161.3480  204.8460  147.8170 C   0  0  0  0  0  3  0  0  0  0  0  0
  160.9170  202.4750  148.4730 C   0  0  0  0  0  1  0  0  0  0  0  0
  161.5450  206.6030  149.4880 C   0  0  0  0  0  0  0  0  0  0  0  0
  161.1280  204.2980  150.1660 C   0  0  0  0  0  3  0  0  0  0  0  0
  161.5510  206.1890  148.1440 C   0  0  0  0  0  3  0  0  0  0  0  0
  161.9510  208.9460  148.8860 C   0  0  0  0  0  3  0  0  0  0  0  0
  161.7420  207.9490  149.8490 C   0  0  0  0  0  0  0  0  0  0  0  0
  161.5160  207.3400  152.1640 N   0  0  0  0  0  0  0  0  0  0  0  0
  161.9140  209.6420  151.6010 C   0  0  0  0  0  0  0  0  0  0  0  0
  162.1150  210.6200  150.6220 C   0  0  0  0  0  3  0  0  0  0  0  0
  161.3220  206.0360  151.8360 C   0  0  0  0  0  3  0  0  0  0  0  0
  162.3400  211.3320  148.2520 C   0  0  0  0  0  0  0  0  0  0  0  0
  161.3270  212.0250  147.8220 N   0  0  0  0  0  0  0  0  0  0  0  0
  163.5950  211.5670  147.7830 F   0  0  0  0  0  0  0  0  0  0  0  0
  161.3910  213.0820  146.8560 C   0  0  0  0  0  0  0  0  0  0  0  0
  161.4270  214.2920  147.2080 O   0  0  0  0  0  0  0  0  0  0  0  0
  161.3890  212.7480  145.4040 C   0  0  0  0  0  2  0  0  0  0  0  0
  160.4440  213.6650  144.6420 C   0  0  2  0  0  3  0  0  0  0  0  0
  158.3610  213.5850  142.8810 S   0  0  0  0  0  0  0  0  0  0  0  0
  159.1750  213.8940  145.4330 C   0  0  0  0  0  2  0  0  0  0  0  0
  160.0340  213.0170  143.3320 C   0  0  1  0  0  3  0  0  0  0  0  0
  158.1600  214.4530  144.4640 C   0  0  0  0  0  2  0  0  0  0  0  0
  161.2480  212.4070  141.1820 N   0  0  0  0  0  0  0  0  0  0  0  0
  161.0190  213.3360  142.2480 C   0  0  0  0  0  0  0  0  0  0  0  0
  163.3460  211.6510  140.1820 C   0  0  0  0  0  2  0  0  0  0  0  0
  161.1740  210.4470  139.8710 C   0  0  0  0  0  3  0  0  0  0  0  0
  162.1770  211.4160  139.2410 C   0  0  1  0  0  3  0  0  0  0  0  0
  160.5390  211.1510  141.0550 C   0  0  0  0  0  3  0  0  0  0  0  0
  162.2070  212.6550  140.1210 C   0  0  1  0  0  3  0  0  0  0  0  0
  161.6650  214.4190  142.2910 O   0  0  0  0  0  0  0  0  0  0  0  0
  161.8750  210.0530  153.0380 C   0  0  0  0  0  2  0  0  0  0  0  0
  158.4970  211.6260  152.8970 C   0  0  0  0  0  2  0  0  0  0  0  0
  158.8590  212.7500  153.8720 C   0  0  2  0  0  3  0  0  0  0  0  0
  160.8340  211.3660  154.6760 C   0  0  0  0  0  2  0  0  0  0  0  0
  159.5860  210.5480  152.8230 C   0  0  0  0  0  2  0  0  0  0  0  0
  160.8780  211.0940  153.2360 N   0  0  0  0  0  0  0  0  0  0  0  0
  159.6070  212.2000  155.0880 C   0  0  0  0  0  2  0  0  0  0  0  0
  156.4740  212.7270  153.9710 O   0  0  0  0  0  1  0  0  0  0  0  0
  157.6000  213.4820  154.3010 C   0  0  0  0  0  2  0  0  0  0  0  0
  1  8  1  0  0  0  0
  2 13  1  0  0  0  0
  2 12  1  0  0  0  0
  3 14  1  0  0  0  0
  4 15  1  0  0  0  0
  5  9  1  0  0  0  0
  5  1  2  0  0  0  0
  6  1  1  0  0  0  0
  7 11  1  0  0  0  0
  7  4  1  0  0  0  0
  8  4  2  0  0  0  0
  9  7  2  0  0  0  0
 10  3  2  0  0  0  0
 10 11  1  0  0  0  0
 11  2  2  0  0  0  0
 13 35  1  0  0  0  0
 14 13  2  0  0  0  0
 15 12  2  0  0  0  0
 16  3  1  0  0  0  0
 17 16  2  0  0  0  0
 18 16  1  0  0  0  0
 19 20  2  0  0  0  0
 19 17  1  0  0  0  0
 21 19  1  0  0  0  0
 22 21  1  1  0  0  0
 22 24  1  0  0  0  0
 23 25  1  0  0  0  0
 23 26  1  0  0  0  0
 25 28  1  6  0  0  0
 25 22  1  0  0  0  0
 26 24  1  0  0  0  0
 27 28  1  0  0  0  0
 28 34  2  0  0  0  0
 30 32  2  0  0  0  0
 31 30  1  1  0  0  0
 31 33  1  0  0  0  0
 31 29  1  0  0  0  0
 32 27  1  0  0  0  0
 33 29  1  1  0  0  0
 33 27  1  0  0  0  0
 35 40  1  0  0  0  0
 36 37  1  0  0  0  0
 37 43  1  1  0  0  0
 37 41  1  0  0  0  0
 38 41  1  0  0  0  0
 39 36  1  0  0  0  0
 39 40  1  0  0  0  0
 40 38  1  0  0  0  0
 42 43  1  0  0  0  0
M  END
>  <MODEL>
2

>  <REMARK>
 VINA RESULT:      -8.5      2.201      2.934
  Name = 
  8 active torsions:
  status: ('A' for Active; 'I' for Inactive)
    1  A    between atoms: C_1  and  C_34
    2  A    between atoms: C_1  and  N_35
    3  A    between atoms: C_2  and  C_13
    4  A    between atoms: C_3  and  C_4
    5  A    between atoms: C_3  and  C_12
    6  A    between atoms: N_6  and  C_12
    7  A    between atoms: C_14  and  C_22
    8  A    between atoms: C_19  and  C_37
                            x       y       z     vdW  Elec       q    Type
                         _______ _______ _______ _____ _____    ______ ____

>  <TORSDO>
F 8

$$$$
=
 OpenBabel11062410243D

 43 49  0  0  1  0  0  0  0  0999 V2000
  160.9870  202.5550  147.0900 C   0  0  0  0  0  0  0  0  0  0  0  0
  161.8770  206.9400  149.4170 C   0  0  0  0  0  0  0  0  0  0  0  0
  161.2220  206.6050  152.1340 C   0  0  0  0  0  0  0  0  0  0  0  0
  161.5920  204.8410  147.6090 C   0  0  0  0  0  0  0  0  0  0  0  0
  160.6390  202.3400  148.4270 C   0  0  0  0  0  3  0  0  0  0  0  0
  160.8540  201.4530  146.1030 C   0  0  0  0  0  1  0  0  0  0  0  0
  161.2450  204.6350  148.9640 C   0  0  0  0  0  0  0  0  0  0  0  0
  161.4630  203.8040  146.6820 C   0  0  0  0  0  3  0  0  0  0  0  0
  160.7670  203.3730  149.3590 C   0  0  0  0  0  3  0  0  0  0  0  0
  161.0650  205.5420  151.2360 C   0  0  0  0  0  3  0  0  0  0  0  0
  161.3880  205.6940  149.8800 C   0  0  0  0  0  0  0  0  0  0  0  0
  162.1980  207.0950  148.1030 N   0  0  0  0  0  0  0  0  0  0  0  0
  162.0300  208.0080  150.3190 C   0  0  0  0  0  0  0  0  0  0  0  0
  161.7070  207.8320  151.6680 C   0  0  0  0  0  3  0  0  0  0  0  0
  162.0680  206.0860  147.2030 C   0  0  0  0  0  3  0  0  0  0  0  0
  160.8980  206.4410  153.5620 C   0  0  0  0  0  0  0  0  0  0  0  0
  160.3610  207.4230  154.2240 N   0  0  0  0  0  0  0  0  0  0  0  0
  161.1610  205.2520  154.1680 F   0  0  0  0  0  0  0  0  0  0  0  0
  159.9830  207.3860  155.6060 C   0  0  0  0  0  0  0  0  0  0  0  0
  158.8700  206.9210  155.9700 O   0  0  0  0  0  0  0  0  0  0  0  0
  160.9130  207.9330  156.6340 C   0  0  0  0  0  2  0  0  0  0  0  0
  161.4410  209.2960  156.2120 C   0  0  2  0  0  3  0  0  0  0  0  0
  161.3940  211.9200  156.9580 S   0  0  0  0  0  0  0  0  0  0  0  0
  162.7540  209.5930  156.9010 C   0  0  0  0  0  2  0  0  0  0  0  0
  160.4690  210.3830  156.6310 C   0  0  1  0  0  3  0  0  0  0  0  0
  162.9910  211.0770  156.7550 C   0  0  0  0  0  2  0  0  0  0  0  0
  158.1590  211.1780  155.9220 N   0  0  0  0  0  0  0  0  0  0  0  0
  159.4240  210.5990  155.5780 C   0  0  0  0  0  0  0  0  0  0  0  0
  155.9000  210.5180  155.2660 C   0  0  0  0  0  2  0  0  0  0  0  0
  156.3690  212.0460  157.1910 C   0  0  0  0  0  3  0  0  0  0  0  0
  155.9330  211.9650  155.7270 C   0  0  1  0  0  3  0  0  0  0  0  0
  157.8240  211.6200  157.2610 C   0  0  0  0  0  3  0  0  0  0  0  0
  157.1030  211.3880  154.9480 C   0  0  1  0  0  3  0  0  0  0  0  0
  159.6540  210.2480  154.3890 O   0  0  0  0  0  0  0  0  0  0  0  0
  162.5670  209.3300  149.8700 C   0  0  0  0  0  2  0  0  0  0  0  0
  160.5270  211.8650  151.6920 C   0  0  0  0  0  2  0  0  0  0  0  0
  160.0100  212.5280  150.4120 C   0  0  2  0  0  3  0  0  0  0  0  0
  161.9230  211.4570  149.1270 C   0  0  0  0  0  2  0  0  0  0  0  0
  161.6400  210.8480  151.4090 C   0  0  0  0  0  2  0  0  0  0  0  0
  161.5560  210.3640  150.0320 N   0  0  0  0  0  0  0  0  0  0  0  0
  161.1480  212.7560  149.4150 C   0  0  0  0  0  2  0  0  0  0  0  0
  158.0140  213.8320  150.2810 O   0  0  0  0  0  1  0  0  0  0  0  0
  159.3260  213.8400  150.7550 C   0  0  0  0  0  2  0  0  0  0  0  0
  1  5  1  0  0  0  0
  2 11  1  0  0  0  0
  2 13  1  0  0  0  0
  3 16  1  0  0  0  0
  4  7  1  0  0  0  0
  5  9  2  0  0  0  0
  6  1  1  0  0  0  0
  7  9  1  0  0  0  0
  7 11  2  0  0  0  0
  8  1  2  0  0  0  0
  8  4  1  0  0  0  0
 10  3  2  0  0  0  0
 11 10  1  0  0  0  0
 12  2  2  0  0  0  0
 13 14  2  0  0  0  0
 14  3  1  0  0  0  0
 15  4  2  0  0  0  0
 15 12  1  0  0  0  0
 16 18  1  0  0  0  0
 16 17  2  0  0  0  0
 17 19  1  0  0  0  0
 19 20  2  0  0  0  0
 19 21  1  0  0  0  0
 22 25  1  0  0  0  0
 22 21  1  1  0  0  0
 22 24  1  0  0  0  0
 25 28  1  6  0  0  0
 25 23  1  0  0  0  0
 26 24  1  0  0  0  0
 26 23  1  0  0  0  0
 27 32  1  0  0  0  0
 28 27  1  0  0  0  0
 30 32  2  0  0  0  0
 31 29  1  1  0  0  0
 31 30  1  0  0  0  0
 33 29  1  1  0  0  0
 33 31  1  0  0  0  0
 33 27  1  0  0  0  0
 34 28  2  0  0  0  0
 35 40  1  0  0  0  0
 35 13  1  0  0  0  0
 37 43  1  1  0  0  0
 37 36  1  0  0  0  0
 38 41  1  0  0  0  0
 38 40  1  0  0  0  0
 39 36  1  0  0  0  0
 40 39  1  0  0  0  0
 41 37  1  0  0  0  0
 42 43  1  0  0  0  0
M  END
>  <MODEL>
3

>  <REMARK>
 VINA RESULT:      -8.5      3.980      8.197
  Name = 
  8 active torsions:
  status: ('A' for Active; 'I' for Inactive)
    1  A    between atoms: C_1  and  C_34
    2  A    between atoms: C_1  and  N_35
    3  A    between atoms: C_2  and  C_13
    4  A    between atoms: C_3  and  C_4
    5  A    between atoms: C_3  and  C_12
    6  A    between atoms: N_6  and  C_12
    7  A    between atoms: C_14  and  C_22
    8  A    between atoms: C_19  and  C_37
                            x       y       z     vdW  Elec       q    Type
                         _______ _______ _______ _____ _____    ______ ____

>  <TORSDO>
F 8

$$$$
=
 OpenBabel11062410243D

 43 49  0  0  1  0  0  0  0  0999 V2000
  160.8920  203.0090  148.8640 C   0  0  0  0  0  0  0  0  0  0  0  0
  161.8760  207.9280  149.3860 C   0  0  0  0  0  0  0  0  0  0  0  0
  161.1390  208.6660  152.0000 C   0  0  0  0  0  0  0  0  0  0  0  0
  161.5640  205.3060  148.4990 C   0  0  0  0  0  0  0  0  0  0  0  0
  160.5010  203.3270  150.1680 C   0  0  0  0  0  3  0  0  0  0  0  0
  160.7450  201.6180  148.3630 C   0  0  0  0  0  1  0  0  0  0  0  0
  161.1740  205.6380  149.8170 C   0  0  0  0  0  0  0  0  0  0  0  0
  161.4220  203.9970  148.0300 C   0  0  0  0  0  3  0  0  0  0  0  0
  160.6410  204.6330  150.6430 C   0  0  0  0  0  3  0  0  0  0  0  0
  160.9670  207.3450  151.5660 C   0  0  0  0  0  3  0  0  0  0  0  0
  161.3310  206.9620  150.2680 C   0  0  0  0  0  0  0  0  0  0  0  0
  162.2370  207.5640  148.1240 N   0  0  0  0  0  0  0  0  0  0  0  0
  162.0440  209.2550  149.8210 C   0  0  0  0  0  0  0  0  0  0  0  0
  161.6790  209.6120  151.1220 C   0  0  0  0  0  3  0  0  0  0  0  0
  162.0940  206.2920  147.6690 C   0  0  0  0  0  3  0  0  0  0  0  0
  160.7720  209.0640  153.3700 C   0  0  0  0  0  0  0  0  0  0  0  0
  160.1520  210.1890  153.5770 N   0  0  0  0  0  0  0  0  0  0  0  0
  161.0850  208.2390  154.4050 F   0  0  0  0  0  0  0  0  0  0  0  0
  159.7250  210.6820  154.8530 C   0  0  0  0  0  0  0  0  0  0  0  0
  160.5370  211.2150  155.6560 O   0  0  0  0  0  0  0  0  0  0  0  0
  158.2970  210.5390  155.2520 C   0  0  0  0  0  2  0  0  0  0  0  0
  157.7880  211.8200  155.8960 C   0  0  2  0  0  3  0  0  0  0  0  0
  155.7830  213.6590  155.6820 S   0  0  0  0  0  0  0  0  0  0  0  0
  156.7700  211.5050  156.9700 C   0  0  0  0  0  2  0  0  0  0  0  0
  157.0840  212.6790  154.8620 C   0  0  1  0  0  3  0  0  0  0  0  0
  156.0380  212.7940  157.2600 C   0  0  0  0  0  2  0  0  0  0  0  0
  158.0820  213.6270  152.7230 N   0  0  0  0  0  0  0  0  0  0  0  0
  158.0600  213.5700  154.1550 C   0  0  0  0  0  0  0  0  0  0  0  0
  159.9750  213.5900  151.1790 C   0  0  0  0  0  2  0  0  0  0  0  0
  157.6200  213.1460  150.4590 C   0  0  0  0  0  3  0  0  0  0  0  0
  158.7430  214.1830  150.5170 C   0  0  1  0  0  3  0  0  0  0  0  0
  157.1650  212.8830  151.8830 C   0  0  0  0  0  3  0  0  0  0  0  0
  159.0210  214.4530  151.9870 C   0  0  1  0  0  3  0  0  0  0  0  0
  158.8810  214.2540  154.8250 O   0  0  0  0  0  0  0  0  0  0  0  0
  162.6390  210.2940  148.9240 C   0  0  0  0  0  2  0  0  0  0  0  0
  161.2940  213.6840  148.1460 C   0  0  0  0  0  2  0  0  0  0  0  0
  159.9940  213.1480  147.5380 C   0  0  2  0  0  3  0  0  0  0  0  0
  161.1050  210.8800  147.2520 C   0  0  0  0  0  2  0  0  0  0  0  0
  162.3090  212.5670  148.4200 C   0  0  0  0  0  2  0  0  0  0  0  0
  161.6320  211.2790  148.5610 N   0  0  0  0  0  0  0  0  0  0  0  0
  160.2740  211.9880  146.5800 C   0  0  0  0  0  2  0  0  0  0  0  0
  157.9270  214.3040  147.2320 O   0  0  0  0  0  1  0  0  0  0  0  0
  159.2610  214.2700  146.8230 C   0  0  0  0  0  2  0  0  0  0  0  0
  1  5  1  0  0  0  0
  2 13  2  0  0  0  0
  2 11  1  0  0  0  0
  3 16  1  0  0  0  0
  4  7  2  0  0  0  0
  5  9  2  0  0  0  0
  6  1  1  0  0  0  0
  7 11  1  0  0  0  0
  7  9  1  0  0  0  0
  8  4  1  0  0  0  0
  8  1  2  0  0  0  0
 10  3  1  0  0  0  0
 11 10  2  0  0  0  0
 12  2  1  0  0  0  0
 13 14  1  0  0  0  0
 14  3  2  0  0  0  0
 15 12  2  0  0  0  0
 15  4  1  0  0  0  0
 16 17  2  0  0  0  0
 16 18  1  0  0  0  0
 17 19  1  0  0  0  0
 19 21  1  0  0  0  0
 19 20  2  0  0  0  0
 22 21  1  6  0  0  0
 22 24  1  0  0  0  0
 23 26  1  0  0  0  0
 24 26  1  0  0  0  0
 25 28  1  1  0  0  0
 25 23  1  0  0  0  0
 25 22  1  0  0  0  0
 27 28  1  0  0  0  0
 28 34  2  0  0  0  0
 30 32  2  0  0  0  0
 31 30  1  1  0  0  0
 31 29  1  0  0  0  0
 31 33  1  0  0  0  0
 32 27  1  0  0  0  0
 33 29  1  1  0  0  0
 33 27  1  0  0  0  0
 35 13  1  0  0  0  0
 36 39  1  0  0  0  0
 37 43  1  6  0  0  0
 37 36  1  0  0  0  0
 38 40  1  0  0  0  0
 39 40  1  0  0  0  0
 40 35  1  0  0  0  0
 41 38  1  0  0  0  0
 41 37  1  0  0  0  0
 43 42  1  0  0  0  0
M  END
>  <MODEL>
4

>  <REMARK>
 VINA RESULT:      -8.3      3.193      7.284
  Name = 
  8 active torsions:
  status: ('A' for Active; 'I' for Inactive)
    1  A    between atoms: C_1  and  C_34
    2  A    between atoms: C_1  and  N_35
    3  A    between atoms: C_2  and  C_13
    4  A    between atoms: C_3  and  C_4
    5  A    between atoms: C_3  and  C_12
    6  A    between atoms: N_6  and  C_12
    7  A    between atoms: C_14  and  C_22
    8  A    between atoms: C_19  and  C_37
                            x       y       z     vdW  Elec       q    Type
                         _______ _______ _______ _____ _____    ______ ____

>  <TORSDO>
F 8

$$$$
=
 OpenBabel11062410243D

 43 49  0  0  1  0  0  0  0  0999 V2000
  161.1390  202.3290  147.7490 C   0  0  0  0  0  0  0  0  0  0  0  0
  161.7990  207.2540  148.6140 C   0  0  0  0  0  0  0  0  0  0  0  0
  161.2570  207.7160  151.3370 C   0  0  0  0  0  0  0  0  0  0  0  0
  161.6010  204.6960  147.5310 C   0  0  0  0  0  0  0  0  0  0  0  0
  160.8500  202.5080  149.1050 C   0  0  0  0  0  3  0  0  0  0  0  0
  161.0500  200.9760  147.1420 C   0  0  0  0  0  1  0  0  0  0  0  0
  161.3120  204.8870  148.9010 C   0  0  0  0  0  0  0  0  0  0  0  0
  161.5140  203.4220  146.9620 C   0  0  0  0  0  3  0  0  0  0  0  0
  160.9360  203.7780  149.6790 C   0  0  0  0  0  3  0  0  0  0  0  0
  161.1440  206.4250  150.8060 C   0  0  0  0  0  3  0  0  0  0  0  0
  161.4120  206.1790  149.4520 C   0  0  0  0  0  0  0  0  0  0  0  0
  162.0660  207.0250  147.2980 N   0  0  0  0  0  0  0  0  0  0  0  0
  161.9070  208.5510  149.1470 C   0  0  0  0  0  0  0  0  0  0  0  0
  161.6400  208.7710  150.5020 C   0  0  0  0  0  3  0  0  0  0  0  0
  161.9760  205.7860  146.7480 C   0  0  0  0  0  3  0  0  0  0  0  0
  160.9910  207.9700  152.7640 C   0  0  0  0  0  0  0  0  0  0  0  0
  160.9950  209.1890  153.2180 N   0  0  0  0  0  0  0  0  0  0  0  0
  160.7380  206.9180  153.5880 F   0  0  0  0  0  0  0  0  0  0  0  0
  160.7350  209.5720  154.5750 C   0  0  0  0  0  0  0  0  0  0  0  0
  160.5330  208.7100  155.4730 O   0  0  0  0  0  0  0  0  0  0  0  0
  160.6780  211.0170  154.9290 C   0  0  0  0  0  2  0  0  0  0  0  0
  159.5010  211.6930  154.2420 C   0  0  2  0  0  3  0  0  0  0  0  0
  158.6200  214.1560  153.4620 S   0  0  0  0  0  0  0  0  0  0  0  0
  159.7520  211.8120  152.7550 C   0  0  0  0  0  2  0  0  0  0  0  0
  159.3280  213.1040  154.7730 C   0  0  1  0  0  3  0  0  0  0  0  0
  158.7620  212.8260  152.2310 C   0  0  0  0  0  2  0  0  0  0  0  0
  157.3060  212.2660  156.0680 N   0  0  0  0  0  0  0  0  0  0  0  0
  158.4600  213.1120  155.9950 C   0  0  0  0  0  0  0  0  0  0  0  0
  155.0410  212.7640  156.8340 C   0  0  0  0  0  2  0  0  0  0  0  0
  155.6030  210.7500  155.4590 C   0  0  0  0  0  3  0  0  0  0  0  0
  155.3110  211.2700  156.8680 C   0  0  1  0  0  3  0  0  0  0  0  0
  156.9300  211.3410  155.0190 C   0  0  0  0  0  3  0  0  0  0  0  0
  156.4180  212.2510  157.2160 C   0  0  1  0  0  3  0  0  0  0  0  0
  158.7360  213.8860  156.9520 O   0  0  0  0  0  0  0  0  0  0  0  0
  162.3360  209.7040  148.2970 C   0  0  0  0  0  2  0  0  0  0  0  0
  161.2500  213.1400  149.2570 C   0  0  0  0  0  2  0  0  0  0  0  0
  159.9410  213.0660  148.4660 C   0  0  2  0  0  3  0  0  0  0  0  0
  160.9080  211.1400  147.1180 C   0  0  0  0  0  2  0  0  0  0  0  0
  162.1780  211.9570  148.9570 C   0  0  0  0  0  2  0  0  0  0  0  0
  161.4120  210.8170  148.4570 N   0  0  0  0  0  0  0  0  0  0  0  0
  160.1790  212.4950  147.0660 C   0  0  0  0  0  2  0  0  0  0  0  0
  158.2950  214.4490  147.4280 O   0  0  0  0  0  1  0  0  0  0  0  0
  159.3120  214.4450  148.3840 C   0  0  0  0  0  2  0  0  0  0  0  0
  1  5  1  0  0  0  0
  2 13  2  0  0  0  0
  2 11  1  0  0  0  0
  3 16  1  0  0  0  0
  4  7  2  0  0  0  0
  5  9  2  0  0  0  0
  6  1  1  0  0  0  0
  7 11  1  0  0  0  0
  7  9  1  0  0  0  0
  8  4  1  0  0  0  0
  8  1  2  0  0  0  0
 10  3  1  0  0  0  0
 11 10  2  0  0  0  0
 12  2  1  0  0  0  0
 13 14  1  0  0  0  0
 14  3  2  0  0  0  0
 15 12  2  0  0  0  0
 15  4  1  0  0  0  0
 16 17  2  0  0  0  0
 16 18  1  0  0  0  0
 17 19  1  0  0  0  0
 19 21  1  0  0  0  0
 19 20  2  0  0  0  0
 22 25  1  0  0  0  0
 22 21  1  1  0  0  0
 23 25  1  0  0  0  0
 24 22  1  0  0  0  0
 25 28  1  1  0  0  0
 26 24  1  0  0  0  0
 26 23  1  0  0  0  0
 27 33  1  0  0  0  0
 28 27  1  0  0  0  0
 28 34  2  0  0  0  0
 29 31  1  0  0  0  0
 31 30  1  6  0  0  0
 31 33  1  0  0  0  0
 32 30  2  0  0  0  0
 32 27  1  0  0  0  0
 33 29  1  6  0  0  0
 35 40  1  0  0  0  0
 35 13  1  0  0  0  0
 37 43  1  6  0  0  0
 37 36  1  0  0  0  0
 38 40  1  0  0  0  0
 39 36  1  0  0  0  0
 40 39  1  0  0  0  0
 41 38  1  0  0  0  0
 41 37  1  0  0  0  0
 42 43  1  0  0  0  0
M  END
>  <MODEL>
5

>  <REMARK>
 VINA RESULT:      -8.1      2.991      8.147
  Name = 
  8 active torsions:
  status: ('A' for Active; 'I' for Inactive)
    1  A    between atoms: C_1  and  C_34
    2  A    between atoms: C_1  and  N_35
    3  A    between atoms: C_2  and  C_13
    4  A    between atoms: C_3  and  C_4
    5  A    between atoms: C_3  and  C_12
    6  A    between atoms: N_6  and  C_12
    7  A    between atoms: C_14  and  C_22
    8  A    between atoms: C_19  and  C_37
                            x       y       z     vdW  Elec       q    Type
                         _______ _______ _______ _____ _____    ______ ____

>  <TORSDO>
F 8

$$$$
=
 OpenBabel11062410243D

 43 49  0  0  1  0  0  0  0  0999 V2000
  160.4450  207.6960  155.5400 C   0  0  0  0  0  0  0  0  0  0  0  0
  161.4640  210.0450  151.1940 C   0  0  0  0  0  0  0  0  0  0  0  0
  161.9270  208.0630  149.2490 C   0  0  0  0  0  0  0  0  0  0  0  0
  160.8460  209.3530  153.8200 C   0  0  0  0  0  0  0  0  0  0  0  0
  160.6750  206.6750  154.6140 C   0  0  0  0  0  3  0  0  0  0  0  0
  160.1060  207.3600  156.9470 C   0  0  0  0  0  1  0  0  0  0  0  0
  161.0800  208.3280  152.8750 C   0  0  0  0  0  0  0  0  0  0  0  0
  160.5300  209.0340  155.1440 C   0  0  0  0  0  3  0  0  0  0  0  0
  160.9900  206.9870  153.2890 C   0  0  0  0  0  3  0  0  0  0  0  0
  161.6260  207.6990  150.5680 C   0  0  0  0  0  3  0  0  0  0  0  0
  161.3920  208.6740  151.5470 C   0  0  0  0  0  0  0  0  0  0  0  0
  161.2340  211.0000  152.1380 N   0  0  0  0  0  0  0  0  0  0  0  0
  161.7710  210.4090  149.8710 C   0  0  0  0  0  0  0  0  0  0  0  0
  161.9950  209.4190  148.9100 C   0  0  0  0  0  3  0  0  0  0  0  0
  160.9310  210.6870  153.4240 C   0  0  0  0  0  3  0  0  0  0  0  0
  162.1560  207.0380  148.2170 C   0  0  0  0  0  0  0  0  0  0  0  0
  161.1460  206.4220  147.6770 N   0  0  0  0  0  0  0  0  0  0  0  0
  163.4310  206.7540  147.8370 F   0  0  0  0  0  0  0  0  0  0  0  0
  161.2310  205.4210  146.6540 C   0  0  0  0  0  0  0  0  0  0  0  0
  160.4800  205.4520  145.6420 O   0  0  0  0  0  0  0  0  0  0  0  0
  162.2090  204.3070  146.7990 C   0  0  0  0  0  2  0  0  0  0  0  0
  161.5680  202.9770  146.4330 C   0  0  2  0  0  3  0  0  0  0  0  0
  159.1550  201.7030  146.4420 S   0  0  0  0  0  0  0  0  0  0  0  0
  161.0300  203.0190  145.0200 C   0  0  0  0  0  2  0  0  0  0  0  0
  160.3880  202.6990  147.3450 C   0  0  1  0  0  3  0  0  0  0  0  0
  160.0810  201.8520  144.8860 C   0  0  0  0  0  2  0  0  0  0  0  0
  160.7670  202.6690  149.8600 N   0  0  0  0  0  0  0  0  0  0  0  0
  160.8310  202.0000  148.5940 C   0  0  0  0  0  0  0  0  0  0  0  0
  162.4120  202.7760  151.6630 C   0  0  0  0  0  2  0  0  0  0  0  0
  160.4800  204.3560  151.4840 C   0  0  0  0  0  3  0  0  0  0  0  0
  161.0200  203.1020  152.1750 C   0  0  1  0  0  3  0  0  0  0  0  0
  160.2490  204.0110  150.0240 C   0  0  0  0  0  3  0  0  0  0  0  0
  161.2060  202.0480  151.0960 C   0  0  1  0  0  3  0  0  0  0  0  0
  161.2840  200.8240  148.5240 O   0  0  0  0  0  0  0  0  0  0  0  0
  161.8320  211.8460  149.4580 C   0  0  0  0  0  2  0  0  0  0  0  0
  159.9230  212.7230  146.3770 C   0  0  0  0  0  2  0  0  0  0  0  0
  161.1420  212.6070  145.4580 C   0  0  2  0  0  3  0  0  0  0  0  0
  162.6520  212.8200  147.4910 C   0  0  0  0  0  2  0  0  0  0  0  0
  160.3070  212.6550  147.8600 C   0  0  0  0  0  2  0  0  0  0  0  0
  161.5860  211.9680  148.0300 N   0  0  0  0  0  0  0  0  0  0  0  0
  162.3550  213.3150  146.0640 C   0  0  0  0  0  2  0  0  0  0  0  0
  161.3560  212.3780  143.0900 O   0  0  0  0  0  1  0  0  0  0  0  0
  160.8110  213.1830  144.0920 C   0  0  0  0  0  2  0  0  0  0  0  0
  1  6  1  0  0  0  0
  2 11  1  0  0  0  0
  2 12  1  0  0  0  0
  3 10  1  0  0  0  0
  4  8  2  0  0  0  0
  5  1  2  0  0  0  0
  7  9  2  0  0  0  0
  7  4  1  0  0  0  0
  8  1  1  0  0  0  0
  9  5  1  0  0  0  0
 10 11  2  0  0  0  0
 11  7  1  0  0  0  0
 12 15  2  0  0  0  0
 13  2  2  0  0  0  0
 14  3  2  0  0  0  0
 14 13  1  0  0  0  0
 15  4  1  0  0  0  0
 16  3  1  0  0  0  0
 17 16  2  0  0  0  0
 18 16  1  0  0  0  0
 19 21  1  0  0  0  0
 19 17  1  0  0  0  0
 20 19  2  0  0  0  0
 22 21  1  1  0  0  0
 22 25  1  0  0  0  0
 23 25  1  0  0  0  0
 24 22  1  0  0  0  0
 25 28  1  1  0  0  0
 26 24  1  0  0  0  0
 26 23  1  0  0  0  0
 27 32  1  0  0  0  0
 27 33  1  0  0  0  0
 28 27  1  0  0  0  0
 29 31  1  0  0  0  0
 31 30  1  6  0  0  0
 32 30  2  0  0  0  0
 33 29  1  6  0  0  0
 33 31  1  0  0  0  0
 34 28  2  0  0  0  0
 35 13  1  0  0  0  0
 36 39  1  0  0  0  0
 37 43  1  6  0  0  0
 37 41  1  0  0  0  0
 37 36  1  0  0  0  0
 38 40  1  0  0  0  0
 39 40  1  0  0  0  0
 40 35  1  0  0  0  0
 41 38  1  0  0  0  0
 42 43  1  0  0  0  0
M  END
>  <MODEL>
6

>  <REMARK>
 VINA RESULT:      -7.9      3.586      9.503
  Name = 
  8 active torsions:
  status: ('A' for Active; 'I' for Inactive)
    1  A    between atoms: C_1  and  C_34
    2  A    between atoms: C_1  and  N_35
    3  A    between atoms: C_2  and  C_13
    4  A    between atoms: C_3  and  C_4
    5  A    between atoms: C_3  and  C_12
    6  A    between atoms: N_6  and  C_12
    7  A    between atoms: C_14  and  C_22
    8  A    between atoms: C_19  and  C_37
                            x       y       z     vdW  Elec       q    Type
                         _______ _______ _______ _____ _____    ______ ____

>  <TORSDO>
F 8

$$$$
=
 OpenBabel11062410243D

 43 49  0  0  1  0  0  0  0  0999 V2000
  161.0370  202.3680  148.3330 C   0  0  0  0  0  0  0  0  0  0  0  0
  161.8370  207.3210  148.8540 C   0  0  0  0  0  0  0  0  0  0  0  0
  161.2240  208.0020  151.5150 C   0  0  0  0  0  0  0  0  0  0  0  0
  161.5870  204.6970  147.9570 C   0  0  0  0  0  0  0  0  0  0  0  0
  160.7110  202.6570  149.6610 C   0  0  0  0  0  3  0  0  0  0  0  0
  160.9210  200.9770  147.8250 C   0  0  0  0  0  1  0  0  0  0  0  0
  161.2610  204.9990  149.2990 C   0  0  0  0  0  0  0  0  0  0  0  0
  161.4750  203.3870  147.4810 C   0  0  0  0  0  3  0  0  0  0  0  0
  160.8220  203.9640  150.1430 C   0  0  0  0  0  3  0  0  0  0  0  0
  161.0840  206.6790  151.0770 C   0  0  0  0  0  3  0  0  0  0  0  0
  161.3870  206.3240  149.7550 C   0  0  0  0  0  0  0  0  0  0  0  0
  162.1380  206.9850  147.5690 N   0  0  0  0  0  0  0  0  0  0  0  0
  161.9720  208.6500  149.2940 C   0  0  0  0  0  0  0  0  0  0  0  0
  161.6700  208.9790  150.6190 C   0  0  0  0  0  3  0  0  0  0  0  0
  162.0240  205.7120  147.1090 C   0  0  0  0  0  3  0  0  0  0  0  0
  160.9220  208.3710  152.9090 C   0  0  0  0  0  0  0  0  0  0  0  0
  161.1520  207.5250  153.8700 N   0  0  0  0  0  0  0  0  0  0  0  0
  160.4090  209.6030  153.1730 F   0  0  0  0  0  0  0  0  0  0  0  0
  160.9210  207.7650  155.2640 C   0  0  0  0  0  0  0  0  0  0  0  0
  161.6950  207.3060  156.1470 O   0  0  0  0  0  0  0  0  0  0  0  0
  159.7280  208.5530  155.6830 C   0  0  0  0  0  2  0  0  0  0  0  0
  160.0630  210.0350  155.7660 C   0  0  2  0  0  3  0  0  0  0  0  0
  159.5340  212.2560  157.2610 S   0  0  0  0  0  0  0  0  0  0  0  0
  161.2500  210.2600  156.6740 C   0  0  0  0  0  2  0  0  0  0  0  0
  158.8980  210.7990  156.3670 C   0  0  1  0  0  3  0  0  0  0  0  0
  161.2570  211.7310  157.0170 C   0  0  0  0  0  2  0  0  0  0  0  0
  158.3750  211.8740  154.1210 N   0  0  0  0  0  0  0  0  0  0  0  0
  157.9210  211.2050  155.3050 C   0  0  0  0  0  0  0  0  0  0  0  0
  157.4610  213.8260  152.9720 C   0  0  0  0  0  2  0  0  0  0  0  0
  159.7780  212.9690  152.5710 C   0  0  0  0  0  3  0  0  0  0  0  0
  158.3420  213.0100  152.0430 C   0  0  1  0  0  3  0  0  0  0  0  0
  159.7700  212.1590  153.8550 C   0  0  0  0  0  3  0  0  0  0  0  0
  157.4710  212.3110  153.0730 C   0  0  1  0  0  3  0  0  0  0  0  0
  156.6910  210.9770  155.4670 O   0  0  0  0  0  0  0  0  0  0  0  0
  162.4680  209.7220  148.3770 C   0  0  0  0  0  2  0  0  0  0  0  0
  161.5050  213.3080  148.7250 C   0  0  0  0  0  2  0  0  0  0  0  0
  160.1100  213.1050  148.1260 C   0  0  2  0  0  3  0  0  0  0  0  0
  160.9080  210.9200  147.1020 C   0  0  0  0  0  2  0  0  0  0  0  0
  162.3900  212.0650  148.5690 C   0  0  0  0  0  2  0  0  0  0  0  0
  161.5690  210.8660  148.4100 N   0  0  0  0  0  0  0  0  0  0  0  0
  160.1780  212.2530  146.8580 C   0  0  0  0  0  2  0  0  0  0  0  0
  158.6620  214.3630  146.7040 O   0  0  0  0  0  1  0  0  0  0  0  0
  159.4760  214.4530  147.8350 C   0  0  0  0  0  2  0  0  0  0  0  0
  1  5  1  0  0  0  0
  2 13  2  0  0  0  0
  2 11  1  0  0  0  0
  3 16  1  0  0  0  0
  4  7  2  0  0  0  0
  5  9  2  0  0  0  0
  6  1  1  0  0  0  0
  7 11  1  0  0  0  0
  7  9  1  0  0  0  0
  8  4  1  0  0  0  0
  8  1  2  0  0  0  0
 10  3  1  0  0  0  0
 11 10  2  0  0  0  0
 12  2  1  0  0  0  0
 13 14  1  0  0  0  0
 14  3  2  0  0  0  0
 15 12  2  0  0  0  0
 15  4  1  0  0  0  0
 16 18  1  0  0  0  0
 16 17  2  0  0  0  0
 17 19  1  0  0  0  0
 19 21  1  0  0  0  0
 19 20  2  0  0  0  0
 22 21  1  1  0  0  0
 22 25  1  0  0  0  0
 22 24  1  0  0  0  0
 24 26  1  0  0  0  0
 25 28  1  6  0  0  0
 25 23  1  0  0  0  0
 26 23  1  0  0  0  0
 27 28  1  0  0  0  0
 28 34  2  0  0  0  0
 30 32  2  0  0  0  0
 31 30  1  1  0  0  0
 31 29  1  0  0  0  0
 31 33  1  0  0  0  0
 32 27  1  0  0  0  0
 33 29  1  1  0  0  0
 33 27  1  0  0  0  0
 35 40  1  0  0  0  0
 35 13  1  0  0  0  0
 37 43  1  6  0  0  0
 37 36  1  0  0  0  0
 38 40  1  0  0  0  0
 39 36  1  0  0  0  0
 40 39  1  0  0  0  0
 41 38  1  0  0  0  0
 41 37  1  0  0  0  0
 42 43  1  0  0  0  0
M  END
>  <MODEL>
7

>  <REMARK>
 VINA RESULT:      -7.7      3.042      7.803
  Name = 
  8 active torsions:
  status: ('A' for Active; 'I' for Inactive)
    1  A    between atoms: C_1  and  C_34
    2  A    between atoms: C_1  and  N_35
    3  A    between atoms: C_2  and  C_13
    4  A    between atoms: C_3  and  C_4
    5  A    between atoms: C_3  and  C_12
    6  A    between atoms: N_6  and  C_12
    7  A    between atoms: C_14  and  C_22
    8  A    between atoms: C_19  and  C_37
                            x       y       z     vdW  Elec       q    Type
                         _______ _______ _______ _____ _____    ______ ____

>  <TORSDO>
F 8

$$$$
=
 OpenBabel11062410243D

 43 49  0  0  1  0  0  0  0  0999 V2000
  161.6140  213.0890  147.3750 C   0  0  0  0  0  0  0  0  0  0  0  0
  159.6360  212.9010  152.0110 C   0  0  0  0  0  0  0  0  0  0  0  0
  160.3970  210.4460  153.1580 C   0  0  0  0  0  0  0  0  0  0  0  0
  160.4360  213.5840  149.4330 C   0  0  0  0  0  0  0  0  0  0  0  0
  162.0110  211.8530  147.8960 C   0  0  0  0  0  3  0  0  0  0  0  0
  162.0310  213.4850  146.0060 C   0  0  0  0  0  1  0  0  0  0  0  0
  160.8330  212.3370  149.9690 C   0  0  0  0  0  0  0  0  0  0  0  0
  160.8280  213.9530  148.1430 C   0  0  0  0  0  3  0  0  0  0  0  0
  161.6240  211.4790  149.1850 C   0  0  0  0  0  3  0  0  0  0  0  0
  160.8000  210.7700  151.8560 C   0  0  0  0  0  3  0  0  0  0  0  0
  160.4300  211.9900  151.2720 C   0  0  0  0  0  0  0  0  0  0  0  0
  159.2750  214.0900  151.4540 N   0  0  0  0  0  0  0  0  0  0  0  0
  159.2270  212.5720  153.3160 C   0  0  0  0  0  0  0  0  0  0  0  0
  159.6130  211.3530  153.8800 C   0  0  0  0  0  3  0  0  0  0  0  0
  159.6530  214.4450  150.1980 C   0  0  0  0  0  3  0  0  0  0  0  0
  160.8000  209.1720  153.7770 C   0  0  0  0  0  0  0  0  0  0  0  0
  160.8460  208.0870  153.0610 N   0  0  0  0  0  0  0  0  0  0  0  0
  161.1270  209.1510  155.0970 F   0  0  0  0  0  0  0  0  0  0  0  0
  161.2380  206.7920  153.5360 C   0  0  0  0  0  0  0  0  0  0  0  0
  160.5980  206.2070  154.4510 O   0  0  0  0  0  0  0  0  0  0  0  0
  162.4420  206.1330  152.9550 C   0  0  0  0  0  2  0  0  0  0  0  0
  162.2920  205.9700  151.4500 C   0  0  2  0  0  3  0  0  0  0  0  0
  160.4210  206.1190  149.4690 S   0  0  0  0  0  0  0  0  0  0  0  0
  162.4790  207.2980  150.7510 C   0  0  0  0  0  2  0  0  0  0  0  0
  160.8920  205.4910  151.1150 C   0  0  1  0  0  3  0  0  0  0  0  0
  161.9250  207.1330  149.3560 C   0  0  0  0  0  2  0  0  0  0  0  0
  160.9440  203.2260  149.9570 N   0  0  0  0  0  0  0  0  0  0  0  0
  160.8150  203.9940  151.1600 C   0  0  0  0  0  0  0  0  0  0  0  0
  159.6310  201.3270  149.1600 C   0  0  0  0  0  2  0  0  0  0  0  0
  161.1340  202.6650  147.6730 C   0  0  0  0  0  3  0  0  0  0  0  0
  160.9890  201.3740  148.4810 C   0  0  1  0  0  3  0  0  0  0  0  0
  161.1900  203.8180  148.6580 C   0  0  0  0  0  3  0  0  0  0  0  0
  160.8530  201.7780  149.9390 C   0  0  1  0  0  3  0  0  0  0  0  0
  160.6130  203.4120  152.2610 O   0  0  0  0  0  0  0  0  0  0  0  0
  158.4090  213.5210  154.1330 C   0  0  0  0  0  2  0  0  0  0  0  0
  155.5850  212.9710  156.5060 C   0  0  0  0  0  2  0  0  0  0  0  0
  155.7650  211.4510  156.5390 C   0  0  2  0  0  3  0  0  0  0  0  0
  157.0920  211.5980  154.3760 C   0  0  0  0  0  2  0  0  0  0  0  0
  156.4450  213.6340  155.4220 C   0  0  0  0  0  2  0  0  0  0  0  0
  157.5850  212.7860  155.0800 N   0  0  0  0  0  0  0  0  0  0  0  0
  155.9490  210.8900  155.1280 C   0  0  0  0  0  2  0  0  0  0  0  0
  154.0430  209.8010  156.4100 O   0  0  0  0  0  1  0  0  0  0  0  0
  154.5700  210.8080  157.2210 C   0  0  0  0  0  2  0  0  0  0  0  0
  1  5  2  0  0  0  0
  1  8  1  0  0  0  0
  2 13  1  0  0  0  0
  3 16  1  0  0  0  0
  3 14  1  0  0  0  0
  4  7  1  0  0  0  0
  4 15  1  0  0  0  0
  5  9  1  0  0  0  0
  6  1  1  0  0  0  0
  7 11  1  0  0  0  0
  8  4  2  0  0  0  0
  9  7  2  0  0  0  0
 10  3  2  0  0  0  0
 11 10  1  0  0  0  0
 11  2  2  0  0  0  0
 12  2  1  0  0  0  0
 13 14  2  0  0  0  0
 13 35  1  0  0  0  0
 15 12  2  0  0  0  0
 16 18  1  0  0  0  0
 17 19  1  0  0  0  0
 17 16  2  0  0  0  0
 19 20  2  0  0  0  0
 21 19  1  0  0  0  0
 22 21  1  1  0  0  0
 23 25  1  0  0  0  0
 24 22  1  0  0  0  0
 25 28  1  6  0  0  0
 25 22  1  0  0  0  0
 26 23  1  0  0  0  0
 26 24  1  0  0  0  0
 27 28  1  0  0  0  0
 28 34  2  0  0  0  0
 30 32  2  0  0  0  0
 31 30  1  6  0  0  0
 31 29  1  0  0  0  0
 31 33  1  0  0  0  0
 32 27  1  0  0  0  0
 33 29  1  6  0  0  0
 33 27  1  0  0  0  0
 35 40  1  0  0  0  0
 36 37  1  0  0  0  0
 37 43  1  6  0  0  0
 38 40  1  0  0  0  0
 38 41  1  0  0  0  0
 39 36  1  0  0  0  0
 40 39  1  0  0  0  0
 41 37  1  0  0  0  0
 42 43  1  0  0  0  0
M  END
>  <MODEL>
8

>  <REMARK>
 VINA RESULT:      -6.9      3.868      8.712
  Name = 
  8 active torsions:
  status: ('A' for Active; 'I' for Inactive)
    1  A    between atoms: C_1  and  C_34
    2  A    between atoms: C_1  and  N_35
    3  A    between atoms: C_2  and  C_13
    4  A    between atoms: C_3  and  C_4
    5  A    between atoms: C_3  and  C_12
    6  A    between atoms: N_6  and  C_12
    7  A    between atoms: C_14  and  C_22
    8  A    between atoms: C_19  and  C_37
                            x       y       z     vdW  Elec       q    Type
                         _______ _______ _______ _____ _____    ______ ____

>  <TORSDO>
F 8

$$$$
