=
 OpenBabel11062408183D

 32 38  0  0  1  0  0  0  0  0999 V2000
  162.0800  206.6680  152.2010 C   0  0  1  0  0  3  0  0  0  0  0  0
  161.2490  207.3840  150.0870 C   0  0  1  0  0  0  0  0  0  0  0  0
  160.1690  210.2060  154.8210 C   0  0  1  0  0  3  0  0  0  0  0  0
  161.4470  206.3710  153.4760 N   0  0  0  0  0  2  0  0  0  0  0  0
  161.1490  206.2560  151.0730 C   0  0  1  0  0  3  0  0  0  0  0  0
  160.8790  207.1630  148.6690 C   0  0  2  0  0  3  0  0  0  0  0  0
  159.0960  211.2810  154.8690 C   0  0  0  0  0  1  0  0  0  0  0  0
  161.5040  208.6830  150.8210 C   0  0  1  0  0  3  0  0  0  0  0  0
  160.4460  205.7060  148.3700 C   0  0  1  0  0  3  0  0  0  0  0  0
  159.7630  208.9750  155.6780 C   0  0  1  0  0  3  0  0  0  0  0  0
  161.1150  207.5810  154.1240 C   0  0  0  0  0  0  0  0  0  0  0  0
  162.2270  207.1630  149.0940 O   0  0  0  0  0  0  0  0  0  0  0  0
  161.4790  204.9650  150.4790 N   0  0  0  0  0  0  0  0  0  0  0  0
  160.2640  207.6500  155.1470 C   0  0  0  0  0  3  0  0  0  0  0  0
  160.5410  209.8650  153.3700 C   0  0  2  0  0  3  0  0  0  0  0  0
  159.4110  209.4170  152.6730 O   0  0  0  0  0  1  0  0  0  0  0  0
  162.2030  208.2190  152.1110 C   0  0  1  0  0  3  0  0  0  0  0  0
  160.7190  205.4600  146.8950 C   0  0  0  0  0  1  0  0  0  0  0  0
  161.6220  208.7790  153.4230 C   0  0  2  0  0  3  0  0  0  0  0  0
  161.1120  204.6500  149.2690 C   0  0  0  0  0  0  0  0  0  0  0  0
  161.9620  211.2410  148.1420 C   0  0  0  0  0  2  0  0  0  0  0  0
  162.0480  212.1140  149.3890 C   0  0  2  0  0  3  0  0  0  0  0  0
  162.1540  211.1970  150.5950 C   0  0  2  0  0  3  0  0  0  0  0  0
  162.2590  209.7740  150.0360 C   0  0  2  0  0  3  0  0  0  0  0  0
  160.8380  211.8930  150.2750 C   0  0  0  0  0  2  0  0  0  0  0  0
  161.8720  209.7910  148.5740 C   0  0  0  0  0  2  0  0  0  0  0  0
  161.3240  203.3290  148.8530 O   0  0  0  0  0  0  0  0  0  0  0  0
  160.5390  202.2310  149.2920 C   0  0  0  0  0  2  0  0  0  0  0  0
  161.1200  200.9440  148.7430 C   0  0  0  0  0  1  0  0  0  0  0  0
  160.2410  209.1430  157.1130 C   0  0  0  0  0  2  0  0  0  0  0  0
  162.6150  209.2180  157.2050 O   0  0  0  0  0  1  0  0  0  0  0  0
  161.4770  210.0200  157.1680 C   0  0  0  0  0  2  0  0  0  0  0  0
  1  4  1  1  0  0  0
  2 12  1  6  0  0  0
  2  8  1  0  0  0  0
  2  5  1  0  0  0  0
  3  7  1  6  0  0  0
  3 10  1  0  0  0  0
  4 11  1  0  0  0  0
  5 13  1  6  0  0  0
  5  1  1  0  0  0  0
  6 12  1  6  0  0  0
  6  2  1  0  0  0  0
  8 24  1  6  0  0  0
  8 17  1  0  0  0  0
  9 18  1  6  0  0  0
  9  6  1  0  0  0  0
  9 20  1  0  0  0  0
 10 30  1  1  0  0  0
 11 14  2  0  0  0  0
 14 10  1  0  0  0  0
 15 16  1  6  0  0  0
 15 19  1  0  0  0  0
 15  3  1  0  0  0  0
 17  1  1  0  0  0  0
 17 19  1  0  0  0  0
 19 11  1  0  0  0  0
 20 13  2  0  0  0  0
 21 26  1  0  0  0  0
 21 22  1  0  0  0  0
 22 25  1  0  0  0  0
 22 23  1  0  0  0  0
 24 23  1  0  0  0  0
 25 23  1  0  0  0  0
 26 24  1  0  0  0  0
 27 20  1  0  0  0  0
 27 28  1  0  0  0  0
 29 28  1  0  0  0  0
 30 32  1  0  0  0  0
 32 31  1  0  0  0  0
M  END
>  <MODEL>
1

>  <REMARK>
 VINA RESULT:      -6.3      0.000      0.000
  Name = 
  5 active torsions:
  status: ('A' for Active; 'I' for Inactive)
    1  A    between atoms: C_10  and  C_28
    2  A    between atoms: O_14  and  C_21
    3  A    between atoms: O_14  and  C_29
    4  A    between atoms: C_15  and  C_19
    5  A    between atoms: C_19  and  C_26
                            x       y       z     vdW  Elec       q    Type
                         _______ _______ _______ _____ _____    ______ ____

>  <TORSDO>
F 5

$$$$
=
 OpenBabel11062408183D

 32 38  0  0  1  0  0  0  0  0999 V2000
  161.8180  208.2290  153.2550 C   0  0  1  0  0  3  0  0  0  0  0  0
  161.2710  208.0710  150.9430 C   0  0  1  0  0  0  0  0  0  0  0  0
  159.3300  212.2260  154.1840 C   0  0  1  0  0  3  0  0  0  0  0  0
  161.0210  208.3270  154.4670 N   0  0  0  0  0  2  0  0  0  0  0  0
  161.0920  207.3520  152.2480 C   0  0  1  0  0  3  0  0  0  0  0  0
  161.1310  207.3320  149.6660 C   0  0  2  0  0  3  0  0  0  0  0  0
  158.2000  213.1270  153.7150 C   0  0  0  0  0  1  0  0  0  0  0  0
  161.3350  209.5640  151.1850 C   0  0  1  0  0  3  0  0  0  0  0  0
  160.8340  205.8240  149.8600 C   0  0  1  0  0  3  0  0  0  0  0  0
  158.8750  211.3340  155.3710 C   0  0  1  0  0  3  0  0  0  0  0  0
  160.5240  209.6430  154.5930 C   0  0  0  0  0  0  0  0  0  0  0  0
  162.3970  207.6260  150.2190 O   0  0  0  0  0  0  0  0  0  0  0  0
  161.5830  205.9790  152.2010 N   0  0  0  0  0  0  0  0  0  0  0  0
  159.5270  209.9700  155.4150 C   0  0  0  0  0  3  0  0  0  0  0  0
  159.9350  211.4460  153.0060 C   0  0  2  0  0  3  0  0  0  0  0  0
  158.9500  210.6630  152.3880 O   0  0  0  0  0  1  0  0  0  0  0  0
  161.8610  209.6560  152.6300 C   0  0  1  0  0  3  0  0  0  0  0  0
  161.3390  205.1130  148.6160 C   0  0  0  0  0  1  0  0  0  0  0  0
  161.0580  210.5700  153.5740 C   0  0  2  0  0  3  0  0  0  0  0  0
  161.4210  205.2250  151.1510 C   0  0  0  0  0  0  0  0  0  0  0  0
  161.9530  211.2110  147.8940 C   0  0  0  0  0  2  0  0  0  0  0  0
  161.9480  212.4200  148.8230 C   0  0  2  0  0  3  0  0  0  0  0  0
  161.9800  211.9110  150.2530 C   0  0  2  0  0  3  0  0  0  0  0  0
  162.1330  210.3890  150.1570 C   0  0  2  0  0  3  0  0  0  0  0  0
  160.6830  212.4420  149.6570 C   0  0  0  0  0  2  0  0  0  0  0  0
  161.8450  209.9550  148.7360 C   0  0  0  0  0  2  0  0  0  0  0  0
  161.7710  203.8740  151.2650 O   0  0  0  0  0  0  0  0  0  0  0  0
  160.8300  202.8340  151.4860 C   0  0  0  0  0  2  0  0  0  0  0  0
  160.8290  201.8930  150.3000 C   0  0  0  0  0  1  0  0  0  0  0  0
  159.1220  212.0400  156.6950 C   0  0  0  0  0  2  0  0  0  0  0  0
  161.4300  212.0780  157.2610 O   0  0  0  0  0  1  0  0  0  0  0  0
  160.4220  212.8210  156.6530 C   0  0  0  0  0  2  0  0  0  0  0  0
  1  4  1  1  0  0  0
  2 12  1  1  0  0  0
  2  8  1  0  0  0  0
  2  5  1  0  0  0  0
  3  7  1  6  0  0  0
  3 10  1  0  0  0  0
  4 11  1  0  0  0  0
  5 13  1  6  0  0  0
  5  1  1  0  0  0  0
  6  9  1  0  0  0  0
  6 12  1  1  0  0  0
  6  2  1  0  0  0  0
  8 24  1  6  0  0  0
  8 17  1  0  0  0  0
  9 18  1  6  0  0  0
  9 20  1  0  0  0  0
 10 14  1  0  0  0  0
 10 30  1  1  0  0  0
 11 14  2  0  0  0  0
 15 16  1  1  0  0  0
 15 19  1  0  0  0  0
 15  3  1  0  0  0  0
 17  1  1  0  0  0  0
 17 19  1  0  0  0  0
 19 11  1  0  0  0  0
 20 27  1  0  0  0  0
 20 13  2  0  0  0  0
 21 26  1  0  0  0  0
 21 22  1  0  0  0  0
 22 25  1  0  0  0  0
 22 23  1  0  0  0  0
 24 23  1  0  0  0  0
 25 23  1  0  0  0  0
 26 24  1  0  0  0  0
 27 28  1  0  0  0  0
 29 28  1  0  0  0  0
 32 30  1  0  0  0  0
 32 31  1  0  0  0  0
M  END
>  <MODEL>
2

>  <REMARK>
 VINA RESULT:      -6.3      1.446      1.892
  Name = 
  5 active torsions:
  status: ('A' for Active; 'I' for Inactive)
    1  A    between atoms: C_10  and  C_28
    2  A    between atoms: O_14  and  C_21
    3  A    between atoms: O_14  and  C_29
    4  A    between atoms: C_15  and  C_19
    5  A    between atoms: C_19  and  C_26
                            x       y       z     vdW  Elec       q    Type
                         _______ _______ _______ _____ _____    ______ ____

>  <TORSDO>
F 5

$$$$
=
 OpenBabel11062408183D

 32 38  0  0  1  0  0  0  0  0999 V2000
  162.0240  209.8060  150.8870 C   0  0  1  0  0  3  0  0  0  0  0  0
  160.4570  209.7000  152.6760 C   0  0  1  0  0  0  0  0  0  0  0  0
  161.7040  205.2110  149.5410 C   0  0  1  0  0  3  0  0  0  0  0  0
  161.9560  209.4630  149.4760 N   0  0  0  0  0  2  0  0  0  0  0  0
  160.6750  210.3420  151.3370 C   0  0  1  0  0  3  0  0  0  0  0  0
  159.5130  210.3080  153.6430 C   0  0  2  0  0  3  0  0  0  0  0  0
  160.8490  203.9550  149.5900 C   0  0  0  0  0  1  0  0  0  0  0  0
  161.1100  208.3350  152.7020 C   0  0  1  0  0  3  0  0  0  0  0  0
  158.8650  211.6170  153.1260 C   0  0  1  0  0  3  0  0  0  0  0  0
  161.5830  205.9130  148.1600 C   0  0  1  0  0  3  0  0  0  0  0  0
  162.0340  208.0600  149.3330 C   0  0  0  0  0  0  0  0  0  0  0  0
  160.9090  210.4970  153.7500 O   0  0  0  0  0  0  0  0  0  0  0  0
  160.6110  211.7980  151.3980 N   0  0  0  0  0  0  0  0  0  0  0  0
  161.6960  207.4210  148.2140 C   0  0  0  0  0  3  0  0  0  0  0  0
  161.4060  206.1250  150.7400 C   0  0  2  0  0  3  0  0  0  0  0  0
  160.0530  206.4910  150.7450 O   0  0  0  0  0  1  0  0  0  0  0  0
  162.2380  208.4720  151.6630 C   0  0  1  0  0  3  0  0  0  0  0  0
  158.4770  212.4290  154.3510 C   0  0  0  0  0  1  0  0  0  0  0  0
  162.3090  207.3580  150.6040 C   0  0  2  0  0  3  0  0  0  0  0  0
  159.7470  212.4180  152.1530 C   0  0  0  0  0  0  0  0  0  0  0  0
  161.4450  208.4170  156.4180 C   0  0  0  0  0  2  0  0  0  0  0  0
  160.6450  207.1330  156.2310 C   0  0  2  0  0  3  0  0  0  0  0  0
  160.6460  206.7920  154.7510 C   0  0  2  0  0  3  0  0  0  0  0  0
  161.5650  207.8200  154.0820 C   0  0  2  0  0  3  0  0  0  0  0  0
  159.4070  207.3970  155.3970 C   0  0  0  0  0  2  0  0  0  0  0  0
  161.8240  208.9520  155.0510 C   0  0  0  0  0  2  0  0  0  0  0  0
  159.6470  213.8080  152.0120 O   0  0  0  0  0  0  0  0  0  0  0  0
  159.3210  214.4530  150.7910 C   0  0  0  0  0  2  0  0  0  0  0  0
  157.9200  214.0590  150.3700 C   0  0  0  0  0  1  0  0  0  0  0  0
  162.6270  205.3750  147.1940 C   0  0  0  0  0  2  0  0  0  0  0  0
  161.5720  203.5750  146.0570 O   0  0  0  0  0  1  0  0  0  0  0  0
  161.9760  204.8990  145.9100 C   0  0  0  0  0  2  0  0  0  0  0  0
  1  4  1  6  0  0  0
  1  5  1  0  0  0  0
  1 17  1  0  0  0  0
  2  8  1  0  0  0  0
  2  6  1  0  0  0  0
  2 12  1  1  0  0  0
  3  7  1  6  0  0  0
  3 15  1  0  0  0  0
  5 13  1  1  0  0  0
  5  2  1  0  0  0  0
  6 12  1  1  0  0  0
  8 24  1  1  0  0  0
  9  6  1  0  0  0  0
  9 18  1  1  0  0  0
 10 30  1  6  0  0  0
 10 14  1  0  0  0  0
 10  3  1  0  0  0  0
 11  4  1  0  0  0  0
 11 19  1  0  0  0  0
 13 20  2  0  0  0  0
 14 11  2  0  0  0  0
 15 16  1  6  0  0  0
 17  8  1  0  0  0  0
 19 15  1  0  0  0  0
 19 17  1  0  0  0  0
 20  9  1  0  0  0  0
 22 21  1  0  0  0  0
 23 25  1  0  0  0  0
 23 22  1  0  0  0  0
 24 23  1  0  0  0  0
 24 26  1  0  0  0  0
 25 22  1  0  0  0  0
 26 21  1  0  0  0  0
 27 20  1  0  0  0  0
 28 27  1  0  0  0  0
 29 28  1  0  0  0  0
 32 31  1  0  0  0  0
 32 30  1  0  0  0  0
M  END
>  <MODEL>
3

>  <REMARK>
 VINA RESULT:      -6.0      2.225      7.803
  Name = 
  5 active torsions:
  status: ('A' for Active; 'I' for Inactive)
    1  A    between atoms: C_10  and  C_28
    2  A    between atoms: O_14  and  C_21
    3  A    between atoms: O_14  and  C_29
    4  A    between atoms: C_15  and  C_19
    5  A    between atoms: C_19  and  C_26
                            x       y       z     vdW  Elec       q    Type
                         _______ _______ _______ _____ _____    ______ ____

>  <TORSDO>
F 5

$$$$
=
 OpenBabel11062408183D

 32 38  0  0  1  0  0  0  0  0999 V2000
  162.3400  209.5590  150.0750 C   0  0  1  0  0  3  0  0  0  0  0  0
  160.7010  209.7270  151.7940 C   0  0  1  0  0  0  0  0  0  0  0  0
  161.5730  204.9520  148.9680 C   0  0  1  0  0  3  0  0  0  0  0  0
  162.2910  209.1420  148.6830 N   0  0  0  0  0  2  0  0  0  0  0  0
  161.0410  210.2610  150.4330 C   0  0  1  0  0  3  0  0  0  0  0  0
  159.7910  210.4880  152.6820 C   0  0  2  0  0  3  0  0  0  0  0  0
  160.5850  203.8000  149.0460 C   0  0  0  0  0  1  0  0  0  0  0  0
  161.1990  208.3030  151.9230 C   0  0  1  0  0  3  0  0  0  0  0  0
  159.3110  211.8250  152.0650 C   0  0  1  0  0  3  0  0  0  0  0  0
  161.5840  205.5810  147.5470 C   0  0  1  0  0  3  0  0  0  0  0  0
  162.2200  207.7330  148.6210 C   0  0  0  0  0  0  0  0  0  0  0  0
  161.1940  210.5330  152.8410 O   0  0  0  0  0  0  0  0  0  0  0  0
  161.1330  211.7170  150.4120 N   0  0  0  0  0  0  0  0  0  0  0  0
  161.8590  207.0680  147.5230 C   0  0  0  0  0  3  0  0  0  0  0  0
  161.3300  205.9620  150.1000 C   0  0  2  0  0  3  0  0  0  0  0  0
  160.0260  206.4700  150.0240 O   0  0  0  0  0  1  0  0  0  0  0  0
  162.3760  208.2580  150.9320 C   0  0  1  0  0  3  0  0  0  0  0  0
  158.9660  212.7450  153.2240 C   0  0  0  0  0  1  0  0  0  0  0  0
  162.3660  207.0810  149.9390 C   0  0  2  0  0  3  0  0  0  0  0  0
  160.3130  212.4690  151.0910 C   0  0  0  0  0  0  0  0  0  0  0  0
  160.4590  206.9530  155.3230 C   0  0  0  0  0  2  0  0  0  0  0  0
  161.3560  205.8530  154.7680 C   0  0  2  0  0  3  0  0  0  0  0  0
  161.9790  206.3630  153.4800 C   0  0  2  0  0  3  0  0  0  0  0  0
  161.5400  207.8260  153.3490 C   0  0  2  0  0  3  0  0  0  0  0  0
  160.8300  205.3650  153.4320 C   0  0  0  0  0  2  0  0  0  0  0  0
  160.4100  208.0890  154.3200 C   0  0  0  0  0  2  0  0  0  0  0  0
  160.3710  213.8510  150.8700 O   0  0  0  0  0  0  0  0  0  0  0  0
  160.1960  214.4520  149.5960 C   0  0  0  0  0  2  0  0  0  0  0  0
  158.7850  214.1970  149.1080 C   0  0  0  0  0  1  0  0  0  0  0  0
  162.6010  204.8780  146.6600 C   0  0  0  0  0  2  0  0  0  0  0  0
  161.2450  203.2350  145.6080 O   0  0  0  0  0  1  0  0  0  0  0  0
  161.9550  204.4090  145.3710 C   0  0  0  0  0  2  0  0  0  0  0  0
  1  4  1  6  0  0  0
  1  5  1  0  0  0  0
  1 17  1  0  0  0  0
  2  8  1  0  0  0  0
  2  6  1  0  0  0  0
  2 12  1  1  0  0  0
  3  7  1  6  0  0  0
  3 15  1  0  0  0  0
  5 13  1  1  0  0  0
  5  2  1  0  0  0  0
  6 12  1  1  0  0  0
  8 24  1  1  0  0  0
  9  6  1  0  0  0  0
  9 18  1  1  0  0  0
 10 30  1  6  0  0  0
 10  3  1  0  0  0  0
 11  4  1  0  0  0  0
 11 19  1  0  0  0  0
 13 20  2  0  0  0  0
 14 10  1  0  0  0  0
 14 11  2  0  0  0  0
 15 16  1  6  0  0  0
 17  8  1  0  0  0  0
 19 15  1  0  0  0  0
 19 17  1  0  0  0  0
 20  9  1  0  0  0  0
 22 21  1  0  0  0  0
 23 22  1  0  0  0  0
 24 23  1  0  0  0  0
 24 26  1  0  0  0  0
 25 23  1  0  0  0  0
 25 22  1  0  0  0  0
 26 21  1  0  0  0  0
 27 20  1  0  0  0  0
 28 27  1  0  0  0  0
 29 28  1  0  0  0  0
 32 31  1  0  0  0  0
 32 30  1  0  0  0  0
M  END
>  <MODEL>
4

>  <REMARK>
 VINA RESULT:      -6.0      2.340      7.856
  Name = 
  5 active torsions:
  status: ('A' for Active; 'I' for Inactive)
    1  A    between atoms: C_10  and  C_28
    2  A    between atoms: O_14  and  C_21
    3  A    between atoms: O_14  and  C_29
    4  A    between atoms: C_15  and  C_19
    5  A    between atoms: C_19  and  C_26
                            x       y       z     vdW  Elec       q    Type
                         _______ _______ _______ _____ _____    ______ ____

>  <TORSDO>
F 5

$$$$
=
 OpenBabel11062408183D

 32 38  0  0  1  0  0  0  0  0999 V2000
  162.5760  206.7340  150.8890 C   0  0  1  0  0  3  0  0  0  0  0  0
  161.3930  207.4920  148.9670 C   0  0  1  0  0  0  0  0  0  0  0  0
  160.7420  209.8940  154.0010 C   0  0  1  0  0  3  0  0  0  0  0  0
  162.1600  206.2970  152.2120 N   0  0  0  0  0  2  0  0  0  0  0  0
  161.5360  206.3010  149.8690 C   0  0  1  0  0  3  0  0  0  0  0  0
  160.8470  207.3230  147.5990 C   0  0  2  0  0  3  0  0  0  0  0  0
  159.5930  210.8510  154.2740 C   0  0  0  0  0  1  0  0  0  0  0  0
  161.6300  208.7630  149.7550 C   0  0  1  0  0  3  0  0  0  0  0  0
  160.5100  205.8510  147.2520 C   0  0  1  0  0  3  0  0  0  0  0  0
  160.5750  208.5780  154.8110 C   0  0  1  0  0  3  0  0  0  0  0  0
  161.8140  207.4260  152.9880 C   0  0  0  0  0  0  0  0  0  0  0  0
  162.2360  207.4320  147.8370 O   0  0  0  0  0  0  0  0  0  0  0  0
  161.8940  205.0890  149.1410 N   0  0  0  0  0  0  0  0  0  0  0  0
  161.1140  207.3460  154.1190 C   0  0  0  0  0  3  0  0  0  0  0  0
  160.9340  209.6830  152.4910 C   0  0  2  0  0  3  0  0  0  0  0  0
  159.7630  209.1670  151.9210 O   0  0  0  0  0  1  0  0  0  0  0  0
  162.5440  208.2920  150.9010 C   0  0  1  0  0  3  0  0  0  0  0  0
  160.5930  205.7260  145.7400 C   0  0  0  0  0  1  0  0  0  0  0  0
  162.1060  208.7090  152.3170 C   0  0  2  0  0  3  0  0  0  0  0  0
  161.3900  204.8140  147.9710 C   0  0  0  0  0  0  0  0  0  0  0  0
  161.3610  211.8520  147.6770 C   0  0  0  0  0  2  0  0  0  0  0  0
  162.0430  212.4040  148.9250 C   0  0  2  0  0  3  0  0  0  0  0  0
  162.4810  211.2260  149.7780 C   0  0  2  0  0  3  0  0  0  0  0  0
  162.1640  209.9700  148.9590 C   0  0  2  0  0  3  0  0  0  0  0  0
  161.2530  212.0390  150.1660 C   0  0  0  0  0  2  0  0  0  0  0  0
  161.2470  210.3470  147.8160 C   0  0  0  0  0  2  0  0  0  0  0  0
  161.6600  203.5490  147.4330 O   0  0  0  0  0  0  0  0  0  0  0  0
  161.1070  202.3440  147.9400 C   0  0  0  0  0  2  0  0  0  0  0  0
  160.8430  201.3890  146.7940 C   0  0  0  0  0  1  0  0  0  0  0  0
  161.2340  208.7040  156.1760 C   0  0  0  0  0  2  0  0  0  0  0  0
  159.8090  206.9220  156.8400 O   0  0  0  0  0  1  0  0  0  0  0  0
  160.3350  208.1410  157.2600 C   0  0  0  0  0  2  0  0  0  0  0  0
  1 17  1  0  0  0  0
  1  4  1  1  0  0  0
  2 12  1  6  0  0  0
  2  8  1  0  0  0  0
  2  5  1  0  0  0  0
  3  7  1  6  0  0  0
  3 10  1  0  0  0  0
  4 11  1  0  0  0  0
  5 13  1  6  0  0  0
  5  1  1  0  0  0  0
  6 12  1  6  0  0  0
  6  2  1  0  0  0  0
  8 24  1  6  0  0  0
  8 17  1  0  0  0  0
  9 18  1  6  0  0  0
  9  6  1  0  0  0  0
  9 20  1  0  0  0  0
 10 30  1  1  0  0  0
 11 14  2  0  0  0  0
 14 10  1  0  0  0  0
 15 16  1  1  0  0  0
 15  3  1  0  0  0  0
 17 19  1  0  0  0  0
 19 15  1  0  0  0  0
 19 11  1  0  0  0  0
 20 13  2  0  0  0  0
 21 26  1  0  0  0  0
 21 22  1  0  0  0  0
 22 23  1  0  0  0  0
 22 25  1  0  0  0  0
 23 25  1  0  0  0  0
 24 23  1  0  0  0  0
 26 24  1  0  0  0  0
 27 28  1  0  0  0  0
 27 20  1  0  0  0  0
 29 28  1  0  0  0  0
 30 32  1  0  0  0  0
 31 32  1  0  0  0  0
M  END
>  <MODEL>
5

>  <REMARK>
 VINA RESULT:      -5.2      1.259      1.399
  Name = 
  5 active torsions:
  status: ('A' for Active; 'I' for Inactive)
    1  A    between atoms: C_10  and  C_28
    2  A    between atoms: O_14  and  C_21
    3  A    between atoms: O_14  and  C_29
    4  A    between atoms: C_15  and  C_19
    5  A    between atoms: C_19  and  C_26
                            x       y       z     vdW  Elec       q    Type
                         _______ _______ _______ _____ _____    ______ ____

>  <TORSDO>
F 5

$$$$
=
 OpenBabel11062408183D

 32 38  0  0  1  0  0  0  0  0999 V2000
  161.9010  212.4390  140.9390 C   0  0  1  0  0  3  0  0  0  0  0  0
  159.8210  211.6300  140.1090 C   0  0  1  0  0  0  0  0  0  0  0  0
  160.2210  214.3260  145.0190 C   0  0  1  0  0  3  0  0  0  0  0  0
  162.6250  212.2440  142.1850 N   0  0  0  0  0  2  0  0  0  0  0  0
  161.1650  211.1580  140.5820 C   0  0  1  0  0  3  0  0  0  0  0  0
  158.9930  210.7580  139.2430 C   0  0  2  0  0  3  0  0  0  0  0  0
  159.0770  214.3140  146.0190 C   0  0  0  0  0  1  0  0  0  0  0  0
  159.4360  212.8970  140.8430 C   0  0  1  0  0  3  0  0  0  0  0  0
  159.6790  209.4130  138.8950 C   0  0  1  0  0  3  0  0  0  0  0  0
  161.4440  213.5360  145.5620 C   0  0  1  0  0  3  0  0  0  0  0  0
  162.0260  213.0250  143.1990 C   0  0  0  0  0  0  0  0  0  0  0  0
  159.7640  211.8170  138.7110 O   0  0  0  0  0  0  0  0  0  0  0  0
  161.8520  210.3410  139.5880 N   0  0  0  0  0  0  0  0  0  0  0  0
  162.2580  212.8350  144.4970 C   0  0  0  0  0  3  0  0  0  0  0  0
  159.7430  213.8700  143.6320 C   0  0  2  0  0  3  0  0  0  0  0  0
  159.2130  212.5750  143.7050 O   0  0  0  0  0  1  0  0  0  0  0  0
  160.7990  213.5040  141.2220 C   0  0  1  0  0  3  0  0  0  0  0  0
  159.0820  208.9440  137.5780 C   0  0  0  0  0  1  0  0  0  0  0  0
  160.9590  213.9140  142.6980 C   0  0  2  0  0  3  0  0  0  0  0  0
  161.2150  209.4800  138.8460 C   0  0  0  0  0  0  0  0  0  0  0  0
  157.3750  214.0860  137.9670 C   0  0  0  0  0  2  0  0  0  0  0  0
  156.2990  213.8900  139.0290 C   0  0  2  0  0  3  0  0  0  0  0  0
  156.9920  213.6650  140.3620 C   0  0  2  0  0  3  0  0  0  0  0  0
  158.4890  213.8580  140.0970 C   0  0  2  0  0  3  0  0  0  0  0  0
  156.3760  212.4930  139.6110 C   0  0  0  0  0  2  0  0  0  0  0  0
  158.7300  213.8440  138.6030 C   0  0  0  0  0  2  0  0  0  0  0  0
  161.9840  208.6240  138.0470 O   0  0  0  0  0  0  0  0  0  0  0  0
  161.9540  207.2090  138.1560 C   0  0  0  0  0  2  0  0  0  0  0  0
  162.3410  206.8030  139.5630 C   0  0  0  0  0  1  0  0  0  0  0  0
  162.3610  214.4520  146.3580 C   0  0  0  0  0  2  0  0  0  0  0  0
  163.0060  212.7550  147.8910 O   0  0  0  0  0  1  0  0  0  0  0  0
  162.4250  214.0180  147.8100 C   0  0  0  0  0  2  0  0  0  0  0  0
  1 17  1  0  0  0  0
  1  4  1  1  0  0  0
  2 12  1  6  0  0  0
  2  5  1  0  0  0  0
  2  8  1  0  0  0  0
  3 10  1  0  0  0  0
  3  7  1  1  0  0  0
  4 11  1  0  0  0  0
  5 13  1  6  0  0  0
  5  1  1  0  0  0  0
  6 12  1  6  0  0  0
  6  2  1  0  0  0  0
  8 24  1  6  0  0  0
  8 17  1  0  0  0  0
  9 18  1  6  0  0  0
  9  6  1  0  0  0  0
 10 30  1  6  0  0  0
 11 14  2  0  0  0  0
 14 10  1  0  0  0  0
 15 16  1  1  0  0  0
 15  3  1  0  0  0  0
 17 19  1  0  0  0  0
 19 11  1  0  0  0  0
 19 15  1  0  0  0  0
 20  9  1  0  0  0  0
 20 13  2  0  0  0  0
 21 26  1  0  0  0  0
 21 22  1  0  0  0  0
 22 25  1  0  0  0  0
 22 23  1  0  0  0  0
 24 23  1  0  0  0  0
 25 23  1  0  0  0  0
 26 24  1  0  0  0  0
 27 28  1  0  0  0  0
 27 20  1  0  0  0  0
 28 29  1  0  0  0  0
 30 32  1  0  0  0  0
 32 31  1  0  0  0  0
M  END
>  <MODEL>
6

>  <REMARK>
 VINA RESULT:      -4.6      8.390     11.332
  Name = 
  5 active torsions:
  status: ('A' for Active; 'I' for Inactive)
    1  A    between atoms: C_10  and  C_28
    2  A    between atoms: O_14  and  C_21
    3  A    between atoms: O_14  and  C_29
    4  A    between atoms: C_15  and  C_19
    5  A    between atoms: C_19  and  C_26
                            x       y       z     vdW  Elec       q    Type
                         _______ _______ _______ _____ _____    ______ ____

>  <TORSDO>
F 5

$$$$
=
 OpenBabel11062408183D

 32 38  0  0  1  0  0  0  0  0999 V2000
  161.5350  214.4530  141.7120 C   0  0  1  0  0  3  0  0  0  0  0  0
  160.8510  212.7530  140.1910 C   0  0  1  0  0  0  0  0  0  0  0  0
  158.5190  213.3190  145.2690 C   0  0  1  0  0  3  0  0  0  0  0  0
  162.0040  214.4350  143.0880 N   0  0  0  0  0  2  0  0  0  0  0  0
  162.0330  213.2090  140.9970 C   0  0  1  0  0  3  0  0  0  0  0  0
  161.0510  211.8740  139.0150 C   0  0  2  0  0  3  0  0  0  0  0  0
  157.6440  212.2260  145.8590 C   0  0  0  0  0  1  0  0  0  0  0  0
  159.5700  213.1100  140.9160 C   0  0  1  0  0  3  0  0  0  0  0  0
  162.5410  211.5520  138.7380 C   0  0  1  0  0  3  0  0  0  0  0  0
  159.8470  213.4590  146.0650 C   0  0  1  0  0  3  0  0  0  0  0  0
  160.9050  214.2370  143.9530 C   0  0  0  0  0  0  0  0  0  0  0  0
  160.8490  213.2660  138.8770 O   0  0  0  0  0  0  0  0  0  0  0  0
  163.2160  213.4370  140.1730 N   0  0  0  0  0  0  0  0  0  0  0  0
  161.0370  213.8710  145.2270 C   0  0  0  0  0  3  0  0  0  0  0  0
  158.7110  213.1140  143.7580 C   0  0  2  0  0  3  0  0  0  0  0  0
  159.3020  211.8680  143.5100 O   0  0  0  0  0  1  0  0  0  0  0  0
  159.9830  214.3260  141.7660 C   0  0  1  0  0  3  0  0  0  0  0  0
  162.6540  211.2360  137.2560 C   0  0  0  0  0  1  0  0  0  0  0  0
  159.6020  214.2570  143.2560 C   0  0  2  0  0  3  0  0  0  0  0  0
  163.5190  212.6570  139.1740 C   0  0  0  0  0  0  0  0  0  0  0  0
  156.0810  212.4970  139.7430 C   0  0  0  0  0  2  0  0  0  0  0  0
  155.9740  213.9420  140.2170 C   0  0  2  0  0  3  0  0  0  0  0  0
  157.3790  214.4530  140.4800 C   0  0  2  0  0  3  0  0  0  0  0  0
  158.3270  213.3340  140.0340 C   0  0  2  0  0  3  0  0  0  0  0  0
  156.4730  214.0710  141.6420 C   0  0  0  0  0  2  0  0  0  0  0  0
  157.5290  212.0620  139.8450 C   0  0  0  0  0  2  0  0  0  0  0  0
  164.7600  212.8540  138.5550 O   0  0  0  0  0  0  0  0  0  0  0  0
  165.7400  213.7640  139.0300 C   0  0  0  0  0  2  0  0  0  0  0  0
  166.5110  214.3330  137.8580 C   0  0  0  0  0  1  0  0  0  0  0  0
  159.6820  214.4490  147.2070 C   0  0  0  0  0  2  0  0  0  0  0  0
  161.1730  213.1570  148.5320 O   0  0  0  0  0  1  0  0  0  0  0  0
  160.9120  214.4530  148.0960 C   0  0  0  0  0  2  0  0  0  0  0  0
  1 17  1  0  0  0  0
  1  4  1  1  0  0  0
  2 12  1  6  0  0  0
  2  8  1  0  0  0  0
  2  5  1  0  0  0  0
  3  7  1  1  0  0  0
  3 10  1  0  0  0  0
  4 11  1  0  0  0  0
  5 13  1  6  0  0  0
  5  1  1  0  0  0  0
  6 12  1  6  0  0  0
  6  2  1  0  0  0  0
  8 24  1  6  0  0  0
  8 17  1  0  0  0  0
  9 18  1  6  0  0  0
  9  6  1  0  0  0  0
  9 20  1  0  0  0  0
 10 30  1  1  0  0  0
 11 14  2  0  0  0  0
 14 10  1  0  0  0  0
 15 16  1  1  0  0  0
 15  3  1  0  0  0  0
 17 19  1  0  0  0  0
 19 15  1  0  0  0  0
 19 11  1  0  0  0  0
 20 13  2  0  0  0  0
 21 26  1  0  0  0  0
 21 22  1  0  0  0  0
 22 23  1  0  0  0  0
 22 25  1  0  0  0  0
 23 25  1  0  0  0  0
 24 23  1  0  0  0  0
 26 24  1  0  0  0  0
 27 28  1  0  0  0  0
 27 20  1  0  0  0  0
 29 28  1  0  0  0  0
 30 32  1  0  0  0  0
 32 31  1  0  0  0  0
M  END
>  <MODEL>
7

>  <REMARK>
 VINA RESULT:      -4.4      8.623     11.860
  Name = 
  5 active torsions:
  status: ('A' for Active; 'I' for Inactive)
    1  A    between atoms: C_10  and  C_28
    2  A    between atoms: O_14  and  C_21
    3  A    between atoms: O_14  and  C_29
    4  A    between atoms: C_15  and  C_19
    5  A    between atoms: C_19  and  C_26
                            x       y       z     vdW  Elec       q    Type
                         _______ _______ _______ _____ _____    ______ ____

>  <TORSDO>
F 5

$$$$
