=
 OpenBabel11052423003D

 28 33  0  0  1  0  0  0  0  0999 V2000
  161.9620  209.5680  149.4820 N   0  0  0  0  0  0  0  0  0  0  0  0
  161.9460  210.7780  154.5270 S   0  0  0  0  0  0  0  0  0  0  0  0
  162.5390  205.5700  151.8370 C   0  0  0  0  0  1  0  0  0  0  0  0
  161.1680  208.3850  155.4730 C   0  0  1  0  0  3  0  0  0  0  0  0
  161.2500  208.5290  152.9920 C   0  0  0  0  0  0  0  0  0  0  0  0
  161.1870  211.7990  157.0680 C   0  0  0  0  0  2  0  0  0  0  0  0
  160.9580  209.2730  154.2660 C   0  0  2  0  0  3  0  0  0  0  0  0
  160.5980  206.3810  154.1370 C   0  0  0  0  0  2  0  0  0  0  0  0
  160.9550  209.2520  156.6920 C   0  0  0  0  0  2  0  0  0  0  0  0
  161.4590  207.3110  150.4510 C   0  0  0  0  0  0  0  0  0  0  0  0
  161.5850  209.2840  151.8170 N   0  0  0  0  0  0  0  0  0  0  0  0
  160.2100  207.2190  155.3650 C   0  0  0  0  0  2  0  0  0  0  0  0
  161.7040  207.6590  148.0350 C   0  0  0  0  0  3  0  0  0  0  0  0
  161.2910  206.4210  151.6500 C   0  0  0  0  0  0  0  0  0  0  0  0
  161.4650  206.8000  149.2140 C   0  0  0  0  0  3  0  0  0  0  0  0
  162.5700  211.1780  157.2600 C   0  0  0  0  0  2  0  0  0  0  0  0
  161.5850  210.5690  156.2940 C   0  0  0  0  0  0  0  0  0  0  0  0
  161.0060  207.1930  152.9160 C   0  0  0  0  0  0  0  0  0  0  0  0
  161.9440  208.9670  148.1790 C   0  0  0  0  0  3  0  0  0  0  0  0
  161.6870  208.7550  150.6360 C   0  0  2  0  0  3  0  0  0  0  0  0
  162.2680  210.9880  149.6030 C   0  0  0  0  0  2  0  0  0  0  0  0
  161.9860  211.6920  148.3180 C   0  0  0  0  0  0  0  0  0  0  0  0
  161.4410  213.0560  145.9380 C   0  0  0  0  0  0  0  0  0  0  0  0
  163.0160  212.3490  147.6370 C   0  0  0  0  0  3  0  0  0  0  0  0
  160.6820  211.7240  147.8110 C   0  0  0  0  0  3  0  0  0  0  0  0
  160.4100  212.4030  146.6210 C   0  0  0  0  0  3  0  0  0  0  0  0
  161.1720  213.7310  144.7550 O   0  0  0  0  0  1  0  0  0  0  0  0
  162.7440  213.0290  146.4450 C   0  0  0  0  0  3  0  0  0  0  0  0
  1 21  1  0  0  0  0
  1 20  1  0  0  0  0
  2 17  1  0  0  0  0
  4 12  1  6  0  0  0
  4  9  1  0  0  0  0
  6 16  1  0  0  0  0
  7  5  1  6  0  0  0
  7  2  1  0  0  0  0
  7  4  1  0  0  0  0
  8 12  1  0  0  0  0
 10 14  1  0  0  0  0
 11  5  2  0  0  0  0
 13 19  2  0  0  0  0
 13 15  1  0  0  0  0
 14  3  1  0  0  0  0
 14 18  2  0  0  0  0
 15 10  2  0  0  0  0
 17  9  1  0  0  0  0
 17  6  1  0  0  0  0
 17 16  1  0  0  0  0
 18  5  1  0  0  0  0
 18  8  1  0  0  0  0
 19  1  1  0  0  0  0
 20 10  1  6  0  0  0
 20 11  1  0  0  0  0
 22 21  1  0  0  0  0
 23 28  2  0  0  0  0
 23 26  1  0  0  0  0
 24 22  2  0  0  0  0
 25 22  1  0  0  0  0
 26 25  2  0  0  0  0
 27 23  1  0  0  0  0
 28 24  1  0  0  0  0
M  END
>  <MODEL>
1

>  <REMARK>
 VINA RESULT:      -7.8      0.000      0.000
  Name = 
  2 active torsions:
  status: ('A' for Active; 'I' for Inactive)
    1  A    between atoms: N_1  and  C_2
    2  A    between atoms: C_2  and  C_3
                            x       y       z     vdW  Elec       q    Type
                         _______ _______ _______ _____ _____    ______ ____

>  <TORSDO>
F 2

$$$$
=
 OpenBabel11052423003D

 28 33  0  0  1  0  0  0  0  0999 V2000
  161.5850  207.5320  152.7510 N   0  0  0  0  0  0  0  0  0  0  0  0
  161.9870  211.4480  149.3720 S   0  0  0  0  0  0  0  0  0  0  0  0
  160.9040  211.4800  155.1620 C   0  0  0  0  0  1  0  0  0  0  0  0
  160.5090  213.2450  150.7180 C   0  0  1  0  0  3  0  0  0  0  0  0
  160.6120  210.9990  151.7810 C   0  0  0  0  0  0  0  0  0  0  0  0
  161.6050  213.1330  147.1140 C   0  0  0  0  0  2  0  0  0  0  0  0
  160.5770  211.7520  150.4790 C   0  0  2  0  0  3  0  0  0  0  0  0
  159.3310  212.8800  152.8640 C   0  0  0  0  0  2  0  0  0  0  0  0
  160.5870  213.9060  149.3610 C   0  0  0  0  0  2  0  0  0  0  0  0
  160.4100  209.3260  154.0500 C   0  0  0  0  0  0  0  0  0  0  0  0
  161.1570  209.6700  151.7910 N   0  0  0  0  0  0  0  0  0  0  0  0
  159.2340  213.5360  151.4790 C   0  0  0  0  0  2  0  0  0  0  0  0
  160.7330  207.0700  154.9560 C   0  0  0  0  0  3  0  0  0  0  0  0
  159.9820  210.7600  154.1880 C   0  0  0  0  0  0  0  0  0  0  0  0
  160.2470  208.4620  155.0580 C   0  0  0  0  0  3  0  0  0  0  0  0
  162.7260  213.7730  147.9320 C   0  0  0  0  0  2  0  0  0  0  0  0
  161.5920  213.0530  148.6190 C   0  0  0  0  0  0  0  0  0  0  0  0
  159.9630  211.4950  152.8680 C   0  0  0  0  0  0  0  0  0  0  0  0
  161.3700  206.6460  153.8590 C   0  0  0  0  0  3  0  0  0  0  0  0
  161.0790  208.8770  152.8160 C   0  0  2  0  0  3  0  0  0  0  0  0
  162.3200  207.0480  151.5890 C   0  0  0  0  0  2  0  0  0  0  0  0
  161.7340  205.7660  151.1010 C   0  0  0  0  0  0  0  0  0  0  0  0
  160.6830  203.3500  150.1600 C   0  0  0  0  0  0  0  0  0  0  0  0
  161.7710  204.6240  151.9090 C   0  0  0  0  0  3  0  0  0  0  0  0
  161.1790  205.6950  149.8180 C   0  0  0  0  0  3  0  0  0  0  0  0
  160.6520  204.4890  149.3490 C   0  0  0  0  0  3  0  0  0  0  0  0
  160.1590  202.1520  149.6940 O   0  0  0  0  0  1  0  0  0  0  0  0
  161.2420  203.4170  151.4390 C   0  0  0  0  0  3  0  0  0  0  0  0
  1 20  1  0  0  0  0
  1 19  1  0  0  0  0
  4  9  1  6  0  0  0
  4 12  1  0  0  0  0
  5 11  2  0  0  0  0
  5 18  1  0  0  0  0
  6 16  1  0  0  0  0
  6 17  1  0  0  0  0
  7  2  1  6  0  0  0
  7  4  1  0  0  0  0
  7  5  1  0  0  0  0
  8 18  1  0  0  0  0
 10 14  1  0  0  0  0
 10 15  2  0  0  0  0
 12  8  1  0  0  0  0
 13 15  1  0  0  0  0
 14  3  1  0  0  0  0
 16 17  1  0  0  0  0
 17  9  1  0  0  0  0
 17  2  1  0  0  0  0
 18 14  2  0  0  0  0
 19 13  2  0  0  0  0
 20 11  1  6  0  0  0
 20 10  1  0  0  0  0
 21  1  1  0  0  0  0
 22 21  1  0  0  0  0
 22 24  1  0  0  0  0
 23 28  1  0  0  0  0
 25 22  2  0  0  0  0
 26 25  1  0  0  0  0
 26 23  2  0  0  0  0
 27 23  1  0  0  0  0
 28 24  2  0  0  0  0
M  END
>  <MODEL>
2

>  <REMARK>
 VINA RESULT:      -7.7      3.311      7.178
  Name = 
  2 active torsions:
  status: ('A' for Active; 'I' for Inactive)
    1  A    between atoms: N_1  and  C_2
    2  A    between atoms: C_2  and  C_3
                            x       y       z     vdW  Elec       q    Type
                         _______ _______ _______ _____ _____    ______ ____

>  <TORSDO>
F 2

$$$$
=
 OpenBabel11052423003D

 28 33  0  0  1  0  0  0  0  0999 V2000
  161.1090  210.6910  153.5640 N   0  0  0  0  0  0  0  0  0  0  0  0
  161.0590  207.5840  149.4100 S   0  0  0  0  0  0  0  0  0  0  0  0
  159.4220  206.5650  154.9760 C   0  0  0  0  0  1  0  0  0  0  0  0
  161.1700  205.2340  150.7110 C   0  0  1  0  0  3  0  0  0  0  0  0
  161.3010  207.2300  152.1870 C   0  0  0  0  0  0  0  0  0  0  0  0
  161.8610  206.1140  147.1130 C   0  0  0  0  0  2  0  0  0  0  0  0
  161.6720  206.6550  150.8490 C   0  0  2  0  0  3  0  0  0  0  0  0
  161.3340  204.9050  153.1580 C   0  0  0  0  0  2  0  0  0  0  0  0
  161.4980  204.7920  149.3040 C   0  0  0  0  0  2  0  0  0  0  0  0
  160.9840  208.4650  154.7100 C   0  0  0  0  0  0  0  0  0  0  0  0
  161.2400  208.6590  152.3280 N   0  0  0  0  0  0  0  0  0  0  0  0
  161.8240  204.4030  151.7930 C   0  0  0  0  0  2  0  0  0  0  0  0
  161.0010  210.5700  155.9680 C   0  0  0  0  0  3  0  0  0  0  0  0
  160.8480  206.9700  154.6320 C   0  0  0  0  0  0  0  0  0  0  0  0
  160.9430  209.0960  155.8890 C   0  0  0  0  0  3  0  0  0  0  0  0
  160.3590  205.8750  147.2630 C   0  0  0  0  0  2  0  0  0  0  0  0
  161.2340  206.0340  148.4810 C   0  0  0  0  0  0  0  0  0  0  0  0
  161.2200  206.4190  153.2760 C   0  0  0  0  0  0  0  0  0  0  0  0
  161.0740  211.3130  154.8570 C   0  0  0  0  0  3  0  0  0  0  0  0
  161.0980  209.2560  153.4720 C   0  0  2  0  0  3  0  0  0  0  0  0
  161.1450  211.5330  152.3750 C   0  0  0  0  0  2  0  0  0  0  0  0
  159.8640  212.2820  152.2280 C   0  0  0  0  0  0  0  0  0  0  0  0
  157.4780  213.7230  151.9930 C   0  0  0  0  0  0  0  0  0  0  0  0
  159.7260  213.2500  151.2280 C   0  0  0  0  0  3  0  0  0  0  0  0
  158.8090  212.0410  153.1160 C   0  0  0  0  0  3  0  0  0  0  0  0
  157.6160  212.7590  152.9970 C   0  0  0  0  0  3  0  0  0  0  0  0
  156.2920  214.4360  151.8740 O   0  0  0  0  0  1  0  0  0  0  0  0
  158.5320  213.9690  151.1090 C   0  0  0  0  0  3  0  0  0  0  0  0
  1 19  1  0  0  0  0
  4  9  1  6  0  0  0
  4  7  1  0  0  0  0
  4 12  1  0  0  0  0
  5 11  2  0  0  0  0
  5 18  1  0  0  0  0
  6 16  1  0  0  0  0
  6 17  1  0  0  0  0
  7  2  1  6  0  0  0
  7  5  1  0  0  0  0
  8 18  1  0  0  0  0
 10 15  2  0  0  0  0
 12  8  1  0  0  0  0
 14 10  1  0  0  0  0
 14  3  1  0  0  0  0
 15 13  1  0  0  0  0
 16 17  1  0  0  0  0
 17  9  1  0  0  0  0
 17  2  1  0  0  0  0
 18 14  2  0  0  0  0
 19 13  2  0  0  0  0
 20 11  1  1  0  0  0
 20  1  1  0  0  0  0
 20 10  1  0  0  0  0
 21  1  1  0  0  0  0
 22 21  1  0  0  0  0
 22 25  1  0  0  0  0
 23 26  1  0  0  0  0
 24 22  2  0  0  0  0
 26 25  2  0  0  0  0
 27 23  1  0  0  0  0
 28 24  1  0  0  0  0
 28 23  2  0  0  0  0
M  END
>  <MODEL>
3

>  <REMARK>
 VINA RESULT:      -6.9      3.308      6.249
  Name = 
  2 active torsions:
  status: ('A' for Active; 'I' for Inactive)
    1  A    between atoms: N_1  and  C_2
    2  A    between atoms: C_2  and  C_3
                            x       y       z     vdW  Elec       q    Type
                         _______ _______ _______ _____ _____    ______ ____

>  <TORSDO>
F 2

$$$$
=
 OpenBabel11052423003D

 28 33  0  0  1  0  0  0  0  0999 V2000
  161.4400  204.4380  149.2670 N   0  0  0  0  0  0  0  0  0  0  0  0
  162.2400  209.5140  148.5520 S   0  0  0  0  0  0  0  0  0  0  0  0
  162.3280  206.2770  153.4730 C   0  0  0  0  0  1  0  0  0  0  0  0
  161.5900  210.3380  151.0270 C   0  0  1  0  0  3  0  0  0  0  0  0
  161.2790  207.9010  150.6420 C   0  0  0  0  0  0  0  0  0  0  0  0
  161.9070  212.2300  147.7830 C   0  0  0  0  0  2  0  0  0  0  0  0
  161.2020  209.2700  150.0260 C   0  0  2  0  0  3  0  0  0  0  0  0
  160.7880  208.9230  152.8920 C   0  0  0  0  0  2  0  0  0  0  0  0
  161.5850  211.6530  150.2820 C   0  0  0  0  0  2  0  0  0  0  0  0
  161.0660  205.2530  151.6080 C   0  0  0  0  0  0  0  0  0  0  0  0
  161.4340  206.7650  149.7760 N   0  0  0  0  0  0  0  0  0  0  0  0
  160.6110  210.2710  152.1790 C   0  0  0  0  0  2  0  0  0  0  0  0
  160.9300  202.8740  151.0270 C   0  0  0  0  0  3  0  0  0  0  0  0
  161.0780  206.3720  152.6110 C   0  0  0  0  0  0  0  0  0  0  0  0
  160.8690  203.9880  151.9960 C   0  0  0  0  0  3  0  0  0  0  0  0
  163.2940  212.1390  148.4180 C   0  0  0  0  0  2  0  0  0  0  0  0
  162.1600  211.2870  148.9310 C   0  0  0  0  0  0  0  0  0  0  0  0
  161.0090  207.7370  151.9650 C   0  0  0  0  0  0  0  0  0  0  0  0
  161.2070  203.1030  149.7380 C   0  0  0  0  0  3  0  0  0  0  0  0
  161.3400  205.5380  150.1880 C   0  0  2  0  0  3  0  0  0  0  0  0
  161.7800  204.6450  147.8650 C   0  0  0  0  0  2  0  0  0  0  0  0
  161.2680  203.5160  147.0340 C   0  0  0  0  0  0  0  0  0  0  0  0
  160.3580  201.3960  145.4530 C   0  0  0  0  0  0  0  0  0  0  0  0
  161.2310  202.2190  147.5560 C   0  0  0  0  0  3  0  0  0  0  0  0
  160.8570  203.7500  145.7160 C   0  0  0  0  0  3  0  0  0  0  0  0
  160.4010  202.6910  144.9270 C   0  0  0  0  0  3  0  0  0  0  0  0
  159.9040  200.3430  144.6690 O   0  0  0  0  0  1  0  0  0  0  0  0
  160.7730  201.1590  146.7660 C   0  0  0  0  0  3  0  0  0  0  0  0
  1 19  1  0  0  0  0
  1 20  1  0  0  0  0
  2 17  1  0  0  0  0
  4  9  1  6  0  0  0
  4 12  1  0  0  0  0
  5 18  1  0  0  0  0
  6 16  1  0  0  0  0
  6 17  1  0  0  0  0
  7  2  1  6  0  0  0
  7  5  1  0  0  0  0
  7  4  1  0  0  0  0
 10 15  2  0  0  0  0
 10 14  1  0  0  0  0
 11  5  2  0  0  0  0
 12  8  1  0  0  0  0
 13 15  1  0  0  0  0
 14  3  1  0  0  0  0
 16 17  1  0  0  0  0
 17  9  1  0  0  0  0
 18 14  2  0  0  0  0
 18  8  1  0  0  0  0
 19 13  2  0  0  0  0
 20 11  1  6  0  0  0
 20 10  1  0  0  0  0
 21  1  1  0  0  0  0
 22 24  1  0  0  0  0
 22 21  1  0  0  0  0
 23 28  1  0  0  0  0
 25 22  2  0  0  0  0
 26 23  2  0  0  0  0
 26 25  1  0  0  0  0
 27 23  1  0  0  0  0
 28 24  2  0  0  0  0
M  END
>  <MODEL>
4

>  <REMARK>
 VINA RESULT:      -6.9      4.174      7.003
  Name = 
  2 active torsions:
  status: ('A' for Active; 'I' for Inactive)
    1  A    between atoms: N_1  and  C_2
    2  A    between atoms: C_2  and  C_3
                            x       y       z     vdW  Elec       q    Type
                         _______ _______ _______ _____ _____    ______ ____

>  <TORSDO>
F 2

$$$$
=
 OpenBabel11052423003D

 28 33  0  0  1  0  0  0  0  0999 V2000
  161.9670  207.6710  152.2100 N   0  0  0  0  0  0  0  0  0  0  0  0
  162.2960  211.7820  149.0630 S   0  0  0  0  0  0  0  0  0  0  0  0
  160.6350  211.3970  154.7010 C   0  0  0  0  0  1  0  0  0  0  0  0
  160.5090  213.3480  150.3200 C   0  0  1  0  0  3  0  0  0  0  0  0
  160.7390  211.0700  151.2910 C   0  0  0  0  0  0  0  0  0  0  0  0
  161.9690  213.5380  146.8520 C   0  0  0  0  0  2  0  0  0  0  0  0
  160.7570  211.8840  150.0260 C   0  0  2  0  0  3  0  0  0  0  0  0
  159.1650  212.7530  152.3110 C   0  0  0  0  0  2  0  0  0  0  0  0
  160.6540  214.0840  149.0090 C   0  0  0  0  0  2  0  0  0  0  0  0
  160.4860  209.2670  153.4530 C   0  0  0  0  0  0  0  0  0  0  0  0
  161.4170  209.8040  151.3020 N   0  0  0  0  0  0  0  0  0  0  0  0
  159.1400  213.4690  150.9540 C   0  0  0  0  0  2  0  0  0  0  0  0
  160.9500  207.0090  154.2910 C   0  0  0  0  0  3  0  0  0  0  0  0
  159.8970  210.6410  153.6060 C   0  0  0  0  0  0  0  0  0  0  0  0
  160.3130  208.3380  154.4000 C   0  0  0  0  0  3  0  0  0  0  0  0
  162.9280  214.2420  147.8100 C   0  0  0  0  0  2  0  0  0  0  0  0
  161.8130  213.3770  148.3420 C   0  0  0  0  0  0  0  0  0  0  0  0
  159.9350  211.4400  152.3240 C   0  0  0  0  0  0  0  0  0  0  0  0
  161.7360  206.7100  153.2500 C   0  0  0  0  0  3  0  0  0  0  0  0
  161.3190  208.9530  152.2780 C   0  0  2  0  0  3  0  0  0  0  0  0
  162.8630  207.3250  151.1130 C   0  0  0  0  0  2  0  0  0  0  0  0
  162.0810  207.0230  149.8800 C   0  0  0  0  0  0  0  0  0  0  0  0
  160.6540  206.4220  147.5490 C   0  0  0  0  0  0  0  0  0  0  0  0
  161.0980  206.0280  149.8970 C   0  0  0  0  0  3  0  0  0  0  0  0
  162.3550  207.7110  148.6920 C   0  0  0  0  0  3  0  0  0  0  0  0
  161.6420  207.4130  147.5290 C   0  0  0  0  0  3  0  0  0  0  0  0
  159.9450  206.1260  146.3930 O   0  0  0  0  0  1  0  0  0  0  0  0
  160.3830  205.7290  148.7320 C   0  0  0  0  0  3  0  0  0  0  0  0
  1 20  1  0  0  0  0
  1 19  1  0  0  0  0
  4  9  1  6  0  0  0
  4 12  1  0  0  0  0
  5 11  2  0  0  0  0
  5 18  1  0  0  0  0
  6 16  1  0  0  0  0
  6 17  1  0  0  0  0
  7  2  1  1  0  0  0
  7  4  1  0  0  0  0
  7  5  1  0  0  0  0
  8 18  1  0  0  0  0
 10 14  1  0  0  0  0
 10 15  2  0  0  0  0
 12  8  1  0  0  0  0
 13 15  1  0  0  0  0
 14  3  1  0  0  0  0
 16 17  1  0  0  0  0
 17  9  1  0  0  0  0
 17  2  1  0  0  0  0
 18 14  2  0  0  0  0
 19 13  2  0  0  0  0
 20 11  1  6  0  0  0
 20 10  1  0  0  0  0
 21  1  1  0  0  0  0
 22 24  1  0  0  0  0
 22 21  1  0  0  0  0
 23 28  1  0  0  0  0
 25 22  2  0  0  0  0
 26 23  2  0  0  0  0
 26 25  1  0  0  0  0
 27 23  1  0  0  0  0
 28 24  2  0  0  0  0
M  END
>  <MODEL>
5

>  <REMARK>
 VINA RESULT:      -6.6      2.639      6.300
  Name = 
  2 active torsions:
  status: ('A' for Active; 'I' for Inactive)
    1  A    between atoms: N_1  and  C_2
    2  A    between atoms: C_2  and  C_3
                            x       y       z     vdW  Elec       q    Type
                         _______ _______ _______ _____ _____    ______ ____

>  <TORSDO>
F 2

$$$$
=
 OpenBabel11052423003D

 28 33  0  0  1  0  0  0  0  0999 V2000
  160.8890  209.8870  153.5030 N   0  0  0  0  0  0  0  0  0  0  0  0
  161.5980  212.5620  149.1150 S   0  0  0  0  0  0  0  0  0  0  0  0
  158.8440  214.0480  154.1060 C   0  0  0  0  0  1  0  0  0  0  0  0
  159.4960  214.2220  149.3560 C   0  0  1  0  0  3  0  0  0  0  0  0
  159.6650  212.5120  151.1530 C   0  0  0  0  0  0  0  0  0  0  0  0
  161.6220  213.3240  146.3760 C   0  0  0  0  0  2  0  0  0  0  0  0
  159.8900  212.8000  149.6950 C   0  0  2  0  0  3  0  0  0  0  0  0
  157.8130  214.2210  151.1700 C   0  0  0  0  0  2  0  0  0  0  0  0
  159.8610  214.4380  147.9050 C   0  0  0  0  0  2  0  0  0  0  0  0
  159.0870  211.6100  153.7690 C   0  0  0  0  0  0  0  0  0  0  0  0
  160.4040  211.4420  151.7640 N   0  0  0  0  0  0  0  0  0  0  0  0
  158.0220  214.3800  149.6570 C   0  0  0  0  0  2  0  0  0  0  0  0
  159.5100  209.9020  155.4780 C   0  0  0  0  0  3  0  0  0  0  0  0
  158.3950  212.8510  153.2800 C   0  0  0  0  0  0  0  0  0  0  0  0
  158.7830  211.0790  154.9580 C   0  0  0  0  0  3  0  0  0  0  0  0
  162.3180  214.4530  147.1330 C   0  0  0  0  0  2  0  0  0  0  0  0
  161.1740  213.7000  147.7650 C   0  0  0  0  0  0  0  0  0  0  0  0
  158.6450  213.1220  151.8150 C   0  0  0  0  0  0  0  0  0  0  0  0
  160.5100  209.3520  154.7790 C   0  0  0  0  0  3  0  0  0  0  0  0
  160.1620  211.0040  152.9620 C   0  0  2  0  0  3  0  0  0  0  0  0
  162.0100  209.2880  152.7890 C   0  0  0  0  0  2  0  0  0  0  0  0
  161.5930  208.0090  152.1460 C   0  0  0  0  0  0  0  0  0  0  0  0
  160.8610  205.6030  150.9190 C   0  0  0  0  0  0  0  0  0  0  0  0
  161.5950  206.8190  152.8810 C   0  0  0  0  0  3  0  0  0  0  0  0
  161.2320  207.9920  150.7930 C   0  0  0  0  0  3  0  0  0  0  0  0
  160.8650  206.7910  150.1810 C   0  0  0  0  0  3  0  0  0  0  0  0
  160.4960  204.4090  150.3120 O   0  0  0  0  0  1  0  0  0  0  0  0
  161.2260  205.6160  152.2690 C   0  0  0  0  0  3  0  0  0  0  0  0
  1 19  1  0  0  0  0
  4  9  1  6  0  0  0
  4 12  1  0  0  0  0
  4  7  1  0  0  0  0
  5 11  2  0  0  0  0
  5 18  1  0  0  0  0
  6 16  1  0  0  0  0
  6 17  1  0  0  0  0
  7  2  1  1  0  0  0
  7  5  1  0  0  0  0
  8 18  1  0  0  0  0
 10 15  2  0  0  0  0
 12  8  1  0  0  0  0
 14 10  1  0  0  0  0
 14  3  1  0  0  0  0
 15 13  1  0  0  0  0
 16 17  1  0  0  0  0
 17  9  1  0  0  0  0
 17  2  1  0  0  0  0
 18 14  2  0  0  0  0
 19 13  2  0  0  0  0
 20 11  1  6  0  0  0
 20  1  1  0  0  0  0
 20 10  1  0  0  0  0
 21  1  1  0  0  0  0
 22 21  1  0  0  0  0
 22 24  1  0  0  0  0
 23 28  1  0  0  0  0
 25 22  2  0  0  0  0
 26 25  1  0  0  0  0
 26 23  2  0  0  0  0
 27 23  1  0  0  0  0
 28 24  2  0  0  0  0
M  END
>  <MODEL>
6

>  <REMARK>
 VINA RESULT:      -6.5      3.480      7.637
  Name = 
  2 active torsions:
  status: ('A' for Active; 'I' for Inactive)
    1  A    between atoms: N_1  and  C_2
    2  A    between atoms: C_2  and  C_3
                            x       y       z     vdW  Elec       q    Type
                         _______ _______ _______ _____ _____    ______ ____

>  <TORSDO>
F 2

$$$$
=
 OpenBabel11052423003D

 28 33  0  0  1  0  0  0  0  0999 V2000
  161.4260  206.6790  151.1760 N   0  0  0  0  0  0  0  0  0  0  0  0
  160.0310  211.6580  151.5970 S   0  0  0  0  0  0  0  0  0  0  0  0
  161.8880  207.8410  155.6810 C   0  0  0  0  0  1  0  0  0  0  0  0
  159.3400  211.6250  154.1950 C   0  0  1  0  0  3  0  0  0  0  0  0
  160.0080  209.4100  153.2830 C   0  0  0  0  0  0  0  0  0  0  0  0
  158.5550  214.0830  151.4480 C   0  0  0  0  0  2  0  0  0  0  0  0
  159.3260  210.7160  152.9840 C   0  0  2  0  0  3  0  0  0  0  0  0
  159.3610  209.6650  155.7050 C   0  0  0  0  0  2  0  0  0  0  0  0
  158.7320  212.9380  153.7590 C   0  0  0  0  0  2  0  0  0  0  0  0
  160.9790  206.7800  153.6410 C   0  0  0  0  0  0  0  0  0  0  0  0
  160.5270  208.6400  152.1870 N   0  0  0  0  0  0  0  0  0  0  0  0
  158.5860  210.9290  155.3070 C   0  0  0  0  0  2  0  0  0  0  0  0
  161.7630  204.7290  152.5480 C   0  0  0  0  0  3  0  0  0  0  0  0
  160.6310  207.5780  154.8660 C   0  0  0  0  0  0  0  0  0  0  0  0
  161.3490  205.4980  153.7400 C   0  0  0  0  0  3  0  0  0  0  0  0
  159.9130  214.4530  152.0420 C   0  0  0  0  0  2  0  0  0  0  0  0
  159.2760  213.1230  152.3590 C   0  0  0  0  0  0  0  0  0  0  0  0
  159.9540  208.8880  154.5380 C   0  0  0  0  0  0  0  0  0  0  0  0
  161.8000  205.3040  151.3410 C   0  0  0  0  0  3  0  0  0  0  0  0
  160.9780  207.4300  152.3180 C   0  0  2  0  0  3  0  0  0  0  0  0
  161.5190  207.2840  149.8530 C   0  0  0  0  0  2  0  0  0  0  0  0
  161.5350  206.2280  148.7990 C   0  0  0  0  0  0  0  0  0  0  0  0
  161.6120  204.2300  146.8430 C   0  0  0  0  0  0  0  0  0  0  0  0
  160.8300  205.0350  148.9890 C   0  0  0  0  0  3  0  0  0  0  0  0
  162.2850  206.4170  147.6320 C   0  0  0  0  0  3  0  0  0  0  0  0
  162.3220  205.4200  146.6540 C   0  0  0  0  0  3  0  0  0  0  0  0
  161.6470  203.2390  145.8710 O   0  0  0  0  0  1  0  0  0  0  0  0
  160.8660  204.0370  148.0090 C   0  0  0  0  0  3  0  0  0  0  0  0
  1 19  1  0  0  0  0
  1 20  1  0  0  0  0
  2 17  1  0  0  0  0
  4  9  1  6  0  0  0
  4 12  1  0  0  0  0
  5 18  1  0  0  0  0
  6 16  1  0  0  0  0
  6 17  1  0  0  0  0
  7  2  1  6  0  0  0
  7  5  1  0  0  0  0
  7  4  1  0  0  0  0
 10 15  2  0  0  0  0
 10 14  1  0  0  0  0
 11  5  2  0  0  0  0
 12  8  1  0  0  0  0
 13 15  1  0  0  0  0
 14  3  1  0  0  0  0
 16 17  1  0  0  0  0
 17  9  1  0  0  0  0
 18 14  2  0  0  0  0
 18  8  1  0  0  0  0
 19 13  2  0  0  0  0
 20 11  1  6  0  0  0
 20 10  1  0  0  0  0
 21  1  1  0  0  0  0
 22 24  1  0  0  0  0
 22 21  1  0  0  0  0
 23 28  1  0  0  0  0
 25 22  2  0  0  0  0
 26 23  2  0  0  0  0
 26 25  1  0  0  0  0
 27 23  1  0  0  0  0
 28 24  2  0  0  0  0
M  END
>  <MODEL>
7

>  <REMARK>
 VINA RESULT:      -6.5      3.744      5.409
  Name = 
  2 active torsions:
  status: ('A' for Active; 'I' for Inactive)
    1  A    between atoms: N_1  and  C_2
    2  A    between atoms: C_2  and  C_3
                            x       y       z     vdW  Elec       q    Type
                         _______ _______ _______ _____ _____    ______ ____

>  <TORSDO>
F 2

$$$$
=
 OpenBabel11052423003D

 28 33  0  0  1  0  0  0  0  0999 V2000
  161.6290  207.7510  152.0090 N   0  0  0  0  0  0  0  0  0  0  0  0
  161.2590  206.1850  147.0770 S   0  0  0  0  0  0  0  0  0  0  0  0
  159.4160  203.6330  152.0560 C   0  0  0  0  0  1  0  0  0  0  0  0
  161.0530  203.5460  147.5470 C   0  0  1  0  0  3  0  0  0  0  0  0
  161.4090  204.9250  149.5840 C   0  0  0  0  0  0  0  0  0  0  0  0
  161.9080  205.4500  144.4090 C   0  0  0  0  0  2  0  0  0  0  0  0
  161.7270  204.7720  148.1230 C   0  0  2  0  0  3  0  0  0  0  0  0
  161.1340  202.4260  149.7520 C   0  0  0  0  0  2  0  0  0  0  0  0
  161.3470  203.5450  146.0640 C   0  0  0  0  0  2  0  0  0  0  0  0
  161.2070  205.3070  152.3780 C   0  0  0  0  0  0  0  0  0  0  0  0
  161.5260  206.2270  150.1800 N   0  0  0  0  0  0  0  0  0  0  0  0
  161.5790  202.3350  148.2860 C   0  0  0  0  0  2  0  0  0  0  0  0
  161.4680  206.8740  154.2470 C   0  0  0  0  0  3  0  0  0  0  0  0
  160.8870  203.9470  151.8250 C   0  0  0  0  0  0  0  0  0  0  0  0
  161.2260  205.5230  153.6980 C   0  0  0  0  0  3  0  0  0  0  0  0
  160.3860  205.3620  144.5110 C   0  0  0  0  0  2  0  0  0  0  0  0
  161.2540  205.0090  145.6930 C   0  0  0  0  0  0  0  0  0  0  0  0
  161.2090  203.8220  150.3540 C   0  0  0  0  0  0  0  0  0  0  0  0
  161.6510  207.9200  153.4340 C   0  0  0  0  0  3  0  0  0  0  0  0
  161.4400  206.4350  151.4590 C   0  0  2  0  0  3  0  0  0  0  0  0
  161.7910  208.9200  151.1540 C   0  0  0  0  0  2  0  0  0  0  0  0
  160.9690  210.0550  151.6650 C   0  0  0  0  0  0  0  0  0  0  0  0
  159.3910  212.1760  152.5810 C   0  0  0  0  0  0  0  0  0  0  0  0
  160.0180  209.8380  152.6680 C   0  0  0  0  0  3  0  0  0  0  0  0
  161.1230  211.3330  151.1150 C   0  0  0  0  0  3  0  0  0  0  0  0
  160.3370  212.3920  151.5730 C   0  0  0  0  0  3  0  0  0  0  0  0
  158.6100  213.2290  153.0370 O   0  0  0  0  0  1  0  0  0  0  0  0
  159.2310  210.9000  153.1280 C   0  0  0  0  0  3  0  0  0  0  0  0
  1 19  1  0  0  0  0
  4  9  1  6  0  0  0
  4  7  1  0  0  0  0
  4 12  1  0  0  0  0
  5 11  2  0  0  0  0
  5 18  1  0  0  0  0
  6 16  1  0  0  0  0
  6 17  1  0  0  0  0
  7  2  1  6  0  0  0
  7  5  1  0  0  0  0
  8 18  1  0  0  0  0
 10 15  2  0  0  0  0
 12  8  1  0  0  0  0
 14  3  1  0  0  0  0
 14 10  1  0  0  0  0
 15 13  1  0  0  0  0
 16 17  1  0  0  0  0
 17  9  1  0  0  0  0
 17  2  1  0  0  0  0
 18 14  2  0  0  0  0
 19 13  2  0  0  0  0
 20 11  1  1  0  0  0
 20  1  1  0  0  0  0
 20 10  1  0  0  0  0
 21 22  1  0  0  0  0
 21  1  1  0  0  0  0
 22 24  1  0  0  0  0
 23 27  1  0  0  0  0
 23 28  1  0  0  0  0
 24 28  2  0  0  0  0
 25 26  1  0  0  0  0
 25 22  2  0  0  0  0
 26 23  2  0  0  0  0
M  END
>  <MODEL>
8

>  <REMARK>
 VINA RESULT:      -6.4      3.758      7.311
  Name = 
  2 active torsions:
  status: ('A' for Active; 'I' for Inactive)
    1  A    between atoms: N_1  and  C_2
    2  A    between atoms: C_2  and  C_3
                            x       y       z     vdW  Elec       q    Type
                         _______ _______ _______ _____ _____    ______ ____

>  <TORSDO>
F 2

$$$$
=
 OpenBabel11052423003D

 28 33  0  0  1  0  0  0  0  0999 V2000
  161.6750  212.2130  148.6070 N   0  0  0  0  0  0  0  0  0  0  0  0
  160.0790  211.6330  153.5090 S   0  0  0  0  0  0  0  0  0  0  0  0
  157.0590  212.9550  148.6270 C   0  0  0  0  0  1  0  0  0  0  0  0
  157.8630  213.1490  153.3530 C   0  0  1  0  0  3  0  0  0  0  0  0
  159.2290  213.1120  151.2750 C   0  0  0  0  0  0  0  0  0  0  0  0
  159.8170  211.9060  156.3260 C   0  0  0  0  0  2  0  0  0  0  0  0
  159.2630  213.0860  152.7780 C   0  0  2  0  0  3  0  0  0  0  0  0
  157.0770  214.4170  151.3790 C   0  0  0  0  0  2  0  0  0  0  0  0
  158.0030  213.0080  154.8510 C   0  0  0  0  0  2  0  0  0  0  0  0
  159.4830  213.4230  148.4770 C   0  0  0  0  0  0  0  0  0  0  0  0
  160.3520  212.5810  150.5540 N   0  0  0  0  0  0  0  0  0  0  0  0
  157.2360  214.4510  152.9060 C   0  0  0  0  0  2  0  0  0  0  0  0
  160.9360  213.1600  146.5190 C   0  0  0  0  0  3  0  0  0  0  0  0
  158.1910  213.8430  149.1210 C   0  0  2  0  0  3  0  0  0  0  0  0
  159.7000  213.6360  147.1750 C   0  0  0  0  0  3  0  0  0  0  0  0
  158.8310  210.8130  155.9160 C   0  0  0  0  0  2  0  0  0  0  0  0
  159.1040  211.9810  155.0010 C   0  0  0  0  0  0  0  0  0  0  0  0
  158.2490  213.8000  150.6310 C   0  0  0  0  0  0  0  0  0  0  0  0
  161.8600  212.4830  147.2100 C   0  0  0  0  0  3  0  0  0  0  0  0
  160.4990  212.7080  149.2700 C   0  0  0  0  0  0  0  0  0  0  0  0
  162.6830  211.4360  149.3170 C   0  0  0  0  0  2  0  0  0  0  0  0
  162.1870  210.0520  149.5730 C   0  0  0  0  0  0  0  0  0  0  0  0
  161.3090  207.4390  150.0490 C   0  0  0  0  0  0  0  0  0  0  0  0
  161.9700  209.6150  150.8830 C   0  0  0  0  0  3  0  0  0  0  0  0
  161.9720  209.1780  148.5010 C   0  0  0  0  0  3  0  0  0  0  0  0
  161.5320  207.8740  148.7380 C   0  0  0  0  0  3  0  0  0  0  0  0
  160.8710  206.1430  150.2850 O   0  0  0  0  0  1  0  0  0  0  0  0
  161.5280  208.3090  151.1210 C   0  0  0  0  0  3  0  0  0  0  0  0
  1 20  1  0  0  0  0
  1 21  1  0  0  0  0
  2 17  1  0  0  0  0
  4 12  1  1  0  0  0
  4  9  1  0  0  0  0
  7  5  1  6  0  0  0
  7  4  1  0  0  0  0
  7  2  1  0  0  0  0
  8 12  1  0  0  0  0
  9 17  1  0  0  0  0
 10 14  1  0  0  0  0
 10 20  1  0  0  0  0
 11  5  1  0  0  0  0
 13 15  1  0  0  0  0
 13 19  2  0  0  0  0
 14  3  1  6  0  0  0
 14 18  1  0  0  0  0
 15 10  2  0  0  0  0
 16  6  1  0  0  0  0
 17 16  1  0  0  0  0
 17  6  1  0  0  0  0
 18  5  2  0  0  0  0
 18  8  1  0  0  0  0
 19  1  1  0  0  0  0
 20 11  2  0  0  0  0
 21 22  1  0  0  0  0
 22 24  1  0  0  0  0
 23 27  1  0  0  0  0
 23 28  1  0  0  0  0
 24 28  2  0  0  0  0
 25 26  1  0  0  0  0
 25 22  2  0  0  0  0
 26 23  2  0  0  0  0
M  END
>  <MODEL>
9

>  <REMARK>
 VINA RESULT:      -6.2      3.512      5.816
  Name = 
  2 active torsions:
  status: ('A' for Active; 'I' for Inactive)
    1  A    between atoms: N_1  and  C_2
    2  A    between atoms: C_2  and  C_3
                            x       y       z     vdW  Elec       q    Type
                         _______ _______ _______ _____ _____    ______ ____

>  <TORSDO>
F 2

$$$$
