=
 OpenBabel11062409223D

 37 41  0  0  1  0  0  0  0  0999 V2000
  162.1680  210.6900  153.5160 O   0  0  0  0  0  1  0  0  0  0  0  0
  160.8920  210.5480  154.0910 C   0  0  1  0  0  0  0  0  0  0  0  0
  163.1280  211.0010  156.6640 O   0  0  0  0  0  1  0  0  0  0  0  0
  162.4710  209.9720  155.9890 C   0  0  2  0  0  3  0  0  0  0  0  0
  160.9590  208.8050  157.1180 C   0  0  1  0  0  3  0  0  0  0  0  0
  161.0790  210.4140  155.6110 C   0  0  2  0  0  3  0  0  0  0  0  0
  162.3340  208.8710  156.8320 O   0  0  0  0  0  0  0  0  0  0  0  0
  160.2090  209.4550  156.1280 O   0  0  0  0  0  0  0  0  0  0  0  0
  160.5130  207.3550  157.2610 C   0  0  0  0  0  2  0  0  0  0  0  0
  159.4010  207.0140  156.2810 C   0  0  0  0  0  1  0  0  0  0  0  0
  160.0370  211.8150  153.7830 C   0  0  2  0  0  3  0  0  0  0  0  0
  158.9560  212.1860  154.8160 C   0  0  1  0  0  3  0  0  0  0  0  0
  158.9940  213.5440  155.1410 O   0  0  0  0  0  1  0  0  0  0  0  0
  157.5580  211.7770  154.3860 C   0  0  0  0  0  2  0  0  0  0  0  0
  157.1410  210.6680  155.1220 O   0  0  0  0  0  1  0  0  0  0  0  0
  159.4600  211.7400  152.5100 O   0  0  0  0  0  0  0  0  0  0  0  0
  159.8610  212.9080  151.8610 C   0  0  0  0  0  2  0  0  0  0  0  0
  159.5420  213.9720  149.6630 C   0  0  2  0  0  0  0  0  0  0  0  0
  159.8530  212.6820  150.3630 C   0  0  1  0  0  3  0  0  0  0  0  0
  160.8550  213.4230  149.7810 O   0  0  0  0  0  0  0  0  0  0  0  0
  159.5170  214.4530  148.2160 C   0  0  2  0  0  3  0  0  0  0  0  0
  158.7160  213.4220  148.6400 O   0  0  0  0  0  0  0  0  0  0  0  0
  160.0030  213.9690  146.1130 C   0  0  0  0  0  1  0  0  0  0  0  0
  160.5320  213.9330  147.4030 O   0  0  0  0  0  0  0  0  0  0  0  0
  160.2650  209.3630  153.6260 O   0  0  0  0  0  0  0  0  0  0  0  0
  160.8010  208.9930  152.3800 C   0  0  0  0  0  2  0  0  0  0  0  0
  161.6890  207.7680  152.5490 C   0  0  1  0  0  3  0  0  0  0  0  0
  160.8570  206.5000  152.3020 C   0  0  0  0  0  0  0  0  0  0  0  0
  161.4030  205.0690  152.4030 C   0  0  0  0  0  2  0  0  0  0  0  0
  161.9060  206.9930  151.2950 C   0  0  1  0  0  3  0  0  0  0  0  0
  161.1900  205.8280  153.6420 C   0  0  0  0  0  2  0  0  0  0  0  0
  161.2540  207.5540  150.1770 O   0  0  0  0  0  0  0  0  0  0  0  0
  161.7680  206.9690  148.9950 C   0  0  1  0  0  3  0  0  0  0  0  0
  160.7910  206.0040  148.3290 C   0  0  0  0  0  2  0  0  0  0  0  0
  161.1160  204.5760  148.7210 C   0  0  0  0  0  1  0  0  0  0  0  0
  162.3140  207.9940  148.0040 C   0  0  0  0  0  2  0  0  0  0  0  0
  162.2640  209.2690  148.5660 O   0  0  0  0  0  1  0  0  0  0  0  0
  2  1  1  6  0  0  0
  4  3  1  1  0  0  0
  4  7  1  0  0  0  0
  5  9  1  6  0  0  0
  6  2  1  6  0  0  0
  6  4  1  0  0  0  0
  6  8  1  0  0  0  0
  7  5  1  0  0  0  0
  8  5  1  0  0  0  0
 10  9  1  0  0  0  0
 11 16  1  6  0  0  0
 11  2  1  0  0  0  0
 11 12  1  0  0  0  0
 12 13  1  6  0  0  0
 14 12  1  0  0  0  0
 14 15  1  0  0  0  0
 17 16  1  0  0  0  0
 18 22  1  6  0  0  0
 18 20  1  0  0  0  0
 18 19  1  0  0  0  0
 19 17  1  1  0  0  0
 20 19  1  0  0  0  0
 21 24  1  6  0  0  0
 21 22  1  0  0  0  0
 21 18  1  0  0  0  0
 23 24  1  0  0  0  0
 25  2  1  0  0  0  0
 26 25  1  0  0  0  0
 27 26  1  6  0  0  0
 28 29  1  0  0  0  0
 28 27  1  0  0  0  0
 28 31  1  0  0  0  0
 29 31  1  0  0  0  0
 30 32  1  6  0  0  0
 30 28  1  0  0  0  0
 30 27  1  0  0  0  0
 33 36  1  6  0  0  0
 33 32  1  0  0  0  0
 34 35  1  0  0  0  0
 34 33  1  0  0  0  0
 36 37  1  0  0  0  0
M  END
>  <MODEL>
1

>  <REMARK>
 VINA RESULT:      -5.7      0.000      0.000
  Name = 
  16 active torsions:
  status: ('A' for Active; 'I' for Inactive)
    1  A    between atoms: C_1  and  C_36
    2  A    between atoms: C_3  and  C_21
    3  A    between atoms: C_4  and  C_10
    4  A    between atoms: C_4  and  C_22
    5  A    between atoms: C_6  and  C_31
    6  A    between atoms: C_7  and  C_33
    7  A    between atoms: C_10  and  O_14
    8  A    between atoms: C_10  and  C_20
    9  A    between atoms: C_11  and  C_33
   10  A    between atoms: O_14  and  C_31
   11  A    between atoms: C_17  and  O_26
   12  A    between atoms: C_18  and  O_19
   13  A    between atoms: C_20  and  C_24
   14  A    between atoms: C_20  and  O_29
   15  A    between atoms: O_26  and  C_33
   16  A    between atoms: O_29  and  C_36
                            x       y       z     vdW  Elec       q    Type
                         _______ _______ _______ _____ _____    ______ ____

>  <TORSDO>
F 16

$$$$
=
 OpenBabel11062409223D

 37 41  0  0  1  0  0  0  0  0999 V2000
  162.2270  210.7330  153.0910 O   0  0  0  0  0  1  0  0  0  0  0  0
  160.8620  210.6410  153.4160 C   0  0  1  0  0  0  0  0  0  0  0  0
  162.5110  211.0400  156.4060 O   0  0  0  0  0  1  0  0  0  0  0  0
  162.0800  210.0250  155.5520 C   0  0  2  0  0  3  0  0  0  0  0  0
  160.4740  208.6800  156.2820 C   0  0  1  0  0  3  0  0  0  0  0  0
  160.7580  210.4040  154.9310 C   0  0  2  0  0  3  0  0  0  0  0  0
  161.8680  208.8570  156.2800 O   0  0  0  0  0  0  0  0  0  0  0  0
  159.8820  209.3540  155.2030 O   0  0  0  0  0  0  0  0  0  0  0  0
  160.1240  207.1980  156.2420 C   0  0  0  0  0  2  0  0  0  0  0  0
  160.4260  206.5890  154.8810 C   0  0  0  0  0  1  0  0  0  0  0  0
  160.1460  211.9770  153.0490 C   0  0  2  0  0  3  0  0  0  0  0  0
  159.1020  212.4990  154.0540 C   0  0  1  0  0  3  0  0  0  0  0  0
  159.0260  213.8930  154.0460 O   0  0  0  0  0  1  0  0  0  0  0  0
  157.7260  211.8860  153.8550 C   0  0  0  0  0  2  0  0  0  0  0  0
  156.7430  212.7780  154.2830 O   0  0  0  0  0  1  0  0  0  0  0  0
  159.5740  211.9120  151.7740 O   0  0  0  0  0  0  0  0  0  0  0  0
  159.9360  213.1090  151.1530 C   0  0  0  0  0  2  0  0  0  0  0  0
  160.0150  213.5360  148.7290 C   0  0  2  0  0  0  0  0  0  0  0  0
  160.6730  212.8090  149.8650 C   0  0  1  0  0  3  0  0  0  0  0  0
  161.2180  213.9680  149.3660 O   0  0  0  0  0  0  0  0  0  0  0  0
  160.3240  213.7680  147.2540 C   0  0  2  0  0  3  0  0  0  0  0  0
  160.1510  212.5020  147.7570 O   0  0  0  0  0  0  0  0  0  0  0  0
  161.7710  213.7410  145.5810 C   0  0  0  0  0  1  0  0  0  0  0  0
  161.6790  213.9550  146.9570 O   0  0  0  0  0  0  0  0  0  0  0  0
  160.2680  209.5290  152.7630 O   0  0  0  0  0  0  0  0  0  0  0  0
  161.2660  208.7130  152.2010 C   0  0  0  0  0  2  0  0  0  0  0  0
  160.9600  208.4720  150.7290 C   0  0  1  0  0  3  0  0  0  0  0  0
  162.2640  208.1480  149.9850 C   0  0  0  0  0  0  0  0  0  0  0  0
  162.3600  207.8660  148.4790 C   0  0  0  0  0  2  0  0  0  0  0  0
  161.2060  207.0740  150.2750 C   0  0  1  0  0  3  0  0  0  0  0  0
  162.1180  209.2450  148.9220 C   0  0  0  0  0  2  0  0  0  0  0  0
  161.6670  206.2290  151.3060 O   0  0  0  0  0  0  0  0  0  0  0  0
  161.5210  204.8800  150.9030 C   0  0  1  0  0  3  0  0  0  0  0  0
  160.9220  203.9910  151.9910 C   0  0  0  0  0  2  0  0  0  0  0  0
  161.3320  202.5480  151.7720 C   0  0  0  0  0  1  0  0  0  0  0  0
  160.7840  204.7230  149.5760 C   0  0  0  0  0  2  0  0  0  0  0  0
  161.2210  203.5690  148.9260 O   0  0  0  0  0  1  0  0  0  0  0  0
  2  1  1  6  0  0  0
  4  7  1  0  0  0  0
  4  3  1  1  0  0  0
  5  9  1  6  0  0  0
  6  2  1  6  0  0  0
  6  8  1  0  0  0  0
  6  4  1  0  0  0  0
  7  5  1  0  0  0  0
  8  5  1  0  0  0  0
 10  9  1  0  0  0  0
 11 16  1  6  0  0  0
 11  2  1  0  0  0  0
 11 12  1  0  0  0  0
 12 13  1  6  0  0  0
 14 12  1  0  0  0  0
 14 15  1  0  0  0  0
 17 16  1  0  0  0  0
 18 22  1  6  0  0  0
 18 20  1  0  0  0  0
 18 19  1  0  0  0  0
 19 17  1  1  0  0  0
 20 19  1  0  0  0  0
 21 24  1  1  0  0  0
 21 22  1  0  0  0  0
 21 18  1  0  0  0  0
 23 24  1  0  0  0  0
 25  2  1  0  0  0  0
 26 25  1  0  0  0  0
 27 26  1  1  0  0  0
 28 30  1  0  0  0  0
 28 27  1  0  0  0  0
 29 31  1  0  0  0  0
 29 28  1  0  0  0  0
 30 27  1  0  0  0  0
 30 32  1  1  0  0  0
 31 28  1  0  0  0  0
 33 36  1  6  0  0  0
 33 32  1  0  0  0  0
 33 34  1  0  0  0  0
 35 34  1  0  0  0  0
 37 36  1  0  0  0  0
M  END
>  <MODEL>
2

>  <REMARK>
 VINA RESULT:      -5.6      1.392      2.320
  Name = 
  16 active torsions:
  status: ('A' for Active; 'I' for Inactive)
    1  A    between atoms: C_1  and  C_36
    2  A    between atoms: C_3  and  C_21
    3  A    between atoms: C_4  and  C_10
    4  A    between atoms: C_4  and  C_22
    5  A    between atoms: C_6  and  C_31
    6  A    between atoms: C_7  and  C_33
    7  A    between atoms: C_10  and  O_14
    8  A    between atoms: C_10  and  C_20
    9  A    between atoms: C_11  and  C_33
   10  A    between atoms: O_14  and  C_31
   11  A    between atoms: C_17  and  O_26
   12  A    between atoms: C_18  and  O_19
   13  A    between atoms: C_20  and  C_24
   14  A    between atoms: C_20  and  O_29
   15  A    between atoms: O_26  and  C_33
   16  A    between atoms: O_29  and  C_36
                            x       y       z     vdW  Elec       q    Type
                         _______ _______ _______ _____ _____    ______ ____

>  <TORSDO>
F 16

$$$$
=
 OpenBabel11062409223D

 37 41  0  0  1  0  0  0  0  0999 V2000
  163.1490  207.0370  150.8540 O   0  0  0  0  0  1  0  0  0  0  0  0
  161.8550  207.5870  150.8080 C   0  0  1  0  0  0  0  0  0  0  0  0
  161.4770  207.3940  154.2200 O   0  0  0  0  0  1  0  0  0  0  0  0
  161.8650  206.5980  153.1420 C   0  0  2  0  0  3  0  0  0  0  0  0
  160.5590  204.8870  152.6070 C   0  0  1  0  0  3  0  0  0  0  0  0
  161.0310  206.9350  151.9310 C   0  0  2  0  0  3  0  0  0  0  0  0
  161.6280  205.2590  153.4400 O   0  0  0  0  0  0  0  0  0  0  0  0
  160.4730  205.7350  151.4930 O   0  0  0  0  0  0  0  0  0  0  0  0
  160.7070  203.4370  152.1640 C   0  0  0  0  0  2  0  0  0  0  0  0
  162.0840  203.1700  151.5760 C   0  0  0  0  0  1  0  0  0  0  0  0
  161.9330  209.1270  151.0490 C   0  0  2  0  0  3  0  0  0  0  0  0
  161.3910  209.6430  152.3950 C   0  0  1  0  0  3  0  0  0  0  0  0
  162.3710  210.3200  153.1230 O   0  0  0  0  0  1  0  0  0  0  0  0
  160.1460  210.5010  152.2450 C   0  0  0  0  0  2  0  0  0  0  0  0
  160.4460  211.8290  152.5490 O   0  0  0  0  0  1  0  0  0  0  0  0
  161.3330  209.8340  150.0020 O   0  0  0  0  0  0  0  0  0  0  0  0
  162.3380  210.6650  149.5030 C   0  0  0  0  0  2  0  0  0  0  0  0
  162.4950  212.4530  147.8180 C   0  0  2  0  0  0  0  0  0  0  0  0
  161.7260  211.9580  149.0060 C   0  0  1  0  0  3  0  0  0  0  0  0
  161.2400  211.7770  147.7330 O   0  0  0  0  0  0  0  0  0  0  0  0
  162.3320  213.5760  146.7990 C   0  0  2  0  0  3  0  0  0  0  0  0
  162.4460  213.8410  148.1420 O   0  0  0  0  0  0  0  0  0  0  0  0
  161.1270  214.3350  145.1060 C   0  0  0  0  0  1  0  0  0  0  0  0
  161.0130  213.8240  146.4000 O   0  0  0  0  0  0  0  0  0  0  0  0
  161.2250  207.2780  149.5740 O   0  0  0  0  0  0  0  0  0  0  0  0
  161.7530  206.0840  149.0520 C   0  0  0  0  0  2  0  0  0  0  0  0
  161.2700  205.8970  147.6200 C   0  0  1  0  0  3  0  0  0  0  0  0
  162.2820  205.0320  146.8520 C   0  0  0  0  0  0  0  0  0  0  0  0
  162.1490  204.6440  145.3730 C   0  0  0  0  0  2  0  0  0  0  0  0
  160.9080  204.4920  147.2760 C   0  0  1  0  0  3  0  0  0  0  0  0
  162.5070  206.0290  145.7070 C   0  0  0  0  0  2  0  0  0  0  0  0
  161.0690  203.5990  148.3550 O   0  0  0  0  0  0  0  0  0  0  0  0
  160.4350  202.3720  148.0430 C   0  0  1  0  0  3  0  0  0  0  0  0
  161.2260  201.5230  147.0520 C   0  0  0  0  0  2  0  0  0  0  0  0
  160.4650  201.3960  145.7480 C   0  0  0  0  0  1  0  0  0  0  0  0
  160.0320  201.5710  149.2790 C   0  0  0  0  0  2  0  0  0  0  0  0
  161.0430  200.6670  149.6060 O   0  0  0  0  0  1  0  0  0  0  0  0
  2  1  1  1  0  0  0
  2 11  1  0  0  0  0
  4  7  1  0  0  0  0
  4  3  1  1  0  0  0
  5  9  1  6  0  0  0
  5  7  1  0  0  0  0
  6  2  1  6  0  0  0
  6  4  1  0  0  0  0
  8  6  1  0  0  0  0
  8  5  1  0  0  0  0
 10  9  1  0  0  0  0
 11 16  1  6  0  0  0
 11 12  1  0  0  0  0
 12 13  1  6  0  0  0
 14 12  1  0  0  0  0
 14 15  1  0  0  0  0
 17 16  1  0  0  0  0
 18 20  1  6  0  0  0
 18 22  1  0  0  0  0
 18 19  1  0  0  0  0
 19 17  1  6  0  0  0
 20 19  1  0  0  0  0
 21 24  1  1  0  0  0
 21 18  1  0  0  0  0
 21 22  1  0  0  0  0
 23 24  1  0  0  0  0
 25  2  1  0  0  0  0
 26 25  1  0  0  0  0
 27 26  1  1  0  0  0
 28 30  1  0  0  0  0
 28 27  1  0  0  0  0
 29 31  1  0  0  0  0
 29 28  1  0  0  0  0
 30 27  1  0  0  0  0
 30 32  1  1  0  0  0
 31 28  1  0  0  0  0
 33 34  1  6  0  0  0
 33 32  1  0  0  0  0
 33 36  1  0  0  0  0
 35 34  1  0  0  0  0
 36 37  1  0  0  0  0
M  END
>  <MODEL>
3

>  <REMARK>
 VINA RESULT:      -5.3      2.614      4.993
  Name = 
  16 active torsions:
  status: ('A' for Active; 'I' for Inactive)
    1  A    between atoms: C_1  and  C_36
    2  A    between atoms: C_3  and  C_21
    3  A    between atoms: C_4  and  C_10
    4  A    between atoms: C_4  and  C_22
    5  A    between atoms: C_6  and  C_31
    6  A    between atoms: C_7  and  C_33
    7  A    between atoms: C_10  and  O_14
    8  A    between atoms: C_10  and  C_20
    9  A    between atoms: C_11  and  C_33
   10  A    between atoms: O_14  and  C_31
   11  A    between atoms: C_17  and  O_26
   12  A    between atoms: C_18  and  O_19
   13  A    between atoms: C_20  and  C_24
   14  A    between atoms: C_20  and  O_29
   15  A    between atoms: O_26  and  C_33
   16  A    between atoms: O_29  and  C_36
                            x       y       z     vdW  Elec       q    Type
                         _______ _______ _______ _____ _____    ______ ____

>  <TORSDO>
F 16

$$$$
=
 OpenBabel11062409223D

 37 41  0  0  1  0  0  0  0  0999 V2000
  162.9650  207.2560  150.5760 O   0  0  0  0  0  1  0  0  0  0  0  0
  161.6160  207.6530  150.5340 C   0  0  1  0  0  0  0  0  0  0  0  0
  161.5370  207.6540  153.9720 O   0  0  0  0  0  1  0  0  0  0  0  0
  161.8590  206.8070  152.9120 C   0  0  2  0  0  3  0  0  0  0  0  0
  160.5700  205.0300  152.5910 C   0  0  1  0  0  3  0  0  0  0  0  0
  160.9140  207.0460  151.7600 C   0  0  2  0  0  3  0  0  0  0  0  0
  161.6940  205.4810  153.3050 O   0  0  0  0  0  0  0  0  0  0  0  0
  160.3610  205.8060  151.4420 O   0  0  0  0  0  0  0  0  0  0  0  0
  160.7280  203.5600  152.2200 C   0  0  0  0  0  2  0  0  0  0  0  0
  162.1230  203.2650  151.6910 C   0  0  0  0  0  1  0  0  0  0  0  0
  161.5280  209.2090  150.6030 C   0  0  2  0  0  3  0  0  0  0  0  0
  162.2880  209.9920  149.5160 C   0  0  1  0  0  3  0  0  0  0  0  0
  162.3200  209.2990  148.3040 O   0  0  0  0  0  1  0  0  0  0  0  0
  161.7550  211.4000  149.3150 C   0  0  0  0  0  2  0  0  0  0  0  0
  161.5310  211.6330  147.9580 O   0  0  0  0  0  1  0  0  0  0  0  0
  161.8990  209.6830  151.8650 O   0  0  0  0  0  0  0  0  0  0  0  0
  161.0980  210.8050  152.0810 C   0  0  0  0  0  2  0  0  0  0  0  0
  159.4840  211.4900  153.8110 C   0  0  2  0  0  0  0  0  0  0  0  0
  159.8560  210.4010  152.8480 C   0  0  1  0  0  3  0  0  0  0  0  0
  158.8330  211.2720  152.5590 O   0  0  0  0  0  0  0  0  0  0  0  0
  158.3120  211.7700  154.7460 C   0  0  2  0  0  3  0  0  0  0  0  0
  159.0850  210.6430  154.8870 O   0  0  0  0  0  0  0  0  0  0  0  0
  156.3460  210.9700  155.3680 C   0  0  0  0  0  1  0  0  0  0  0  0
  157.0570  211.3990  154.2470 O   0  0  0  0  0  0  0  0  0  0  0  0
  160.9820  207.1400  149.3730 O   0  0  0  0  0  0  0  0  0  0  0  0
  161.6300  205.9670  148.9500 C   0  0  0  0  0  2  0  0  0  0  0  0
  161.1980  205.6280  147.5290 C   0  0  1  0  0  3  0  0  0  0  0  0
  162.3910  205.0380  146.7630 C   0  0  0  0  0  0  0  0  0  0  0  0
  162.3470  204.5960  145.2930 C   0  0  0  0  0  2  0  0  0  0  0  0
  161.2090  204.1710  147.2180 C   0  0  1  0  0  3  0  0  0  0  0  0
  162.3370  206.0330  145.5950 C   0  0  0  0  0  2  0  0  0  0  0  0
  161.6070  203.3740  148.3120 O   0  0  0  0  0  0  0  0  0  0  0  0
  161.1270  202.0550  148.1270 C   0  0  1  0  0  3  0  0  0  0  0  0
  159.9750  201.6990  149.0640 C   0  0  0  0  0  2  0  0  0  0  0  0
  160.4210  200.6540  150.0670 C   0  0  0  0  0  1  0  0  0  0  0  0
  160.7910  201.7350  146.6720 C   0  0  0  0  0  2  0  0  0  0  0  0
  161.1330  200.4130  146.3890 O   0  0  0  0  0  1  0  0  0  0  0  0
  2  1  1  1  0  0  0
  2 11  1  0  0  0  0
  4  7  1  0  0  0  0
  4  3  1  1  0  0  0
  5  9  1  6  0  0  0
  5  7  1  0  0  0  0
  6  2  1  6  0  0  0
  6  4  1  0  0  0  0
  8  6  1  0  0  0  0
  8  5  1  0  0  0  0
 10  9  1  0  0  0  0
 11 16  1  1  0  0  0
 12 13  1  6  0  0  0
 12 11  1  0  0  0  0
 14 12  1  0  0  0  0
 15 14  1  0  0  0  0
 16 17  1  0  0  0  0
 18 20  1  6  0  0  0
 18 21  1  0  0  0  0
 18 22  1  0  0  0  0
 19 17  1  6  0  0  0
 19 18  1  0  0  0  0
 20 19  1  0  0  0  0
 21 24  1  6  0  0  0
 21 22  1  0  0  0  0
 24 23  1  0  0  0  0
 25  2  1  0  0  0  0
 26 25  1  0  0  0  0
 27 26  1  1  0  0  0
 28 30  1  0  0  0  0
 28 27  1  0  0  0  0
 29 31  1  0  0  0  0
 29 28  1  0  0  0  0
 30 27  1  0  0  0  0
 30 32  1  1  0  0  0
 31 28  1  0  0  0  0
 33 36  1  6  0  0  0
 33 32  1  0  0  0  0
 33 34  1  0  0  0  0
 34 35  1  0  0  0  0
 37 36  1  0  0  0  0
M  END
>  <MODEL>
4

>  <REMARK>
 VINA RESULT:      -5.2      2.587      6.028
  Name = 
  16 active torsions:
  status: ('A' for Active; 'I' for Inactive)
    1  A    between atoms: C_1  and  C_36
    2  A    between atoms: C_3  and  C_21
    3  A    between atoms: C_4  and  C_10
    4  A    between atoms: C_4  and  C_22
    5  A    between atoms: C_6  and  C_31
    6  A    between atoms: C_7  and  C_33
    7  A    between atoms: C_10  and  O_14
    8  A    between atoms: C_10  and  C_20
    9  A    between atoms: C_11  and  C_33
   10  A    between atoms: O_14  and  C_31
   11  A    between atoms: C_17  and  O_26
   12  A    between atoms: C_18  and  O_19
   13  A    between atoms: C_20  and  C_24
   14  A    between atoms: C_20  and  O_29
   15  A    between atoms: O_26  and  C_33
   16  A    between atoms: O_29  and  C_36
                            x       y       z     vdW  Elec       q    Type
                         _______ _______ _______ _____ _____    ______ ____

>  <TORSDO>
F 16

$$$$
=
 OpenBabel11062409223D

 37 41  0  0  1  0  0  0  0  0999 V2000
  158.8530  210.7800  152.8980 O   0  0  0  0  0  1  0  0  0  0  0  0
  160.0430  211.5320  152.9070 C   0  0  1  0  0  0  0  0  0  0  0  0
  157.6660  213.9600  152.3840 O   0  0  0  0  0  1  0  0  0  0  0  0
  158.3400  212.9590  151.6860 C   0  0  2  0  0  3  0  0  0  0  0  0
  159.7540  213.5880  150.0970 C   0  0  1  0  0  3  0  0  0  0  0  0
  159.7620  212.8570  152.1810 C   0  0  2  0  0  3  0  0  0  0  0  0
  158.4020  213.2890  150.3350 O   0  0  0  0  0  0  0  0  0  0  0  0
  160.5780  212.9810  151.0570 O   0  0  0  0  0  0  0  0  0  0  0  0
  160.1590  213.1520  148.6950 C   0  0  0  0  0  2  0  0  0  0  0  0
  161.6660  212.9810  148.5750 C   0  0  0  0  0  1  0  0  0  0  0  0
  160.4640  211.8260  154.3800 C   0  0  2  0  0  3  0  0  0  0  0  0
  160.3080  210.6700  155.3860 C   0  0  1  0  0  3  0  0  0  0  0  0
  159.3710  209.7290  154.9540 O   0  0  0  0  0  1  0  0  0  0  0  0
  161.6260  209.9970  155.7270 C   0  0  0  0  0  2  0  0  0  0  0  0
  162.6840  210.7150  155.1680 O   0  0  0  0  0  1  0  0  0  0  0  0
  159.8190  212.9650  154.8740 O   0  0  0  0  0  0  0  0  0  0  0  0
  159.3140  212.5840  156.1180 C   0  0  0  0  0  2  0  0  0  0  0  0
  156.9130  213.0750  155.8800 C   0  0  2  0  0  0  0  0  0  0  0  0
  158.1950  213.5220  156.5190 C   0  0  1  0  0  3  0  0  0  0  0  0
  157.2540  212.8310  157.2450 O   0  0  0  0  0  0  0  0  0  0  0  0
  155.4450  213.4760  155.9750 C   0  0  2  0  0  3  0  0  0  0  0  0
  156.4060  214.3720  155.5760 O   0  0  0  0  0  0  0  0  0  0  0  0
  153.6580  214.1310  157.1030 C   0  0  0  0  0  1  0  0  0  0  0  0
  155.0100  213.8220  157.2610 O   0  0  0  0  0  0  0  0  0  0  0  0
  161.0650  210.8550  152.1920 O   0  0  0  0  0  0  0  0  0  0  0  0
  160.6340  209.5620  151.8460 C   0  0  0  0  0  2  0  0  0  0  0  0
  161.6290  208.5350  152.3700 C   0  0  1  0  0  3  0  0  0  0  0  0
  160.9800  207.1430  152.3480 C   0  0  0  0  0  0  0  0  0  0  0  0
  161.6690  205.8550  152.8230 C   0  0  0  0  0  2  0  0  0  0  0  0
  162.0770  207.5430  151.3510 C   0  0  1  0  0  3  0  0  0  0  0  0
  161.2280  206.8290  153.8310 C   0  0  0  0  0  2  0  0  0  0  0  0
  161.5000  207.7550  150.0820 O   0  0  0  0  0  0  0  0  0  0  0  0
  161.7630  206.6340  149.2580 C   0  0  1  0  0  3  0  0  0  0  0  0
  160.5960  205.6520  149.1910 C   0  0  0  0  0  2  0  0  0  0  0  0
  161.0730  204.2490  149.5120 C   0  0  0  0  0  1  0  0  0  0  0  0
  162.2630  207.0130  147.8670 C   0  0  0  0  0  2  0  0  0  0  0  0
  161.2560  206.7960  146.9270 O   0  0  0  0  0  1  0  0  0  0  0  0
  2  1  1  6  0  0  0
  2 11  1  0  0  0  0
  4  6  1  0  0  0  0
  4  3  1  1  0  0  0
  5  9  1  6  0  0  0
  5  7  1  0  0  0  0
  5  8  1  0  0  0  0
  6  2  1  6  0  0  0
  7  4  1  0  0  0  0
  8  6  1  0  0  0  0
 10  9  1  0  0  0  0
 11 16  1  1  0  0  0
 11 12  1  0  0  0  0
 12 13  1  6  0  0  0
 12 14  1  0  0  0  0
 15 14  1  0  0  0  0
 16 17  1  0  0  0  0
 18 22  1  1  0  0  0
 18 21  1  0  0  0  0
 18 19  1  0  0  0  0
 18 20  1  0  0  0  0
 19 17  1  6  0  0  0
 19 20  1  0  0  0  0
 21 24  1  1  0  0  0
 22 21  1  0  0  0  0
 23 24  1  0  0  0  0
 25  2  1  0  0  0  0
 26 25  1  0  0  0  0
 27 26  1  6  0  0  0
 28 27  1  0  0  0  0
 28 29  1  0  0  0  0
 28 31  1  0  0  0  0
 29 31  1  0  0  0  0
 30 32  1  6  0  0  0
 30 28  1  0  0  0  0
 30 27  1  0  0  0  0
 33 36  1  6  0  0  0
 33 32  1  0  0  0  0
 34 33  1  0  0  0  0
 34 35  1  0  0  0  0
 37 36  1  0  0  0  0
M  END
>  <MODEL>
5

>  <REMARK>
 VINA RESULT:      -5.1      1.932      5.762
  Name = 
  16 active torsions:
  status: ('A' for Active; 'I' for Inactive)
    1  A    between atoms: C_1  and  C_36
    2  A    between atoms: C_3  and  C_21
    3  A    between atoms: C_4  and  C_10
    4  A    between atoms: C_4  and  C_22
    5  A    between atoms: C_6  and  C_31
    6  A    between atoms: C_7  and  C_33
    7  A    between atoms: C_10  and  O_14
    8  A    between atoms: C_10  and  C_20
    9  A    between atoms: C_11  and  C_33
   10  A    between atoms: O_14  and  C_31
   11  A    between atoms: C_17  and  O_26
   12  A    between atoms: C_18  and  O_19
   13  A    between atoms: C_20  and  C_24
   14  A    between atoms: C_20  and  O_29
   15  A    between atoms: O_26  and  C_33
   16  A    between atoms: O_29  and  C_36
                            x       y       z     vdW  Elec       q    Type
                         _______ _______ _______ _____ _____    ______ ____

>  <TORSDO>
F 16

$$$$
=
 OpenBabel11062409223D

 37 41  0  0  1  0  0  0  0  0999 V2000
  159.8580  208.7740  152.4940 O   0  0  0  0  0  1  0  0  0  0  0  0
  161.2200  208.9400  152.8080 C   0  0  1  0  0  0  0  0  0  0  0  0
  160.3970  212.2780  152.7700 O   0  0  0  0  0  1  0  0  0  0  0  0
  160.4840  211.1900  151.9020 C   0  0  2  0  0  3  0  0  0  0  0  0
  162.0430  211.2560  150.3250 C   0  0  1  0  0  3  0  0  0  0  0  0
  161.6540  210.3190  152.2860 C   0  0  2  0  0  3  0  0  0  0  0  0
  160.7210  211.6420  150.6060 O   0  0  0  0  0  0  0  0  0  0  0  0
  162.4360  210.1840  151.1390 O   0  0  0  0  0  0  0  0  0  0  0  0
  162.1910  210.8900  148.8530 C   0  0  0  0  0  2  0  0  0  0  0  0
  162.5230  212.1080  148.0050 C   0  0  0  0  0  1  0  0  0  0  0  0
  161.4090  208.8860  154.3550 C   0  0  2  0  0  3  0  0  0  0  0  0
  160.6740  207.7570  155.1020 C   0  0  1  0  0  3  0  0  0  0  0  0
  160.7730  206.5390  154.4270 O   0  0  0  0  0  1  0  0  0  0  0  0
  161.1220  207.6090  156.5450 C   0  0  0  0  0  2  0  0  0  0  0  0
  160.1800  206.8700  157.2610 O   0  0  0  0  0  1  0  0  0  0  0  0
  161.1000  210.1150  154.9470 O   0  0  0  0  0  0  0  0  0  0  0  0
  159.8060  209.9620  155.4460 C   0  0  0  0  0  2  0  0  0  0  0  0
  157.7330  211.2860  155.3260 C   0  0  2  0  0  0  0  0  0  0  0  0
  159.1900  211.3260  155.6810 C   0  0  1  0  0  3  0  0  0  0  0  0
  158.2320  211.2340  156.6630 O   0  0  0  0  0  0  0  0  0  0  0  0
  156.5490  212.2390  155.4550 C   0  0  2  0  0  3  0  0  0  0  0  0
  157.6630  212.5780  154.7270 O   0  0  0  0  0  0  0  0  0  0  0  0
  155.2050  213.4230  156.7520 C   0  0  0  0  0  1  0  0  0  0  0  0
  156.5280  212.9990  156.6310 O   0  0  0  0  0  0  0  0  0  0  0  0
  162.0060  207.9600  152.1470 O   0  0  0  0  0  0  0  0  0  0  0  0
  161.2100  207.2390  151.2380 C   0  0  0  0  0  2  0  0  0  0  0  0
  161.7490  205.8210  151.1010 C   0  0  1  0  0  3  0  0  0  0  0  0
  160.5800  204.8560  150.8510 C   0  0  0  0  0  0  0  0  0  0  0  0
  160.7280  203.3370  150.6820 C   0  0  0  0  0  2  0  0  0  0  0  0
  161.5770  205.2300  149.7440 C   0  0  1  0  0  3  0  0  0  0  0  0
  160.8970  203.9150  152.0210 C   0  0  0  0  0  2  0  0  0  0  0  0
  160.9550  206.1090  148.8330 O   0  0  0  0  0  0  0  0  0  0  0  0
  160.8470  205.4730  147.5720 C   0  0  1  0  0  3  0  0  0  0  0  0
  160.7130  206.4570  146.4130 C   0  0  0  0  0  2  0  0  0  0  0  0
  160.6070  205.7080  145.1000 C   0  0  0  0  0  1  0  0  0  0  0  0
  161.9480  204.4470  147.3190 C   0  0  0  0  0  2  0  0  0  0  0  0
  161.3850  203.1830  147.1440 O   0  0  0  0  0  1  0  0  0  0  0  0
  2  1  1  6  0  0  0
  2 11  1  0  0  0  0
  4  6  1  0  0  0  0
  4  3  1  1  0  0  0
  5  9  1  6  0  0  0
  5  7  1  0  0  0  0
  5  8  1  0  0  0  0
  6  2  1  6  0  0  0
  7  4  1  0  0  0  0
  8  6  1  0  0  0  0
 10  9  1  0  0  0  0
 11 16  1  1  0  0  0
 11 12  1  0  0  0  0
 12 13  1  6  0  0  0
 12 14  1  0  0  0  0
 14 15  1  0  0  0  0
 16 17  1  0  0  0  0
 18 22  1  1  0  0  0
 18 21  1  0  0  0  0
 18 19  1  0  0  0  0
 18 20  1  0  0  0  0
 19 17  1  6  0  0  0
 19 20  1  0  0  0  0
 21 24  1  1  0  0  0
 22 21  1  0  0  0  0
 24 23  1  0  0  0  0
 25  2  1  0  0  0  0
 26 25  1  0  0  0  0
 27 26  1  6  0  0  0
 28 27  1  0  0  0  0
 28 31  1  0  0  0  0
 29 28  1  0  0  0  0
 29 31  1  0  0  0  0
 30 32  1  6  0  0  0
 30 28  1  0  0  0  0
 30 27  1  0  0  0  0
 33 34  1  6  0  0  0
 33 32  1  0  0  0  0
 35 34  1  0  0  0  0
 36 33  1  0  0  0  0
 37 36  1  0  0  0  0
M  END
>  <MODEL>
6

>  <REMARK>
 VINA RESULT:      -4.9      2.204      5.634
  Name = 
  16 active torsions:
  status: ('A' for Active; 'I' for Inactive)
    1  A    between atoms: C_1  and  C_36
    2  A    between atoms: C_3  and  C_21
    3  A    between atoms: C_4  and  C_10
    4  A    between atoms: C_4  and  C_22
    5  A    between atoms: C_6  and  C_31
    6  A    between atoms: C_7  and  C_33
    7  A    between atoms: C_10  and  O_14
    8  A    between atoms: C_10  and  C_20
    9  A    between atoms: C_11  and  C_33
   10  A    between atoms: O_14  and  C_31
   11  A    between atoms: C_17  and  O_26
   12  A    between atoms: C_18  and  O_19
   13  A    between atoms: C_20  and  C_24
   14  A    between atoms: C_20  and  O_29
   15  A    between atoms: O_26  and  C_33
   16  A    between atoms: O_29  and  C_36
                            x       y       z     vdW  Elec       q    Type
                         _______ _______ _______ _____ _____    ______ ____

>  <TORSDO>
F 16

$$$$
=
 OpenBabel11062409223D

 37 41  0  0  1  0  0  0  0  0999 V2000
  160.2200  206.2430  149.6520 O   0  0  0  0  0  1  0  0  0  0  0  0
  161.5870  205.9130  149.6060 C   0  0  1  0  0  0  0  0  0  0  0  0
  160.9710  203.2160  151.6470 O   0  0  0  0  0  1  0  0  0  0  0  0
  160.7770  204.5970  151.6150 C   0  0  2  0  0  3  0  0  0  0  0  0
  161.8970  205.8250  153.0850 C   0  0  1  0  0  3  0  0  0  0  0  0
  161.9560  205.2640  150.9500 C   0  0  2  0  0  3  0  0  0  0  0  0
  160.7100  205.0910  152.9160 O   0  0  0  0  0  0  0  0  0  0  0  0
  162.4190  206.2270  151.8470 O   0  0  0  0  0  0  0  0  0  0  0  0
  161.6520  207.0340  153.9790 C   0  0  0  0  0  2  0  0  0  0  0  0
  160.4540  206.8220  154.8920 C   0  0  0  0  0  1  0  0  0  0  0  0
  161.8410  204.8960  148.4520 C   0  0  2  0  0  3  0  0  0  0  0  0
  162.2000  205.4880  147.0760 C   0  0  1  0  0  3  0  0  0  0  0  0
  163.0990  204.6770  146.3800 O   0  0  0  0  0  1  0  0  0  0  0  0
  160.9810  205.7920  146.2230 C   0  0  0  0  0  2  0  0  0  0  0  0
  161.3290  205.7690  144.8730 O   0  0  0  0  0  1  0  0  0  0  0  0
  160.7680  204.0090  148.3120 O   0  0  0  0  0  0  0  0  0  0  0  0
  161.3240  202.7390  148.4720 C   0  0  0  0  0  2  0  0  0  0  0  0
  161.0910  201.4410  146.3930 C   0  0  2  0  0  0  0  0  0  0  0  0
  160.4800  201.7200  147.7340 C   0  0  1  0  0  3  0  0  0  0  0  0
  161.2170  200.5790  147.5240 O   0  0  0  0  0  0  0  0  0  0  0  0
  160.8330  200.4560  145.2580 C   0  0  2  0  0  3  0  0  0  0  0  0
  159.8710  201.3490  145.6600 O   0  0  0  0  0  0  0  0  0  0  0  0
  161.2880  198.3140  144.9420 C   0  0  0  0  0  1  0  0  0  0  0  0
  160.4570  199.1700  145.6650 O   0  0  0  0  0  0  0  0  0  0  0  0
  162.3770  207.0840  149.4600 O   0  0  0  0  0  0  0  0  0  0  0  0
  161.5470  208.2050  149.2850 C   0  0  0  0  0  2  0  0  0  0  0  0
  162.3310  209.4730  149.5920 C   0  0  1  0  0  3  0  0  0  0  0  0
  161.4000  210.6890  149.4630 C   0  0  0  0  0  0  0  0  0  0  0  0
  161.8370  212.1450  149.6770 C   0  0  0  0  0  2  0  0  0  0  0  0
  161.8900  210.1810  150.8270 C   0  0  1  0  0  3  0  0  0  0  0  0
  162.2740  211.4520  148.4570 C   0  0  0  0  0  2  0  0  0  0  0  0
  160.8310  209.5280  151.4900 O   0  0  0  0  0  0  0  0  0  0  0  0
  160.5070  210.2440  152.6680 C   0  0  1  0  0  3  0  0  0  0  0  0
  161.7360  210.6980  153.4520 C   0  0  0  0  0  2  0  0  0  0  0  0
  161.5180  210.4870  154.9360 C   0  0  0  0  0  1  0  0  0  0  0  0
  159.5350  211.3960  152.4250 C   0  0  0  0  0  2  0  0  0  0  0  0
  158.5030  211.3500  153.3610 O   0  0  0  0  0  1  0  0  0  0  0  0
  2  1  1  1  0  0  0
  4  3  1  1  0  0  0
  4  7  1  0  0  0  0
  5  9  1  1  0  0  0
  6  2  1  6  0  0  0
  6  4  1  0  0  0  0
  6  8  1  0  0  0  0
  7  5  1  0  0  0  0
  8  5  1  0  0  0  0
  9 10  1  0  0  0  0
 11 16  1  6  0  0  0
 11  2  1  0  0  0  0
 12 13  1  6  0  0  0
 12 11  1  0  0  0  0
 14 12  1  0  0  0  0
 15 14  1  0  0  0  0
 16 17  1  0  0  0  0
 18 22  1  1  0  0  0
 18 20  1  0  0  0  0
 18 19  1  0  0  0  0
 19 17  1  1  0  0  0
 20 19  1  0  0  0  0
 21 22  1  0  0  0  0
 21 24  1  1  0  0  0
 21 18  1  0  0  0  0
 23 24  1  0  0  0  0
 25  2  1  0  0  0  0
 26 25  1  0  0  0  0
 27 26  1  1  0  0  0
 27 30  1  0  0  0  0
 28 27  1  0  0  0  0
 28 29  1  0  0  0  0
 28 30  1  0  0  0  0
 30 32  1  1  0  0  0
 31 28  1  0  0  0  0
 31 29  1  0  0  0  0
 32 33  1  0  0  0  0
 33 36  1  6  0  0  0
 33 34  1  0  0  0  0
 34 35  1  0  0  0  0
 36 37  1  0  0  0  0
M  END
>  <MODEL>
7

>  <REMARK>
 VINA RESULT:      -4.8      3.677      8.913
  Name = 
  16 active torsions:
  status: ('A' for Active; 'I' for Inactive)
    1  A    between atoms: C_1  and  C_36
    2  A    between atoms: C_3  and  C_21
    3  A    between atoms: C_4  and  C_10
    4  A    between atoms: C_4  and  C_22
    5  A    between atoms: C_6  and  C_31
    6  A    between atoms: C_7  and  C_33
    7  A    between atoms: C_10  and  O_14
    8  A    between atoms: C_10  and  C_20
    9  A    between atoms: C_11  and  C_33
   10  A    between atoms: O_14  and  C_31
   11  A    between atoms: C_17  and  O_26
   12  A    between atoms: C_18  and  O_19
   13  A    between atoms: C_20  and  C_24
   14  A    between atoms: C_20  and  O_29
   15  A    between atoms: O_26  and  C_33
   16  A    between atoms: O_29  and  C_36
                            x       y       z     vdW  Elec       q    Type
                         _______ _______ _______ _____ _____    ______ ____

>  <TORSDO>
F 16

$$$$
=
 OpenBabel11062409223D

 37 41  0  0  1  0  0  0  0  0999 V2000
  159.5790  208.2480  153.9720 O   0  0  0  0  0  1  0  0  0  0  0  0
  160.9690  208.4230  153.8450 C   0  0  1  0  0  0  0  0  0  0  0  0
  160.6280  207.0040  156.9580 O   0  0  0  0  0  1  0  0  0  0  0  0
  160.5290  208.2480  156.3350 C   0  0  2  0  0  3  0  0  0  0  0  0
  162.0270  209.7910  156.8800 C   0  0  1  0  0  3  0  0  0  0  0  0
  161.5770  208.3660  155.2560 C   0  0  2  0  0  3  0  0  0  0  0  0
  160.7830  209.2570  157.2610 O   0  0  0  0  0  0  0  0  0  0  0  0
  162.2910  209.5320  155.5280 O   0  0  0  0  0  0  0  0  0  0  0  0
  162.0690  211.2900  157.1540 C   0  0  0  0  0  2  0  0  0  0  0  0
  160.7510  211.9610  156.8000 C   0  0  0  0  0  1  0  0  0  0  0  0
  161.5630  207.2720  152.9760 C   0  0  2  0  0  3  0  0  0  0  0  0
  162.1400  207.6700  151.6040 C   0  0  1  0  0  3  0  0  0  0  0  0
  163.2290  206.8720  151.2480 O   0  0  0  0  0  1  0  0  0  0  0  0
  161.0960  207.6760  150.5000 C   0  0  0  0  0  2  0  0  0  0  0  0
  161.6600  207.2120  149.3120 O   0  0  0  0  0  1  0  0  0  0  0  0
  160.6410  206.2330  152.8120 O   0  0  0  0  0  0  0  0  0  0  0  0
  161.4020  205.0630  152.8500 C   0  0  0  0  0  2  0  0  0  0  0  0
  161.3000  203.9020  150.6810 C   0  0  2  0  0  0  0  0  0  0  0  0
  160.7040  203.9790  152.0560 C   0  0  1  0  0  3  0  0  0  0  0  0
  161.6050  202.9910  151.7370 O   0  0  0  0  0  0  0  0  0  0  0  0
  161.1590  202.9750  149.4780 C   0  0  2  0  0  3  0  0  0  0  0  0
  160.0830  203.6680  149.9760 O   0  0  0  0  0  0  0  0  0  0  0  0
  161.2040  200.9530  148.5820 C   0  0  0  0  0  1  0  0  0  0  0  0
  161.0090  201.6190  149.7930 O   0  0  0  0  0  0  0  0  0  0  0  0
  161.2620  209.7000  153.2990 O   0  0  0  0  0  0  0  0  0  0  0  0
  160.0960  210.2720  152.7610 C   0  0  0  0  0  2  0  0  0  0  0  0
  160.1660  211.7880  152.8860 C   0  0  1  0  0  3  0  0  0  0  0  0
  159.0000  212.4160  152.1090 C   0  0  0  0  0  0  0  0  0  0  0  0
  158.7500  213.9260  151.9860 C   0  0  0  0  0  2  0  0  0  0  0  0
  159.0340  212.3920  153.6440 C   0  0  1  0  0  3  0  0  0  0  0  0
  159.8670  213.3350  151.2370 C   0  0  0  0  0  2  0  0  0  0  0  0
  158.1120  211.4350  154.1170 O   0  0  0  0  0  0  0  0  0  0  0  0
  157.3740  211.9900  155.1900 C   0  0  1  0  0  3  0  0  0  0  0  0
  157.7090  213.4570  155.4530 C   0  0  0  0  0  2  0  0  0  0  0  0
  157.3560  213.8270  156.8800 C   0  0  0  0  0  1  0  0  0  0  0  0
  155.8690  211.7680  155.0660 C   0  0  0  0  0  2  0  0  0  0  0  0
  155.5730  210.4190  155.2590 O   0  0  0  0  0  1  0  0  0  0  0  0
  2  1  1  1  0  0  0
  4  3  1  1  0  0  0
  4  7  1  0  0  0  0
  5  9  1  6  0  0  0
  5  7  1  0  0  0  0
  6  2  1  6  0  0  0
  6  8  1  0  0  0  0
  6  4  1  0  0  0  0
  8  5  1  0  0  0  0
 10  9  1  0  0  0  0
 11 16  1  6  0  0  0
 11  2  1  0  0  0  0
 12 13  1  6  0  0  0
 12 11  1  0  0  0  0
 14 12  1  0  0  0  0
 15 14  1  0  0  0  0
 16 17  1  0  0  0  0
 18 22  1  1  0  0  0
 18 20  1  0  0  0  0
 18 19  1  0  0  0  0
 19 17  1  1  0  0  0
 20 19  1  0  0  0  0
 21 24  1  1  0  0  0
 21 22  1  0  0  0  0
 21 18  1  0  0  0  0
 23 24  1  0  0  0  0
 25  2  1  0  0  0  0
 26 25  1  0  0  0  0
 27 26  1  6  0  0  0
 27 30  1  0  0  0  0
 28 27  1  0  0  0  0
 28 30  1  0  0  0  0
 29 28  1  0  0  0  0
 30 32  1  6  0  0  0
 31 29  1  0  0  0  0
 31 28  1  0  0  0  0
 32 33  1  0  0  0  0
 33 36  1  6  0  0  0
 33 34  1  0  0  0  0
 34 35  1  0  0  0  0
 36 37  1  0  0  0  0
M  END
>  <MODEL>
8

>  <REMARK>
 VINA RESULT:      -4.7      2.473      7.671
  Name = 
  16 active torsions:
  status: ('A' for Active; 'I' for Inactive)
    1  A    between atoms: C_1  and  C_36
    2  A    between atoms: C_3  and  C_21
    3  A    between atoms: C_4  and  C_10
    4  A    between atoms: C_4  and  C_22
    5  A    between atoms: C_6  and  C_31
    6  A    between atoms: C_7  and  C_33
    7  A    between atoms: C_10  and  O_14
    8  A    between atoms: C_10  and  C_20
    9  A    between atoms: C_11  and  C_33
   10  A    between atoms: O_14  and  C_31
   11  A    between atoms: C_17  and  O_26
   12  A    between atoms: C_18  and  O_19
   13  A    between atoms: C_20  and  C_24
   14  A    between atoms: C_20  and  O_29
   15  A    between atoms: O_26  and  C_33
   16  A    between atoms: O_29  and  C_36
                            x       y       z     vdW  Elec       q    Type
                         _______ _______ _______ _____ _____    ______ ____

>  <TORSDO>
F 16

$$$$
=
 OpenBabel11062409223D

 37 41  0  0  1  0  0  0  0  0999 V2000
  159.3640  208.7360  153.8540 O   0  0  0  0  0  1  0  0  0  0  0  0
  160.7300  208.9700  153.6100 C   0  0  1  0  0  0  0  0  0  0  0  0
  160.8140  207.2770  156.6010 O   0  0  0  0  0  1  0  0  0  0  0  0
  160.5420  208.5510  156.1030 C   0  0  2  0  0  3  0  0  0  0  0  0
  161.9350  210.1880  156.6550 C   0  0  1  0  0  3  0  0  0  0  0  0
  161.4690  208.8600  154.9530 C   0  0  2  0  0  3  0  0  0  0  0  0
  160.7870  209.5030  157.0900 O   0  0  0  0  0  0  0  0  0  0  0  0
  162.0950  210.0660  155.2670 O   0  0  0  0  0  0  0  0  0  0  0  0
  161.8640  211.6560  157.0570 C   0  0  0  0  0  2  0  0  0  0  0  0
  160.5330  212.2790  156.6670 C   0  0  0  0  0  1  0  0  0  0  0  0
  161.2770  207.8910  152.6260 C   0  0  2  0  0  3  0  0  0  0  0  0
  161.7800  206.5770  153.2530 C   0  0  1  0  0  3  0  0  0  0  0  0
  160.7260  205.7830  153.7100 O   0  0  0  0  0  1  0  0  0  0  0  0
  162.6860  205.7850  152.3260 C   0  0  0  0  0  2  0  0  0  0  0  0
  161.9440  204.8120  151.6560 O   0  0  0  0  0  1  0  0  0  0  0  0
  162.2680  208.4200  151.7920 O   0  0  0  0  0  0  0  0  0  0  0  0
  161.6490  208.5830  150.5520 C   0  0  0  0  0  2  0  0  0  0  0  0
  161.1300  207.0690  148.6810 C   0  0  2  0  0  0  0  0  0  0  0  0
  162.2260  207.5900  149.5640 C   0  0  1  0  0  3  0  0  0  0  0  0
  162.0680  208.0700  148.2850 O   0  0  0  0  0  0  0  0  0  0  0  0
  161.0530  206.1840  147.4410 C   0  0  2  0  0  3  0  0  0  0  0  0
  161.5840  205.7180  148.6190 O   0  0  0  0  0  0  0  0  0  0  0  0
  162.4340  205.0790  146.1120 C   0  0  0  0  0  1  0  0  0  0  0  0
  162.0910  206.3680  146.5190 O   0  0  0  0  0  0  0  0  0  0  0  0
  160.9280  210.2850  153.1130 O   0  0  0  0  0  0  0  0  0  0  0  0
  159.6880  210.8900  152.8440 C   0  0  0  0  0  2  0  0  0  0  0  0
  159.8690  212.3970  152.7300 C   0  0  1  0  0  3  0  0  0  0  0  0
  158.9170  212.9430  151.6550 C   0  0  0  0  0  0  0  0  0  0  0  0
  158.8270  214.4190  151.2410 C   0  0  0  0  0  2  0  0  0  0  0  0
  158.6790  213.1890  153.1510 C   0  0  1  0  0  3  0  0  0  0  0  0
  160.0010  213.6420  150.8220 C   0  0  0  0  0  2  0  0  0  0  0  0
  157.6070  212.3850  153.5930 O   0  0  0  0  0  0  0  0  0  0  0  0
  157.1030  212.9080  154.8080 C   0  0  1  0  0  3  0  0  0  0  0  0
  155.9460  213.8840  154.6080 C   0  0  0  0  0  2  0  0  0  0  0  0
  155.4020  213.7680  153.1980 C   0  0  0  0  0  1  0  0  0  0  0  0
  156.7610  211.8290  155.8320 C   0  0  0  0  0  2  0  0  0  0  0  0
  157.6340  210.7500  155.6910 O   0  0  0  0  0  1  0  0  0  0  0  0
  2  1  1  1  0  0  0
  4  3  1  1  0  0  0
  4  7  1  0  0  0  0
  5  9  1  6  0  0  0
  5  7  1  0  0  0  0
  6  2  1  6  0  0  0
  6  8  1  0  0  0  0
  6  4  1  0  0  0  0
  8  5  1  0  0  0  0
 10  9  1  0  0  0  0
 11 16  1  1  0  0  0
 11 12  1  0  0  0  0
 11  2  1  0  0  0  0
 12 13  1  6  0  0  0
 14 12  1  0  0  0  0
 15 14  1  0  0  0  0
 17 16  1  0  0  0  0
 18 20  1  6  0  0  0
 18 19  1  0  0  0  0
 19 17  1  1  0  0  0
 20 19  1  0  0  0  0
 21 24  1  6  0  0  0
 21 22  1  0  0  0  0
 21 18  1  0  0  0  0
 22 18  1  0  0  0  0
 23 24  1  0  0  0  0
 25  2  1  0  0  0  0
 26 25  1  0  0  0  0
 27 26  1  1  0  0  0
 27 30  1  0  0  0  0
 28 27  1  0  0  0  0
 28 30  1  0  0  0  0
 29 28  1  0  0  0  0
 30 32  1  1  0  0  0
 31 29  1  0  0  0  0
 31 28  1  0  0  0  0
 32 33  1  0  0  0  0
 33 34  1  6  0  0  0
 33 36  1  0  0  0  0
 35 34  1  0  0  0  0
 37 36  1  0  0  0  0
M  END
>  <MODEL>
9

>  <REMARK>
 VINA RESULT:      -4.7      2.236      6.748
  Name = 
  16 active torsions:
  status: ('A' for Active; 'I' for Inactive)
    1  A    between atoms: C_1  and  C_36
    2  A    between atoms: C_3  and  C_21
    3  A    between atoms: C_4  and  C_10
    4  A    between atoms: C_4  and  C_22
    5  A    between atoms: C_6  and  C_31
    6  A    between atoms: C_7  and  C_33
    7  A    between atoms: C_10  and  O_14
    8  A    between atoms: C_10  and  C_20
    9  A    between atoms: C_11  and  C_33
   10  A    between atoms: O_14  and  C_31
   11  A    between atoms: C_17  and  O_26
   12  A    between atoms: C_18  and  O_19
   13  A    between atoms: C_20  and  C_24
   14  A    between atoms: C_20  and  O_29
   15  A    between atoms: O_26  and  C_33
   16  A    between atoms: O_29  and  C_36
                            x       y       z     vdW  Elec       q    Type
                         _______ _______ _______ _____ _____    ______ ____

>  <TORSDO>
F 16

$$$$
