=
 OpenBabel11052421593D

 30 38  0  0  1  0  0  0  0  0999 V2000
  161.7520  208.4050  150.5140 C   0  0  0  0  0  0  0  0  0  0  0  0
  160.9110  206.1160  149.8540 C   0  0  0  0  0  0  0  0  0  0  0  0
  161.1810  206.7470  154.4400 C   0  0  0  0  0  2  0  0  0  0  0  0
  161.2470  209.1650  151.6020 C   0  0  0  0  0  0  0  0  0  0  0  0
  162.0950  209.0370  149.3060 C   0  0  0  0  0  3  0  0  0  0  0  0
  161.3440  212.7730  149.7680 S   0  0  0  0  0  0  0  0  0  0  0  0
  159.2430  210.7820  152.9690 C   0  0  1  0  0  0  0  0  0  0  0  0
  161.4070  211.1560  150.2300 C   0  0  0  0  0  0  0  0  0  0  0  0
  162.2270  211.1160  148.0600 N   0  0  0  0  0  0  0  0  0  0  0  0
  159.5640  210.0200  154.2580 C   0  0  2  0  0  3  0  0  0  0  0  0
  160.7590  208.0070  155.1800 C   0  0  1  0  0  3  0  0  0  0  0  0
  161.9150  210.4120  149.1790 C   0  0  0  0  0  0  0  0  0  0  0  0
  161.0550  210.5690  151.4460 C   0  0  0  0  0  0  0  0  0  0  0  0
  160.4890  204.9580  150.2740 N   0  0  0  0  0  0  0  0  0  0  0  0
  159.5740  211.0070  155.4040 C   0  0  0  0  0  2  0  0  0  0  0  0
  158.2940  211.8490  153.4870 C   0  0  1  0  0  3  0  0  0  0  0  0
  162.2050  213.4550  147.1820 C   0  0  0  0  0  1  0  0  0  0  0  0
  160.5530  206.5330  148.5410 N   0  0  0  0  0  1  0  0  0  0  0  0
  160.9690  207.0420  152.9640 C   0  0  1  0  0  3  0  0  0  0  0  0
  162.0980  204.9240  152.1510 C   0  0  0  0  0  2  0  0  0  0  0  0
  161.9640  212.4330  148.2330 C   0  0  0  0  0  0  0  0  0  0  0  0
  161.9450  206.9110  150.6340 C   0  0  2  0  0  3  0  0  0  0  0  0
  160.9490  208.4910  152.8550 N   0  0  0  0  0  0  0  0  0  0  0  0
  161.7140  208.2710  156.3260 C   0  0  0  0  0  1  0  0  0  0  0  0
  160.8330  209.1370  154.1680 C   0  0  1  0  0  3  0  0  0  0  0  0
  158.6530  212.1220  154.9470 C   0  0  0  0  0  2  0  0  0  0  0  0
  159.4120  212.2670  152.5680 C   0  0  1  0  0  3  0  0  0  0  0  0
  160.7900  204.3820  151.5860 C   0  0  0  0  0  2  0  0  0  0  0  0
  162.0890  206.4510  152.0980 C   0  0  1  0  0  3  0  0  0  0  0  0
  160.6130  211.3770  152.6200 C   0  0  1  0  0  3  0  0  0  0  0  0
  1 22  1  0  0  0  0
  1  4  1  0  0  0  0
  2 14  2  0  0  0  0
  2 22  1  0  0  0  0
  3 11  1  0  0  0  0
  4 23  1  0  0  0  0
  5  1  2  0  0  0  0
  6  8  1  0  0  0  0
  7 16  1  0  0  0  0
  7 10  1  0  0  0  0
  8 13  1  0  0  0  0
  9 21  2  0  0  0  0
  9 12  1  0  0  0  0
 10 15  1  0  0  0  0
 11 24  1  0  0  0  0
 12  5  1  0  0  0  0
 12  8  2  0  0  0  0
 13  4  2  0  0  0  0
 13 30  1  0  0  0  0
 14 28  1  0  0  0  0
 16 26  1  0  0  0  0
 17 21  1  0  0  0  0
 18  2  1  0  0  0  0
 19  3  1  0  0  0  0
 21  6  1  0  0  0  0
 22 29  1  0  0  0  0
 23 19  1  0  0  0  0
 23 25  1  0  0  0  0
 25 10  1  0  0  0  0
 25 11  1  0  0  0  0
 26 15  1  0  0  0  0
 27 30  1  0  0  0  0
 27  7  1  0  0  0  0
 27 16  1  0  0  0  0
 28 20  1  0  0  0  0
 29 20  1  0  0  0  0
 29 19  1  0  0  0  0
 30  7  1  0  0  0  0
M  END
>  <MODEL>
1

>  <REMARK>
 VINA RESULT:      -8.6      0.000      0.000
  Name = 
  0 active torsions:
  status: ('A' for Active; 'I' for Inactive)
                            x       y       z     vdW  Elec       q    Type
                         _______ _______ _______ _____ _____    ______ ____

>  <TORSDO>
F 0

$$$$
=
 OpenBabel11052421593D

 30 38  0  0  1  0  0  0  0  0999 V2000
  161.5960  210.1590  151.1900 C   0  0  0  0  0  0  0  0  0  0  0  0
  161.2160  207.6630  151.2640 C   0  0  0  0  0  0  0  0  0  0  0  0
  160.0610  209.8380  155.1930 C   0  0  0  0  0  2  0  0  0  0  0  0
  160.7210  211.1240  151.7560 C   0  0  0  0  0  0  0  0  0  0  0  0
  162.2160  210.4030  149.9510 C   0  0  0  0  0  3  0  0  0  0  0  0
  160.9980  213.8490  148.7740 S   0  0  0  0  0  0  0  0  0  0  0  0
  158.2550  212.6720  151.8910 C   0  0  1  0  0  0  0  0  0  0  0  0
  161.0810  212.5280  149.8140 C   0  0  0  0  0  0  0  0  0  0  0  0
  162.5030  211.9260  148.0820 N   0  0  0  0  0  0  0  0  0  0  0  0
  158.2560  212.4670  153.4090 C   0  0  2  0  0  3  0  0  0  0  0  0
  159.3190  211.1620  155.2790 C   0  0  1  0  0  3  0  0  0  0  0  0
  161.9470  211.5900  149.2750 C   0  0  0  0  0  0  0  0  0  0  0  0
  160.4470  212.3260  151.0400 C   0  0  0  0  0  0  0  0  0  0  0  0
  160.8050  206.6540  151.9770 N   0  0  0  0  0  0  0  0  0  0  0  0
  157.8310  213.7630  154.0640 C   0  0  0  0  0  2  0  0  0  0  0  0
  157.0960  213.6400  151.7260 C   0  0  1  0  0  3  0  0  0  0  0  0
  162.5110  213.7790  146.4070 C   0  0  0  0  0  1  0  0  0  0  0  0
  161.2210  207.5340  149.8460 N   0  0  0  0  0  1  0  0  0  0  0  0
  160.2650  209.5720  153.7110 C   0  0  1  0  0  3  0  0  0  0  0  0
  161.7860  207.5740  154.0520 C   0  0  0  0  0  2  0  0  0  0  0  0
  162.0730  213.1430  147.6760 C   0  0  0  0  0  0  0  0  0  0  0  0
  161.8910  208.8620  151.9070 C   0  0  2  0  0  3  0  0  0  0  0  0
  160.1360  210.8640  153.0610 N   0  0  0  0  0  0  0  0  0  0  0  0
  159.8640  211.9810  156.4320 C   0  0  0  0  0  1  0  0  0  0  0  0
  159.5760  211.8770  153.9630 C   0  0  1  0  0  3  0  0  0  0  0  0
  156.9810  214.4530  153.0150 C   0  0  0  0  0  2  0  0  0  0  0  0
  158.3880  213.9390  151.0110 C   0  0  1  0  0  3  0  0  0  0  0  0
  160.7620  206.6240  153.4400 C   0  0  0  0  0  2  0  0  0  0  0  0
  161.6430  208.9600  153.4250 C   0  0  1  0  0  3  0  0  0  0  0  0
  159.6020  213.3760  151.6800 C   0  0  1  0  0  3  0  0  0  0  0  0
  1  4  1  0  0  0  0
  1 22  1  0  0  0  0
  2 22  1  0  0  0  0
  2 14  2  0  0  0  0
  3 11  1  0  0  0  0
  4 23  1  0  0  0  0
  5  1  2  0  0  0  0
  6  8  1  0  0  0  0
  7 10  1  0  0  0  0
  8 13  1  0  0  0  0
  9 12  1  0  0  0  0
 10 25  1  0  0  0  0
 10 15  1  0  0  0  0
 11 24  1  0  0  0  0
 12  8  2  0  0  0  0
 12  5  1  0  0  0  0
 13 30  1  0  0  0  0
 13  4  2  0  0  0  0
 14 28  1  0  0  0  0
 16  7  1  0  0  0  0
 16 26  1  0  0  0  0
 17 21  1  0  0  0  0
 18  2  1  0  0  0  0
 19  3  1  0  0  0  0
 21  9  2  0  0  0  0
 21  6  1  0  0  0  0
 22 29  1  0  0  0  0
 23 19  1  0  0  0  0
 23 25  1  0  0  0  0
 25 11  1  0  0  0  0
 26 15  1  0  0  0  0
 27 30  1  0  0  0  0
 27 16  1  0  0  0  0
 27  7  1  0  0  0  0
 28 20  1  0  0  0  0
 29 19  1  0  0  0  0
 29 20  1  0  0  0  0
 30  7  1  0  0  0  0
M  END
>  <MODEL>
2

>  <REMARK>
 VINA RESULT:      -5.9      1.507      2.518
  Name = 
  0 active torsions:
  status: ('A' for Active; 'I' for Inactive)
                            x       y       z     vdW  Elec       q    Type
                         _______ _______ _______ _____ _____    ______ ____

>  <TORSDO>
F 0

$$$$
