=
 OpenBabel11062409403D

 34 38  0  0  1  0  0  0  0  0999 V2000
  160.9900  209.2090  154.0650 C   0  0  2  0  0  3  0  0  0  0  0  0
  159.3550  212.6040  153.9660 C   0  0  0  0  0  3  0  0  0  0  0  0
  160.9880  211.6500  155.8840 S   0  0  0  0  0  0  0  0  0  0  0  0
  161.4610  206.7340  153.8290 C   0  0  1  0  0  3  0  0  0  0  0  0
  160.8260  207.9720  153.1870 C   0  0  0  0  0  2  0  0  0  0  0  0
  160.8400  207.7480  156.1570 C   0  0  1  0  0  3  0  0  0  0  0  0
  159.7470  206.9570  156.8490 C   0  0  0  0  0  1  0  0  0  0  0  0
  161.7540  206.8170  155.3410 C   0  0  0  0  0  2  0  0  0  0  0  0
  160.0960  210.1430  156.2700 C   0  0  0  0  0  0  0  0  0  0  0  0
  160.2380  208.9290  155.3830 C   0  0  1  0  0  3  0  0  0  0  0  0
  159.2980  210.1350  157.1920 O   0  0  0  0  0  0  0  0  0  0  0  0
  158.5760  212.6230  152.6940 C   0  0  0  0  0  2  0  0  0  0  0  0
  159.4810  212.7470  151.5090 C   0  0  0  0  0  0  0  0  0  0  0  0
  160.3690  211.7900  151.2170 C   0  0  0  0  0  3  0  0  0  0  0  0
  160.2390  211.6510  154.2610 C   0  0  0  0  0  0  0  0  0  0  0  0
  160.6630  210.6020  152.0460 C   0  0  0  0  0  3  0  0  0  0  0  0
  160.5360  210.4890  153.3810 C   0  0  0  0  0  0  0  0  0  0  0  0
  159.3210  213.8980  150.6000 C   0  0  0  0  0  0  0  0  0  0  0  0
  160.4540  214.4530  149.9400 N   0  0  0  0  0  1  0  0  0  0  0  0
  158.1830  214.4000  150.3950 O   0  0  0  0  0  0  0  0  0  0  0  0
  160.7820  205.4340  153.3980 C   0  0  0  0  0  2  0  0  0  0  0  0
  161.2020  203.5340  150.1730 N   0  0  0  0  0  0  0  0  0  0  0  0
  160.9940  206.1670  151.0150 C   0  0  0  0  0  3  0  0  0  0  0  0
  161.4810  205.2560  146.9420 C   0  0  0  0  0  0  0  0  0  0  0  0
  161.4230  204.2280  147.8960 C   0  0  0  0  0  3  0  0  0  0  0  0
  161.2590  204.5320  149.2500 C   0  0  0  0  0  0  0  0  0  0  0  0
  161.2100  206.9030  148.7140 C   0  0  0  0  0  3  0  0  0  0  0  0
  161.1530  205.8770  149.6600 C   0  0  0  0  0  0  0  0  0  0  0  0
  161.3730  206.5920  147.3600 C   0  0  0  0  0  3  0  0  0  0  0  0
  160.9490  205.1260  151.9440 C   0  0  0  0  0  0  0  0  0  0  0  0
  161.0490  203.8020  151.4980 C   0  0  0  0  0  3  0  0  0  0  0  0
  161.6530  204.9360  145.5140 C   0  0  0  0  0  0  0  0  0  0  0  0
  161.0220  205.7330  144.5150 N   0  0  0  0  0  1  0  0  0  0  0  0
  162.3610  203.9540  145.1630 O   0  0  0  0  0  0  0  0  0  0  0  0
  1  5  1  6  0  0  0
  1 10  1  0  0  0  0
  2 15  2  0  0  0  0
  3  9  1  0  0  0  0
  4 21  1  1  0  0  0
  4  8  1  0  0  0  0
  5  4  1  0  0  0  0
  6  7  1  6  0  0  0
  8  6  1  0  0  0  0
  9 11  2  0  0  0  0
 10  6  1  0  0  0  0
 10  9  1  1  0  0  0
 12  2  1  0  0  0  0
 13 12  1  0  0  0  0
 14 13  2  0  0  0  0
 14 16  1  0  0  0  0
 15  3  1  0  0  0  0
 16 17  2  0  0  0  0
 17  1  1  0  0  0  0
 17 15  1  0  0  0  0
 18 13  1  0  0  0  0
 19 18  1  0  0  0  0
 20 18  2  0  0  0  0
 22 31  1  0  0  0  0
 23 30  1  0  0  0  0
 24 29  1  0  0  0  0
 24 25  2  0  0  0  0
 25 26  1  0  0  0  0
 26 28  1  0  0  0  0
 26 22  2  0  0  0  0
 27 28  1  0  0  0  0
 28 23  2  0  0  0  0
 29 27  2  0  0  0  0
 30 21  1  0  0  0  0
 31 30  2  0  0  0  0
 32 24  1  0  0  0  0
 33 32  1  0  0  0  0
 34 32  2  0  0  0  0
M  END
>  <MODEL>
1

>  <REMARK>
 VINA RESULT:      -9.3      0.000      0.000
  Name = 
  4 active torsions:
  status: ('A' for Active; 'I' for Inactive)
    1  A    between atoms: C_3  and  C_25
    2  A    between atoms: C_7  and  C_11
    3  A    between atoms: C_8  and  C_18
    4  A    between atoms: C_18  and  C_30
                            x       y       z     vdW  Elec       q    Type
                         _______ _______ _______ _____ _____    ______ ____

>  <TORSDO>
F 4

$$$$
=
 OpenBabel11062409403D

 34 38  0  0  1  0  0  0  0  0999 V2000
  160.9570  209.3030  154.0910 C   0  0  2  0  0  3  0  0  0  0  0  0
  159.2080  212.6390  153.9370 C   0  0  0  0  0  3  0  0  0  0  0  0
  160.8220  211.7470  155.9010 S   0  0  0  0  0  0  0  0  0  0  0  0
  161.5200  206.8460  153.8750 C   0  0  1  0  0  3  0  0  0  0  0  0
  160.8600  208.0600  153.2130 C   0  0  0  0  0  2  0  0  0  0  0  0
  160.8030  207.8430  156.1830 C   0  0  1  0  0  3  0  0  0  0  0  0
  159.7200  207.0150  156.8480 C   0  0  0  0  0  1  0  0  0  0  0  0
  161.7700  206.9420  155.3950 C   0  0  0  0  0  2  0  0  0  0  0  0
  159.9730  210.2110  156.2680 C   0  0  0  0  0  0  0  0  0  0  0  0
  160.1800  209.0000  155.3890 C   0  0  1  0  0  3  0  0  0  0  0  0
  159.1510  210.1780  157.1690 O   0  0  0  0  0  0  0  0  0  0  0  0
  158.4630  212.6280  152.6450 C   0  0  0  0  0  2  0  0  0  0  0  0
  159.3940  212.7810  151.4840 C   0  0  0  0  0  0  0  0  0  0  0  0
  160.3230  211.8540  151.2190 C   0  0  0  0  0  3  0  0  0  0  0  0
  160.1170  211.7180  154.2590 C   0  0  0  0  0  0  0  0  0  0  0  0
  160.6360  210.6790  152.0600 C   0  0  0  0  0  3  0  0  0  0  0  0
  160.4770  210.5650  153.3910 C   0  0  0  0  0  0  0  0  0  0  0  0
  159.2190  213.9230  150.5680 C   0  0  0  0  0  0  0  0  0  0  0  0
  157.9190  214.4430  150.3110 N   0  0  0  0  0  1  0  0  0  0  0  0
  160.2150  214.4530  150.0060 O   0  0  0  0  0  0  0  0  0  0  0  0
  160.8990  205.5220  153.4310 C   0  0  0  0  0  2  0  0  0  0  0  0
  161.4480  206.0560  149.7440 N   0  0  0  0  0  0  0  0  0  0  0  0
  160.8510  203.9700  151.4680 C   0  0  0  0  0  3  0  0  0  0  0  0
  161.2060  203.2940  147.3370 C   0  0  0  0  0  0  0  0  0  0  0  0
  161.3870  204.5830  147.8620 C   0  0  0  0  0  3  0  0  0  0  0  0
  161.2710  204.8070  149.2360 C   0  0  0  0  0  0  0  0  0  0  0  0
  160.7880  202.4490  149.5810 C   0  0  0  0  0  3  0  0  0  0  0  0
  160.9690  203.7330  150.0990 C   0  0  0  0  0  0  0  0  0  0  0  0
  160.9070  202.2310  148.2040 C   0  0  0  0  0  3  0  0  0  0  0  0
  161.0270  205.2640  151.9640 C   0  0  0  0  0  0  0  0  0  0  0  0
  161.3350  206.3030  151.0760 C   0  0  0  0  0  3  0  0  0  0  0  0
  161.3290  203.0570  145.8870 C   0  0  0  0  0  0  0  0  0  0  0  0
  160.5840  202.0170  145.2600 N   0  0  0  0  0  1  0  0  0  0  0  0
  162.0950  203.7750  145.1890 O   0  0  0  0  0  0  0  0  0  0  0  0
  1  5  1  6  0  0  0
  1 10  1  0  0  0  0
  2 15  2  0  0  0  0
  3  9  1  0  0  0  0
  4 21  1  1  0  0  0
  4  8  1  0  0  0  0
  5  4  1  0  0  0  0
  6  7  1  6  0  0  0
  8  6  1  0  0  0  0
  9 11  2  0  0  0  0
 10  6  1  0  0  0  0
 10  9  1  1  0  0  0
 12  2  1  0  0  0  0
 13 12  1  0  0  0  0
 14 13  2  0  0  0  0
 14 16  1  0  0  0  0
 15  3  1  0  0  0  0
 16 17  2  0  0  0  0
 17  1  1  0  0  0  0
 17 15  1  0  0  0  0
 18 13  1  0  0  0  0
 19 18  1  0  0  0  0
 20 18  2  0  0  0  0
 22 31  1  0  0  0  0
 23 30  1  0  0  0  0
 24 25  2  0  0  0  0
 24 29  1  0  0  0  0
 25 26  1  0  0  0  0
 26 22  2  0  0  0  0
 26 28  1  0  0  0  0
 27 28  1  0  0  0  0
 28 23  2  0  0  0  0
 29 27  2  0  0  0  0
 30 21  1  0  0  0  0
 31 30  2  0  0  0  0
 32 24  1  0  0  0  0
 33 32  1  0  0  0  0
 34 32  2  0  0  0  0
M  END
>  <MODEL>
2

>  <REMARK>
 VINA RESULT:      -8.6      1.192      1.694
  Name = 
  4 active torsions:
  status: ('A' for Active; 'I' for Inactive)
    1  A    between atoms: C_3  and  C_25
    2  A    between atoms: C_7  and  C_11
    3  A    between atoms: C_8  and  C_18
    4  A    between atoms: C_18  and  C_30
                            x       y       z     vdW  Elec       q    Type
                         _______ _______ _______ _____ _____    ______ ____

>  <TORSDO>
F 4

$$$$
=
 OpenBabel11062409403D

 34 38  0  0  1  0  0  0  0  0999 V2000
  161.0780  211.6480  151.2670 C   0  0  2  0  0  3  0  0  0  0  0  0
  159.5930  213.6600  148.4450 C   0  0  0  0  0  3  0  0  0  0  0  0
  159.9270  214.4530  150.9970 S   0  0  0  0  0  0  0  0  0  0  0  0
  161.7360  209.7590  152.8160 C   0  0  1  0  0  3  0  0  0  0  0  0
  161.5010  210.1850  151.3630 C   0  0  0  0  0  2  0  0  0  0  0  0
  159.8660  211.4500  153.5080 C   0  0  1  0  0  3  0  0  0  0  0  0
  158.6180  210.7460  154.0050 C   0  0  0  0  0  1  0  0  0  0  0  0
  161.1290  210.6670  153.9060 C   0  0  0  0  0  2  0  0  0  0  0  0
  159.0550  213.1120  151.8100 C   0  0  0  0  0  0  0  0  0  0  0  0
  159.7350  211.7790  152.0140 C   0  0  1  0  0  3  0  0  0  0  0  0
  157.8800  213.2500  152.1060 O   0  0  0  0  0  0  0  0  0  0  0  0
  159.6580  212.7650  147.2540 C   0  0  0  0  0  2  0  0  0  0  0  0
  161.0620  212.6320  146.7540 C   0  0  0  0  0  0  0  0  0  0  0  0
  162.0130  212.0720  147.5110 C   0  0  0  0  0  3  0  0  0  0  0  0
  160.2130  213.3850  149.5930 C   0  0  0  0  0  0  0  0  0  0  0  0
  161.8590  211.6470  148.9180 C   0  0  0  0  0  3  0  0  0  0  0  0
  161.0140  212.1550  149.8340 C   0  0  0  0  0  0  0  0  0  0  0  0
  161.3740  213.0400  145.3720 C   0  0  0  0  0  0  0  0  0  0  0  0
  162.7050  213.3940  145.0110 N   0  0  0  0  0  1  0  0  0  0  0  0
  160.4700  213.0770  144.4940 O   0  0  0  0  0  0  0  0  0  0  0  0
  161.4860  208.2680  153.0400 C   0  0  0  0  0  2  0  0  0  0  0  0
  161.9330  207.2950  149.4300 N   0  0  0  0  0  0  0  0  0  0  0  0
  161.1550  206.1120  151.8130 C   0  0  0  0  0  3  0  0  0  0  0  0
  161.2360  203.8880  148.2490 C   0  0  0  0  0  0  0  0  0  0  0  0
  161.6020  205.2440  148.2470 C   0  0  0  0  0  3  0  0  0  0  0  0
  161.5770  205.9820  149.4330 C   0  0  0  0  0  0  0  0  0  0  0  0
  160.8150  204.0150  150.6430 C   0  0  0  0  0  3  0  0  0  0  0  0
  161.1800  205.3630  150.6360 C   0  0  0  0  0  0  0  0  0  0  0  0
  160.8440  203.2820  149.4530 C   0  0  0  0  0  3  0  0  0  0  0  0
  161.5160  207.4610  151.7820 C   0  0  0  0  0  0  0  0  0  0  0  0
  161.9120  208.0380  150.5680 C   0  0  0  0  0  3  0  0  0  0  0  0
  161.2630  203.1090  146.9980 C   0  0  0  0  0  0  0  0  0  0  0  0
  160.8630  201.7420  146.9920 N   0  0  0  0  0  1  0  0  0  0  0  0
  161.6400  203.6460  145.9220 O   0  0  0  0  0  0  0  0  0  0  0  0
  1  5  1  6  0  0  0
  1 10  1  0  0  0  0
  2 15  2  0  0  0  0
  3  9  1  0  0  0  0
  4 21  1  6  0  0  0
  4  8  1  0  0  0  0
  5  4  1  0  0  0  0
  6  8  1  0  0  0  0
  6  7  1  6  0  0  0
  9 11  2  0  0  0  0
 10  9  1  1  0  0  0
 10  6  1  0  0  0  0
 12  2  1  0  0  0  0
 13 12  1  0  0  0  0
 13 14  2  0  0  0  0
 14 16  1  0  0  0  0
 15 17  1  0  0  0  0
 15  3  1  0  0  0  0
 16 17  2  0  0  0  0
 17  1  1  0  0  0  0
 18 13  1  0  0  0  0
 19 18  1  0  0  0  0
 20 18  2  0  0  0  0
 22 26  2  0  0  0  0
 22 31  1  0  0  0  0
 24 29  1  0  0  0  0
 25 24  2  0  0  0  0
 25 26  1  0  0  0  0
 26 28  1  0  0  0  0
 28 27  1  0  0  0  0
 28 23  2  0  0  0  0
 29 27  2  0  0  0  0
 30 23  1  0  0  0  0
 30 21  1  0  0  0  0
 31 30  2  0  0  0  0
 32 24  1  0  0  0  0
 33 32  1  0  0  0  0
 34 32  2  0  0  0  0
M  END
>  <MODEL>
3

>  <REMARK>
 VINA RESULT:      -8.3      2.782      4.172
  Name = 
  4 active torsions:
  status: ('A' for Active; 'I' for Inactive)
    1  A    between atoms: C_3  and  C_25
    2  A    between atoms: C_7  and  C_11
    3  A    between atoms: C_8  and  C_18
    4  A    between atoms: C_18  and  C_30
                            x       y       z     vdW  Elec       q    Type
                         _______ _______ _______ _____ _____    ______ ____

>  <TORSDO>
F 4

$$$$
=
 OpenBabel11062409403D

 34 38  0  0  1  0  0  0  0  0999 V2000
  160.4710  211.6750  152.3060 C   0  0  2  0  0  3  0  0  0  0  0  0
  159.0130  213.7100  149.4870 C   0  0  0  0  0  3  0  0  0  0  0  0
  159.2440  214.4510  152.0660 S   0  0  0  0  0  0  0  0  0  0  0  0
  161.1370  209.7690  153.8310 C   0  0  1  0  0  3  0  0  0  0  0  0
  160.9340  210.2230  152.3820 C   0  0  0  0  0  2  0  0  0  0  0  0
  159.1970  211.3870  154.5040 C   0  0  1  0  0  3  0  0  0  0  0  0
  157.9570  210.6350  154.9460 C   0  0  0  0  0  1  0  0  0  0  0  0
  160.4710  210.6320  154.9230 C   0  0  0  0  0  2  0  0  0  0  0  0
  158.3890  213.0660  152.8210 C   0  0  0  0  0  0  0  0  0  0  0  0
  159.1020  211.7480  153.0150 C   0  0  1  0  0  3  0  0  0  0  0  0
  157.2020  213.1620  153.0830 O   0  0  0  0  0  0  0  0  0  0  0  0
  159.1410  212.8460  148.2780 C   0  0  0  0  0  2  0  0  0  0  0  0
  160.5630  212.7670  147.8190 C   0  0  0  0  0  0  0  0  0  0  0  0
  161.5060  212.2160  148.5920 C   0  0  0  0  0  3  0  0  0  0  0  0
  159.6050  213.4250  150.6470 C   0  0  0  0  0  0  0  0  0  0  0  0
  161.3220  211.7540  149.9840 C   0  0  0  0  0  3  0  0  0  0  0  0
  160.4350  212.2140  150.8850 C   0  0  0  0  0  0  0  0  0  0  0  0
  160.9040  213.2170  146.4570 C   0  0  0  0  0  0  0  0  0  0  0  0
  162.2380  213.6050  146.1430 N   0  0  0  0  0  1  0  0  0  0  0  0
  160.0230  213.2600  145.5560 O   0  0  0  0  0  0  0  0  0  0  0  0
  160.9260  208.2660  154.0130 C   0  0  0  0  0  2  0  0  0  0  0  0
  161.2790  207.4300  150.3580 N   0  0  0  0  0  0  0  0  0  0  0  0
  160.9300  206.0980  152.7640 C   0  0  0  0  0  3  0  0  0  0  0  0
  161.1730  203.9630  149.1530 C   0  0  0  0  0  0  0  0  0  0  0  0
  161.2670  205.3640  149.1550 C   0  0  0  0  0  3  0  0  0  0  0  0
  161.1870  206.0730  150.3570 C   0  0  0  0  0  0  0  0  0  0  0  0
  160.9180  203.9850  151.5730 C   0  0  0  0  0  3  0  0  0  0  0  0
  161.0120  205.3780  151.5710 C   0  0  0  0  0  0  0  0  0  0  0  0
  160.9990  203.2810  150.3680 C   0  0  0  0  0  3  0  0  0  0  0  0
  161.0170  207.4920  152.7370 C   0  0  0  0  0  0  0  0  0  0  0  0
  161.2000  208.1450  151.5120 C   0  0  0  0  0  3  0  0  0  0  0  0
  161.2570  203.2150  147.8860 C   0  0  0  0  0  0  0  0  0  0  0  0
  161.0550  201.8040  147.8670 N   0  0  0  0  0  1  0  0  0  0  0  0
  161.5070  203.8160  146.8070 O   0  0  0  0  0  0  0  0  0  0  0  0
  1  5  1  6  0  0  0
  1 10  1  0  0  0  0
  2 15  2  0  0  0  0
  3  9  1  0  0  0  0
  4 21  1  6  0  0  0
  4  8  1  0  0  0  0
  5  4  1  0  0  0  0
  6  8  1  0  0  0  0
  6  7  1  6  0  0  0
  9 11  2  0  0  0  0
 10  9  1  1  0  0  0
 10  6  1  0  0  0  0
 12  2  1  0  0  0  0
 13 12  1  0  0  0  0
 13 14  2  0  0  0  0
 14 16  1  0  0  0  0
 15 17  1  0  0  0  0
 15  3  1  0  0  0  0
 16 17  2  0  0  0  0
 17  1  1  0  0  0  0
 18 13  1  0  0  0  0
 19 18  1  0  0  0  0
 20 18  2  0  0  0  0
 22 31  1  0  0  0  0
 24 25  2  0  0  0  0
 24 29  1  0  0  0  0
 25 26  1  0  0  0  0
 26 22  2  0  0  0  0
 26 28  1  0  0  0  0
 28 27  1  0  0  0  0
 28 23  2  0  0  0  0
 29 27  2  0  0  0  0
 30 23  1  0  0  0  0
 30 21  1  0  0  0  0
 31 30  2  0  0  0  0
 32 24  1  0  0  0  0
 33 32  1  0  0  0  0
 34 32  2  0  0  0  0
M  END
>  <MODEL>
4

>  <REMARK>
 VINA RESULT:      -8.0      2.311      3.763
  Name = 
  4 active torsions:
  status: ('A' for Active; 'I' for Inactive)
    1  A    between atoms: C_3  and  C_25
    2  A    between atoms: C_7  and  C_11
    3  A    between atoms: C_8  and  C_18
    4  A    between atoms: C_18  and  C_30
                            x       y       z     vdW  Elec       q    Type
                         _______ _______ _______ _____ _____    ______ ____

>  <TORSDO>
F 4

$$$$
=
 OpenBabel11062409403D

 34 38  0  0  1  0  0  0  0  0999 V2000
  161.3670  209.1060  153.0970 C   0  0  2  0  0  3  0  0  0  0  0  0
  159.5660  210.0470  156.2730 C   0  0  0  0  0  3  0  0  0  0  0  0
  161.5820  208.2780  156.0190 S   0  0  0  0  0  0  0  0  0  0  0  0
  161.9140  208.5620  150.6870 C   0  0  1  0  0  3  0  0  0  0  0  0
  161.1050  209.4530  151.6350 C   0  0  0  0  0  2  0  0  0  0  0  0
  161.6950  206.6520  152.4600 C   0  0  1  0  0  3  0  0  0  0  0  0
  160.7960  205.5300  151.9780 C   0  0  0  0  0  1  0  0  0  0  0  0
  162.4850  207.2600  151.2870 C   0  0  0  0  0  2  0  0  0  0  0  0
  160.8610  207.2290  154.7560 C   0  0  0  0  0  0  0  0  0  0  0  0
  160.8950  207.6520  153.3060 C   0  0  1  0  0  3  0  0  0  0  0  0
  160.2540  206.2230  155.0840 O   0  0  0  0  0  0  0  0  0  0  0  0
  158.5610  211.0680  155.8610 C   0  0  0  0  0  2  0  0  0  0  0  0
  159.2150  212.3760  155.5480 C   0  0  0  0  0  0  0  0  0  0  0  0
  160.0810  212.4880  154.5340 C   0  0  0  0  0  3  0  0  0  0  0  0
  160.5400  209.6210  155.4670 C   0  0  0  0  0  0  0  0  0  0  0  0
  160.5900  211.3750  153.7050 C   0  0  0  0  0  3  0  0  0  0  0  0
  160.7250  210.0860  154.0660 C   0  0  0  0  0  0  0  0  0  0  0  0
  158.8260  213.5750  156.3130 C   0  0  0  0  0  0  0  0  0  0  0  0
  159.8200  214.3920  156.9210 N   0  0  0  0  0  1  0  0  0  0  0  0
  157.6110  213.8920  156.4330 O   0  0  0  0  0  0  0  0  0  0  0  0
  161.2350  208.3760  149.3300 C   0  0  0  0  0  2  0  0  0  0  0  0
  162.2840  205.5100  147.1240 N   0  0  0  0  0  0  0  0  0  0  0  0
  160.7600  205.9200  149.4030 C   0  0  0  0  0  3  0  0  0  0  0  0
  161.1960  202.0660  147.7870 C   0  0  0  0  0  0  0  0  0  0  0  0
  161.8210  203.1650  147.1770 C   0  0  0  0  0  3  0  0  0  0  0  0
  161.6770  204.4460  147.7160 C   0  0  0  0  0  0  0  0  0  0  0  0
  160.2760  203.5450  149.4870 C   0  0  0  0  0  3  0  0  0  0  0  0
  160.9000  204.6350  148.8770 C   0  0  0  0  0  0  0  0  0  0  0  0
  160.4250  202.2650  148.9430 C   0  0  0  0  0  3  0  0  0  0  0  0
  161.3850  206.9970  148.7710 C   0  0  0  0  0  0  0  0  0  0  0  0
  162.1570  206.7680  147.6250 C   0  0  0  0  0  3  0  0  0  0  0  0
  161.3470  200.7150  147.2190 C   0  0  0  0  0  0  0  0  0  0  0  0
  160.8370  200.4160  145.9220 N   0  0  0  0  0  1  0  0  0  0  0  0
  161.9310  199.8110  147.8750 O   0  0  0  0  0  0  0  0  0  0  0  0
  1  5  1  6  0  0  0
  1 10  1  0  0  0  0
  1 17  1  0  0  0  0
  4 21  1  6  0  0  0
  4  8  1  0  0  0  0
  4  5  1  0  0  0  0
  6  7  1  6  0  0  0
  6 10  1  0  0  0  0
  8  6  1  0  0  0  0
  9 11  2  0  0  0  0
  9  3  1  0  0  0  0
 10  9  1  1  0  0  0
 12  2  1  0  0  0  0
 13 12  1  0  0  0  0
 13 18  1  0  0  0  0
 14 13  2  0  0  0  0
 15  3  1  0  0  0  0
 15  2  2  0  0  0  0
 16 17  2  0  0  0  0
 16 14  1  0  0  0  0
 17 15  1  0  0  0  0
 18 20  2  0  0  0  0
 18 19  1  0  0  0  0
 22 31  2  0  0  0  0
 22 26  1  0  0  0  0
 24 29  1  0  0  0  0
 25 26  1  0  0  0  0
 25 24  2  0  0  0  0
 26 28  2  0  0  0  0
 28 23  1  0  0  0  0
 28 27  1  0  0  0  0
 29 27  2  0  0  0  0
 30 21  1  0  0  0  0
 30 23  2  0  0  0  0
 31 30  1  0  0  0  0
 32 24  1  0  0  0  0
 32 34  2  0  0  0  0
 33 32  1  0  0  0  0
M  END
>  <MODEL>
5

>  <REMARK>
 VINA RESULT:      -8.0      2.608      3.910
  Name = 
  4 active torsions:
  status: ('A' for Active; 'I' for Inactive)
    1  A    between atoms: C_3  and  C_25
    2  A    between atoms: C_7  and  C_11
    3  A    between atoms: C_8  and  C_18
    4  A    between atoms: C_18  and  C_30
                            x       y       z     vdW  Elec       q    Type
                         _______ _______ _______ _____ _____    ______ ____

>  <TORSDO>
F 4

$$$$
=
 OpenBabel11062409403D

 34 38  0  0  1  0  0  0  0  0999 V2000
  160.2970  211.6760  153.9450 C   0  0  2  0  0  3  0  0  0  0  0  0
  157.8390  214.0380  152.3340 C   0  0  0  0  0  3  0  0  0  0  0  0
  159.1980  214.4320  154.6260 S   0  0  0  0  0  0  0  0  0  0  0  0
  161.4850  209.5990  154.7650 C   0  0  1  0  0  3  0  0  0  0  0  0
  160.6900  210.2380  153.6220 C   0  0  0  0  0  2  0  0  0  0  0  0
  160.0950  211.0700  156.4200 C   0  0  1  0  0  3  0  0  0  0  0  0
  159.1420  210.2390  157.2570 C   0  0  0  0  0  1  0  0  0  0  0  0
  161.3940  210.2930  156.1400 C   0  0  0  0  0  2  0  0  0  0  0  0
  158.7020  212.9410  155.4910 C   0  0  0  0  0  0  0  0  0  0  0  0
  159.3760  211.6250  155.1820 C   0  0  1  0  0  3  0  0  0  0  0  0
  157.7520  212.9750  156.2550 O   0  0  0  0  0  0  0  0  0  0  0  0
  157.3950  213.3470  151.0900 C   0  0  0  0  0  2  0  0  0  0  0  0
  158.4710  213.3600  150.0510 C   0  0  0  0  0  0  0  0  0  0  0  0
  159.6350  212.7320  150.2560 C   0  0  0  0  0  3  0  0  0  0  0  0
  158.8650  213.6140  153.0720 C   0  0  0  0  0  0  0  0  0  0  0  0
  160.0560  212.0840  151.5160 C   0  0  0  0  0  3  0  0  0  0  0  0
  159.6670  212.4000  152.7640 C   0  0  0  0  0  0  0  0  0  0  0  0
  158.2040  213.9960  148.7480 C   0  0  0  0  0  0  0  0  0  0  0  0
  159.2370  214.0980  147.7730 N   0  0  0  0  0  1  0  0  0  0  0  0
  157.0590  214.4520  148.4790 O   0  0  0  0  0  0  0  0  0  0  0  0
  161.3150  208.0800  154.8240 C   0  0  0  0  0  2  0  0  0  0  0  0
  161.1300  205.4600  152.1250 N   0  0  0  0  0  0  0  0  0  0  0  0
  161.4150  208.2100  152.3270 C   0  0  0  0  0  3  0  0  0  0  0  0
  161.3700  206.3350  148.5670 C   0  0  0  0  0  0  0  0  0  0  0  0
  161.2420  205.5740  149.7400 C   0  0  0  0  0  3  0  0  0  0  0  0
  161.2560  206.1990  150.9900 C   0  0  0  0  0  0  0  0  0  0  0  0
  161.5270  208.3600  149.9090 C   0  0  0  0  0  3  0  0  0  0  0  0
  161.3990  207.5990  151.0730 C   0  0  0  0  0  0  0  0  0  0  0  0
  161.5120  207.7290  148.6610 C   0  0  0  0  0  3  0  0  0  0  0  0
  161.2950  207.4290  153.4780 C   0  0  0  0  0  0  0  0  0  0  0  0
  161.1450  206.0420  153.3540 C   0  0  0  0  0  3  0  0  0  0  0  0
  161.3560  205.6770  147.2490 C   0  0  0  0  0  0  0  0  0  0  0  0
  161.7770  204.3220  147.1140 N   0  0  0  0  0  1  0  0  0  0  0  0
  160.9700  206.3060  146.2270 O   0  0  0  0  0  0  0  0  0  0  0  0
  1  5  1  6  0  0  0
  1 10  1  0  0  0  0
  2 15  2  0  0  0  0
  3  9  1  0  0  0  0
  4 21  1  1  0  0  0
  4  8  1  0  0  0  0
  5  4  1  0  0  0  0
  6  7  1  6  0  0  0
  8  6  1  0  0  0  0
  9 11  2  0  0  0  0
 10  9  1  1  0  0  0
 10  6  1  0  0  0  0
 12  2  1  0  0  0  0
 13 14  2  0  0  0  0
 13 12  1  0  0  0  0
 14 16  1  0  0  0  0
 15  3  1  0  0  0  0
 16 17  2  0  0  0  0
 17 15  1  0  0  0  0
 17  1  1  0  0  0  0
 18 13  1  0  0  0  0
 19 18  1  0  0  0  0
 20 18  2  0  0  0  0
 22 31  1  0  0  0  0
 23 30  1  0  0  0  0
 24 29  1  0  0  0  0
 24 25  2  0  0  0  0
 25 26  1  0  0  0  0
 26 28  1  0  0  0  0
 26 22  2  0  0  0  0
 27 28  1  0  0  0  0
 28 23  2  0  0  0  0
 29 27  2  0  0  0  0
 30 21  1  0  0  0  0
 31 30  2  0  0  0  0
 32 24  1  0  0  0  0
 33 32  1  0  0  0  0
 34 32  2  0  0  0  0
M  END
>  <MODEL>
6

>  <REMARK>
 VINA RESULT:      -7.1      1.746      2.626
  Name = 
  4 active torsions:
  status: ('A' for Active; 'I' for Inactive)
    1  A    between atoms: C_3  and  C_25
    2  A    between atoms: C_7  and  C_11
    3  A    between atoms: C_8  and  C_18
    4  A    between atoms: C_18  and  C_30
                            x       y       z     vdW  Elec       q    Type
                         _______ _______ _______ _____ _____    ______ ____

>  <TORSDO>
F 4

$$$$
=
 OpenBabel11062409403D

 34 38  0  0  1  0  0  0  0  0999 V2000
  161.4350  209.3310  152.9240 C   0  0  2  0  0  3  0  0  0  0  0  0
  159.2250  209.9070  155.9240 C   0  0  0  0  0  3  0  0  0  0  0  0
  161.3970  208.3180  155.7950 S   0  0  0  0  0  0  0  0  0  0  0  0
  162.2860  209.0020  150.5650 C   0  0  1  0  0  3  0  0  0  0  0  0
  161.3070  209.7610  151.4660 C   0  0  0  0  0  2  0  0  0  0  0  0
  162.0330  206.9610  152.1790 C   0  0  1  0  0  3  0  0  0  0  0  0
  161.2890  205.8110  151.5280 C   0  0  0  0  0  1  0  0  0  0  0  0
  162.8930  207.7070  151.1440 C   0  0  0  0  0  2  0  0  0  0  0  0
  160.9070  207.3090  154.3950 C   0  0  0  0  0  0  0  0  0  0  0  0
  161.0650  207.8350  152.9880 C   0  0  1  0  0  3  0  0  0  0  0  0
  160.3540  206.2390  154.5890 O   0  0  0  0  0  0  0  0  0  0  0  0
  158.1890  210.8760  155.4630 C   0  0  0  0  0  2  0  0  0  0  0  0
  158.7640  212.2490  155.3100 C   0  0  0  0  0  0  0  0  0  0  0  0
  159.7230  212.4970  154.4100 C   0  0  0  0  0  3  0  0  0  0  0  0
  160.3130  209.6140  155.2110 C   0  0  0  0  0  0  0  0  0  0  0  0
  160.4100  211.4870  153.5780 C   0  0  0  0  0  3  0  0  0  0  0  0
  160.6110  210.1890  153.8720 C   0  0  0  0  0  0  0  0  0  0  0  0
  158.1950  213.3580  156.0970 C   0  0  0  0  0  0  0  0  0  0  0  0
  156.8130  213.3590  156.4400 N   0  0  0  0  0  1  0  0  0  0  0  0
  158.9230  214.3140  156.4780 O   0  0  0  0  0  0  0  0  0  0  0  0
  161.7780  208.8620  149.1300 C   0  0  0  0  0  2  0  0  0  0  0  0
  160.1640  205.4610  149.0040 N   0  0  0  0  0  0  0  0  0  0  0  0
  162.2120  206.8310  147.7330 C   0  0  0  0  0  3  0  0  0  0  0  0
  161.3200  202.8620  146.6820 C   0  0  0  0  0  0  0  0  0  0  0  0
  160.5840  203.5120  147.6850 C   0  0  0  0  0  3  0  0  0  0  0  0
  160.8800  204.8330  148.0320 C   0  0  0  0  0  0  0  0  0  0  0  0
  162.6580  204.8720  146.3750 C   0  0  0  0  0  3  0  0  0  0  0  0
  161.9230  205.5150  147.3730 C   0  0  0  0  0  0  0  0  0  0  0  0
  162.3560  203.5510  146.0310 C   0  0  0  0  0  3  0  0  0  0  0  0
  161.4690  207.4520  148.7400 C   0  0  0  0  0  0  0  0  0  0  0  0
  160.4350  206.7440  149.3650 C   0  0  0  0  0  3  0  0  0  0  0  0
  161.0080  201.4690  146.3150 C   0  0  0  0  0  0  0  0  0  0  0  0
  160.2090  201.1870  145.1690 N   0  0  0  0  0  1  0  0  0  0  0  0
  161.4470  200.5150  147.0110 O   0  0  0  0  0  0  0  0  0  0  0  0
  1  5  1  6  0  0  0
  1 10  1  0  0  0  0
  1 17  1  0  0  0  0
  4 21  1  6  0  0  0
  4  8  1  0  0  0  0
  4  5  1  0  0  0  0
  6  7  1  6  0  0  0
  6 10  1  0  0  0  0
  8  6  1  0  0  0  0
  9 11  2  0  0  0  0
  9  3  1  0  0  0  0
 10  9  1  1  0  0  0
 12  2  1  0  0  0  0
 13 12  1  0  0  0  0
 13 18  1  0  0  0  0
 14 13  2  0  0  0  0
 15  3  1  0  0  0  0
 15  2  2  0  0  0  0
 16 17  2  0  0  0  0
 16 14  1  0  0  0  0
 17 15  1  0  0  0  0
 18 19  1  0  0  0  0
 18 20  2  0  0  0  0
 22 31  1  0  0  0  0
 23 30  1  0  0  0  0
 24 25  2  0  0  0  0
 25 26  1  0  0  0  0
 26 22  2  0  0  0  0
 27 28  1  0  0  0  0
 28 23  2  0  0  0  0
 28 26  1  0  0  0  0
 29 27  2  0  0  0  0
 29 24  1  0  0  0  0
 30 21  1  0  0  0  0
 30 31  2  0  0  0  0
 32 24  1  0  0  0  0
 32 34  2  0  0  0  0
 33 32  1  0  0  0  0
M  END
>  <MODEL>
7

>  <REMARK>
 VINA RESULT:      -6.9      2.625      3.834
  Name = 
  4 active torsions:
  status: ('A' for Active; 'I' for Inactive)
    1  A    between atoms: C_3  and  C_25
    2  A    between atoms: C_7  and  C_11
    3  A    between atoms: C_8  and  C_18
    4  A    between atoms: C_18  and  C_30
                            x       y       z     vdW  Elec       q    Type
                         _______ _______ _______ _____ _____    ______ ____

>  <TORSDO>
F 4

$$$$
=
 OpenBabel11062409403D

 34 38  0  0  1  0  0  0  0  0999 V2000
  161.8590  204.3160  149.0400 C   0  0  2  0  0  3  0  0  0  0  0  0
  161.2050  203.2920  145.4710 C   0  0  0  0  0  3  0  0  0  0  0  0
  162.9990  205.1100  146.3310 S   0  0  0  0  0  0  0  0  0  0  0  0
  161.5830  204.9040  151.4860 C   0  0  1  0  0  3  0  0  0  0  0  0
  161.1420  203.9820  150.3440 C   0  0  0  0  0  2  0  0  0  0  0  0
  161.9190  206.7850  149.7010 C   0  0  1  0  0  3  0  0  0  0  0  0
  160.8940  207.8920  149.8420 C   0  0  0  0  0  1  0  0  0  0  0  0
  162.2950  206.2110  151.0780 C   0  0  0  0  0  2  0  0  0  0  0  0
  161.8870  206.1590  147.2700 C   0  0  0  0  0  0  0  0  0  0  0  0
  161.4550  205.7560  148.6600 C   0  0  1  0  0  3  0  0  0  0  0  0
  161.4030  207.1470  146.7420 O   0  0  0  0  0  0  0  0  0  0  0  0
  160.1380  202.2540  145.5540 C   0  0  0  0  0  2  0  0  0  0  0  0
  160.6780  200.9660  146.0880 C   0  0  0  0  0  0  0  0  0  0  0  0
  161.1690  200.8860  147.3310 C   0  0  0  0  0  3  0  0  0  0  0  0
  161.8560  203.7510  146.5410 C   0  0  0  0  0  0  0  0  0  0  0  0
  161.3610  202.0220  148.2580 C   0  0  0  0  0  3  0  0  0  0  0  0
  161.5840  203.3090  147.9340 C   0  0  0  0  0  0  0  0  0  0  0  0
  160.5790  199.7480  145.2620 C   0  0  0  0  0  0  0  0  0  0  0  0
  161.2880  198.5700  145.6340 N   0  0  0  0  0  1  0  0  0  0  0  0
  159.8650  199.7340  144.2230 O   0  0  0  0  0  0  0  0  0  0  0  0
  160.4970  205.0920  152.5440 C   0  0  0  0  0  2  0  0  0  0  0  0
  161.4310  206.9770  155.6680 N   0  0  0  0  0  0  0  0  0  0  0  0
  160.6470  207.5350  153.0680 C   0  0  0  0  0  3  0  0  0  0  0  0
  161.4280  210.6480  155.7790 C   0  0  0  0  0  0  0  0  0  0  0  0
  161.5600  209.3090  156.1810 C   0  0  0  0  0  3  0  0  0  0  0  0
  161.3020  208.2740  155.2780 C   0  0  0  0  0  0  0  0  0  0  0  0
  160.7730  209.9070  153.5550 C   0  0  0  0  0  3  0  0  0  0  0  0
  160.9060  208.5760  153.9590 C   0  0  0  0  0  0  0  0  0  0  0  0
  161.0340  210.9380  154.4640 C   0  0  0  0  0  3  0  0  0  0  0  0
  160.7770  206.2110  153.4950 C   0  0  0  0  0  0  0  0  0  0  0  0
  161.1810  205.9510  154.8110 C   0  0  0  0  0  3  0  0  0  0  0  0
  161.7010  211.7390  156.7310 C   0  0  0  0  0  0  0  0  0  0  0  0
  160.6800  212.6760  157.0660 N   0  0  0  0  0  1  0  0  0  0  0  0
  162.8400  211.8540  157.2590 O   0  0  0  0  0  0  0  0  0  0  0  0
  1  5  1  1  0  0  0
  2 12  1  0  0  0  0
  2 15  2  0  0  0  0
  3 15  1  0  0  0  0
  3  9  1  0  0  0  0
  4 21  1  6  0  0  0
  5  4  1  0  0  0  0
  6  7  1  1  0  0  0
  6  8  1  0  0  0  0
  8  4  1  0  0  0  0
 10  9  1  6  0  0  0
 10  1  1  0  0  0  0
 10  6  1  0  0  0  0
 11  9  2  0  0  0  0
 12 13  1  0  0  0  0
 13 14  2  0  0  0  0
 14 16  1  0  0  0  0
 15 17  1  0  0  0  0
 17 16  2  0  0  0  0
 17  1  1  0  0  0  0
 18 19  1  0  0  0  0
 18 13  1  0  0  0  0
 20 18  2  0  0  0  0
 21 30  1  0  0  0  0
 23 30  2  0  0  0  0
 23 28  1  0  0  0  0
 24 25  1  0  0  0  0
 24 32  1  0  0  0  0
 26 22  1  0  0  0  0
 26 25  2  0  0  0  0
 27 28  2  0  0  0  0
 27 29  1  0  0  0  0
 28 26  1  0  0  0  0
 29 24  2  0  0  0  0
 30 31  1  0  0  0  0
 31 22  2  0  0  0  0
 32 33  1  0  0  0  0
 32 34  2  0  0  0  0
M  END
>  <MODEL>
8

>  <REMARK>
 VINA RESULT:      -6.8      3.796      9.897
  Name = 
  4 active torsions:
  status: ('A' for Active; 'I' for Inactive)
    1  A    between atoms: C_3  and  C_25
    2  A    between atoms: C_7  and  C_11
    3  A    between atoms: C_8  and  C_18
    4  A    between atoms: C_18  and  C_30
                            x       y       z     vdW  Elec       q    Type
                         _______ _______ _______ _____ _____    ______ ____

>  <TORSDO>
F 4

$$$$
