=
 OpenBabel11062409453D

 34 39  0  0  1  0  0  0  0  0999 V2000
  160.4590  209.0850  153.3440 N   0  0  0  0  0  0  0  0  0  0  0  0
  159.5360  212.6580  154.2990 C   0  0  0  0  0  3  0  0  0  0  0  0
  160.2450  210.7370  155.6120 C   0  0  0  0  0  3  0  0  0  0  0  0
  161.1200  206.3860  153.7200 N   0  0  0  0  0  0  0  0  0  0  0  0
  160.5650  208.1950  152.2190 C   0  0  0  0  0  3  0  0  0  0  0  0
  161.0670  207.1300  154.7840 C   0  0  0  0  0  0  0  0  0  0  0  0
  161.2290  207.5370  157.2480 C   0  0  0  0  0  3  0  0  0  0  0  0
  161.3530  206.5330  156.1310 C   0  0  0  0  0  3  0  0  0  0  0  0
  160.8670  206.8960  152.3930 C   0  0  0  0  0  0  0  0  0  0  0  0
  160.6610  209.3320  155.7420 C   0  0  0  0  0  0  0  0  0  0  0  0
  160.7300  208.5540  154.6530 C   0  0  2  0  0  3  0  0  0  0  0  0
  160.9170  208.7850  157.0440 N   0  0  0  0  0  0  0  0  0  0  0  0
  158.9990  213.0650  153.1430 C   0  0  0  0  0  0  0  0  0  0  0  0
  158.8570  212.1260  152.0060 C   0  0  0  0  0  3  0  0  0  0  0  0
  160.0570  211.2880  154.4120 C   0  0  0  0  0  0  0  0  0  0  0  0
  159.4560  210.9290  152.0160 C   0  0  0  0  0  3  0  0  0  0  0  0
  160.3880  210.5380  153.1370 C   0  0  2  0  0  3  0  0  0  0  0  0
  161.3040  205.6070  148.8480 C   0  0  0  0  0  3  0  0  0  0  0  0
  160.7990  204.6040  151.4170 C   0  0  0  0  0  3  0  0  0  0  0  0
  161.0620  201.9760  148.1430 C   0  0  0  0  0  0  0  0  0  0  0  0
  161.2260  203.3570  147.9540 C   0  0  0  0  0  3  0  0  0  0  0  0
  161.1400  204.2330  149.0380 C   0  0  0  0  0  0  0  0  0  0  0  0
  160.7210  202.3540  150.5220 C   0  0  0  0  0  3  0  0  0  0  0  0
  160.8850  203.7280  150.3320 C   0  0  0  0  0  0  0  0  0  0  0  0
  160.8090  201.4830  149.4320 C   0  0  0  0  0  3  0  0  0  0  0  0
  160.9630  205.9850  151.2320 C   0  0  0  0  0  0  0  0  0  0  0  0
  161.2160  206.4770  149.9390 C   0  0  0  0  0  3  0  0  0  0  0  0
  161.1530  201.0530  146.9970 C   0  0  0  0  0  0  0  0  0  0  0  0
  160.7910  201.4880  145.6900 N   0  0  0  0  0  1  0  0  0  0  0  0
  161.5520  199.8710  147.1640 O   0  0  0  0  0  0  0  0  0  0  0  0
  158.4640  214.4530  153.0280 C   0  0  0  0  0  2  0  0  0  0  0  0
  156.9450  214.4530  153.0950 C   0  0  1  0  0  3  0  0  0  0  0  0
  156.3830  214.3190  151.6970 C   0  0  0  0  0  1  0  0  0  0  0  0
  156.5020  213.3830  153.8750 O   0  0  0  0  0  1  0  0  0  0  0  0
  1 11  1  0  0  0  0
  2 15  1  0  0  0  0
  3 10  1  0  0  0  0
  4  6  2  0  0  0  0
  5  9  2  0  0  0  0
  5  1  1  0  0  0  0
  6  8  1  0  0  0  0
  8  7  2  0  0  0  0
  9  4  1  0  0  0  0
 10 12  2  0  0  0  0
 11  6  1  1  0  0  0
 11 10  1  0  0  0  0
 12  7  1  0  0  0  0
 13  2  2  0  0  0  0
 14 16  2  0  0  0  0
 14 13  1  0  0  0  0
 15  3  2  0  0  0  0
 17 16  1  6  0  0  0
 17  1  1  0  0  0  0
 17 15  1  0  0  0  0
 18 22  2  0  0  0  0
 18 27  1  0  0  0  0
 20 25  1  0  0  0  0
 21 20  2  0  0  0  0
 21 22  1  0  0  0  0
 22 24  1  0  0  0  0
 24 23  1  0  0  0  0
 24 19  2  0  0  0  0
 25 23  2  0  0  0  0
 26 19  1  0  0  0  0
 26  9  1  0  0  0  0
 27 26  2  0  0  0  0
 28 30  2  0  0  0  0
 28 20  1  0  0  0  0
 29 28  1  0  0  0  0
 31 32  1  0  0  0  0
 31 13  1  0  0  0  0
 32 33  1  6  0  0  0
 32 34  1  0  0  0  0
M  END
>  <MODEL>
1

>  <REMARK>
 VINA RESULT:      -9.1      0.000      0.000
  Name = 
  4 active torsions:
  status: ('A' for Active; 'I' for Inactive)
    1  A    between atoms: C_3  and  C_25
    2  A    between atoms: C_7  and  C_11
    3  A    between atoms: C_18  and  C_30
    4  A    between atoms: C_23  and  C_25
                            x       y       z     vdW  Elec       q    Type
                         _______ _______ _______ _____ _____    ______ ____

>  <TORSDO>
F 4

$$$$
=
 OpenBabel11062409453D

 34 39  0  0  1  0  0  0  0  0999 V2000
  161.5400  207.9650  150.9200 N   0  0  0  0  0  0  0  0  0  0  0  0
  161.9940  211.7130  150.3980 C   0  0  0  0  0  3  0  0  0  0  0  0
  161.5300  210.3740  152.3740 C   0  0  0  0  0  3  0  0  0  0  0  0
  160.9200  205.5900  152.2740 N   0  0  0  0  0  0  0  0  0  0  0  0
  161.5150  206.7100  150.2200 C   0  0  0  0  0  3  0  0  0  0  0  0
  160.9450  206.6790  152.9830 C   0  0  0  0  0  0  0  0  0  0  0  0
  160.7070  207.9800  155.1080 C   0  0  0  0  0  3  0  0  0  0  0  0
  160.6490  206.6230  154.4530 C   0  0  0  0  0  3  0  0  0  0  0  0
  161.2050  205.5680  150.8590 C   0  0  0  0  0  0  0  0  0  0  0  0
  161.2850  209.0890  153.0470 C   0  0  0  0  0  0  0  0  0  0  0  0
  161.2670  207.9560  152.3330 C   0  0  2  0  0  3  0  0  0  0  0  0
  160.9950  209.0680  154.4520 N   0  0  0  0  0  0  0  0  0  0  0  0
  161.9470  211.7590  149.0610 C   0  0  0  0  0  0  0  0  0  0  0  0
  161.6860  210.5310  148.2750 C   0  0  0  0  0  3  0  0  0  0  0  0
  161.8610  210.4200  151.0830 C   0  0  0  0  0  0  0  0  0  0  0  0
  161.7160  209.3210  148.8470 C   0  0  0  0  0  3  0  0  0  0  0  0
  162.1260  209.1560  150.2900 C   0  0  2  0  0  3  0  0  0  0  0  0
  161.0740  201.8470  150.1160 C   0  0  0  0  0  3  0  0  0  0  0  0
  161.2010  204.2780  148.7260 C   0  0  0  0  0  3  0  0  0  0  0  0
  161.1050  200.6440  146.6100 C   0  0  0  0  0  0  0  0  0  0  0  0
  161.0740  200.6440  148.0130 C   0  0  0  0  0  3  0  0  0  0  0  0
  161.1050  201.8490  148.7200 C   0  0  0  0  0  0  0  0  0  0  0  0
  161.2010  203.0760  146.6240 C   0  0  0  0  0  3  0  0  0  0  0  0
  161.1700  203.0740  148.0200 C   0  0  0  0  0  0  0  0  0  0  0  0
  161.1690  201.8660  145.9230 C   0  0  0  0  0  3  0  0  0  0  0  0
  161.1700  204.2820  150.1290 C   0  0  0  0  0  0  0  0  0  0  0  0
  161.1060  203.0560  150.8160 C   0  0  0  0  0  3  0  0  0  0  0  0
  161.0720  199.3730  145.8650 C   0  0  0  0  0  0  0  0  0  0  0  0
  160.2300  199.2260  144.7260 N   0  0  0  0  0  1  0  0  0  0  0  0
  161.7890  198.4040  146.2290 O   0  0  0  0  0  0  0  0  0  0  0  0
  162.0760  213.0710  148.3640 C   0  0  0  0  0  2  0  0  0  0  0  0
  161.5840  212.9720  146.9290 C   0  0  1  0  0  3  0  0  0  0  0  0
  160.3730  213.8610  146.7520 C   0  0  0  0  0  1  0  0  0  0  0  0
  162.5890  213.3820  146.0510 O   0  0  0  0  0  1  0  0  0  0  0  0
  1 11  1  0  0  0  0
  2 15  1  0  0  0  0
  3 10  1  0  0  0  0
  4  6  2  0  0  0  0
  5  9  2  0  0  0  0
  5  1  1  0  0  0  0
  6  8  1  0  0  0  0
  8  7  2  0  0  0  0
  9  4  1  0  0  0  0
 10 12  2  0  0  0  0
 11  6  1  6  0  0  0
 11 10  1  0  0  0  0
 12  7  1  0  0  0  0
 13  2  2  0  0  0  0
 14 16  2  0  0  0  0
 14 13  1  0  0  0  0
 15  3  2  0  0  0  0
 17 16  1  6  0  0  0
 17  1  1  0  0  0  0
 17 15  1  0  0  0  0
 18 27  1  0  0  0  0
 19 26  1  0  0  0  0
 20 21  2  0  0  0  0
 21 22  1  0  0  0  0
 22 18  2  0  0  0  0
 23 24  1  0  0  0  0
 24 22  1  0  0  0  0
 24 19  2  0  0  0  0
 25 20  1  0  0  0  0
 25 23  2  0  0  0  0
 26 27  2  0  0  0  0
 26  9  1  0  0  0  0
 28 30  2  0  0  0  0
 28 20  1  0  0  0  0
 29 28  1  0  0  0  0
 31 13  1  0  0  0  0
 32 33  1  1  0  0  0
 32 31  1  0  0  0  0
 34 32  1  0  0  0  0
M  END
>  <MODEL>
2

>  <REMARK>
 VINA RESULT:      -8.9      2.979      3.945
  Name = 
  4 active torsions:
  status: ('A' for Active; 'I' for Inactive)
    1  A    between atoms: C_3  and  C_25
    2  A    between atoms: C_7  and  C_11
    3  A    between atoms: C_18  and  C_30
    4  A    between atoms: C_23  and  C_25
                            x       y       z     vdW  Elec       q    Type
                         _______ _______ _______ _____ _____    ______ ____

>  <TORSDO>
F 4

$$$$
=
 OpenBabel11062409453D

 34 39  0  0  1  0  0  0  0  0999 V2000
  160.0340  209.8020  153.7450 N   0  0  0  0  0  0  0  0  0  0  0  0
  158.3370  212.7000  155.5470 C   0  0  0  0  0  3  0  0  0  0  0  0
  159.5200  210.7330  156.3500 C   0  0  0  0  0  3  0  0  0  0  0  0
  161.3190  207.3290  153.4450 N   0  0  0  0  0  0  0  0  0  0  0  0
  160.3050  209.2740  152.4360 C   0  0  0  0  0  3  0  0  0  0  0  0
  161.1320  207.7470  154.6610 C   0  0  0  0  0  0  0  0  0  0  0  0
  161.2810  207.5490  157.1520 C   0  0  0  0  0  3  0  0  0  0  0  0
  161.5960  206.9150  155.8200 C   0  0  0  0  0  3  0  0  0  0  0  0
  160.9090  208.0810  152.2840 C   0  0  0  0  0  0  0  0  0  0  0  0
  160.2560  209.4790  156.1330 C   0  0  0  0  0  0  0  0  0  0  0  0
  160.4670  209.0380  154.8850 C   0  0  2  0  0  3  0  0  0  0  0  0
  160.6790  208.6990  157.2610 N   0  0  0  0  0  0  0  0  0  0  0  0
  157.6790  213.2470  154.5180 C   0  0  0  0  0  0  0  0  0  0  0  0
  157.7200  212.6180  153.1780 C   0  0  0  0  0  3  0  0  0  0  0  0
  159.1660  211.5090  155.3240 C   0  0  0  0  0  0  0  0  0  0  0  0
  158.5820  211.6320  152.9010 C   0  0  0  0  0  3  0  0  0  0  0  0
  159.6180  211.2020  153.9110 C   0  0  2  0  0  3  0  0  0  0  0  0
  161.8110  207.8580  148.6020 C   0  0  0  0  0  3  0  0  0  0  0  0
  161.0350  206.1640  150.6960 C   0  0  0  0  0  3  0  0  0  0  0  0
  161.7770  204.5810  146.8710 C   0  0  0  0  0  0  0  0  0  0  0  0
  161.9170  205.9580  147.1040 C   0  0  0  0  0  3  0  0  0  0  0  0
  161.6720  206.4880  148.3730 C   0  0  0  0  0  0  0  0  0  0  0  0
  161.1400  204.2640  149.1980 C   0  0  0  0  0  3  0  0  0  0  0  0
  161.2800  205.6340  149.4270 C   0  0  0  0  0  0  0  0  0  0  0  0
  161.3880  203.7410  147.9250 C   0  0  0  0  0  3  0  0  0  0  0  0
  161.1740  207.5390  150.9340 C   0  0  0  0  0  0  0  0  0  0  0  0
  161.5640  208.3800  149.8750 C   0  0  0  0  0  3  0  0  0  0  0  0
  162.0360  204.0230  145.5310 C   0  0  0  0  0  0  0  0  0  0  0  0
  160.9640  203.5230  144.7390 N   0  0  0  0  0  1  0  0  0  0  0  0
  163.2090  203.9850  145.0750 O   0  0  0  0  0  0  0  0  0  0  0  0
  156.8310  214.4530  154.7440 C   0  0  0  0  0  2  0  0  0  0  0  0
  155.3610  214.0720  154.8280 C   0  0  1  0  0  3  0  0  0  0  0  0
  154.8350  213.7970  153.4360 C   0  0  0  0  0  1  0  0  0  0  0  0
  155.2100  212.9280  155.6130 O   0  0  0  0  0  1  0  0  0  0  0  0
  1 17  1  0  0  0  0
  1 11  1  0  0  0  0
  4  6  2  0  0  0  0
  5  1  1  0  0  0  0
  6  8  1  0  0  0  0
  7 12  1  0  0  0  0
  8  7  2  0  0  0  0
  9  5  2  0  0  0  0
  9  4  1  0  0  0  0
 10  3  1  0  0  0  0
 10 12  2  0  0  0  0
 11  6  1  1  0  0  0
 11 10  1  0  0  0  0
 13 31  1  0  0  0  0
 13  2  2  0  0  0  0
 14 13  1  0  0  0  0
 15  2  1  0  0  0  0
 15  3  2  0  0  0  0
 16 14  2  0  0  0  0
 17 16  1  6  0  0  0
 17 15  1  0  0  0  0
 18 27  1  0  0  0  0
 19 26  1  0  0  0  0
 20 21  2  0  0  0  0
 20 25  1  0  0  0  0
 21 22  1  0  0  0  0
 22 18  2  0  0  0  0
 22 24  1  0  0  0  0
 23 24  1  0  0  0  0
 24 19  2  0  0  0  0
 25 23  2  0  0  0  0
 26  9  1  0  0  0  0
 27 26  2  0  0  0  0
 28 20  1  0  0  0  0
 29 28  1  0  0  0  0
 30 28  2  0  0  0  0
 31 32  1  0  0  0  0
 32 33  1  6  0  0  0
 32 34  1  0  0  0  0
M  END
>  <MODEL>
3

>  <REMARK>
 VINA RESULT:      -8.6      1.651      2.030
  Name = 
  4 active torsions:
  status: ('A' for Active; 'I' for Inactive)
    1  A    between atoms: C_3  and  C_25
    2  A    between atoms: C_7  and  C_11
    3  A    between atoms: C_18  and  C_30
    4  A    between atoms: C_23  and  C_25
                            x       y       z     vdW  Elec       q    Type
                         _______ _______ _______ _____ _____    ______ ____

>  <TORSDO>
F 4

$$$$
=
 OpenBabel11062409453D

 34 39  0  0  1  0  0  0  0  0999 V2000
  161.3800  207.9030  150.9480 N   0  0  0  0  0  0  0  0  0  0  0  0
  161.3810  209.1360  154.5550 C   0  0  0  0  0  3  0  0  0  0  0  0
  161.6590  210.2810  152.4270 C   0  0  0  0  0  3  0  0  0  0  0  0
  161.6970  208.0210  148.1650 N   0  0  0  0  0  0  0  0  0  0  0  0
  161.2630  206.7140  150.1490 C   0  0  0  0  0  3  0  0  0  0  0  0
  161.7930  209.1430  148.8140 C   0  0  0  0  0  0  0  0  0  0  0  0
  162.1590  211.6130  148.9830 C   0  0  0  0  0  3  0  0  0  0  0  0
  162.0630  210.4180  148.0690 C   0  0  0  0  0  2  0  0  0  0  0  0
  161.4280  206.7600  148.8150 C   0  0  0  0  0  0  0  0  0  0  0  0
  161.7410  210.2950  150.9580 C   0  0  0  0  0  0  0  0  0  0  0  0
  161.6330  209.1490  150.2740 C   0  0  0  0  0  0  0  0  0  0  0  0
  162.0110  211.5280  150.2740 N   0  0  0  0  0  0  0  0  0  0  0  0
  161.4490  207.9620  155.1910 C   0  0  0  0  0  0  0  0  0  0  0  0
  161.5720  206.6980  154.4290 C   0  0  0  0  0  3  0  0  0  0  0  0
  161.3520  209.1630  153.0860 C   0  0  0  0  0  0  0  0  0  0  0  0
  161.3920  206.6670  153.1030 C   0  0  0  0  0  3  0  0  0  0  0  0
  160.9480  207.9000  152.3530 C   0  0  2  0  0  3  0  0  0  0  0  0
  161.1280  204.4220  145.8380 C   0  0  0  0  0  3  0  0  0  0  0  0
  161.3000  204.2770  148.6320 C   0  0  0  0  0  3  0  0  0  0  0  0
  160.9880  200.7550  146.3540 C   0  0  0  0  0  0  0  0  0  0  0  0
  161.0060  202.0060  145.7190 C   0  0  0  0  0  3  0  0  0  0  0  0
  161.1090  203.1780  146.4720 C   0  0  0  0  0  0  0  0  0  0  0  0
  161.1780  201.8610  148.5130 C   0  0  0  0  0  3  0  0  0  0  0  0
  161.1960  203.1050  147.8790 C   0  0  0  0  0  0  0  0  0  0  0  0
  161.0740  200.6920  147.7530 C   0  0  0  0  0  3  0  0  0  0  0  0
  161.3180  205.5300  148.0000 C   0  0  0  0  0  0  0  0  0  0  0  0
  161.2310  205.5910  146.5980 C   0  0  0  0  0  3  0  0  0  0  0  0
  160.8780  199.5180  145.5600 C   0  0  0  0  0  0  0  0  0  0  0  0
  161.5810  198.3440  145.9520 N   0  0  0  0  0  1  0  0  0  0  0  0
  160.1600  199.4890  144.5250 O   0  0  0  0  0  0  0  0  0  0  0  0
  161.4860  207.9330  156.6820 C   0  0  0  0  0  2  0  0  0  0  0  0
  160.0880  208.0770  157.2610 C   0  0  1  0  0  3  0  0  0  0  0  0
  159.6920  209.5380  157.2550 C   0  0  0  0  0  1  0  0  0  0  0  0
  159.1770  207.3500  156.4930 O   0  0  0  0  0  1  0  0  0  0  0  0
  1 17  1  0  0  0  0
  2 13  2  0  0  0  0
  3 15  2  0  0  0  0
  4  6  2  0  0  0  0
  4  9  1  0  0  0  0
  5  1  1  0  0  0  0
  6 11  1  0  0  0  0
  7 12  2  0  0  0  0
  8  6  1  0  0  0  0
  8  7  1  0  0  0  0
  9  5  2  0  0  0  0
 10  3  1  0  0  0  0
 11  1  1  0  0  0  0
 11 10  2  0  0  0  0
 12 10  1  0  0  0  0
 13 31  1  0  0  0  0
 14 13  1  0  0  0  0
 15  2  1  0  0  0  0
 16 14  2  0  0  0  0
 17 15  1  0  0  0  0
 17 16  1  1  0  0  0
 18 22  2  0  0  0  0
 18 27  1  0  0  0  0
 20 25  1  0  0  0  0
 21 20  2  0  0  0  0
 21 22  1  0  0  0  0
 22 24  1  0  0  0  0
 24 23  1  0  0  0  0
 24 19  2  0  0  0  0
 25 23  2  0  0  0  0
 26 19  1  0  0  0  0
 26  9  1  0  0  0  0
 27 26  2  0  0  0  0
 28 29  1  0  0  0  0
 28 20  1  0  0  0  0
 30 28  2  0  0  0  0
 31 32  1  0  0  0  0
 32 33  1  6  0  0  0
 34 32  1  0  0  0  0
M  END
>  <MODEL>
4

>  <REMARK>
 VINA RESULT:      -8.0      3.087      5.034
  Name = 
  4 active torsions:
  status: ('A' for Active; 'I' for Inactive)
    1  A    between atoms: C_3  and  C_25
    2  A    between atoms: C_7  and  C_11
    3  A    between atoms: C_18  and  C_30
    4  A    between atoms: C_23  and  C_25
                            x       y       z     vdW  Elec       q    Type
                         _______ _______ _______ _____ _____    ______ ____

>  <TORSDO>
F 4

$$$$
=
 OpenBabel11062409453D

 34 39  0  0  1  0  0  0  0  0999 V2000
  161.4730  208.4600  150.0680 N   0  0  0  0  0  0  0  0  0  0  0  0
  161.7310  212.2610  150.1750 C   0  0  0  0  0  3  0  0  0  0  0  0
  161.4420  210.5840  151.9130 C   0  0  0  0  0  3  0  0  0  0  0  0
  161.0380  205.8600  151.0240 N   0  0  0  0  0  0  0  0  0  0  0  0
  161.4630  207.3410  149.1650 C   0  0  0  0  0  3  0  0  0  0  0  0
  161.0570  206.8130  151.9070 C   0  0  0  0  0  0  0  0  0  0  0  0
  160.8860  207.7220  154.2330 C   0  0  0  0  0  3  0  0  0  0  0  0
  160.8490  206.4940  153.3590 C   0  0  0  0  0  3  0  0  0  0  0  0
  161.2410  206.0930  149.6140 C   0  0  0  0  0  0  0  0  0  0  0  0
  161.2940  209.1930  152.3670 C   0  0  0  0  0  0  0  0  0  0  0  0
  161.2840  208.1980  151.4700 C   0  0  2  0  0  3  0  0  0  0  0  0
  161.0870  208.9190  153.7600 N   0  0  0  0  0  0  0  0  0  0  0  0
  161.6040  212.5290  148.8700 C   0  0  0  0  0  0  0  0  0  0  0  0
  161.3520  211.4400  147.8990 C   0  0  0  0  0  3  0  0  0  0  0  0
  161.6940  210.8660  150.6340 C   0  0  0  0  0  0  0  0  0  0  0  0
  161.4680  210.1540  148.2520 C   0  0  0  0  0  3  0  0  0  0  0  0
  161.9680  209.7700  149.6240 C   0  0  2  0  0  3  0  0  0  0  0  0
  161.1900  204.0610  146.4070 C   0  0  0  0  0  3  0  0  0  0  0  0
  161.2110  203.6390  149.1780 C   0  0  0  0  0  3  0  0  0  0  0  0
  161.1510  200.3580  146.5470 C   0  0  0  0  0  0  0  0  0  0  0  0
  161.1610  201.6670  146.0410 C   0  0  0  0  0  3  0  0  0  0  0  0
  161.1810  202.7600  146.9120 C   0  0  0  0  0  0  0  0  0  0  0  0
  161.1810  201.2450  148.8120 C   0  0  0  0  0  3  0  0  0  0  0  0
  161.1910  202.5470  148.3070 C   0  0  0  0  0  0  0  0  0  0  0  0
  161.1610  200.1560  147.9350 C   0  0  0  0  0  3  0  0  0  0  0  0
  161.2210  204.9490  148.6760 C   0  0  0  0  0  0  0  0  0  0  0  0
  161.2100  205.1490  147.2840 C   0  0  0  0  0  3  0  0  0  0  0  0
  161.1300  199.2060  145.6280 C   0  0  0  0  0  0  0  0  0  0  0  0
  162.1510  198.2140  145.6900 N   0  0  0  0  0  1  0  0  0  0  0  0
  160.2090  199.0870  144.7780 O   0  0  0  0  0  0  0  0  0  0  0  0
  161.6340  213.9460  148.4040 C   0  0  0  0  0  2  0  0  0  0  0  0
  160.2270  214.4530  148.1270 C   0  0  1  0  0  3  0  0  0  0  0  0
  159.8810  214.2020  146.6760 C   0  0  0  0  0  1  0  0  0  0  0  0
  159.3110  213.7860  148.9420 O   0  0  0  0  0  1  0  0  0  0  0  0
  1 11  1  0  0  0  0
  2 15  1  0  0  0  0
  3 10  1  0  0  0  0
  4  6  2  0  0  0  0
  5  9  2  0  0  0  0
  5  1  1  0  0  0  0
  6  8  1  0  0  0  0
  8  7  2  0  0  0  0
  9  4  1  0  0  0  0
 10 12  2  0  0  0  0
 11  6  1  6  0  0  0
 11 10  1  0  0  0  0
 12  7  1  0  0  0  0
 13  2  2  0  0  0  0
 14 16  2  0  0  0  0
 14 13  1  0  0  0  0
 15  3  2  0  0  0  0
 17 16  1  6  0  0  0
 17  1  1  0  0  0  0
 17 15  1  0  0  0  0
 18 22  2  0  0  0  0
 18 27  1  0  0  0  0
 20 25  1  0  0  0  0
 21 20  2  0  0  0  0
 21 22  1  0  0  0  0
 22 24  1  0  0  0  0
 24 23  1  0  0  0  0
 24 19  2  0  0  0  0
 25 23  2  0  0  0  0
 26 19  1  0  0  0  0
 26  9  1  0  0  0  0
 27 26  2  0  0  0  0
 28 29  1  0  0  0  0
 28 20  1  0  0  0  0
 30 28  2  0  0  0  0
 31 13  1  0  0  0  0
 32 33  1  6  0  0  0
 32 31  1  0  0  0  0
 32 34  1  0  0  0  0
M  END
>  <MODEL>
5

>  <REMARK>
 VINA RESULT:      -6.9      2.781      3.685
  Name = 
  4 active torsions:
  status: ('A' for Active; 'I' for Inactive)
    1  A    between atoms: C_3  and  C_25
    2  A    between atoms: C_7  and  C_11
    3  A    between atoms: C_18  and  C_30
    4  A    between atoms: C_23  and  C_25
                            x       y       z     vdW  Elec       q    Type
                         _______ _______ _______ _____ _____    ______ ____

>  <TORSDO>
F 4

$$$$
=
 OpenBabel11062409453D

 34 39  0  0  1  0  0  0  0  0999 V2000
  161.3380  207.9840  151.1680 N   0  0  0  0  0  0  0  0  0  0  0  0
  160.9120  204.3710  152.3040 C   0  0  0  0  0  3  0  0  0  0  0  0
  161.0860  206.4680  153.5240 C   0  0  0  0  0  3  0  0  0  0  0  0
  161.7780  210.7430  151.4000 N   0  0  0  0  0  0  0  0  0  0  0  0
  161.4890  208.8010  149.9940 C   0  0  0  0  0  3  0  0  0  0  0  0
  161.6270  210.0790  152.5070 C   0  0  0  0  0  0  0  0  0  0  0  0
  161.5150  209.8630  154.9980 C   0  0  0  0  0  3  0  0  0  0  0  0
  161.6940  210.7930  153.8240 C   0  0  0  0  0  3  0  0  0  0  0  0
  161.7150  210.1230  150.0980 C   0  0  0  0  0  0  0  0  0  0  0  0
  161.2440  207.9290  153.5840 C   0  0  0  0  0  0  0  0  0  0  0  0
  161.3900  208.6300  152.4520 C   0  0  2  0  0  3  0  0  0  0  0  0
  161.3150  208.5840  154.8600 N   0  0  0  0  0  0  0  0  0  0  0  0
  161.1630  203.7430  151.1500 C   0  0  0  0  0  0  0  0  0  0  0  0
  161.5620  204.5100  149.9470 C   0  0  0  0  0  3  0  0  0  0  0  0
  160.9580  205.8380  152.3550 C   0  0  0  0  0  0  0  0  0  0  0  0
  161.4630  205.8450  149.9110 C   0  0  0  0  0  3  0  0  0  0  0  0
  160.8380  206.6060  151.0550 C   0  0  2  0  0  3  0  0  0  0  0  0
  163.1430  212.5820  147.5820 C   0  0  0  0  0  3  0  0  0  0  0  0
  160.9160  210.9050  147.8700 C   0  0  0  0  0  3  0  0  0  0  0  0
  161.3500  213.2540  144.4080 C   0  0  0  0  0  0  0  0  0  0  0  0
  162.3190  213.3070  145.4230 C   0  0  0  0  0  3  0  0  0  0  0  0
  162.1780  212.5280  146.5740 C   0  0  0  0  0  0  0  0  0  0  0  0
  160.0910  211.6290  145.7110 C   0  0  0  0  0  3  0  0  0  0  0  0
  161.0560  211.6830  146.7190 C   0  0  0  0  0  0  0  0  0  0  0  0
  160.2390  212.4110  144.5610 C   0  0  0  0  0  3  0  0  0  0  0  0
  161.8820  210.9540  148.8860 C   0  0  0  0  0  0  0  0  0  0  0  0
  162.9950  211.8000  148.7310 C   0  0  0  0  0  3  0  0  0  0  0  0
  161.4990  214.0760  143.1940 C   0  0  0  0  0  0  0  0  0  0  0  0
  160.3550  214.4530  142.4340 N   0  0  0  0  0  1  0  0  0  0  0  0
  162.6400  214.4530  142.8170 O   0  0  0  0  0  0  0  0  0  0  0  0
  161.1240  202.2530  151.0980 C   0  0  0  0  0  2  0  0  0  0  0  0
  160.5400  201.7740  149.7780 C   0  0  1  0  0  3  0  0  0  0  0  0
  161.4970  200.7940  149.1340 C   0  0  0  0  0  1  0  0  0  0  0  0
  159.3150  201.1420  150.0010 O   0  0  0  0  0  1  0  0  0  0  0  0
  1 11  1  0  0  0  0
  2 15  1  0  0  0  0
  3 10  1  0  0  0  0
  4  6  2  0  0  0  0
  5  9  2  0  0  0  0
  5  1  1  0  0  0  0
  6  8  1  0  0  0  0
  8  7  2  0  0  0  0
  9  4  1  0  0  0  0
 10 12  2  0  0  0  0
 11  6  1  1  0  0  0
 11 10  1  0  0  0  0
 12  7  1  0  0  0  0
 13  2  2  0  0  0  0
 14 13  1  0  0  0  0
 15  3  2  0  0  0  0
 16 14  2  0  0  0  0
 17 16  1  6  0  0  0
 17  1  1  0  0  0  0
 17 15  1  0  0  0  0
 18 27  1  0  0  0  0
 19 26  1  0  0  0  0
 20 25  1  0  0  0  0
 20 21  2  0  0  0  0
 21 22  1  0  0  0  0
 22 24  1  0  0  0  0
 22 18  2  0  0  0  0
 23 24  1  0  0  0  0
 24 19  2  0  0  0  0
 25 23  2  0  0  0  0
 26  9  1  0  0  0  0
 27 26  2  0  0  0  0
 28 20  1  0  0  0  0
 29 28  1  0  0  0  0
 30 28  2  0  0  0  0
 31 13  1  0  0  0  0
 32 33  1  1  0  0  0
 32 34  1  0  0  0  0
 32 31  1  0  0  0  0
M  END
>  <MODEL>
6

>  <REMARK>
 VINA RESULT:      -6.6      4.993      8.784
  Name = 
  4 active torsions:
  status: ('A' for Active; 'I' for Inactive)
    1  A    between atoms: C_3  and  C_25
    2  A    between atoms: C_7  and  C_11
    3  A    between atoms: C_18  and  C_30
    4  A    between atoms: C_23  and  C_25
                            x       y       z     vdW  Elec       q    Type
                         _______ _______ _______ _____ _____    ______ ____

>  <TORSDO>
F 4

$$$$
=
 OpenBabel11062409453D

 34 39  0  0  1  0  0  0  0  0999 V2000
  161.2330  204.9780  149.6470 N   0  0  0  0  0  0  0  0  0  0  0  0
  161.8770  204.2810  145.9550 C   0  0  0  0  0  2  0  0  0  0  0  0
  161.4230  202.8230  147.8480 C   0  0  0  0  0  3  0  0  0  0  0  0
  160.8450  204.4120  152.3650 N   0  0  0  0  0  0  0  0  0  0  0  0
  161.1450  206.0420  150.6090 C   0  0  0  0  0  3  0  0  0  0  0  0
  160.8890  203.3960  151.5560 C   0  0  0  0  0  0  0  0  0  0  0  0
  160.8310  200.9530  151.0160 C   0  0  0  0  0  3  0  0  0  0  0  0
  160.7370  202.0030  152.0940 C   0  0  0  0  0  3  0  0  0  0  0  0
  160.9730  205.7780  151.9170 C   0  0  0  0  0  0  0  0  0  0  0  0
  161.1460  202.5890  149.2730 C   0  0  0  0  0  0  0  0  0  0  0  0
  161.0860  203.6260  150.1190 C   0  0  2  0  0  3  0  0  0  0  0  0
  161.0150  201.2450  149.7600 N   0  0  0  0  0  0  0  0  0  0  0  0
  162.3070  205.4890  145.5730 C   0  0  0  0  0  0  0  0  0  0  0  0
  162.4700  206.5790  146.5630 C   0  0  0  0  0  3  0  0  0  0  0  0
  161.4910  204.0610  147.3550 C   0  0  0  0  0  0  0  0  0  0  0  0
  161.9850  206.4650  147.8060 C   0  0  0  0  0  3  0  0  0  0  0  0
  161.1580  205.2680  148.2080 C   0  0  0  0  0  0  0  0  0  0  0  0
  160.8830  207.6710  155.2070 C   0  0  0  0  0  3  0  0  0  0  0  0
  160.7590  208.2020  152.4580 C   0  0  0  0  0  3  0  0  0  0  0  0
  160.5340  211.3610  155.2260 C   0  0  0  0  0  0  0  0  0  0  0  0
  160.6710  210.0380  155.6750 C   0  0  0  0  0  3  0  0  0  0  0  0
  160.7460  208.9860  154.7590 C   0  0  0  0  0  0  0  0  0  0  0  0
  160.5470  210.5690  152.9250 C   0  0  0  0  0  3  0  0  0  0  0  0
  160.6840  209.2540  153.3740 C   0  0  0  0  0  0  0  0  0  0  0  0
  160.4730  211.6170  153.8480 C   0  0  0  0  0  3  0  0  0  0  0  0
  160.8960  206.8790  152.9020 C   0  0  0  0  0  0  0  0  0  0  0  0
  160.9570  206.6240  154.2850 C   0  0  0  0  0  3  0  0  0  0  0  0
  160.4550  212.4700  156.1930 C   0  0  0  0  0  0  0  0  0  0  0  0
  159.6200  213.5950  155.9340 N   0  0  0  0  0  1  0  0  0  0  0  0
  161.1240  212.4340  157.2580 O   0  0  0  0  0  0  0  0  0  0  0  0
  162.7060  205.7140  144.1530 C   0  0  0  0  0  2  0  0  0  0  0  0
  161.4860  205.9720  143.2840 C   0  0  1  0  0  3  0  0  0  0  0  0
  161.9290  206.2030  141.8550 C   0  0  0  0  0  1  0  0  0  0  0  0
  160.6270  204.8720  143.3280 O   0  0  0  0  0  1  0  0  0  0  0  0
  1 11  1  0  0  0  0
  1  5  1  0  0  0  0
  2 15  1  0  0  0  0
  3 10  1  0  0  0  0
  5  9  2  0  0  0  0
  6  8  1  0  0  0  0
  6  4  2  0  0  0  0
  7  8  2  0  0  0  0
  9  4  1  0  0  0  0
  9 26  1  0  0  0  0
 10 12  2  0  0  0  0
 11 10  1  1  0  0  0
 11  6  1  0  0  0  0
 12  7  1  0  0  0  0
 13  2  1  0  0  0  0
 13 14  2  0  0  0  0
 14 16  1  0  0  0  0
 15  3  2  0  0  0  0
 15 17  1  0  0  0  0
 16 17  2  0  0  0  0
 17  1  1  0  0  0  0
 19 26  2  0  0  0  0
 19 24  1  0  0  0  0
 20 21  1  0  0  0  0
 20 28  1  0  0  0  0
 22 18  1  0  0  0  0
 22 21  2  0  0  0  0
 23 24  2  0  0  0  0
 23 25  1  0  0  0  0
 24 22  1  0  0  0  0
 25 20  2  0  0  0  0
 26 27  1  0  0  0  0
 27 18  2  0  0  0  0
 28 30  2  0  0  0  0
 29 28  1  0  0  0  0
 31 13  1  0  0  0  0
 32 33  1  6  0  0  0
 32 34  1  0  0  0  0
 32 31  1  0  0  0  0
M  END
>  <MODEL>
7

>  <REMARK>
 VINA RESULT:      -6.5      2.888      9.704
  Name = 
  4 active torsions:
  status: ('A' for Active; 'I' for Inactive)
    1  A    between atoms: C_3  and  C_25
    2  A    between atoms: C_7  and  C_11
    3  A    between atoms: C_18  and  C_30
    4  A    between atoms: C_23  and  C_25
                            x       y       z     vdW  Elec       q    Type
                         _______ _______ _______ _____ _____    ______ ____

>  <TORSDO>
F 4

$$$$
