=
 OpenBabel11062407543D

 34 38  0  0  1  0  0  0  0  0999 V2000
  161.3120  204.9950  152.1810 C   0  0  0  0  0  0  0  0  0  0  0  0
  160.8160  205.6890  149.9050 C   0  0  0  0  0  0  0  0  0  0  0  0
  161.2490  207.3990  151.7240 C   0  0  0  0  0  0  0  0  0  0  0  0
  161.2480  209.8690  151.5010 C   0  0  2  0  0  3  0  0  0  0  0  0
  161.2020  203.3470  150.4190 C   0  0  0  0  0  3  0  0  0  0  0  0
  160.8840  204.3490  149.5070 C   0  0  0  0  0  3  0  0  0  0  0  0
  161.8640  208.6670  149.4680 C   0  0  0  0  0  2  0  0  0  0  0  0
  161.1460  206.0540  151.2410 C   0  0  0  0  0  0  0  0  0  0  0  0
  161.8160  211.2200  150.4250 S   0  0  0  0  0  0  0  0  0  0  0  0
  161.3820  203.6670  151.7590 C   0  0  0  0  0  3  0  0  0  0  0  0
  161.2810  206.5630  154.0160 C   0  0  0  0  0  3  0  0  0  0  0  0
  161.3650  205.2580  153.5490 C   0  0  0  0  0  3  0  0  0  0  0  0
  160.0970  206.5930  148.9660 C   0  0  0  0  0  1  0  0  0  0  0  0
  161.6910  210.0700  152.8220 O   0  0  0  0  0  0  0  0  0  0  0  0
  161.1860  209.0440  153.6710 C   0  0  2  0  0  3  0  0  0  0  0  0
  162.3770  210.0550  149.1390 C   0  0  2  0  0  3  0  0  0  0  0  0
  161.8260  208.5820  150.9670 C   0  0  2  0  0  3  0  0  0  0  0  0
  161.2160  207.6280  153.1190 C   0  0  0  0  0  0  0  0  0  0  0  0
  158.4900  210.9270  155.5940 C   0  0  1  0  0  3  0  0  0  0  0  0
  157.1660  210.6250  155.2750 O   0  0  0  0  0  1  0  0  0  0  0  0
  159.9160  209.4200  154.4580 C   0  0  2  0  0  3  0  0  0  0  0  0
  158.9820  209.9710  156.5890 N   0  0  0  0  0  2  0  0  0  0  0  0
  159.3460  210.8200  154.3480 C   0  0  2  0  0  3  0  0  0  0  0  0
  159.9790  209.1270  155.9360 C   0  0  0  0  0  2  0  0  0  0  0  0
  160.4010  211.9130  154.4020 C   0  0  0  0  0  1  0  0  0  0  0  0
  161.8650  210.4930  147.7800 C   0  0  0  0  0  2  0  0  0  0  0  0
  161.1900  211.7370  147.9020 O   0  0  0  0  0  0  0  0  0  0  0  0
  161.3720  212.7790  146.9920 C   0  0  0  0  0  0  0  0  0  0  0  0
  162.5330  213.0400  146.5820 O   0  0  0  0  0  0  0  0  0  0  0  0
  159.9890  213.7410  146.3670 S   0  0  0  0  0  0  0  0  0  0  0  0
  159.1310  213.7500  147.9710 C   0  0  0  0  0  2  0  0  0  0  0  0
  157.3890  212.5120  146.7210 C   0  0  0  0  0  1  0  0  0  0  0  0
  156.9780  213.1580  149.0670 C   0  0  0  0  0  1  0  0  0  0  0  0
  157.6360  213.5780  147.7690 C   0  0  0  0  0  3  0  0  0  0  0  0
  1 12  1  0  0  0  0
  2  8  1  0  0  0  0
  3 18  2  0  0  0  0
  4  9  1  6  0  0  0
  4 14  1  0  0  0  0
  5 10  2  0  0  0  0
  6  2  2  0  0  0  0
  6  5  1  0  0  0  0
  8  3  1  0  0  0  0
  8  1  2  0  0  0  0
 10  1  1  0  0  0  0
 12 11  2  0  0  0  0
 13  2  1  0  0  0  0
 15 14  1  6  0  0  0
 15 21  1  0  0  0  0
 16 26  1  6  0  0  0
 16  7  1  0  0  0  0
 16  9  1  0  0  0  0
 17  7  1  6  0  0  0
 17  4  1  0  0  0  0
 17  3  1  0  0  0  0
 18 15  1  0  0  0  0
 18 11  1  0  0  0  0
 19 20  1  6  0  0  0
 19 22  1  0  0  0  0
 21 24  1  1  0  0  0
 23 25  1  1  0  0  0
 23 21  1  0  0  0  0
 23 19  1  0  0  0  0
 24 22  1  0  0  0  0
 26 27  1  0  0  0  0
 28 27  1  0  0  0  0
 29 28  2  0  0  0  0
 30 28  1  0  0  0  0
 30 31  1  0  0  0  0
 32 34  1  0  0  0  0
 34 31  1  0  0  0  0
 34 33  1  0  0  0  0
M  END
>  <MODEL>
1

>  <REMARK>
 VINA RESULT:      -7.5      0.000      0.000
  Name = 
  7 active torsions:
  status: ('A' for Active; 'I' for Inactive)
    1  A    between atoms: O_3  and  C_13
    2  A    between atoms: O_3  and  C_17
    3  A    between atoms: S_11  and  C_13
    4  A    between atoms: S_11  and  C_14
    5  A    between atoms: C_12  and  C_28
    6  A    between atoms: C_14  and  C_34
    7  A    between atoms: C_17  and  C_29
                            x       y       z     vdW  Elec       q    Type
                         _______ _______ _______ _____ _____    ______ ____

>  <TORSDO>
F 7

$$$$
=
 OpenBabel11062407543D

 34 38  0  0  1  0  0  0  0  0999 V2000
  161.3050  205.0030  152.1440 C   0  0  0  0  0  0  0  0  0  0  0  0
  160.7920  205.7180  149.8790 C   0  0  0  0  0  0  0  0  0  0  0  0
  161.2490  207.4110  151.7080 C   0  0  0  0  0  0  0  0  0  0  0  0
  161.2570  209.8830  151.5070 C   0  0  2  0  0  3  0  0  0  0  0  0
  161.1720  203.3700  150.3690 C   0  0  0  0  0  3  0  0  0  0  0  0
  160.8500  204.3820  149.4680 C   0  0  0  0  0  3  0  0  0  0  0  0
  161.8500  208.6950  149.4580 C   0  0  0  0  0  2  0  0  0  0  0  0
  161.1360  206.0700  151.2150 C   0  0  0  0  0  0  0  0  0  0  0  0
  161.8220  211.2400  150.4370 S   0  0  0  0  0  0  0  0  0  0  0  0
  161.3650  203.6780  151.7100 C   0  0  0  0  0  3  0  0  0  0  0  0
  161.2970  206.5540  153.9930 C   0  0  0  0  0  3  0  0  0  0  0  0
  161.3710  205.2540  153.5130 C   0  0  0  0  0  3  0  0  0  0  0  0
  160.0690  206.6330  148.9530 C   0  0  0  0  0  1  0  0  0  0  0  0
  161.7130  210.0700  152.8250 O   0  0  0  0  0  0  0  0  0  0  0  0
  161.2110  209.0390  153.6690 C   0  0  2  0  0  3  0  0  0  0  0  0
  162.3670  210.0840  149.1360 C   0  0  2  0  0  3  0  0  0  0  0  0
  161.8250  208.5970  150.9570 C   0  0  2  0  0  3  0  0  0  0  0  0
  161.2290  207.6270  153.1050 C   0  0  0  0  0  0  0  0  0  0  0  0
  158.5470  210.9150  155.6430 C   0  0  1  0  0  3  0  0  0  0  0  0
  157.2180  210.6330  155.3260 O   0  0  0  0  0  1  0  0  0  0  0  0
  159.9490  209.4130  154.4710 C   0  0  2  0  0  3  0  0  0  0  0  0
  159.0340  209.9370  156.6170 N   0  0  0  0  0  2  0  0  0  0  0  0
  159.3930  210.8210  154.3900 C   0  0  2  0  0  3  0  0  0  0  0  0
  160.0190  209.0930  155.9430 C   0  0  0  0  0  2  0  0  0  0  0  0
  160.4610  211.9020  154.4560 C   0  0  0  0  0  1  0  0  0  0  0  0
  161.8450  210.5360  147.7860 C   0  0  0  0  0  2  0  0  0  0  0  0
  161.7270  211.9510  147.7670 O   0  0  0  0  0  0  0  0  0  0  0  0
  160.6640  212.6060  147.1430 C   0  0  0  0  0  0  0  0  0  0  0  0
  159.7860  213.1640  147.8510 O   0  0  0  0  0  0  0  0  0  0  0  0
  160.5320  212.6970  145.3540 S   0  0  0  0  0  0  0  0  0  0  0  0
  161.9600  213.8140  145.1980 C   0  0  0  0  0  2  0  0  0  0  0  0
  162.2290  212.6270  143.0410 C   0  0  0  0  0  1  0  0  0  0  0  0
  163.8710  214.3480  143.6970 C   0  0  0  0  0  1  0  0  0  0  0  0
  162.9650  213.2470  144.2100 C   0  0  0  0  0  3  0  0  0  0  0  0
  1 12  1  0  0  0  0
  2  8  1  0  0  0  0
  3 18  2  0  0  0  0
  4  9  1  6  0  0  0
  4 14  1  0  0  0  0
  5 10  2  0  0  0  0
  6  2  2  0  0  0  0
  6  5  1  0  0  0  0
  8  3  1  0  0  0  0
  8  1  2  0  0  0  0
 10  1  1  0  0  0  0
 12 11  2  0  0  0  0
 13  2  1  0  0  0  0
 15 14  1  6  0  0  0
 15 21  1  0  0  0  0
 16 26  1  6  0  0  0
 16  7  1  0  0  0  0
 16  9  1  0  0  0  0
 17  7  1  6  0  0  0
 17  4  1  0  0  0  0
 17  3  1  0  0  0  0
 18 15  1  0  0  0  0
 18 11  1  0  0  0  0
 19 20  1  6  0  0  0
 19 22  1  0  0  0  0
 21 24  1  1  0  0  0
 23 25  1  1  0  0  0
 23 21  1  0  0  0  0
 23 19  1  0  0  0  0
 24 22  1  0  0  0  0
 27 26  1  0  0  0  0
 28 27  1  0  0  0  0
 28 29  2  0  0  0  0
 30 28  1  0  0  0  0
 31 30  1  0  0  0  0
 32 34  1  0  0  0  0
 33 34  1  0  0  0  0
 34 31  1  0  0  0  0
M  END
>  <MODEL>
2

>  <REMARK>
 VINA RESULT:      -7.4      1.311      2.327
  Name = 
  7 active torsions:
  status: ('A' for Active; 'I' for Inactive)
    1  A    between atoms: O_3  and  C_13
    2  A    between atoms: O_3  and  C_17
    3  A    between atoms: S_11  and  C_13
    4  A    between atoms: S_11  and  C_14
    5  A    between atoms: C_12  and  C_28
    6  A    between atoms: C_14  and  C_34
    7  A    between atoms: C_17  and  C_29
                            x       y       z     vdW  Elec       q    Type
                         _______ _______ _______ _____ _____    ______ ____

>  <TORSDO>
F 7

$$$$
=
 OpenBabel11062407543D

 34 38  0  0  1  0  0  0  0  0999 V2000
  161.2050  205.7840  153.0290 C   0  0  0  0  0  0  0  0  0  0  0  0
  161.0160  206.1610  150.6350 C   0  0  0  0  0  0  0  0  0  0  0  0
  161.0460  208.1030  152.2620 C   0  0  0  0  0  0  0  0  0  0  0  0
  160.9090  210.5210  151.7250 C   0  0  2  0  0  3  0  0  0  0  0  0
  161.4800  203.9370  151.4960 C   0  0  0  0  0  3  0  0  0  0  0  0
  161.2360  204.7950  150.4260 C   0  0  0  0  0  3  0  0  0  0  0  0
  161.9100  209.1480  149.9730 C   0  0  0  0  0  2  0  0  0  0  0  0
  161.1120  206.7070  151.9460 C   0  0  0  0  0  0  0  0  0  0  0  0
  161.5410  211.7810  150.5770 S   0  0  0  0  0  0  0  0  0  0  0  0
  161.4300  204.4270  152.7960 C   0  0  0  0  0  3  0  0  0  0  0  0
  160.7860  207.5470  154.6230 C   0  0  0  0  0  3  0  0  0  0  0  0
  161.0310  206.2090  154.3440 C   0  0  0  0  0  3  0  0  0  0  0  0
  160.3880  206.8820  149.4940 C   0  0  0  0  0  1  0  0  0  0  0  0
  161.1310  210.9120  153.0590 O   0  0  0  0  0  0  0  0  0  0  0  0
  160.5740  209.9520  153.9520 C   0  0  2  0  0  3  0  0  0  0  0  0
  162.3710  210.5270  149.5440 C   0  0  2  0  0  3  0  0  0  0  0  0
  161.6500  209.2350  151.4500 C   0  0  2  0  0  3  0  0  0  0  0  0
  160.7860  208.4900  153.5970 C   0  0  0  0  0  0  0  0  0  0  0  0
  157.4400  211.8030  155.0740 C   0  0  1  0  0  3  0  0  0  0  0  0
  156.2160  211.2370  154.7160 O   0  0  0  0  0  1  0  0  0  0  0  0
  159.1760  210.3050  154.4950 C   0  0  2  0  0  3  0  0  0  0  0  0
  157.9120  211.1940  156.3190 N   0  0  0  0  0  2  0  0  0  0  0  0
  158.4560  211.5370  153.9830 C   0  0  2  0  0  3  0  0  0  0  0  0
  159.0830  210.3810  155.9980 C   0  0  0  0  0  2  0  0  0  0  0  0
  159.3520  212.7590  153.8610 C   0  0  0  0  0  1  0  0  0  0  0  0
  162.0430  210.7570  148.0820 C   0  0  0  0  0  2  0  0  0  0  0  0
  161.3130  211.9670  147.9390 O   0  0  0  0  0  0  0  0  0  0  0  0
  161.8050  213.0580  147.2230 C   0  0  0  0  0  0  0  0  0  0  0  0
  163.0330  213.3300  147.2860 O   0  0  0  0  0  0  0  0  0  0  0  0
  160.7390  214.0680  146.1880 S   0  0  0  0  0  0  0  0  0  0  0  0
  161.2400  213.2200  144.6580 C   0  0  0  0  0  2  0  0  0  0  0  0
  158.8230  213.0830  144.1430 C   0  0  0  0  0  1  0  0  0  0  0  0
  160.4330  211.8090  142.7760 C   0  0  0  0  0  1  0  0  0  0  0  0
  160.1260  212.3120  144.1710 C   0  0  0  0  0  3  0  0  0  0  0  0
  1 12  1  0  0  0  0
  2  8  1  0  0  0  0
  3 18  2  0  0  0  0
  4  9  1  6  0  0  0
  4 14  1  0  0  0  0
  5 10  2  0  0  0  0
  6  2  2  0  0  0  0
  6  5  1  0  0  0  0
  8  3  1  0  0  0  0
  8  1  2  0  0  0  0
 10  1  1  0  0  0  0
 12 11  2  0  0  0  0
 13  2  1  0  0  0  0
 15 14  1  6  0  0  0
 15 21  1  0  0  0  0
 16 26  1  6  0  0  0
 16  7  1  0  0  0  0
 16  9  1  0  0  0  0
 17  7  1  6  0  0  0
 17  4  1  0  0  0  0
 17  3  1  0  0  0  0
 18 15  1  0  0  0  0
 18 11  1  0  0  0  0
 19 20  1  6  0  0  0
 19 22  1  0  0  0  0
 21 24  1  1  0  0  0
 23 25  1  1  0  0  0
 23 21  1  0  0  0  0
 23 19  1  0  0  0  0
 24 22  1  0  0  0  0
 27 26  1  0  0  0  0
 28 29  2  0  0  0  0
 28 27  1  0  0  0  0
 30 28  1  0  0  0  0
 31 30  1  0  0  0  0
 32 34  1  0  0  0  0
 33 34  1  0  0  0  0
 34 31  1  0  0  0  0
M  END
>  <MODEL>
3

>  <REMARK>
 VINA RESULT:      -6.7      1.567      1.975
  Name = 
  7 active torsions:
  status: ('A' for Active; 'I' for Inactive)
    1  A    between atoms: O_3  and  C_13
    2  A    between atoms: O_3  and  C_17
    3  A    between atoms: S_11  and  C_13
    4  A    between atoms: S_11  and  C_14
    5  A    between atoms: C_12  and  C_28
    6  A    between atoms: C_14  and  C_34
    7  A    between atoms: C_17  and  C_29
                            x       y       z     vdW  Elec       q    Type
                         _______ _______ _______ _____ _____    ______ ____

>  <TORSDO>
F 7

$$$$
=
 OpenBabel11062407543D

 34 38  0  0  1  0  0  0  0  0999 V2000
  160.4480  209.2700  156.3110 C   0  0  0  0  0  0  0  0  0  0  0  0
  160.9250  207.9150  154.3510 C   0  0  0  0  0  0  0  0  0  0  0  0
  160.2740  210.3530  154.1230 C   0  0  0  0  0  0  0  0  0  0  0  0
  160.0440  211.6630  152.0300 C   0  0  2  0  0  3  0  0  0  0  0  0
  161.3510  207.0450  156.5780 C   0  0  0  0  0  3  0  0  0  0  0  0
  161.3410  206.8800  155.1960 C   0  0  0  0  0  3  0  0  0  0  0  0
  161.6520  209.8300  151.9090 C   0  0  0  0  0  2  0  0  0  0  0  0
  160.5770  209.1840  154.8950 C   0  0  0  0  0  0  0  0  0  0  0  0
  160.8450  211.9730  150.4280 S   0  0  0  0  0  0  0  0  0  0  0  0
  160.8740  208.2260  157.1340 C   0  0  0  0  0  3  0  0  0  0  0  0
  159.3980  211.4350  156.1280 C   0  0  0  0  0  3  0  0  0  0  0  0
  159.8530  210.3800  156.9070 C   0  0  0  0  0  3  0  0  0  0  0  0
  160.5850  207.5000  152.9620 C   0  0  0  0  0  1  0  0  0  0  0  0
  159.8250  212.8730  152.7150 O   0  0  0  0  0  0  0  0  0  0  0  0
  159.1370  212.6270  153.9380 C   0  0  2  0  0  3  0  0  0  0  0  0
  162.0690  210.6480  150.7020 C   0  0  2  0  0  3  0  0  0  0  0  0
  160.9650  210.7860  152.8420 C   0  0  2  0  0  3  0  0  0  0  0  0
  159.5960  211.4260  154.7480 C   0  0  0  0  0  0  0  0  0  0  0  0
  155.5530  213.6810  154.6840 C   0  0  1  0  0  3  0  0  0  0  0  0
  154.7940  214.1290  153.6030 O   0  0  0  0  0  1  0  0  0  0  0  0
  157.6120  212.8400  153.8790 C   0  0  2  0  0  3  0  0  0  0  0  0
  155.4770  212.2210  154.7600 N   0  0  0  0  0  2  0  0  0  0  0  0
  156.9990  214.0860  154.4860 C   0  0  2  0  0  3  0  0  0  0  0  0
  156.7930  211.6900  154.4100 C   0  0  0  0  0  2  0  0  0  0  0  0
  157.5800  214.4510  155.8440 C   0  0  0  0  0  1  0  0  0  0  0  0
  162.1590  209.7610  149.4750 C   0  0  0  0  0  2  0  0  0  0  0  0
  162.1180  208.3970  149.8670 O   0  0  0  0  0  0  0  0  0  0  0  0
  161.8980  207.3630  148.9550 C   0  0  0  0  0  0  0  0  0  0  0  0
  162.7840  207.0980  148.1020 O   0  0  0  0  0  0  0  0  0  0  0  0
  160.3930  206.3810  148.9870 S   0  0  0  0  0  0  0  0  0  0  0  0
  161.2960  204.8050  149.0760 C   0  0  0  0  0  2  0  0  0  0  0  0
  160.8680  202.4740  149.7940 C   0  0  0  0  0  1  0  0  0  0  0  0
  161.4640  204.1780  151.4770 C   0  0  0  0  0  1  0  0  0  0  0  0
  160.7230  203.9320  150.1780 C   0  0  0  0  0  3  0  0  0  0  0  0
  1 12  1  0  0  0  0
  1 10  2  0  0  0  0
  2  8  2  0  0  0  0
  2  6  1  0  0  0  0
  3 18  2  0  0  0  0
  3  8  1  0  0  0  0
  4  9  1  6  0  0  0
  4 14  1  0  0  0  0
  4 17  1  0  0  0  0
  5 10  1  0  0  0  0
  6  5  2  0  0  0  0
  8  1  1  0  0  0  0
  9 16  1  0  0  0  0
 11 12  2  0  0  0  0
 13  2  1  0  0  0  0
 15 14  1  6  0  0  0
 15 18  1  0  0  0  0
 16 26  1  6  0  0  0
 16  7  1  0  0  0  0
 17  7  1  6  0  0  0
 17  3  1  0  0  0  0
 18 11  1  0  0  0  0
 19 20  1  6  0  0  0
 19 22  1  0  0  0  0
 21 15  1  0  0  0  0
 21 24  1  1  0  0  0
 21 23  1  0  0  0  0
 23 19  1  0  0  0  0
 23 25  1  1  0  0  0
 24 22  1  0  0  0  0
 26 27  1  0  0  0  0
 28 30  1  0  0  0  0
 28 27  1  0  0  0  0
 29 28  2  0  0  0  0
 30 31  1  0  0  0  0
 31 34  1  0  0  0  0
 32 34  1  0  0  0  0
 34 33  1  0  0  0  0
M  END
>  <MODEL>
4

>  <REMARK>
 VINA RESULT:      -6.6      2.856      5.701
  Name = 
  7 active torsions:
  status: ('A' for Active; 'I' for Inactive)
    1  A    between atoms: O_3  and  C_13
    2  A    between atoms: O_3  and  C_17
    3  A    between atoms: S_11  and  C_13
    4  A    between atoms: S_11  and  C_14
    5  A    between atoms: C_12  and  C_28
    6  A    between atoms: C_14  and  C_34
    7  A    between atoms: C_17  and  C_29
                            x       y       z     vdW  Elec       q    Type
                         _______ _______ _______ _____ _____    ______ ____

>  <TORSDO>
F 7

$$$$
=
 OpenBabel11062407543D

 34 38  0  0  1  0  0  0  0  0999 V2000
  160.4500  209.4650  156.0290 C   0  0  0  0  0  0  0  0  0  0  0  0
  160.5880  207.3690  154.8050 C   0  0  0  0  0  0  0  0  0  0  0  0
  160.7200  209.5940  153.6000 C   0  0  0  0  0  0  0  0  0  0  0  0
  161.0000  209.9750  151.1650 C   0  0  2  0  0  3  0  0  0  0  0  0
  160.6210  207.3780  157.2340 C   0  0  0  0  0  3  0  0  0  0  0  0
  160.6270  206.6860  156.0250 C   0  0  0  0  0  3  0  0  0  0  0  0
  161.9790  207.8950  151.9860 C   0  0  0  0  0  2  0  0  0  0  0  0
  160.6160  208.7930  154.7830 C   0  0  0  0  0  0  0  0  0  0  0  0
  161.9340  209.4030  149.7140 S   0  0  0  0  0  0  0  0  0  0  0  0
  160.4990  208.7620  157.2340 C   0  0  0  0  0  3  0  0  0  0  0  0
  160.1180  211.5710  154.8980 C   0  0  0  0  0  3  0  0  0  0  0  0
  160.1940  210.8330  156.0720 C   0  0  0  0  0  3  0  0  0  0  0  0
  160.2040  206.5420  153.6280 C   0  0  0  0  0  1  0  0  0  0  0  0
  161.1260  211.3690  151.3150 O   0  0  0  0  0  0  0  0  0  0  0  0
  160.3380  211.8180  152.4140 C   0  0  2  0  0  3  0  0  0  0  0  0
  162.6820  208.0270  150.6490 C   0  0  2  0  0  3  0  0  0  0  0  0
  161.5700  209.2860  152.3800 C   0  0  2  0  0  3  0  0  0  0  0  0
  160.3710  210.9630  153.6700 C   0  0  0  0  0  0  0  0  0  0  0  0
  157.4960  214.0370  151.1830 C   0  0  1  0  0  3  0  0  0  0  0  0
  156.5020  213.4190  150.4250 O   0  0  0  0  0  1  0  0  0  0  0  0
  158.9540  212.3800  152.0330 C   0  0  2  0  0  3  0  0  0  0  0  0
  157.1880  213.8860  152.6060 N   0  0  0  0  0  2  0  0  0  0  0  0
  158.8300  213.3770  150.8980 C   0  0  2  0  0  3  0  0  0  0  0  0
  158.1780  212.9770  153.1800 C   0  0  0  0  0  2  0  0  0  0  0  0
  159.9050  214.4530  150.9130 C   0  0  0  0  0  1  0  0  0  0  0  0
  162.5570  206.7350  149.8640 C   0  0  0  0  0  2  0  0  0  0  0  0
  162.4140  207.0280  148.4810 O   0  0  0  0  0  0  0  0  0  0  0  0
  161.7620  206.1660  147.5980 C   0  0  0  0  0  0  0  0  0  0  0  0
  160.7660  206.5860  146.9530 O   0  0  0  0  0  0  0  0  0  0  0  0
  162.3250  204.4800  147.3350 S   0  0  0  0  0  0  0  0  0  0  0  0
  160.8160  203.7520  148.0440 C   0  0  0  0  0  2  0  0  0  0  0  0
  160.7440  203.5770  150.5120 C   0  0  0  0  0  1  0  0  0  0  0  0
  160.4440  201.5490  149.1390 C   0  0  0  0  0  1  0  0  0  0  0  0
  161.1640  202.8780  149.2360 C   0  0  0  0  0  3  0  0  0  0  0  0
  1 12  1  0  0  0  0
  1 10  2  0  0  0  0
  2  6  1  0  0  0  0
  3 18  2  0  0  0  0
  3  8  1  0  0  0  0
  4  9  1  6  0  0  0
  4 14  1  0  0  0  0
  4 17  1  0  0  0  0
  6  5  2  0  0  0  0
  8  2  2  0  0  0  0
  8  1  1  0  0  0  0
  9 16  1  0  0  0  0
 10  5  1  0  0  0  0
 11 12  2  0  0  0  0
 13  2  1  0  0  0  0
 15 14  1  6  0  0  0
 15 18  1  0  0  0  0
 16 26  1  6  0  0  0
 16  7  1  0  0  0  0
 17  7  1  6  0  0  0
 17  3  1  0  0  0  0
 18 11  1  0  0  0  0
 19 20  1  6  0  0  0
 19 22  1  0  0  0  0
 21 15  1  0  0  0  0
 21 24  1  1  0  0  0
 22 24  1  0  0  0  0
 23 25  1  1  0  0  0
 23 19  1  0  0  0  0
 23 21  1  0  0  0  0
 27 26  1  0  0  0  0
 28 27  1  0  0  0  0
 29 28  2  0  0  0  0
 30 28  1  0  0  0  0
 30 31  1  0  0  0  0
 31 34  1  0  0  0  0
 33 34  1  0  0  0  0
 34 32  1  0  0  0  0
M  END
>  <MODEL>
5

>  <REMARK>
 VINA RESULT:      -6.0      2.827      6.128
  Name = 
  7 active torsions:
  status: ('A' for Active; 'I' for Inactive)
    1  A    between atoms: O_3  and  C_13
    2  A    between atoms: O_3  and  C_17
    3  A    between atoms: S_11  and  C_13
    4  A    between atoms: S_11  and  C_14
    5  A    between atoms: C_12  and  C_28
    6  A    between atoms: C_14  and  C_34
    7  A    between atoms: C_17  and  C_29
                            x       y       z     vdW  Elec       q    Type
                         _______ _______ _______ _____ _____    ______ ____

>  <TORSDO>
F 7

$$$$
=
 OpenBabel11062407543D

 34 38  0  0  1  0  0  0  0  0999 V2000
  161.3390  212.1000  149.5870 C   0  0  0  0  0  0  0  0  0  0  0  0
  159.7080  212.8210  151.2370 C   0  0  0  0  0  0  0  0  0  0  0  0
  161.0170  210.6740  151.5500 C   0  0  0  0  0  0  0  0  0  0  0  0
  160.8720  209.0830  153.4460 C   0  0  2  0  0  3  0  0  0  0  0  0
  160.3330  214.2890  149.4060 C   0  0  0  0  0  3  0  0  0  0  0  0
  159.5690  214.0260  150.5410 C   0  0  0  0  0  3  0  0  0  0  0  0
  160.3330  211.3940  154.0180 C   0  0  0  0  0  2  0  0  0  0  0  0
  160.6900  211.8720  150.8350 C   0  0  0  0  0  0  0  0  0  0  0  0
  160.7710  209.0060  155.2600 S   0  0  0  0  0  0  0  0  0  0  0  0
  161.1900  213.3130  148.9130 C   0  0  0  0  0  3  0  0  0  0  0  0
  162.2660  209.8720  149.6130 C   0  0  0  0  0  3  0  0  0  0  0  0
  162.1040  211.1010  148.9880 C   0  0  0  0  0  3  0  0  0  0  0  0
  158.5910  212.4950  152.1670 C   0  0  0  0  0  1  0  0  0  0  0  0
  161.9440  208.3000  152.9780 O   0  0  0  0  0  0  0  0  0  0  0  0
  161.9750  208.3120  151.5540 C   0  0  2  0  0  3  0  0  0  0  0  0
  160.5800  210.8150  155.3970 C   0  0  2  0  0  3  0  0  0  0  0  0
  161.0950  210.5230  153.0590 C   0  0  2  0  0  3  0  0  0  0  0  0
  161.7250  209.6510  150.8790 C   0  0  0  0  0  0  0  0  0  0  0  0
  161.2080  204.8290  150.2150 C   0  0  1  0  0  3  0  0  0  0  0  0
  159.9030  204.3660  150.3860 O   0  0  0  0  0  1  0  0  0  0  0  0
  161.3090  207.0970  150.8800 C   0  0  2  0  0  3  0  0  0  0  0  0
  161.2830  205.6300  148.9920 N   0  0  0  0  0  2  0  0  0  0  0  0
  161.5920  205.6990  151.3940 C   0  0  2  0  0  3  0  0  0  0  0  0
  161.4980  207.0210  149.3860 C   0  0  0  0  0  2  0  0  0  0  0  0
  163.0580  205.4510  151.7100 C   0  0  0  0  0  1  0  0  0  0  0  0
  159.4220  211.1470  156.3180 C   0  0  0  0  0  2  0  0  0  0  0  0
  159.7060  212.3410  157.0330 O   0  0  0  0  0  0  0  0  0  0  0  0
  159.1340  213.5690  156.6970 C   0  0  0  0  0  0  0  0  0  0  0  0
  159.8500  214.4530  156.1590 O   0  0  0  0  0  0  0  0  0  0  0  0
  157.3940  213.9100  156.9850 S   0  0  0  0  0  0  0  0  0  0  0  0
  157.0200  214.0650  155.2110 C   0  0  0  0  0  2  0  0  0  0  0  0
  155.1550  213.8890  153.5930 C   0  0  0  0  0  1  0  0  0  0  0  0
  155.9960  211.8550  154.7080 C   0  0  0  0  0  1  0  0  0  0  0  0
  155.7300  213.3360  154.8800 C   0  0  0  0  0  3  0  0  0  0  0  0
  1  8  1  0  0  0  0
  2 13  1  0  0  0  0
  3 17  1  0  0  0  0
  4 14  1  1  0  0  0
  4  9  1  0  0  0  0
  5  6  1  0  0  0  0
  6  2  2  0  0  0  0
  7 16  1  0  0  0  0
  8  2  1  0  0  0  0
  8  3  2  0  0  0  0
  9 16  1  0  0  0  0
 10  5  2  0  0  0  0
 10  1  1  0  0  0  0
 11 18  2  0  0  0  0
 12  1  2  0  0  0  0
 12 11  1  0  0  0  0
 15 18  1  6  0  0  0
 15 14  1  0  0  0  0
 16 26  1  1  0  0  0
 17  4  1  0  0  0  0
 17  7  1  1  0  0  0
 18  3  1  0  0  0  0
 19 20  1  1  0  0  0
 19 23  1  0  0  0  0
 21 24  1  6  0  0  0
 21 23  1  0  0  0  0
 21 15  1  0  0  0  0
 22 24  1  0  0  0  0
 22 19  1  0  0  0  0
 23 25  1  6  0  0  0
 26 27  1  0  0  0  0
 28 30  1  0  0  0  0
 28 27  1  0  0  0  0
 29 28  2  0  0  0  0
 31 30  1  0  0  0  0
 32 34  1  0  0  0  0
 33 34  1  0  0  0  0
 34 31  1  0  0  0  0
M  END
>  <MODEL>
6

>  <REMARK>
 VINA RESULT:      -5.3      3.507      7.318
  Name = 
  7 active torsions:
  status: ('A' for Active; 'I' for Inactive)
    1  A    between atoms: O_3  and  C_13
    2  A    between atoms: O_3  and  C_17
    3  A    between atoms: S_11  and  C_13
    4  A    between atoms: S_11  and  C_14
    5  A    between atoms: C_12  and  C_28
    6  A    between atoms: C_14  and  C_34
    7  A    between atoms: C_17  and  C_29
                            x       y       z     vdW  Elec       q    Type
                         _______ _______ _______ _____ _____    ______ ____

>  <TORSDO>
F 7

$$$$
=
 OpenBabel11062407543D

 34 38  0  0  1  0  0  0  0  0999 V2000
  161.1090  204.7540  153.0210 C   0  0  0  0  0  0  0  0  0  0  0  0
  160.6470  204.4810  150.6510 C   0  0  0  0  0  0  0  0  0  0  0  0
  161.2380  206.7510  151.6110 C   0  0  0  0  0  0  0  0  0  0  0  0
  161.4370  208.8990  150.3890 C   0  0  2  0  0  3  0  0  0  0  0  0
  160.8460  202.5390  152.0950 C   0  0  0  0  0  3  0  0  0  0  0  0
  160.6010  203.0960  150.8430 C   0  0  0  0  0  3  0  0  0  0  0  0
  161.9300  206.9200  149.0480 C   0  0  0  0  0  2  0  0  0  0  0  0
  161.0210  205.3380  151.7250 C   0  0  0  0  0  0  0  0  0  0  0  0
  162.1020  209.6350  148.8650 S   0  0  0  0  0  0  0  0  0  0  0  0
  161.0660  203.3690  153.1870 C   0  0  0  0  0  3  0  0  0  0  0  0
  161.2270  206.9370  154.0440 C   0  0  0  0  0  3  0  0  0  0  0  0
  161.1990  205.5530  154.1590 C   0  0  0  0  0  3  0  0  0  0  0  0
  159.9940  204.9700  149.4050 C   0  0  0  0  0  1  0  0  0  0  0  0
  161.9100  209.5920  151.5190 O   0  0  0  0  0  0  0  0  0  0  0  0
  161.3320  209.0520  152.7030 C   0  0  2  0  0  3  0  0  0  0  0  0
  162.5520  208.0020  148.1880 C   0  0  2  0  0  3  0  0  0  0  0  0
  161.9020  207.4650  150.4480 C   0  0  2  0  0  3  0  0  0  0  0  0
  161.2390  207.5370  152.7860 C   0  0  0  0  0  0  0  0  0  0  0  0
  158.7760  211.7520  153.5340 C   0  0  1  0  0  3  0  0  0  0  0  0
  157.4320  211.3990  153.4180 O   0  0  0  0  0  1  0  0  0  0  0  0
  160.1050  209.8190  153.2350 C   0  0  2  0  0  3  0  0  0  0  0  0
  159.2700  211.3640  154.8560 N   0  0  0  0  0  2  0  0  0  0  0  0
  159.5810  211.0230  152.4780 C   0  0  2  0  0  3  0  0  0  0  0  0
  160.2120  210.2630  154.6720 C   0  0  0  0  0  2  0  0  0  0  0  0
  160.6750  211.9570  151.9860 C   0  0  0  0  0  1  0  0  0  0  0  0
  162.0620  207.8780  146.7580 C   0  0  0  0  0  2  0  0  0  0  0  0
  162.1650  206.5280  146.3310 O   0  0  0  0  0  0  0  0  0  0  0  0
  161.1280  205.8720  145.6650 C   0  0  0  0  0  0  0  0  0  0  0  0
  160.0120  206.4430  145.5550 O   0  0  0  0  0  0  0  0  0  0  0  0
  161.3540  204.2460  144.9350 S   0  0  0  0  0  0  0  0  0  0  0  0
  161.3960  203.4090  146.5500 C   0  0  0  0  0  2  0  0  0  0  0  0
  160.6960  201.3220  147.6840 C   0  0  0  0  0  1  0  0  0  0  0  0
  160.1220  201.6690  145.3090 C   0  0  0  0  0  1  0  0  0  0  0  0
  161.1700  201.9170  146.3740 C   0  0  0  0  0  3  0  0  0  0  0  0
  1 10  1  0  0  0  0
  1 12  1  0  0  0  0
  2  6  2  0  0  0  0
  2  8  1  0  0  0  0
  3  8  1  0  0  0  0
  3 18  2  0  0  0  0
  4  9  1  6  0  0  0
  4 17  1  0  0  0  0
  4 14  1  0  0  0  0
  5 10  2  0  0  0  0
  6  5  1  0  0  0  0
  8  1  2  0  0  0  0
 11 12  2  0  0  0  0
 13  2  1  0  0  0  0
 15 14  1  6  0  0  0
 15 18  1  0  0  0  0
 15 21  1  0  0  0  0
 16 26  1  6  0  0  0
 16  9  1  0  0  0  0
 16  7  1  0  0  0  0
 17  7  1  6  0  0  0
 17  3  1  0  0  0  0
 18 11  1  0  0  0  0
 19 20  1  1  0  0  0
 19 22  1  0  0  0  0
 21 24  1  1  0  0  0
 23 25  1  1  0  0  0
 23 21  1  0  0  0  0
 23 19  1  0  0  0  0
 24 22  1  0  0  0  0
 27 26  1  0  0  0  0
 28 27  1  0  0  0  0
 29 28  2  0  0  0  0
 30 28  1  0  0  0  0
 30 31  1  0  0  0  0
 33 34  1  0  0  0  0
 34 31  1  0  0  0  0
 34 32  1  0  0  0  0
M  END
>  <MODEL>
7

>  <REMARK>
 VINA RESULT:      -5.2      2.844      5.017
  Name = 
  7 active torsions:
  status: ('A' for Active; 'I' for Inactive)
    1  A    between atoms: O_3  and  C_13
    2  A    between atoms: O_3  and  C_17
    3  A    between atoms: S_11  and  C_13
    4  A    between atoms: S_11  and  C_14
    5  A    between atoms: C_12  and  C_28
    6  A    between atoms: C_14  and  C_34
    7  A    between atoms: C_17  and  C_29
                            x       y       z     vdW  Elec       q    Type
                         _______ _______ _______ _____ _____    ______ ____

>  <TORSDO>
F 7

$$$$
=
 OpenBabel11062407543D

 34 38  0  0  1  0  0  0  0  0999 V2000
  161.7310  209.4660  155.3140 C   0  0  0  0  0  0  0  0  0  0  0  0
  160.5790  207.3420  155.0490 C   0  0  0  0  0  0  0  0  0  0  0  0
  161.4490  208.6140  153.0370 C   0  0  0  0  0  0  0  0  0  0  0  0
  161.2920  207.9530  150.6520 C   0  0  2  0  0  3  0  0  0  0  0  0
  161.1840  208.1430  157.2600 C   0  0  0  0  0  3  0  0  0  0  0  0
  160.5810  207.1930  156.4400 C   0  0  0  0  0  3  0  0  0  0  0  0
  161.3460  206.0840  152.2220 C   0  0  0  0  0  2  0  0  0  0  0  0
  161.2640  208.4360  154.4470 C   0  0  0  0  0  0  0  0  0  0  0  0
  161.4780  206.5300  149.5350 S   0  0  0  0  0  0  0  0  0  0  0  0
  161.7270  209.2920  156.6990 C   0  0  0  0  0  3  0  0  0  0  0  0
  162.1660  210.9130  153.4330 C   0  0  0  0  0  3  0  0  0  0  0  0
  162.1620  210.6880  154.8020 C   0  0  0  0  0  3  0  0  0  0  0  0
  159.5880  206.5000  154.3230 C   0  0  0  0  0  1  0  0  0  0  0  0
  162.0860  209.0300  150.2170 O   0  0  0  0  0  0  0  0  0  0  0  0
  161.8830  210.1610  151.0580 C   0  0  2  0  0  3  0  0  0  0  0  0
  161.6910  205.3730  150.9290 C   0  0  2  0  0  3  0  0  0  0  0  0
  161.7410  207.5200  152.0260 C   0  0  2  0  0  3  0  0  0  0  0  0
  161.8080  209.8930  152.5520 C   0  0  0  0  0  0  0  0  0  0  0  0
  160.2540  213.0810  149.2320 C   0  0  1  0  0  3  0  0  0  0  0  0
  159.0050  212.8420  148.6580 O   0  0  0  0  0  1  0  0  0  0  0  0
  160.8780  211.1980  150.5210 C   0  0  2  0  0  3  0  0  0  0  0  0
  160.0820  213.4490  150.6380 N   0  0  0  0  0  2  0  0  0  0  0  0
  161.0920  211.8210  149.1550 C   0  0  2  0  0  3  0  0  0  0  0  0
  160.6040  212.3530  151.4510 C   0  0  0  0  0  2  0  0  0  0  0  0
  162.5340  212.2250  148.8900 C   0  0  0  0  0  1  0  0  0  0  0  0
  160.7960  204.1630  150.7420 C   0  0  0  0  0  2  0  0  0  0  0  0
  161.4040  203.2510  149.8390 O   0  0  0  0  0  0  0  0  0  0  0  0
  160.6640  202.3410  149.0830 C   0  0  0  0  0  0  0  0  0  0  0  0
  159.7200  201.7130  149.6290 O   0  0  0  0  0  0  0  0  0  0  0  0
  161.0050  202.0640  147.3410 S   0  0  0  0  0  0  0  0  0  0  0  0
  161.2080  203.8370  146.9880 C   0  0  0  0  0  2  0  0  0  0  0  0
  161.1980  204.8500  144.7280 C   0  0  0  0  0  1  0  0  0  0  0  0
  163.3030  204.7580  146.0120 C   0  0  0  0  0  1  0  0  0  0  0  0
  162.0080  204.0310  145.7120 C   0  0  0  0  0  3  0  0  0  0  0  0
  1 10  2  0  0  0  0
  2  6  1  0  0  0  0
  3  8  1  0  0  0  0
  4  9  1  6  0  0  0
  4 17  1  0  0  0  0
  6  5  2  0  0  0  0
  8  2  2  0  0  0  0
  8  1  1  0  0  0  0
  9 16  1  0  0  0  0
 10  5  1  0  0  0  0
 11 12  2  0  0  0  0
 12  1  1  0  0  0  0
 13  2  1  0  0  0  0
 14  4  1  0  0  0  0
 15 14  1  6  0  0  0
 15 18  1  0  0  0  0
 16 26  1  6  0  0  0
 16  7  1  0  0  0  0
 17  7  1  1  0  0  0
 17  3  1  0  0  0  0
 18  3  2  0  0  0  0
 18 11  1  0  0  0  0
 19 20  1  1  0  0  0
 19 22  1  0  0  0  0
 21 15  1  0  0  0  0
 21 24  1  1  0  0  0
 22 24  1  0  0  0  0
 23 25  1  1  0  0  0
 23 19  1  0  0  0  0
 23 21  1  0  0  0  0
 27 26  1  0  0  0  0
 28 29  2  0  0  0  0
 28 27  1  0  0  0  0
 30 28  1  0  0  0  0
 31 30  1  0  0  0  0
 32 34  1  0  0  0  0
 34 33  1  0  0  0  0
 34 31  1  0  0  0  0
M  END
>  <MODEL>
8

>  <REMARK>
 VINA RESULT:      -4.8      3.617      6.940
  Name = 
  7 active torsions:
  status: ('A' for Active; 'I' for Inactive)
    1  A    between atoms: O_3  and  C_13
    2  A    between atoms: O_3  and  C_17
    3  A    between atoms: S_11  and  C_13
    4  A    between atoms: S_11  and  C_14
    5  A    between atoms: C_12  and  C_28
    6  A    between atoms: C_14  and  C_34
    7  A    between atoms: C_17  and  C_29
                            x       y       z     vdW  Elec       q    Type
                         _______ _______ _______ _____ _____    ______ ____

>  <TORSDO>
F 7

$$$$
=
 OpenBabel11062407543D

 34 38  0  0  1  0  0  0  0  0999 V2000
  161.8370  210.4590  149.6650 C   0  0  0  0  0  0  0  0  0  0  0  0
  160.4080  211.3280  151.4280 C   0  0  0  0  0  0  0  0  0  0  0  0
  161.3700  208.9880  151.5650 C   0  0  0  0  0  0  0  0  0  0  0  0
  161.0480  207.3300  153.3800 C   0  0  2  0  0  3  0  0  0  0  0  0
  161.1850  212.7850  149.6470 C   0  0  0  0  0  3  0  0  0  0  0  0
  160.4360  212.5790  150.8020 C   0  0  0  0  0  3  0  0  0  0  0  0
  160.9080  209.6590  154.0970 C   0  0  0  0  0  2  0  0  0  0  0  0
  161.2100  210.2630  150.9290 C   0  0  0  0  0  0  0  0  0  0  0  0
  161.0080  207.1630  155.1900 S   0  0  0  0  0  0  0  0  0  0  0  0
  161.8570  211.7180  149.0630 C   0  0  0  0  0  3  0  0  0  0  0  0
  162.3970  208.1150  149.5300 C   0  0  0  0  0  3  0  0  0  0  0  0
  162.4090  209.3890  148.9790 C   0  0  0  0  0  3  0  0  0  0  0  0
  159.2910  211.1270  152.3920 C   0  0  0  0  0  1  0  0  0  0  0  0
  161.9630  206.4180  152.8210 O   0  0  0  0  0  0  0  0  0  0  0  0
  161.9390  206.5090  151.3990 C   0  0  2  0  0  3  0  0  0  0  0  0
  161.1140  208.9680  155.4310 C   0  0  2  0  0  3  0  0  0  0  0  0
  161.4820  208.7380  153.0580 C   0  0  2  0  0  3  0  0  0  0  0  0
  161.8780  207.9070  150.8080 C   0  0  0  0  0  0  0  0  0  0  0  0
  160.4930  203.2490  150.0600 C   0  0  1  0  0  3  0  0  0  0  0  0
  159.1080  203.0980  150.1400 O   0  0  0  0  0  1  0  0  0  0  0  0
  161.0620  205.4550  150.6960 C   0  0  2  0  0  3  0  0  0  0  0  0
  160.8330  203.9730  148.8340 N   0  0  0  0  0  2  0  0  0  0  0  0
  160.9820  204.0460  151.2510 C   0  0  2  0  0  3  0  0  0  0  0  0
  161.3310  205.2910  149.2220 C   0  0  0  0  0  2  0  0  0  0  0  0
  162.3290  203.4830  151.6790 C   0  0  0  0  0  1  0  0  0  0  0  0
  160.0610  209.4230  156.4230 C   0  0  0  0  0  2  0  0  0  0  0  0
  160.1060  210.8360  156.5550 O   0  0  0  0  0  0  0  0  0  0  0  0
  158.9630  211.6320  156.4750 C   0  0  0  0  0  0  0  0  0  0  0  0
  157.8360  211.0800  156.3830 O   0  0  0  0  0  0  0  0  0  0  0  0
  159.0550  213.4260  156.5310 S   0  0  0  0  0  0  0  0  0  0  0  0
  157.3100  213.6370  156.0620 C   0  0  0  0  0  2  0  0  0  0  0  0
  158.5810  214.3050  154.0450 C   0  0  0  0  0  1  0  0  0  0  0  0
  156.2790  213.4510  153.8060 C   0  0  0  0  0  1  0  0  0  0  0  0
  157.2080  214.2640  154.6830 C   0  0  0  0  0  3  0  0  0  0  0  0
  1  8  1  0  0  0  0
  2 13  1  0  0  0  0
  3 17  1  0  0  0  0
  4 14  1  6  0  0  0
  4  9  1  0  0  0  0
  5  6  1  0  0  0  0
  6  2  2  0  0  0  0
  7 16  1  0  0  0  0
  8  2  1  0  0  0  0
  8  3  2  0  0  0  0
  9 16  1  0  0  0  0
 10  5  2  0  0  0  0
 10  1  1  0  0  0  0
 11 18  2  0  0  0  0
 12 11  1  0  0  0  0
 12  1  2  0  0  0  0
 15 18  1  1  0  0  0
 15 14  1  0  0  0  0
 16 26  1  1  0  0  0
 17  4  1  0  0  0  0
 17  7  1  1  0  0  0
 18  3  1  0  0  0  0
 19 20  1  1  0  0  0
 19 23  1  0  0  0  0
 21 24  1  6  0  0  0
 21 23  1  0  0  0  0
 21 15  1  0  0  0  0
 22 24  1  0  0  0  0
 22 19  1  0  0  0  0
 23 25  1  6  0  0  0
 26 27  1  0  0  0  0
 28 30  1  0  0  0  0
 28 27  1  0  0  0  0
 29 28  2  0  0  0  0
 31 30  1  0  0  0  0
 32 34  1  0  0  0  0
 33 34  1  0  0  0  0
 34 31  1  0  0  0  0
M  END
>  <MODEL>
9

>  <REMARK>
 VINA RESULT:      -4.7      3.826      7.197
  Name = 
  7 active torsions:
  status: ('A' for Active; 'I' for Inactive)
    1  A    between atoms: O_3  and  C_13
    2  A    between atoms: O_3  and  C_17
    3  A    between atoms: S_11  and  C_13
    4  A    between atoms: S_11  and  C_14
    5  A    between atoms: C_12  and  C_28
    6  A    between atoms: C_14  and  C_34
    7  A    between atoms: C_17  and  C_29
                            x       y       z     vdW  Elec       q    Type
                         _______ _______ _______ _____ _____    ______ ____

>  <TORSDO>
F 7

$$$$
