=
 OpenBabel11062409193D

 37 45  0  0  1  0  0  0  0  0999 V2000
  160.7890  207.3320  153.6620 C   0  0  2  0  0  0  0  0  0  0  0  0
  161.9880  210.9880  148.2790 O   0  0  0  0  0  0  0  0  0  0  0  0
  161.9690  206.5560  148.6620 C   0  0  2  0  0  0  0  0  0  0  0  0
  160.9490  203.4410  150.5850 C   0  0  0  0  0  3  0  0  0  0  0  0
  161.5050  208.7720  149.0300 C   0  0  2  0  0  3  0  0  0  0  0  0
  161.3470  205.6710  149.6930 C   0  0  1  0  0  3  0  0  0  0  0  0
  159.7670  208.2800  153.7150 O   0  0  0  0  0  1  0  0  0  0  0  0
  162.5740  207.7660  149.3230 C   0  0  1  0  0  3  0  0  0  0  0  0
  161.5840  204.2110  149.4420 C   0  0  2  0  0  3  0  0  0  0  0  0
  161.0500  208.4910  147.7430 O   0  0  0  0  0  0  0  0  0  0  0  0
  162.6490  207.4220  150.8330 C   0  0  1  0  0  3  0  0  0  0  0  0
  162.7760  209.7920  151.5950 C   0  0  0  0  0  2  0  0  0  0  0  0
  160.8950  206.6880  146.3300 C   0  0  0  0  0  2  0  0  0  0  0  0
  162.0740  208.0400  153.2050 C   0  0  0  0  0  2  0  0  0  0  0  0
  160.8630  207.0930  147.7670 C   0  0  2  0  0  0  0  0  0  0  0  0
  162.0020  208.4810  151.7490 C   0  0  2  0  0  3  0  0  0  0  0  0
  160.9400  203.9550  151.8420 C   0  0  0  0  0  3  0  0  0  0  0  0
  162.0470  206.2320  147.1760 C   0  0  2  0  0  0  0  0  0  0  0  0
  162.1170  205.9860  150.9370 C   0  0  1  0  0  3  0  0  0  0  0  0
  161.9680  210.1760  149.2420 C   0  0  0  0  0  0  0  0  0  0  0  0
  161.0910  203.8890  148.0360 C   0  0  1  0  0  3  0  0  0  0  0  0
  162.2950  210.6250  150.5300 O   0  0  0  0  0  0  0  0  0  0  0  0
  161.4770  205.3480  152.1820 C   0  0  1  0  0  3  0  0  0  0  0  0
  160.3350  206.2110  152.7110 C   0  0  0  0  0  2  0  0  0  0  0  0
  161.9420  204.6880  147.0170 C   0  0  0  0  0  2  0  0  0  0  0  0
  161.5620  201.5030  148.7360 C   0  0  0  0  0  3  0  0  0  0  0  0
  161.1780  202.4200  147.7440 C   0  0  0  0  0  0  0  0  0  0  0  0
  160.8300  201.9550  146.4700 C   0  0  0  0  0  3  0  0  0  0  0  0
  160.5400  200.1410  144.9500 F   0  0  0  0  0  0  0  0  0  0  0  0
  161.2700  199.6790  147.1720 C   0  0  0  0  0  3  0  0  0  0  0  0
  160.8780  200.5870  146.1830 C   0  0  0  0  0  0  0  0  0  0  0  0
  161.6120  200.1370  148.4480 C   0  0  0  0  0  3  0  0  0  0  0  0
  160.9760  206.7840  155.0800 C   0  0  0  0  0  2  0  0  0  0  0  0
  159.9900  207.3550  156.0880 C   0  0  0  0  0  2  0  0  0  0  0  0
  160.7450  207.9410  157.2600 C   0  0  0  0  0  2  0  0  0  0  0  0
  161.6040  209.0300  156.7950 C   0  0  0  0  0  0  0  0  0  0  0  0
  162.3120  209.9250  156.4070 C   0  0  0  0  0  3  0  0  0  0  0  0
  1  7  1  1  0  0  0
  1 33  1  0  0  0  0
  2 20  2  0  0  0  0
  3  8  1  0  0  0  0
  3  6  1  0  0  0  0
  4 17  2  0  0  0  0
  5 20  1  0  0  0  0
  5  8  1  0  0  0  0
  6 19  1  0  0  0  0
  8 11  1  0  0  0  0
  9  6  1  0  0  0  0
  9  4  1  0  0  0  0
 10 15  1  0  0  0  0
 10  5  1  0  0  0  0
 11 19  1  0  0  0  0
 11 16  1  0  0  0  0
 12 16  1  0  0  0  0
 13 18  1  0  0  0  0
 13 15  1  0  0  0  0
 14  1  1  0  0  0  0
 15  3  1  0  0  0  0
 16 14  1  0  0  0  0
 17 23  1  0  0  0  0
 18 15  1  0  0  0  0
 18  3  1  0  0  0  0
 19 23  1  0  0  0  0
 20 22  1  0  0  0  0
 21  9  1  0  0  0  0
 22 12  1  0  0  0  0
 23 24  1  0  0  0  0
 24  1  1  0  0  0  0
 25 18  1  0  0  0  0
 25 21  1  0  0  0  0
 27 21  1  0  0  0  0
 27 26  2  0  0  0  0
 28 27  1  0  0  0  0
 29 31  1  0  0  0  0
 30 32  2  0  0  0  0
 31 28  2  0  0  0  0
 31 30  1  0  0  0  0
 32 26  1  0  0  0  0
 33 34  1  0  0  0  0
 34 35  1  0  0  0  0
 36 35  1  0  0  0  0
 37 36  3  0  0  0  0
M  END
>  <MODEL>
1

>  <REMARK>
 VINA RESULT:      -8.3      0.000      0.000
  Name = 
  5 active torsions:
  status: ('A' for Active; 'I' for Inactive)
    1  A    between atoms: C_1  and  C_5
    2  A    between atoms: C_5  and  C_17
    3  A    between atoms: C_6  and  C_31
    4  A    between atoms: C_11  and  C_26
    5  A    between atoms: C_17  and  C_26
                            x       y       z     vdW  Elec       q    Type
                         _______ _______ _______ _____ _____    ______ ____

>  <TORSDO>
F 5

$$$$
=
 OpenBabel11062409193D

 37 45  0  0  1  0  0  0  0  0999 V2000
  161.1970  207.2520  153.4690 C   0  0  2  0  0  0  0  0  0  0  0  0
  157.6350  212.0110  156.3750 O   0  0  0  0  0  0  0  0  0  0  0  0
  159.9900  212.2310  152.6070 C   0  0  2  0  0  0  0  0  0  0  0  0
  161.7270  210.4660  149.7250 C   0  0  0  0  0  3  0  0  0  0  0  0
  158.7440  211.4060  154.3470 C   0  0  2  0  0  3  0  0  0  0  0  0
  160.4810  211.1490  151.7010 C   0  0  1  0  0  3  0  0  0  0  0  0
  160.0200  206.5800  153.7980 O   0  0  0  0  0  1  0  0  0  0  0  0
  160.1530  211.8110  154.0440 C   0  0  1  0  0  3  0  0  0  0  0  0
  161.2480  211.6660  150.5210 C   0  0  2  0  0  3  0  0  0  0  0  0
  157.9270  212.3210  153.6880 O   0  0  0  0  0  0  0  0  0  0  0  0
  161.1130  210.5930  154.0150 C   0  0  1  0  0  3  0  0  0  0  0  0
  160.4090  209.7020  156.2340 C   0  0  0  0  0  2  0  0  0  0  0  0
  158.0130  213.6870  151.8440 C   0  0  0  0  0  2  0  0  0  0  0  0
  161.5520  208.1920  154.6320 C   0  0  0  0  0  2  0  0  0  0  0  0
  158.4920  212.3850  152.3960 C   0  0  2  0  0  0  0  0  0  0  0  0
  160.5720  209.3520  154.7530 C   0  0  2  0  0  3  0  0  0  0  0  0
  162.0810  209.3170  150.3550 C   0  0  0  0  0  3  0  0  0  0  0  0
  159.4810  213.5880  152.1390 C   0  0  2  0  0  0  0  0  0  0  0  0
  161.4870  210.4210  152.5360 C   0  0  1  0  0  3  0  0  0  0  0  0
  158.4900  211.2760  155.8130 C   0  0  0  0  0  0  0  0  0  0  0  0
  160.3650  212.6710  149.7890 C   0  0  1  0  0  3  0  0  0  0  0  0
  159.1330  210.2750  156.5550 O   0  0  0  0  0  0  0  0  0  0  0  0
  161.9480  209.1140  151.8670 C   0  0  1  0  0  3  0  0  0  0  0  0
  160.9580  207.9850  152.1380 C   0  0  0  0  0  2  0  0  0  0  0  0
  160.0880  213.8670  150.7340 C   0  0  0  0  0  2  0  0  0  0  0  0
  162.0950  214.0400  148.5490 C   0  0  0  0  0  3  0  0  0  0  0  0
  161.0090  213.1500  148.5220 C   0  0  0  0  0  0  0  0  0  0  0  0
  160.5420  212.6660  147.2930 C   0  0  0  0  0  3  0  0  0  0  0  0
  160.6900  212.6080  144.9140 F   0  0  0  0  0  0  0  0  0  0  0  0
  162.2190  213.9720  146.1320 C   0  0  0  0  0  3  0  0  0  0  0  0
  161.1440  213.0790  146.1000 C   0  0  0  0  0  0  0  0  0  0  0  0
  162.6940  214.4530  147.3560 C   0  0  0  0  0  3  0  0  0  0  0  0
  162.2930  206.1950  153.3050 C   0  0  0  0  0  2  0  0  0  0  0  0
  162.3590  205.5980  151.9060 C   0  0  0  0  0  2  0  0  0  0  0  0
  161.5270  204.3360  151.8540 C   0  0  0  0  0  2  0  0  0  0  0  0
  161.1860  204.0310  150.4650 C   0  0  0  0  0  0  0  0  0  0  0  0
  160.9080  203.7820  149.3180 C   0  0  0  0  0  3  0  0  0  0  0  0
  1  7  1  1  0  0  0
  1 14  1  0  0  0  0
  3  8  1  0  0  0  0
  4 17  2  0  0  0  0
  4  9  1  0  0  0  0
  5 20  1  0  0  0  0
  6 19  1  0  0  0  0
  6  3  1  0  0  0  0
  8  5  1  0  0  0  0
  9  6  1  0  0  0  0
 10  5  1  0  0  0  0
 11  8  1  0  0  0  0
 11 16  1  0  0  0  0
 12 22  1  0  0  0  0
 13 18  1  0  0  0  0
 13 15  1  0  0  0  0
 14 16  1  0  0  0  0
 15  3  1  0  0  0  0
 15 10  1  0  0  0  0
 16 12  1  0  0  0  0
 17 23  1  0  0  0  0
 18 15  1  0  0  0  0
 18  3  1  0  0  0  0
 19 11  1  0  0  0  0
 20  2  2  0  0  0  0
 20 22  1  0  0  0  0
 21  9  1  0  0  0  0
 21 25  1  0  0  0  0
 23 24  1  0  0  0  0
 23 19  1  0  0  0  0
 24  1  1  0  0  0  0
 25 18  1  0  0  0  0
 27 26  1  0  0  0  0
 27 21  1  0  0  0  0
 28 27  2  0  0  0  0
 29 31  1  0  0  0  0
 30 32  1  0  0  0  0
 31 30  2  0  0  0  0
 31 28  1  0  0  0  0
 32 26  2  0  0  0  0
 33  1  1  0  0  0  0
 34 33  1  0  0  0  0
 35 34  1  0  0  0  0
 36 35  1  0  0  0  0
 37 36  3  0  0  0  0
M  END
>  <MODEL>
2

>  <REMARK>
 VINA RESULT:      -7.5      3.816      8.093
  Name = 
  5 active torsions:
  status: ('A' for Active; 'I' for Inactive)
    1  A    between atoms: C_1  and  C_5
    2  A    between atoms: C_5  and  C_17
    3  A    between atoms: C_6  and  C_31
    4  A    between atoms: C_11  and  C_26
    5  A    between atoms: C_17  and  C_26
                            x       y       z     vdW  Elec       q    Type
                         _______ _______ _______ _____ _____    ______ ____

>  <TORSDO>
F 5

$$$$
=
 OpenBabel11062409193D

 37 45  0  0  1  0  0  0  0  0999 V2000
  160.8040  204.3500  150.0090 C   0  0  2  0  0  0  0  0  0  0  0  0
  160.4080  207.7290  155.6850 O   0  0  0  0  0  0  0  0  0  0  0  0
  161.5920  209.2120  151.6620 C   0  0  2  0  0  0  0  0  0  0  0  0
  161.6400  208.7580  147.8890 C   0  0  0  0  0  3  0  0  0  0  0  0
  160.6080  207.9650  153.3160 C   0  0  2  0  0  3  0  0  0  0  0  0
  161.3410  208.6450  150.3020 C   0  0  1  0  0  3  0  0  0  0  0  0
  159.5810  203.9190  150.5250 O   0  0  0  0  0  1  0  0  0  0  0  0
  161.9280  208.1040  152.6250 C   0  0  1  0  0  3  0  0  0  0  0  0
  161.9230  209.4750  149.1970 C   0  0  2  0  0  3  0  0  0  0  0  0
  160.1050  209.2570  153.4550 O   0  0  0  0  0  0  0  0  0  0  0  0
  162.2550  206.8710  151.7440 C   0  0  1  0  0  3  0  0  0  0  0  0
  161.8390  205.1960  153.5430 C   0  0  0  0  0  2  0  0  0  0  0  0
  160.2740  211.2910  152.4030 C   0  0  0  0  0  2  0  0  0  0  0  0
  161.8010  204.4610  151.1740 C   0  0  0  0  0  2  0  0  0  0  0  0
  160.2940  209.8160  152.1730 C   0  0  2  0  0  0  0  0  0  0  0  0
  161.4570  205.6050  152.1190 C   0  0  2  0  0  3  0  0  0  0  0  0
  161.6350  207.4020  147.8330 C   0  0  0  0  0  3  0  0  0  0  0  0
  161.5910  210.6990  151.9940 C   0  0  2  0  0  0  0  0  0  0  0  0
  162.1320  207.3750  150.2990 C   0  0  1  0  0  3  0  0  0  0  0  0
  160.7070  207.1870  154.5870 C   0  0  0  0  0  0  0  0  0  0  0  0
  161.3810  210.8930  149.3370 C   0  0  1  0  0  3  0  0  0  0  0  0
  161.0430  205.8260  154.5570 O   0  0  0  0  0  0  0  0  0  0  0  0
  161.8220  206.5100  149.0650 C   0  0  1  0  0  3  0  0  0  0  0  0
  160.5580  205.6830  149.2820 C   0  0  0  0  0  2  0  0  0  0  0  0
  161.8770  211.4820  150.6810 C   0  0  0  0  0  2  0  0  0  0  0  0
  163.1590  212.1530  148.0510 C   0  0  0  0  0  3  0  0  0  0  0  0
  161.8180  211.7650  148.1970 C   0  0  0  0  0  0  0  0  0  0  0  0
  160.8750  212.1630  147.2410 C   0  0  0  0  0  3  0  0  0  0  0  0
  160.3490  213.3350  145.2330 F   0  0  0  0  0  0  0  0  0  0  0  0
  162.6000  213.3450  146.0200 C   0  0  0  0  0  3  0  0  0  0  0  0
  161.2640  212.9530  146.1560 C   0  0  0  0  0  0  0  0  0  0  0  0
  163.5470  212.9460  146.9670 C   0  0  0  0  0  3  0  0  0  0  0  0
  161.2820  203.2830  149.0190 C   0  0  0  0  0  2  0  0  0  0  0  0
  160.6480  201.9180  149.2420 C   0  0  0  0  0  2  0  0  0  0  0  0
  161.2050  200.9310  148.2410 C   0  0  0  0  0  2  0  0  0  0  0  0
  160.8500  201.3540  146.8860 C   0  0  0  0  0  0  0  0  0  0  0  0
  160.5620  201.7040  145.7690 C   0  0  0  0  0  3  0  0  0  0  0  0
  1  7  1  1  0  0  0
  1 14  1  0  0  0  0
  3 18  1  0  0  0  0
  3 15  1  0  0  0  0
  3  8  1  0  0  0  0
  4  9  1  0  0  0  0
  5 10  1  0  0  0  0
  5 20  1  0  0  0  0
  6  3  1  0  0  0  0
  8  5  1  0  0  0  0
  9 21  1  0  0  0  0
  9  6  1  0  0  0  0
 11 16  1  0  0  0  0
 11  8  1  0  0  0  0
 12 22  1  0  0  0  0
 14 16  1  0  0  0  0
 15 13  1  0  0  0  0
 15 10  1  0  0  0  0
 16 12  1  0  0  0  0
 17  4  2  0  0  0  0
 17 23  1  0  0  0  0
 18 15  1  0  0  0  0
 18 13  1  0  0  0  0
 19  6  1  0  0  0  0
 19 11  1  0  0  0  0
 20  2  2  0  0  0  0
 21 25  1  0  0  0  0
 22 20  1  0  0  0  0
 23 24  1  0  0  0  0
 23 19  1  0  0  0  0
 24  1  1  0  0  0  0
 25 18  1  0  0  0  0
 26 27  1  0  0  0  0
 27 21  1  0  0  0  0
 28 27  2  0  0  0  0
 29 31  1  0  0  0  0
 30 31  2  0  0  0  0
 30 32  1  0  0  0  0
 31 28  1  0  0  0  0
 32 26  2  0  0  0  0
 33 34  1  0  0  0  0
 33  1  1  0  0  0  0
 35 34  1  0  0  0  0
 36 35  1  0  0  0  0
 37 36  3  0  0  0  0
M  END
>  <MODEL>
3

>  <REMARK>
 VINA RESULT:      -7.4      2.986      7.875
  Name = 
  5 active torsions:
  status: ('A' for Active; 'I' for Inactive)
    1  A    between atoms: C_1  and  C_5
    2  A    between atoms: C_5  and  C_17
    3  A    between atoms: C_6  and  C_31
    4  A    between atoms: C_11  and  C_26
    5  A    between atoms: C_17  and  C_26
                            x       y       z     vdW  Elec       q    Type
                         _______ _______ _______ _____ _____    ______ ____

>  <TORSDO>
F 5

$$$$
=
 OpenBabel11062409193D

 37 45  0  0  1  0  0  0  0  0999 V2000
  161.1910  205.6820  152.1810 C   0  0  2  0  0  0  0  0  0  0  0  0
  158.9860  210.3300  156.3430 O   0  0  0  0  0  0  0  0  0  0  0  0
  160.7830  210.8600  152.3080 C   0  0  2  0  0  0  0  0  0  0  0  0
  161.7500  209.3950  148.9370 C   0  0  0  0  0  3  0  0  0  0  0  0
  159.6700  209.9350  154.0880 C   0  0  2  0  0  3  0  0  0  0  0  0
  160.9400  209.8950  151.1770 C   0  0  1  0  0  3  0  0  0  0  0  0
  159.9710  205.1490  152.5990 O   0  0  0  0  0  1  0  0  0  0  0  0
  161.0710  210.1690  153.6150 C   0  0  1  0  0  3  0  0  0  0  0  0
  161.6110  210.4920  149.9770 C   0  0  2  0  0  3  0  0  0  0  0  0
  158.9450  211.0680  153.7240 O   0  0  0  0  0  0  0  0  0  0  0  0
  161.7840  208.8440  153.2380 C   0  0  1  0  0  3  0  0  0  0  0  0
  161.2540  207.6880  155.3810 C   0  0  0  0  0  2  0  0  0  0  0  0
  159.0110  212.7120  152.1230 C   0  0  0  0  0  2  0  0  0  0  0  0
  161.8690  206.3330  153.3970 C   0  0  0  0  0  2  0  0  0  0  0  0
  159.3230  211.2750  152.3810 C   0  0  2  0  0  0  0  0  0  0  0  0
  161.1400  207.5880  153.8590 C   0  0  2  0  0  3  0  0  0  0  0  0
  161.9790  208.1110  149.3150 C   0  0  0  0  0  3  0  0  0  0  0  0
  160.4640  212.3400  152.1460 C   0  0  2  0  0  0  0  0  0  0  0  0
  161.9080  208.8850  151.7080 C   0  0  1  0  0  3  0  0  0  0  0  0
  159.6070  209.5850  155.5380 C   0  0  0  0  0  0  0  0  0  0  0  0
  160.8270  211.7340  149.5680 C   0  0  1  0  0  3  0  0  0  0  0  0
  160.1600  208.3810  155.9980 O   0  0  0  0  0  0  0  0  0  0  0  0
  162.0280  207.6640  150.7790 C   0  0  1  0  0  3  0  0  0  0  0  0
  160.9000  206.6690  151.0380 C   0  0  0  0  0  2  0  0  0  0  0  0
  160.9060  212.7700  150.7170 C   0  0  0  0  0  2  0  0  0  0  0  0
  162.7010  212.7320  148.1900 C   0  0  0  0  0  3  0  0  0  0  0  0
  161.3600  212.3290  148.2980 C   0  0  0  0  0  0  0  0  0  0  0  0
  160.5120  212.4450  147.1900 C   0  0  0  0  0  3  0  0  0  0  0  0
  160.1700  213.0810  144.9170 F   0  0  0  0  0  0  0  0  0  0  0  0
  162.3280  213.3790  145.8870 C   0  0  0  0  0  3  0  0  0  0  0  0
  160.9940  212.9710  145.9870 C   0  0  0  0  0  0  0  0  0  0  0  0
  163.1810  213.2600  146.9880 C   0  0  0  0  0  3  0  0  0  0  0  0
  162.0460  204.5170  151.6740 C   0  0  0  0  0  2  0  0  0  0  0  0
  161.4930  203.8560  150.4190 C   0  0  0  0  0  2  0  0  0  0  0  0
  161.0510  202.4460  150.7410 C   0  0  0  0  0  2  0  0  0  0  0  0
  161.1150  201.6250  149.5320 C   0  0  0  0  0  0  0  0  0  0  0  0
  161.1720  200.9490  148.5350 C   0  0  0  0  0  3  0  0  0  0  0  0
  1  7  1  1  0  0  0
  1 14  1  0  0  0  0
  3 15  1  0  0  0  0
  3  8  1  0  0  0  0
  4 17  2  0  0  0  0
  4  9  1  0  0  0  0
  5 20  1  0  0  0  0
  6 19  1  0  0  0  0
  6  3  1  0  0  0  0
  8  5  1  0  0  0  0
  9  6  1  0  0  0  0
 10  5  1  0  0  0  0
 11  8  1  0  0  0  0
 11 16  1  0  0  0  0
 12 22  1  0  0  0  0
 13 18  1  0  0  0  0
 13 15  1  0  0  0  0
 14 16  1  0  0  0  0
 15 10  1  0  0  0  0
 16 12  1  0  0  0  0
 17 23  1  0  0  0  0
 18  3  1  0  0  0  0
 18 15  1  0  0  0  0
 19 11  1  0  0  0  0
 20 22  1  0  0  0  0
 20  2  2  0  0  0  0
 21  9  1  0  0  0  0
 21 25  1  0  0  0  0
 23 24  1  0  0  0  0
 23 19  1  0  0  0  0
 24  1  1  0  0  0  0
 25 18  1  0  0  0  0
 26 27  1  0  0  0  0
 27 21  1  0  0  0  0
 28 27  2  0  0  0  0
 29 31  1  0  0  0  0
 30 31  2  0  0  0  0
 30 32  1  0  0  0  0
 31 28  1  0  0  0  0
 32 26  2  0  0  0  0
 33  1  1  0  0  0  0
 34 35  1  0  0  0  0
 34 33  1  0  0  0  0
 36 35  1  0  0  0  0
 37 36  3  0  0  0  0
M  END
>  <MODEL>
4

>  <REMARK>
 VINA RESULT:      -6.7      3.254      7.767
  Name = 
  5 active torsions:
  status: ('A' for Active; 'I' for Inactive)
    1  A    between atoms: C_1  and  C_5
    2  A    between atoms: C_5  and  C_17
    3  A    between atoms: C_6  and  C_31
    4  A    between atoms: C_11  and  C_26
    5  A    between atoms: C_17  and  C_26
                            x       y       z     vdW  Elec       q    Type
                         _______ _______ _______ _____ _____    ______ ____

>  <TORSDO>
F 5

$$$$
=
 OpenBabel11062409193D

 37 45  0  0  1  0  0  0  0  0999 V2000
  162.3520  210.4300  150.4630 C   0  0  2  0  0  0  0  0  0  0  0  0
  161.2780  206.5280  155.6990 O   0  0  0  0  0  0  0  0  0  0  0  0
  160.9020  205.5260  151.3810 C   0  0  2  0  0  0  0  0  0  0  0  0
  161.7060  206.3230  147.7540 C   0  0  0  0  0  3  0  0  0  0  0  0
  161.5840  206.5260  153.3290 C   0  0  2  0  0  3  0  0  0  0  0  0
  161.4800  206.1900  150.1730 C   0  0  1  0  0  3  0  0  0  0  0  0
  163.4590  210.7030  151.2670 O   0  0  0  0  0  1  0  0  0  0  0  0
  160.4390  206.5670  152.3660 C   0  0  1  0  0  3  0  0  0  0  0  0
  161.0980  205.5180  148.8880 C   0  0  2  0  0  3  0  0  0  0  0  0
  161.9580  205.1870  153.4310 O   0  0  0  0  0  0  0  0  0  0  0  0
  160.3940  207.8990  151.5740 C   0  0  1  0  0  3  0  0  0  0  0  0
  160.5200  209.3600  153.5890 C   0  0  0  0  0  2  0  0  0  0  0  0
  161.8870  203.2810  152.1540 C   0  0  0  0  0  2  0  0  0  0  0  0
  161.1200  210.3010  151.3740 C   0  0  0  0  0  2  0  0  0  0  0  0
  162.0150  204.7660  152.0860 C   0  0  2  0  0  0  0  0  0  0  0  0
  161.1740  209.0500  152.2410 C   0  0  2  0  0  3  0  0  0  0  0  0
  161.8130  207.6730  147.8460 C   0  0  0  0  0  3  0  0  0  0  0  0
  160.7330  204.0210  151.5450 C   0  0  2  0  0  0  0  0  0  0  0  0
  160.7950  207.5190  150.1410 C   0  0  1  0  0  3  0  0  0  0  0  0
  161.2630  207.1900  154.6270 C   0  0  0  0  0  0  0  0  0  0  0  0
  161.5010  204.0510  148.9850 C   0  0  1  0  0  3  0  0  0  0  0  0
  161.0320  208.5730  154.6740 O   0  0  0  0  0  0  0  0  0  0  0  0
  161.4230  208.4620  149.1000 C   0  0  1  0  0  3  0  0  0  0  0  0
  162.6610  209.1510  149.6650 C   0  0  0  0  0  2  0  0  0  0  0  0
  160.6870  203.3880  150.1240 C   0  0  0  0  0  2  0  0  0  0  0  0
  161.0650  201.9380  147.6620 C   0  0  0  0  0  3  0  0  0  0  0  0
  161.2660  203.3280  147.6920 C   0  0  0  0  0  0  0  0  0  0  0  0
  161.2060  204.0610  146.5000 C   0  0  0  0  0  3  0  0  0  0  0  0
  160.9030  204.1240  144.1360 F   0  0  0  0  0  0  0  0  0  0  0  0
  160.7710  202.0260  145.2610 C   0  0  0  0  0  3  0  0  0  0  0  0
  160.9620  203.4110  145.2860 C   0  0  0  0  0  0  0  0  0  0  0  0
  160.8230  201.2900  146.4480 C   0  0  0  0  0  3  0  0  0  0  0  0
  162.1730  211.6190  149.5160 C   0  0  0  0  0  2  0  0  0  0  0  0
  163.0290  211.5320  148.2600 C   0  0  0  0  0  2  0  0  0  0  0  0
  162.7010  212.6870  147.3410 C   0  0  0  0  0  2  0  0  0  0  0  0
  161.3060  212.5890  146.9110 C   0  0  0  0  0  0  0  0  0  0  0  0
  160.1550  212.5080  146.5600 C   0  0  0  0  0  3  0  0  0  0  0  0
  1  7  1  1  0  0  0
  1 14  1  0  0  0  0
  3 18  1  0  0  0  0
  3 15  1  0  0  0  0
  3  8  1  0  0  0  0
  4 17  2  0  0  0  0
  4  9  1  0  0  0  0
  5 10  1  0  0  0  0
  5 20  1  0  0  0  0
  6  3  1  0  0  0  0
  8  5  1  0  0  0  0
  9 21  1  0  0  0  0
  9  6  1  0  0  0  0
 11 16  1  0  0  0  0
 11  8  1  0  0  0  0
 12 22  1  0  0  0  0
 14 16  1  0  0  0  0
 15 13  1  0  0  0  0
 15 10  1  0  0  0  0
 16 12  1  0  0  0  0
 17 23  1  0  0  0  0
 18 15  1  0  0  0  0
 18 13  1  0  0  0  0
 19  6  1  0  0  0  0
 19 11  1  0  0  0  0
 20 22  1  0  0  0  0
 20  2  2  0  0  0  0
 21 25  1  0  0  0  0
 23 24  1  0  0  0  0
 23 19  1  0  0  0  0
 24  1  1  0  0  0  0
 25 18  1  0  0  0  0
 26 27  1  0  0  0  0
 27 21  1  0  0  0  0
 28 27  2  0  0  0  0
 29 31  1  0  0  0  0
 30 31  2  0  0  0  0
 30 32  1  0  0  0  0
 31 28  1  0  0  0  0
 32 26  2  0  0  0  0
 33  1  1  0  0  0  0
 34 33  1  0  0  0  0
 35 34  1  0  0  0  0
 36 35  1  0  0  0  0
 37 36  3  0  0  0  0
M  END
>  <MODEL>
5

>  <REMARK>
 VINA RESULT:      -6.7      1.827      5.319
  Name = 
  5 active torsions:
  status: ('A' for Active; 'I' for Inactive)
    1  A    between atoms: C_1  and  C_5
    2  A    between atoms: C_5  and  C_17
    3  A    between atoms: C_6  and  C_31
    4  A    between atoms: C_11  and  C_26
    5  A    between atoms: C_17  and  C_26
                            x       y       z     vdW  Elec       q    Type
                         _______ _______ _______ _____ _____    ______ ____

>  <TORSDO>
F 5

$$$$
=
 OpenBabel11062409193D

 37 45  0  0  1  0  0  0  0  0999 V2000
  162.2280  209.1070  149.0340 C   0  0  2  0  0  0  0  0  0  0  0  0
  161.3570  205.8430  154.7240 O   0  0  0  0  0  0  0  0  0  0  0  0
  160.7680  204.3630  150.5710 C   0  0  2  0  0  0  0  0  0  0  0  0
  161.4110  204.7300  146.8430 C   0  0  0  0  0  3  0  0  0  0  0  0
  161.5510  205.5670  152.3590 C   0  0  2  0  0  3  0  0  0  0  0  0
  161.2960  204.8760  149.2700 C   0  0  1  0  0  3  0  0  0  0  0  0
  163.3740  209.4520  149.7510 O   0  0  0  0  0  1  0  0  0  0  0  0
  160.3630  205.5160  151.4490 C   0  0  1  0  0  3  0  0  0  0  0  0
  160.8480  204.0690  148.0880 C   0  0  2  0  0  3  0  0  0  0  0  0
  161.9150  204.2430  152.5950 O   0  0  0  0  0  0  0  0  0  0  0  0
  160.2960  206.7500  150.5140 C   0  0  1  0  0  3  0  0  0  0  0  0
  160.5320  208.4290  152.3410 C   0  0  0  0  0  2  0  0  0  0  0  0
  161.7630  202.2050  151.5500 C   0  0  0  0  0  2  0  0  0  0  0  0
  161.0390  209.1020  150.0080 C   0  0  0  0  0  2  0  0  0  0  0  0
  161.9050  203.6710  151.3060 C   0  0  2  0  0  0  0  0  0  0  0  0
  161.1190  207.9580  151.0090 C   0  0  2  0  0  3  0  0  0  0  0  0
  161.5370  206.0800  146.7760 C   0  0  0  0  0  3  0  0  0  0  0  0
  160.5900  202.8890  150.9120 C   0  0  2  0  0  0  0  0  0  0  0  0
  160.6250  206.2040  149.1170 C   0  0  1  0  0  3  0  0  0  0  0  0
  161.2990  206.3800  153.5850 C   0  0  0  0  0  0  0  0  0  0  0  0
  161.2390  202.6160  148.3340 C   0  0  1  0  0  3  0  0  0  0  0  0
  161.0850  207.7620  153.4850 O   0  0  0  0  0  0  0  0  0  0  0  0
  161.2140  207.0120  147.9470 C   0  0  1  0  0  3  0  0  0  0  0  0
  162.4850  207.7410  148.3740 C   0  0  0  0  0  2  0  0  0  0  0  0
  160.4720  202.1000  149.5770 C   0  0  0  0  0  2  0  0  0  0  0  0
  160.2340  202.2620  146.0380 C   0  0  0  0  0  3  0  0  0  0  0  0
  160.9360  201.7550  147.1440 C   0  0  0  0  0  0  0  0  0  0  0  0
  161.3980  200.4330  147.1220 C   0  0  0  0  0  3  0  0  0  0  0  0
  161.5990  198.3420  145.9930 F   0  0  0  0  0  0  0  0  0  0  0  0
  160.4430  200.1270  144.9170 C   0  0  0  0  0  3  0  0  0  0  0  0
  161.1500  199.6200  146.0110 C   0  0  0  0  0  0  0  0  0  0  0  0
  159.9850  201.4480  144.9300 C   0  0  0  0  0  3  0  0  0  0  0  0
  162.0180  210.1840  147.9660 C   0  0  0  0  0  2  0  0  0  0  0  0
  161.8480  211.5840  148.5380 C   0  0  0  0  0  2  0  0  0  0  0  0
  162.9170  212.4940  147.9770 C   0  0  0  0  0  2  0  0  0  0  0  0
  162.4900  213.0080  146.6760 C   0  0  0  0  0  0  0  0  0  0  0  0
  162.1410  213.4310  145.6010 C   0  0  0  0  0  3  0  0  0  0  0  0
  1  7  1  1  0  0  0
  1 14  1  0  0  0  0
  3 18  1  0  0  0  0
  3 15  1  0  0  0  0
  3  8  1  0  0  0  0
  4  9  1  0  0  0  0
  5 10  1  0  0  0  0
  5 20  1  0  0  0  0
  6  3  1  0  0  0  0
  8  5  1  0  0  0  0
  9 21  1  0  0  0  0
  9  6  1  0  0  0  0
 11 16  1  0  0  0  0
 11  8  1  0  0  0  0
 12 22  1  0  0  0  0
 14 16  1  0  0  0  0
 15 13  1  0  0  0  0
 15 10  1  0  0  0  0
 16 12  1  0  0  0  0
 17  4  2  0  0  0  0
 17 23  1  0  0  0  0
 18 15  1  0  0  0  0
 18 13  1  0  0  0  0
 19  6  1  0  0  0  0
 19 11  1  0  0  0  0
 20  2  2  0  0  0  0
 21 25  1  0  0  0  0
 22 20  1  0  0  0  0
 23 24  1  0  0  0  0
 23 19  1  0  0  0  0
 24  1  1  0  0  0  0
 25 18  1  0  0  0  0
 26 27  1  0  0  0  0
 27 21  1  0  0  0  0
 28 27  2  0  0  0  0
 29 31  1  0  0  0  0
 30 32  1  0  0  0  0
 30 31  2  0  0  0  0
 31 28  1  0  0  0  0
 32 26  2  0  0  0  0
 33 34  1  0  0  0  0
 33  1  1  0  0  0  0
 35 34  1  0  0  0  0
 36 35  1  0  0  0  0
 37 36  3  0  0  0  0
M  END
>  <MODEL>
6

>  <REMARK>
 VINA RESULT:      -6.7      1.863      5.344
  Name = 
  5 active torsions:
  status: ('A' for Active; 'I' for Inactive)
    1  A    between atoms: C_1  and  C_5
    2  A    between atoms: C_5  and  C_17
    3  A    between atoms: C_6  and  C_31
    4  A    between atoms: C_11  and  C_26
    5  A    between atoms: C_17  and  C_26
                            x       y       z     vdW  Elec       q    Type
                         _______ _______ _______ _____ _____    ______ ____

>  <TORSDO>
F 5

$$$$
=
 OpenBabel11062409193D

 37 45  0  0  1  0  0  0  0  0999 V2000
  160.7480  205.4870  145.0610 C   0  0  2  0  0  0  0  0  0  0  0  0
  160.5670  200.1190  148.9250 O   0  0  0  0  0  0  0  0  0  0  0  0
  161.4450  204.3250  150.0770 C   0  0  2  0  0  0  0  0  0  0  0  0
  161.2810  208.0380  149.2840 C   0  0  0  0  0  3  0  0  0  0  0  0
  160.6130  202.5080  148.9520 C   0  0  2  0  0  3  0  0  0  0  0  0
  161.1340  205.6110  149.3800 C   0  0  1  0  0  3  0  0  0  0  0  0
  159.5770  204.8590  144.6380 O   0  0  0  0  0  1  0  0  0  0  0  0
  161.8830  203.2920  149.0730 C   0  0  1  0  0  3  0  0  0  0  0  0
  161.6150  206.8200  150.1250 C   0  0  2  0  0  3  0  0  0  0  0  0
  160.0690  202.4520  150.2340 O   0  0  0  0  0  0  0  0  0  0  0  0
  162.2020  204.0790  147.7760 C   0  0  1  0  0  3  0  0  0  0  0  0
  161.9620  202.1170  146.2580 C   0  0  0  0  0  2  0  0  0  0  0  0
  160.0950  203.6880  152.1680 C   0  0  0  0  0  2  0  0  0  0  0  0
  161.8090  204.4040  145.3110 C   0  0  0  0  0  2  0  0  0  0  0  0
  160.1580  203.7870  150.6800 C   0  0  2  0  0  0  0  0  0  0  0  0
  161.4790  203.5440  146.5230 C   0  0  2  0  0  3  0  0  0  0  0  0
  161.3250  207.9740  147.9290 C   0  0  0  0  0  3  0  0  0  0  0  0
  161.4060  204.1260  151.5860 C   0  0  2  0  0  0  0  0  0  0  0  0
  161.9730  205.5520  148.1420 C   0  0  1  0  0  3  0  0  0  0  0  0
  160.8190  201.1820  148.2970 C   0  0  0  0  0  0  0  0  0  0  0  0
  161.0280  206.7710  151.5320 C   0  0  1  0  0  3  0  0  0  0  0  0
  161.2060  201.1130  146.9510 O   0  0  0  0  0  0  0  0  0  0  0  0
  161.6220  206.6830  147.1600 C   0  0  1  0  0  3  0  0  0  0  0  0
  160.4070  206.3120  146.3140 C   0  0  0  0  0  2  0  0  0  0  0  0
  161.5810  205.5190  152.2560 C   0  0  0  0  0  2  0  0  0  0  0  0
  162.0550  209.0770  151.7190 C   0  0  0  0  0  3  0  0  0  0  0  0
  161.3600  208.0100  152.3110 C   0  0  0  0  0  0  0  0  0  0  0  0
  160.9310  208.1160  153.6400 C   0  0  0  0  0  3  0  0  0  0  0  0
  160.7900  209.3710  155.6620 F   0  0  0  0  0  0  0  0  0  0  0  0
  161.9070  210.3280  153.7860 C   0  0  0  0  0  3  0  0  0  0  0  0
  161.2060  209.2720  154.3770 C   0  0  0  0  0  0  0  0  0  0  0  0
  162.3310  210.2310  152.4580 C   0  0  0  0  0  3  0  0  0  0  0  0
  161.2060  206.4080  143.9260 C   0  0  0  0  0  2  0  0  0  0  0  0
  161.2060  205.7370  142.5600 C   0  0  0  0  0  2  0  0  0  0  0  0
  162.4060  206.2030  141.7660 C   0  0  0  0  0  2  0  0  0  0  0  0
  161.9560  206.9530  140.5930 C   0  0  0  0  0  0  0  0  0  0  0  0
  161.5830  207.5740  139.6290 C   0  0  0  0  0  3  0  0  0  0  0  0
  1  7  1  6  0  0  0
  1 14  1  0  0  0  0
  1 24  1  0  0  0  0
  3 15  1  0  0  0  0
  3 18  1  0  0  0  0
  4  9  1  0  0  0  0
  5  8  1  0  0  0  0
  5 10  1  0  0  0  0
  6  3  1  0  0  0  0
  6  9  1  0  0  0  0
  8  3  1  0  0  0  0
  9 21  1  0  0  0  0
 10 15  1  0  0  0  0
 11 19  1  0  0  0  0
 11  8  1  0  0  0  0
 12 16  1  0  0  0  0
 12 22  1  0  0  0  0
 14 16  1  0  0  0  0
 15 18  1  0  0  0  0
 15 13  1  0  0  0  0
 16 11  1  0  0  0  0
 17  4  2  0  0  0  0
 18 13  1  0  0  0  0
 18 25  1  0  0  0  0
 19  6  1  0  0  0  0
 20  2  2  0  0  0  0
 20  5  1  0  0  0  0
 21 25  1  0  0  0  0
 21 27  1  0  0  0  0
 22 20  1  0  0  0  0
 23 17  1  0  0  0  0
 23 19  1  0  0  0  0
 24 23  1  0  0  0  0
 26 27  2  0  0  0  0
 26 32  1  0  0  0  0
 27 28  1  0  0  0  0
 28 31  2  0  0  0  0
 30 31  1  0  0  0  0
 31 29  1  0  0  0  0
 32 30  2  0  0  0  0
 33  1  1  0  0  0  0
 34 33  1  0  0  0  0
 35 34  1  0  0  0  0
 36 35  1  0  0  0  0
 37 36  3  0  0  0  0
M  END
>  <MODEL>
7

>  <REMARK>
 VINA RESULT:      -5.4      3.878      9.066
  Name = 
  5 active torsions:
  status: ('A' for Active; 'I' for Inactive)
    1  A    between atoms: C_1  and  C_5
    2  A    between atoms: C_5  and  C_17
    3  A    between atoms: C_6  and  C_31
    4  A    between atoms: C_11  and  C_26
    5  A    between atoms: C_17  and  C_26
                            x       y       z     vdW  Elec       q    Type
                         _______ _______ _______ _____ _____    ______ ____

>  <TORSDO>
F 5

$$$$
