=
 OpenBabel11062410393D

 32 39  0  0  1  0  0  0  0  0999 V2000
  159.7550  200.7960  150.0660 O   0  0  0  0  0  0  0  0  0  0  0  0
  161.9620  203.5440  147.1610 C   0  0  0  0  0  2  0  0  0  0  0  0
  161.3970  207.3330  150.7390 C   0  0  1  0  0  3  0  0  0  0  0  0
  161.8820  211.5230  148.1560 C   0  0  0  0  0  3  0  0  0  0  0  0
  161.7690  212.2760  149.2540 C   0  0  0  0  0  3  0  0  0  0  0  0
  161.0910  207.8350  153.1980 C   0  0  0  0  0  0  0  0  0  0  0  0
  160.9160  206.6590  153.9550 C   0  0  0  0  0  0  0  0  0  0  0  0
  161.1600  205.1260  149.5660 C   0  0  1  0  0  3  0  0  0  0  0  0
  161.4110  207.1980  148.2070 C   0  0  0  0  0  2  0  0  0  0  0  0
  160.0440  202.1510  148.1290 C   0  0  1  0  0  3  0  0  0  0  0  0
  160.9060  209.2040  155.1990 C   0  0  0  0  0  0  0  0  0  0  0  0
  161.5430  205.0080  147.0760 C   0  0  0  0  0  2  0  0  0  0  0  0
  161.8130  210.0540  148.2180 C   0  0  0  0  0  3  0  0  0  0  0  0
  161.5650  207.9710  149.4450 N   0  0  0  0  0  0  0  0  0  0  0  0
  161.6320  209.4130  149.3780 C   0  0  0  0  0  0  0  0  0  0  0  0
  161.3260  209.5080  151.7670 C   0  0  0  0  0  0  0  0  0  0  0  0
  161.1200  200.7690  149.7490 C   0  0  0  0  0  2  0  0  0  0  0  0
  160.7530  208.0430  155.9660 C   0  0  0  0  0  3  0  0  0  0  0  0
  161.3300  201.3900  148.3810 C   0  0  2  0  0  3  0  0  0  0  0  0
  159.2220  201.8970  149.3790 C   0  0  0  0  0  2  0  0  0  0  0  0
  161.8780  205.7580  148.3660 C   0  0  2  0  0  3  0  0  0  0  0  0
  160.7540  206.7800  155.3450 C   0  0  0  0  0  3  0  0  0  0  0  0
  161.5270  203.6510  149.7210 C   0  0  0  0  0  2  0  0  0  0  0  0
  161.3350  202.9090  148.3920 C   0  0  1  0  0  0  0  0  0  0  0  0
  161.5630  211.6950  150.6280 C   0  0  0  0  0  3  0  0  0  0  0  0
  161.5000  210.1890  150.6310 C   0  0  0  0  0  0  0  0  0  0  0  0
  161.2060  210.0500  152.9600 O   0  0  0  0  0  0  0  0  0  0  0  0
  161.5570  205.8480  150.8450 C   0  0  0  0  0  2  0  0  0  0  0  0
  160.8730  205.3950  153.3880 O   0  0  0  0  0  1  0  0  0  0  0  0
  160.8950  210.4560  155.8010 O   0  0  0  0  0  1  0  0  0  0  0  0
  161.2680  208.1170  151.8360 C   0  0  0  0  0  0  0  0  0  0  0  0
  161.0670  209.0720  153.8210 C   0  0  0  0  0  0  0  0  0  0  0  0
  3 28  1  1  0  0  0
  3 31  1  0  0  0  0
  4 13  2  0  0  0  0
  4  5  1  0  0  0  0
  5 25  2  0  0  0  0
  6 32  2  0  0  0  0
  6  7  1  0  0  0  0
  7 22  2  0  0  0  0
  8 23  1  1  0  0  0
  8 28  1  0  0  0  0
  9 21  1  0  0  0  0
  9 14  1  0  0  0  0
 10 19  1  0  0  0  0
 10 24  1  0  0  0  0
 10 20  1  1  0  0  0
 11 30  1  0  0  0  0
 11 18  2  0  0  0  0
 12  2  1  0  0  0  0
 13 15  1  0  0  0  0
 14  3  1  0  0  0  0
 15 14  1  0  0  0  0
 15 26  2  0  0  0  0
 16 31  2  0  0  0  0
 16 27  1  0  0  0  0
 17  1  1  0  0  0  0
 19 24  1  0  0  0  0
 19 17  1  1  0  0  0
 20  1  1  0  0  0  0
 21 12  1  6  0  0  0
 21  8  1  0  0  0  0
 22 18  1  0  0  0  0
 24  2  1  6  0  0  0
 24 23  1  0  0  0  0
 25 26  1  0  0  0  0
 26 16  1  0  0  0  0
 27 32  1  0  0  0  0
 29  7  1  0  0  0  0
 31  6  1  0  0  0  0
 32 11  1  0  0  0  0
M  END
>  <MODEL>
1

>  <REMARK>
 VINA RESULT:      -9.3      0.000      0.000
  Name = 
  0 active torsions:
  status: ('A' for Active; 'I' for Inactive)
                            x       y       z     vdW  Elec       q    Type
                         _______ _______ _______ _____ _____    ______ ____

>  <TORSDO>
F 0

$$$$
=
 OpenBabel11062410393D

 32 39  0  0  1  0  0  0  0  0999 V2000
  160.4310  212.2550  144.5250 O   0  0  0  0  0  0  0  0  0  0  0  0
  161.9170  213.5960  148.6310 C   0  0  0  0  0  2  0  0  0  0  0  0
  161.3690  208.6110  150.1570 C   0  0  1  0  0  3  0  0  0  0  0  0
  161.0310  208.8810  155.0840 C   0  0  0  0  0  3  0  0  0  0  0  0
  160.9690  207.5530  155.2060 C   0  0  0  0  0  3  0  0  0  0  0  0
  161.3200  206.2020  149.3940 C   0  0  0  0  0  0  0  0  0  0  0  0
  161.3810  206.0950  147.9890 C   0  0  0  0  0  0  0  0  0  0  0  0
  161.2450  210.6860  148.7500 C   0  0  1  0  0  3  0  0  0  0  0  0
  161.0790  210.8920  151.2260 C   0  0  0  0  0  2  0  0  0  0  0  0
  160.3130  213.3130  146.6550 C   0  0  1  0  0  3  0  0  0  0  0  0
  161.2300  203.7820  149.6170 C   0  0  0  0  0  0  0  0  0  0  0  0
  161.3220  212.9430  149.8750 C   0  0  0  0  0  2  0  0  0  0  0  0
  161.1420  209.5300  153.7680 C   0  0  0  0  0  3  0  0  0  0  0  0
  161.2970  209.4450  151.3440 N   0  0  0  0  0  0  0  0  0  0  0  0
  161.1860  208.8140  152.6390 C   0  0  0  0  0  0  0  0  0  0  0  0
  161.1750  206.6610  151.5540 C   0  0  0  0  0  0  0  0  0  0  0  0
  161.7390  212.6210  144.8730 C   0  0  0  0  0  2  0  0  0  0  0  0
  161.3120  203.6610  148.2250 C   0  0  0  0  0  3  0  0  0  0  0  0
  161.7000  213.5310  146.0860 C   0  0  2  0  0  3  0  0  0  0  0  0
  159.6910  212.2970  145.7160 C   0  0  0  0  0  2  0  0  0  0  0  0
  161.7280  211.4720  149.9780 C   0  0  2  0  0  3  0  0  0  0  0  0
  161.3830  204.8120  147.4180 C   0  0  0  0  0  3  0  0  0  0  0  0
  161.7990  211.2810  147.4560 C   0  0  0  0  0  2  0  0  0  0  0  0
  161.5300  212.7900  147.4010 C   0  0  1  0  0  0  0  0  0  0  0  0
  161.0090  206.6180  154.0260 C   0  0  0  0  0  3  0  0  0  0  0  0
  161.1230  207.3370  152.7060 C   0  0  0  0  0  0  0  0  0  0  0  0
  161.1440  205.3500  151.4480 O   0  0  0  0  0  0  0  0  0  0  0  0
  161.7140  209.2420  148.8440 C   0  0  0  0  0  2  0  0  0  0  0  0
  161.4150  207.1970  147.1500 O   0  0  0  0  0  1  0  0  0  0  0  0
  161.1490  202.6520  150.4220 O   0  0  0  0  0  1  0  0  0  0  0  0
  161.2900  207.2670  150.3040 C   0  0  0  0  0  0  0  0  0  0  0  0
  161.2300  205.0600  150.1730 C   0  0  0  0  0  0  0  0  0  0  0  0
  1 17  1  0  0  0  0
  1 20  1  0  0  0  0
  2 12  1  0  0  0  0
  3 28  1  1  0  0  0
  3 31  1  0  0  0  0
  3 14  1  0  0  0  0
  4  5  1  0  0  0  0
  6 32  1  0  0  0  0
  6 31  1  0  0  0  0
  7  6  2  0  0  0  0
  8 23  1  6  0  0  0
  8 28  1  0  0  0  0
  8 21  1  0  0  0  0
  9 14  1  0  0  0  0
 10 20  1  6  0  0  0
 10 24  1  0  0  0  0
 11 32  2  0  0  0  0
 11 30  1  0  0  0  0
 13  4  2  0  0  0  0
 14 15  1  0  0  0  0
 15 26  2  0  0  0  0
 15 13  1  0  0  0  0
 16 26  1  0  0  0  0
 18 11  1  0  0  0  0
 19 17  1  6  0  0  0
 19 10  1  0  0  0  0
 19 24  1  0  0  0  0
 21 12  1  6  0  0  0
 21  9  1  0  0  0  0
 22  7  1  0  0  0  0
 22 18  2  0  0  0  0
 24 23  1  1  0  0  0
 24  2  1  0  0  0  0
 25  5  2  0  0  0  0
 26 25  1  0  0  0  0
 27 16  1  0  0  0  0
 29  7  1  0  0  0  0
 31 16  2  0  0  0  0
 32 27  1  0  0  0  0
M  END
>  <MODEL>
2

>  <REMARK>
 VINA RESULT:      -8.2      2.441      7.588
  Name = 
  0 active torsions:
  status: ('A' for Active; 'I' for Inactive)
                            x       y       z     vdW  Elec       q    Type
                         _______ _______ _______ _____ _____    ______ ____

>  <TORSDO>
F 0

$$$$
=
 OpenBabel11062410393D

 32 39  0  0  1  0  0  0  0  0999 V2000
  161.0770  212.7160  146.1100 O   0  0  0  0  0  0  0  0  0  0  0  0
  162.4350  211.6170  150.3310 C   0  0  0  0  0  2  0  0  0  0  0  0
  161.5100  206.6220  149.0370 C   0  0  1  0  0  3  0  0  0  0  0  0
  160.9440  204.3290  153.3830 C   0  0  0  0  0  3  0  0  0  0  0  0
  160.7950  203.1390  152.7960 C   0  0  0  0  0  3  0  0  0  0  0  0
  161.3520  204.9680  147.1330 C   0  0  0  0  0  0  0  0  0  0  0  0
  161.4750  205.6000  145.8780 C   0  0  0  0  0  0  0  0  0  0  0  0
  161.5830  209.1290  148.9120 C   0  0  1  0  0  3  0  0  0  0  0  0
  161.3060  208.0360  151.1330 C   0  0  0  0  0  2  0  0  0  0  0  0
  160.9170  212.5240  148.4790 C   0  0  1  0  0  3  0  0  0  0  0  0
  161.1040  202.7970  146.0650 C   0  0  0  0  0  0  0  0  0  0  0  0
  161.7410  210.4640  151.0470 C   0  0  0  0  0  2  0  0  0  0  0  0
  161.1600  205.5550  152.5970 C   0  0  0  0  0  3  0  0  0  0  0  0
  161.4290  206.7250  150.4840 N   0  0  0  0  0  0  0  0  0  0  0  0
  161.2160  205.5250  151.2610 C   0  0  0  0  0  0  0  0  0  0  0  0
  161.1280  204.2530  149.2160 C   0  0  0  0  0  0  0  0  0  0  0  0
  162.3860  212.7450  146.6120 C   0  0  0  0  0  2  0  0  0  0  0  0
  161.2470  203.4090  144.8140 C   0  0  0  0  0  3  0  0  0  0  0  0
  162.3420  212.8960  148.1200 C   0  0  2  0  0  3  0  0  0  0  0  0
  160.2820  212.1920  147.1410 C   0  0  0  0  0  2  0  0  0  0  0  0
  162.0500  209.1250  150.3750 C   0  0  2  0  0  3  0  0  0  0  0  0
  161.4280  204.8020  144.7230 C   0  0  0  0  0  3  0  0  0  0  0  0
  162.2350  210.2620  148.1230 C   0  0  0  0  0  2  0  0  0  0  0  0
  162.0610  211.5970  148.8570 C   0  0  1  0  0  0  0  0  0  0  0  0
  160.8360  202.9500  151.3020 C   0  0  0  0  0  3  0  0  0  0  0  0
  161.0600  204.2370  150.5500 C   0  0  0  0  0  0  0  0  0  0  0  0
  161.0220  203.1930  148.4430 O   0  0  0  0  0  0  0  0  0  0  0  0
  161.9570  207.8130  148.2470 C   0  0  0  0  0  2  0  0  0  0  0  0
  161.6190  206.9700  145.7340 O   0  0  0  0  0  1  0  0  0  0  0  0
  160.9140  201.4250  146.1640 O   0  0  0  0  0  1  0  0  0  0  0  0
  161.3410  205.4070  148.4640 C   0  0  0  0  0  0  0  0  0  0  0  0
  161.1540  203.5990  147.2030 C   0  0  0  0  0  0  0  0  0  0  0  0
  1 17  1  0  0  0  0
  1 20  1  0  0  0  0
  2 12  1  0  0  0  0
  3 28  1  1  0  0  0
  3 14  1  0  0  0  0
  5  4  1  0  0  0  0
  6 32  1  0  0  0  0
  6 31  1  0  0  0  0
  7  6  2  0  0  0  0
  8 23  1  6  0  0  0
  8 21  1  0  0  0  0
 10 20  1  6  0  0  0
 10 24  1  0  0  0  0
 11 30  1  0  0  0  0
 11 32  2  0  0  0  0
 13  4  2  0  0  0  0
 14  9  1  0  0  0  0
 14 15  1  0  0  0  0
 15 13  1  0  0  0  0
 16 26  1  0  0  0  0
 18 11  1  0  0  0  0
 19 17  1  6  0  0  0
 19 10  1  0  0  0  0
 19 24  1  0  0  0  0
 21 12  1  1  0  0  0
 21  9  1  0  0  0  0
 22 18  2  0  0  0  0
 22  7  1  0  0  0  0
 24 23  1  6  0  0  0
 24  2  1  0  0  0  0
 25  5  2  0  0  0  0
 26 15  2  0  0  0  0
 26 25  1  0  0  0  0
 27 16  1  0  0  0  0
 28  8  1  0  0  0  0
 29  7  1  0  0  0  0
 31  3  1  0  0  0  0
 31 16  2  0  0  0  0
 32 27  1  0  0  0  0
M  END
>  <MODEL>
3

>  <REMARK>
 VINA RESULT:      -8.0      3.023      8.383
  Name = 
  0 active torsions:
  status: ('A' for Active; 'I' for Inactive)
                            x       y       z     vdW  Elec       q    Type
                         _______ _______ _______ _____ _____    ______ ____

>  <TORSDO>
F 0

$$$$
=
 OpenBabel11062410393D

 32 39  0  0  1  0  0  0  0  0999 V2000
  160.5280  212.5710  145.2190 O   0  0  0  0  0  0  0  0  0  0  0  0
  161.4160  214.4100  149.3050 C   0  0  0  0  0  2  0  0  0  0  0  0
  161.0560  209.5610  151.2650 C   0  0  1  0  0  3  0  0  0  0  0  0
  160.1180  210.2630  156.0700 C   0  0  0  0  0  3  0  0  0  0  0  0
  160.1400  208.9510  156.3200 C   0  0  0  0  0  3  0  0  0  0  0  0
  161.2730  207.0960  150.7520 C   0  0  0  0  0  0  0  0  0  0  0  0
  161.5060  206.8640  149.3810 C   0  0  0  0  0  0  0  0  0  0  0  0
  160.9490  211.4780  149.6460 C   0  0  1  0  0  3  0  0  0  0  0  0
  160.4760  211.9010  152.0550 C   0  0  0  0  0  2  0  0  0  0  0  0
  160.0820  213.8100  147.2030 C   0  0  1  0  0  3  0  0  0  0  0  0
  161.3330  204.7090  151.2110 C   0  0  0  0  0  0  0  0  0  0  0  0
  160.7280  213.8290  150.5350 C   0  0  0  0  0  2  0  0  0  0  0  0
  160.3370  210.7930  154.7140 C   0  0  0  0  0  3  0  0  0  0  0  0
  160.7830  210.4950  152.3440 N   0  0  0  0  0  0  0  0  0  0  0  0
  160.5660  209.9800  153.6770 C   0  0  0  0  0  0  0  0  0  0  0  0
  160.8400  207.7420  152.8250 C   0  0  0  0  0  0  0  0  0  0  0  0
  161.7560  213.0760  145.6700 C   0  0  0  0  0  2  0  0  0  0  0  0
  161.5880  204.4660  149.8560 C   0  0  0  0  0  3  0  0  0  0  0  0
  161.5070  214.0890  146.7710 C   0  0  2  0  0  3  0  0  0  0  0  0
  159.6510  212.6620  146.3100 C   0  0  0  0  0  2  0  0  0  0  0  0
  161.2240  212.4130  150.8330 C   0  0  2  0  0  3  0  0  0  0  0  0
  161.6690  205.5380  148.9480 C   0  0  0  0  0  3  0  0  0  0  0  0
  161.6070  211.9930  148.3680 C   0  0  0  0  0  2  0  0  0  0  0  0
  161.2370  213.4630  148.1290 C   0  0  1  0  0  0  0  0  0  0  0  0
  160.3860  207.9170  155.2540 C   0  0  0  0  0  3  0  0  0  0  0  0
  160.6040  208.5160  153.8880 C   0  0  0  0  0  0  0  0  0  0  0  0
  160.9170  206.4290  152.8510 O   0  0  0  0  0  0  0  0  0  0  0  0
  161.5060  210.0940  149.9390 C   0  0  0  0  0  2  0  0  0  0  0  0
  161.5600  207.8810  148.4420 O   0  0  0  0  0  1  0  0  0  0  0  0
  161.2400  203.6570  152.1130 O   0  0  0  0  0  1  0  0  0  0  0  0
  161.0570  208.2360  151.5390 C   0  0  0  0  0  0  0  0  0  0  0  0
  161.1740  206.0280  151.6290 C   0  0  0  0  0  0  0  0  0  0  0  0
  1 17  1  0  0  0  0
  1 20  1  0  0  0  0
  2 12  1  0  0  0  0
  3 28  1  1  0  0  0
  3 31  1  0  0  0  0
  3 14  1  0  0  0  0
  4  5  1  0  0  0  0
  6 31  1  0  0  0  0
  6 32  1  0  0  0  0
  7  6  2  0  0  0  0
  8 23  1  6  0  0  0
  8 28  1  0  0  0  0
  8 21  1  0  0  0  0
  9 14  1  0  0  0  0
 10 20  1  6  0  0  0
 10 24  1  0  0  0  0
 11 32  2  0  0  0  0
 11 30  1  0  0  0  0
 13  4  2  0  0  0  0
 14 15  1  0  0  0  0
 15 26  2  0  0  0  0
 15 13  1  0  0  0  0
 16 27  1  0  0  0  0
 16 26  1  0  0  0  0
 18 11  1  0  0  0  0
 19 17  1  6  0  0  0
 19 10  1  0  0  0  0
 19 24  1  0  0  0  0
 21 12  1  6  0  0  0
 21  9  1  0  0  0  0
 22  7  1  0  0  0  0
 22 18  2  0  0  0  0
 24 23  1  1  0  0  0
 24  2  1  0  0  0  0
 25  5  2  0  0  0  0
 26 25  1  0  0  0  0
 29  7  1  0  0  0  0
 31 16  2  0  0  0  0
 32 27  1  0  0  0  0
M  END
>  <MODEL>
4

>  <REMARK>
 VINA RESULT:      -6.7      2.395      7.605
  Name = 
  0 active torsions:
  status: ('A' for Active; 'I' for Inactive)
                            x       y       z     vdW  Elec       q    Type
                         _______ _______ _______ _____ _____    ______ ____

>  <TORSDO>
F 0

$$$$
