=
 OpenBabel11052423013D

 28 31  0  0  1  0  0  0  0  0999 V2000
  161.9800  209.9240  149.6140 C   0  0  0  0  0  0  0  0  0  0  0  0
  161.5560  205.9810  152.2830 O   0  0  0  0  0  0  0  0  0  0  0  0
  160.7220  206.4650  148.7020 C   0  0  2  0  0  3  0  0  0  0  0  0
  161.7140  207.9670  151.0160 C   0  0  0  0  0  0  0  0  0  0  0  0
  161.3770  207.7690  148.6000 N   0  0  0  0  0  2  0  0  0  0  0  0
  162.2750  210.0490  152.0130 C   0  0  0  0  0  3  0  0  0  0  0  0
  161.4810  206.5210  151.1440 C   0  0  0  0  0  0  0  0  0  0  0  0
  162.0030  208.7210  152.1120 N   0  0  0  0  0  0  0  0  0  0  0  0
  161.2560  205.6640  149.9160 C   0  0  1  0  0  3  0  0  0  0  0  0
  162.2720  210.6720  150.7640 C   0  0  0  0  0  3  0  0  0  0  0  0
  161.6850  208.5610  149.7480 C   0  0  0  0  0  0  0  0  0  0  0  0
  162.3610  205.7330  146.9210 C   0  0  0  0  0  2  0  0  0  0  0  0
  160.0690  206.2470  146.3570 O   0  0  0  0  0  0  0  0  0  0  0  0
  161.4700  205.4710  144.5950 C   0  0  0  0  0  0  0  0  0  0  0  0
  160.9030  205.7030  147.3830 C   0  0  2  0  0  3  0  0  0  0  0  0
  160.3320  206.0420  144.9970 C   0  0  0  0  0  3  0  0  0  0  0  0
  161.6860  205.2640  143.2750 F   0  0  0  0  0  0  0  0  0  0  0  0
  162.4790  204.9820  145.5960 C   0  0  0  0  0  2  0  0  0  0  0  0
  160.3710  204.4530  150.2380 C   0  0  0  0  0  2  0  0  0  0  0  0
  161.0030  203.1410  149.7950 C   0  0  0  0  0  1  0  0  0  0  0  0
  161.9700  210.5050  148.3370 O   0  0  0  0  0  0  0  0  0  0  0  0
  161.6040  211.8570  148.0520 C   0  0  2  0  0  3  0  0  0  0  0  0
  162.0280  213.4930  146.3930 C   0  0  1  0  0  3  0  0  0  0  0  0
  160.4660  211.9090  147.2330 O   0  0  0  0  0  0  0  0  0  0  0  0
  163.4010  213.3880  148.3200 O   0  0  0  0  0  1  0  0  0  0  0  0
  162.7310  212.6080  147.3780 C   0  0  1  0  0  3  0  0  0  0  0  0
  162.4940  213.1540  144.9910 C   0  0  0  0  0  1  0  0  0  0  0  0
  160.5660  213.1280  146.5430 C   0  0  0  0  0  2  0  0  0  0  0  0
  1 11  2  0  0  0  0
  1 10  1  0  0  0  0
  3  5  1  6  0  0  0
  3  9  1  0  0  0  0
  4  7  1  0  0  0  0
  4  8  2  0  0  0  0
  5 11  1  0  0  0  0
  6  8  1  0  0  0  0
  7  2  2  0  0  0  0
  9 19  1  1  0  0  0
  9  7  1  0  0  0  0
 10  6  2  0  0  0  0
 11  4  1  0  0  0  0
 13 15  1  0  0  0  0
 14 16  2  0  0  0  0
 14 18  1  0  0  0  0
 15 12  1  6  0  0  0
 15  3  1  0  0  0  0
 16 13  1  0  0  0  0
 17 14  1  0  0  0  0
 18 12  1  0  0  0  0
 20 19  1  0  0  0  0
 21  1  1  0  0  0  0
 22 21  1  6  0  0  0
 23 27  1  6  0  0  0
 23 28  1  0  0  0  0
 23 26  1  0  0  0  0
 24 22  1  0  0  0  0
 26 22  1  0  0  0  0
 26 25  1  1  0  0  0
 28 24  1  0  0  0  0
M  END
>  <MODEL>
1

>  <REMARK>
 VINA RESULT:      -8.8      0.000      0.000
  Name = 
  4 active torsions:
  status: ('A' for Active; 'I' for Inactive)
    1  A    between atoms: C_1  and  O_2
    2  A    between atoms: O_2  and  C_3
    3  A    between atoms: C_10  and  C_13
    4  A    between atoms: C_14  and  C_25
                            x       y       z     vdW  Elec       q    Type
                         _______ _______ _______ _____ _____    ______ ____

>  <TORSDO>
F 4

$$$$
=
 OpenBabel11052423013D

 28 31  0  0  1  0  0  0  0  0999 V2000
  161.0390  207.2680  151.6890 C   0  0  0  0  0  0  0  0  0  0  0  0
  161.4520  202.5250  152.1220 O   0  0  0  0  0  0  0  0  0  0  0  0
  160.4460  204.5090  149.1560 C   0  0  2  0  0  3  0  0  0  0  0  0
  161.1920  204.8670  151.9680 C   0  0  0  0  0  0  0  0  0  0  0  0
  160.8350  205.7970  149.7330 N   0  0  0  0  0  2  0  0  0  0  0  0
  161.3680  206.2760  153.8720 C   0  0  0  0  0  3  0  0  0  0  0  0
  161.2440  203.5220  151.3760 C   0  0  0  0  0  0  0  0  0  0  0  0
  161.3590  205.0400  153.3080 N   0  0  0  0  0  0  0  0  0  0  0  0
  161.1560  203.3350  149.8750 C   0  0  1  0  0  3  0  0  0  0  0  0
  161.2130  207.4100  153.0740 C   0  0  0  0  0  3  0  0  0  0  0  0
  161.0150  205.9800  151.1380 C   0  0  0  0  0  0  0  0  0  0  0  0
  162.2230  204.3070  147.3680 C   0  0  0  0  0  2  0  0  0  0  0  0
  160.3130  205.7530  147.0550 O   0  0  0  0  0  0  0  0  0  0  0  0
  161.8510  205.5830  145.2450 C   0  0  0  0  0  0  0  0  0  0  0  0
  160.7350  204.5220  147.6490 C   0  0  2  0  0  3  0  0  0  0  0  0
  160.8230  206.2020  145.8300 C   0  0  0  0  0  3  0  0  0  0  0  0
  162.3060  206.0250  144.0490 F   0  0  0  0  0  0  0  0  0  0  0  0
  162.4560  204.3510  145.8590 C   0  0  0  0  0  2  0  0  0  0  0  0
  160.5280  201.9810  149.5200 C   0  0  0  0  0  2  0  0  0  0  0  0
  161.4940  201.0780  148.7660 C   0  0  0  0  0  1  0  0  0  0  0  0
  160.8840  208.3780  150.8460 O   0  0  0  0  0  0  0  0  0  0  0  0
  161.9550  209.1410  150.2850 C   0  0  2  0  0  3  0  0  0  0  0  0
  162.3160  210.6090  148.4630 C   0  0  1  0  0  3  0  0  0  0  0  0
  161.9750  210.4420  150.8100 O   0  0  0  0  0  0  0  0  0  0  0  0
  162.7170  208.2900  148.2010 O   0  0  0  0  0  1  0  0  0  0  0  0
  161.8520  209.2190  148.7780 C   0  0  1  0  0  3  0  0  0  0  0  0
  161.2000  211.3680  147.7710 C   0  0  0  0  0  1  0  0  0  0  0  0
  162.5850  211.2270  149.8190 C   0  0  0  0  0  2  0  0  0  0  0  0
  1 10  1  0  0  0  0
  3  5  1  1  0  0  0
  3  9  1  0  0  0  0
  4  8  2  0  0  0  0
  5 11  1  0  0  0  0
  7  4  1  0  0  0  0
  7  2  2  0  0  0  0
  8  6  1  0  0  0  0
  9 19  1  1  0  0  0
  9  7  1  0  0  0  0
 10  6  2  0  0  0  0
 11  1  2  0  0  0  0
 11  4  1  0  0  0  0
 13 15  1  0  0  0  0
 14 16  2  0  0  0  0
 14 18  1  0  0  0  0
 15 12  1  1  0  0  0
 15  3  1  0  0  0  0
 16 13  1  0  0  0  0
 17 14  1  0  0  0  0
 18 12  1  0  0  0  0
 20 19  1  0  0  0  0
 21  1  1  0  0  0  0
 22 24  1  0  0  0  0
 22 21  1  1  0  0  0
 23 27  1  1  0  0  0
 23 26  1  0  0  0  0
 23 28  1  0  0  0  0
 26 25  1  6  0  0  0
 26 22  1  0  0  0  0
 28 24  1  0  0  0  0
M  END
>  <MODEL>
2

>  <REMARK>
 VINA RESULT:      -8.0      2.087      3.080
  Name = 
  4 active torsions:
  status: ('A' for Active; 'I' for Inactive)
    1  A    between atoms: C_1  and  O_2
    2  A    between atoms: O_2  and  C_3
    3  A    between atoms: C_10  and  C_13
    4  A    between atoms: C_14  and  C_25
                            x       y       z     vdW  Elec       q    Type
                         _______ _______ _______ _____ _____    ______ ____

>  <TORSDO>
F 4

$$$$
=
 OpenBabel11052423013D

 28 31  0  0  1  0  0  0  0  0999 V2000
  161.7280  209.5910  150.9660 C   0  0  0  0  0  0  0  0  0  0  0  0
  161.1000  205.6010  153.5230 O   0  0  0  0  0  0  0  0  0  0  0  0
  161.1240  206.0210  149.8390 C   0  0  2  0  0  3  0  0  0  0  0  0
  161.3440  207.6040  152.2960 C   0  0  0  0  0  0  0  0  0  0  0  0
  161.6360  207.3920  149.8760 N   0  0  0  0  0  2  0  0  0  0  0  0
  161.4080  209.7260  153.3610 C   0  0  0  0  0  3  0  0  0  0  0  0
  161.2480  206.1390  152.3910 C   0  0  0  0  0  0  0  0  0  0  0  0
  161.2690  208.3750  153.4150 N   0  0  0  0  0  0  0  0  0  0  0  0
  161.4290  205.2730  151.1610 C   0  0  1  0  0  3  0  0  0  0  0  0
  161.6440  210.3560  152.1390 C   0  0  0  0  0  3  0  0  0  0  0  0
  161.5620  208.2020  151.0500 C   0  0  0  0  0  0  0  0  0  0  0  0
  161.4560  206.0850  147.3330 C   0  0  0  0  0  2  0  0  0  0  0  0
  161.1530  203.9850  148.4870 O   0  0  0  0  0  0  0  0  0  0  0  0
  161.5580  203.8840  146.1420 C   0  0  0  0  0  0  0  0  0  0  0  0
  161.7070  205.2960  148.6190 C   0  0  2  0  0  3  0  0  0  0  0  0
  161.1720  203.2870  147.2720 C   0  0  0  0  0  3  0  0  0  0  0  0
  161.5890  203.1770  144.9880 F   0  0  0  0  0  0  0  0  0  0  0  0
  162.0350  205.3100  146.1510 C   0  0  0  0  0  2  0  0  0  0  0  0
  160.6300  203.9690  151.2790 C   0  0  0  0  0  2  0  0  0  0  0  0
  161.5080  202.7890  151.6740 C   0  0  0  0  0  1  0  0  0  0  0  0
  161.9680  210.1790  149.7150 O   0  0  0  0  0  0  0  0  0  0  0  0
  162.0340  211.5850  149.4660 C   0  0  2  0  0  3  0  0  0  0  0  0
  161.5250  213.0980  147.7180 C   0  0  1  0  0  3  0  0  0  0  0  0
  160.8300  212.2140  149.8130 O   0  0  0  0  0  0  0  0  0  0  0  0
  163.7010  212.1760  147.8790 O   0  0  0  0  0  1  0  0  0  0  0  0
  162.3460  211.8790  148.0150 C   0  0  1  0  0  3  0  0  0  0  0  0
  160.5440  212.7850  146.6060 C   0  0  0  0  0  1  0  0  0  0  0  0
  160.7690  213.3610  149.0040 C   0  0  0  0  0  2  0  0  0  0  0  0
  1 11  2  0  0  0  0
  1 10  1  0  0  0  0
  3  5  1  1  0  0  0
  3  9  1  0  0  0  0
  4  7  1  0  0  0  0
  4  8  2  0  0  0  0
  5 11  1  0  0  0  0
  6  8  1  0  0  0  0
  7  2  2  0  0  0  0
  9 19  1  1  0  0  0
  9  7  1  0  0  0  0
 10  6  2  0  0  0  0
 11  4  1  0  0  0  0
 13 15  1  0  0  0  0
 14 18  1  0  0  0  0
 14 16  2  0  0  0  0
 15 12  1  6  0  0  0
 15  3  1  0  0  0  0
 16 13  1  0  0  0  0
 17 14  1  0  0  0  0
 18 12  1  0  0  0  0
 19 20  1  0  0  0  0
 21  1  1  0  0  0  0
 22 21  1  6  0  0  0
 22 24  1  0  0  0  0
 23 27  1  6  0  0  0
 23 26  1  0  0  0  0
 23 28  1  0  0  0  0
 26 25  1  1  0  0  0
 26 22  1  0  0  0  0
 28 24  1  0  0  0  0
M  END
>  <MODEL>
3

>  <REMARK>
 VINA RESULT:      -7.9      1.577      1.859
  Name = 
  4 active torsions:
  status: ('A' for Active; 'I' for Inactive)
    1  A    between atoms: C_1  and  O_2
    2  A    between atoms: O_2  and  C_3
    3  A    between atoms: C_10  and  C_13
    4  A    between atoms: C_14  and  C_25
                            x       y       z     vdW  Elec       q    Type
                         _______ _______ _______ _____ _____    ______ ____

>  <TORSDO>
F 4

$$$$
=
 OpenBabel11052423013D

 28 31  0  0  1  0  0  0  0  0999 V2000
  161.5490  205.0180  151.7490 C   0  0  0  0  0  0  0  0  0  0  0  0
  161.3220  209.7700  151.2810 O   0  0  0  0  0  0  0  0  0  0  0  0
  162.3310  207.2330  148.7720 C   0  0  2  0  0  3  0  0  0  0  0  0
  161.4890  207.4320  151.5730 C   0  0  0  0  0  0  0  0  0  0  0  0
  161.8720  206.0900  149.5630 N   0  0  0  0  0  2  0  0  0  0  0  0
  161.1980  206.4100  153.6970 C   0  0  0  0  0  3  0  0  0  0  0  0
  161.5100  208.6450  150.7400 C   0  0  0  0  0  0  0  0  0  0  0  0
  161.2750  207.5190  152.9140 N   0  0  0  0  0  0  0  0  0  0  0  0
  161.6500  208.5450  149.2350 C   0  0  1  0  0  3  0  0  0  0  0  0
  161.3290  205.1430  153.1280 C   0  0  0  0  0  3  0  0  0  0  0  0
  161.6430  206.1790  150.9700 C   0  0  0  0  0  0  0  0  0  0  0  0
  160.6160  206.6230  147.0160 C   0  0  0  0  0  2  0  0  0  0  0  0
  162.9030  205.8690  146.8250 O   0  0  0  0  0  0  0  0  0  0  0  0
  161.4250  205.3060  145.0450 C   0  0  0  0  0  0  0  0  0  0  0  0
  162.0860  206.9490  147.2840 C   0  0  2  0  0  3  0  0  0  0  0  0
  162.5910  205.1370  145.6730 C   0  0  0  0  0  3  0  0  0  0  0  0
  161.1610  204.6020  143.9200 F   0  0  0  0  0  0  0  0  0  0  0  0
  160.4340  206.3280  145.5290 C   0  0  0  0  0  2  0  0  0  0  0  0
  162.3430  209.7860  148.6580 C   0  0  0  0  0  2  0  0  0  0  0  0
  161.3510  210.8690  148.2610 C   0  0  0  0  0  1  0  0  0  0  0  0
  161.6830  203.7650  151.1320 O   0  0  0  0  0  0  0  0  0  0  0  0
  160.6520  203.0920  150.4050 C   0  0  2  0  0  3  0  0  0  0  0  0
  160.4660  201.5170  148.6480 C   0  0  1  0  0  3  0  0  0  0  0  0
  160.3430  201.8580  150.9970 O   0  0  0  0  0  0  0  0  0  0  0  0
  160.4560  203.8330  148.1560 O   0  0  0  0  0  1  0  0  0  0  0  0
  161.0470  202.8620  148.9630 C   0  0  1  0  0  3  0  0  0  0  0  0
  161.5810  200.5650  148.2610 C   0  0  0  0  0  1  0  0  0  0  0  0
  159.8420  201.0650  149.9520 C   0  0  0  0  0  2  0  0  0  0  0  0
  1 10  1  0  0  0  0
  3  9  1  0  0  0  0
  3  5  1  1  0  0  0
  4  8  2  0  0  0  0
  5 11  1  0  0  0  0
  7  2  2  0  0  0  0
  7  4  1  0  0  0  0
  8  6  1  0  0  0  0
  9 19  1  1  0  0  0
  9  7  1  0  0  0  0
 10  6  2  0  0  0  0
 11  4  1  0  0  0  0
 11  1  2  0  0  0  0
 13 15  1  0  0  0  0
 14 18  1  0  0  0  0
 14 16  2  0  0  0  0
 15 12  1  1  0  0  0
 15  3  1  0  0  0  0
 16 13  1  0  0  0  0
 17 14  1  0  0  0  0
 18 12  1  0  0  0  0
 20 19  1  0  0  0  0
 21  1  1  0  0  0  0
 22 24  1  0  0  0  0
 22 21  1  1  0  0  0
 23 27  1  1  0  0  0
 23 26  1  0  0  0  0
 23 28  1  0  0  0  0
 26 25  1  6  0  0  0
 26 22  1  0  0  0  0
 28 24  1  0  0  0  0
M  END
>  <MODEL>
4

>  <REMARK>
 VINA RESULT:      -7.7      2.273      6.510
  Name = 
  4 active torsions:
  status: ('A' for Active; 'I' for Inactive)
    1  A    between atoms: C_1  and  O_2
    2  A    between atoms: O_2  and  C_3
    3  A    between atoms: C_10  and  C_13
    4  A    between atoms: C_14  and  C_25
                            x       y       z     vdW  Elec       q    Type
                         _______ _______ _______ _____ _____    ______ ____

>  <TORSDO>
F 4

$$$$
=
 OpenBabel11052423013D

 28 31  0  0  1  0  0  0  0  0999 V2000
  161.1940  207.7380  152.2650 C   0  0  0  0  0  0  0  0  0  0  0  0
  161.2400  203.0150  151.5320 O   0  0  0  0  0  0  0  0  0  0  0  0
  160.6640  205.7410  149.0860 C   0  0  2  0  0  3  0  0  0  0  0  0
  161.1550  205.3380  151.9470 C   0  0  0  0  0  0  0  0  0  0  0  0
  161.0810  206.8090  149.9940 N   0  0  0  0  0  2  0  0  0  0  0  0
  161.2410  206.2220  154.1500 C   0  0  0  0  0  3  0  0  0  0  0  0
  161.1740  204.1770  151.0440 C   0  0  0  0  0  0  0  0  0  0  0  0
  161.2030  205.1650  153.2960 N   0  0  0  0  0  0  0  0  0  0  0  0
  161.2200  204.3680  149.5420 C   0  0  1  0  0  3  0  0  0  0  0  0
  161.2410  207.5240  153.6500 C   0  0  0  0  0  3  0  0  0  0  0  0
  161.1360  206.6300  151.4090 C   0  0  0  0  0  0  0  0  0  0  0  0
  159.9620  205.8600  146.6590 C   0  0  0  0  0  2  0  0  0  0  0  0
  162.2400  205.3270  147.2630 O   0  0  0  0  0  0  0  0  0  0  0  0
  161.7480  205.5060  144.9400 C   0  0  0  0  0  0  0  0  0  0  0  0
  161.0980  206.0920  147.6560 C   0  0  2  0  0  3  0  0  0  0  0  0
  162.5760  205.1290  145.9180 C   0  0  0  0  0  3  0  0  0  0  0  0
  162.1110  205.3240  143.6480 F   0  0  0  0  0  0  0  0  0  0  0  0
  160.4540  206.2030  145.2540 C   0  0  0  0  0  2  0  0  0  0  0  0
  160.5390  203.2030  148.8130 C   0  0  0  0  0  2  0  0  0  0  0  0
  161.5450  202.2420  148.1960 C   0  0  0  0  0  1  0  0  0  0  0  0
  161.1960  209.0290  151.7150 O   0  0  0  0  0  0  0  0  0  0  0  0
  161.1470  210.2430  152.4680 C   0  0  2  0  0  3  0  0  0  0  0  0
  159.9950  211.1170  154.3430 C   0  0  1  0  0  3  0  0  0  0  0  0
  162.0400  210.2010  153.5490 O   0  0  0  0  0  0  0  0  0  0  0  0
  159.1220  211.4490  152.1660 O   0  0  0  0  0  1  0  0  0  0  0  0
  159.7540  210.5180  152.9890 C   0  0  1  0  0  3  0  0  0  0  0  0
  159.3460  210.2460  155.4010 C   0  0  0  0  0  1  0  0  0  0  0  0
  161.5000  211.0770  154.5050 C   0  0  0  0  0  2  0  0  0  0  0  0
  1 10  1  0  0  0  0
  3  9  1  0  0  0  0
  3  5  1  1  0  0  0
  4  8  2  0  0  0  0
  5 11  1  0  0  0  0
  7  2  2  0  0  0  0
  7  4  1  0  0  0  0
  8  6  1  0  0  0  0
  9 19  1  6  0  0  0
  9  7  1  0  0  0  0
 10  6  2  0  0  0  0
 11  4  1  0  0  0  0
 11  1  2  0  0  0  0
 13 15  1  0  0  0  0
 14 18  1  0  0  0  0
 14 16  2  0  0  0  0
 15 12  1  6  0  0  0
 15  3  1  0  0  0  0
 16 13  1  0  0  0  0
 17 14  1  0  0  0  0
 18 12  1  0  0  0  0
 20 19  1  0  0  0  0
 21  1  1  0  0  0  0
 22 21  1  1  0  0  0
 22 26  1  0  0  0  0
 22 24  1  0  0  0  0
 23 28  1  0  0  0  0
 23 27  1  1  0  0  0
 24 28  1  0  0  0  0
 26 25  1  6  0  0  0
 26 23  1  0  0  0  0
M  END
>  <MODEL>
5

>  <REMARK>
 VINA RESULT:      -7.5      3.458      4.497
  Name = 
  4 active torsions:
  status: ('A' for Active; 'I' for Inactive)
    1  A    between atoms: C_1  and  O_2
    2  A    between atoms: O_2  and  C_3
    3  A    between atoms: C_10  and  C_13
    4  A    between atoms: C_14  and  C_25
                            x       y       z     vdW  Elec       q    Type
                         _______ _______ _______ _____ _____    ______ ____

>  <TORSDO>
F 4

$$$$
=
 OpenBabel11052423013D

 28 31  0  0  1  0  0  0  0  0999 V2000
  161.3140  205.3700  148.7800 C   0  0  0  0  0  0  0  0  0  0  0  0
  160.8310  204.4290  153.4410 O   0  0  0  0  0  0  0  0  0  0  0  0
  162.0510  207.5270  151.8100 C   0  0  2  0  0  3  0  0  0  0  0  0
  161.1220  204.8300  151.1320 C   0  0  0  0  0  0  0  0  0  0  0  0
  161.6360  207.1270  150.4650 N   0  0  0  0  0  2  0  0  0  0  0  0
  160.8310  203.1150  149.5150 C   0  0  0  0  0  3  0  0  0  0  0  0
  161.0970  205.2670  152.5370 C   0  0  0  0  0  0  0  0  0  0  0  0
  160.8660  203.5330  150.8080 N   0  0  0  0  0  0  0  0  0  0  0  0
  161.2840  206.7280  152.8930 C   0  0  1  0  0  3  0  0  0  0  0  0
  161.0490  204.0250  148.4800 C   0  0  0  0  0  3  0  0  0  0  0  0
  161.3630  205.7680  150.1220 C   0  0  0  0  0  0  0  0  0  0  0  0
  160.4330  209.3820  152.3870 C   0  0  0  0  0  2  0  0  0  0  0  0
  162.1810  209.7280  150.7550 O   0  0  0  0  0  0  0  0  0  0  0  0
  160.7970  211.5960  151.2740 C   0  0  0  0  0  0  0  0  0  0  0  0
  161.8640  209.0410  151.9690 C   0  0  2  0  0  3  0  0  0  0  0  0
  161.7060  211.0180  150.4850 C   0  0  0  0  0  3  0  0  0  0  0  0
  160.3750  212.8530  151.0000 F   0  0  0  0  0  0  0  0  0  0  0  0
  160.2970  210.8990  152.5080 C   0  0  0  0  0  2  0  0  0  0  0  0
  161.9220  206.8830  154.2800 C   0  0  0  0  0  2  0  0  0  0  0  0
  160.9220  207.3560  155.3250 C   0  0  0  0  0  1  0  0  0  0  0  0
  161.5350  206.3220  147.7730 O   0  0  0  0  0  0  0  0  0  0  0  0
  161.7500  206.0230  146.3910 C   0  0  2  0  0  3  0  0  0  0  0  0
  161.6450  204.1480  144.9500 C   0  0  1  0  0  3  0  0  0  0  0  0
  160.5580  206.1400  145.6610 O   0  0  0  0  0  0  0  0  0  0  0  0
  163.6880  204.7030  146.0110 O   0  0  0  0  0  1  0  0  0  0  0  0
  162.3100  204.6310  146.2040 C   0  0  1  0  0  3  0  0  0  0  0  0
  160.8310  202.9060  145.2580 C   0  0  0  0  0  1  0  0  0  0  0  0
  160.7170  205.2800  144.5620 C   0  0  0  0  0  2  0  0  0  0  0  0
  1 11  1  0  0  0  0
  3  5  1  6  0  0  0
  3 15  1  0  0  0  0
  3  9  1  0  0  0  0
  4  7  1  0  0  0  0
  6  8  2  0  0  0  0
  7  9  1  0  0  0  0
  7  2  2  0  0  0  0
  8  4  1  0  0  0  0
  9 19  1  1  0  0  0
 10  1  2  0  0  0  0
 10  6  1  0  0  0  0
 11  5  1  0  0  0  0
 11  4  2  0  0  0  0
 12 18  1  0  0  0  0
 13 15  1  0  0  0  0
 14 18  1  0  0  0  0
 15 12  1  6  0  0  0
 16 13  1  0  0  0  0
 16 14  2  0  0  0  0
 17 14  1  0  0  0  0
 19 20  1  0  0  0  0
 21  1  1  0  0  0  0
 22 21  1  1  0  0  0
 23 27  1  1  0  0  0
 23 26  1  0  0  0  0
 24 22  1  0  0  0  0
 26 25  1  6  0  0  0
 26 22  1  0  0  0  0
 28 23  1  0  0  0  0
 28 24  1  0  0  0  0
M  END
>  <MODEL>
6

>  <REMARK>
 VINA RESULT:      -7.3      3.271      6.671
  Name = 
  4 active torsions:
  status: ('A' for Active; 'I' for Inactive)
    1  A    between atoms: C_1  and  O_2
    2  A    between atoms: O_2  and  C_3
    3  A    between atoms: C_10  and  C_13
    4  A    between atoms: C_14  and  C_25
                            x       y       z     vdW  Elec       q    Type
                         _______ _______ _______ _____ _____    ______ ____

>  <TORSDO>
F 4

$$$$
=
 OpenBabel11052423013D

 28 31  0  0  1  0  0  0  0  0999 V2000
  161.1730  206.3930  148.4270 C   0  0  0  0  0  0  0  0  0  0  0  0
  161.0770  207.4530  153.0880 O   0  0  0  0  0  0  0  0  0  0  0  0
  162.2600  209.5330  150.2550 C   0  0  2  0  0  3  0  0  0  0  0  0
  161.1740  206.8660  150.8020 C   0  0  0  0  0  0  0  0  0  0  0  0
  161.7100  208.6550  149.2220 N   0  0  0  0  0  2  0  0  0  0  0  0
  160.6750  204.6690  150.0500 C   0  0  0  0  0  3  0  0  0  0  0  0
  161.2920  207.8340  151.9040 C   0  0  0  0  0  0  0  0  0  0  0  0
  160.8420  205.5700  151.0540 N   0  0  0  0  0  0  0  0  0  0  0  0
  161.5640  209.2960  151.6190 C   0  0  1  0  0  3  0  0  0  0  0  0
  160.8320  205.0650  148.7220 C   0  0  0  0  0  3  0  0  0  0  0  0
  161.3580  207.2960  149.4830 C   0  0  0  0  0  0  0  0  0  0  0  0
  160.8310  211.6190  150.2630 C   0  0  0  0  0  2  0  0  0  0  0  0
  162.2350  211.0890  148.3700 O   0  0  0  0  0  0  0  0  0  0  0  0
  161.0250  213.1380  148.2810 C   0  0  0  0  0  0  0  0  0  0  0  0
  162.1440  210.9920  149.7930 C   0  0  2  0  0  3  0  0  0  0  0  0
  161.7480  212.1980  147.6670 C   0  0  0  0  0  3  0  0  0  0  0  0
  160.5880  214.2110  147.5800 F   0  0  0  0  0  0  0  0  0  0  0  0
  160.7590  213.0590  149.7580 C   0  0  0  0  0  2  0  0  0  0  0  0
  162.3300  209.9530  152.7750 C   0  0  0  0  0  2  0  0  0  0  0  0
  161.4080  210.7020  153.7260 C   0  0  0  0  0  1  0  0  0  0  0  0
  161.3380  206.8390  147.1070 O   0  0  0  0  0  0  0  0  0  0  0  0
  161.6860  206.0090  145.9960 C   0  0  2  0  0  3  0  0  0  0  0  0
  161.7000  203.7070  145.4440 C   0  0  1  0  0  3  0  0  0  0  0  0
  160.5760  205.7840  145.1690 O   0  0  0  0  0  0  0  0  0  0  0  0
  163.6340  204.7040  146.3790 O   0  0  0  0  0  1  0  0  0  0  0  0
  162.2420  204.6780  146.4500 C   0  0  1  0  0  3  0  0  0  0  0  0
  160.8420  202.6770  146.1510 C   0  0  0  0  0  1  0  0  0  0  0  0
  160.8320  204.5560  144.5390 C   0  0  0  0  0  2  0  0  0  0  0  0
  1 10  2  0  0  0  0
  1 11  1  0  0  0  0
  3  5  1  6  0  0  0
  3  9  1  0  0  0  0
  4  8  1  0  0  0  0
  4  7  1  0  0  0  0
  5 11  1  0  0  0  0
  6  8  2  0  0  0  0
  7  2  2  0  0  0  0
  9  7  1  0  0  0  0
  9 19  1  1  0  0  0
 10  6  1  0  0  0  0
 11  4  2  0  0  0  0
 13 15  1  0  0  0  0
 14 18  1  0  0  0  0
 15  3  1  0  0  0  0
 15 12  1  6  0  0  0
 16 14  2  0  0  0  0
 16 13  1  0  0  0  0
 17 14  1  0  0  0  0
 18 12  1  0  0  0  0
 19 20  1  0  0  0  0
 21  1  1  0  0  0  0
 22 26  1  0  0  0  0
 22 21  1  1  0  0  0
 23 27  1  1  0  0  0
 23 26  1  0  0  0  0
 24 22  1  0  0  0  0
 26 25  1  6  0  0  0
 28 24  1  0  0  0  0
 28 23  1  0  0  0  0
M  END
>  <MODEL>
7

>  <REMARK>
 VINA RESULT:      -7.0      2.485      6.550
  Name = 
  4 active torsions:
  status: ('A' for Active; 'I' for Inactive)
    1  A    between atoms: C_1  and  O_2
    2  A    between atoms: O_2  and  C_3
    3  A    between atoms: C_10  and  C_13
    4  A    between atoms: C_14  and  C_25
                            x       y       z     vdW  Elec       q    Type
                         _______ _______ _______ _____ _____    ______ ____

>  <TORSDO>
F 4

$$$$
=
 OpenBabel11052423013D

 28 31  0  0  1  0  0  0  0  0999 V2000
  161.0620  202.7130  148.4410 C   0  0  0  0  0  0  0  0  0  0  0  0
  160.8390  203.5830  153.1360 O   0  0  0  0  0  0  0  0  0  0  0  0
  161.7620  205.8920  150.3860 C   0  0  2  0  0  3  0  0  0  0  0  0
  161.0060  203.0960  150.8310 C   0  0  0  0  0  0  0  0  0  0  0  0
  161.3220  204.9930  149.3190 N   0  0  0  0  0  2  0  0  0  0  0  0
  160.7760  200.8830  149.9980 C   0  0  0  0  0  3  0  0  0  0  0  0
  161.0060  204.0300  151.9680 C   0  0  0  0  0  0  0  0  0  0  0  0
  160.8330  201.7610  151.0350 N   0  0  0  0  0  0  0  0  0  0  0  0
  161.1000  205.5240  151.7370 C   0  0  1  0  0  3  0  0  0  0  0  0
  160.8840  201.3440  148.6860 C   0  0  0  0  0  3  0  0  0  0  0  0
  161.1360  203.5920  149.5300 C   0  0  0  0  0  0  0  0  0  0  0  0
  162.2650  207.7370  148.7310 C   0  0  0  0  0  2  0  0  0  0  0  0
  161.7750  208.2480  151.0410 O   0  0  0  0  0  0  0  0  0  0  0  0
  162.1280  210.0910  149.5750 C   0  0  0  0  0  0  0  0  0  0  0  0
  161.4710  207.3420  149.9770 C   0  0  2  0  0  3  0  0  0  0  0  0
  162.0110  209.6100  150.8150 C   0  0  0  0  0  3  0  0  0  0  0  0
  162.3310  211.4160  149.3880 F   0  0  0  0  0  0  0  0  0  0  0  0
  161.9560  209.1920  148.3830 C   0  0  0  0  0  2  0  0  0  0  0  0
  161.7800  206.2260  152.9190 C   0  0  0  0  0  2  0  0  0  0  0  0
  160.7750  206.8530  153.8740 C   0  0  0  0  0  1  0  0  0  0  0  0
  161.1720  203.2240  147.1380 O   0  0  0  0  0  0  0  0  0  0  0  0
  161.5670  204.5570  146.8090 C   0  0  2  0  0  3  0  0  0  0  0  0
  162.0660  205.8270  144.8740 C   0  0  1  0  0  3  0  0  0  0  0  0
  160.4480  205.3640  146.5530 O   0  0  0  0  0  0  0  0  0  0  0  0
  163.8050  204.7030  146.0240 O   0  0  0  0  0  1  0  0  0  0  0  0
  162.4810  204.5850  145.6040 C   0  0  1  0  0  3  0  0  0  0  0  0
  161.5800  205.4570  143.4870 C   0  0  0  0  0  1  0  0  0  0  0  0
  160.9120  206.3700  145.6890 C   0  0  0  0  0  2  0  0  0  0  0  0
  1 10  2  0  0  0  0
  1 11  1  0  0  0  0
  3  5  1  6  0  0  0
  3  9  1  0  0  0  0
  4  8  1  0  0  0  0
  4  7  1  0  0  0  0
  5 11  1  0  0  0  0
  6  8  2  0  0  0  0
  7  2  2  0  0  0  0
  9  7  1  0  0  0  0
  9 19  1  1  0  0  0
 10  6  1  0  0  0  0
 11  4  2  0  0  0  0
 14 16  2  0  0  0  0
 15 12  1  6  0  0  0
 15  3  1  0  0  0  0
 15 13  1  0  0  0  0
 16 13  1  0  0  0  0
 17 14  1  0  0  0  0
 18 12  1  0  0  0  0
 18 14  1  0  0  0  0
 19 20  1  0  0  0  0
 21  1  1  0  0  0  0
 22 21  1  6  0  0  0
 23 27  1  6  0  0  0
 23 26  1  0  0  0  0
 23 28  1  0  0  0  0
 24 22  1  0  0  0  0
 26 25  1  1  0  0  0
 26 22  1  0  0  0  0
 28 24  1  0  0  0  0
M  END
>  <MODEL>
8

>  <REMARK>
 VINA RESULT:      -7.0      3.262      6.341
  Name = 
  4 active torsions:
  status: ('A' for Active; 'I' for Inactive)
    1  A    between atoms: C_1  and  O_2
    2  A    between atoms: O_2  and  C_3
    3  A    between atoms: C_10  and  C_13
    4  A    between atoms: C_14  and  C_25
                            x       y       z     vdW  Elec       q    Type
                         _______ _______ _______ _____ _____    ______ ____

>  <TORSDO>
F 4

$$$$
=
 OpenBabel11052423013D

 28 31  0  0  1  0  0  0  0  0999 V2000
  161.3870  205.9700  150.6740 C   0  0  0  0  0  0  0  0  0  0  0  0
  160.9120  207.8360  155.0490 O   0  0  0  0  0  0  0  0  0  0  0  0
  162.1410  209.4600  151.9510 C   0  0  2  0  0  3  0  0  0  0  0  0
  161.1990  206.8590  152.9190 C   0  0  0  0  0  0  0  0  0  0  0  0
  161.7210  208.3720  151.0680 N   0  0  0  0  0  2  0  0  0  0  0  0
  160.8960  204.5310  152.5560 C   0  0  0  0  0  3  0  0  0  0  0  0
  161.1790  208.0140  153.8290 C   0  0  0  0  0  0  0  0  0  0  0  0
  160.9370  205.6070  153.3850 N   0  0  0  0  0  0  0  0  0  0  0  0
  161.3740  209.4190  153.2960 C   0  0  1  0  0  3  0  0  0  0  0  0
  161.1150  204.6940  151.1880 C   0  0  0  0  0  3  0  0  0  0  0  0
  161.4410  207.0590  151.5550 C   0  0  0  0  0  0  0  0  0  0  0  0
  160.5240  211.3090  151.3480 C   0  0  0  0  0  2  0  0  0  0  0  0
  162.3070  210.6850  149.8410 O   0  0  0  0  0  0  0  0  0  0  0  0
  160.9250  212.5110  149.1880 C   0  0  0  0  0  0  0  0  0  0  0  0
  161.9610  210.8000  151.2240 C   0  0  2  0  0  3  0  0  0  0  0  0
  161.8460  211.5940  148.8810 C   0  0  0  0  0  3  0  0  0  0  0  0
  160.5170  213.3920  148.2450 F   0  0  0  0  0  0  0  0  0  0  0  0
  160.3960  212.6290  150.5910 C   0  0  0  0  0  2  0  0  0  0  0  0
  162.0160  210.3290  154.3510 C   0  0  0  0  0  2  0  0  0  0  0  0
  160.9990  211.2390  155.0230 C   0  0  0  0  0  1  0  0  0  0  0  0
  161.6100  206.1840  149.3050 O   0  0  0  0  0  0  0  0  0  0  0  0
  161.1170  205.3530  148.2520 C   0  0  2  0  0  3  0  0  0  0  0  0
  161.7930  204.6370  146.0990 C   0  0  1  0  0  3  0  0  0  0  0  0
  161.5810  204.0370  148.3900 O   0  0  0  0  0  0  0  0  0  0  0  0
  160.4560  206.5780  146.3260 O   0  0  0  0  0  1  0  0  0  0  0  0
  161.5210  205.8800  146.8930 C   0  0  1  0  0  3  0  0  0  0  0  0
  163.2370  204.6420  145.6360 C   0  0  0  0  0  1  0  0  0  0  0  0
  161.5810  203.5100  147.0880 C   0  0  0  0  0  2  0  0  0  0  0  0
  1 10  2  0  0  0  0
  1 11  1  0  0  0  0
  3  5  1  6  0  0  0
  3  9  1  0  0  0  0
  4  8  1  0  0  0  0
  4  7  1  0  0  0  0
  5 11  1  0  0  0  0
  6  8  2  0  0  0  0
  7  2  2  0  0  0  0
  9  7  1  0  0  0  0
  9 19  1  1  0  0  0
 10  6  1  0  0  0  0
 11  4  2  0  0  0  0
 13 15  1  0  0  0  0
 14 18  1  0  0  0  0
 15 12  1  6  0  0  0
 15  3  1  0  0  0  0
 16 14  2  0  0  0  0
 16 13  1  0  0  0  0
 17 14  1  0  0  0  0
 18 12  1  0  0  0  0
 19 20  1  0  0  0  0
 21  1  1  0  0  0  0
 22 24  1  0  0  0  0
 22 21  1  1  0  0  0
 23 27  1  1  0  0  0
 23 26  1  0  0  0  0
 23 28  1  0  0  0  0
 26 25  1  6  0  0  0
 26 22  1  0  0  0  0
 28 24  1  0  0  0  0
M  END
>  <MODEL>
9

>  <REMARK>
 VINA RESULT:      -6.9      2.699      6.661
  Name = 
  4 active torsions:
  status: ('A' for Active; 'I' for Inactive)
    1  A    between atoms: C_1  and  O_2
    2  A    between atoms: O_2  and  C_3
    3  A    between atoms: C_10  and  C_13
    4  A    between atoms: C_14  and  C_25
                            x       y       z     vdW  Elec       q    Type
                         _______ _______ _______ _____ _____    ______ ____

>  <TORSDO>
F 4

$$$$
