=
 OpenBabel11052422073D

 25 28  0  0  1  0  0  0  0  0999 V2000
  161.4530  205.6600  149.8680 N   0  0  0  0  0  0  0  0  0  0  0  0
  161.6660  206.6360  150.7930 C   0  0  0  0  0  0  0  0  0  0  0  0
  161.6560  207.1920  148.0640 C   0  0  0  0  0  3  0  0  0  0  0  0
  161.2260  204.3410  149.9800 C   0  0  0  0  0  0  0  0  0  0  0  0
  160.8110  207.3610  154.3750 N   0  0  0  0  0  2  0  0  0  0  0  0
  161.1320  201.5220  149.6480 C   0  0  0  0  0  2  0  0  0  0  0  0
  161.8750  208.1860  148.9720 N   0  0  0  0  0  0  0  0  0  0  0  0
  161.1120  203.8250  148.7090 C   0  0  0  0  0  0  0  0  0  0  0  0
  160.7980  202.3900  148.4250 C   0  0  0  0  0  2  0  0  0  0  0  0
  162.1760  209.0400  151.3100 C   0  0  1  0  0  3  0  0  0  0  0  0
  161.6960  210.3950  150.8190 C   0  0  0  0  0  1  0  0  0  0  0  0
  161.7490  206.3460  152.2650 C   0  0  0  0  0  2  0  0  0  0  0  0
  160.5760  202.1410  150.9390 C   0  0  0  0  0  2  0  0  0  0  0  0
  161.4390  205.9030  148.5420 C   0  0  0  0  0  0  0  0  0  0  0  0
  161.2250  204.8050  147.7830 N   0  0  0  0  0  0  0  0  0  0  0  0
  161.5660  208.7580  152.6130 N   0  0  0  0  0  0  0  0  0  0  0  0
  161.2210  203.5050  151.2250 C   0  0  0  0  0  2  0  0  0  0  0  0
  161.3740  207.5540  153.0750 C   0  0  0  0  0  0  0  0  0  0  0  0
  161.8720  207.9460  150.3200 C   0  0  0  0  0  0  0  0  0  0  0  0
  160.3910  208.4650  155.2300 C   0  0  1  0  0  3  0  0  0  0  0  0
  159.3100  208.0660  156.0180 O   0  0  0  0  0  1  0  0  0  0  0  0
  161.0500  209.5130  157.2600 F   0  0  0  0  0  0  0  0  0  0  0  0
  161.5470  208.9130  156.1170 C   0  0  0  0  0  0  0  0  0  0  0  0
  162.3480  209.8150  155.4400 F   0  0  0  0  0  0  0  0  0  0  0  0
  162.3040  207.8140  156.4800 F   0  0  0  0  0  0  0  0  0  0  0  0
  1  4  1  0  0  0  0
  1  2  1  0  0  0  0
  2 12  1  0  0  0  0
  3 14  1  0  0  0  0
  3  7  2  0  0  0  0
  4 17  1  0  0  0  0
  5 20  1  0  0  0  0
  6 13  1  0  0  0  0
  7 19  1  0  0  0  0
  8  4  2  0  0  0  0
  9  8  1  0  0  0  0
  9  6  1  0  0  0  0
 10 11  1  6  0  0  0
 10 16  1  0  0  0  0
 12 18  1  0  0  0  0
 13 17  1  0  0  0  0
 14  1  1  0  0  0  0
 15 14  2  0  0  0  0
 15  8  1  0  0  0  0
 16 18  2  0  0  0  0
 18  5  1  0  0  0  0
 19  2  2  0  0  0  0
 19 10  1  0  0  0  0
 20 21  1  1  0  0  0
 20 23  1  0  0  0  0
 23 25  1  0  0  0  0
 23 22  1  0  0  0  0
 24 23  1  0  0  0  0
M  END
>  <MODEL>
1

>  <REMARK>
 VINA RESULT:      -9.0      0.000      0.000
  Name = 
  2 active torsions:
  status: ('A' for Active; 'I' for Inactive)
    1  A    between atoms: N_6  and  C_15
    2  A    between atoms: C_7  and  C_15
                            x       y       z     vdW  Elec       q    Type
                         _______ _______ _______ _____ _____    ______ ____

>  <TORSDO>
F 2

$$$$
=
 OpenBabel11052422073D

 25 28  0  0  1  0  0  0  0  0999 V2000
  161.4300  206.0040  149.9500 N   0  0  0  0  0  0  0  0  0  0  0  0
  161.6970  207.1150  150.6920 C   0  0  0  0  0  0  0  0  0  0  0  0
  161.5690  207.2160  147.9110 C   0  0  0  0  0  3  0  0  0  0  0  0
  161.1920  204.7260  150.2870 C   0  0  0  0  0  0  0  0  0  0  0  0
  161.0150  208.4330  154.1400 N   0  0  0  0  0  2  0  0  0  0  0  0
  161.0470  201.8940  150.4270 C   0  0  0  0  0  2  0  0  0  0  0  0
  161.8420  208.3410  148.6330 N   0  0  0  0  0  0  0  0  0  0  0  0
  161.0140  204.0120  149.1240 C   0  0  0  0  0  0  0  0  0  0  0  0
  160.6700  202.5560  149.0930 C   0  0  0  0  0  2  0  0  0  0  0  0
  162.2600  209.5610  150.7850 C   0  0  1  0  0  3  0  0  0  0  0  0
  161.7750  210.8260  150.0980 C   0  0  0  0  0  1  0  0  0  0  0  0
  161.8430  207.0680  152.1870 C   0  0  0  0  0  2  0  0  0  0  0  0
  160.5590  202.7270  151.6220 C   0  0  0  0  0  2  0  0  0  0  0  0
  161.3590  206.0280  148.6040 C   0  0  0  0  0  0  0  0  0  0  0  0
  161.0970  204.8250  148.0460 N   0  0  0  0  0  0  0  0  0  0  0  0
  161.7070  209.5080  152.1410 N   0  0  0  0  0  0  0  0  0  0  0  0
  161.2330  204.1060  151.6510 C   0  0  0  0  0  2  0  0  0  0  0  0
  161.5210  208.4000  152.8030 C   0  0  0  0  0  0  0  0  0  0  0  0
  161.8980  208.3260  150.0020 C   0  0  0  0  0  0  0  0  0  0  0  0
  160.6490  209.6700  154.8190 C   0  0  1  0  0  3  0  0  0  0  0  0
  159.4940  209.4670  155.5770 O   0  0  0  0  0  1  0  0  0  0  0  0
  162.7470  210.7810  154.9550 F   0  0  0  0  0  0  0  0  0  0  0  0
  161.7890  210.1360  155.7170 C   0  0  0  0  0  0  0  0  0  0  0  0
  162.3670  209.0540  156.3560 F   0  0  0  0  0  0  0  0  0  0  0  0
  161.3010  211.0170  156.6630 F   0  0  0  0  0  0  0  0  0  0  0  0
  1  4  1  0  0  0  0
  1  2  1  0  0  0  0
  2 12  1  0  0  0  0
  3 14  1  0  0  0  0
  3  7  2  0  0  0  0
  4 17  1  0  0  0  0
  5 20  1  0  0  0  0
  6 13  1  0  0  0  0
  7 19  1  0  0  0  0
  8  4  2  0  0  0  0
  9  8  1  0  0  0  0
  9  6  1  0  0  0  0
 10 11  1  6  0  0  0
 10 16  1  0  0  0  0
 12 18  1  0  0  0  0
 13 17  1  0  0  0  0
 14  1  1  0  0  0  0
 15 14  2  0  0  0  0
 15  8  1  0  0  0  0
 16 18  2  0  0  0  0
 18  5  1  0  0  0  0
 19  2  2  0  0  0  0
 19 10  1  0  0  0  0
 20 21  1  1  0  0  0
 20 23  1  0  0  0  0
 22 23  1  0  0  0  0
 23 24  1  0  0  0  0
 23 25  1  0  0  0  0
M  END
>  <MODEL>
2

>  <REMARK>
 VINA RESULT:      -8.9      0.883      1.212
  Name = 
  2 active torsions:
  status: ('A' for Active; 'I' for Inactive)
    1  A    between atoms: N_6  and  C_15
    2  A    between atoms: C_7  and  C_15
                            x       y       z     vdW  Elec       q    Type
                         _______ _______ _______ _____ _____    ______ ____

>  <TORSDO>
F 2

$$$$
=
 OpenBabel11052422073D

 25 28  0  0  1  0  0  0  0  0999 V2000
  161.2350  206.4440  151.8820 N   0  0  0  0  0  0  0  0  0  0  0  0
  161.4050  205.7250  150.7380 C   0  0  0  0  0  0  0  0  0  0  0  0
  160.7780  204.4920  153.1550 C   0  0  0  0  0  3  0  0  0  0  0  0
  161.3150  207.7590  152.1450 C   0  0  0  0  0  0  0  0  0  0  0  0
  161.0890  206.2100  147.0290 N   0  0  0  0  0  2  0  0  0  0  0  0
  161.7540  210.3190  153.2920 C   0  0  0  0  0  2  0  0  0  0  0  0
  160.9460  203.7500  152.0230 N   0  0  0  0  0  0  0  0  0  0  0  0
  161.0800  207.9330  153.4890 C   0  0  0  0  0  0  0  0  0  0  0  0
  161.0280  209.2740  154.1520 C   0  0  0  0  0  2  0  0  0  0  0  0
  161.4860  203.4940  149.5870 C   0  0  1  0  0  3  0  0  0  0  0  0
  160.6500  202.2260  149.5910 C   0  0  0  0  0  1  0  0  0  0  0  0
  161.8150  206.3620  149.4400 C   0  0  0  0  0  2  0  0  0  0  0  0
  161.3280  210.2240  151.8190 C   0  0  0  0  0  2  0  0  0  0  0  0
  160.9280  205.8720  153.0630 C   0  0  0  0  0  0  0  0  0  0  0  0
  160.8130  206.7490  154.0860 N   0  0  0  0  0  0  0  0  0  0  0  0
  161.1980  204.2540  148.3670 N   0  0  0  0  0  0  0  0  0  0  0  0
  161.7130  208.8660  151.2150 C   0  0  0  0  0  2  0  0  0  0  0  0
  161.3510  205.5460  148.2680 C   0  0  0  0  0  0  0  0  0  0  0  0
  161.2410  204.3290  150.8170 C   0  0  0  0  0  0  0  0  0  0  0  0
  160.6110  205.5140  145.8410 C   0  0  1  0  0  3  0  0  0  0  0  0
  159.8610  206.3890  145.0520 O   0  0  0  0  0  1  0  0  0  0  0  0
  161.9280  203.6140  145.2880 F   0  0  0  0  0  0  0  0  0  0  0  0
  161.7880  204.9680  145.0420 C   0  0  0  0  0  0  0  0  0  0  0  0
  162.9540  205.6200  145.4000 F   0  0  0  0  0  0  0  0  0  0  0  0
  161.5570  205.1560  143.6920 F   0  0  0  0  0  0  0  0  0  0  0  0
  1  4  1  0  0  0  0
  1 14  1  0  0  0  0
  2 19  2  0  0  0  0
  2  1  1  0  0  0  0
  4  8  2  0  0  0  0
  5 18  1  0  0  0  0
  6  9  1  0  0  0  0
  7  3  2  0  0  0  0
  8 15  1  0  0  0  0
  8  9  1  0  0  0  0
 10 11  1  1  0  0  0
 10 19  1  0  0  0  0
 12  2  1  0  0  0  0
 13  6  1  0  0  0  0
 14  3  1  0  0  0  0
 14 15  2  0  0  0  0
 16 10  1  0  0  0  0
 17 13  1  0  0  0  0
 17  4  1  0  0  0  0
 18 16  2  0  0  0  0
 18 12  1  0  0  0  0
 19  7  1  0  0  0  0
 20 21  1  6  0  0  0
 20  5  1  0  0  0  0
 23 22  1  0  0  0  0
 23 24  1  0  0  0  0
 23 20  1  0  0  0  0
 25 23  1  0  0  0  0
M  END
>  <MODEL>
3

>  <REMARK>
 VINA RESULT:      -8.9      4.916      7.824
  Name = 
  2 active torsions:
  status: ('A' for Active; 'I' for Inactive)
    1  A    between atoms: N_6  and  C_15
    2  A    between atoms: C_7  and  C_15
                            x       y       z     vdW  Elec       q    Type
                         _______ _______ _______ _____ _____    ______ ____

>  <TORSDO>
F 2

$$$$
=
 OpenBabel11052422073D

 25 28  0  0  1  0  0  0  0  0999 V2000
  161.4180  207.9400  150.8810 N   0  0  0  0  0  0  0  0  0  0  0  0
  161.2000  206.8800  150.0530 C   0  0  0  0  0  0  0  0  0  0  0  0
  162.1820  209.3030  149.0920 C   0  0  0  0  0  3  0  0  0  0  0  0
  161.2440  208.1060  152.2020 C   0  0  0  0  0  0  0  0  0  0  0  0
  161.0900  203.1320  150.2380 N   0  0  0  0  0  2  0  0  0  0  0  0
  160.6870  209.0920  154.8060 C   0  0  0  0  0  2  0  0  0  0  0  0
  161.9690  208.2570  148.2430 N   0  0  0  0  0  0  0  0  0  0  0  0
  161.5970  209.4000  152.5110 C   0  0  0  0  0  0  0  0  0  0  0  0
  161.5920  209.9460  153.9040 C   0  0  0  0  0  2  0  0  0  0  0  0
  161.2100  205.9220  147.7310 C   0  0  1  0  0  3  0  0  0  0  0  0
  162.1560  205.9330  146.5430 C   0  0  0  0  0  1  0  0  0  0  0  0
  160.6020  205.5890  150.5370 C   0  0  0  0  0  2  0  0  0  0  0  0
  160.9690  207.5940  154.6190 C   0  0  0  0  0  2  0  0  0  0  0  0
  161.8960  209.1200  150.4410 C   0  0  0  0  0  0  0  0  0  0  0  0
  162.0320  210.0530  151.4100 N   0  0  0  0  0  0  0  0  0  0  0  0
  161.3000  204.6220  148.4030 N   0  0  0  0  0  0  0  0  0  0  0  0
  160.6520  207.1420  153.1860 C   0  0  0  0  0  2  0  0  0  0  0  0
  161.0190  204.4400  149.6640 C   0  0  0  0  0  0  0  0  0  0  0  0
  161.5000  207.0490  148.6880 C   0  0  0  0  0  0  0  0  0  0  0  0
  161.5070  201.9570  149.4840 C   0  0  1  0  0  3  0  0  0  0  0  0
  161.7230  200.8890  150.3580 O   0  0  0  0  0  1  0  0  0  0  0  0
  160.5560  202.4100  147.3520 F   0  0  0  0  0  0  0  0  0  0  0  0
  160.4440  201.5850  148.4570 C   0  0  0  0  0  0  0  0  0  0  0  0
  159.1800  201.7250  149.0040 F   0  0  0  0  0  0  0  0  0  0  0  0
  160.6250  200.2740  148.0580 F   0  0  0  0  0  0  0  0  0  0  0  0
  1  4  1  0  0  0  0
  2 12  1  0  0  0  0
  2  1  1  0  0  0  0
  3 14  1  0  0  0  0
  4  8  2  0  0  0  0
  4 17  1  0  0  0  0
  7 19  1  0  0  0  0
  7  3  2  0  0  0  0
  8  9  1  0  0  0  0
  9  6  1  0  0  0  0
 10 11  1  6  0  0  0
 10 16  1  0  0  0  0
 10 19  1  0  0  0  0
 13  6  1  0  0  0  0
 14  1  1  0  0  0  0
 14 15  2  0  0  0  0
 15  8  1  0  0  0  0
 16 18  2  0  0  0  0
 17 13  1  0  0  0  0
 18  5  1  0  0  0  0
 18 12  1  0  0  0  0
 19  2  2  0  0  0  0
 20  5  1  0  0  0  0
 20 21  1  1  0  0  0
 22 23  1  0  0  0  0
 23 24  1  0  0  0  0
 23 20  1  0  0  0  0
 25 23  1  0  0  0  0
M  END
>  <MODEL>
4

>  <REMARK>
 VINA RESULT:      -8.0      4.397      6.940
  Name = 
  2 active torsions:
  status: ('A' for Active; 'I' for Inactive)
    1  A    between atoms: N_6  and  C_15
    2  A    between atoms: C_7  and  C_15
                            x       y       z     vdW  Elec       q    Type
                         _______ _______ _______ _____ _____    ______ ____

>  <TORSDO>
F 2

$$$$
=
 OpenBabel11052422073D

 25 28  0  0  1  0  0  0  0  0999 V2000
  161.4410  207.9050  152.4390 N   0  0  0  0  0  0  0  0  0  0  0  0
  161.8460  208.3440  151.2150 C   0  0  0  0  0  0  0  0  0  0  0  0
  161.2550  205.6620  151.6790 C   0  0  0  0  0  3  0  0  0  0  0  0
  161.2430  208.5380  153.6070 C   0  0  0  0  0  0  0  0  0  0  0  0
  161.7730  211.5010  149.1840 N   0  0  0  0  0  2  0  0  0  0  0  0
  161.0810  209.2930  156.3390 C   0  0  0  0  0  2  0  0  0  0  0  0
  161.6620  206.0770  150.4450 N   0  0  0  0  0  0  0  0  0  0  0  0
  160.8610  207.5950  154.5340 C   0  0  0  0  0  0  0  0  0  0  0  0
  160.4940  207.9280  155.9460 C   0  0  0  0  0  2  0  0  0  0  0  0
  162.4540  207.8280  148.8330 C   0  0  1  0  0  3  0  0  0  0  0  0
  161.8800  206.9780  147.7130 C   0  0  0  0  0  1  0  0  0  0  0  0
  162.2400  209.7720  150.9610 C   0  0  0  0  0  2  0  0  0  0  0  0
  160.8130  210.3480  155.2550 C   0  0  0  0  0  2  0  0  0  0  0  0
  161.1450  206.6140  152.6880 C   0  0  0  0  0  0  0  0  0  0  0  0
  160.7740  206.3720  153.9650 N   0  0  0  0  0  0  0  0  0  0  0  0
  162.1360  209.2350  148.5780 N   0  0  0  0  0  0  0  0  0  0  0  0
  161.5030  209.9770  153.9350 C   0  0  0  0  0  2  0  0  0  0  0  0
  162.0470  210.1370  149.5170 C   0  0  0  0  0  0  0  0  0  0  0  0
  161.9460  207.3920  150.1820 C   0  0  0  0  0  0  0  0  0  0  0  0
  161.5460  211.9540  147.8180 C   0  0  1  0  0  3  0  0  0  0  0  0
  160.3670  212.7000  147.7590 O   0  0  0  0  0  1  0  0  0  0  0  0
  162.6930  214.0310  147.9590 F   0  0  0  0  0  0  0  0  0  0  0  0
  162.7220  212.7950  147.3390 C   0  0  0  0  0  0  0  0  0  0  0  0
  162.6580  212.9710  145.9680 F   0  0  0  0  0  0  0  0  0  0  0  0
  163.9070  212.1600  147.6610 F   0  0  0  0  0  0  0  0  0  0  0  0
  1 14  1  0  0  0  0
  1  4  1  0  0  0  0
  2  1  1  0  0  0  0
  3 14  1  0  0  0  0
  4 17  1  0  0  0  0
  4  8  2  0  0  0  0
  5 18  1  0  0  0  0
  7  3  2  0  0  0  0
  8  9  1  0  0  0  0
  9  6  1  0  0  0  0
 10 11  1  6  0  0  0
 10 19  1  0  0  0  0
 12  2  1  0  0  0  0
 13  6  1  0  0  0  0
 14 15  2  0  0  0  0
 15  8  1  0  0  0  0
 16 10  1  0  0  0  0
 16 18  2  0  0  0  0
 17 13  1  0  0  0  0
 18 12  1  0  0  0  0
 19  7  1  0  0  0  0
 19  2  2  0  0  0  0
 20 21  1  1  0  0  0
 20  5  1  0  0  0  0
 23 25  1  0  0  0  0
 23 20  1  0  0  0  0
 23 22  1  0  0  0  0
 24 23  1  0  0  0  0
M  END
>  <MODEL>
5

>  <REMARK>
 VINA RESULT:      -8.0      4.306      6.895
  Name = 
  2 active torsions:
  status: ('A' for Active; 'I' for Inactive)
    1  A    between atoms: N_6  and  C_15
    2  A    between atoms: C_7  and  C_15
                            x       y       z     vdW  Elec       q    Type
                         _______ _______ _______ _____ _____    ______ ____

>  <TORSDO>
F 2

$$$$
=
 OpenBabel11052422073D

 25 28  0  0  1  0  0  0  0  0999 V2000
  161.0400  204.4360  148.6850 N   0  0  0  0  0  0  0  0  0  0  0  0
  160.8740  205.2690  149.7500 C   0  0  0  0  0  0  0  0  0  0  0  0
  161.0820  202.5100  150.0750 C   0  0  0  0  0  3  0  0  0  0  0  0
  161.1320  204.6640  147.3640 C   0  0  0  0  0  0  0  0  0  0  0  0
  161.6040  208.8300  150.6870 N   0  0  0  0  0  2  0  0  0  0  0  0
  160.9710  204.5570  144.5310 C   0  0  0  0  0  2  0  0  0  0  0  0
  160.9130  203.3240  151.1570 N   0  0  0  0  0  0  0  0  0  0  0  0
  161.2630  203.4460  146.7370 C   0  0  0  0  0  0  0  0  0  0  0  0
  161.4510  203.2930  145.2610 C   0  0  0  0  0  2  0  0  0  0  0  0
  160.5720  205.5670  152.2250 C   0  0  1  0  0  3  0  0  0  0  0  0
  161.2060  205.0020  153.4850 C   0  0  0  0  0  1  0  0  0  0  0  0
  160.6860  206.7510  149.5920 C   0  0  0  0  0  2  0  0  0  0  0  0
  161.5150  205.8280  145.2010 C   0  0  0  0  0  2  0  0  0  0  0  0
  161.1480  203.0990  148.8160 C   0  0  0  0  0  0  0  0  0  0  0  0
  161.2950  202.4420  147.6440 N   0  0  0  0  0  0  0  0  0  0  0  0
  161.0810  206.9220  151.9970 N   0  0  0  0  0  0  0  0  0  0  0  0
  160.9910  205.9680  146.6380 C   0  0  0  0  0  2  0  0  0  0  0  0
  161.1320  207.4870  150.8230 C   0  0  0  0  0  0  0  0  0  0  0  0
  160.8210  204.6850  151.0300 C   0  0  0  0  0  0  0  0  0  0  0  0
  162.0820  209.6200  151.8150 C   0  0  1  0  0  3  0  0  0  0  0  0
  163.2060  210.3560  151.4310 O   0  0  0  0  0  1  0  0  0  0  0  0
  161.3340  211.0780  153.5370 F   0  0  0  0  0  0  0  0  0  0  0  0
  160.9850  210.5580  152.3040 C   0  0  0  0  0  0  0  0  0  0  0  0
  159.7880  209.8740  152.4190 F   0  0  0  0  0  0  0  0  0  0  0  0
  160.8310  211.5980  151.4060 F   0  0  0  0  0  0  0  0  0  0  0  0
  1 14  1  0  0  0  0
  1  2  1  0  0  0  0
  2 19  2  0  0  0  0
  3  7  2  0  0  0  0
  4  1  1  0  0  0  0
  5 18  1  0  0  0  0
  5 20  1  0  0  0  0
  6 13  1  0  0  0  0
  6  9  1  0  0  0  0
  8  4  2  0  0  0  0
  8 15  1  0  0  0  0
  9  8  1  0  0  0  0
 10 11  1  1  0  0  0
 12  2  1  0  0  0  0
 12 18  1  0  0  0  0
 13 17  1  0  0  0  0
 14  3  1  0  0  0  0
 15 14  2  0  0  0  0
 16 10  1  0  0  0  0
 17  4  1  0  0  0  0
 18 16  2  0  0  0  0
 19  7  1  0  0  0  0
 19 10  1  0  0  0  0
 20 21  1  6  0  0  0
 20 23  1  0  0  0  0
 23 24  1  0  0  0  0
 23 22  1  0  0  0  0
 25 23  1  0  0  0  0
M  END
>  <MODEL>
6

>  <REMARK>
 VINA RESULT:      -7.9      2.628      4.268
  Name = 
  2 active torsions:
  status: ('A' for Active; 'I' for Inactive)
    1  A    between atoms: N_6  and  C_15
    2  A    between atoms: C_7  and  C_15
                            x       y       z     vdW  Elec       q    Type
                         _______ _______ _______ _____ _____    ______ ____

>  <TORSDO>
F 2

$$$$
=
 OpenBabel11052422073D

 25 28  0  0  1  0  0  0  0  0999 V2000
  161.5990  206.5330  149.9850 N   0  0  0  0  0  0  0  0  0  0  0  0
  161.3550  205.7520  148.8960 C   0  0  0  0  0  0  0  0  0  0  0  0
  162.4200  208.3130  148.6430 C   0  0  0  0  0  3  0  0  0  0  0  0
  161.4200  206.3330  151.3010 C   0  0  0  0  0  0  0  0  0  0  0  0
  161.1280  202.1050  148.0370 N   0  0  0  0  0  2  0  0  0  0  0  0
  160.8730  206.5780  154.0770 C   0  0  0  0  0  2  0  0  0  0  0  0
  162.1810  207.5500  147.5370 N   0  0  0  0  0  0  0  0  0  0  0  0
  161.8100  207.4790  151.9560 C   0  0  0  0  0  0  0  0  0  0  0  0
  161.8110  207.6190  153.4460 C   0  0  0  0  0  2  0  0  0  0  0  0
  161.3550  205.4730  146.4000 C   0  0  1  0  0  3  0  0  0  0  0  0
  162.3100  205.7830  145.2600 C   0  0  0  0  0  1  0  0  0  0  0  0
  160.7140  204.3970  149.0050 C   0  0  0  0  0  2  0  0  0  0  0  0
  161.1090  205.1810  153.4820 C   0  0  0  0  0  2  0  0  0  0  0  0
  162.1170  207.7740  149.8890 C   0  0  0  0  0  0  0  0  0  0  0  0
  162.2750  208.3970  151.0780 N   0  0  0  0  0  0  0  0  0  0  0  0
  161.3990  204.0370  146.6860 N   0  0  0  0  0  0  0  0  0  0  0  0
  160.7900  205.1540  151.9800 C   0  0  0  0  0  2  0  0  0  0  0  0
  161.1020  203.5220  147.8470 C   0  0  0  0  0  0  0  0  0  0  0  0
  161.6720  206.2820  147.6310 C   0  0  0  0  0  0  0  0  0  0  0  0
  161.5140  201.1710  146.9860 C   0  0  1  0  0  3  0  0  0  0  0  0
  161.6240  199.8840  147.5170 O   0  0  0  0  0  1  0  0  0  0  0  0
  160.8310  202.1460  144.9290 F   0  0  0  0  0  0  0  0  0  0  0  0
  160.4840  201.1870  145.8630 C   0  0  0  0  0  0  0  0  0  0  0  0
  159.2290  201.4740  146.3680 F   0  0  0  0  0  0  0  0  0  0  0  0
  160.4550  199.9500  145.2460 F   0  0  0  0  0  0  0  0  0  0  0  0
  1  4  1  0  0  0  0
  2 12  1  0  0  0  0
  2  1  1  0  0  0  0
  3 14  1  0  0  0  0
  4  8  2  0  0  0  0
  4 17  1  0  0  0  0
  7 19  1  0  0  0  0
  7  3  2  0  0  0  0
  8  9  1  0  0  0  0
  9  6  1  0  0  0  0
 10 11  1  6  0  0  0
 10 16  1  0  0  0  0
 10 19  1  0  0  0  0
 13  6  1  0  0  0  0
 14  1  1  0  0  0  0
 14 15  2  0  0  0  0
 15  8  1  0  0  0  0
 16 18  2  0  0  0  0
 17 13  1  0  0  0  0
 18  5  1  0  0  0  0
 18 12  1  0  0  0  0
 19  2  2  0  0  0  0
 20 21  1  1  0  0  0
 20  5  1  0  0  0  0
 22 23  1  0  0  0  0
 23 24  1  0  0  0  0
 23 20  1  0  0  0  0
 25 23  1  0  0  0  0
M  END
>  <MODEL>
7

>  <REMARK>
 VINA RESULT:      -7.9      5.359      7.658
  Name = 
  2 active torsions:
  status: ('A' for Active; 'I' for Inactive)
    1  A    between atoms: N_6  and  C_15
    2  A    between atoms: C_7  and  C_15
                            x       y       z     vdW  Elec       q    Type
                         _______ _______ _______ _____ _____    ______ ____

>  <TORSDO>
F 2

$$$$
=
 OpenBabel11052422073D

 25 28  0  0  1  0  0  0  0  0999 V2000
  161.1760  205.8480  151.1350 N   0  0  0  0  0  0  0  0  0  0  0  0
  161.1290  207.2080  151.0940 C   0  0  0  0  0  0  0  0  0  0  0  0
  161.2070  205.8240  153.5110 C   0  0  0  0  0  3  0  0  0  0  0  0
  161.1910  204.9130  150.1700 C   0  0  0  0  0  0  0  0  0  0  0  0
  162.1160  209.9960  148.7830 N   0  0  0  0  0  2  0  0  0  0  0  0
  160.8310  202.5900  148.5780 C   0  0  0  0  0  2  0  0  0  0  0  0
  161.1570  207.1870  153.4950 N   0  0  0  0  0  0  0  0  0  0  0  0
  161.2110  203.6800  150.7810 C   0  0  0  0  0  0  0  0  0  0  0  0
  161.2900  202.3880  150.0310 C   0  0  0  0  0  2  0  0  0  0  0  0
  161.0130  209.3980  152.3190 C   0  0  1  0  0  3  0  0  0  0  0  0
  161.7000  210.0210  153.5220 C   0  0  0  0  0  1  0  0  0  0  0  0
  161.0120  207.9720  149.8050 C   0  0  0  0  0  2  0  0  0  0  0  0
  161.4880  203.8300  147.9530 C   0  0  0  0  0  2  0  0  0  0  0  0
  161.2190  205.1550  152.2910 C   0  0  0  0  0  0  0  0  0  0  0  0
  161.2490  203.8140  152.1270 N   0  0  0  0  0  0  0  0  0  0  0  0
  161.5800  209.9690  151.0940 N   0  0  0  0  0  0  0  0  0  0  0  0
  161.0720  205.1110  148.6890 C   0  0  0  0  0  2  0  0  0  0  0  0
  161.5810  209.3550  149.9440 C   0  0  0  0  0  0  0  0  0  0  0  0
  161.1320  207.8960  152.3230 C   0  0  0  0  0  0  0  0  0  0  0  0
  162.7130  211.3260  148.8150 C   0  0  1  0  0  3  0  0  0  0  0  0
  163.7530  211.3980  147.8860 O   0  0  0  0  0  1  0  0  0  0  0  0
  162.2800  213.5460  148.0840 F   0  0  0  0  0  0  0  0  0  0  0  0
  161.6600  212.3830  148.5060 C   0  0  0  0  0  0  0  0  0  0  0  0
  160.9050  212.6520  149.6330 F   0  0  0  0  0  0  0  0  0  0  0  0
  160.8300  211.9280  147.4980 F   0  0  0  0  0  0  0  0  0  0  0  0
  1 14  1  0  0  0  0
  2  1  1  0  0  0  0
  2 19  2  0  0  0  0
  4  8  2  0  0  0  0
  4  1  1  0  0  0  0
  5 20  1  0  0  0  0
  5 18  1  0  0  0  0
  6  9  1  0  0  0  0
  7  3  2  0  0  0  0
  8 15  1  0  0  0  0
  9  8  1  0  0  0  0
 10 19  1  0  0  0  0
 10 11  1  1  0  0  0
 12 18  1  0  0  0  0
 12  2  1  0  0  0  0
 13  6  1  0  0  0  0
 13 17  1  0  0  0  0
 14  3  1  0  0  0  0
 15 14  2  0  0  0  0
 16 10  1  0  0  0  0
 17  4  1  0  0  0  0
 18 16  2  0  0  0  0
 19  7  1  0  0  0  0
 20 21  1  6  0  0  0
 22 23  1  0  0  0  0
 23 20  1  0  0  0  0
 23 24  1  0  0  0  0
 25 23  1  0  0  0  0
M  END
>  <MODEL>
8

>  <REMARK>
 VINA RESULT:      -7.8      3.659      5.177
  Name = 
  2 active torsions:
  status: ('A' for Active; 'I' for Inactive)
    1  A    between atoms: N_6  and  C_15
    2  A    between atoms: C_7  and  C_15
                            x       y       z     vdW  Elec       q    Type
                         _______ _______ _______ _____ _____    ______ ____

>  <TORSDO>
F 2

$$$$
=
 OpenBabel11052422073D

 25 28  0  0  1  0  0  0  0  0999 V2000
  160.7550  208.3170  153.1690 N   0  0  0  0  0  0  0  0  0  0  0  0
  161.1750  207.4420  152.2140 C   0  0  0  0  0  0  0  0  0  0  0  0
  160.7310  206.6310  154.8420 C   0  0  0  0  0  3  0  0  0  0  0  0
  160.4790  209.6310  153.1340 C   0  0  0  0  0  0  0  0  0  0  0  0
  160.9810  207.0250  148.4890 N   0  0  0  0  0  2  0  0  0  0  0  0
  160.1780  212.4000  153.6860 C   0  0  0  0  0  2  0  0  0  0  0  0
  161.1550  205.7360  153.9040 N   0  0  0  0  0  0  0  0  0  0  0  0
  160.1240  210.0190  154.4050 C   0  0  0  0  0  0  0  0  0  0  0  0
  159.6890  211.4080  154.7530 C   0  0  0  0  0  2  0  0  0  0  0  0
  161.8940  205.1180  151.5880 C   0  0  1  0  0  3  0  0  0  0  0  0
  161.4120  203.7060  151.8690 C   0  0  0  0  0  1  0  0  0  0  0  0
  161.4900  207.8720  150.8100 C   0  0  0  0  0  2  0  0  0  0  0  0
  159.8840  211.8850  152.2690 C   0  0  0  0  0  2  0  0  0  0  0  0
  160.5300  207.9490  154.4460 C   0  0  0  0  0  0  0  0  0  0  0  0
  160.1300  208.9620  155.2480 N   0  0  0  0  0  0  0  0  0  0  0  0
  161.5010  205.4980  150.2280 N   0  0  0  0  0  0  0  0  0  0  0  0
  160.6400  210.5790  151.9840 C   0  0  0  0  0  2  0  0  0  0  0  0
  161.3240  206.7320  149.8460 C   0  0  0  0  0  0  0  0  0  0  0  0
  161.3680  206.1010  152.6010 C   0  0  0  0  0  0  0  0  0  0  0  0
  160.7730  205.9920  147.4820 C   0  0  1  0  0  3  0  0  0  0  0  0
  160.0050  206.5030  146.4340 O   0  0  0  0  0  1  0  0  0  0  0  0
  163.1310  206.2920  147.4440 F   0  0  0  0  0  0  0  0  0  0  0  0
  162.1120  205.4940  146.9540 C   0  0  0  0  0  0  0  0  0  0  0  0
  162.1270  205.5330  145.5710 F   0  0  0  0  0  0  0  0  0  0  0  0
  162.3210  204.1930  147.3750 F   0  0  0  0  0  0  0  0  0  0  0  0
  1 14  1  0  0  0  0
  2 19  2  0  0  0  0
  2  1  1  0  0  0  0
  4  1  1  0  0  0  0
  4  8  2  0  0  0  0
  5 18  1  0  0  0  0
  6  9  1  0  0  0  0
  7  3  2  0  0  0  0
  8  9  1  0  0  0  0
  8 15  1  0  0  0  0
 10 11  1  1  0  0  0
 10 19  1  0  0  0  0
 12  2  1  0  0  0  0
 13  6  1  0  0  0  0
 14  3  1  0  0  0  0
 14 15  2  0  0  0  0
 16 10  1  0  0  0  0
 17 13  1  0  0  0  0
 17  4  1  0  0  0  0
 18 16  2  0  0  0  0
 18 12  1  0  0  0  0
 19  7  1  0  0  0  0
 20 21  1  6  0  0  0
 20  5  1  0  0  0  0
 23 25  1  0  0  0  0
 23 22  1  0  0  0  0
 23 20  1  0  0  0  0
 24 23  1  0  0  0  0
M  END
>  <MODEL>
9

>  <REMARK>
 VINA RESULT:      -7.5      4.245      7.608
  Name = 
  2 active torsions:
  status: ('A' for Active; 'I' for Inactive)
    1  A    between atoms: N_6  and  C_15
    2  A    between atoms: C_7  and  C_15
                            x       y       z     vdW  Elec       q    Type
                         _______ _______ _______ _____ _____    ______ ____

>  <TORSDO>
F 2

$$$$
