=
 OpenBabel11062409533D

 34 39  0  0  1  0  0  0  0  0999 V2000
  162.2640  207.7730  149.3360 C   0  0  1  0  0  3  0  0  0  0  0  0
  160.4680  205.9690  149.7940 C   0  0  1  0  0  3  0  0  0  0  0  0
  161.6460  207.0030  151.7350 C   0  0  2  0  0  3  0  0  0  0  0  0
  162.0300  210.0370  149.6060 C   0  0  1  0  0  0  0  0  0  0  0  0
  162.3430  209.0220  148.6640 O   0  0  0  0  0  0  0  0  0  0  0  0
  161.4870  209.3460  150.8460 C   0  0  2  0  0  3  0  0  0  0  0  0
  162.8760  210.1950  152.6370 O   0  0  0  0  0  1  0  0  0  0  0  0
  161.5560  210.0490  152.1970 C   0  0  2  0  0  3  0  0  0  0  0  0
  163.2010  210.7320  149.9220 O   0  0  0  0  0  1  0  0  0  0  0  0
  161.5690  207.4960  153.1840 C   0  0  0  0  0  2  0  0  0  0  0  0
  162.2430  208.0720  150.8250 C   0  0  2  0  0  3  0  0  0  0  0  0
  160.6030  209.0490  153.3940 S   0  0  0  0  0  0  0  0  0  0  0  0
  161.3130  204.6920  149.7250 C   0  0  0  0  0  2  0  0  0  0  0  0
  161.7120  204.4430  148.2670 C   0  0  2  0  0  3  0  0  0  0  0  0
  161.4850  206.0130  147.3870 P   0  0  2  0  0  0  0  0  0  0  0  0
  160.3100  206.4970  151.2170 C   0  0  0  0  0  2  0  0  0  0  0  0
  162.7810  206.4750  146.7580 O   0  0  0  0  0  0  0  0  0  0  0  0
  161.0210  207.0120  148.8160 C   0  0  2  0  0  3  0  0  0  0  0  0
  161.2980  212.4110  149.3790 N   0  0  0  0  0  0  0  0  0  0  0  0
  160.7660  210.7670  147.5130 C   0  0  0  0  0  2  0  0  0  0  0  0
  161.5080  214.4530  146.3780 C   0  0  1  0  0  3  0  0  0  0  0  0
  160.1240  213.8790  146.0980 C   0  0  0  0  0  2  0  0  0  0  0  0
  160.5740  213.3560  148.5290 C   0  0  0  0  0  2  0  0  0  0  0  0
  161.4800  211.8040  146.6510 C   0  0  0  0  0  2  0  0  0  0  0  0
  161.0330  213.1930  147.0900 C   0  0  2  0  0  0  0  0  0  0  0  0
  160.9790  211.0080  149.0290 C   0  0  1  0  0  3  0  0  0  0  0  0
  160.8440  212.6230  150.6370 O   0  0  0  0  0  1  0  0  0  0  0  0
  162.4250  214.1570  145.2040 C   0  0  0  0  0  2  0  0  0  0  0  0
  161.5260  214.4530  143.6530 S   0  0  0  0  0  1  0  0  0  0  0  0
  160.9590  203.2780  147.6130 C   0  0  0  0  0  3  0  0  0  0  0  0
  160.8070  202.0700  148.5250 C   0  0  0  0  0  1  0  0  0  0  0  0
  161.6500  202.8620  146.3300 C   0  0  0  0  0  1  0  0  0  0  0  0
  160.4540  205.9040  144.8770 C   0  0  0  0  0  2  0  0  0  0  0  0
  160.1690  205.9640  146.1730 C   0  0  0  0  0  3  0  0  0  0  0  0
  1  5  1  6  0  0  0
  1 11  1  0  0  0  0
  2 13  1  1  0  0  0
  2 16  1  0  0  0  0
  3 16  1  6  0  0  0
  3 10  1  0  0  0  0
  4  9  1  1  0  0  0
  4  6  1  0  0  0  0
  5  4  1  0  0  0  0
  6  8  1  0  0  0  0
  8  7  1  0  0  0  0
  8 12  1  0  0  0  0
 10 12  1  0  0  0  0
 11  6  1  0  0  0  0
 11  3  1  0  0  0  0
 14 13  1  0  0  0  0
 15 14  1  0  0  0  0
 15 18  1  0  0  0  0
 17 15  2  0  0  0  0
 18  1  1  0  0  0  0
 18  2  1  0  0  0  0
 19 27  1  0  0  0  0
 20 26  1  0  0  0  0
 21 25  1  0  0  0  0
 22 21  1  0  0  0  0
 22 25  1  0  0  0  0
 23 19  1  0  0  0  0
 24 25  1  0  0  0  0
 24 20  1  0  0  0  0
 25 23  1  0  0  0  0
 26 19  1  0  0  0  0
 26  4  1  0  0  0  0
 28 21  1  0  0  0  0
 29 28  1  0  0  0  0
 30 14  1  0  0  0  0
 30 31  1  0  0  0  0
 32 30  1  0  0  0  0
 33 34  2  0  0  0  0
 34 15  1  0  0  0  0
M  END
>  <MODEL>
1

>  <REMARK>
 VINA RESULT:      -3.5      0.000      0.000
  Name = 
  4 active torsions:
  status: ('A' for Active; 'I' for Inactive)
    1  A    between atoms: C_3  and  C_25
    2  A    between atoms: C_7  and  C_11
    3  A    between atoms: C_8  and  C_30
    4  A    between atoms: P_27  and  C_29
                            x       y       z     vdW  Elec       q    Type
                         _______ _______ _______ _____ _____    ______ ____

>  <TORSDO>
F 4

$$$$
=
 OpenBabel11062409533D

 34 39  0  0  1  0  0  0  0  0999 V2000
  162.2080  207.1950  150.1290 C   0  0  1  0  0  3  0  0  0  0  0  0
  160.3600  205.3850  150.1550 C   0  0  1  0  0  3  0  0  0  0  0  0
  161.3900  206.0730  152.3210 C   0  0  2  0  0  3  0  0  0  0  0  0
  161.9780  209.3940  150.7350 C   0  0  1  0  0  0  0  0  0  0  0  0
  162.3550  208.5320  149.6720 O   0  0  0  0  0  0  0  0  0  0  0  0
  161.3290  208.5290  151.8040 C   0  0  2  0  0  3  0  0  0  0  0  0
  162.5780  209.0540  153.8100 O   0  0  0  0  0  1  0  0  0  0  0  0
  161.2960  209.0110  153.2510 C   0  0  2  0  0  3  0  0  0  0  0  0
  163.1280  210.0030  151.2480 O   0  0  0  0  0  1  0  0  0  0  0  0
  161.2010  206.3350  153.8190 C   0  0  0  0  0  2  0  0  0  0  0  0
  162.0700  207.2570  151.6410 C   0  0  2  0  0  3  0  0  0  0  0  0
  160.2390  207.8570  154.1970 S   0  0  0  0  0  0  0  0  0  0  0  0
  161.1940  204.1140  149.9510 C   0  0  0  0  0  2  0  0  0  0  0  0
  161.7070  204.0880  148.5070 C   0  0  2  0  0  3  0  0  0  0  0  0
  161.5700  205.7820  147.8730 P   0  0  2  0  0  0  0  0  0  0  0  0
  160.0940  205.6860  151.6270 C   0  0  0  0  0  2  0  0  0  0  0  0
  162.9170  206.3050  147.4270 O   0  0  0  0  0  0  0  0  0  0  0  0
  161.0030  206.5550  149.4010 C   0  0  2  0  0  3  0  0  0  0  0  0
  161.1830  211.7480  150.9580 N   0  0  0  0  0  0  0  0  0  0  0  0
  161.0280  210.5970  148.6960 C   0  0  0  0  0  2  0  0  0  0  0  0
  161.7700  214.4520  148.6000 C   0  0  1  0  0  3  0  0  0  0  0  0
  160.4760  213.9520  147.9690 C   0  0  0  0  0  2  0  0  0  0  0  0
  160.5600  212.8640  150.2470 C   0  0  0  0  0  2  0  0  0  0  0  0
  161.8210  211.8150  148.2320 C   0  0  0  0  0  2  0  0  0  0  0  0
  161.2470  213.0550  148.9070 C   0  0  2  0  0  0  0  0  0  0  0  0
  160.9880  210.4680  150.2400 C   0  0  1  0  0  3  0  0  0  0  0  0
  160.5270  211.6490  152.1380 O   0  0  0  0  0  1  0  0  0  0  0  0
  162.8730  214.4520  147.5560 C   0  0  0  0  0  2  0  0  0  0  0  0
  162.1290  214.4500  145.8980 S   0  0  0  0  0  1  0  0  0  0  0  0
  160.9960  203.0590  147.6210 C   0  0  0  0  0  3  0  0  0  0  0  0
  160.8090  201.7080  148.2960 C   0  0  0  0  0  1  0  0  0  0  0  0
  161.7530  202.8750  146.3210 C   0  0  0  0  0  1  0  0  0  0  0  0
  160.7410  206.2100  145.3220 C   0  0  0  0  0  2  0  0  0  0  0  0
  160.3550  205.9540  146.5660 C   0  0  0  0  0  3  0  0  0  0  0  0
  1  5  1  6  0  0  0
  1 11  1  0  0  0  0
  2 13  1  1  0  0  0
  2 16  1  0  0  0  0
  3 16  1  6  0  0  0
  3 10  1  0  0  0  0
  4  9  1  1  0  0  0
  4  6  1  0  0  0  0
  5  4  1  0  0  0  0
  6  8  1  0  0  0  0
  8  7  1  0  0  0  0
  8 12  1  0  0  0  0
 10 12  1  0  0  0  0
 11  6  1  0  0  0  0
 11  3  1  0  0  0  0
 14 13  1  0  0  0  0
 15 14  1  0  0  0  0
 15 18  1  0  0  0  0
 17 15  2  0  0  0  0
 18  1  1  0  0  0  0
 18  2  1  0  0  0  0
 19 27  1  0  0  0  0
 20 26  1  0  0  0  0
 21 25  1  0  0  0  0
 22 21  1  0  0  0  0
 22 25  1  0  0  0  0
 23 19  1  0  0  0  0
 24 20  1  0  0  0  0
 24 25  1  0  0  0  0
 25 23  1  0  0  0  0
 26  4  1  0  0  0  0
 26 19  1  0  0  0  0
 28 21  1  0  0  0  0
 29 28  1  0  0  0  0
 30 31  1  0  0  0  0
 30 14  1  0  0  0  0
 32 30  1  0  0  0  0
 33 34  2  0  0  0  0
 34 15  1  0  0  0  0
M  END
>  <MODEL>
2

>  <REMARK>
 VINA RESULT:      -3.3      1.231      1.352
  Name = 
  4 active torsions:
  status: ('A' for Active; 'I' for Inactive)
    1  A    between atoms: C_3  and  C_25
    2  A    between atoms: C_7  and  C_11
    3  A    between atoms: C_8  and  C_30
    4  A    between atoms: P_27  and  C_29
                            x       y       z     vdW  Elec       q    Type
                         _______ _______ _______ _____ _____    ______ ____

>  <TORSDO>
F 4

$$$$
=
 OpenBabel11062409533D

 34 39  0  0  1  0  0  0  0  0999 V2000
  162.1110  208.0440  153.2380 C   0  0  1  0  0  3  0  0  0  0  0  0
  160.3120  206.1940  153.0560 C   0  0  1  0  0  3  0  0  0  0  0  0
  161.2350  206.7460  155.3060 C   0  0  2  0  0  3  0  0  0  0  0  0
  161.8000  210.1860  153.9910 C   0  0  1  0  0  0  0  0  0  0  0  0
  162.2420  209.4130  152.8850 O   0  0  0  0  0  0  0  0  0  0  0  0
  161.1310  209.2310  154.9660 C   0  0  2  0  0  3  0  0  0  0  0  0
  162.2840  209.6360  157.0560 O   0  0  0  0  0  1  0  0  0  0  0  0
  161.0280  209.6040  156.4410 C   0  0  2  0  0  3  0  0  0  0  0  0
  162.9120  210.7820  154.5940 O   0  0  0  0  0  1  0  0  0  0  0  0
  160.9790  206.8920  156.8110 C   0  0  0  0  0  2  0  0  0  0  0  0
  161.9110  207.9920  154.7430 C   0  0  2  0  0  3  0  0  0  0  0  0
  159.9640  208.3610  157.2560 S   0  0  0  0  0  0  0  0  0  0  0  0
  161.1860  204.9620  152.7950 C   0  0  0  0  0  2  0  0  0  0  0  0
  161.7570  205.0530  151.3760 C   0  0  2  0  0  3  0  0  0  0  0  0
  161.6010  206.7850  150.8600 P   0  0  2  0  0  0  0  0  0  0  0  0
  159.9790  206.3810  154.5320 C   0  0  0  0  0  2  0  0  0  0  0  0
  162.9510  207.3700  150.5110 O   0  0  0  0  0  0  0  0  0  0  0  0
  160.9530  207.4310  152.4150 C   0  0  2  0  0  3  0  0  0  0  0  0
  159.6660  210.6750  152.7960 N   0  0  0  0  0  0  0  0  0  0  0  0
  160.3830  212.1800  154.7150 C   0  0  0  0  0  2  0  0  0  0  0  0
  156.5130  211.6430  154.3260 C   0  0  1  0  0  3  0  0  0  0  0  0
  157.0640  213.0540  154.1600 C   0  0  0  0  0  2  0  0  0  0  0  0
  158.5360  211.6000  152.7110 C   0  0  0  0  0  2  0  0  0  0  0  0
  159.0000  211.8320  155.2580 C   0  0  0  0  0  2  0  0  0  0  0  0
  158.0020  211.8720  154.1060 C   0  0  2  0  0  0  0  0  0  0  0  0
  160.8040  211.2700  153.5330 C   0  0  1  0  0  3  0  0  0  0  0  0
  160.0760  210.4740  151.5210 O   0  0  0  0  0  1  0  0  0  0  0  0
  156.1610  211.4050  155.7840 C   0  0  0  0  0  2  0  0  0  0  0  0
  154.8290  210.1730  155.8860 S   0  0  0  0  0  1  0  0  0  0  0  0
  161.1090  204.0750  150.3880 C   0  0  0  0  0  3  0  0  0  0  0  0
  160.9320  202.6740  150.9550 C   0  0  0  0  0  1  0  0  0  0  0  0
  161.9210  204.0070  149.1100 C   0  0  0  0  0  1  0  0  0  0  0  0
  160.8610  207.0780  148.2630 C   0  0  0  0  0  2  0  0  0  0  0  0
  160.4370  207.0250  149.5200 C   0  0  0  0  0  3  0  0  0  0  0  0
  1  5  1  6  0  0  0
  1 11  1  0  0  0  0
  2 13  1  1  0  0  0
  2 16  1  0  0  0  0
  3 16  1  6  0  0  0
  3 10  1  0  0  0  0
  4  9  1  1  0  0  0
  4  6  1  0  0  0  0
  5  4  1  0  0  0  0
  6  8  1  0  0  0  0
  8  7  1  0  0  0  0
  8 12  1  0  0  0  0
 10 12  1  0  0  0  0
 11  6  1  0  0  0  0
 11  3  1  0  0  0  0
 14 13  1  0  0  0  0
 15 14  1  0  0  0  0
 15 18  1  0  0  0  0
 17 15  2  0  0  0  0
 18  2  1  0  0  0  0
 18  1  1  0  0  0  0
 19 26  1  0  0  0  0
 20 24  1  0  0  0  0
 21 28  1  0  0  0  0
 22 21  1  0  0  0  0
 23 19  1  0  0  0  0
 23 25  1  0  0  0  0
 25 22  1  0  0  0  0
 25 21  1  0  0  0  0
 25 24  1  0  0  0  0
 26  4  1  0  0  0  0
 26 20  1  0  0  0  0
 27 19  1  0  0  0  0
 28 29  1  0  0  0  0
 30 31  1  0  0  0  0
 30 14  1  0  0  0  0
 32 30  1  0  0  0  0
 33 34  2  0  0  0  0
 34 15  1  0  0  0  0
M  END
>  <MODEL>
3

>  <REMARK>
 VINA RESULT:      -3.2      4.415      5.753
  Name = 
  4 active torsions:
  status: ('A' for Active; 'I' for Inactive)
    1  A    between atoms: C_3  and  C_25
    2  A    between atoms: C_7  and  C_11
    3  A    between atoms: C_8  and  C_30
    4  A    between atoms: P_27  and  C_29
                            x       y       z     vdW  Elec       q    Type
                         _______ _______ _______ _____ _____    ______ ____

>  <TORSDO>
F 4

$$$$
=
 OpenBabel11062409533D

 34 39  0  0  1  0  0  0  0  0999 V2000
  158.8190  210.2640  153.9270 C   0  0  1  0  0  3  0  0  0  0  0  0
  159.0990  212.0340  155.7920 C   0  0  1  0  0  3  0  0  0  0  0  0
  159.5920  209.6480  156.3250 C   0  0  2  0  0  3  0  0  0  0  0  0
  160.4960  209.2580  152.7310 C   0  0  1  0  0  0  0  0  0  0  0  0
  159.3160  210.0390  152.6160 O   0  0  0  0  0  0  0  0  0  0  0  0
  160.8670  209.2240  154.2050 C   0  0  2  0  0  3  0  0  0  0  0  0
  161.0460  206.8610  154.7020 O   0  0  0  0  0  1  0  0  0  0  0  0
  161.7260  208.0840  154.7430 C   0  0  2  0  0  3  0  0  0  0  0  0
  160.2220  207.9640  152.2780 O   0  0  0  0  0  1  0  0  0  0  0  0
  160.4540  208.6450  157.1010 C   0  0  0  0  0  2  0  0  0  0  0  0
  159.5330  209.2860  154.8450 C   0  0  2  0  0  3  0  0  0  0  0  0
  162.1740  208.4920  156.4680 S   0  0  0  0  0  0  0  0  0  0  0  0
  157.6830  212.0650  156.3790 C   0  0  0  0  0  2  0  0  0  0  0  0
  156.7460  212.7430  155.3740 C   0  0  2  0  0  3  0  0  0  0  0  0
  157.5880  212.7050  153.7670 P   0  0  2  0  0  0  0  0  0  0  0  0
  160.0290  211.0870  156.5430 C   0  0  0  0  0  2  0  0  0  0  0  0
  156.7560  211.9750  152.7370 O   0  0  0  0  0  0  0  0  0  0  0  0
  159.0300  211.7540  154.2860 C   0  0  2  0  0  3  0  0  0  0  0  0
  161.7870  209.1930  150.5980 N   0  0  0  0  0  0  0  0  0  0  0  0
  161.4870  211.4150  151.7970 C   0  0  0  0  0  2  0  0  0  0  0  0
  161.5720  211.5920  147.8750 C   0  0  1  0  0  3  0  0  0  0  0  0
  162.6680  212.3120  148.6520 C   0  0  0  0  0  2  0  0  0  0  0  0
  162.5650  209.9950  149.6550 C   0  0  0  0  0  2  0  0  0  0  0  0
  160.9310  211.8550  150.4460 C   0  0  0  0  0  2  0  0  0  0  0  0
  161.8130  211.2780  149.3460 C   0  0  2  0  0  0  0  0  0  0  0  0
  161.6410  209.8760  151.9040 C   0  0  1  0  0  3  0  0  0  0  0  0
  162.5120  208.0700  150.8140 O   0  0  0  0  0  1  0  0  0  0  0  0
  160.4030  212.5370  147.6580 C   0  0  0  0  0  2  0  0  0  0  0  0
  159.9330  212.5140  145.9030 S   0  0  0  0  0  1  0  0  0  0  0  0
  156.3170  214.1560  155.7890 C   0  0  0  0  0  3  0  0  0  0  0  0
  156.5640  214.4530  157.2610 C   0  0  0  0  0  1  0  0  0  0  0  0
  154.8520  214.3740  155.4660 C   0  0  0  0  0  1  0  0  0  0  0  0
  158.9580  214.4530  152.2050 C   0  0  0  0  0  2  0  0  0  0  0  0
  158.0580  214.3280  153.1730 C   0  0  0  0  0  3  0  0  0  0  0  0
  1  5  1  6  0  0  0
  1 18  1  0  0  0  0
  1 11  1  0  0  0  0
  2 13  1  1  0  0  0
  2 16  1  0  0  0  0
  3 16  1  6  0  0  0
  3 10  1  0  0  0  0
  4  9  1  6  0  0  0
  4  6  1  0  0  0  0
  5  4  1  0  0  0  0
  6  8  1  0  0  0  0
  6 11  1  0  0  0  0
  7  8  1  0  0  0  0
  8 12  1  0  0  0  0
 11  3  1  0  0  0  0
 12 10  1  0  0  0  0
 14 30  1  0  0  0  0
 14 13  1  0  0  0  0
 15 18  1  0  0  0  0
 15 14  1  0  0  0  0
 17 15  2  0  0  0  0
 18  2  1  0  0  0  0
 19 27  1  0  0  0  0
 19 26  1  0  0  0  0
 20 26  1  0  0  0  0
 21 22  1  0  0  0  0
 21 25  1  0  0  0  0
 22 25  1  0  0  0  0
 23 19  1  0  0  0  0
 24 20  1  0  0  0  0
 25 23  1  0  0  0  0
 25 24  1  0  0  0  0
 26  4  1  0  0  0  0
 28 21  1  0  0  0  0
 29 28  1  0  0  0  0
 30 31  1  0  0  0  0
 32 30  1  0  0  0  0
 33 34  2  0  0  0  0
 34 15  1  0  0  0  0
M  END
>  <MODEL>
4

>  <REMARK>
 VINA RESULT:      -2.2      4.440      7.654
  Name = 
  4 active torsions:
  status: ('A' for Active; 'I' for Inactive)
    1  A    between atoms: C_3  and  C_25
    2  A    between atoms: C_7  and  C_11
    3  A    between atoms: C_8  and  C_30
    4  A    between atoms: P_27  and  C_29
                            x       y       z     vdW  Elec       q    Type
                         _______ _______ _______ _____ _____    ______ ____

>  <TORSDO>
F 4

$$$$
=
 OpenBabel11062409533D

 34 39  0  0  1  0  0  0  0  0999 V2000
  161.9130  208.0280  153.2660 C   0  0  1  0  0  3  0  0  0  0  0  0
  160.4550  205.8940  153.3650 C   0  0  1  0  0  3  0  0  0  0  0  0
  161.2740  206.8820  155.5040 C   0  0  2  0  0  3  0  0  0  0  0  0
  161.2440  210.1670  153.7450 C   0  0  1  0  0  0  0  0  0  0  0  0
  161.8090  209.3420  152.7370 O   0  0  0  0  0  0  0  0  0  0  0  0
  160.7490  209.2490  154.8510 C   0  0  2  0  0  3  0  0  0  0  0  0
  161.8200  210.1110  156.8430 O   0  0  0  0  0  1  0  0  0  0  0  0
  160.5860  209.7880  156.2680 C   0  0  2  0  0  3  0  0  0  0  0  0
  162.2390  211.0150  154.2410 O   0  0  0  0  0  1  0  0  0  0  0  0
  161.0000  207.1780  156.9830 C   0  0  0  0  0  2  0  0  0  0  0  0
  161.7270  208.1400  154.7700 C   0  0  2  0  0  3  0  0  0  0  0  0
  159.7500  208.5000  157.2610 S   0  0  0  0  0  0  0  0  0  0  0  0
  161.5250  204.8030  153.2440 C   0  0  0  0  0  2  0  0  0  0  0  0
  162.0700  204.8040  151.8120 C   0  0  2  0  0  3  0  0  0  0  0  0
  161.6210  206.4030  151.0820 P   0  0  2  0  0  0  0  0  0  0  0  0
  160.0970  206.2130  154.8130 C   0  0  0  0  0  2  0  0  0  0  0  0
  162.8510  207.1560  150.6290 O   0  0  0  0  0  0  0  0  0  0  0  0
  160.8750  207.1270  152.5560 C   0  0  2  0  0  3  0  0  0  0  0  0
  160.2330  212.4350  153.5040 N   0  0  0  0  0  0  0  0  0  0  0  0
  159.8700  210.7150  151.6670 C   0  0  0  0  0  2  0  0  0  0  0  0
  160.1520  214.4470  150.4770 C   0  0  1  0  0  3  0  0  0  0  0  0
  158.8420  213.7090  150.2280 C   0  0  0  0  0  2  0  0  0  0  0  0
  159.3880  213.2750  152.6560 C   0  0  0  0  0  2  0  0  0  0  0  0
  160.4430  211.8170  150.7810 C   0  0  0  0  0  2  0  0  0  0  0  0
  159.8410  213.1490  151.2120 C   0  0  2  0  0  0  0  0  0  0  0  0
  160.0770  210.9990  153.1760 C   0  0  1  0  0  3  0  0  0  0  0  0
  159.7770  212.6090  154.7670 O   0  0  0  0  0  1  0  0  0  0  0  0
  161.0790  214.2450  149.2910 C   0  0  0  0  0  2  0  0  0  0  0  0
  160.1340  214.4460  147.7520 S   0  0  0  0  0  1  0  0  0  0  0  0
  161.5960  203.6110  150.9730 C   0  0  0  0  0  3  0  0  0  0  0  0
  160.0910  203.5900  150.7500 C   0  0  0  0  0  1  0  0  0  0  0  0
  162.0310  202.3110  151.6190 C   0  0  0  0  0  1  0  0  0  0  0  0
  160.8300  205.9630  148.5210 C   0  0  0  0  0  2  0  0  0  0  0  0
  160.4300  206.2670  149.7500 C   0  0  0  0  0  3  0  0  0  0  0  0
  1  5  1  6  0  0  0
  1 11  1  0  0  0  0
  2 13  1  1  0  0  0
  2 16  1  0  0  0  0
  3 16  1  6  0  0  0
  3 10  1  0  0  0  0
  4  9  1  1  0  0  0
  4  6  1  0  0  0  0
  5  4  1  0  0  0  0
  6  8  1  0  0  0  0
  8  7  1  0  0  0  0
  8 12  1  0  0  0  0
 10 12  1  0  0  0  0
 11  6  1  0  0  0  0
 11  3  1  0  0  0  0
 14 13  1  0  0  0  0
 15 14  1  0  0  0  0
 15 18  1  0  0  0  0
 17 15  2  0  0  0  0
 18  1  1  0  0  0  0
 18  2  1  0  0  0  0
 19 27  1  0  0  0  0
 20 26  1  0  0  0  0
 21 25  1  0  0  0  0
 22 21  1  0  0  0  0
 22 25  1  0  0  0  0
 23 19  1  0  0  0  0
 24 25  1  0  0  0  0
 24 20  1  0  0  0  0
 25 23  1  0  0  0  0
 26 19  1  0  0  0  0
 26  4  1  0  0  0  0
 28 21  1  0  0  0  0
 29 28  1  0  0  0  0
 30 32  1  0  0  0  0
 30 14  1  0  0  0  0
 31 30  1  0  0  0  0
 33 34  2  0  0  0  0
 34 15  1  0  0  0  0
M  END
>  <MODEL>
5

>  <REMARK>
 VINA RESULT:      -2.2      2.882      4.040
  Name = 
  4 active torsions:
  status: ('A' for Active; 'I' for Inactive)
    1  A    between atoms: C_3  and  C_25
    2  A    between atoms: C_7  and  C_11
    3  A    between atoms: C_8  and  C_30
    4  A    between atoms: P_27  and  C_29
                            x       y       z     vdW  Elec       q    Type
                         _______ _______ _______ _____ _____    ______ ____

>  <TORSDO>
F 4

$$$$
=
 OpenBabel11062409533D

 34 39  0  0  1  0  0  0  0  0999 V2000
  162.1560  207.9150  153.0350 C   0  0  1  0  0  3  0  0  0  0  0  0
  160.5400  209.9290  153.1890 C   0  0  1  0  0  3  0  0  0  0  0  0
  162.1530  209.8330  151.2890 C   0  0  2  0  0  3  0  0  0  0  0  0
  161.9800  206.1250  151.6140 C   0  0  1  0  0  0  0  0  0  0  0  0
  162.0590  206.4990  152.9820 O   0  0  0  0  0  0  0  0  0  0  0  0
  161.7640  207.3990  150.8130 C   0  0  2  0  0  3  0  0  0  0  0  0
  163.5450  207.3620  149.1750 O   0  0  0  0  0  1  0  0  0  0  0  0
  162.1590  207.4440  149.3410 C   0  0  2  0  0  3  0  0  0  0  0  0
  163.1890  205.5280  151.2430 O   0  0  0  0  0  1  0  0  0  0  0  0
  162.4320  210.1270  149.8100 C   0  0  0  0  0  2  0  0  0  0  0  0
  162.5000  208.3880  151.6330 C   0  0  2  0  0  3  0  0  0  0  0  0
  161.5370  209.0170  148.6460 S   0  0  0  0  0  0  0  0  0  0  0  0
  161.3510  210.8870  154.0710 C   0  0  0  0  0  2  0  0  0  0  0  0
  161.3800  210.3360  155.5000 C   0  0  2  0  0  3  0  0  0  0  0  0
  160.9330  208.5810  155.3930 P   0  0  2  0  0  0  0  0  0  0  0  0
  160.7340  210.1910  151.6990 C   0  0  0  0  0  2  0  0  0  0  0  0
  162.0300  207.7070  155.9570 O   0  0  0  0  0  0  0  0  0  0  0  0
  160.8280  208.4790  153.5950 C   0  0  2  0  0  3  0  0  0  0  0  0
  160.3890  205.1370  149.9670 N   0  0  0  0  0  0  0  0  0  0  0  0
  161.1440  203.7390  151.9510 C   0  0  0  0  0  2  0  0  0  0  0  0
  160.5020  201.7620  148.6190 C   0  0  1  0  0  3  0  0  0  0  0  0
  159.6340  201.4350  149.8280 C   0  0  0  0  0  2  0  0  0  0  0  0
  159.5880  203.9550  149.6490 C   0  0  0  0  0  2  0  0  0  0  0  0
  161.5450  202.7490  150.8620 C   0  0  0  0  0  2  0  0  0  0  0  0
  160.4430  202.7100  149.8100 C   0  0  2  0  0  0  0  0  0  0  0  0
  160.8130  205.1430  151.3850 C   0  0  1  0  0  3  0  0  0  0  0  0
  159.5660  206.1980  149.7910 O   0  0  0  0  0  1  0  0  0  0  0  0
  161.7370  200.8780  148.6290 C   0  0  0  0  0  2  0  0  0  0  0  0
  161.7240  199.8150  147.1550 S   0  0  0  0  0  1  0  0  0  0  0  0
  160.4970  211.1180  156.4790 C   0  0  0  0  0  3  0  0  0  0  0  0
  159.3440  211.8450  155.8020 C   0  0  0  0  0  1  0  0  0  0  0  0
  161.3330  212.1110  157.2610 C   0  0  0  0  0  1  0  0  0  0  0  0
  158.9000  206.9550  156.1690 C   0  0  0  0  0  2  0  0  0  0  0  0
  159.3590  208.2010  156.1600 C   0  0  0  0  0  3  0  0  0  0  0  0
  1  5  1  6  0  0  0
  1 18  1  0  0  0  0
  2 16  1  6  0  0  0
  2 18  1  0  0  0  0
  2 13  1  0  0  0  0
  3 10  1  6  0  0  0
  3 11  1  0  0  0  0
  3 16  1  0  0  0  0
  4  9  1  6  0  0  0
  4  5  1  0  0  0  0
  6  4  1  0  0  0  0
  6 11  1  0  0  0  0
  7  8  1  0  0  0  0
  8  6  1  0  0  0  0
 11  1  1  0  0  0  0
 12  8  1  0  0  0  0
 12 10  1  0  0  0  0
 13 14  1  0  0  0  0
 14 30  1  0  0  0  0
 15 14  1  0  0  0  0
 15 17  2  0  0  0  0
 15 34  1  0  0  0  0
 18 15  1  0  0  0  0
 19 26  1  0  0  0  0
 21 28  1  0  0  0  0
 21 25  1  0  0  0  0
 21 22  1  0  0  0  0
 23 25  1  0  0  0  0
 23 19  1  0  0  0  0
 24 20  1  0  0  0  0
 25 22  1  0  0  0  0
 25 24  1  0  0  0  0
 26  4  1  0  0  0  0
 26 20  1  0  0  0  0
 27 19  1  0  0  0  0
 29 28  1  0  0  0  0
 30 32  1  0  0  0  0
 31 30  1  0  0  0  0
 34 33  2  0  0  0  0
M  END
>  <MODEL>
6

>  <REMARK>
 VINA RESULT:      -1.7      3.890      8.652
  Name = 
  4 active torsions:
  status: ('A' for Active; 'I' for Inactive)
    1  A    between atoms: C_3  and  C_25
    2  A    between atoms: C_7  and  C_11
    3  A    between atoms: C_8  and  C_30
    4  A    between atoms: P_27  and  C_29
                            x       y       z     vdW  Elec       q    Type
                         _______ _______ _______ _____ _____    ______ ____

>  <TORSDO>
F 4

$$$$
=
 OpenBabel11062409533D

 34 39  0  0  1  0  0  0  0  0999 V2000
  162.3310  205.0560  149.1780 C   0  0  1  0  0  3  0  0  0  0  0  0
  160.3260  203.5170  148.6280 C   0  0  1  0  0  3  0  0  0  0  0  0
  161.2510  203.4940  150.9440 C   0  0  2  0  0  3  0  0  0  0  0  0
  162.2630  207.0290  150.3420 C   0  0  1  0  0  0  0  0  0  0  0  0
  162.6360  206.4410  149.1040 O   0  0  0  0  0  0  0  0  0  0  0  0
  161.4580  205.9910  151.1060 C   0  0  2  0  0  3  0  0  0  0  0  0
  162.5970  205.8280  153.2360 O   0  0  0  0  0  1  0  0  0  0  0  0
  161.3620  206.0750  152.6260 C   0  0  2  0  0  3  0  0  0  0  0  0
  163.4230  207.3520  151.0530 O   0  0  0  0  0  1  0  0  0  0  0  0
  160.9760  203.3710  152.4470 C   0  0  0  0  0  2  0  0  0  0  0  0
  162.0870  204.7330  150.6420 C   0  0  2  0  0  3  0  0  0  0  0  0
  160.1350  204.8360  153.1760 S   0  0  0  0  0  0  0  0  0  0  0  0
  161.0510  202.2620  148.1270 C   0  0  0  0  0  2  0  0  0  0  0  0
  161.6650  202.5600  146.7560 C   0  0  2  0  0  3  0  0  0  0  0  0
  161.7340  204.3660  146.5960 P   0  0  2  0  0  0  0  0  0  0  0  0
  159.9800  203.4480  150.1120 C   0  0  0  0  0  2  0  0  0  0  0  0
  163.1530  204.8360  146.3720 O   0  0  0  0  0  0  0  0  0  0  0  0
  161.1290  204.7660  148.2470 C   0  0  2  0  0  3  0  0  0  0  0  0
  161.9470  209.4440  150.8810 N   0  0  0  0  0  0  0  0  0  0  0  0
  161.2420  208.5830  148.5950 C   0  0  0  0  0  2  0  0  0  0  0  0
  162.6390  212.2520  148.6790 C   0  0  1  0  0  3  0  0  0  0  0  0
  161.1960  212.0420  148.2400 C   0  0  0  0  0  2  0  0  0  0  0  0
  161.4320  210.7170  150.3780 C   0  0  0  0  0  2  0  0  0  0  0  0
  162.1600  209.6980  148.1000 C   0  0  0  0  0  2  0  0  0  0  0  0
  161.9290  210.9350  148.9590 C   0  0  2  0  0  0  0  0  0  0  0  0
  161.4170  208.2980  150.1080 C   0  0  1  0  0  3  0  0  0  0  0  0
  161.4730  209.3280  152.1450 O   0  0  0  0  0  1  0  0  0  0  0  0
  163.5510  212.1840  147.4660 C   0  0  0  0  0  2  0  0  0  0  0  0
  162.9480  213.3370  146.1970 S   0  0  0  0  0  1  0  0  0  0  0  0
  160.9290  201.8850  145.5920 C   0  0  0  0  0  3  0  0  0  0  0  0
  159.5400  202.4540  145.3460 C   0  0  0  0  0  1  0  0  0  0  0  0
  160.8310  200.3910  145.8300 C   0  0  0  0  0  1  0  0  0  0  0  0
  160.0820  206.2040  145.4690 C   0  0  0  0  0  2  0  0  0  0  0  0
  160.6420  205.0080  145.3290 C   0  0  0  0  0  3  0  0  0  0  0  0
  1  5  1  1  0  0  0
  1 11  1  0  0  0  0
  2 13  1  1  0  0  0
  2 16  1  0  0  0  0
  3 16  1  6  0  0  0
  3 10  1  0  0  0  0
  4  9  1  1  0  0  0
  4  6  1  0  0  0  0
  5  4  1  0  0  0  0
  6  8  1  0  0  0  0
  8 12  1  0  0  0  0
  8  7  1  0  0  0  0
 10 12  1  0  0  0  0
 11  3  1  0  0  0  0
 11  6  1  0  0  0  0
 14 13  1  0  0  0  0
 15 14  1  0  0  0  0
 15 18  1  0  0  0  0
 17 15  2  0  0  0  0
 18  2  1  0  0  0  0
 18  1  1  0  0  0  0
 19 27  1  0  0  0  0
 20 26  1  0  0  0  0
 21 25  1  0  0  0  0
 22 21  1  0  0  0  0
 22 25  1  0  0  0  0
 23 19  1  0  0  0  0
 24 20  1  0  0  0  0
 24 25  1  0  0  0  0
 25 23  1  0  0  0  0
 26  4  1  0  0  0  0
 26 19  1  0  0  0  0
 28 21  1  0  0  0  0
 29 28  1  0  0  0  0
 30 32  1  0  0  0  0
 30 14  1  0  0  0  0
 31 30  1  0  0  0  0
 34 33  2  0  0  0  0
 34 15  1  0  0  0  0
M  END
>  <MODEL>
7

>  <REMARK>
 VINA RESULT:      -1.5      2.062      3.083
  Name = 
  4 active torsions:
  status: ('A' for Active; 'I' for Inactive)
    1  A    between atoms: C_3  and  C_25
    2  A    between atoms: C_7  and  C_11
    3  A    between atoms: C_8  and  C_30
    4  A    between atoms: P_27  and  C_29
                            x       y       z     vdW  Elec       q    Type
                         _______ _______ _______ _____ _____    ______ ____

>  <TORSDO>
F 4

$$$$
=
 OpenBabel11062409533D

 34 39  0  0  1  0  0  0  0  0999 V2000
  162.0310  208.8160  152.0150 C   0  0  1  0  0  3  0  0  0  0  0  0
  160.2100  210.4510  152.8540 C   0  0  1  0  0  3  0  0  0  0  0  0
  161.7560  211.2070  151.0480 C   0  0  2  0  0  3  0  0  0  0  0  0
  162.0020  207.6230  150.0580 C   0  0  1  0  0  0  0  0  0  0  0  0
  162.0880  207.5050  151.4710 O   0  0  0  0  0  0  0  0  0  0  0  0
  161.6190  209.0620  149.7510 C   0  0  2  0  0  3  0  0  0  0  0  0
  163.3350  209.8010  148.2120 O   0  0  0  0  0  1  0  0  0  0  0  0
  161.9550  209.6610  148.3890 C   0  0  2  0  0  3  0  0  0  0  0  0
  163.2550  207.3350  149.5080 O   0  0  0  0  0  1  0  0  0  0  0  0
  161.9480  212.0260  149.7660 C   0  0  0  0  0  2  0  0  0  0  0  0
  162.2710  209.7830  150.8690 C   0  0  2  0  0  3  0  0  0  0  0  0
  161.1410  211.2940  148.2840 S   0  0  0  0  0  0  0  0  0  0  0  0
  160.9420  211.1290  154.0190 C   0  0  0  0  0  2  0  0  0  0  0  0
  161.0820  210.1240  155.1660 C   0  0  2  0  0  3  0  0  0  0  0  0
  160.8270  208.4760  154.4510 P   0  0  2  0  0  0  0  0  0  0  0  0
  160.3210  211.2340  151.5500 C   0  0  0  0  0  2  0  0  0  0  0  0
  162.0330  207.5930  154.6800 O   0  0  0  0  0  0  0  0  0  0  0  0
  160.6700  208.9940  152.7300 C   0  0  2  0  0  3  0  0  0  0  0  0
  161.4160  206.0090  148.2480 N   0  0  0  0  0  0  0  0  0  0  0  0
  160.4640  205.6560  150.5790 C   0  0  0  0  0  2  0  0  0  0  0  0
  161.2690  202.3900  148.5540 C   0  0  1  0  0  3  0  0  0  0  0  0
  159.8210  202.6540  148.9460 C   0  0  0  0  0  2  0  0  0  0  0  0
  160.6300  204.8190  147.9260 C   0  0  0  0  0  2  0  0  0  0  0  0
  161.0970  204.2760  150.4250 C   0  0  0  0  0  2  0  0  0  0  0  0
  160.8310  203.7750  149.0110 C   0  0  2  0  0  0  0  0  0  0  0  0
  160.9430  206.6540  149.4950 C   0  0  1  0  0  3  0  0  0  0  0  0
  161.1950  206.8830  147.2370 O   0  0  0  0  0  1  0  0  0  0  0  0
  161.9540  201.5950  149.6530 C   0  0  0  0  0  2  0  0  0  0  0  0
  160.7190  200.5780  150.5140 S   0  0  0  0  0  1  0  0  0  0  0  0
  160.1530  210.4110  156.3520 C   0  0  0  0  0  3  0  0  0  0  0  0
  158.7430  210.8000  155.9340 C   0  0  0  0  0  1  0  0  0  0  0  0
  160.7420  211.4990  157.2270 C   0  0  0  0  0  1  0  0  0  0  0  0
  159.3450  206.9510  156.1410 C   0  0  0  0  0  2  0  0  0  0  0  0
  159.3320  207.6750  155.0290 C   0  0  0  0  0  3  0  0  0  0  0  0
  1  5  1  6  0  0  0
  1 18  1  0  0  0  0
  2 16  1  6  0  0  0
  2 13  1  0  0  0  0
  3 10  1  6  0  0  0
  3 16  1  0  0  0  0
  4  9  1  6  0  0  0
  4  5  1  0  0  0  0
  6  4  1  0  0  0  0
  6 11  1  0  0  0  0
  7  8  1  0  0  0  0
  8  6  1  0  0  0  0
 11  3  1  0  0  0  0
 11  1  1  0  0  0  0
 12  8  1  0  0  0  0
 12 10  1  0  0  0  0
 13 14  1  0  0  0  0
 14 30  1  0  0  0  0
 15 17  2  0  0  0  0
 15 34  1  0  0  0  0
 15 14  1  0  0  0  0
 18  2  1  0  0  0  0
 18 15  1  0  0  0  0
 19 26  1  0  0  0  0
 21 22  1  0  0  0  0
 21 25  1  0  0  0  0
 21 28  1  0  0  0  0
 22 25  1  0  0  0  0
 23 19  1  0  0  0  0
 23 25  1  0  0  0  0
 24 20  1  0  0  0  0
 25 24  1  0  0  0  0
 26  4  1  0  0  0  0
 26 20  1  0  0  0  0
 27 19  1  0  0  0  0
 28 29  1  0  0  0  0
 30 32  1  0  0  0  0
 31 30  1  0  0  0  0
 34 33  2  0  0  0  0
M  END
>  <MODEL>
8

>  <REMARK>
 VINA RESULT:      -1.4      3.322      8.116
  Name = 
  4 active torsions:
  status: ('A' for Active; 'I' for Inactive)
    1  A    between atoms: C_3  and  C_25
    2  A    between atoms: C_7  and  C_11
    3  A    between atoms: C_8  and  C_30
    4  A    between atoms: P_27  and  C_29
                            x       y       z     vdW  Elec       q    Type
                         _______ _______ _______ _____ _____    ______ ____

>  <TORSDO>
F 4

$$$$
=
 OpenBabel11062409533D

 34 39  0  0  1  0  0  0  0  0999 V2000
  161.1780  211.5130  152.8410 C   0  0  1  0  0  3  0  0  0  0  0  0
  158.6280  211.9370  152.7690 C   0  0  1  0  0  3  0  0  0  0  0  0
  160.0480  212.8760  150.9460 C   0  0  2  0  0  3  0  0  0  0  0  0
  162.3540  210.0150  151.5650 C   0  0  1  0  0  0  0  0  0  0  0  0
  162.0510  210.3930  152.9000 O   0  0  0  0  0  0  0  0  0  0  0  0
  161.4140  210.7900  150.6560 C   0  0  2  0  0  3  0  0  0  0  0  0
  162.8980  211.8950  149.0950 O   0  0  0  0  0  1  0  0  0  0  0  0
  161.7990  211.0360  149.2010 C   0  0  2  0  0  3  0  0  0  0  0  0
  163.6790  210.3650  151.2900 O   0  0  0  0  0  1  0  0  0  0  0  0
  160.1820  213.2290  149.4610 C   0  0  0  0  0  2  0  0  0  0  0  0
  161.2360  212.0460  151.4200 C   0  0  2  0  0  3  0  0  0  0  0  0
  160.3510  211.7660  148.3570 S   0  0  0  0  0  0  0  0  0  0  0  0
  158.5220  213.2200  153.6010 C   0  0  0  0  0  2  0  0  0  0  0  0
  158.7910  212.8800  155.0700 C   0  0  2  0  0  3  0  0  0  0  0  0
  159.6320  211.2730  155.0890 P   0  0  2  0  0  0  0  0  0  0  0  0
  158.7220  212.2080  151.2710 C   0  0  0  0  0  2  0  0  0  0  0  0
  160.9820  211.3760  155.7640 O   0  0  0  0  0  0  0  0  0  0  0  0
  159.7710  211.0650  153.3020 C   0  0  2  0  0  3  0  0  0  0  0  0
  160.7350  208.1690  151.1230 N   0  0  0  0  0  0  0  0  0  0  0  0
  163.1310  207.9380  150.3040 C   0  0  0  0  0  2  0  0  0  0  0  0
  160.3830  206.3090  148.0190 C   0  0  1  0  0  3  0  0  0  0  0  0
  161.4290  205.3970  148.6480 C   0  0  0  0  0  2  0  0  0  0  0  0
  160.5840  206.8340  150.5470 C   0  0  0  0  0  2  0  0  0  0  0  0
  162.4500  207.7010  148.9590 C   0  0  0  0  0  2  0  0  0  0  0  0
  161.2420  206.7990  149.1780 C   0  0  2  0  0  0  0  0  0  0  0  0
  162.1580  208.4980  151.3720 C   0  0  1  0  0  3  0  0  0  0  0  0
  160.1180  208.1240  152.3280 O   0  0  0  0  0  1  0  0  0  0  0  0
  160.8820  206.7950  146.6700 C   0  0  0  0  0  2  0  0  0  0  0  0
  160.1280  205.7910  145.3560 S   0  0  0  0  0  1  0  0  0  0  0  0
  157.5340  212.9060  155.9480 C   0  0  0  0  0  3  0  0  0  0  0  0
  156.3250  213.5150  155.2520 C   0  0  0  0  0  1  0  0  0  0  0  0
  157.8090  213.6570  157.2350 C   0  0  0  0  0  1  0  0  0  0  0  0
  159.2130  208.8090  156.1510 C   0  0  0  0  0  2  0  0  0  0  0  0
  158.6510  209.9660  155.8230 C   0  0  0  0  0  3  0  0  0  0  0  0
  1  5  1  6  0  0  0
  1 18  1  0  0  0  0
  2 16  1  6  0  0  0
  2 18  1  0  0  0  0
  2 13  1  0  0  0  0
  3 10  1  6  0  0  0
  3 16  1  0  0  0  0
  3 11  1  0  0  0  0
  4  9  1  6  0  0  0
  4  5  1  0  0  0  0
  6 11  1  0  0  0  0
  6  4  1  0  0  0  0
  7  8  1  0  0  0  0
  8  6  1  0  0  0  0
 11  1  1  0  0  0  0
 12  8  1  0  0  0  0
 12 10  1  0  0  0  0
 13 14  1  0  0  0  0
 14 15  1  0  0  0  0
 14 30  1  0  0  0  0
 15 17  2  0  0  0  0
 15 34  1  0  0  0  0
 18 15  1  0  0  0  0
 19 26  1  0  0  0  0
 19 27  1  0  0  0  0
 20 26  1  0  0  0  0
 21 22  1  0  0  0  0
 21 25  1  0  0  0  0
 22 25  1  0  0  0  0
 23 19  1  0  0  0  0
 24 25  1  0  0  0  0
 24 20  1  0  0  0  0
 25 23  1  0  0  0  0
 26  4  1  0  0  0  0
 28 21  1  0  0  0  0
 29 28  1  0  0  0  0
 30 32  1  0  0  0  0
 31 30  1  0  0  0  0
 34 33  2  0  0  0  0
M  END
>  <MODEL>
9

>  <REMARK>
 VINA RESULT:      -1.0      3.937      7.880
  Name = 
  4 active torsions:
  status: ('A' for Active; 'I' for Inactive)
    1  A    between atoms: C_3  and  C_25
    2  A    between atoms: C_7  and  C_11
    3  A    between atoms: C_8  and  C_30
    4  A    between atoms: P_27  and  C_29
                            x       y       z     vdW  Elec       q    Type
                         _______ _______ _______ _____ _____    ______ ____

>  <TORSDO>
F 4

$$$$
