=
 OpenBabel11052422543D

 28 32  0  0  1  0  0  0  0  0999 V2000
  161.1780  210.1590  151.8320 C   0  0  2  0  0  3  0  0  0  0  0  0
  161.8190  206.6290  147.9640 C   0  0  0  0  0  2  0  0  0  0  0  0
  162.3390  206.4220  153.7780 N   0  0  0  0  0  1  0  0  0  0  0  0
  160.8420  204.6270  149.0810 C   0  0  1  0  0  3  0  0  0  0  0  0
  161.6230  206.5380  150.5050 C   0  0  0  0  0  0  0  0  0  0  0  0
  161.6260  204.4920  146.6770 C   0  0  0  0  0  0  0  0  0  0  0  0
  161.8680  205.7650  149.2240 C   0  0  2  0  0  3  0  0  0  0  0  0
  161.4530  204.3210  151.5640 C   0  0  0  0  0  2  0  0  0  0  0  0
  161.2190  203.7210  147.9110 C   0  0  0  0  0  2  0  0  0  0  0  0
  160.6480  207.9180  152.8060 C   0  0  1  0  0  3  0  0  0  0  0  0
  161.4720  208.0470  150.4770 C   0  0  0  0  0  2  0  0  0  0  0  0
  160.6530  203.7950  150.3650 C   0  0  0  0  0  2  0  0  0  0  0  0
  160.6790  209.9130  154.2990 C   0  0  0  0  0  3  0  0  0  0  0  0
  161.1280  206.4730  152.9710 C   0  0  1  0  0  3  0  0  0  0  0  0
  160.4200  208.6100  154.1260 C   0  0  0  0  0  3  0  0  0  0  0  0
  161.8520  203.6130  145.1770 Cl  0  0  0  0  0  0  0  0  0  0  0  0
  161.9690  205.7900  146.7220 C   0  0  0  0  0  3  0  0  0  0  0  0
  161.3880  205.8230  151.6330 C   0  0  0  0  0  0  0  0  0  0  0  0
  161.3200  210.7620  153.2310 C   0  0  0  0  0  2  0  0  0  0  0  0
  161.5800  208.6820  151.8640 C   0  0  1  0  0  3  0  0  0  0  0  0
  162.0630  210.9510  150.8700 C   0  0  0  0  0  2  0  0  0  0  0  0
  161.2990  211.4670  149.6500 C   0  0  2  0  0  3  0  0  0  0  0  0
  161.2710  213.4710  148.3060 N   0  0  0  0  0  0  0  0  0  0  0  0
  162.0140  211.1690  148.3610 C   0  0  0  0  0  2  0  0  0  0  0  0
  159.7640  213.3340  150.2170 C   0  0  0  0  0  1  0  0  0  0  0  0
  161.1310  212.9720  149.6720 C   0  0  1  0  0  3  0  0  0  0  0  0
  162.3740  214.4170  148.3110 C   0  0  0  0  0  1  0  0  0  0  0  0
  161.6780  212.3440  147.4680 C   0  0  0  0  0  2  0  0  0  0  0  0
  1 21  1  6  0  0  0
  1 20  1  0  0  0  0
  1 19  1  0  0  0  0
  4  9  1  6  0  0  0
  4  7  1  0  0  0  0
  4 12  1  0  0  0  0
  5 18  2  0  0  0  0
  6 17  2  0  0  0  0
  6  9  1  0  0  0  0
  7  2  1  6  0  0  0
  7  5  1  0  0  0  0
  8 18  1  0  0  0  0
 10 14  1  0  0  0  0
 10 15  1  1  0  0  0
 11  5  1  0  0  0  0
 12  8  1  0  0  0  0
 14  3  1  1  0  0  0
 15 13  2  0  0  0  0
 16  6  1  0  0  0  0
 17  2  1  0  0  0  0
 18 14  1  0  0  0  0
 19 13  1  0  0  0  0
 20 11  1  6  0  0  0
 20 10  1  0  0  0  0
 22 26  1  0  0  0  0
 22 21  1  1  0  0  0
 23 27  1  0  0  0  0
 23 26  1  0  0  0  0
 24 22  1  0  0  0  0
 26 25  1  6  0  0  0
 28 23  1  0  0  0  0
 28 24  1  0  0  0  0
M  END
>  <MODEL>
1

>  <REMARK>
 VINA RESULT:      -8.8      0.000      0.000
  Name = 
  2 active torsions:
  status: ('A' for Active; 'I' for Inactive)
    1  A    between atoms: C_1  and  C_2
    2  A    between atoms: C_2  and  C_3
                            x       y       z     vdW  Elec       q    Type
                         _______ _______ _______ _____ _____    ______ ____

>  <TORSDO>
F 2

$$$$
=
 OpenBabel11052422543D

 28 32  0  0  1  0  0  0  0  0999 V2000
  159.8670  210.9090  153.2580 C   0  0  2  0  0  3  0  0  0  0  0  0
  161.0280  207.3270  149.5640 C   0  0  0  0  0  2  0  0  0  0  0  0
  162.0300  207.7100  155.3050 N   0  0  0  0  0  1  0  0  0  0  0  0
  160.6440  205.2480  150.8850 C   0  0  1  0  0  3  0  0  0  0  0  0
  161.0560  207.3960  152.1130 C   0  0  0  0  0  0  0  0  0  0  0  0
  161.2500  205.1070  148.4300 C   0  0  0  0  0  0  0  0  0  0  0  0
  161.3780  206.6010  150.8630 C   0  0  2  0  0  3  0  0  0  0  0  0
  161.5000  205.2910  153.3130 C   0  0  0  0  0  2  0  0  0  0  0  0
  161.1340  204.3640  149.7410 C   0  0  0  0  0  2  0  0  0  0  0  0
  159.9620  208.6910  154.4090 C   0  0  1  0  0  3  0  0  0  0  0  0
  160.5490  208.8210  152.0100 C   0  0  0  0  0  2  0  0  0  0  0  0
  160.7580  204.5000  152.2280 C   0  0  0  0  0  2  0  0  0  0  0  0
  159.6330  210.7520  155.7720 C   0  0  0  0  0  3  0  0  0  0  0  0
  160.7830  207.4150  154.6150 C   0  0  1  0  0  3  0  0  0  0  0  0
  159.6790  209.4140  155.7010 C   0  0  0  0  0  3  0  0  0  0  0  0
  161.5620  204.1870  146.9700 Cl  0  0  0  0  0  0  0  0  0  0  0  0
  161.2770  206.4490  148.3650 C   0  0  0  0  0  3  0  0  0  0  0  0
  161.0860  206.7380  153.2990 C   0  0  0  0  0  0  0  0  0  0  0  0
  159.9700  211.6380  154.6000 C   0  0  0  0  0  2  0  0  0  0  0  0
  160.6100  209.5730  153.3400 C   0  0  1  0  0  3  0  0  0  0  0  0
  160.4620  211.8050  152.1720 C   0  0  0  0  0  2  0  0  0  0  0  0
  159.6510  213.0800  151.9450 C   0  0  2  0  0  3  0  0  0  0  0  0
  158.1690  213.9500  150.2510 N   0  0  0  0  0  0  0  0  0  0  0  0
  158.2420  212.9590  152.4570 C   0  0  0  0  0  2  0  0  0  0  0  0
  160.5480  214.4530  150.0810 C   0  0  0  0  0  1  0  0  0  0  0  0
  159.5110  213.4200  150.4760 C   0  0  1  0  0  3  0  0  0  0  0  0
  157.5330  213.0880  149.2690 C   0  0  0  0  0  1  0  0  0  0  0  0
  157.4240  213.7990  151.4990 C   0  0  0  0  0  2  0  0  0  0  0  0
  1 21  1  6  0  0  0
  1 20  1  0  0  0  0
  1 19  1  0  0  0  0
  4  9  1  6  0  0  0
  4 12  1  0  0  0  0
  5 18  2  0  0  0  0
  6  9  1  0  0  0  0
  7  2  1  6  0  0  0
  7  4  1  0  0  0  0
  7  5  1  0  0  0  0
 10 14  1  0  0  0  0
 10 15  1  1  0  0  0
 11  5  1  0  0  0  0
 12  8  1  0  0  0  0
 14  3  1  6  0  0  0
 15 13  2  0  0  0  0
 16  6  1  0  0  0  0
 17  6  2  0  0  0  0
 17  2  1  0  0  0  0
 18  8  1  0  0  0  0
 18 14  1  0  0  0  0
 19 13  1  0  0  0  0
 20 11  1  6  0  0  0
 20 10  1  0  0  0  0
 22 21  1  6  0  0  0
 22 24  1  0  0  0  0
 23 26  1  0  0  0  0
 23 28  1  0  0  0  0
 26 25  1  1  0  0  0
 26 22  1  0  0  0  0
 27 23  1  0  0  0  0
 28 24  1  0  0  0  0
M  END
>  <MODEL>
2

>  <REMARK>
 VINA RESULT:      -8.1      1.848      2.724
  Name = 
  2 active torsions:
  status: ('A' for Active; 'I' for Inactive)
    1  A    between atoms: C_1  and  C_2
    2  A    between atoms: C_2  and  C_3
                            x       y       z     vdW  Elec       q    Type
                         _______ _______ _______ _____ _____    ______ ____

>  <TORSDO>
F 2

$$$$
=
 OpenBabel11052422543D

 28 32  0  0  1  0  0  0  0  0999 V2000
  161.0970  202.1450  146.3430 C   0  0  2  0  0  3  0  0  0  0  0  0
  160.8150  206.3500  149.5160 C   0  0  0  0  0  2  0  0  0  0  0  0
  159.6590  200.6660  150.1970 N   0  0  0  0  0  1  0  0  0  0  0  0
  161.6250  205.3120  151.6320 C   0  0  1  0  0  3  0  0  0  0  0  0
  160.7300  203.8210  149.8260 C   0  0  0  0  0  0  0  0  0  0  0  0
  161.1060  207.7890  151.5430 C   0  0  0  0  0  0  0  0  0  0  0  0
  160.6120  205.1830  150.4810 C   0  0  2  0  0  3  0  0  0  0  0  0
  160.7410  202.9450  152.1280 C   0  0  0  0  0  2  0  0  0  0  0  0
  161.3610  206.5900  152.4260 C   0  0  0  0  0  2  0  0  0  0  0  0
  161.4750  201.3180  148.6730 C   0  0  1  0  0  3  0  0  0  0  0  0
  160.9120  203.7010  148.3250 C   0  0  0  0  0  2  0  0  0  0  0  0
  161.6570  204.0930  152.5740 C   0  0  0  0  0  2  0  0  0  0  0  0
  161.3190  199.6690  146.8100 C   0  0  0  0  0  3  0  0  0  0  0  0
  160.9520  201.3300  150.1120 C   0  0  1  0  0  3  0  0  0  0  0  0
  161.5700  199.9260  148.1010 C   0  0  0  0  0  3  0  0  0  0  0  0
  161.0290  209.3760  152.2850 Cl  0  0  0  0  0  0  0  0  0  0  0  0
  160.7850  207.6690  150.2430 C   0  0  0  0  0  3  0  0  0  0  0  0
  160.8260  202.7400  150.6400 C   0  0  0  0  0  0  0  0  0  0  0  0
  160.8150  200.7220  145.8570 C   0  0  0  0  0  2  0  0  0  0  0  0
  160.6660  202.2840  147.8060 C   0  0  1  0  0  3  0  0  0  0  0  0
  160.3380  203.1240  145.4490 C   0  0  0  0  0  2  0  0  0  0  0  0
  161.2180  204.2670  144.9410 C   0  0  2  0  0  3  0  0  0  0  0  0
  162.3040  206.2070  145.8780 N   0  0  0  0  0  0  0  0  0  0  0  0
  162.6840  203.9590  145.0690 C   0  0  0  0  0  2  0  0  0  0  0  0
  160.0470  206.4560  144.9910 C   0  0  0  0  0  1  0  0  0  0  0  0
  161.0110  205.5450  145.7270 C   0  0  1  0  0  3  0  0  0  0  0  0
  162.5480  206.3380  147.3050 C   0  0  0  0  0  1  0  0  0  0  0  0
  163.3240  205.3000  145.3530 C   0  0  0  0  0  2  0  0  0  0  0  0
  1 21  1  6  0  0  0
  1 20  1  0  0  0  0
  2 17  1  0  0  0  0
  4  9  1  1  0  0  0
  4 12  1  0  0  0  0
  5  7  1  0  0  0  0
  5 18  2  0  0  0  0
  6 16  1  0  0  0  0
  6  9  1  0  0  0  0
  7  2  1  6  0  0  0
  7  4  1  0  0  0  0
  8 12  1  0  0  0  0
 10 15  1  6  0  0  0
 10 14  1  0  0  0  0
 11  5  1  0  0  0  0
 13 15  2  0  0  0  0
 14  3  1  6  0  0  0
 14 18  1  0  0  0  0
 17  6  2  0  0  0  0
 18  8  1  0  0  0  0
 19  1  1  0  0  0  0
 19 13  1  0  0  0  0
 20 11  1  1  0  0  0
 20 10  1  0  0  0  0
 22 24  1  0  0  0  0
 22 21  1  1  0  0  0
 22 26  1  0  0  0  0
 23 27  1  0  0  0  0
 24 28  1  0  0  0  0
 26 25  1  6  0  0  0
 26 23  1  0  0  0  0
 28 23  1  0  0  0  0
M  END
>  <MODEL>
3

>  <REMARK>
 VINA RESULT:      -7.4      3.951      7.374
  Name = 
  2 active torsions:
  status: ('A' for Active; 'I' for Inactive)
    1  A    between atoms: C_1  and  C_2
    2  A    between atoms: C_2  and  C_3
                            x       y       z     vdW  Elec       q    Type
                         _______ _______ _______ _____ _____    ______ ____

>  <TORSDO>
F 2

$$$$
=
 OpenBabel11052422543D

 28 32  0  0  1  0  0  0  0  0999 V2000
  160.2670  209.6990  153.6540 C   0  0  2  0  0  3  0  0  0  0  0  0
  161.2510  207.6990  148.8720 C   0  0  0  0  0  2  0  0  0  0  0  0
  162.3910  205.9380  154.3230 N   0  0  0  0  0  1  0  0  0  0  0  0
  160.8430  205.2880  149.3530 C   0  0  1  0  0  3  0  0  0  0  0  0
  161.3380  206.8300  151.2680 C   0  0  0  0  0  0  0  0  0  0  0  0
  161.3910  206.0460  147.0000 C   0  0  0  0  0  0  0  0  0  0  0  0
  161.6120  206.5430  149.8050 C   0  0  2  0  0  3  0  0  0  0  0  0
  161.7530  204.4260  151.6020 C   0  0  0  0  0  2  0  0  0  0  0  0
  161.2840  204.8760  147.9500 C   0  0  0  0  0  2  0  0  0  0  0  0
  160.3290  207.2120  153.9100 C   0  0  1  0  0  3  0  0  0  0  0  0
  160.8670  208.2020  151.7080 C   0  0  0  0  0  2  0  0  0  0  0  0
  160.9670  204.0990  150.3250 C   0  0  0  0  0  2  0  0  0  0  0  0
  160.0850  208.6360  155.9420 C   0  0  0  0  0  3  0  0  0  0  0  0
  161.1210  205.9360  153.6100 C   0  0  1  0  0  3  0  0  0  0  0  0
  160.0940  207.4170  155.3860 C   0  0  0  0  0  3  0  0  0  0  0  0
  161.6450  205.7200  145.2960 Cl  0  0  0  0  0  0  0  0  0  0  0  0
  161.4510  207.3180  147.4290 C   0  0  0  0  0  3  0  0  0  0  0  0
  161.3770  205.7830  152.1300 C   0  0  0  0  0  0  0  0  0  0  0  0
  160.4180  209.8840  155.1650 C   0  0  0  0  0  2  0  0  0  0  0  0
  160.9770  208.4140  153.2190 C   0  0  1  0  0  3  0  0  0  0  0  0
  160.8610  210.9200  152.9520 C   0  0  0  0  0  2  0  0  0  0  0  0
  160.0640  212.1990  153.2120 C   0  0  2  0  0  3  0  0  0  0  0  0
  157.7940  212.7740  153.7920 N   0  0  0  0  0  0  0  0  0  0  0  0
  160.0390  212.5700  154.6690 C   0  0  0  0  0  2  0  0  0  0  0  0
  158.3920  212.6490  151.4330 C   0  0  0  0  0  1  0  0  0  0  0  0
  158.6100  212.0610  152.8130 C   0  0  1  0  0  3  0  0  0  0  0  0
  156.8770  211.8040  154.3670 C   0  0  0  0  0  1  0  0  0  0  0  0
  158.6830  213.2100  154.8680 C   0  0  0  0  0  2  0  0  0  0  0  0
  1 21  1  6  0  0  0
  1 19  1  0  0  0  0
  4  9  1  6  0  0  0
  4  7  1  0  0  0  0
  4 12  1  0  0  0  0
  5 11  1  0  0  0  0
  5 18  2  0  0  0  0
  6 17  2  0  0  0  0
  6  9  1  0  0  0  0
  7  2  1  6  0  0  0
  7  5  1  0  0  0  0
  8 18  1  0  0  0  0
 10 15  1  1  0  0  0
 12  8  1  0  0  0  0
 14 10  1  0  0  0  0
 14  3  1  1  0  0  0
 15 13  2  0  0  0  0
 16  6  1  0  0  0  0
 17  2  1  0  0  0  0
 18 14  1  0  0  0  0
 19 13  1  0  0  0  0
 20 11  1  6  0  0  0
 20  1  1  0  0  0  0
 20 10  1  0  0  0  0
 22 21  1  1  0  0  0
 22 24  1  0  0  0  0
 23 27  1  0  0  0  0
 23 28  1  0  0  0  0
 24 28  1  0  0  0  0
 26 25  1  6  0  0  0
 26 22  1  0  0  0  0
 26 23  1  0  0  0  0
M  END
>  <MODEL>
4

>  <REMARK>
 VINA RESULT:      -7.3      2.389      3.323
  Name = 
  2 active torsions:
  status: ('A' for Active; 'I' for Inactive)
    1  A    between atoms: C_1  and  C_2
    2  A    between atoms: C_2  and  C_3
                            x       y       z     vdW  Elec       q    Type
                         _______ _______ _______ _____ _____    ______ ____

>  <TORSDO>
F 2

$$$$
=
 OpenBabel11052422543D

 28 32  0  0  1  0  0  0  0  0999 V2000
  161.2990  203.4350  149.4560 C   0  0  2  0  0  3  0  0  0  0  0  0
  161.5700  208.6590  148.7690 C   0  0  0  0  0  2  0  0  0  0  0  0
  159.8600  205.2260  153.1740 N   0  0  0  0  0  1  0  0  0  0  0  0
  162.3460  209.3240  151.0420 C   0  0  1  0  0  3  0  0  0  0  0  0
  161.2360  207.0940  150.7540 C   0  0  0  0  0  0  0  0  0  0  0  0
  162.0820  211.0660  149.2230 C   0  0  0  0  0  0  0  0  0  0  0  0
  161.2830  208.5270  150.2650 C   0  0  2  0  0  3  0  0  0  0  0  0
  161.2420  208.0830  153.0100 C   0  0  0  0  0  2  0  0  0  0  0  0
  162.2450  210.8090  150.7030 C   0  0  0  0  0  2  0  0  0  0  0  0
  161.6750  204.4420  151.7150 C   0  0  1  0  0  3  0  0  0  0  0  0
  161.3490  205.9410  149.7750 C   0  0  0  0  0  2  0  0  0  0  0  0
  162.2870  209.1160  152.5680 C   0  0  0  0  0  2  0  0  0  0  0  0
  161.2820  201.9870  151.5300 C   0  0  0  0  0  3  0  0  0  0  0  0
  161.2100  205.5090  152.7090 C   0  0  1  0  0  3  0  0  0  0  0  0
  161.6060  203.0470  152.2840 C   0  0  0  0  0  3  0  0  0  0  0  0
  162.1960  212.7150  148.6410 Cl  0  0  0  0  0  0  0  0  0  0  0  0
  161.7030  210.1040  148.3650 C   0  0  0  0  0  3  0  0  0  0  0  0
  161.2500  206.8880  152.0950 C   0  0  0  0  0  0  0  0  0  0  0  0
  160.8540  202.1160  150.0910 C   0  0  0  0  0  2  0  0  0  0  0  0
  160.9390  204.6000  150.3830 C   0  0  1  0  0  3  0  0  0  0  0  0
  160.6120  203.5780  148.0990 C   0  0  0  0  0  2  0  0  0  0  0  0
  161.5750  203.3990  146.9250 C   0  0  2  0  0  3  0  0  0  0  0  0
  161.7920  204.2460  144.6770 N   0  0  0  0  0  0  0  0  0  0  0  0
  162.6710  204.4290  146.9230 C   0  0  0  0  0  2  0  0  0  0  0  0
  160.5340  202.1870  145.0240 C   0  0  0  0  0  1  0  0  0  0  0  0
  160.8850  203.5520  145.5860 C   0  0  1  0  0  3  0  0  0  0  0  0
  161.1120  205.4540  144.2400 C   0  0  0  0  0  1  0  0  0  0  0  0
  162.9540  204.6690  145.4560 C   0  0  0  0  0  2  0  0  0  0  0  0
  1 21  1  6  0  0  0
  1 19  1  0  0  0  0
  1 20  1  0  0  0  0
  4  9  1  1  0  0  0
  4 12  1  0  0  0  0
  5 18  2  0  0  0  0
  6  9  1  0  0  0  0
  7  2  1  6  0  0  0
  7  5  1  0  0  0  0
  7  4  1  0  0  0  0
 10 15  1  1  0  0  0
 10 14  1  0  0  0  0
 11  5  1  0  0  0  0
 12  8  1  0  0  0  0
 13 15  2  0  0  0  0
 14  3  1  6  0  0  0
 16  6  1  0  0  0  0
 17  2  1  0  0  0  0
 17  6  2  0  0  0  0
 18 14  1  0  0  0  0
 18  8  1  0  0  0  0
 19 13  1  0  0  0  0
 20 11  1  6  0  0  0
 20 10  1  0  0  0  0
 22 21  1  1  0  0  0
 23 28  1  0  0  0  0
 23 26  1  0  0  0  0
 24 22  1  0  0  0  0
 26 25  1  6  0  0  0
 26 22  1  0  0  0  0
 27 23  1  0  0  0  0
 28 24  1  0  0  0  0
M  END
>  <MODEL>
5

>  <REMARK>
 VINA RESULT:      -7.1      3.057      6.852
  Name = 
  2 active torsions:
  status: ('A' for Active; 'I' for Inactive)
    1  A    between atoms: C_1  and  C_2
    2  A    between atoms: C_2  and  C_3
                            x       y       z     vdW  Elec       q    Type
                         _______ _______ _______ _____ _____    ______ ____

>  <TORSDO>
F 2

$$$$
=
 OpenBabel11052422543D

 28 32  0  0  1  0  0  0  0  0999 V2000
  160.9190  204.1970  149.1300 C   0  0  2  0  0  3  0  0  0  0  0  0
  160.7670  206.5600  153.8450 C   0  0  0  0  0  2  0  0  0  0  0  0
  163.0220  207.9990  148.6530 N   0  0  0  0  0  1  0  0  0  0  0  0
  160.4010  208.9110  153.1040 C   0  0  1  0  0  3  0  0  0  0  0  0
  161.3510  207.2680  151.4660 C   0  0  0  0  0  0  0  0  0  0  0  0
  160.4410  208.3410  155.5710 C   0  0  0  0  0  0  0  0  0  0  0  0
  161.2880  207.6660  152.9270 C   0  0  2  0  0  3  0  0  0  0  0  0
  161.7570  209.6610  151.0470 C   0  0  0  0  0  2  0  0  0  0  0  0
  160.5100  209.4370  154.5330 C   0  0  0  0  0  2  0  0  0  0  0  0
  160.9600  206.6610  148.7040 C   0  0  1  0  0  3  0  0  0  0  0  0
  161.0300  205.8480  151.0400 C   0  0  0  0  0  2  0  0  0  0  0  0
  160.6990  210.0360  152.0940 C   0  0  0  0  0  2  0  0  0  0  0  0
  161.2120  205.0920  146.7830 C   0  0  0  0  0  3  0  0  0  0  0  0
  161.6270  207.9890  149.0710 C   0  0  1  0  0  3  0  0  0  0  0  0
  161.0610  206.3460  147.2330 C   0  0  0  0  0  3  0  0  0  0  0  0
  160.3040  208.7940  157.2600 Cl  0  0  0  0  0  0  0  0  0  0  0  0
  160.6330  207.0470  155.2640 C   0  0  0  0  0  3  0  0  0  0  0  0
  161.5470  208.2540  150.5560 C   0  0  0  0  0  0  0  0  0  0  0  0
  161.4040  203.9170  147.7070 C   0  0  0  0  0  2  0  0  0  0  0  0
  161.4760  205.5400  149.6090 C   0  0  1  0  0  3  0  0  0  0  0  0
  161.3810  203.0550  150.0350 C   0  0  0  0  0  2  0  0  0  0  0  0
  161.0120  201.6770  149.4860 C   0  0  2  0  0  3  0  0  0  0  0  0
  160.2270  200.7650  147.3940 N   0  0  0  0  0  0  0  0  0  0  0  0
  162.1740  201.0020  148.8110 C   0  0  0  0  0  2  0  0  0  0  0  0
  158.5780  201.4520  149.0530 C   0  0  0  0  0  1  0  0  0  0  0  0
  159.9280  201.7490  148.4310 C   0  0  1  0  0  3  0  0  0  0  0  0
  160.3520  201.4920  146.1430 C   0  0  0  0  0  1  0  0  0  0  0  0
  161.5420  200.2000  147.6930 C   0  0  0  0  0  2  0  0  0  0  0  0
  1 20  1  0  0  0  0
  1 21  1  1  0  0  0
  2 17  1  0  0  0  0
  4 12  1  6  0  0  0
  4  9  1  0  0  0  0
  5  7  1  0  0  0  0
  6 16  1  0  0  0  0
  7  4  1  0  0  0  0
  7  2  1  1  0  0  0
  8 12  1  0  0  0  0
  9  6  1  0  0  0  0
 10 15  1  6  0  0  0
 10 14  1  0  0  0  0
 10 20  1  0  0  0  0
 11  5  1  0  0  0  0
 13 15  2  0  0  0  0
 13 19  1  0  0  0  0
 14  3  1  1  0  0  0
 14 18  1  0  0  0  0
 17  6  2  0  0  0  0
 18  8  1  0  0  0  0
 18  5  2  0  0  0  0
 19  1  1  0  0  0  0
 20 11  1  1  0  0  0
 22 21  1  6  0  0  0
 23 28  1  0  0  0  0
 23 26  1  0  0  0  0
 24 22  1  0  0  0  0
 26 25  1  1  0  0  0
 26 22  1  0  0  0  0
 27 23  1  0  0  0  0
 28 24  1  0  0  0  0
M  END
>  <MODEL>
6

>  <REMARK>
 VINA RESULT:      -6.9      3.556      8.352
  Name = 
  2 active torsions:
  status: ('A' for Active; 'I' for Inactive)
    1  A    between atoms: C_1  and  C_2
    2  A    between atoms: C_2  and  C_3
                            x       y       z     vdW  Elec       q    Type
                         _______ _______ _______ _____ _____    ______ ____

>  <TORSDO>
F 2

$$$$
=
 OpenBabel11052422543D

 28 32  0  0  1  0  0  0  0  0999 V2000
  161.4120  202.6440  148.2570 C   0  0  2  0  0  3  0  0  0  0  0  0
  161.7080  207.8950  148.6760 C   0  0  0  0  0  2  0  0  0  0  0  0
  159.6050  203.6600  152.1050 N   0  0  0  0  0  1  0  0  0  0  0  0
  162.2550  208.0750  151.1010 C   0  0  1  0  0  3  0  0  0  0  0  0
  161.1950  205.9630  150.2600 C   0  0  0  0  0  0  0  0  0  0  0  0
  162.1550  210.1530  149.6580 C   0  0  0  0  0  0  0  0  0  0  0  0
  161.2780  207.4660  150.0790 C   0  0  2  0  0  3  0  0  0  0  0  0
  160.9740  206.4730  152.6590 C   0  0  0  0  0  2  0  0  0  0  0  0
  162.1760  209.5990  151.0640 C   0  0  0  0  0  2  0  0  0  0  0  0
  161.5600  203.1660  150.6990 C   0  0  1  0  0  3  0  0  0  0  0  0
  161.4120  205.0330  149.0820 C   0  0  0  0  0  2  0  0  0  0  0  0
  162.0490  207.5620  152.5400 C   0  0  0  0  0  2  0  0  0  0  0  0
  161.2050  200.8060  149.9810 C   0  0  0  0  0  3  0  0  0  0  0  0
  160.9920  204.0150  151.8400 C   0  0  1  0  0  3  0  0  0  0  0  0
  161.4460  201.6860  150.9630 C   0  0  0  0  0  3  0  0  0  0  0  0
  162.3120  211.8850  149.4370 Cl  0  0  0  0  0  0  0  0  0  0  0  0
  161.8680  209.3900  148.5890 C   0  0  0  0  0  3  0  0  0  0  0  0
  161.0810  205.4900  151.5260 C   0  0  0  0  0  0  0  0  0  0  0  0
  160.9180  201.2300  148.5640 C   0  0  0  0  0  2  0  0  0  0  0  0
  160.9550  203.6010  149.3620 C   0  0  1  0  0  3  0  0  0  0  0  0
  160.8600  203.0690  146.8970 C   0  0  0  0  0  2  0  0  0  0  0  0
  161.2230  204.5080  146.5330 C   0  0  2  0  0  3  0  0  0  0  0  0
  161.6430  205.7640  144.5160 N   0  0  0  0  0  0  0  0  0  0  0  0
  160.0090  205.3500  146.2510 C   0  0  0  0  0  2  0  0  0  0  0  0
  163.5300  204.7030  145.6350 C   0  0  0  0  0  1  0  0  0  0  0  0
  162.0620  204.5890  145.2740 C   0  0  1  0  0  3  0  0  0  0  0  0
  161.2070  205.2930  143.2110 C   0  0  0  0  0  1  0  0  0  0  0  0
  160.4670  206.3200  145.1830 C   0  0  0  0  0  2  0  0  0  0  0  0
  1 21  1  6  0  0  0
  1 19  1  0  0  0  0
  1 20  1  0  0  0  0
  4  9  1  1  0  0  0
  4 12  1  0  0  0  0
  5 18  2  0  0  0  0
  6  9  1  0  0  0  0
  7  2  1  6  0  0  0
  7  5  1  0  0  0  0
  7  4  1  0  0  0  0
 10 15  1  1  0  0  0
 10 14  1  0  0  0  0
 11  5  1  0  0  0  0
 12  8  1  0  0  0  0
 13 15  2  0  0  0  0
 14  3  1  6  0  0  0
 16  6  1  0  0  0  0
 17  2  1  0  0  0  0
 17  6  2  0  0  0  0
 18 14  1  0  0  0  0
 18  8  1  0  0  0  0
 19 13  1  0  0  0  0
 20 11  1  6  0  0  0
 20 10  1  0  0  0  0
 22 21  1  6  0  0  0
 23 28  1  0  0  0  0
 23 26  1  0  0  0  0
 24 22  1  0  0  0  0
 26 25  1  1  0  0  0
 26 22  1  0  0  0  0
 27 23  1  0  0  0  0
 28 24  1  0  0  0  0
M  END
>  <MODEL>
7

>  <REMARK>
 VINA RESULT:      -6.9      3.161      6.784
  Name = 
  2 active torsions:
  status: ('A' for Active; 'I' for Inactive)
    1  A    between atoms: C_1  and  C_2
    2  A    between atoms: C_2  and  C_3
                            x       y       z     vdW  Elec       q    Type
                         _______ _______ _______ _____ _____    ______ ____

>  <TORSDO>
F 2

$$$$
=
 OpenBabel11052422543D

 28 32  0  0  1  0  0  0  0  0999 V2000
  159.5570  212.3220  151.6630 C   0  0  2  0  0  3  0  0  0  0  0  0
  161.1610  207.3010  151.4470 C   0  0  0  0  0  2  0  0  0  0  0  0
  161.2450  211.4150  155.5920 N   0  0  0  0  0  1  0  0  0  0  0  0
  160.4950  206.5670  153.7330 C   0  0  1  0  0  3  0  0  0  0  0  0
  160.7840  209.0180  153.2930 C   0  0  0  0  0  0  0  0  0  0  0  0
  161.4810  204.9050  152.0960 C   0  0  0  0  0  0  0  0  0  0  0  0
  161.2720  207.6290  152.9350 C   0  0  2  0  0  3  0  0  0  0  0  0
  160.9520  208.2510  155.6270 C   0  0  0  0  0  2  0  0  0  0  0  0
  161.1290  205.1910  153.5370 C   0  0  0  0  0  2  0  0  0  0  0  0
  159.3850  211.4080  153.9850 C   0  0  1  0  0  3  0  0  0  0  0  0
  160.3530  209.9860  152.2080 C   0  0  0  0  0  2  0  0  0  0  0  0
  160.3650  206.8880  155.2350 C   0  0  0  0  0  2  0  0  0  0  0  0
  158.9180  213.8260  153.5940 C   0  0  0  0  0  3  0  0  0  0  0  0
  160.1140  210.6440  155.0930 C   0  0  1  0  0  3  0  0  0  0  0  0
  158.9250  212.7750  154.4260 C   0  0  0  0  0  3  0  0  0  0  0  0
  161.9880  203.2840  151.6630 Cl  0  0  0  0  0  0  0  0  0  0  0  0
  161.5670  205.8760  151.1710 C   0  0  0  0  0  3  0  0  0  0  0  0
  160.6000  209.2990  154.6070 C   0  0  0  0  0  0  0  0  0  0  0  0
  159.4710  213.7540  152.1930 C   0  0  0  0  0  2  0  0  0  0  0  0
  160.2280  211.4260  152.7080 C   0  0  1  0  0  3  0  0  0  0  0  0
  160.3510  212.3340  150.3570 C   0  0  0  0  0  2  0  0  0  0  0  0
  159.9990  213.5210  149.4600 C   0  0  2  0  0  3  0  0  0  0  0  0
  159.8880  213.9690  147.0920 N   0  0  0  0  0  0  0  0  0  0  0  0
  158.5500  213.5220  149.0580 C   0  0  0  0  0  2  0  0  0  0  0  0
  161.9790  214.4200  148.2620 C   0  0  0  0  0  1  0  0  0  0  0  0
  160.7720  213.5070  148.1580 C   0  0  1  0  0  3  0  0  0  0  0  0
  159.8150  212.9010  146.1090 C   0  0  0  0  0  1  0  0  0  0  0  0
  158.5510  214.1140  147.6650 C   0  0  0  0  0  2  0  0  0  0  0  0
  1 21  1  6  0  0  0
  1 19  1  0  0  0  0
  1 20  1  0  0  0  0
  4  9  1  1  0  0  0
  4 12  1  0  0  0  0
  5 18  2  0  0  0  0
  6  9  1  0  0  0  0
  7  2  1  6  0  0  0
  7  5  1  0  0  0  0
  7  4  1  0  0  0  0
 10 15  1  1  0  0  0
 10 14  1  0  0  0  0
 11  5  1  0  0  0  0
 12  8  1  0  0  0  0
 13 15  2  0  0  0  0
 14  3  1  6  0  0  0
 16  6  1  0  0  0  0
 17  2  1  0  0  0  0
 17  6  2  0  0  0  0
 18 14  1  0  0  0  0
 18  8  1  0  0  0  0
 19 13  1  0  0  0  0
 20 11  1  6  0  0  0
 20 10  1  0  0  0  0
 22 21  1  1  0  0  0
 23 28  1  0  0  0  0
 23 26  1  0  0  0  0
 24 22  1  0  0  0  0
 26 25  1  1  0  0  0
 26 22  1  0  0  0  0
 27 23  1  0  0  0  0
 28 24  1  0  0  0  0
M  END
>  <MODEL>
8

>  <REMARK>
 VINA RESULT:      -6.6      2.600      4.227
  Name = 
  2 active torsions:
  status: ('A' for Active; 'I' for Inactive)
    1  A    between atoms: C_1  and  C_2
    2  A    between atoms: C_2  and  C_3
                            x       y       z     vdW  Elec       q    Type
                         _______ _______ _______ _____ _____    ______ ____

>  <TORSDO>
F 2

$$$$
=
 OpenBabel11052422543D

 28 32  0  0  1  0  0  0  0  0999 V2000
  161.0950  205.5510  151.6370 C   0  0  2  0  0  3  0  0  0  0  0  0
  161.6640  205.9190  146.4050 C   0  0  0  0  0  2  0  0  0  0  0  0
  162.0360  201.5210  150.2300 N   0  0  0  0  0  1  0  0  0  0  0  0
  160.5700  203.7840  145.7300 C   0  0  1  0  0  3  0  0  0  0  0  0
  161.4040  204.0180  148.0830 C   0  0  0  0  0  0  0  0  0  0  0  0
  161.4040  205.4020  143.9700 C   0  0  0  0  0  0  0  0  0  0  0  0
  161.6430  204.4090  146.6380 C   0  0  2  0  0  3  0  0  0  0  0  0
  161.1070  201.7380  147.1990 C   0  0  0  0  0  2  0  0  0  0  0  0
  160.9320  203.9970  144.2620 C   0  0  0  0  0  2  0  0  0  0  0  0
  160.4390  203.3350  150.6810 C   0  0  1  0  0  3  0  0  0  0  0  0
  161.3240  205.0770  149.1650 C   0  0  0  0  0  2  0  0  0  0  0  0
  160.3120  202.2900  146.0070 C   0  0  0  0  0  2  0  0  0  0  0  0
  160.5270  203.6120  153.1570 C   0  0  0  0  0  3  0  0  0  0  0  0
  160.8480  202.2020  149.7350 C   0  0  1  0  0  3  0  0  0  0  0  0
  160.2120  202.8590  152.0940 C   0  0  0  0  0  3  0  0  0  0  0  0
  161.6240  205.8820  142.2980 Cl  0  0  0  0  0  0  0  0  0  0  0  0
  161.8050  206.2410  144.9400 C   0  0  0  0  0  3  0  0  0  0  0  0
  161.1100  202.7180  148.3400 C   0  0  0  0  0  0  0  0  0  0  0  0
  161.2310  204.9380  153.0310 C   0  0  0  0  0  2  0  0  0  0  0  0
  161.4280  204.4980  150.5760 C   0  0  1  0  0  3  0  0  0  0  0  0
  162.0380  206.7500  151.5370 C   0  0  0  0  0  2  0  0  0  0  0  0
  161.3150  208.0880  151.6890 C   0  0  2  0  0  3  0  0  0  0  0  0
  161.5760  210.0940  153.0030 N   0  0  0  0  0  0  0  0  0  0  0  0
  161.8920  209.1520  150.7970 C   0  0  0  0  0  2  0  0  0  0  0  0
  160.1760  208.3040  153.8840 C   0  0  0  0  0  1  0  0  0  0  0  0
  161.4230  208.6450  153.0920 C   0  0  1  0  0  3  0  0  0  0  0  0
  162.8300  210.4300  153.6540 C   0  0  0  0  0  1  0  0  0  0  0  0
  161.7260  210.4320  151.5880 C   0  0  0  0  0  2  0  0  0  0  0  0
  1 21  1  1  0  0  0
  1 19  1  0  0  0  0
  4  9  1  6  0  0  0
  4 12  1  0  0  0  0
  4  7  1  0  0  0  0
  5 18  2  0  0  0  0
  5 11  1  0  0  0  0
  6  9  1  0  0  0  0
  6 17  2  0  0  0  0
  7  2  1  1  0  0  0
  7  5  1  0  0  0  0
  8 18  1  0  0  0  0
 10 15  1  1  0  0  0
 12  8  1  0  0  0  0
 14  3  1  1  0  0  0
 14 10  1  0  0  0  0
 15 13  2  0  0  0  0
 16  6  1  0  0  0  0
 17  2  1  0  0  0  0
 18 14  1  0  0  0  0
 19 13  1  0  0  0  0
 20 11  1  6  0  0  0
 20 10  1  0  0  0  0
 20  1  1  0  0  0  0
 22 21  1  1  0  0  0
 22 26  1  0  0  0  0
 23 26  1  0  0  0  0
 23 27  1  0  0  0  0
 24 28  1  0  0  0  0
 24 22  1  0  0  0  0
 26 25  1  1  0  0  0
 28 23  1  0  0  0  0
M  END
>  <MODEL>
9

>  <REMARK>
 VINA RESULT:      -6.0      2.457      4.662
  Name = 
  2 active torsions:
  status: ('A' for Active; 'I' for Inactive)
    1  A    between atoms: C_1  and  C_2
    2  A    between atoms: C_2  and  C_3
                            x       y       z     vdW  Elec       q    Type
                         _______ _______ _______ _____ _____    ______ ____

>  <TORSDO>
F 2

$$$$
