=
 OpenBabel11052422033D

 30 32  0  0  1  0  0  0  0  0999 V2000
  161.1360  207.6930  153.8960 C   0  0  0  0  0  0  0  0  0  0  0  0
  161.0110  211.1740  154.4360 C   0  0  0  0  0  2  0  0  0  0  0  0
  161.3550  210.6510  151.6020 C   0  0  0  0  0  1  0  0  0  0  0  0
  160.0610  210.2980  153.6020 C   0  0  2  0  0  3  0  0  0  0  0  0
  161.2240  208.0170  155.2920 N   0  0  0  0  0  2  0  0  0  0  0  0
  160.5460  206.6320  153.5570 O   0  0  0  0  0  0  0  0  0  0  0  0
  162.1760  210.3860  155.0300 C   0  0  0  0  0  2  0  0  0  0  0  0
  161.7030  209.2410  155.8700 C   0  0  0  0  0  0  0  0  0  0  0  0
  160.6850  209.6450  152.4290 N   0  0  0  0  0  0  0  0  0  0  0  0
  161.7080  209.3660  157.1210 O   0  0  0  0  0  0  0  0  0  0  0  0
  161.6730  208.6250  152.8300 C   0  0  2  0  0  3  0  0  0  0  0  0
  157.8450  211.3530  154.0630 C   0  0  0  0  0  3  0  0  0  0  0  0
  158.8340  211.0700  153.2090 C   0  0  0  0  0  3  0  0  0  0  0  0
  157.8730  210.9330  155.4980 C   0  0  0  0  0  2  0  0  0  0  0  0
  157.6680  212.1390  156.3890 C   0  0  0  0  0  3  0  0  0  0  0  0
  156.4430  211.9120  157.2500 C   0  0  0  0  0  2  0  0  0  0  0  0
  156.3550  212.8020  156.0300 C   0  0  0  0  0  2  0  0  0  0  0  0
  162.1580  207.8380  151.6090 C   0  0  0  0  0  2  0  0  0  0  0  0
  160.9980  207.3000  150.7770 C   0  0  0  0  0  2  0  0  0  0  0  0
  161.3970  207.0220  149.3240 C   0  0  2  0  0  0  0  0  0  0  0  0
  162.2500  205.2210  147.6210 C   0  0  0  0  0  1  0  0  0  0  0  0
  160.2660  206.5410  148.4320 C   0  0  0  0  0  2  0  0  0  0  0  0
  161.3840  205.5870  148.8150 C   0  0  2  0  0  0  0  0  0  0  0  0
  162.3160  207.9360  148.6460 N   0  0  0  0  0  2  0  0  0  0  0  0
  161.6460  209.1510  148.4480 N   0  0  0  0  0  0  0  0  0  0  0  0
  161.6630  211.7590  148.0130 S   0  0  0  0  0  1  0  0  0  0  0  0
  162.3580  210.3780  148.5290 C   0  0  0  0  0  3  0  0  0  0  0  0
  160.8730  204.4740  149.7160 C   0  0  0  0  0  2  0  0  0  0  0  0
  161.1160  203.2350  149.1290 O   0  0  0  0  0  0  0  0  0  0  0  0
  160.2390  202.4270  149.6870 O   0  0  0  0  0  1  0  0  0  0  0  0
  1  5  1  0  0  0  0
  2  7  1  0  0  0  0
  3  9  1  0  0  0  0
  4 13  1  6  0  0  0
  4  2  1  0  0  0  0
  5  8  1  0  0  0  0
  6  1  2  0  0  0  0
  7  8  1  0  0  0  0
  8 10  2  0  0  0  0
  9 11  1  0  0  0  0
  9  4  1  0  0  0  0
 11 18  1  6  0  0  0
 11  1  1  0  0  0  0
 12 14  1  0  0  0  0
 13 12  2  0  0  0  0
 14 15  1  0  0  0  0
 15 16  1  0  0  0  0
 17 15  1  0  0  0  0
 17 16  1  0  0  0  0
 19 18  1  0  0  0  0
 20 19  1  1  0  0  0
 22 23  1  0  0  0  0
 22 20  1  0  0  0  0
 23 21  1  6  0  0  0
 23 20  1  0  0  0  0
 23 28  1  0  0  0  0
 24 20  1  0  0  0  0
 25 27  2  0  0  0  0
 25 24  1  0  0  0  0
 26 27  1  0  0  0  0
 29 30  1  0  0  0  0
 29 28  1  0  0  0  0
M  END
>  <MODEL>
1

>  <REMARK>
 VINA RESULT:      -5.8      0.000      0.000
  Name = 
  11 active torsions:
  status: ('A' for Active; 'I' for Inactive)
    1  A    between atoms: C_1  and  C_4
    2  A    between atoms: C_1  and  C_22
    3  A    between atoms: C_4  and  N_5
    4  A    between atoms: N_5  and  N_21
    5  A    between atoms: C_10  and  C_25
    6  A    between atoms: C_11  and  C_24
    7  A    between atoms: C_12  and  C_27
    8  A    between atoms: O_13  and  C_27
    9  A    between atoms: C_15  and  C_25
   10  A    between atoms: C_17  and  N_21
   11  A    between atoms: C_22  and  C_29
                            x       y       z     vdW  Elec       q    Type
                         _______ _______ _______ _____ _____    ______ ____

>  <TORSDO>
F 11

$$$$
=
 OpenBabel11052422033D

 30 32  0  0  1  0  0  0  0  0999 V2000
  160.8840  207.8280  154.1910 C   0  0  0  0  0  0  0  0  0  0  0  0
  161.0340  211.3490  154.0910 C   0  0  0  0  0  2  0  0  0  0  0  0
  161.2950  210.2970  151.3990 C   0  0  0  0  0  1  0  0  0  0  0  0
  160.0070  210.4140  153.4300 C   0  0  2  0  0  3  0  0  0  0  0  0
  161.0170  208.3910  155.5060 N   0  0  0  0  0  2  0  0  0  0  0  0
  160.2100  206.7730  154.0500 O   0  0  0  0  0  0  0  0  0  0  0  0
  162.1430  210.5930  154.8180 C   0  0  0  0  0  2  0  0  0  0  0  0
  161.5960  209.6590  155.8520 C   0  0  0  0  0  0  0  0  0  0  0  0
  160.5630  209.5130  152.3950 N   0  0  0  0  0  0  0  0  0  0  0  0
  161.6290  210.0070  157.0590 O   0  0  0  0  0  0  0  0  0  0  0  0
  161.4760  208.5080  152.9740 C   0  0  2  0  0  3  0  0  0  0  0  0
  157.8530  211.6500  153.6870 C   0  0  0  0  0  3  0  0  0  0  0  0
  158.8370  211.1950  152.9050 C   0  0  0  0  0  3  0  0  0  0  0  0
  157.8290  211.4300  155.1650 C   0  0  0  0  0  2  0  0  0  0  0  0
  156.7510  212.2870  155.7940 C   0  0  0  0  0  3  0  0  0  0  0  0
  156.6320  211.9280  157.2600 C   0  0  0  0  0  2  0  0  0  0  0  0
  155.6230  211.3950  156.2670 C   0  0  0  0  0  2  0  0  0  0  0  0
  161.8810  207.4790  151.9150 C   0  0  0  0  0  2  0  0  0  0  0  0
  160.7230  207.1250  150.9860 C   0  0  0  0  0  2  0  0  0  0  0  0
  160.9540  205.8090  150.2360 C   0  0  2  0  0  0  0  0  0  0  0  0
  160.9220  204.6140  147.9030 C   0  0  0  0  0  1  0  0  0  0  0  0
  162.3640  205.6150  149.7070 C   0  0  0  0  0  2  0  0  0  0  0  0
  161.2190  205.8490  148.7370 C   0  0  2  0  0  0  0  0  0  0  0  0
  160.3570  204.5780  150.7510 N   0  0  0  0  0  2  0  0  0  0  0  0
  161.2880  203.9730  151.6050 N   0  0  0  0  0  0  0  0  0  0  0  0
  160.8110  201.6970  150.3450 S   0  0  0  0  0  1  0  0  0  0  0  0
  161.5970  202.5930  151.4580 C   0  0  0  0  0  3  0  0  0  0  0  0
  161.3600  207.1900  148.0350 C   0  0  0  0  0  2  0  0  0  0  0  0
  162.6690  207.6520  148.1450 O   0  0  0  0  0  0  0  0  0  0  0  0
  162.5460  208.9270  148.4470 O   0  0  0  0  0  1  0  0  0  0  0  0
  1  5  1  0  0  0  0
  2  7  1  0  0  0  0
  3  9  1  0  0  0  0
  4 13  1  6  0  0  0
  4  2  1  0  0  0  0
  5  8  1  0  0  0  0
  6  1  2  0  0  0  0
  7  8  1  0  0  0  0
  8 10  2  0  0  0  0
  9 11  1  0  0  0  0
  9  4  1  0  0  0  0
 11 18  1  6  0  0  0
 11  1  1  0  0  0  0
 12 14  1  0  0  0  0
 13 12  2  0  0  0  0
 14 15  1  0  0  0  0
 15 17  1  0  0  0  0
 15 16  1  0  0  0  0
 17 16  1  0  0  0  0
 19 18  1  0  0  0  0
 20 24  1  0  0  0  0
 20 19  1  1  0  0  0
 22 20  1  0  0  0  0
 23 21  1  6  0  0  0
 23 22  1  0  0  0  0
 23 20  1  0  0  0  0
 24 25  1  0  0  0  0
 26 27  1  0  0  0  0
 27 25  2  0  0  0  0
 28 29  1  0  0  0  0
 28 23  1  0  0  0  0
 29 30  1  0  0  0  0
M  END
>  <MODEL>
2

>  <REMARK>
 VINA RESULT:      -5.5      2.772      3.340
  Name = 
  11 active torsions:
  status: ('A' for Active; 'I' for Inactive)
    1  A    between atoms: C_1  and  C_4
    2  A    between atoms: C_1  and  C_22
    3  A    between atoms: C_4  and  N_5
    4  A    between atoms: N_5  and  N_21
    5  A    between atoms: C_10  and  C_25
    6  A    between atoms: C_11  and  C_24
    7  A    between atoms: C_12  and  C_27
    8  A    between atoms: O_13  and  C_27
    9  A    between atoms: C_15  and  C_25
   10  A    between atoms: C_17  and  N_21
   11  A    between atoms: C_22  and  C_29
                            x       y       z     vdW  Elec       q    Type
                         _______ _______ _______ _____ _____    ______ ____

>  <TORSDO>
F 11

$$$$
=
 OpenBabel11052422033D

 30 32  0  0  1  0  0  0  0  0999 V2000
  161.8820  209.9610  152.2420 C   0  0  0  0  0  0  0  0  0  0  0  0
  159.4810  209.3840  154.7570 C   0  0  0  0  0  2  0  0  0  0  0  0
  160.8000  206.8850  154.0940 C   0  0  0  0  0  1  0  0  0  0  0  0
  161.0030  209.1720  154.8180 C   0  0  2  0  0  3  0  0  0  0  0  0
  161.0260  211.0990  152.4290 N   0  0  0  0  0  2  0  0  0  0  0  0
  163.0860  210.1560  151.9230 O   0  0  0  0  0  0  0  0  0  0  0  0
  159.0000  209.8430  153.3830 C   0  0  0  0  0  2  0  0  0  0  0  0
  159.6850  211.1000  152.9440 C   0  0  0  0  0  0  0  0  0  0  0  0
  161.5250  208.1420  153.8930 N   0  0  0  0  0  0  0  0  0  0  0  0
  159.0720  212.1920  153.0510 O   0  0  0  0  0  0  0  0  0  0  0  0
  161.3890  208.5490  152.4820 C   0  0  2  0  0  3  0  0  0  0  0  0
  161.8140  209.8940  157.0670 C   0  0  0  0  0  3  0  0  0  0  0  0
  161.4490  208.9180  156.2290 C   0  0  0  0  0  3  0  0  0  0  0  0
  161.8040  211.3380  156.6770 C   0  0  0  0  0  2  0  0  0  0  0  0
  160.5670  212.0100  157.2330 C   0  0  0  0  0  3  0  0  0  0  0  0
  159.9570  212.8820  156.1560 C   0  0  0  0  0  2  0  0  0  0  0  0
  160.7860  213.5080  157.2550 C   0  0  0  0  0  2  0  0  0  0  0  0
  162.1070  207.5550  151.5640 C   0  0  0  0  0  2  0  0  0  0  0  0
  161.1290  206.7690  150.6940 C   0  0  0  0  0  2  0  0  0  0  0  0
  161.4930  206.8230  149.2070 C   0  0  2  0  0  0  0  0  0  0  0  0
  162.3400  205.4580  147.1360 C   0  0  0  0  0  1  0  0  0  0  0  0
  160.3490  206.5110  148.2590 C   0  0  0  0  0  2  0  0  0  0  0  0
  161.5010  205.5320  148.4010 C   0  0  2  0  0  0  0  0  0  0  0  0
  162.3690  207.8890  148.7220 N   0  0  0  0  0  2  0  0  0  0  0  0
  161.6080  209.0620  148.6300 N   0  0  0  0  0  2  0  0  0  0  0  0
  161.5340  211.6330  148.0130 S   0  0  0  0  0  0  0  0  0  0  0  0
  162.2470  210.3310  148.6880 C   0  0  0  0  0  3  0  0  0  0  0  0
  161.0440  204.2360  149.0520 C   0  0  0  0  0  2  0  0  0  0  0  0
  161.3420  203.1550  148.2250 O   0  0  0  0  0  0  0  0  0  0  0  0
  160.4230  202.2570  148.5110 O   0  0  0  0  0  1  0  0  0  0  0  0
  1  5  1  0  0  0  0
  1 11  1  0  0  0  0
  2  4  1  0  0  0  0
  4 13  1  1  0  0  0
  5  8  1  0  0  0  0
  6  1  2  0  0  0  0
  7  2  1  0  0  0  0
  8 10  2  0  0  0  0
  8  7  1  0  0  0  0
  9  3  1  0  0  0  0
  9  4  1  0  0  0  0
 11 18  1  6  0  0  0
 11  9  1  0  0  0  0
 13 12  2  0  0  0  0
 14 12  1  0  0  0  0
 14 15  1  0  0  0  0
 15 17  1  0  0  0  0
 16 15  1  0  0  0  0
 16 17  1  0  0  0  0
 19 18  1  0  0  0  0
 20 19  1  1  0  0  0
 22 23  1  0  0  0  0
 22 20  1  0  0  0  0
 23 21  1  6  0  0  0
 23 28  1  0  0  0  0
 23 20  1  0  0  0  0
 24 20  1  0  0  0  0
 25 27  1  0  0  0  0
 25 24  1  0  0  0  0
 26 27  2  0  0  0  0
 29 30  1  0  0  0  0
 29 28  1  0  0  0  0
M  END
>  <MODEL>
3

>  <REMARK>
 VINA RESULT:      -5.4      1.946      2.929
  Name = 
  11 active torsions:
  status: ('A' for Active; 'I' for Inactive)
    1  A    between atoms: C_1  and  C_4
    2  A    between atoms: C_1  and  C_22
    3  A    between atoms: C_4  and  N_5
    4  A    between atoms: N_5  and  N_21
    5  A    between atoms: C_10  and  C_25
    6  A    between atoms: C_11  and  C_24
    7  A    between atoms: C_12  and  C_27
    8  A    between atoms: O_13  and  C_27
    9  A    between atoms: C_15  and  C_25
   10  A    between atoms: C_17  and  N_21
   11  A    between atoms: C_22  and  C_29
                            x       y       z     vdW  Elec       q    Type
                         _______ _______ _______ _____ _____    ______ ____

>  <TORSDO>
F 11

$$$$
=
 OpenBabel11052422033D

 30 32  0  0  1  0  0  0  0  0999 V2000
  160.5860  207.9420  155.3750 C   0  0  0  0  0  0  0  0  0  0  0  0
  161.3650  211.1700  154.1920 C   0  0  0  0  0  2  0  0  0  0  0  0
  160.7410  209.4450  151.9430 C   0  0  0  0  0  1  0  0  0  0  0  0
  160.0490  210.3880  154.0480 C   0  0  2  0  0  3  0  0  0  0  0  0
  161.1480  208.7650  156.4090 N   0  0  0  0  0  2  0  0  0  0  0  0
  159.7120  207.0900  155.6880 O   0  0  0  0  0  0  0  0  0  0  0  0
  162.4590  210.3670  154.8920 C   0  0  0  0  0  2  0  0  0  0  0  0
  162.0230  209.8910  156.2420 C   0  0  0  0  0  0  0  0  0  0  0  0
  160.1470  209.1460  153.2480 N   0  0  0  0  0  0  0  0  0  0  0  0
  162.4220  210.5120  157.2600 O   0  0  0  0  0  0  0  0  0  0  0  0
  160.9710  208.1230  153.9220 C   0  0  2  0  0  3  0  0  0  0  0  0
  157.8520  211.5590  154.2460 C   0  0  0  0  0  3  0  0  0  0  0  0
  158.9530  211.2800  153.5400 C   0  0  0  0  0  3  0  0  0  0  0  0
  157.6120  211.0110  155.6160 C   0  0  0  0  0  2  0  0  0  0  0  0
  157.4060  212.1490  156.5930 C   0  0  0  0  0  3  0  0  0  0  0  0
  156.0530  211.9900  157.2540 C   0  0  0  0  0  2  0  0  0  0  0  0
  156.2340  212.9900  156.1340 C   0  0  0  0  0  2  0  0  0  0  0  0
  160.8970  206.7930  153.1660 C   0  0  0  0  0  2  0  0  0  0  0  0
  162.1250  206.5610  152.2910 C   0  0  0  0  0  2  0  0  0  0  0  0
  161.7590  206.0860  150.8810 C   0  0  2  0  0  0  0  0  0  0  0  0
  161.4850  204.0120  149.3010 C   0  0  0  0  0  1  0  0  0  0  0  0
  160.2930  205.7440  150.6830 C   0  0  0  0  0  2  0  0  0  0  0  0
  161.3330  204.6380  150.6770 C   0  0  2  0  0  0  0  0  0  0  0  0
  162.3570  206.7490  149.7240 N   0  0  0  0  0  2  0  0  0  0  0  0
  161.3220  207.3310  148.9790 N   0  0  0  0  0  2  0  0  0  0  0  0
  160.7950  206.3480  146.5810 S   0  0  0  0  0  0  0  0  0  0  0  0
  161.4490  207.4680  147.5700 C   0  0  0  0  0  3  0  0  0  0  0  0
  161.1720  203.7250  151.8820 C   0  0  0  0  0  2  0  0  0  0  0  0
  161.0110  202.4060  151.4630 O   0  0  0  0  0  0  0  0  0  0  0  0
  162.0950  201.7900  151.8830 O   0  0  0  0  0  1  0  0  0  0  0  0
  1  6  2  0  0  0  0
  1  5  1  0  0  0  0
  2  7  1  0  0  0  0
  3  9  1  0  0  0  0
  4 13  1  6  0  0  0
  4  2  1  0  0  0  0
  7  8  1  0  0  0  0
  8  5  1  0  0  0  0
  8 10  2  0  0  0  0
  9 11  1  0  0  0  0
  9  4  1  0  0  0  0
 11 18  1  6  0  0  0
 11  1  1  0  0  0  0
 12 14  1  0  0  0  0
 13 12  2  0  0  0  0
 14 15  1  0  0  0  0
 15 16  1  0  0  0  0
 17 15  1  0  0  0  0
 17 16  1  0  0  0  0
 19 18  1  0  0  0  0
 20 19  1  1  0  0  0
 22 20  1  0  0  0  0
 23 21  1  6  0  0  0
 23 22  1  0  0  0  0
 23 20  1  0  0  0  0
 23 28  1  0  0  0  0
 24 20  1  0  0  0  0
 25 24  1  0  0  0  0
 26 27  2  0  0  0  0
 27 25  1  0  0  0  0
 29 28  1  0  0  0  0
 29 30  1  0  0  0  0
M  END
>  <MODEL>
4

>  <REMARK>
 VINA RESULT:      -5.3      1.755      1.957
  Name = 
  11 active torsions:
  status: ('A' for Active; 'I' for Inactive)
    1  A    between atoms: C_1  and  C_4
    2  A    between atoms: C_1  and  C_22
    3  A    between atoms: C_4  and  N_5
    4  A    between atoms: N_5  and  N_21
    5  A    between atoms: C_10  and  C_25
    6  A    between atoms: C_11  and  C_24
    7  A    between atoms: C_12  and  C_27
    8  A    between atoms: O_13  and  C_27
    9  A    between atoms: C_15  and  C_25
   10  A    between atoms: C_17  and  N_21
   11  A    between atoms: C_22  and  C_29
                            x       y       z     vdW  Elec       q    Type
                         _______ _______ _______ _____ _____    ______ ____

>  <TORSDO>
F 11

$$$$
=
 OpenBabel11052422033D

 30 32  0  0  1  0  0  0  0  0999 V2000
  162.3680  205.8220  151.6660 C   0  0  0  0  0  0  0  0  0  0  0  0
  160.5300  205.7990  148.6580 C   0  0  0  0  0  2  0  0  0  0  0  0
  161.1580  208.5380  149.3830 C   0  0  0  0  0  1  0  0  0  0  0  0
  161.9560  206.3170  148.9070 C   0  0  2  0  0  3  0  0  0  0  0  0
  161.8120  204.5260  151.3940 N   0  0  0  0  0  2  0  0  0  0  0  0
  163.4830  205.8910  152.2480 O   0  0  0  0  0  0  0  0  0  0  0  0
  159.8500  205.3000  149.9310 C   0  0  0  0  0  2  0  0  0  0  0  0
  160.6480  204.2290  150.6060 C   0  0  0  0  0  0  0  0  0  0  0  0
  162.0480  207.4670  149.8340 N   0  0  0  0  0  0  0  0  0  0  0  0
  160.2980  203.0310  150.4600 O   0  0  0  0  0  0  0  0  0  0  0  0
  161.6780  207.0910  151.2130 C   0  0  2  0  0  3  0  0  0  0  0  0
  162.7220  205.7240  146.6040 C   0  0  0  0  0  3  0  0  0  0  0  0
  162.6510  206.6070  147.6070 C   0  0  0  0  0  3  0  0  0  0  0  0
  162.1070  204.3640  146.6820 C   0  0  0  0  0  2  0  0  0  0  0  0
  161.9510  203.7920  145.2890 C   0  0  0  0  0  3  0  0  0  0  0  0
  160.5880  204.1730  144.7520 C   0  0  0  0  0  2  0  0  0  0  0  0
  160.8250  202.7800  145.2920 C   0  0  0  0  0  2  0  0  0  0  0  0
  161.9650  208.2450  152.1780 C   0  0  0  0  0  2  0  0  0  0  0  0
  161.0290  208.2290  153.3840 C   0  0  0  0  0  2  0  0  0  0  0  0
  160.6420  209.6380  153.8450 C   0  0  2  0  0  0  0  0  0  0  0  0
  159.8310  211.1100  155.8560 C   0  0  0  0  0  1  0  0  0  0  0  0
  161.7860  210.4610  154.4100 C   0  0  0  0  0  2  0  0  0  0  0  0
  160.6840  209.9670  155.3310 C   0  0  2  0  0  0  0  0  0  0  0  0
  159.7110  210.4250  153.0380 N   0  0  0  0  0  2  0  0  0  0  0  0
  160.4540  211.3830  152.3360 N   0  0  0  0  0  2  0  0  0  0  0  0
  158.5880  213.2090  152.7630 S   0  0  0  0  0  0  0  0  0  0  0  0
  159.8370  212.5930  151.9140 C   0  0  0  0  0  3  0  0  0  0  0  0
  161.2100  208.9350  156.3150 C   0  0  0  0  0  2  0  0  0  0  0  0
  160.1740  208.4760  157.1250 O   0  0  0  0  0  0  0  0  0  0  0  0
  160.0550  207.2010  156.8190 O   0  0  0  0  0  1  0  0  0  0  0  0
  1  6  2  0  0  0  0
  2  4  1  0  0  0  0
  2  7  1  0  0  0  0
  3  9  1  0  0  0  0
  4 13  1  6  0  0  0
  4  9  1  0  0  0  0
  5  1  1  0  0  0  0
  7  8  1  0  0  0  0
  8  5  1  0  0  0  0
  9 11  1  0  0  0  0
 10  8  2  0  0  0  0
 11  1  1  0  0  0  0
 11 18  1  1  0  0  0
 12 14  1  0  0  0  0
 12 13  2  0  0  0  0
 15 17  1  0  0  0  0
 15 14  1  0  0  0  0
 16 15  1  0  0  0  0
 16 17  1  0  0  0  0
 18 19  1  0  0  0  0
 20 19  1  6  0  0  0
 20 22  1  0  0  0  0
 20 23  1  0  0  0  0
 22 23  1  0  0  0  0
 23 21  1  1  0  0  0
 23 28  1  0  0  0  0
 24 20  1  0  0  0  0
 25 24  1  0  0  0  0
 27 25  1  0  0  0  0
 27 26  2  0  0  0  0
 28 29  1  0  0  0  0
 30 29  1  0  0  0  0
M  END
>  <MODEL>
5

>  <REMARK>
 VINA RESULT:      -5.2      2.211      8.112
  Name = 
  11 active torsions:
  status: ('A' for Active; 'I' for Inactive)
    1  A    between atoms: C_1  and  C_4
    2  A    between atoms: C_1  and  C_22
    3  A    between atoms: C_4  and  N_5
    4  A    between atoms: N_5  and  N_21
    5  A    between atoms: C_10  and  C_25
    6  A    between atoms: C_11  and  C_24
    7  A    between atoms: C_12  and  C_27
    8  A    between atoms: O_13  and  C_27
    9  A    between atoms: C_15  and  C_25
   10  A    between atoms: C_17  and  N_21
   11  A    between atoms: C_22  and  C_29
                            x       y       z     vdW  Elec       q    Type
                         _______ _______ _______ _____ _____    ______ ____

>  <TORSDO>
F 11

$$$$
=
 OpenBabel11052422033D

 30 32  0  0  1  0  0  0  0  0999 V2000
  161.6860  210.0330  152.9290 C   0  0  0  0  0  0  0  0  0  0  0  0
  159.9540  210.0830  155.9990 C   0  0  0  0  0  2  0  0  0  0  0  0
  160.8140  207.3720  155.4220 C   0  0  0  0  0  1  0  0  0  0  0  0
  161.4150  209.6830  155.7280 C   0  0  2  0  0  3  0  0  0  0  0  0
  161.0190  211.2880  153.1420 N   0  0  0  0  0  2  0  0  0  0  0  0
  162.7830  210.0290  152.3090 O   0  0  0  0  0  0  0  0  0  0  0  0
  159.1880  210.4330  154.7260 C   0  0  0  0  0  2  0  0  0  0  0  0
  159.8600  211.5270  153.9550 C   0  0  0  0  0  0  0  0  0  0  0  0
  161.5830  208.4890  154.8700 N   0  0  0  0  0  0  0  0  0  0  0  0
  159.4030  212.6950  154.0400 O   0  0  0  0  0  0  0  0  0  0  0  0
  161.1340  208.7380  153.4870 C   0  0  2  0  0  3  0  0  0  0  0  0
  163.3330  210.1730  157.2510 C   0  0  0  0  0  3  0  0  0  0  0  0
  162.1760  209.5450  157.0150 C   0  0  0  0  0  3  0  0  0  0  0  0
  163.9750  211.0830  156.2530 C   0  0  0  0  0  2  0  0  0  0  0  0
  164.7720  212.1500  156.9720 C   0  0  0  0  0  3  0  0  0  0  0  0
  165.9340  212.5680  156.0960 C   0  0  0  0  0  2  0  0  0  0  0  0
  166.1630  211.6220  157.2540 C   0  0  0  0  0  2  0  0  0  0  0  0
  161.4970  207.5550  152.5830 C   0  0  0  0  0  2  0  0  0  0  0  0
  160.5330  207.4150  151.4080 C   0  0  0  0  0  2  0  0  0  0  0  0
  161.2000  206.8030  150.1730 C   0  0  2  0  0  0  0  0  0  0  0  0
  162.0000  207.2260  147.7120 C   0  0  0  0  0  1  0  0  0  0  0  0
  162.7090  206.9690  150.1130 C   0  0  0  0  0  2  0  0  0  0  0  0
  161.8260  207.7270  149.1360 C   0  0  2  0  0  0  0  0  0  0  0  0
  160.7450  205.5030  149.6830 N   0  0  0  0  0  2  0  0  0  0  0  0
  160.7070  204.6220  150.7720 N   0  0  0  0  0  2  0  0  0  0  0  0
  160.4790  202.5040  149.2050 S   0  0  0  0  0  0  0  0  0  0  0  0
  160.9660  203.2380  150.5770 C   0  0  0  0  0  3  0  0  0  0  0  0
  161.8770  209.2240  149.3960 C   0  0  0  0  0  2  0  0  0  0  0  0
  161.5890  209.9220  148.2260 O   0  0  0  0  0  0  0  0  0  0  0  0
  162.4140  210.9460  148.2400 O   0  0  0  0  0  1  0  0  0  0  0  0
  1  5  1  0  0  0  0
  1 11  1  0  0  0  0
  4  2  1  0  0  0  0
  4 13  1  1  0  0  0
  5  8  1  0  0  0  0
  6  1  2  0  0  0  0
  7  2  1  0  0  0  0
  8 10  2  0  0  0  0
  8  7  1  0  0  0  0
  9  3  1  0  0  0  0
  9  4  1  0  0  0  0
 11 18  1  6  0  0  0
 11  9  1  0  0  0  0
 13 12  2  0  0  0  0
 14 15  1  0  0  0  0
 14 12  1  0  0  0  0
 15 17  1  0  0  0  0
 16 15  1  0  0  0  0
 16 17  1  0  0  0  0
 19 18  1  0  0  0  0
 20 19  1  1  0  0  0
 22 20  1  0  0  0  0
 23 21  1  6  0  0  0
 23 28  1  0  0  0  0
 23 22  1  0  0  0  0
 23 20  1  0  0  0  0
 24 20  1  0  0  0  0
 24 25  1  0  0  0  0
 26 27  2  0  0  0  0
 27 25  1  0  0  0  0
 29 30  1  0  0  0  0
 29 28  1  0  0  0  0
M  END
>  <MODEL>
6

>  <REMARK>
 VINA RESULT:      -4.6      3.411      5.273
  Name = 
  11 active torsions:
  status: ('A' for Active; 'I' for Inactive)
    1  A    between atoms: C_1  and  C_4
    2  A    between atoms: C_1  and  C_22
    3  A    between atoms: C_4  and  N_5
    4  A    between atoms: N_5  and  N_21
    5  A    between atoms: C_10  and  C_25
    6  A    between atoms: C_11  and  C_24
    7  A    between atoms: C_12  and  C_27
    8  A    between atoms: O_13  and  C_27
    9  A    between atoms: C_15  and  C_25
   10  A    between atoms: C_17  and  N_21
   11  A    between atoms: C_22  and  C_29
                            x       y       z     vdW  Elec       q    Type
                         _______ _______ _______ _____ _____    ______ ____

>  <TORSDO>
F 11

$$$$
=
 OpenBabel11052422033D

 30 32  0  0  1  0  0  0  0  0999 V2000
  162.3980  205.6650  151.5540 C   0  0  0  0  0  0  0  0  0  0  0  0
  160.6840  205.2890  148.4970 C   0  0  0  0  0  2  0  0  0  0  0  0
  161.2070  208.1050  148.9680 C   0  0  0  0  0  1  0  0  0  0  0  0
  162.0850  205.8740  148.7460 C   0  0  2  0  0  3  0  0  0  0  0  0
  161.8900  204.3320  151.3920 N   0  0  0  0  0  2  0  0  0  0  0  0
  163.4870  205.8270  152.1680 O   0  0  0  0  0  0  0  0  0  0  0  0
  159.9670  204.8970  149.7860 C   0  0  0  0  0  2  0  0  0  0  0  0
  160.7670  203.9230  150.5940 C   0  0  0  0  0  0  0  0  0  0  0  0
  162.1070  207.1110  149.5570 N   0  0  0  0  0  0  0  0  0  0  0  0
  160.4560  202.7050  150.5550 O   0  0  0  0  0  0  0  0  0  0  0  0
  161.6920  206.8620  150.9510 C   0  0  2  0  0  3  0  0  0  0  0  0
  162.4540  205.4630  146.3100 C   0  0  0  0  0  3  0  0  0  0  0  0
  162.8230  206.0560  147.4510 C   0  0  0  0  0  3  0  0  0  0  0  0
  161.2610  204.5660  146.2160 C   0  0  0  0  0  2  0  0  0  0  0  0
  161.6840  203.2020  145.7140 C   0  0  0  0  0  3  0  0  0  0  0  0
  160.4550  202.4430  145.2610 C   0  0  0  0  0  2  0  0  0  0  0  0
  161.0800  202.1370  146.6040 C   0  0  0  0  0  2  0  0  0  0  0  0
  161.9080  208.1130  151.8080 C   0  0  0  0  0  2  0  0  0  0  0  0
  160.5960  208.6630  152.3600 C   0  0  0  0  0  2  0  0  0  0  0  0
  160.7360  210.0930  152.8920 C   0  0  2  0  0  0  0  0  0  0  0  0
  160.1810  211.7340  154.8590 C   0  0  0  0  0  1  0  0  0  0  0  0
  161.9600  210.3330  153.7590 C   0  0  0  0  0  2  0  0  0  0  0  0
  160.5760  210.3450  154.3850 C   0  0  2  0  0  0  0  0  0  0  0  0
  160.4230  211.2180  152.0120 N   0  0  0  0  0  2  0  0  0  0  0  0
  161.3570  211.2200  150.9670 N   0  0  0  0  0  0  0  0  0  0  0  0
  161.9870  211.8290  148.4720 S   0  0  0  0  0  1  0  0  0  0  0  0
  161.1940  212.1070  149.8690 C   0  0  0  0  0  3  0  0  0  0  0  0
  160.3900  209.1690  155.3300 C   0  0  0  0  0  2  0  0  0  0  0  0
  161.4640  209.0930  156.2150 O   0  0  0  0  0  0  0  0  0  0  0  0
  161.0310  208.3290  157.1950 O   0  0  0  0  0  1  0  0  0  0  0  0
  1  6  2  0  0  0  0
  2  4  1  0  0  0  0
  2  7  1  0  0  0  0
  3  9  1  0  0  0  0
  4 13  1  6  0  0  0
  4  9  1  0  0  0  0
  5  1  1  0  0  0  0
  7  8  1  0  0  0  0
  8  5  1  0  0  0  0
  9 11  1  0  0  0  0
 10  8  2  0  0  0  0
 11  1  1  0  0  0  0
 11 18  1  1  0  0  0
 12 13  2  0  0  0  0
 14 12  1  0  0  0  0
 15 14  1  0  0  0  0
 15 17  1  0  0  0  0
 16 15  1  0  0  0  0
 16 17  1  0  0  0  0
 18 19  1  0  0  0  0
 20 19  1  6  0  0  0
 20 22  1  0  0  0  0
 20 23  1  0  0  0  0
 22 23  1  0  0  0  0
 23 21  1  1  0  0  0
 23 28  1  0  0  0  0
 24 20  1  0  0  0  0
 25 24  1  0  0  0  0
 26 27  1  0  0  0  0
 27 25  2  0  0  0  0
 28 29  1  0  0  0  0
 29 30  1  0  0  0  0
M  END
>  <MODEL>
7

>  <REMARK>
 VINA RESULT:      -4.5      2.130      8.014
  Name = 
  11 active torsions:
  status: ('A' for Active; 'I' for Inactive)
    1  A    between atoms: C_1  and  C_4
    2  A    between atoms: C_1  and  C_22
    3  A    between atoms: C_4  and  N_5
    4  A    between atoms: N_5  and  N_21
    5  A    between atoms: C_10  and  C_25
    6  A    between atoms: C_11  and  C_24
    7  A    between atoms: C_12  and  C_27
    8  A    between atoms: O_13  and  C_27
    9  A    between atoms: C_15  and  C_25
   10  A    between atoms: C_17  and  N_21
   11  A    between atoms: C_22  and  C_29
                            x       y       z     vdW  Elec       q    Type
                         _______ _______ _______ _____ _____    ______ ____

>  <TORSDO>
F 11

$$$$
=
 OpenBabel11052422033D

 30 32  0  0  1  0  0  0  0  0999 V2000
  161.5480  209.1650  151.9310 C   0  0  0  0  0  0  0  0  0  0  0  0
  159.7080  209.6890  154.8930 C   0  0  0  0  0  2  0  0  0  0  0  0
  160.4680  206.8930  154.7120 C   0  0  0  0  0  1  0  0  0  0  0  0
  161.1580  209.2000  154.7380 C   0  0  2  0  0  3  0  0  0  0  0  0
  160.9300  210.4610  151.9500 N   0  0  0  0  0  2  0  0  0  0  0  0
  162.6660  209.0350  151.3650 O   0  0  0  0  0  0  0  0  0  0  0  0
  159.0060  209.8960  153.5520 C   0  0  0  0  0  2  0  0  0  0  0  0
  159.7530  210.8510  152.6740 C   0  0  0  0  0  0  0  0  0  0  0  0
  161.3060  207.8970  154.0520 N   0  0  0  0  0  0  0  0  0  0  0  0
  159.3450  212.0360  152.5860 O   0  0  0  0  0  0  0  0  0  0  0  0
  160.9200  207.9770  152.6300 C   0  0  2  0  0  3  0  0  0  0  0  0
  162.1190  210.3210  156.7520 C   0  0  0  0  0  3  0  0  0  0  0  0
  161.8640  209.2040  156.0630 C   0  0  0  0  0  3  0  0  0  0  0  0
  161.7150  211.6770  156.2680 C   0  0  0  0  0  2  0  0  0  0  0  0
  160.7130  212.2860  157.2270 C   0  0  0  0  0  3  0  0  0  0  0  0
  159.3180  212.0720  156.6790 C   0  0  0  0  0  2  0  0  0  0  0  0
  159.9890  213.4190  156.5320 C   0  0  0  0  0  2  0  0  0  0  0  0
  161.2630  206.6720  151.9060 C   0  0  0  0  0  2  0  0  0  0  0  0
  160.4430  206.4900  150.6320 C   0  0  0  0  0  2  0  0  0  0  0  0
  161.2530  205.8560  149.4980 C   0  0  2  0  0  0  0  0  0  0  0  0
  161.8960  205.9910  146.9600 C   0  0  0  0  0  1  0  0  0  0  0  0
  162.6530  206.4190  149.3220 C   0  0  0  0  0  2  0  0  0  0  0  0
  161.5910  206.6940  148.2720 C   0  0  2  0  0  0  0  0  0  0  0  0
  161.1830  204.4110  149.2890 N   0  0  0  0  0  2  0  0  0  0  0  0
  161.2920  203.7890  150.5400 N   0  0  0  0  0  2  0  0  0  0  0  0
  160.6050  201.5010  149.4050 S   0  0  0  0  0  0  0  0  0  0  0  0
  160.8510  202.4490  150.7090 C   0  0  0  0  0  3  0  0  0  0  0  0
  161.2160  208.1670  148.2430 C   0  0  0  0  0  2  0  0  0  0  0  0
  162.3600  208.9540  148.3600 O   0  0  0  0  0  0  0  0  0  0  0  0
  161.9130  210.1910  148.3530 O   0  0  0  0  0  1  0  0  0  0  0  0
  1  5  1  0  0  0  0
  1 11  1  0  0  0  0
  4  2  1  0  0  0  0
  4 13  1  1  0  0  0
  5  8  1  0  0  0  0
  6  1  2  0  0  0  0
  7  2  1  0  0  0  0
  8  7  1  0  0  0  0
  9  3  1  0  0  0  0
  9  4  1  0  0  0  0
 10  8  2  0  0  0  0
 11 18  1  6  0  0  0
 11  9  1  0  0  0  0
 13 12  2  0  0  0  0
 14 12  1  0  0  0  0
 14 15  1  0  0  0  0
 16 15  1  0  0  0  0
 17 16  1  0  0  0  0
 17 15  1  0  0  0  0
 19 18  1  0  0  0  0
 20 19  1  1  0  0  0
 22 20  1  0  0  0  0
 23 21  1  6  0  0  0
 23 22  1  0  0  0  0
 23 20  1  0  0  0  0
 24 20  1  0  0  0  0
 24 25  1  0  0  0  0
 25 27  1  0  0  0  0
 26 27  2  0  0  0  0
 28 23  1  0  0  0  0
 28 29  1  0  0  0  0
 30 29  1  0  0  0  0
M  END
>  <MODEL>
8

>  <REMARK>
 VINA RESULT:      -4.4      3.325      4.439
  Name = 
  11 active torsions:
  status: ('A' for Active; 'I' for Inactive)
    1  A    between atoms: C_1  and  C_4
    2  A    between atoms: C_1  and  C_22
    3  A    between atoms: C_4  and  N_5
    4  A    between atoms: N_5  and  N_21
    5  A    between atoms: C_10  and  C_25
    6  A    between atoms: C_11  and  C_24
    7  A    between atoms: C_12  and  C_27
    8  A    between atoms: O_13  and  C_27
    9  A    between atoms: C_15  and  C_25
   10  A    between atoms: C_17  and  N_21
   11  A    between atoms: C_22  and  C_29
                            x       y       z     vdW  Elec       q    Type
                         _______ _______ _______ _____ _____    ______ ____

>  <TORSDO>
F 11

$$$$
=
 OpenBabel11052422033D

 30 32  0  0  1  0  0  0  0  0999 V2000
  160.2000  205.7690  149.6530 C   0  0  0  0  0  0  0  0  0  0  0  0
  162.3600  206.8200  152.2340 C   0  0  0  0  0  2  0  0  0  0  0  0
  162.7130  208.5390  149.9220 C   0  0  0  0  0  1  0  0  0  0  0  0
  161.2190  207.6010  151.5600 C   0  0  2  0  0  3  0  0  0  0  0  0
  160.2570  204.8100  150.7210 N   0  0  0  0  0  2  0  0  0  0  0  0
  159.1160  205.9140  149.0280 O   0  0  0  0  0  0  0  0  0  0  0  0
  162.5790  205.4400  151.6180 C   0  0  0  0  0  2  0  0  0  0  0  0
  161.3320  204.6110  151.6520 C   0  0  0  0  0  0  0  0  0  0  0  0
  161.4210  207.8800  150.1210 N   0  0  0  0  0  0  0  0  0  0  0  0
  161.2190  203.7270  152.5380 O   0  0  0  0  0  0  0  0  0  0  0  0
  161.3860  206.6460  149.3120 C   0  0  2  0  0  3  0  0  0  0  0  0
  160.6910  208.8750  153.6420 C   0  0  0  0  0  3  0  0  0  0  0  0
  160.9120  208.8570  152.3230 C   0  0  0  0  0  3  0  0  0  0  0  0
  160.7370  207.6410  154.4850 C   0  0  0  0  0  2  0  0  0  0  0  0
  161.1660  207.9980  155.8920 C   0  0  0  0  0  3  0  0  0  0  0  0
  160.1130  207.5100  156.8650 C   0  0  0  0  0  2  0  0  0  0  0  0
  160.1690  208.9720  156.4810 C   0  0  0  0  0  2  0  0  0  0  0  0
  161.4060  206.9830  147.8180 C   0  0  0  0  0  2  0  0  0  0  0  0
  162.3510  206.0750  147.0370 C   0  0  0  0  0  2  0  0  0  0  0  0
  161.6550  204.8130  146.5160 C   0  0  2  0  0  0  0  0  0  0  0  0
  160.1820  203.7860  144.6070 C   0  0  0  0  0  1  0  0  0  0  0  0
  162.4950  203.9610  145.5820 C   0  0  0  0  0  2  0  0  0  0  0  0
  161.2990  204.7220  145.0390 C   0  0  2  0  0  0  0  0  0  0  0  0
  160.8270  204.0240  147.4270 N   0  0  0  0  0  2  0  0  0  0  0  0
  161.6200  202.9900  147.9420 N   0  0  0  0  0  2  0  0  0  0  0  0
  160.8230  201.3130  149.8270 S   0  0  0  0  0  0  0  0  0  0  0  0
  161.0330  201.7370  148.2660 C   0  0  0  0  0  3  0  0  0  0  0  0
  161.7340  205.8280  144.0910 C   0  0  0  0  0  2  0  0  0  0  0  0
  161.2070  205.6040  142.8210 O   0  0  0  0  0  0  0  0  0  0  0  0
  161.9560  206.3290  142.0190 O   0  0  0  0  0  1  0  0  0  0  0  0
  1  5  1  0  0  0  0
  3  9  1  0  0  0  0
  4  2  1  0  0  0  0
  4 13  1  1  0  0  0
  5  8  1  0  0  0  0
  6  1  2  0  0  0  0
  7  8  1  0  0  0  0
  7  2  1  0  0  0  0
  8 10  2  0  0  0  0
  9  4  1  0  0  0  0
 11 18  1  6  0  0  0
 11  1  1  0  0  0  0
 11  9  1  0  0  0  0
 12 14  1  0  0  0  0
 13 12  2  0  0  0  0
 14 15  1  0  0  0  0
 15 17  1  0  0  0  0
 15 16  1  0  0  0  0
 17 16  1  0  0  0  0
 19 18  1  0  0  0  0
 20 19  1  1  0  0  0
 20 24  1  0  0  0  0
 22 20  1  0  0  0  0
 23 21  1  6  0  0  0
 23 22  1  0  0  0  0
 23 20  1  0  0  0  0
 24 25  1  0  0  0  0
 25 27  1  0  0  0  0
 27 26  2  0  0  0  0
 28 23  1  0  0  0  0
 29 28  1  0  0  0  0
 30 29  1  0  0  0  0
M  END
>  <MODEL>
9

>  <REMARK>
 VINA RESULT:      -4.3      3.628      5.524
  Name = 
  11 active torsions:
  status: ('A' for Active; 'I' for Inactive)
    1  A    between atoms: C_1  and  C_4
    2  A    between atoms: C_1  and  C_22
    3  A    between atoms: C_4  and  N_5
    4  A    between atoms: N_5  and  N_21
    5  A    between atoms: C_10  and  C_25
    6  A    between atoms: C_11  and  C_24
    7  A    between atoms: C_12  and  C_27
    8  A    between atoms: O_13  and  C_27
    9  A    between atoms: C_15  and  C_25
   10  A    between atoms: C_17  and  N_21
   11  A    between atoms: C_22  and  C_29
                            x       y       z     vdW  Elec       q    Type
                         _______ _______ _______ _____ _____    ______ ____

>  <TORSDO>
F 11

$$$$
