=
 OpenBabel11052421453D

 30 32  0  0  1  0  0  0  0  0999 V2000
  158.9110  211.8400  140.3890 C   0  0  1  0  0  3  0  0  0  0  0  0
  160.3760  211.8180  139.8430 C   0  0  2  0  0  3  0  0  0  0  0  0
  158.6720  212.9120  141.3520 N   0  0  0  0  0  2  0  0  0  0  0  0
  161.9730  212.7650  143.1090 C   0  0  0  0  0  2  0  0  0  0  0  0
  160.9870  213.1410  141.9890 C   0  0  2  0  0  3  0  0  0  0  0  0
  159.2150  213.3690  143.5960 O   0  0  0  0  0  0  0  0  0  0  0  0
  159.6030  212.6800  142.4350 C   0  0  1  0  0  3  0  0  0  0  0  0
  161.3610  212.5300  140.7010 N   0  0  0  0  0  0  0  0  0  0  0  0
  161.4680  213.2890  144.4510 C   0  0  0  0  0  2  0  0  0  0  0  0
  160.0120  212.8570  144.6320 C   0  0  0  0  0  2  0  0  0  0  0  0
  163.4240  213.6670  140.4680 N   0  0  0  0  0  2  0  0  0  0  0  0
  162.7410  212.5770  140.3090 C   0  0  0  0  0  0  0  0  0  0  0  0
  157.0760  210.4780  139.2800 C   0  0  1  0  0  3  0  0  0  0  0  0
  155.6660  210.6630  138.7010 C   0  0  0  0  0  2  0  0  0  0  0  0
  157.7780  209.5890  138.4670 O   0  0  0  0  0  1  0  0  0  0  0  0
  156.8680  213.0060  139.4290 C   0  0  0  0  0  2  0  0  0  0  0  0
  156.0280  213.9980  137.3120 C   0  0  0  0  0  1  0  0  0  0  0  0
  157.8250  211.8140  139.3060 C   0  0  1  0  0  3  0  0  0  0  0  0
  155.6730  211.6680  137.7080 O   0  0  0  0  0  0  0  0  0  0  0  0
  155.7590  212.9320  138.3540 C   0  0  1  0  0  3  0  0  0  0  0  0
  163.3460  211.4330  139.7850 O   0  0  0  0  0  0  0  0  0  0  0  0
  164.4410  211.4980  138.8810 C   0  0  0  0  0  1  0  0  0  0  0  0
  160.5010  212.0880  138.3050 C   0  0  1  0  0  3  0  0  0  0  0  0
  159.8980  214.1770  137.0790 C   0  0  0  0  0  1  0  0  0  0  0  0
  161.0100  213.4630  137.8430 C   0  0  2  0  0  3  0  0  0  0  0  0
  162.1260  213.3300  137.0110 O   0  0  0  0  0  0  0  0  0  0  0  0
  162.9030  214.4530  137.2830 C   0  0  0  0  0  1  0  0  0  0  0  0
  161.0660  210.9040  137.5060 C   0  0  0  0  0  2  0  0  0  0  0  0
  161.0160  209.5880  138.2780 C   0  0  0  0  0  2  0  0  0  0  0  0
  161.1570  208.4330  137.3080 C   0  0  0  0  0  1  0  0  0  0  0  0
  1  3  1  6  0  0  0
  2 23  1  6  0  0  0
  2  1  1  0  0  0  0
  2  8  1  0  0  0  0
  4  9  1  0  0  0  0
  5  7  1  0  0  0  0
  5  4  1  1  0  0  0
  6 10  1  0  0  0  0
  7  3  1  6  0  0  0
  7  6  1  0  0  0  0
  8  5  1  0  0  0  0
  9 10  1  0  0  0  0
 12 11  2  0  0  0  0
 12  8  1  0  0  0  0
 13 15  1  6  0  0  0
 13 18  1  0  0  0  0
 14 13  1  0  0  0  0
 18 16  1  1  0  0  0
 18  1  1  0  0  0  0
 19 20  1  0  0  0  0
 19 14  1  0  0  0  0
 20 17  1  6  0  0  0
 20 16  1  0  0  0  0
 21 12  1  0  0  0  0
 22 21  1  0  0  0  0
 23 28  1  1  0  0  0
 25 24  1  6  0  0  0
 25 23  1  0  0  0  0
 26 27  1  0  0  0  0
 26 25  1  0  0  0  0
 28 29  1  0  0  0  0
 30 29  1  0  0  0  0
M  END
>  <MODEL>
1

>  <REMARK>
 VINA RESULT:      -3.1      0.000      0.000
  Name = 
  7 active torsions:
  status: ('A' for Active; 'I' for Inactive)
    1  A    between atoms: C_1  and  C_22
    2  A    between atoms: C_4  and  C_23
    3  A    between atoms: O_7  and  C_30
    4  A    between atoms: C_10  and  C_15
    5  A    between atoms: C_10  and  C_23
    6  A    between atoms: O_11  and  C_25
    7  A    between atoms: C_23  and  C_25
                            x       y       z     vdW  Elec       q    Type
                         _______ _______ _______ _____ _____    ______ ____

>  <TORSDO>
F 7

$$$$
=
 OpenBabel11052421453D

 30 32  0  0  1  0  0  0  0  0999 V2000
  158.5320  210.8330  139.4090 C   0  0  1  0  0  3  0  0  0  0  0  0
  157.8090  212.2200  139.4390 C   0  0  2  0  0  3  0  0  0  0  0  0
  158.0050  209.9320  138.3870 N   0  0  0  0  0  2  0  0  0  0  0  0
  154.3900  210.8400  138.7190 C   0  0  0  0  0  2  0  0  0  0  0  0
  155.8480  211.0020  138.2550 C   0  0  2  0  0  3  0  0  0  0  0  0
  156.0790  208.6180  138.0720 O   0  0  0  0  0  0  0  0  0  0  0  0
  156.6050  209.7570  138.7040 C   0  0  1  0  0  3  0  0  0  0  0  0
  156.4640  212.2240  138.8030 N   0  0  0  0  0  0  0  0  0  0  0  0
  153.8400  209.4930  138.2580 C   0  0  0  0  0  2  0  0  0  0  0  0
  154.8250  208.3940  138.6620 C   0  0  0  0  0  2  0  0  0  0  0  0
  155.0230  213.7500  137.7090 N   0  0  0  0  0  2  0  0  0  0  0  0
  155.6990  213.4380  138.7700 C   0  0  0  0  0  0  0  0  0  0  0  0
  160.7140  210.4210  140.6420 C   0  0  1  0  0  3  0  0  0  0  0  0
  162.1360  209.9090  140.3700 C   0  0  0  0  0  2  0  0  0  0  0  0
  160.7880  211.4880  141.5360 O   0  0  0  0  0  1  0  0  0  0  0  0
  160.6200  210.1890  138.1140 C   0  0  0  0  0  2  0  0  0  0  0  0
  162.5990  211.2070  137.0110 C   0  0  0  0  0  1  0  0  0  0  0  0
  160.0620  210.9120  139.3450 C   0  0  1  0  0  3  0  0  0  0  0  0
  162.7350  210.6590  139.3330 O   0  0  0  0  0  0  0  0  0  0  0  0
  162.1650  210.2450  138.0980 C   0  0  1  0  0  3  0  0  0  0  0  0
  155.6640  214.2600  139.8980 O   0  0  0  0  0  0  0  0  0  0  0  0
  154.5630  214.2730  140.7960 C   0  0  0  0  0  1  0  0  0  0  0  0
  158.7270  213.4390  139.0870 C   0  0  1  0  0  3  0  0  0  0  0  0
  160.6750  214.1430  140.4800 C   0  0  0  0  0  1  0  0  0  0  0  0
  159.1860  214.3630  140.2270 C   0  0  2  0  0  3  0  0  0  0  0  0
  158.4760  214.0950  141.4030 O   0  0  0  0  0  0  0  0  0  0  0  0
  159.3870  214.3430  142.4270 C   0  0  0  0  0  1  0  0  0  0  0  0
  159.8170  213.1220  138.0530 C   0  0  0  0  0  2  0  0  0  0  0  0
  160.1360  214.3060  137.1420 C   0  0  0  0  0  2  0  0  0  0  0  0
  161.6390  214.4530  137.0210 C   0  0  0  0  0  1  0  0  0  0  0  0
  1  3  1  6  0  0  0
  1  2  1  0  0  0  0
  2 23  1  6  0  0  0
  3  7  1  0  0  0  0
  5  7  1  0  0  0  0
  5  4  1  1  0  0  0
  5  8  1  0  0  0  0
  6 10  1  0  0  0  0
  7  6  1  6  0  0  0
  8  2  1  0  0  0  0
  9 10  1  0  0  0  0
  9  4  1  0  0  0  0
 11 12  2  0  0  0  0
 12  8  1  0  0  0  0
 12 21  1  0  0  0  0
 13 15  1  1  0  0  0
 14 13  1  0  0  0  0
 18 16  1  6  0  0  0
 18  1  1  0  0  0  0
 18 13  1  0  0  0  0
 19 14  1  0  0  0  0
 20 17  1  6  0  0  0
 20 16  1  0  0  0  0
 20 19  1  0  0  0  0
 21 22  1  0  0  0  0
 23 28  1  1  0  0  0
 23 25  1  0  0  0  0
 25 24  1  1  0  0  0
 25 26  1  0  0  0  0
 26 27  1  0  0  0  0
 29 28  1  0  0  0  0
 30 29  1  0  0  0  0
M  END
>  <MODEL>
2

>  <REMARK>
 VINA RESULT:      -1.7      2.469      6.343
  Name = 
  7 active torsions:
  status: ('A' for Active; 'I' for Inactive)
    1  A    between atoms: C_1  and  C_22
    2  A    between atoms: C_4  and  C_23
    3  A    between atoms: O_7  and  C_30
    4  A    between atoms: C_10  and  C_15
    5  A    between atoms: C_10  and  C_23
    6  A    between atoms: O_11  and  C_25
    7  A    between atoms: C_23  and  C_25
                            x       y       z     vdW  Elec       q    Type
                         _______ _______ _______ _____ _____    ______ ____

>  <TORSDO>
F 7

$$$$
=
 OpenBabel11052421453D

 30 32  0  0  1  0  0  0  0  0999 V2000
  161.7130  209.5430  151.6310 C   0  0  1  0  0  3  0  0  0  0  0  0
  161.4860  209.3360  153.1650 C   0  0  2  0  0  3  0  0  0  0  0  0
  160.9840  208.5830  150.8070 N   0  0  0  0  0  2  0  0  0  0  0  0
  161.4330  205.5830  152.9990 C   0  0  0  0  0  2  0  0  0  0  0  0
  160.8080  206.9110  152.5370 C   0  0  2  0  0  3  0  0  0  0  0  0
  161.1660  206.3060  150.2390 O   0  0  0  0  0  0  0  0  0  0  0  0
  161.4620  207.2780  151.2090 C   0  0  1  0  0  3  0  0  0  0  0  0
  160.9950  207.9800  153.5340 N   0  0  0  0  0  0  0  0  0  0  0  0
  161.3530  204.5480  151.8790 C   0  0  0  0  0  2  0  0  0  0  0  0
  161.9070  205.1680  150.5950 C   0  0  0  0  0  2  0  0  0  0  0  0
  159.7160  206.9600  155.2450 N   0  0  0  0  0  2  0  0  0  0  0  0
  160.7520  207.6650  154.9130 C   0  0  0  0  0  0  0  0  0  0  0  0
  161.8900  211.1510  149.6730 C   0  0  1  0  0  3  0  0  0  0  0  0
  161.1130  212.3110  149.0340 C   0  0  0  0  0  2  0  0  0  0  0  0
  163.2520  211.4410  149.6150 O   0  0  0  0  0  1  0  0  0  0  0  0
  160.0540  211.4530  151.4030 C   0  0  0  0  0  2  0  0  0  0  0  0
  159.7550  213.8370  152.0360 C   0  0  0  0  0  1  0  0  0  0  0  0
  161.4880  210.9790  151.1420 C   0  0  1  0  0  3  0  0  0  0  0  0
  160.8780  213.3250  149.9890 O   0  0  0  0  0  0  0  0  0  0  0  0
  159.8430  212.8860  150.8600 C   0  0  1  0  0  3  0  0  0  0  0  0
  161.6550  208.0960  155.8860 O   0  0  0  0  0  0  0  0  0  0  0  0
  161.3050  208.1870  157.2610 C   0  0  0  0  0  1  0  0  0  0  0  0
  160.7730  210.5310  153.8850 C   0  0  1  0  0  3  0  0  0  0  0  0
  158.3820  211.2310  153.7410 C   0  0  0  0  0  1  0  0  0  0  0  0
  159.3630  210.3050  154.4540 C   0  0  2  0  0  3  0  0  0  0  0  0
  159.3300  210.5710  155.8280 O   0  0  0  0  0  0  0  0  0  0  0  0
  158.0450  211.0530  156.0610 C   0  0  0  0  0  1  0  0  0  0  0  0
  161.6980  211.3540  154.7930 C   0  0  0  0  0  2  0  0  0  0  0  0
  163.0350  210.6670  155.0590 C   0  0  0  0  0  2  0  0  0  0  0  0
  163.5080  211.0160  156.4560 C   0  0  0  0  0  1  0  0  0  0  0  0
  1  3  1  6  0  0  0
  1  2  1  0  0  0  0
  2  8  1  0  0  0  0
  2 23  1  6  0  0  0
  3  7  1  0  0  0  0
  5  4  1  1  0  0  0
  5  8  1  0  0  0  0
  6 10  1  0  0  0  0
  7  6  1  6  0  0  0
  7  5  1  0  0  0  0
  8 12  1  0  0  0  0
  9  4  1  0  0  0  0
 10  9  1  0  0  0  0
 12 11  2  0  0  0  0
 12 21  1  0  0  0  0
 13 15  1  1  0  0  0
 13 18  1  0  0  0  0
 14 13  1  0  0  0  0
 14 19  1  0  0  0  0
 18 16  1  6  0  0  0
 18  1  1  0  0  0  0
 19 20  1  0  0  0  0
 20 16  1  0  0  0  0
 20 17  1  1  0  0  0
 21 22  1  0  0  0  0
 23 25  1  0  0  0  0
 23 28  1  1  0  0  0
 25 24  1  6  0  0  0
 25 26  1  0  0  0  0
 26 27  1  0  0  0  0
 28 29  1  0  0  0  0
 29 30  1  0  0  0  0
M  END
>  <MODEL>
3

>  <REMARK>
 VINA RESULT:      -1.3     10.442     14.582
  Name = 
  7 active torsions:
  status: ('A' for Active; 'I' for Inactive)
    1  A    between atoms: C_1  and  C_22
    2  A    between atoms: C_4  and  C_23
    3  A    between atoms: O_7  and  C_30
    4  A    between atoms: C_10  and  C_15
    5  A    between atoms: C_10  and  C_23
    6  A    between atoms: O_11  and  C_25
    7  A    between atoms: C_23  and  C_25
                            x       y       z     vdW  Elec       q    Type
                         _______ _______ _______ _____ _____    ______ ____

>  <TORSDO>
F 7

$$$$
=
 OpenBabel11052421453D

 30 32  0  0  1  0  0  0  0  0999 V2000
  160.4380  209.7040  152.3990 C   0  0  1  0  0  3  0  0  0  0  0  0
  159.4990  210.9540  152.4450 C   0  0  2  0  0  3  0  0  0  0  0  0
  161.7810  210.0110  151.9150 N   0  0  0  0  0  2  0  0  0  0  0  0
  160.8210  212.4930  149.2830 C   0  0  0  0  0  2  0  0  0  0  0  0
  161.1220  211.9920  150.7060 C   0  0  2  0  0  3  0  0  0  0  0  0
  162.8020  210.5030  149.8520 O   0  0  0  0  0  0  0  0  0  0  0  0
  161.6040  210.5500  150.5840 C   0  0  1  0  0  3  0  0  0  0  0  0
  159.9380  212.0830  151.5800 N   0  0  0  0  0  0  0  0  0  0  0  0
  162.0210  212.2400  148.3740 C   0  0  0  0  0  2  0  0  0  0  0  0
  162.4520  210.7800  148.5210 C   0  0  0  0  0  2  0  0  0  0  0  0
  159.7450  214.4410  151.5050 N   0  0  0  0  0  2  0  0  0  0  0  0
  159.1560  213.2860  151.5330 C   0  0  0  0  0  0  0  0  0  0  0  0
  161.0980  207.5060  153.4860 C   0  0  1  0  0  3  0  0  0  0  0  0
  161.7160  206.9820  154.7910 C   0  0  0  0  0  2  0  0  0  0  0  0
  160.0870  206.6310  153.0900 O   0  0  0  0  0  1  0  0  0  0  0  0
  161.1930  209.6630  154.8230 C   0  0  0  0  0  2  0  0  0  0  0  0
  160.2950  209.3760  157.1220 C   0  0  0  0  0  1  0  0  0  0  0  0
  160.4880  208.8950  153.7000 C   0  0  1  0  0  3  0  0  0  0  0  0
  160.9680  207.4350  155.9010 O   0  0  0  0  0  0  0  0  0  0  0  0
  161.2690  208.8080  156.1100 C   0  0  1  0  0  3  0  0  0  0  0  0
  157.7640  213.2000  151.4880 O   0  0  0  0  0  0  0  0  0  0  0  0
  156.9900  213.9090  150.5300 C   0  0  0  0  0  1  0  0  0  0  0  0
  159.0160  211.3520  153.8810 C   0  0  1  0  0  3  0  0  0  0  0  0
  160.2130  212.3630  155.8240 C   0  0  0  0  0  1  0  0  0  0  0  0
  159.5360  212.6650  154.4900 C   0  0  2  0  0  3  0  0  0  0  0  0
  158.4890  213.5680  154.7000 O   0  0  0  0  0  0  0  0  0  0  0  0
  158.9240  214.3710  155.7510 C   0  0  0  0  0  1  0  0  0  0  0  0
  157.5260  211.0840  154.1360 C   0  0  0  0  0  2  0  0  0  0  0  0
  157.2340  210.6630  155.5740 C   0  0  0  0  0  2  0  0  0  0  0  0
  155.7420  210.7460  155.8270 C   0  0  0  0  0  1  0  0  0  0  0  0
  1  3  1  1  0  0  0
  1  2  1  0  0  0  0
  1 18  1  0  0  0  0
  2 23  1  1  0  0  0
  5  4  1  6  0  0  0
  5  8  1  0  0  0  0
  7  6  1  1  0  0  0
  7  5  1  0  0  0  0
  7  3  1  0  0  0  0
  8  2  1  0  0  0  0
  9 10  1  0  0  0  0
  9  4  1  0  0  0  0
 10  6  1  0  0  0  0
 11 12  2  0  0  0  0
 12  8  1  0  0  0  0
 13 15  1  1  0  0  0
 13 18  1  0  0  0  0
 13 14  1  0  0  0  0
 14 19  1  0  0  0  0
 16 20  1  0  0  0  0
 18 16  1  1  0  0  0
 19 20  1  0  0  0  0
 20 17  1  1  0  0  0
 21 12  1  0  0  0  0
 22 21  1  0  0  0  0
 23 28  1  6  0  0  0
 23 25  1  0  0  0  0
 25 26  1  0  0  0  0
 25 24  1  1  0  0  0
 26 27  1  0  0  0  0
 28 29  1  0  0  0  0
 29 30  1  0  0  0  0
M  END
>  <MODEL>
4

>  <REMARK>
 VINA RESULT:      -1.2     10.180     14.684
  Name = 
  7 active torsions:
  status: ('A' for Active; 'I' for Inactive)
    1  A    between atoms: C_1  and  C_22
    2  A    between atoms: C_4  and  C_23
    3  A    between atoms: O_7  and  C_30
    4  A    between atoms: C_10  and  C_15
    5  A    between atoms: C_10  and  C_23
    6  A    between atoms: O_11  and  C_25
    7  A    between atoms: C_23  and  C_25
                            x       y       z     vdW  Elec       q    Type
                         _______ _______ _______ _____ _____    ______ ____

>  <TORSDO>
F 7

$$$$
=
 OpenBabel11052421453D

 30 32  0  0  1  0  0  0  0  0999 V2000
  160.6290  210.2970  153.1530 C   0  0  1  0  0  3  0  0  0  0  0  0
  159.7170  211.5290  152.8410 C   0  0  2  0  0  3  0  0  0  0  0  0
  161.9200  210.3510  152.4740 N   0  0  0  0  0  2  0  0  0  0  0  0
  160.7340  211.8040  149.2350 C   0  0  0  0  0  2  0  0  0  0  0  0
  161.1700  211.8160  150.7110 C   0  0  2  0  0  3  0  0  0  0  0  0
  162.7350  210.0430  150.2870 O   0  0  0  0  0  0  0  0  0  0  0  0
  161.6180  210.4010  151.0600 C   0  0  1  0  0  3  0  0  0  0  0  0
  160.0820  212.2630  151.5990 N   0  0  0  0  0  0  0  0  0  0  0  0
  161.8330  211.1920  148.3690 C   0  0  0  0  0  2  0  0  0  0  0  0
  162.2570  209.8560  148.9810 C   0  0  0  0  0  2  0  0  0  0  0  0
  159.9150  214.4530  150.7180 N   0  0  0  0  0  2  0  0  0  0  0  0
  159.3160  213.4110  151.2030 C   0  0  0  0  0  0  0  0  0  0  0  0
  159.9560  208.7870  155.0820 C   0  0  1  0  0  3  0  0  0  0  0  0
  160.5760  208.1140  156.3150 C   0  0  0  0  0  2  0  0  0  0  0  0
  158.6780  209.2350  155.4130 O   0  0  0  0  0  1  0  0  0  0  0  0
  162.2740  209.8270  155.0310 C   0  0  0  0  0  2  0  0  0  0  0  0
  162.9580  210.6870  157.2590 C   0  0  0  0  0  1  0  0  0  0  0  0
  160.7990  209.9910  154.6460 C   0  0  1  0  0  3  0  0  0  0  0  0
  161.1910  209.0810  157.1410 O   0  0  0  0  0  0  0  0  0  0  0  0
  162.4140  209.4750  156.5310 C   0  0  1  0  0  3  0  0  0  0  0  0
  157.9260  213.3820  151.3150 O   0  0  0  0  0  0  0  0  0  0  0  0
  157.0680  213.6400  150.2110 C   0  0  0  0  0  1  0  0  0  0  0  0
  159.3870  212.4250  154.0830 C   0  0  1  0  0  3  0  0  0  0  0  0
  157.1100  211.4360  153.8240 C   0  0  0  0  0  1  0  0  0  0  0  0
  157.9350  212.4670  154.5890 C   0  0  2  0  0  3  0  0  0  0  0  0
  157.3760  213.7350  154.3990 O   0  0  0  0  0  0  0  0  0  0  0  0
  156.2540  213.7500  155.2230 C   0  0  0  0  0  1  0  0  0  0  0  0
  160.4420  212.3640  155.1960 C   0  0  0  0  0  2  0  0  0  0  0  0
  159.9070  212.8250  156.5490 C   0  0  0  0  0  2  0  0  0  0  0  0
  160.2200  214.2960  156.7360 C   0  0  0  0  0  1  0  0  0  0  0  0
  1  3  1  1  0  0  0
  1 18  1  0  0  0  0
  2  1  1  0  0  0  0
  2 23  1  1  0  0  0
  5  4  1  6  0  0  0
  5  7  1  0  0  0  0
  5  8  1  0  0  0  0
  7  6  1  6  0  0  0
  7  3  1  0  0  0  0
  8  2  1  0  0  0  0
  9 10  1  0  0  0  0
  9  4  1  0  0  0  0
 10  6  1  0  0  0  0
 11 12  2  0  0  0  0
 12 21  1  0  0  0  0
 12  8  1  0  0  0  0
 13 15  1  1  0  0  0
 13 14  1  0  0  0  0
 14 19  1  0  0  0  0
 16 20  1  0  0  0  0
 18 16  1  6  0  0  0
 18 13  1  0  0  0  0
 20 19  1  0  0  0  0
 20 17  1  1  0  0  0
 22 21  1  0  0  0  0
 23 25  1  0  0  0  0
 23 28  1  1  0  0  0
 25 24  1  6  0  0  0
 26 25  1  0  0  0  0
 26 27  1  0  0  0  0
 28 29  1  0  0  0  0
 29 30  1  0  0  0  0
M  END
>  <MODEL>
5

>  <REMARK>
 VINA RESULT:      -0.8     10.169     15.061
  Name = 
  7 active torsions:
  status: ('A' for Active; 'I' for Inactive)
    1  A    between atoms: C_1  and  C_22
    2  A    between atoms: C_4  and  C_23
    3  A    between atoms: O_7  and  C_30
    4  A    between atoms: C_10  and  C_15
    5  A    between atoms: C_10  and  C_23
    6  A    between atoms: O_11  and  C_25
    7  A    between atoms: C_23  and  C_25
                            x       y       z     vdW  Elec       q    Type
                         _______ _______ _______ _____ _____    ______ ____

>  <TORSDO>
F 7

$$$$
