=
 OpenBabel11052423153D

 27 31  0  0  1  0  0  0  0  0999 V2000
  161.6470  210.0220  154.5170 C   0  0  1  0  0  3  0  0  0  0  0  0
  159.8730  207.5340  157.0520 C   0  0  0  0  0  3  0  0  0  0  0  0
  161.3650  208.5620  154.8760 C   0  0  1  0  0  0  0  0  0  0  0  0
  159.9890  207.9820  154.6510 C   0  0  0  0  0  3  0  0  0  0  0  0
  162.2650  208.8690  153.6800 C   0  0  1  0  0  3  0  0  0  0  0  0
  159.2960  207.5200  155.6920 C   0  0  0  0  0  3  0  0  0  0  0  0
  161.1630  207.8270  157.2570 C   0  0  0  0  0  3  0  0  0  0  0  0
  162.1140  208.0770  156.1160 C   0  0  0  0  0  2  0  0  0  0  0  0
  161.6260  208.6810  152.3720 N   0  0  0  0  0  0  0  0  0  0  0  0
  163.0330  210.1280  151.1340 O   0  0  0  0  0  0  0  0  0  0  0  0
  161.0330  205.7840  148.6540 C   0  0  0  0  0  3  0  0  0  0  0  0
  161.8380  206.3670  147.7630 C   0  0  0  0  0  3  0  0  0  0  0  0
  160.8960  207.4720  151.9860 C   0  0  0  0  0  2  0  0  0  0  0  0
  162.0480  208.7350  148.6140 C   0  0  0  0  0  0  0  0  0  0  0  0
  162.3840  210.0090  148.2950 F   0  0  0  0  0  0  0  0  0  0  0  0
  161.7580  208.4210  150.0290 C   0  0  0  0  0  0  0  0  0  0  0  0
  162.1070  207.8150  147.6410 C   0  0  0  0  0  3  0  0  0  0  0  0
  160.9990  207.4370  150.4890 C   0  0  0  0  0  0  0  0  0  0  0  0
  162.1980  209.1850  151.1730 C   0  0  0  0  0  0  0  0  0  0  0  0
  160.1850  206.5300  149.6320 C   0  0  0  0  0  2  0  0  0  0  0  0
  158.4010  212.2430  152.1350 C   0  0  0  0  0  3  0  0  0  0  0  0
  157.6720  211.2540  152.9800 C   0  0  0  0  0  2  0  0  0  0  0  0
  160.4790  210.7720  153.9170 C   0  0  0  0  0  0  0  0  0  0  0  0
  159.7280  212.2610  152.0130 C   0  0  0  0  0  3  0  0  0  0  0  0
  158.0950  211.3490  154.4070 C   0  0  0  0  0  3  0  0  0  0  0  0
  159.3410  211.1030  154.8080 C   0  0  0  0  0  3  0  0  0  0  0  0
  160.6670  211.3780  152.7330 C   0  0  0  0  0  3  0  0  0  0  0  0
  1 23  1  6  0  0  0
  1  3  1  0  0  0  0
  2  7  2  0  0  0  0
  3  4  1  6  0  0  0
  3  8  1  0  0  0  0
  4  6  2  0  0  0  0
  5  9  1  6  0  0  0
  5  1  1  0  0  0  0
  5  3  1  0  0  0  0
  6  2  1  0  0  0  0
  8  7  1  0  0  0  0
 10 19  2  0  0  0  0
 11 20  1  0  0  0  0
 12 11  2  0  0  0  0
 13  9  1  0  0  0  0
 14 16  1  0  0  0  0
 15 14  1  0  0  0  0
 16 18  2  0  0  0  0
 16 19  1  0  0  0  0
 17 12  1  0  0  0  0
 17 14  2  0  0  0  0
 18 13  1  0  0  0  0
 19  9  1  0  0  0  0
 20 18  1  0  0  0  0
 21 22  1  0  0  0  0
 22 25  1  0  0  0  0
 23 26  1  0  0  0  0
 24 21  2  0  0  0  0
 24 27  1  0  0  0  0
 25 26  2  0  0  0  0
 27 23  2  0  0  0  0
M  END
>  <MODEL>
1

>  <REMARK>
 VINA RESULT:      -4.8      0.000      0.000
  Name = 
  2 active torsions:
  status: ('A' for Active; 'I' for Inactive)
    1  A    between atoms: C_1  and  C_18
    2  A    between atoms: N_2  and  C_15
                            x       y       z     vdW  Elec       q    Type
                         _______ _______ _______ _____ _____    ______ ____

>  <TORSDO>
F 2

$$$$
=
 OpenBabel11052423153D

 27 31  0  0  1  0  0  0  0  0999 V2000
  161.5980  211.0150  154.0740 C   0  0  1  0  0  3  0  0  0  0  0  0
  160.3720  208.9810  157.2550 C   0  0  0  0  0  3  0  0  0  0  0  0
  161.5440  209.6520  154.7660 C   0  0  1  0  0  0  0  0  0  0  0  0
  160.2450  208.8820  154.8160 C   0  0  0  0  0  3  0  0  0  0  0  0
  162.3010  209.7810  153.4460 C   0  0  1  0  0  3  0  0  0  0  0  0
  159.7010  208.5910  155.9980 C   0  0  0  0  0  3  0  0  0  0  0  0
  161.6220  209.4590  157.2580 C   0  0  0  0  0  3  0  0  0  0  0  0
  162.4420  209.5510  155.9980 C   0  0  0  0  0  2  0  0  0  0  0  0
  161.5970  209.2280  152.2830 N   0  0  0  0  0  0  0  0  0  0  0  0
  162.7300  210.4760  150.6190 O   0  0  0  0  0  0  0  0  0  0  0  0
  161.0880  205.4950  149.3890 C   0  0  0  0  0  3  0  0  0  0  0  0
  161.7520  205.9290  148.3160 C   0  0  0  0  0  3  0  0  0  0  0  0
  160.9900  207.8960  152.2520 C   0  0  0  0  0  2  0  0  0  0  0  0
  161.7390  208.4390  148.5870 C   0  0  0  0  0  0  0  0  0  0  0  0
  161.8970  209.6300  147.9570 F   0  0  0  0  0  0  0  0  0  0  0  0
  161.5910  208.4390  150.0570 C   0  0  0  0  0  0  0  0  0  0  0  0
  161.8370  207.3280  147.8450 C   0  0  0  0  0  3  0  0  0  0  0  0
  160.9890  207.5200  150.7990 C   0  0  0  0  0  0  0  0  0  0  0  0
  162.0180  209.4910  150.9510 C   0  0  0  0  0  0  0  0  0  0  0  0
  160.2290  206.3610  150.2520 C   0  0  0  0  0  2  0  0  0  0  0  0
  157.4000  212.3610  152.7670 C   0  0  0  0  0  3  0  0  0  0  0  0
  158.3440  213.3280  152.1370 C   0  0  0  0  0  2  0  0  0  0  0  0
  160.2970  211.4690  153.4500 C   0  0  0  0  0  0  0  0  0  0  0  0
  157.7760  211.4550  153.6690 C   0  0  0  0  0  3  0  0  0  0  0  0
  159.4310  212.6180  151.4030 C   0  0  0  0  0  3  0  0  0  0  0  0
  160.3080  211.8190  152.0090 C   0  0  0  0  0  3  0  0  0  0  0  0
  159.1620  211.2210  154.1220 C   0  0  0  0  0  3  0  0  0  0  0  0
  1 23  1  6  0  0  0
  1  3  1  0  0  0  0
  2  7  2  0  0  0  0
  3  4  1  1  0  0  0
  3  8  1  0  0  0  0
  4  6  2  0  0  0  0
  5  9  1  6  0  0  0
  5  1  1  0  0  0  0
  5  3  1  0  0  0  0
  6  2  1  0  0  0  0
  8  7  1  0  0  0  0
 10 19  2  0  0  0  0
 11 20  1  0  0  0  0
 12 11  2  0  0  0  0
 13  9  1  0  0  0  0
 14 16  1  0  0  0  0
 15 14  1  0  0  0  0
 16 18  2  0  0  0  0
 16 19  1  0  0  0  0
 17 12  1  0  0  0  0
 17 14  2  0  0  0  0
 18 13  1  0  0  0  0
 19  9  1  0  0  0  0
 20 18  1  0  0  0  0
 21 24  2  0  0  0  0
 22 21  1  0  0  0  0
 23 27  2  0  0  0  0
 24 27  1  0  0  0  0
 25 26  2  0  0  0  0
 25 22  1  0  0  0  0
 26 23  1  0  0  0  0
M  END
>  <MODEL>
2

>  <REMARK>
 VINA RESULT:      -4.7      0.882      1.464
  Name = 
  2 active torsions:
  status: ('A' for Active; 'I' for Inactive)
    1  A    between atoms: C_1  and  C_18
    2  A    between atoms: N_2  and  C_15
                            x       y       z     vdW  Elec       q    Type
                         _______ _______ _______ _____ _____    ______ ____

>  <TORSDO>
F 2

$$$$
=
 OpenBabel11052423153D

 27 31  0  0  1  0  0  0  0  0999 V2000
  158.9660  210.2220  156.1140 C   0  0  1  0  0  3  0  0  0  0  0  0
  157.9000  213.9530  155.2720 C   0  0  0  0  0  3  0  0  0  0  0  0
  158.5210  211.2010  155.0260 C   0  0  1  0  0  0  0  0  0  0  0  0
  159.4810  212.2490  154.5140 C   0  0  0  0  0  3  0  0  0  0  0  0
  158.7310  209.7330  154.6590 C   0  0  1  0  0  3  0  0  0  0  0  0
  159.1780  213.5400  154.6560 C   0  0  0  0  0  3  0  0  0  0  0  0
  156.9320  213.0660  155.5300 C   0  0  0  0  0  3  0  0  0  0  0  0
  157.0540  211.6170  155.1340 C   0  0  0  0  0  2  0  0  0  0  0  0
  159.9690  209.4610  153.9200 N   0  0  0  0  0  0  0  0  0  0  0  0
  160.1150  207.1490  154.4090 O   0  0  0  0  0  0  0  0  0  0  0  0
  161.9640  208.8670  149.6500 C   0  0  0  0  0  3  0  0  0  0  0  0
  162.0960  207.5380  149.6280 C   0  0  0  0  0  3  0  0  0  0  0  0
  160.4190  210.2390  152.7650 C   0  0  0  0  0  2  0  0  0  0  0  0
  162.0450  206.8970  152.0690 C   0  0  0  0  0  0  0  0  0  0  0  0
  162.3440  205.9350  152.9770 F   0  0  0  0  0  0  0  0  0  0  0  0
  161.2800  208.0760  152.5260 C   0  0  0  0  0  0  0  0  0  0  0  0
  162.3670  206.6660  150.7900 C   0  0  0  0  0  3  0  0  0  0  0  0
  161.2780  209.2870  151.9850 C   0  0  0  0  0  0  0  0  0  0  0  0
  160.4440  208.1390  153.7030 C   0  0  0  0  0  0  0  0  0  0  0  0
  162.1670  209.7100  150.8670 C   0  0  0  0  0  2  0  0  0  0  0  0
  163.4180  210.1330  157.2590 C   0  0  0  0  0  3  0  0  0  0  0  0
  163.1920  211.4680  156.6350 C   0  0  0  0  0  2  0  0  0  0  0  0
  160.3980  210.3830  156.5740 C   0  0  0  0  0  0  0  0  0  0  0  0
  162.5070  209.1600  157.2540 C   0  0  0  0  0  3  0  0  0  0  0  0
  162.0230  212.1600  157.2510 C   0  0  0  0  0  3  0  0  0  0  0  0
  160.7830  211.6760  157.1880 C   0  0  0  0  0  3  0  0  0  0  0  0
  161.1390  209.2710  156.7090 C   0  0  0  0  0  3  0  0  0  0  0  0
  1 23  1  6  0  0  0
  2  7  2  0  0  0  0
  3  4  1  6  0  0  0
  3  8  1  0  0  0  0
  3  1  1  0  0  0  0
  4  6  2  0  0  0  0
  5  9  1  6  0  0  0
  5  3  1  0  0  0  0
  5  1  1  0  0  0  0
  6  2  1  0  0  0  0
  8  7  1  0  0  0  0
 11 20  1  0  0  0  0
 12 11  2  0  0  0  0
 12 17  1  0  0  0  0
 13  9  1  0  0  0  0
 14 16  1  0  0  0  0
 14 15  1  0  0  0  0
 16 19  1  0  0  0  0
 17 14  2  0  0  0  0
 18 16  2  0  0  0  0
 18 13  1  0  0  0  0
 19  9  1  0  0  0  0
 19 10  2  0  0  0  0
 20 18  1  0  0  0  0
 22 25  1  0  0  0  0
 22 21  1  0  0  0  0
 23 27  2  0  0  0  0
 23 26  1  0  0  0  0
 24 21  2  0  0  0  0
 26 25  2  0  0  0  0
 27 24  1  0  0  0  0
M  END
>  <MODEL>
3

>  <REMARK>
 VINA RESULT:      -4.6      2.412      4.703
  Name = 
  2 active torsions:
  status: ('A' for Active; 'I' for Inactive)
    1  A    between atoms: C_1  and  C_18
    2  A    between atoms: N_2  and  C_15
                            x       y       z     vdW  Elec       q    Type
                         _______ _______ _______ _____ _____    ______ ____

>  <TORSDO>
F 2

$$$$
=
 OpenBabel11052423153D

 27 31  0  0  1  0  0  0  0  0999 V2000
  162.1820  209.9640  153.6050 C   0  0  1  0  0  3  0  0  0  0  0  0
  161.7140  207.8120  150.3010 C   0  0  0  0  0  3  0  0  0  0  0  0
  161.4800  209.8530  152.2510 C   0  0  1  0  0  0  0  0  0  0  0  0
  160.3670  208.8510  152.0580 C   0  0  0  0  0  3  0  0  0  0  0  0
  161.2440  211.0960  153.1070 C   0  0  1  0  0  3  0  0  0  0  0  0
  160.5050  207.8870  151.1470 C   0  0  0  0  0  3  0  0  0  0  0  0
  162.6130  208.8030  150.2840 C   0  0  0  0  0  3  0  0  0  0  0  0
  162.4050  210.0800  151.0560 C   0  0  0  0  0  2  0  0  0  0  0  0
  159.9440  211.1290  153.7880 N   0  0  0  0  0  0  0  0  0  0  0  0
  160.5800  212.5250  155.5910 O   0  0  0  0  0  0  0  0  0  0  0  0
  155.5230  212.8680  153.7670 C   0  0  0  0  0  3  0  0  0  0  0  0
  155.6280  213.8020  154.7140 C   0  0  0  0  0  3  0  0  0  0  0  0
  158.6610  210.9450  153.1090 C   0  0  0  0  0  2  0  0  0  0  0  0
  157.6220  213.0540  156.0690 C   0  0  0  0  0  0  0  0  0  0  0  0
  158.2740  213.1710  157.2520 F   0  0  0  0  0  0  0  0  0  0  0  0
  158.2700  212.2860  154.9860 C   0  0  0  0  0  0  0  0  0  0  0  0
  156.4780  213.7360  155.9210 C   0  0  0  0  0  3  0  0  0  0  0  0
  157.6720  211.6690  153.9760 C   0  0  0  0  0  0  0  0  0  0  0  0
  159.6830  212.0080  154.8740 C   0  0  0  0  0  0  0  0  0  0  0  0
  156.1960  211.5350  153.8270 C   0  0  0  0  0  2  0  0  0  0  0  0
  160.5640  207.6720  157.2480 C   0  0  0  0  0  3  0  0  0  0  0  0
  159.7020  207.2630  156.1030 C   0  0  0  0  0  2  0  0  0  0  0  0
  161.6530  209.0400  154.6800 C   0  0  0  0  0  0  0  0  0  0  0  0
  161.4590  208.6560  157.1740 C   0  0  0  0  0  3  0  0  0  0  0  0
  160.5240  206.8230  154.9390 C   0  0  0  0  0  3  0  0  0  0  0  0
  161.3650  207.6360  154.3010 C   0  0  0  0  0  3  0  0  0  0  0  0
  161.7830  209.4300  155.9580 C   0  0  0  0  0  3  0  0  0  0  0  0
  1 23  1  1  0  0  0
  2  6  1  0  0  0  0
  3  8  1  6  0  0  0
  3  5  1  0  0  0  0
  3  1  1  0  0  0  0
  4  3  1  0  0  0  0
  5  1  1  0  0  0  0
  5  9  1  1  0  0  0
  6  4  2  0  0  0  0
  7  2  2  0  0  0  0
  7  8  1  0  0  0  0
  9 19  1  0  0  0  0
 11 20  1  0  0  0  0
 11 12  2  0  0  0  0
 12 17  1  0  0  0  0
 13  9  1  0  0  0  0
 13 18  1  0  0  0  0
 14 15  1  0  0  0  0
 16 14  1  0  0  0  0
 17 14  2  0  0  0  0
 18 16  2  0  0  0  0
 19 16  1  0  0  0  0
 19 10  2  0  0  0  0
 20 18  1  0  0  0  0
 22 21  1  0  0  0  0
 23 27  2  0  0  0  0
 24 21  2  0  0  0  0
 25 22  1  0  0  0  0
 26 23  1  0  0  0  0
 26 25  2  0  0  0  0
 27 24  1  0  0  0  0
M  END
>  <MODEL>
4

>  <REMARK>
 VINA RESULT:      -4.2      2.780      6.636
  Name = 
  2 active torsions:
  status: ('A' for Active; 'I' for Inactive)
    1  A    between atoms: C_1  and  C_18
    2  A    between atoms: N_2  and  C_15
                            x       y       z     vdW  Elec       q    Type
                         _______ _______ _______ _____ _____    ______ ____

>  <TORSDO>
F 2

$$$$
=
 OpenBabel11052423153D

 27 31  0  0  1  0  0  0  0  0999 V2000
  161.6320  211.2730  153.6940 C   0  0  1  0  0  3  0  0  0  0  0  0
  163.1550  210.4130  157.2590 C   0  0  0  0  0  3  0  0  0  0  0  0
  162.5320  210.3320  154.4970 C   0  0  1  0  0  0  0  0  0  0  0  0
  161.9180  209.3310  155.4480 C   0  0  0  0  0  3  0  0  0  0  0  0
  162.4040  210.1250  152.9900 C   0  0  1  0  0  3  0  0  0  0  0  0
  162.2110  209.3980  156.7470 C   0  0  0  0  0  3  0  0  0  0  0  0
  163.8860  211.1650  156.4270 C   0  0  0  0  0  3  0  0  0  0  0  0
  163.8520  210.9650  154.9350 C   0  0  0  0  0  2  0  0  0  0  0  0
  161.5540  208.9940  152.5990 N   0  0  0  0  0  0  0  0  0  0  0  0
  161.7420  209.2660  150.2540 O   0  0  0  0  0  0  0  0  0  0  0  0
  161.2070  204.2730  152.2030 C   0  0  0  0  0  3  0  0  0  0  0  0
  161.3670  204.1290  150.8860 C   0  0  0  0  0  3  0  0  0  0  0  0
  161.3490  207.8030  153.4250 C   0  0  0  0  0  2  0  0  0  0  0  0
  160.7630  206.3990  149.9630 C   0  0  0  0  0  0  0  0  0  0  0  0
  160.3930  207.0920  148.8580 F   0  0  0  0  0  0  0  0  0  0  0  0
  161.0780  207.1580  151.1920 C   0  0  0  0  0  0  0  0  0  0  0  0
  160.9240  205.0750  149.8410 C   0  0  0  0  0  3  0  0  0  0  0  0
  161.0030  206.7220  152.4410 C   0  0  0  0  0  0  0  0  0  0  0  0
  161.4590  208.5510  151.2520 C   0  0  0  0  0  0  0  0  0  0  0  0
  160.4540  205.3960  152.8390 C   0  0  0  0  0  2  0  0  0  0  0  0
  157.2580  210.6880  154.9860 C   0  0  0  0  0  3  0  0  0  0  0  0
  157.2370  211.7990  153.9920 C   0  0  0  0  0  2  0  0  0  0  0  0
  160.1480  211.0840  153.9140 C   0  0  0  0  0  0  0  0  0  0  0  0
  158.3830  210.1750  155.4840 C   0  0  0  0  0  3  0  0  0  0  0  0
  157.9620  211.4200  152.7450 C   0  0  0  0  0  3  0  0  0  0  0  0
  159.2630  211.1340  152.7250 C   0  0  0  0  0  3  0  0  0  0  0  0
  159.7520  210.5630  155.0860 C   0  0  0  0  0  3  0  0  0  0  0  0
  1 23  1  1  0  0  0
  1  3  1  0  0  0  0
  3  8  1  1  0  0  0
  3  4  1  0  0  0  0
  4  6  2  0  0  0  0
  5  9  1  1  0  0  0
  5  1  1  0  0  0  0
  5  3  1  0  0  0  0
  6  2  1  0  0  0  0
  7  2  2  0  0  0  0
  8  7  1  0  0  0  0
  9 13  1  0  0  0  0
 10 19  2  0  0  0  0
 11 20  1  0  0  0  0
 12 11  2  0  0  0  0
 14 16  1  0  0  0  0
 15 14  1  0  0  0  0
 16 19  1  0  0  0  0
 16 18  2  0  0  0  0
 17 14  2  0  0  0  0
 17 12  1  0  0  0  0
 18 20  1  0  0  0  0
 18 13  1  0  0  0  0
 19  9  1  0  0  0  0
 21 24  2  0  0  0  0
 22 21  1  0  0  0  0
 23 27  2  0  0  0  0
 25 22  1  0  0  0  0
 26 25  2  0  0  0  0
 26 23  1  0  0  0  0
 27 24  1  0  0  0  0
M  END
>  <MODEL>
5

>  <REMARK>
 VINA RESULT:      -3.7      1.782      2.833
  Name = 
  2 active torsions:
  status: ('A' for Active; 'I' for Inactive)
    1  A    between atoms: C_1  and  C_18
    2  A    between atoms: N_2  and  C_15
                            x       y       z     vdW  Elec       q    Type
                         _______ _______ _______ _____ _____    ______ ____

>  <TORSDO>
F 2

$$$$
=
 OpenBabel11052423153D

 27 31  0  0  1  0  0  0  0  0999 V2000
  158.2600  210.1900  155.5350 C   0  0  1  0  0  3  0  0  0  0  0  0
  156.3620  213.2210  157.2600 C   0  0  0  0  0  3  0  0  0  0  0  0
  157.4900  211.4950  155.3200 C   0  0  1  0  0  0  0  0  0  0  0  0
  158.1450  212.8180  155.6370 C   0  0  0  0  0  3  0  0  0  0  0  0
  157.9450  210.6950  154.1010 C   0  0  1  0  0  3  0  0  0  0  0  0
  157.6070  213.6080  156.5670 C   0  0  0  0  0  3  0  0  0  0  0  0
  155.6350  212.1740  156.8520 C   0  0  0  0  0  3  0  0  0  0  0  0
  155.9960  211.3860  155.6210 C   0  0  0  0  0  2  0  0  0  0  0  0
  159.1080  211.2550  153.4030 N   0  0  0  0  0  0  0  0  0  0  0  0
  160.1210  209.2020  152.7990 O   0  0  0  0  0  0  0  0  0  0  0  0
  160.6930  213.3980  149.4710 C   0  0  0  0  0  3  0  0  0  0  0  0
  161.2860  212.3710  148.8590 C   0  0  0  0  0  3  0  0  0  0  0  0
  159.1200  212.5700  152.7590 C   0  0  0  0  0  2  0  0  0  0  0  0
  161.7390  210.7440  150.7350 C   0  0  0  0  0  0  0  0  0  0  0  0
  162.4610  209.6650  151.1250 F   0  0  0  0  0  0  0  0  0  0  0  0
  160.6610  211.2240  151.6240 C   0  0  0  0  0  0  0  0  0  0  0  0
  161.9780  211.2420  149.5140 C   0  0  0  0  0  3  0  0  0  0  0  0
  160.1680  212.4520  151.6910 C   0  0  0  0  0  0  0  0  0  0  0  0
  159.9950  210.4460  152.6430 C   0  0  0  0  0  0  0  0  0  0  0  0
  160.7170  213.6210  150.9480 C   0  0  0  0  0  2  0  0  0  0  0  0
  162.7220  210.2440  156.6450 C   0  0  0  0  0  3  0  0  0  0  0  0
  162.3350  211.6730  156.4720 C   0  0  0  0  0  2  0  0  0  0  0  0
  159.6770  210.3570  156.0390 C   0  0  0  0  0  0  0  0  0  0  0  0
  161.9230  209.2270  156.3220 C   0  0  0  0  0  3  0  0  0  0  0  0
  161.1130  212.0010  157.2610 C   0  0  0  0  0  3  0  0  0  0  0  0
  159.9320  211.4260  157.0340 C   0  0  0  0  0  3  0  0  0  0  0  0
  160.5380  209.3500  155.8250 C   0  0  0  0  0  3  0  0  0  0  0  0
  1 23  1  6  0  0  0
  3  1  1  0  0  0  0
  3  8  1  1  0  0  0
  3  4  1  0  0  0  0
  4  6  2  0  0  0  0
  5  9  1  6  0  0  0
  5  3  1  0  0  0  0
  5  1  1  0  0  0  0
  6  2  1  0  0  0  0
  7  2  2  0  0  0  0
  8  7  1  0  0  0  0
 11 20  1  0  0  0  0
 12 11  2  0  0  0  0
 12 17  1  0  0  0  0
 13  9  1  0  0  0  0
 14 15  1  0  0  0  0
 14 16  1  0  0  0  0
 16 18  2  0  0  0  0
 16 19  1  0  0  0  0
 17 14  2  0  0  0  0
 18 13  1  0  0  0  0
 19 10  2  0  0  0  0
 19  9  1  0  0  0  0
 20 18  1  0  0  0  0
 22 21  1  0  0  0  0
 22 25  1  0  0  0  0
 23 26  1  0  0  0  0
 24 21  2  0  0  0  0
 26 25  2  0  0  0  0
 27 23  2  0  0  0  0
 27 24  1  0  0  0  0
M  END
>  <MODEL>
6

>  <REMARK>
 VINA RESULT:      -2.9      2.755      5.113
  Name = 
  2 active torsions:
  status: ('A' for Active; 'I' for Inactive)
    1  A    between atoms: C_1  and  C_18
    2  A    between atoms: N_2  and  C_15
                            x       y       z     vdW  Elec       q    Type
                         _______ _______ _______ _____ _____    ______ ____

>  <TORSDO>
F 2

$$$$
=
 OpenBabel11052423153D

 27 31  0  0  1  0  0  0  0  0999 V2000
  161.8320  209.4430  154.2410 C   0  0  1  0  0  3  0  0  0  0  0  0
  159.8410  207.5060  157.0770 C   0  0  0  0  0  3  0  0  0  0  0  0
  161.4140  208.0800  154.7940 C   0  0  1  0  0  0  0  0  0  0  0  0
  159.9870  207.6080  154.6390 C   0  0  0  0  0  3  0  0  0  0  0  0
  162.3320  208.1330  153.5750 C   0  0  1  0  0  3  0  0  0  0  0  0
  159.2580  207.3610  155.7280 C   0  0  0  0  0  3  0  0  0  0  0  0
  161.1530  207.7010  157.2520 C   0  0  0  0  0  3  0  0  0  0  0  0
  162.1180  207.7000  156.0950 C   0  0  0  0  0  2  0  0  0  0  0  0
  161.6730  207.8290  152.3000 N   0  0  0  0  0  0  0  0  0  0  0  0
  163.0870  209.1210  150.9080 O   0  0  0  0  0  0  0  0  0  0  0  0
  160.9770  204.5920  148.8930 C   0  0  0  0  0  3  0  0  0  0  0  0
  161.7800  205.0700  147.9390 C   0  0  0  0  0  3  0  0  0  0  0  0
  160.9160  206.6020  152.0440 C   0  0  0  0  0  2  0  0  0  0  0  0
  162.0430  207.5050  148.5500 C   0  0  0  0  0  0  0  0  0  0  0  0
  162.3960  208.7360  148.1030 F   0  0  0  0  0  0  0  0  0  0  0  0
  161.7670  207.3370  149.9920 C   0  0  0  0  0  0  0  0  0  0  0  0
  162.0720  206.4940  147.6720 C   0  0  0  0  0  3  0  0  0  0  0  0
  160.9970  206.4180  150.5560 C   0  0  0  0  0  0  0  0  0  0  0  0
  162.2360  208.2020  151.0500 C   0  0  0  0  0  0  0  0  0  0  0  0
  160.1560  205.4460  149.8030 C   0  0  0  0  0  2  0  0  0  0  0  0
  158.2210  211.8130  152.6640 C   0  0  0  0  0  3  0  0  0  0  0  0
  159.4230  212.4990  152.1090 C   0  0  0  0  0  2  0  0  0  0  0  0
  160.7380  210.2120  153.5340 C   0  0  0  0  0  0  0  0  0  0  0  0
  158.2880  210.8480  153.5810 C   0  0  0  0  0  3  0  0  0  0  0  0
  160.3390  211.5280  151.4440 C   0  0  0  0  0  3  0  0  0  0  0  0
  160.9370  210.5350  152.1010 C   0  0  0  0  0  3  0  0  0  0  0  0
  159.5330  210.2690  154.1250 C   0  0  0  0  0  3  0  0  0  0  0  0
  1 23  1  6  0  0  0
  1  3  1  0  0  0  0
  2  7  2  0  0  0  0
  3  4  1  6  0  0  0
  3  8  1  0  0  0  0
  4  6  2  0  0  0  0
  5  9  1  6  0  0  0
  5  1  1  0  0  0  0
  5  3  1  0  0  0  0
  6  2  1  0  0  0  0
  8  7  1  0  0  0  0
 10 19  2  0  0  0  0
 11 20  1  0  0  0  0
 12 11  2  0  0  0  0
 13  9  1  0  0  0  0
 14 16  1  0  0  0  0
 15 14  1  0  0  0  0
 16 18  2  0  0  0  0
 16 19  1  0  0  0  0
 17 12  1  0  0  0  0
 17 14  2  0  0  0  0
 18 13  1  0  0  0  0
 19  9  1  0  0  0  0
 20 18  1  0  0  0  0
 21 24  2  0  0  0  0
 22 21  1  0  0  0  0
 23 27  2  0  0  0  0
 24 27  1  0  0  0  0
 25 26  2  0  0  0  0
 25 22  1  0  0  0  0
 26 23  1  0  0  0  0
M  END
>  <MODEL>
7

>  <REMARK>
 VINA RESULT:      -2.8      0.853      1.467
  Name = 
  2 active torsions:
  status: ('A' for Active; 'I' for Inactive)
    1  A    between atoms: C_1  and  C_18
    2  A    between atoms: N_2  and  C_15
                            x       y       z     vdW  Elec       q    Type
                         _______ _______ _______ _____ _____    ______ ____

>  <TORSDO>
F 2

$$$$
=
 OpenBabel11052423153D

 27 31  0  0  1  0  0  0  0  0999 V2000
  162.3470  212.9590  148.7350 C   0  0  1  0  0  3  0  0  0  0  0  0
  161.9760  212.8450  144.7830 C   0  0  0  0  0  3  0  0  0  0  0  0
  161.5750  213.4690  147.5170 C   0  0  1  0  0  0  0  0  0  0  0  0
  160.6160  212.5530  146.7940 C   0  0  0  0  0  3  0  0  0  0  0  0
  161.2150  214.0080  148.8990 C   0  0  1  0  0  3  0  0  0  0  0  0
  160.8330  212.2580  145.5110 C   0  0  0  0  0  3  0  0  0  0  0  0
  162.7110  213.8280  145.3180 C   0  0  0  0  0  3  0  0  0  0  0  0
  162.3680  214.4450  146.6490 C   0  0  0  0  0  2  0  0  0  0  0  0
  159.9770  213.4590  149.4650 N   0  0  0  0  0  0  0  0  0  0  0  0
  160.3900  214.0370  151.7240 O   0  0  0  0  0  0  0  0  0  0  0  0
  155.2900  214.0240  149.9910 C   0  0  0  0  0  3  0  0  0  0  0  0
  155.2390  214.4530  151.2540 C   0  0  0  0  0  3  0  0  0  0  0  0
  158.7300  213.3120  148.7130 C   0  0  0  0  0  2  0  0  0  0  0  0
  157.4170  213.6470  152.2430 C   0  0  0  0  0  0  0  0  0  0  0  0
  158.0910  213.3790  153.3890 F   0  0  0  0  0  0  0  0  0  0  0  0
  158.1580  213.5860  150.9650 C   0  0  0  0  0  0  0  0  0  0  0  0
  156.1460  214.0580  152.3510 C   0  0  0  0  0  3  0  0  0  0  0  0
  157.6560  213.3530  149.7610 C   0  0  0  0  0  0  0  0  0  0  0  0
  159.5900  213.6990  150.8110 C   0  0  0  0  0  0  0  0  0  0  0  0
  156.2380  212.9790  149.4980 C   0  0  0  0  0  2  0  0  0  0  0  0
  161.7040  208.4560  149.4110 C   0  0  0  0  0  3  0  0  0  0  0  0
  162.2440  208.9810  150.6980 C   0  0  0  0  0  2  0  0  0  0  0  0
  162.0410  211.5330  149.1370 C   0  0  0  0  0  0  0  0  0  0  0  0
  161.6490  209.1790  148.2930 C   0  0  0  0  0  3  0  0  0  0  0  0
  161.4760  210.1730  151.1590 C   0  0  0  0  0  3  0  0  0  0  0  0
  161.4210  211.3090  150.4650 C   0  0  0  0  0  3  0  0  0  0  0  0
  162.0340  210.6000  148.1710 C   0  0  0  0  0  3  0  0  0  0  0  0
  1  5  1  0  0  0  0
  1 23  1  1  0  0  0
  2  7  2  0  0  0  0
  2  6  1  0  0  0  0
  3  8  1  6  0  0  0
  3  1  1  0  0  0  0
  3  5  1  0  0  0  0
  4  3  1  0  0  0  0
  5  9  1  1  0  0  0
  6  4  2  0  0  0  0
  7  8  1  0  0  0  0
  9 19  1  0  0  0  0
 11 12  2  0  0  0  0
 12 17  1  0  0  0  0
 13  9  1  0  0  0  0
 13 18  1  0  0  0  0
 14 17  2  0  0  0  0
 14 15  1  0  0  0  0
 16 14  1  0  0  0  0
 18 16  2  0  0  0  0
 19 16  1  0  0  0  0
 19 10  2  0  0  0  0
 20 18  1  0  0  0  0
 20 11  1  0  0  0  0
 21 22  1  0  0  0  0
 22 25  1  0  0  0  0
 23 26  1  0  0  0  0
 24 21  2  0  0  0  0
 26 25  2  0  0  0  0
 27 24  1  0  0  0  0
 27 23  2  0  0  0  0
M  END
>  <MODEL>
8

>  <REMARK>
 VINA RESULT:      -2.6      3.952      8.112
  Name = 
  2 active torsions:
  status: ('A' for Active; 'I' for Inactive)
    1  A    between atoms: C_1  and  C_18
    2  A    between atoms: N_2  and  C_15
                            x       y       z     vdW  Elec       q    Type
                         _______ _______ _______ _____ _____    ______ ____

>  <TORSDO>
F 2

$$$$
=
 OpenBabel11052423153D

 27 31  0  0  1  0  0  0  0  0999 V2000
  161.9710  209.9050  152.9270 C   0  0  1  0  0  3  0  0  0  0  0  0
  161.5170  205.9680  152.6770 C   0  0  0  0  0  3  0  0  0  0  0  0
  161.0150  208.7550  152.6070 C   0  0  1  0  0  0  0  0  0  0  0  0
  160.4540  207.9060  153.7230 C   0  0  0  0  0  3  0  0  0  0  0  0
  160.5300  210.1910  152.4270 C   0  0  1  0  0  3  0  0  0  0  0  0
  160.7170  206.5990  153.7470 C   0  0  0  0  0  3  0  0  0  0  0  0
  161.8380  206.6360  151.5630 C   0  0  0  0  0  3  0  0  0  0  0  0
  161.3370  208.0320  151.2990 C   0  0  0  0  0  2  0  0  0  0  0  0
  159.6220  210.6650  153.4780 N   0  0  0  0  0  0  0  0  0  0  0  0
  160.4620  212.8730  153.6360 O   0  0  0  0  0  0  0  0  0  0  0  0
  155.2120  212.0750  154.5410 C   0  0  0  0  0  3  0  0  0  0  0  0
  155.3930  213.3950  154.6170 C   0  0  0  0  0  3  0  0  0  0  0  0
  158.2850  210.1160  153.7120 C   0  0  0  0  0  2  0  0  0  0  0  0
  157.8700  213.6310  155.0400 C   0  0  0  0  0  0  0  0  0  0  0  0
  158.8530  214.4530  155.4830 F   0  0  0  0  0  0  0  0  0  0  0  0
  158.2580  212.3430  154.4270 C   0  0  0  0  0  0  0  0  0  0  0  0
  156.6110  214.0860  155.0870 C   0  0  0  0  0  3  0  0  0  0  0  0
  157.5290  211.2390  154.3590 C   0  0  0  0  0  0  0  0  0  0  0  0
  159.5470  212.0340  153.8510 C   0  0  0  0  0  0  0  0  0  0  0  0
  156.2030  211.0640  155.0170 C   0  0  0  0  0  2  0  0  0  0  0  0
  163.1820  211.0360  157.2170 C   0  0  0  0  0  3  0  0  0  0  0  0
  161.7070  210.8210  157.2610 C   0  0  0  0  0  2  0  0  0  0  0  0
  162.2530  210.1120  154.3990 C   0  0  0  0  0  0  0  0  0  0  0  0
  163.8820  211.0700  156.0830 C   0  0  0  0  0  3  0  0  0  0  0  0
  161.3340  209.5140  156.6470 C   0  0  0  0  0  3  0  0  0  0  0  0
  161.5590  209.2280  155.3650 C   0  0  0  0  0  3  0  0  0  0  0  0
  163.3350  210.8350  154.7310 C   0  0  0  0  0  3  0  0  0  0  0  0
  1 23  1  1  0  0  0
  2  6  1  0  0  0  0
  3  8  1  6  0  0  0
  3  1  1  0  0  0  0
  3  4  1  0  0  0  0
  4  6  2  0  0  0  0
  5  3  1  0  0  0  0
  5  1  1  0  0  0  0
  5  9  1  1  0  0  0
  7  2  2  0  0  0  0
  8  7  1  0  0  0  0
  9 13  1  0  0  0  0
  9 19  1  0  0  0  0
 10 19  2  0  0  0  0
 11 12  2  0  0  0  0
 11 20  1  0  0  0  0
 12 17  1  0  0  0  0
 13 18  1  0  0  0  0
 14 17  2  0  0  0  0
 14 15  1  0  0  0  0
 16 14  1  0  0  0  0
 18 16  2  0  0  0  0
 18 20  1  0  0  0  0
 19 16  1  0  0  0  0
 21 22  1  0  0  0  0
 23 27  2  0  0  0  0
 23 26  1  0  0  0  0
 24 21  2  0  0  0  0
 25 22  1  0  0  0  0
 26 25  2  0  0  0  0
 27 24  1  0  0  0  0
M  END
>  <MODEL>
9

>  <REMARK>
 VINA RESULT:      -1.9      2.785      6.169
  Name = 
  2 active torsions:
  status: ('A' for Active; 'I' for Inactive)
    1  A    between atoms: C_1  and  C_18
    2  A    between atoms: N_2  and  C_15
                            x       y       z     vdW  Elec       q    Type
                         _______ _______ _______ _____ _____    ______ ____

>  <TORSDO>
F 2

$$$$
