=
 OpenBabel11062407423D

 27 31  0  0  0  0  0  0  0  0999 V2000
  161.4870  208.5950  152.1020 N   0  0  0  0  0  0  0  0  0  0  0  0
  161.3110  207.2430  152.2250 C   0  0  0  0  0  0  0  0  0  0  0  0
  161.5890  207.0100  149.8300 N   0  0  0  0  0  0  0  0  0  0  0  0
  160.8910  205.2660  153.5560 C   0  0  0  0  0  3  0  0  0  0  0  0
  162.0940  210.3370  149.1390 C   0  0  0  0  0  0  0  0  0  0  0  0
  161.0830  206.6520  153.4910 C   0  0  0  0  0  0  0  0  0  0  0  0
  161.1470  205.0240  151.1460 C   0  0  0  0  0  0  0  0  0  0  0  0
  161.7100  209.1230  150.8780 C   0  0  0  0  0  0  0  0  0  0  0  0
  161.3470  206.4220  151.0440 C   0  0  0  0  0  0  0  0  0  0  0  0
  162.0070  209.0680  148.6650 N   0  0  0  0  0  0  0  0  0  0  0  0
  160.9240  204.4730  152.4130 C   0  0  0  0  0  3  0  0  0  0  0  0
  161.9240  210.4320  150.5260 C   0  0  0  0  0  2  0  0  0  0  0  0
  161.7650  208.3490  149.7690 C   0  0  0  0  0  0  0  0  0  0  0  0
  160.7890  202.7600  150.1210 C   0  0  0  0  0  3  0  0  0  0  0  0
  161.1220  202.3980  147.7660 C   0  0  0  0  0  3  0  0  0  0  0  0
  161.4670  203.7040  147.6220 N   0  0  0  0  0  0  0  0  0  0  0  0
  161.4870  204.5570  148.6820 C   0  0  0  0  0  3  0  0  0  0  0  0
  161.1550  204.1080  149.9700 C   0  0  0  0  0  0  0  0  0  0  0  0
  160.7740  201.9010  149.0220 C   0  0  0  0  0  3  0  0  0  0  0  0
  160.9800  208.9360  157.0730 N   0  0  0  0  0  0  0  0  0  0  0  0
  161.0460  207.4290  154.7630 C   0  0  0  0  0  0  0  0  0  0  0  0
  161.7570  208.6310  154.8770 C   0  0  0  0  0  3  0  0  0  0  0  0
  161.7040  209.3470  156.0310 N   0  0  0  0  0  0  0  0  0  0  0  0
  160.2640  207.7830  157.0230 C   0  0  0  0  0  3  0  0  0  0  0  0
  160.2850  207.0140  155.8620 C   0  0  0  0  0  3  0  0  0  0  0  0
  161.5110  212.6770  148.6490 C   0  0  0  0  0  1  0  0  0  0  0  0
  162.3910  211.5040  148.2630 C   0  0  0  0  0  2  0  0  0  0  0  0
  1  2  1  0  0  0  0
  2  6  1  0  0  0  0
  3  9  1  0  0  0  0
  5 12  1  0  0  0  0
  6  4  2  0  0  0  0
  6 21  1  0  0  0  0
  7 11  2  0  0  0  0
  8  1  2  0  0  0  0
  9  7  1  0  0  0  0
  9  2  2  0  0  0  0
 10  5  2  0  0  0  0
 10 13  1  0  0  0  0
 11  4  1  0  0  0  0
 12  8  1  0  0  0  0
 13  3  2  0  0  0  0
 13  8  1  0  0  0  0
 15 19  1  0  0  0  0
 16 15  2  0  0  0  0
 16 17  1  0  0  0  0
 17 18  2  0  0  0  0
 18 14  1  0  0  0  0
 18  7  1  0  0  0  0
 19 14  2  0  0  0  0
 21 22  2  0  0  0  0
 21 25  1  0  0  0  0
 22 23  1  0  0  0  0
 23 20  2  0  0  0  0
 24 20  1  0  0  0  0
 25 24  2  0  0  0  0
 27 26  1  0  0  0  0
 27  5  1  0  0  0  0
M  END
>  <MODEL>
1

>  <REMARK>
 VINA RESULT:      -9.9      0.000      0.000
  Name = 
  3 active torsions:
  status: ('A' for Active; 'I' for Inactive)
    1  A    between atoms: C_9  and  C_15
    2  A    between atoms: C_13  and  C_22
    3  A    between atoms: C_14  and  C_17
                            x       y       z     vdW  Elec       q    Type
                         _______ _______ _______ _____ _____    ______ ____

>  <TORSDO>
F 3

$$$$
=
 OpenBabel11062407423D

 27 31  0  0  0  0  0  0  0  0999 V2000
  161.6120  207.0420  149.7700 N   0  0  0  0  0  0  0  0  0  0  0  0
  161.3550  206.4550  150.9790 C   0  0  0  0  0  0  0  0  0  0  0  0
  161.4940  208.6270  152.0410 N   0  0  0  0  0  0  0  0  0  0  0  0
  160.9060  204.5060  152.3440 C   0  0  0  0  0  3  0  0  0  0  0  0
  162.1350  210.4460  149.1980 C   0  0  0  0  0  0  0  0  0  0  0  0
  161.1470  205.0580  151.0780 C   0  0  0  0  0  0  0  0  0  0  0  0
  161.0670  206.6840  153.4240 C   0  0  0  0  0  0  0  0  0  0  0  0
  161.7980  208.3800  149.7120 C   0  0  0  0  0  0  0  0  0  0  0  0
  161.3100  207.2740  152.1610 C   0  0  0  0  0  0  0  0  0  0  0  0
  161.9360  210.4490  150.5410 N   0  0  0  0  0  0  0  0  0  0  0  0
  160.8660  205.3000  153.4860 C   0  0  0  0  0  3  0  0  0  0  0  0
  162.0520  209.1730  148.6210 C   0  0  0  0  0  2  0  0  0  0  0  0
  161.7350  209.1540  150.8200 C   0  0  0  0  0  0  0  0  0  0  0  0
  160.2610  206.9940  155.7810 C   0  0  0  0  0  3  0  0  0  0  0  0
  160.9620  208.8850  157.0940 C   0  0  0  0  0  3  0  0  0  0  0  0
  161.7010  209.3280  156.0440 N   0  0  0  0  0  0  0  0  0  0  0  0
  161.7460  208.6500  154.8660 C   0  0  0  0  0  3  0  0  0  0  0  0
  161.0190  207.4610  154.6950 C   0  0  0  0  0  0  0  0  0  0  0  0
  160.2270  207.7040  156.9810 C   0  0  0  0  0  3  0  0  0  0  0  0
  161.1260  202.4100  147.7550 N   0  0  0  0  0  0  0  0  0  0  0  0
  161.1620  204.1420  149.9020 C   0  0  0  0  0  0  0  0  0  0  0  0
  160.7670  202.8050  150.0420 C   0  0  0  0  0  3  0  0  0  0  0  0
  160.7630  201.9780  148.9640 N   0  0  0  0  0  0  0  0  0  0  0  0
  161.5130  203.6950  147.5520 C   0  0  0  0  0  3  0  0  0  0  0  0
  161.5330  204.5820  148.6260 C   0  0  0  0  0  3  0  0  0  0  0  0
  161.2700  212.6940  148.6970 C   0  0  0  0  0  1  0  0  0  0  0  0
  162.3720  211.6910  148.4170 C   0  0  0  0  0  2  0  0  0  0  0  0
  1  2  1  0  0  0  0
  2  6  2  0  0  0  0
  2  9  1  0  0  0  0
  3  9  1  0  0  0  0
  4 11  2  0  0  0  0
  5 10  2  0  0  0  0
  6  4  1  0  0  0  0
  7 11  1  0  0  0  0
  7 18  1  0  0  0  0
  8  1  2  0  0  0  0
  8 13  1  0  0  0  0
  9  7  2  0  0  0  0
 10 13  1  0  0  0  0
 12  5  1  0  0  0  0
 12  8  1  0  0  0  0
 13  3  2  0  0  0  0
 14 19  1  0  0  0  0
 16 15  1  0  0  0  0
 17 16  2  0  0  0  0
 18 17  1  0  0  0  0
 18 14  2  0  0  0  0
 19 15  2  0  0  0  0
 20 23  1  0  0  0  0
 21 22  1  0  0  0  0
 21  6  1  0  0  0  0
 23 22  2  0  0  0  0
 24 20  2  0  0  0  0
 24 25  1  0  0  0  0
 25 21  2  0  0  0  0
 27 26  1  0  0  0  0
 27  5  1  0  0  0  0
M  END
>  <MODEL>
2

>  <REMARK>
 VINA RESULT:      -9.9      0.816      6.138
  Name = 
  3 active torsions:
  status: ('A' for Active; 'I' for Inactive)
    1  A    between atoms: C_9  and  C_15
    2  A    between atoms: C_13  and  C_22
    3  A    between atoms: C_14  and  C_17
                            x       y       z     vdW  Elec       q    Type
                         _______ _______ _______ _____ _____    ______ ____

>  <TORSDO>
F 3

$$$$
=
 OpenBabel11062407423D

 27 31  0  0  0  0  0  0  0  0999 V2000
  161.4660  209.7940  152.3050 N   0  0  0  0  0  0  0  0  0  0  0  0
  161.2540  208.4950  152.6820 C   0  0  0  0  0  0  0  0  0  0  0  0
  161.5560  207.7990  150.3820 N   0  0  0  0  0  0  0  0  0  0  0  0
  160.7670  206.8220  154.3620 C   0  0  0  0  0  3  0  0  0  0  0  0
  162.1550  210.9180  149.0730 C   0  0  0  0  0  0  0  0  0  0  0  0
  160.9950  208.1650  154.0350 C   0  0  0  0  0  0  0  0  0  0  0  0
  161.0460  206.1150  152.0480 C   0  0  0  0  0  0  0  0  0  0  0  0
  161.7180  210.0710  151.0060 C   0  0  0  0  0  0  0  0  0  0  0  0
  161.2840  207.4620  151.6820 C   0  0  0  0  0  0  0  0  0  0  0  0
  162.0410  209.5840  148.8510 N   0  0  0  0  0  0  0  0  0  0  0  0
  160.7930  205.8240  153.3940 C   0  0  0  0  0  3  0  0  0  0  0  0
  161.9690  211.2820  150.4120 C   0  0  0  0  0  2  0  0  0  0  0  0
  161.7670  209.0970  150.0680 C   0  0  0  0  0  0  0  0  0  0  0  0
  160.9660  203.6610  151.5220 C   0  0  0  0  0  3  0  0  0  0  0  0
  160.9960  202.8790  149.2470 C   0  0  0  0  0  3  0  0  0  0  0  0
  161.0640  204.1650  148.8140 N   0  0  0  0  0  0  0  0  0  0  0  0
  161.0870  205.2100  149.6850 C   0  0  0  0  0  3  0  0  0  0  0  0
  161.0460  204.9890  151.0710 C   0  0  0  0  0  0  0  0  0  0  0  0
  160.9440  202.6030  150.6130 C   0  0  0  0  0  3  0  0  0  0  0  0
  160.9740  211.0650  157.1400 N   0  0  0  0  0  0  0  0  0  0  0  0
  160.9620  209.1740  155.1320 C   0  0  0  0  0  0  0  0  0  0  0  0
  162.1400  209.5230  155.8070 C   0  0  0  0  0  3  0  0  0  0  0  0
  162.1090  210.4570  156.7930 N   0  0  0  0  0  0  0  0  0  0  0  0
  159.8010  210.7760  156.5210 C   0  0  0  0  0  3  0  0  0  0  0  0
  159.7800  209.8260  155.5030 C   0  0  0  0  0  3  0  0  0  0  0  0
  161.9780  213.2660  148.3580 C   0  0  0  0  0  1  0  0  0  0  0  0
  162.4920  211.8870  147.9930 C   0  0  0  0  0  2  0  0  0  0  0  0
  1  2  1  0  0  0  0
  2  6  1  0  0  0  0
  3  9  1  0  0  0  0
  5 12  1  0  0  0  0
  6  4  2  0  0  0  0
  6 21  1  0  0  0  0
  7 11  2  0  0  0  0
  8  1  2  0  0  0  0
  9  7  1  0  0  0  0
  9  2  2  0  0  0  0
 10  5  2  0  0  0  0
 10 13  1  0  0  0  0
 11  4  1  0  0  0  0
 12  8  1  0  0  0  0
 13  3  2  0  0  0  0
 13  8  1  0  0  0  0
 15 19  1  0  0  0  0
 16 15  2  0  0  0  0
 16 17  1  0  0  0  0
 17 18  2  0  0  0  0
 18 14  1  0  0  0  0
 18  7  1  0  0  0  0
 19 14  2  0  0  0  0
 21 25  2  0  0  0  0
 21 22  1  0  0  0  0
 22 23  2  0  0  0  0
 23 20  1  0  0  0  0
 24 20  2  0  0  0  0
 25 24  1  0  0  0  0
 27 26  1  0  0  0  0
 27  5  1  0  0  0  0
M  END
>  <MODEL>
3

>  <REMARK>
 VINA RESULT:      -9.2      1.236      1.527
  Name = 
  3 active torsions:
  status: ('A' for Active; 'I' for Inactive)
    1  A    between atoms: C_9  and  C_15
    2  A    between atoms: C_13  and  C_22
    3  A    between atoms: C_14  and  C_17
                            x       y       z     vdW  Elec       q    Type
                         _______ _______ _______ _____ _____    ______ ____

>  <TORSDO>
F 3

$$$$
=
 OpenBabel11062407423D

 27 31  0  0  0  0  0  0  0  0999 V2000
  161.5370  207.6930  150.3620 N   0  0  0  0  0  0  0  0  0  0  0  0
  161.2940  207.4310  151.6840 C   0  0  0  0  0  0  0  0  0  0  0  0
  161.5060  209.7940  152.1720 N   0  0  0  0  0  0  0  0  0  0  0  0
  160.8300  205.8950  153.4960 C   0  0  0  0  0  3  0  0  0  0  0  0
  162.1250  210.8330  148.9560 C   0  0  0  0  0  0  0  0  0  0  0  0
  161.0550  206.1080  152.1300 C   0  0  0  0  0  0  0  0  0  0  0  0
  161.0650  208.2660  153.9990 C   0  0  0  0  0  0  0  0  0  0  0  0
  161.7520  208.9690  149.9720 C   0  0  0  0  0  0  0  0  0  0  0  0
  161.2940  208.5190  152.6260 C   0  0  0  0  0  0  0  0  0  0  0  0
  161.9560  211.1740  150.2590 N   0  0  0  0  0  0  0  0  0  0  0  0
  160.8330  206.9470  154.4060 C   0  0  0  0  0  3  0  0  0  0  0  0
  162.0000  209.4600  148.7140 C   0  0  0  0  0  2  0  0  0  0  0  0
  161.7320  209.9950  150.8540 C   0  0  0  0  0  0  0  0  0  0  0  0
  159.8550  209.9260  155.4440 C   0  0  0  0  0  3  0  0  0  0  0  0
  161.0460  211.3030  157.0170 C   0  0  0  0  0  3  0  0  0  0  0  0
  162.2110  210.7220  156.6290 N   0  0  0  0  0  0  0  0  0  0  0  0
  162.2430  209.7600  155.6690 C   0  0  0  0  0  3  0  0  0  0  0  0
  161.0630  209.3350  155.0390 C   0  0  0  0  0  0  0  0  0  0  0  0
  159.8420  210.9120  156.4300 C   0  0  0  0  0  3  0  0  0  0  0  0
  161.0010  202.7930  149.4730 N   0  0  0  0  0  0  0  0  0  0  0  0
  161.0240  204.9290  151.2180 C   0  0  0  0  0  0  0  0  0  0  0  0
  160.8400  205.1070  149.8400 C   0  0  0  0  0  3  0  0  0  0  0  0
  160.8310  204.0320  149.0090 N   0  0  0  0  0  0  0  0  0  0  0  0
  161.1900  202.5550  150.7960 C   0  0  0  0  0  3  0  0  0  0  0  0
  161.2080  203.6240  151.6890 C   0  0  0  0  0  3  0  0  0  0  0  0
  161.0590  212.2660  147.2640 C   0  0  0  0  0  1  0  0  0  0  0  0
  162.3730  211.8390  147.8860 C   0  0  0  0  0  2  0  0  0  0  0  0
  1  2  1  0  0  0  0
  2  6  2  0  0  0  0
  2  9  1  0  0  0  0
  3  9  1  0  0  0  0
  4 11  2  0  0  0  0
  5 10  2  0  0  0  0
  6  4  1  0  0  0  0
  7 11  1  0  0  0  0
  7 18  1  0  0  0  0
  8  1  2  0  0  0  0
  8 13  1  0  0  0  0
  9  7  2  0  0  0  0
 10 13  1  0  0  0  0
 12  5  1  0  0  0  0
 12  8  1  0  0  0  0
 13  3  2  0  0  0  0
 14 19  1  0  0  0  0
 16 15  1  0  0  0  0
 17 16  2  0  0  0  0
 18 14  2  0  0  0  0
 18 17  1  0  0  0  0
 19 15  2  0  0  0  0
 20 24  1  0  0  0  0
 21 25  1  0  0  0  0
 21  6  1  0  0  0  0
 22 21  2  0  0  0  0
 23 20  2  0  0  0  0
 23 22  1  0  0  0  0
 24 25  2  0  0  0  0
 26 27  1  0  0  0  0
 27  5  1  0  0  0  0
M  END
>  <MODEL>
4

>  <REMARK>
 VINA RESULT:      -9.0      1.529      6.222
  Name = 
  3 active torsions:
  status: ('A' for Active; 'I' for Inactive)
    1  A    between atoms: C_9  and  C_15
    2  A    between atoms: C_13  and  C_22
    3  A    between atoms: C_14  and  C_17
                            x       y       z     vdW  Elec       q    Type
                         _______ _______ _______ _____ _____    ______ ____

>  <TORSDO>
F 3

$$$$
=
 OpenBabel11062407423D

 27 31  0  0  0  0  0  0  0  0999 V2000
  161.4490  209.0290  151.6630 N   0  0  0  0  0  0  0  0  0  0  0  0
  161.2840  207.6710  151.6150 C   0  0  0  0  0  0  0  0  0  0  0  0
  161.6830  207.7270  149.2270 N   0  0  0  0  0  0  0  0  0  0  0  0
  160.8260  205.5460  152.6790 C   0  0  0  0  0  3  0  0  0  0  0  0
  162.1770  211.1170  148.9630 C   0  0  0  0  0  0  0  0  0  0  0  0
  161.0030  206.9310  152.7890 C   0  0  0  0  0  0  0  0  0  0  0  0
  161.2030  205.5960  150.2740 C   0  0  0  0  0  0  0  0  0  0  0  0
  161.7240  209.7010  150.5230 C   0  0  0  0  0  0  0  0  0  0  0  0
  161.3900  206.9970  150.3480 C   0  0  0  0  0  0  0  0  0  0  0  0
  162.1310  209.9130  148.3380 N   0  0  0  0  0  0  0  0  0  0  0  0
  160.9250  204.8960  151.4530 C   0  0  0  0  0  3  0  0  0  0  0  0
  161.9380  211.0450  150.3400 C   0  0  0  0  0  2  0  0  0  0  0  0
  161.8440  209.0660  149.3350 C   0  0  0  0  0  0  0  0  0  0  0  0
  161.5870  205.4820  147.7950 C   0  0  0  0  0  3  0  0  0  0  0  0
  161.4780  203.3870  146.6170 C   0  0  0  0  0  3  0  0  0  0  0  0
  161.1920  202.7550  147.7850 N   0  0  0  0  0  0  0  0  0  0  0  0
  161.0940  203.4360  148.9590 C   0  0  0  0  0  3  0  0  0  0  0  0
  161.2820  204.8270  148.9990 C   0  0  0  0  0  0  0  0  0  0  0  0
  161.6830  204.7670  146.6010 C   0  0  0  0  0  3  0  0  0  0  0  0
  160.7080  208.6270  156.6740 N   0  0  0  0  0  0  0  0  0  0  0  0
  160.8920  207.5510  154.1410 C   0  0  0  0  0  0  0  0  0  0  0  0
  160.4370  206.7950  155.2290 C   0  0  0  0  0  3  0  0  0  0  0  0
  160.3560  207.3580  156.4630 N   0  0  0  0  0  0  0  0  0  0  0  0
  161.1640  209.4100  155.6620 C   0  0  0  0  0  3  0  0  0  0  0  0
  161.2650  208.8790  154.3790 C   0  0  0  0  0  3  0  0  0  0  0  0
  161.5440  212.5810  147.0890 C   0  0  0  0  0  1  0  0  0  0  0  0
  162.5010  212.3830  148.2470 C   0  0  0  0  0  2  0  0  0  0  0  0
  2  1  1  0  0  0  0
  2  6  1  0  0  0  0
  3 13  2  0  0  0  0
  3  9  1  0  0  0  0
  4  6  2  0  0  0  0
  5 12  1  0  0  0  0
  6 21  1  0  0  0  0
  7  9  1  0  0  0  0
  7 11  2  0  0  0  0
  8  1  2  0  0  0  0
  9  2  2  0  0  0  0
 10  5  2  0  0  0  0
 10 13  1  0  0  0  0
 11  4  1  0  0  0  0
 12  8  1  0  0  0  0
 13  8  1  0  0  0  0
 14 18  1  0  0  0  0
 15 16  2  0  0  0  0
 16 17  1  0  0  0  0
 17 18  2  0  0  0  0
 18  7  1  0  0  0  0
 19 15  1  0  0  0  0
 19 14  2  0  0  0  0
 21 25  2  0  0  0  0
 21 22  1  0  0  0  0
 22 23  2  0  0  0  0
 23 20  1  0  0  0  0
 24 20  2  0  0  0  0
 25 24  1  0  0  0  0
 26 27  1  0  0  0  0
 27  5  1  0  0  0  0
M  END
>  <MODEL>
5

>  <REMARK>
 VINA RESULT:      -9.0      1.042      1.624
  Name = 
  3 active torsions:
  status: ('A' for Active; 'I' for Inactive)
    1  A    between atoms: C_9  and  C_15
    2  A    between atoms: C_13  and  C_22
    3  A    between atoms: C_14  and  C_17
                            x       y       z     vdW  Elec       q    Type
                         _______ _______ _______ _____ _____    ______ ____

>  <TORSDO>
F 3

$$$$
=
 OpenBabel11062407423D

 27 31  0  0  0  0  0  0  0  0999 V2000
  161.8530  208.1660  148.7570 N   0  0  0  0  0  0  0  0  0  0  0  0
  161.5530  207.3610  149.8240 C   0  0  0  0  0  0  0  0  0  0  0  0
  161.4830  209.3160  151.2530 N   0  0  0  0  0  0  0  0  0  0  0  0
  161.1390  205.1830  150.7930 C   0  0  0  0  0  3  0  0  0  0  0  0
  162.1960  211.6390  148.8230 C   0  0  0  0  0  0  0  0  0  0  0  0
  161.4280  205.9600  149.6650 C   0  0  0  0  0  0  0  0  0  0  0  0
  161.0880  207.1400  152.2420 C   0  0  0  0  0  0  0  0  0  0  0  0
  161.9570  209.5000  148.9460 C   0  0  0  0  0  0  0  0  0  0  0  0
  161.3780  207.9560  151.1220 C   0  0  0  0  0  0  0  0  0  0  0  0
  161.9080  211.3950  150.1270 N   0  0  0  0  0  0  0  0  0  0  0  0
  160.9710  205.7590  152.0490 C   0  0  0  0  0  3  0  0  0  0  0  0
  162.2330  210.4850  148.0310 C   0  0  0  0  0  2  0  0  0  0  0  0
  161.7710  210.0620  150.1630 C   0  0  0  0  0  0  0  0  0  0  0  0
  160.4580  206.8370  154.6540 C   0  0  0  0  0  3  0  0  0  0  0  0
  160.6090  208.6620  156.2140 C   0  0  0  0  0  3  0  0  0  0  0  0
  161.0510  209.4690  155.2150 N   0  0  0  0  0  0  0  0  0  0  0  0
  161.2060  209.0100  153.9440 C   0  0  0  0  0  3  0  0  0  0  0  0
  160.9060  207.6770  153.6210 C   0  0  0  0  0  0  0  0  0  0  0  0
  160.3040  207.3260  155.9510 C   0  0  0  0  0  3  0  0  0  0  0  0
  161.8000  203.9400  145.9450 N   0  0  0  0  0  0  0  0  0  0  0  0
  161.5800  205.2680  148.3520 C   0  0  0  0  0  0  0  0  0  0  0  0
  161.3350  203.8930  148.2470 C   0  0  0  0  0  3  0  0  0  0  0  0
  161.4550  203.2700  147.0460 N   0  0  0  0  0  0  0  0  0  0  0  0
  162.0440  205.2750  145.9800 C   0  0  0  0  0  3  0  0  0  0  0  0
  161.9340  205.9600  147.1880 C   0  0  0  0  0  3  0  0  0  0  0  0
  162.6190  212.9580  146.7900 C   0  0  0  0  0  1  0  0  0  0  0  0
  162.4060  213.0130  148.2890 C   0  0  0  0  0  2  0  0  0  0  0  0
  1  8  2  0  0  0  0
  1  2  1  0  0  0  0
  2  9  1  0  0  0  0
  4 11  2  0  0  0  0
  5 10  2  0  0  0  0
  6  2  2  0  0  0  0
  6  4  1  0  0  0  0
  7 18  1  0  0  0  0
  8 13  1  0  0  0  0
  9  3  1  0  0  0  0
  9  7  2  0  0  0  0
 10 13  1  0  0  0  0
 11  7  1  0  0  0  0
 12  5  1  0  0  0  0
 12  8  1  0  0  0  0
 13  3  2  0  0  0  0
 14 19  1  0  0  0  0
 16 15  1  0  0  0  0
 17 16  2  0  0  0  0
 18 17  1  0  0  0  0
 18 14  2  0  0  0  0
 19 15  2  0  0  0  0
 20 24  2  0  0  0  0
 20 23  1  0  0  0  0
 21  6  1  0  0  0  0
 22 21  1  0  0  0  0
 23 22  2  0  0  0  0
 24 25  1  0  0  0  0
 25 21  2  0  0  0  0
 26 27  1  0  0  0  0
 27  5  1  0  0  0  0
M  END
>  <MODEL>
6

>  <REMARK>
 VINA RESULT:      -8.8      1.320      6.290
  Name = 
  3 active torsions:
  status: ('A' for Active; 'I' for Inactive)
    1  A    between atoms: C_9  and  C_15
    2  A    between atoms: C_13  and  C_22
    3  A    between atoms: C_14  and  C_17
                            x       y       z     vdW  Elec       q    Type
                         _______ _______ _______ _____ _____    ______ ____

>  <TORSDO>
F 3

$$$$
=
 OpenBabel11062407423D

 27 31  0  0  0  0  0  0  0  0999 V2000
  161.5770  210.3930  151.6940 N   0  0  0  0  0  0  0  0  0  0  0  0
  161.6170  209.4540  150.6990 C   0  0  0  0  0  0  0  0  0  0  0  0
  161.1600  207.7280  152.3350 N   0  0  0  0  0  0  0  0  0  0  0  0
  161.9110  208.8250  148.3800 C   0  0  0  0  0  3  0  0  0  0  0  0
  160.9660  209.7900  155.0770 C   0  0  0  0  0  0  0  0  0  0  0  0
  161.8620  209.8290  149.3550 C   0  0  0  0  0  0  0  0  0  0  0  0
  161.4740  207.0810  150.0220 C   0  0  0  0  0  0  0  0  0  0  0  0
  161.3320  209.9980  152.9640 C   0  0  0  0  0  0  0  0  0  0  0  0
  161.4170  208.0690  151.0330 C   0  0  0  0  0  0  0  0  0  0  0  0
  160.8870  208.5270  154.5840 N   0  0  0  0  0  0  0  0  0  0  0  0
  161.7200  207.4860  148.7050 C   0  0  0  0  0  3  0  0  0  0  0  0
  161.2360  210.7580  154.1030 C   0  0  0  0  0  2  0  0  0  0  0  0
  161.1230  208.6990  153.2760 C   0  0  0  0  0  0  0  0  0  0  0  0
  160.9130  204.7580  149.2520 C   0  0  0  0  0  3  0  0  0  0  0  0
  160.9950  202.8930  150.7700 C   0  0  0  0  0  3  0  0  0  0  0  0
  161.3700  203.7340  151.7690 N   0  0  0  0  0  0  0  0  0  0  0  0
  161.5230  205.0690  151.5570 C   0  0  0  0  0  3  0  0  0  0  0  0
  161.2920  205.6250  150.2890 C   0  0  0  0  0  0  0  0  0  0  0  0
  160.7600  203.3920  149.4880 C   0  0  0  0  0  3  0  0  0  0  0  0
  162.4760  213.8290  148.0580 N   0  0  0  0  0  0  0  0  0  0  0  0
  162.0650  211.2420  148.9240 C   0  0  0  0  0  0  0  0  0  0  0  0
  163.2120  211.6030  148.2040 C   0  0  0  0  0  3  0  0  0  0  0  0
  163.3830  212.8870  147.7950 N   0  0  0  0  0  0  0  0  0  0  0  0
  161.3410  213.5410  148.7460 C   0  0  0  0  0  3  0  0  0  0  0  0
  161.1190  212.2390  149.1870 C   0  0  0  0  0  3  0  0  0  0  0  0
  160.3170  208.8550  157.2590 C   0  0  0  0  0  1  0  0  0  0  0  0
  160.7390  210.1070  156.5150 C   0  0  0  0  0  2  0  0  0  0  0  0
  1  8  2  0  0  0  0
  2  9  1  0  0  0  0
  2  1  1  0  0  0  0
  3 13  2  0  0  0  0
  4 11  2  0  0  0  0
  4  6  1  0  0  0  0
  5 27  1  0  0  0  0
  6  2  2  0  0  0  0
  7 18  1  0  0  0  0
  7  9  2  0  0  0  0
  8 13  1  0  0  0  0
  8 12  1  0  0  0  0
  9  3  1  0  0  0  0
 10  5  2  0  0  0  0
 11  7  1  0  0  0  0
 12  5  1  0  0  0  0
 13 10  1  0  0  0  0
 14 19  2  0  0  0  0
 14 18  1  0  0  0  0
 15 16  2  0  0  0  0
 17 16  1  0  0  0  0
 18 17  2  0  0  0  0
 19 15  1  0  0  0  0
 20 24  1  0  0  0  0
 21 25  1  0  0  0  0
 21  6  1  0  0  0  0
 22 21  2  0  0  0  0
 23 20  2  0  0  0  0
 23 22  1  0  0  0  0
 24 25  2  0  0  0  0
 27 26  1  0  0  0  0
M  END
>  <MODEL>
7

>  <REMARK>
 VINA RESULT:      -8.5      1.914      5.778
  Name = 
  3 active torsions:
  status: ('A' for Active; 'I' for Inactive)
    1  A    between atoms: C_9  and  C_15
    2  A    between atoms: C_13  and  C_22
    3  A    between atoms: C_14  and  C_17
                            x       y       z     vdW  Elec       q    Type
                         _______ _______ _______ _____ _____    ______ ____

>  <TORSDO>
F 3

$$$$
=
 OpenBabel11062407423D

 27 31  0  0  0  0  0  0  0  0999 V2000
  161.2000  207.4380  152.2500 N   0  0  0  0  0  0  0  0  0  0  0  0
  161.4280  207.8310  150.9580 C   0  0  0  0  0  0  0  0  0  0  0  0
  161.6550  210.1200  151.7140 N   0  0  0  0  0  0  0  0  0  0  0  0
  161.6580  207.3450  148.5980 C   0  0  0  0  0  3  0  0  0  0  0  0
  161.1450  209.5120  155.0570 C   0  0  0  0  0  0  0  0  0  0  0  0
  161.4380  206.8860  149.9030 C   0  0  0  0  0  0  0  0  0  0  0  0
  161.8660  209.6530  149.3460 C   0  0  0  0  0  0  0  0  0  0  0  0
  161.2060  208.3670  153.2320 C   0  0  0  0  0  0  0  0  0  0  0  0
  161.6480  209.2240  150.6770 C   0  0  0  0  0  0  0  0  0  0  0  0
  161.4070  210.4210  154.0840 N   0  0  0  0  0  0  0  0  0  0  0  0
  161.8680  208.6940  148.3270 C   0  0  0  0  0  3  0  0  0  0  0  0
  161.0160  208.2010  154.5810 C   0  0  0  0  0  2  0  0  0  0  0  0
  161.4330  209.6750  152.9720 C   0  0  0  0  0  0  0  0  0  0  0  0
  163.2370  211.4530  148.2580 C   0  0  0  0  0  3  0  0  0  0  0  0
  162.4840  213.7390  148.2250 C   0  0  0  0  0  3  0  0  0  0  0  0
  161.3690  213.3710  148.9080 N   0  0  0  0  0  0  0  0  0  0  0  0
  161.1520  212.0810  149.2800 C   0  0  0  0  0  3  0  0  0  0  0  0
  162.0860  211.0800  148.9720 C   0  0  0  0  0  0  0  0  0  0  0  0
  163.4410  212.7820  147.8860 C   0  0  0  0  0  3  0  0  0  0  0  0
  160.8930  202.7040  150.4250 N   0  0  0  0  0  0  0  0  0  0  0  0
  161.2340  205.4240  150.1110 C   0  0  0  0  0  0  0  0  0  0  0  0
  160.9970  204.5810  149.0170 C   0  0  0  0  0  3  0  0  0  0  0  0
  160.8310  203.2460  149.2080 N   0  0  0  0  0  0  0  0  0  0  0  0
  161.1270  203.4660  151.5250 C   0  0  0  0  0  3  0  0  0  0  0  0
  161.3040  204.8400  151.3810 C   0  0  0  0  0  3  0  0  0  0  0  0
  162.3290  209.4880  157.2140 C   0  0  0  0  0  1  0  0  0  0  0  0
  161.0520  209.8790  156.4970 C   0  0  0  0  0  2  0  0  0  0  0  0
  1  8  2  0  0  0  0
  2  1  1  0  0  0  0
  3 13  2  0  0  0  0
  4  6  1  0  0  0  0
  5 27  1  0  0  0  0
  6 21  1  0  0  0  0
  6  2  2  0  0  0  0
  7  9  2  0  0  0  0
  8 12  1  0  0  0  0
  9  2  1  0  0  0  0
  9  3  1  0  0  0  0
 10  5  2  0  0  0  0
 11  4  2  0  0  0  0
 11  7  1  0  0  0  0
 12  5  1  0  0  0  0
 13  8  1  0  0  0  0
 13 10  1  0  0  0  0
 14 18  1  0  0  0  0
 15 16  2  0  0  0  0
 16 17  1  0  0  0  0
 18 17  2  0  0  0  0
 18  7  1  0  0  0  0
 19 15  1  0  0  0  0
 19 14  2  0  0  0  0
 20 24  1  0  0  0  0
 21 25  1  0  0  0  0
 22 23  1  0  0  0  0
 22 21  2  0  0  0  0
 23 20  2  0  0  0  0
 25 24  2  0  0  0  0
 27 26  1  0  0  0  0
M  END
>  <MODEL>
8

>  <REMARK>
 VINA RESULT:      -8.4      1.765      6.827
  Name = 
  3 active torsions:
  status: ('A' for Active; 'I' for Inactive)
    1  A    between atoms: C_9  and  C_15
    2  A    between atoms: C_13  and  C_22
    3  A    between atoms: C_14  and  C_17
                            x       y       z     vdW  Elec       q    Type
                         _______ _______ _______ _____ _____    ______ ____

>  <TORSDO>
F 3

$$$$
=
 OpenBabel11062407423D

 27 31  0  0  0  0  0  0  0  0999 V2000
  161.7250  208.6000  148.3080 N   0  0  0  0  0  0  0  0  0  0  0  0
  161.6160  209.2310  149.5180 C   0  0  0  0  0  0  0  0  0  0  0  0
  161.3080  207.0810  150.5900 N   0  0  0  0  0  0  0  0  0  0  0  0
  161.5810  211.2360  150.8740 C   0  0  0  0  0  3  0  0  0  0  0  0
  161.5500  205.1590  147.7530 C   0  0  0  0  0  0  0  0  0  0  0  0
  161.7190  210.6410  149.6140 C   0  0  0  0  0  0  0  0  0  0  0  0
  161.2470  209.0800  151.9580 C   0  0  0  0  0  0  0  0  0  0  0  0
  161.6300  207.2530  148.2570 C   0  0  0  0  0  0  0  0  0  0  0  0
  161.3830  208.4450  150.7000 C   0  0  0  0  0  0  0  0  0  0  0  0
  161.3800  205.2000  149.0990 N   0  0  0  0  0  0  0  0  0  0  0  0
  161.3530  210.4750  152.0170 C   0  0  0  0  0  3  0  0  0  0  0  0
  161.7210  206.4200  147.1690 C   0  0  0  0  0  2  0  0  0  0  0  0
  161.4320  206.5110  149.3700 C   0  0  0  0  0  0  0  0  0  0  0  0
  160.6000  209.0310  154.3830 C   0  0  0  0  0  3  0  0  0  0  0  0
  160.4620  206.9530  155.5890 C   0  0  0  0  0  3  0  0  0  0  0  0
  160.8310  206.2860  154.4640 N   0  0  0  0  0  0  0  0  0  0  0  0
  161.0910  206.9400  153.3000 C   0  0  0  0  0  3  0  0  0  0  0  0
  160.9910  208.3380  153.2250 C   0  0  0  0  0  0  0  0  0  0  0  0
  160.3380  208.3430  155.5680 C   0  0  0  0  0  3  0  0  0  0  0  0
  162.3700  213.1900  146.2780 N   0  0  0  0  0  0  0  0  0  0  0  0
  161.9740  211.5250  148.4410 C   0  0  0  0  0  0  0  0  0  0  0  0
  160.9380  211.8280  147.5470 C   0  0  0  0  0  3  0  0  0  0  0  0
  161.1690  212.6500  146.4900 N   0  0  0  0  0  0  0  0  0  0  0  0
  163.4130  212.9400  147.1110 C   0  0  0  0  0  3  0  0  0  0  0  0
  163.2270  212.1040  148.2090 C   0  0  0  0  0  3  0  0  0  0  0  0
  161.2060  202.7260  147.8860 C   0  0  0  0  0  1  0  0  0  0  0  0
  161.5970  203.8820  146.9870 C   0  0  0  0  0  2  0  0  0  0  0  0
  1  2  1  0  0  0  0
  2  6  2  0  0  0  0
  2  9  1  0  0  0  0
  3  9  1  0  0  0  0
  4 11  2  0  0  0  0
  5 10  2  0  0  0  0
  6  4  1  0  0  0  0
  7 11  1  0  0  0  0
  7 18  1  0  0  0  0
  8  1  2  0  0  0  0
  8 13  1  0  0  0  0
  9  7  2  0  0  0  0
 10 13  1  0  0  0  0
 12  5  1  0  0  0  0
 12  8  1  0  0  0  0
 13  3  2  0  0  0  0
 14 19  1  0  0  0  0
 16 15  1  0  0  0  0
 17 16  2  0  0  0  0
 18 17  1  0  0  0  0
 18 14  2  0  0  0  0
 19 15  2  0  0  0  0
 20 23  2  0  0  0  0
 20 24  1  0  0  0  0
 21  6  1  0  0  0  0
 22 21  2  0  0  0  0
 23 22  1  0  0  0  0
 24 25  2  0  0  0  0
 25 21  1  0  0  0  0
 27  5  1  0  0  0  0
 27 26  1  0  0  0  0
M  END
>  <MODEL>
9

>  <REMARK>
 VINA RESULT:      -8.0      1.873      7.013
  Name = 
  3 active torsions:
  status: ('A' for Active; 'I' for Inactive)
    1  A    between atoms: C_9  and  C_15
    2  A    between atoms: C_13  and  C_22
    3  A    between atoms: C_14  and  C_17
                            x       y       z     vdW  Elec       q    Type
                         _______ _______ _______ _____ _____    ______ ____

>  <TORSDO>
F 3

$$$$
