=
 OpenBabel11052422113D

 25 28  0  0  1  0  0  0  0  0999 V2000
  161.1820  205.2740  150.9830 C   0  0  0  0  0  0  0  0  0  0  0  0
  161.1870  206.7680  150.8330 C   0  0  0  0  0  0  0  0  0  0  0  0
  161.0540  205.4410  153.4370 N   0  0  0  0  0  0  0  0  0  0  0  0
  161.1310  204.3260  149.9530 C   0  0  0  0  0  0  0  0  0  0  0  0
  160.9980  202.1760  148.1790 C   0  0  0  0  0  3  0  0  0  0  0  0
  161.1060  206.7180  153.4090 N   0  0  0  0  0  0  0  0  0  0  0  0
  161.0540  203.0180  150.4230 C   0  0  0  0  0  0  0  0  0  0  0  0
  160.9870  201.9270  149.5600 C   0  0  0  0  0  3  0  0  0  0  0  0
  161.3810  208.8020  152.2160 C   0  0  2  0  0  3  0  0  0  0  0  0
  161.3080  209.6770  153.7380 Cl  0  0  0  0  0  0  0  0  0  0  0  0
  162.6090  207.3340  149.8500 S   0  0  0  0  0  0  0  0  0  0  0  0
  161.0690  203.4950  147.6920 C   0  0  0  0  0  3  0  0  0  0  0  0
  161.1140  204.6830  152.2310 C   0  0  0  0  0  0  0  0  0  0  0  0
  161.0200  203.0020  152.1080 S   0  0  0  0  0  0  0  0  0  0  0  0
  161.5680  209.5540  151.0050 N   0  0  0  0  0  0  0  0  0  0  0  0
  161.1320  204.5810  148.5790 C   0  0  0  0  0  3  0  0  0  0  0  0
  162.0210  209.0350  149.9010 C   0  0  0  0  0  0  0  0  0  0  0  0
  161.2310  207.4670  152.1820 C   0  0  0  0  0  0  0  0  0  0  0  0
  162.0010  209.8400  148.6480 C   0  0  0  0  0  2  0  0  0  0  0  0
  162.1380  211.2560  148.9590 N   0  0  0  0  0  2  0  0  0  0  0  0
  161.4850  212.2830  148.2090 C   0  0  0  0  0  0  0  0  0  0  0  0
  160.8220  211.9910  147.1760 O   0  0  0  0  0  0  0  0  0  0  0  0
  161.5940  213.6830  148.6400 C   0  0  0  0  0  0  0  0  0  0  0  0
  160.6960  214.2040  149.6130 N   0  0  0  0  0  1  0  0  0  0  0  0
  162.5000  214.4530  148.1340 N   0  0  0  0  0  2  0  0  0  0  0  0
  1 13  1  0  0  0  0
  2  1  2  0  0  0  0
  2 18  1  0  0  0  0
  4  7  1  0  0  0  0
  4  1  1  0  0  0  0
  5  8  1  0  0  0  0
  6  3  1  0  0  0  0
  7 14  1  0  0  0  0
  8  7  2  0  0  0  0
  9 10  1  6  0  0  0
 11 17  1  0  0  0  0
 11  2  1  0  0  0  0
 12  5  2  0  0  0  0
 12 16  1  0  0  0  0
 13  3  2  0  0  0  0
 14 13  1  0  0  0  0
 15  9  1  0  0  0  0
 16  4  2  0  0  0  0
 17 15  2  0  0  0  0
 18  9  1  0  0  0  0
 18  6  2  0  0  0  0
 19 20  1  0  0  0  0
 19 17  1  0  0  0  0
 21 23  1  0  0  0  0
 21 20  1  0  0  0  0
 22 21  2  0  0  0  0
 23 24  1  0  0  0  0
 25 23  2  0  0  0  0
M  END
>  <MODEL>
1

>  <REMARK>
 VINA RESULT:      -8.8      0.000      0.000
  Name = 
  3 active torsions:
  status: ('A' for Active; 'I' for Inactive)
    1  A    between atoms: C_2  and  C_21
    2  A    between atoms: C_6  and  N_15
    3  A    between atoms: C_6  and  C_23
                            x       y       z     vdW  Elec       q    Type
                         _______ _______ _______ _____ _____    ______ ____

>  <TORSDO>
F 3

$$$$
=
 OpenBabel11052422113D

 25 28  0  0  1  0  0  0  0  0999 V2000
  161.2110  208.3670  153.0800 C   0  0  0  0  0  0  0  0  0  0  0  0
  161.0230  207.4160  151.9330 C   0  0  0  0  0  0  0  0  0  0  0  0
  161.9810  210.1570  151.5730 N   0  0  0  0  0  0  0  0  0  0  0  0
  160.8730  208.1440  154.4210 C   0  0  0  0  0  0  0  0  0  0  0  0
  160.2960  208.0650  157.1500 C   0  0  0  0  0  3  0  0  0  0  0  0
  161.9010  209.4030  150.5450 N   0  0  0  0  0  0  0  0  0  0  0  0
  161.0960  209.2560  155.2290 C   0  0  0  0  0  0  0  0  0  0  0  0
  160.8170  209.2430  156.5930 C   0  0  0  0  0  3  0  0  0  0  0  0
  161.5240  207.2460  149.5230 C   0  0  2  0  0  3  0  0  0  0  0  0
  161.9350  207.9220  147.9550 Cl  0  0  0  0  0  0  0  0  0  0  0  0
  161.9240  205.8600  152.2030 S   0  0  0  0  0  0  0  0  0  0  0  0
  160.0600  206.9370  156.3420 C   0  0  0  0  0  3  0  0  0  0  0  0
  161.6630  209.6570  152.8700 C   0  0  0  0  0  0  0  0  0  0  0  0
  161.6860  210.5390  154.3090 S   0  0  0  0  0  0  0  0  0  0  0  0
  161.1810  205.8510  149.5960 N   0  0  0  0  0  0  0  0  0  0  0  0
  160.3450  206.9710  154.9680 C   0  0  0  0  0  3  0  0  0  0  0  0
  161.2420  205.1540  150.6930 C   0  0  0  0  0  0  0  0  0  0  0  0
  161.4950  208.0200  150.6210 C   0  0  0  0  0  0  0  0  0  0  0  0
  160.6880  203.7710  150.7180 C   0  0  0  0  0  2  0  0  0  0  0  0
  161.1870  203.0110  149.5810 N   0  0  0  0  0  2  0  0  0  0  0  0
  160.4390  201.9620  148.9580 C   0  0  0  0  0  0  0  0  0  0  0  0
  159.3330  201.5990  149.4420 O   0  0  0  0  0  0  0  0  0  0  0  0
  160.9680  201.3040  147.7570 C   0  0  0  0  0  0  0  0  0  0  0  0
  160.8010  201.9080  146.4790 N   0  0  0  0  0  2  0  0  0  0  0  0
  161.5800  200.1700  147.8500 N   0  0  0  0  0  1  0  0  0  0  0  0
  1  4  1  0  0  0  0
  2 11  1  0  0  0  0
  2  1  1  0  0  0  0
  3 13  1  0  0  0  0
  4 16  2  0  0  0  0
  4  7  1  0  0  0  0
  6 18  1  0  0  0  0
  6  3  2  0  0  0  0
  7  8  2  0  0  0  0
  8  5  1  0  0  0  0
  9 10  1  6  0  0  0
  9 15  1  0  0  0  0
  9 18  1  0  0  0  0
 12  5  2  0  0  0  0
 13  1  2  0  0  0  0
 13 14  1  0  0  0  0
 14  7  1  0  0  0  0
 15 17  2  0  0  0  0
 16 12  1  0  0  0  0
 17 19  1  0  0  0  0
 17 11  1  0  0  0  0
 18  2  2  0  0  0  0
 20 19  1  0  0  0  0
 21 22  2  0  0  0  0
 21 20  1  0  0  0  0
 23 25  1  0  0  0  0
 23 21  1  0  0  0  0
 24 23  2  0  0  0  0
M  END
>  <MODEL>
2

>  <REMARK>
 VINA RESULT:      -8.5      4.221      7.853
  Name = 
  3 active torsions:
  status: ('A' for Active; 'I' for Inactive)
    1  A    between atoms: C_2  and  C_21
    2  A    between atoms: C_6  and  N_15
    3  A    between atoms: C_6  and  C_23
                            x       y       z     vdW  Elec       q    Type
                         _______ _______ _______ _____ _____    ______ ____

>  <TORSDO>
F 3

$$$$
=
 OpenBabel11052422113D

 25 28  0  0  1  0  0  0  0  0999 V2000
  161.1760  205.5400  150.0980 C   0  0  0  0  0  0  0  0  0  0  0  0
  161.0120  206.7310  150.9980 C   0  0  0  0  0  0  0  0  0  0  0  0
  161.0960  203.9870  152.0080 N   0  0  0  0  0  0  0  0  0  0  0  0
  161.2030  205.5420  148.6980 C   0  0  0  0  0  0  0  0  0  0  0  0
  161.2620  205.1640  145.9330 C   0  0  0  0  0  3  0  0  0  0  0  0
  161.0060  204.9410  152.8520 N   0  0  0  0  0  0  0  0  0  0  0  0
  161.2850  204.2630  148.1550 C   0  0  0  0  0  0  0  0  0  0  0  0
  161.3160  204.0460  146.7800 C   0  0  0  0  0  3  0  0  0  0  0  0
  161.0160  207.2950  153.4000 C   0  0  2  0  0  3  0  0  0  0  0  0
  160.8870  206.8950  155.1050 Cl  0  0  0  0  0  0  0  0  0  0  0  0
  162.3350  207.9510  150.7360 S   0  0  0  0  0  0  0  0  0  0  0  0
  161.1730  206.4620  146.4700 C   0  0  0  0  0  3  0  0  0  0  0  0
  161.2080  204.2570  150.6120 C   0  0  0  0  0  0  0  0  0  0  0  0
  161.2970  203.1060  149.3810 S   0  0  0  0  0  0  0  0  0  0  0  0
  161.0860  208.6830  153.0290 N   0  0  0  0  0  0  0  0  0  0  0  0
  161.1400  206.6590  147.8600 C   0  0  0  0  0  3  0  0  0  0  0  0
  161.5640  209.0980  151.8920 C   0  0  0  0  0  0  0  0  0  0  0  0
  161.0140  206.3310  152.4640 C   0  0  0  0  0  0  0  0  0  0  0  0
  161.4210  210.5320  151.5130 C   0  0  0  0  0  2  0  0  0  0  0  0
  161.8180  210.7250  150.1250 N   0  0  0  0  0  2  0  0  0  0  0  0
  161.5030  211.9070  149.3850 C   0  0  0  0  0  0  0  0  0  0  0  0
  160.7800  212.8040  149.8980 O   0  0  0  0  0  0  0  0  0  0  0  0
  162.0180  212.0710  148.0190 C   0  0  0  0  0  0  0  0  0  0  0  0
  163.4090  212.2840  147.8000 N   0  0  0  0  0  1  0  0  0  0  0  0
  161.2140  212.0320  147.0090 N   0  0  0  0  0  2  0  0  0  0  0  0
  1 13  1  0  0  0  0
  1  2  2  0  0  0  0
  2 18  1  0  0  0  0
  3  6  1  0  0  0  0
  4  1  1  0  0  0  0
  5 12  2  0  0  0  0
  5  8  1  0  0  0  0
  7  4  1  0  0  0  0
  7 14  1  0  0  0  0
  8  7  2  0  0  0  0
  9 10  1  6  0  0  0
 11  2  1  0  0  0  0
 11 17  1  0  0  0  0
 12 16  1  0  0  0  0
 13  3  2  0  0  0  0
 14 13  1  0  0  0  0
 15  9  1  0  0  0  0
 16  4  2  0  0  0  0
 17 15  2  0  0  0  0
 18  6  2  0  0  0  0
 18  9  1  0  0  0  0
 19 17  1  0  0  0  0
 20 19  1  0  0  0  0
 21 22  2  0  0  0  0
 21 20  1  0  0  0  0
 23 21  1  0  0  0  0
 24 23  1  0  0  0  0
 25 23  2  0  0  0  0
M  END
>  <MODEL>
3

>  <REMARK>
 VINA RESULT:      -8.4      1.837      2.386
  Name = 
  3 active torsions:
  status: ('A' for Active; 'I' for Inactive)
    1  A    between atoms: C_2  and  C_21
    2  A    between atoms: C_6  and  N_15
    3  A    between atoms: C_6  and  C_23
                            x       y       z     vdW  Elec       q    Type
                         _______ _______ _______ _____ _____    ______ ____

>  <TORSDO>
F 3

$$$$
=
 OpenBabel11052422113D

 25 28  0  0  1  0  0  0  0  0999 V2000
  161.1640  205.2580  150.0120 C   0  0  0  0  0  0  0  0  0  0  0  0
  161.0060  206.4600  150.8990 C   0  0  0  0  0  0  0  0  0  0  0  0
  161.0120  203.7220  151.9330 N   0  0  0  0  0  0  0  0  0  0  0  0
  161.2210  205.2480  148.6130 C   0  0  0  0  0  0  0  0  0  0  0  0
  161.3300  204.8450  145.8540 C   0  0  0  0  0  3  0  0  0  0  0  0
  160.9230  204.6860  152.7670 N   0  0  0  0  0  0  0  0  0  0  0  0
  161.2870  203.9620  148.0820 C   0  0  0  0  0  0  0  0  0  0  0  0
  161.3430  203.7340  146.7100 C   0  0  0  0  0  3  0  0  0  0  0  0
  160.9700  207.0430  153.2960 C   0  0  2  0  0  3  0  0  0  0  0  0
  160.7970  206.6610  155.0020 Cl  0  0  0  0  0  0  0  0  0  0  0  0
  162.3590  207.6500  150.6560 S   0  0  0  0  0  0  0  0  0  0  0  0
  161.2570  206.1490  146.3780 C   0  0  0  0  0  3  0  0  0  0  0  0
  161.1580  203.9790  150.5380 C   0  0  0  0  0  0  0  0  0  0  0  0
  161.2500  202.8160  149.3180 S   0  0  0  0  0  0  0  0  0  0  0  0
  161.0770  208.4260  152.9150 N   0  0  0  0  0  0  0  0  0  0  0  0
  161.1980  206.3580  147.7650 C   0  0  0  0  0  3  0  0  0  0  0  0
  161.5880  208.8220  151.7860 C   0  0  0  0  0  0  0  0  0  0  0  0
  160.9680  206.0720  152.3680 C   0  0  0  0  0  0  0  0  0  0  0  0
  161.4830  210.2550  151.3930 C   0  0  0  0  0  2  0  0  0  0  0  0
  160.7660  211.0040  152.4160 N   0  0  0  0  0  2  0  0  0  0  0  0
  160.0290  212.1960  152.1320 C   0  0  0  0  0  0  0  0  0  0  0  0
  160.0490  212.6940  150.9740 O   0  0  0  0  0  0  0  0  0  0  0  0
  159.2530  212.8440  153.1980 C   0  0  0  0  0  0  0  0  0  0  0  0
  159.6280  212.6720  154.5600 N   0  0  0  0  0  1  0  0  0  0  0  0
  158.2230  213.5670  152.9080 N   0  0  0  0  0  2  0  0  0  0  0  0
  1 13  1  0  0  0  0
  1  2  2  0  0  0  0
  2 18  1  0  0  0  0
  3  6  1  0  0  0  0
  4  1  1  0  0  0  0
  5 12  2  0  0  0  0
  5  8  1  0  0  0  0
  7  4  1  0  0  0  0
  7 14  1  0  0  0  0
  8  7  2  0  0  0  0
  9 10  1  6  0  0  0
 11  2  1  0  0  0  0
 11 17  1  0  0  0  0
 12 16  1  0  0  0  0
 13  3  2  0  0  0  0
 14 13  1  0  0  0  0
 15  9  1  0  0  0  0
 16  4  2  0  0  0  0
 17 15  2  0  0  0  0
 18  6  2  0  0  0  0
 18  9  1  0  0  0  0
 19 17  1  0  0  0  0
 19 20  1  0  0  0  0
 21 20  1  0  0  0  0
 21 23  1  0  0  0  0
 22 21  2  0  0  0  0
 23 24  1  0  0  0  0
 25 23  2  0  0  0  0
M  END
>  <MODEL>
4

>  <REMARK>
 VINA RESULT:      -8.3      2.584      3.142
  Name = 
  3 active torsions:
  status: ('A' for Active; 'I' for Inactive)
    1  A    between atoms: C_2  and  C_21
    2  A    between atoms: C_6  and  N_15
    3  A    between atoms: C_6  and  C_23
                            x       y       z     vdW  Elec       q    Type
                         _______ _______ _______ _____ _____    ______ ____

>  <TORSDO>
F 3

$$$$
=
 OpenBabel11052422113D

 25 28  0  0  1  0  0  0  0  0999 V2000
  161.2060  204.8560  149.1350 C   0  0  0  0  0  0  0  0  0  0  0  0
  161.1140  205.9550  150.1540 C   0  0  0  0  0  0  0  0  0  0  0  0
  161.1080  203.1210  150.8800 N   0  0  0  0  0  0  0  0  0  0  0  0
  161.1980  204.9990  147.7420 C   0  0  0  0  0  0  0  0  0  0  0  0
  161.1720  204.9020  144.9530 C   0  0  0  0  0  3  0  0  0  0  0  0
  161.0790  203.9870  151.8190 N   0  0  0  0  0  0  0  0  0  0  0  0
  161.2120  203.7790  147.0710 C   0  0  0  0  0  0  0  0  0  0  0  0
  161.2000  203.7030  145.6800 C   0  0  0  0  0  3  0  0  0  0  0  0
  161.2020  206.2710  152.5990 C   0  0  2  0  0  3  0  0  0  0  0  0
  161.0990  205.7050  154.2590 Cl  0  0  0  0  0  0  0  0  0  0  0  0
  162.4810  207.1420  149.9780 S   0  0  0  0  0  0  0  0  0  0  0  0
  161.1510  206.1410  145.6200 C   0  0  0  0  0  3  0  0  0  0  0  0
  161.1960  203.5270  149.5160 C   0  0  0  0  0  0  0  0  0  0  0  0
  161.2060  202.5050  148.1730 S   0  0  0  0  0  0  0  0  0  0  0  0
  161.3210  207.6860  152.3680 N   0  0  0  0  0  0  0  0  0  0  0  0
  161.1600  206.1970  147.0230 C   0  0  0  0  0  3  0  0  0  0  0  0
  161.7880  208.1950  151.2650 C   0  0  0  0  0  0  0  0  0  0  0  0
  161.1360  205.4080  151.5720 C   0  0  0  0  0  0  0  0  0  0  0  0
  161.6960  209.6640  151.0370 C   0  0  0  0  0  2  0  0  0  0  0  0
  161.7120  210.3710  152.3100 N   0  0  0  0  0  2  0  0  0  0  0  0
  160.5230  210.8340  152.9560 C   0  0  0  0  0  0  0  0  0  0  0  0
  159.4050  210.7170  152.3860 O   0  0  0  0  0  0  0  0  0  0  0  0
  160.6110  211.4550  154.2840 C   0  0  0  0  0  0  0  0  0  0  0  0
  159.7060  212.4910  154.6500 N   0  0  0  0  0  2  0  0  0  0  0  0
  161.5140  211.0720  155.1250 N   0  0  0  0  0  1  0  0  0  0  0  0
  1 13  1  0  0  0  0
  1  2  2  0  0  0  0
  2 18  1  0  0  0  0
  3  6  1  0  0  0  0
  4  1  1  0  0  0  0
  5 12  2  0  0  0  0
  5  8  1  0  0  0  0
  7  4  1  0  0  0  0
  7 14  1  0  0  0  0
  8  7  2  0  0  0  0
  9 10  1  6  0  0  0
 11  2  1  0  0  0  0
 11 17  1  0  0  0  0
 12 16  1  0  0  0  0
 13  3  2  0  0  0  0
 14 13  1  0  0  0  0
 15  9  1  0  0  0  0
 16  4  2  0  0  0  0
 17 15  2  0  0  0  0
 18  6  2  0  0  0  0
 18  9  1  0  0  0  0
 19 17  1  0  0  0  0
 19 20  1  0  0  0  0
 20 21  1  0  0  0  0
 21 23  1  0  0  0  0
 22 21  2  0  0  0  0
 23 24  2  0  0  0  0
 23 25  1  0  0  0  0
M  END
>  <MODEL>
5

>  <REMARK>
 VINA RESULT:      -8.1      2.834      3.789
  Name = 
  3 active torsions:
  status: ('A' for Active; 'I' for Inactive)
    1  A    between atoms: C_2  and  C_21
    2  A    between atoms: C_6  and  N_15
    3  A    between atoms: C_6  and  C_23
                            x       y       z     vdW  Elec       q    Type
                         _______ _______ _______ _____ _____    ______ ____

>  <TORSDO>
F 3

$$$$
=
 OpenBabel11052422113D

 25 28  0  0  1  0  0  0  0  0999 V2000
  161.4960  204.6980  148.2770 C   0  0  0  0  0  0  0  0  0  0  0  0
  161.7150  205.7980  149.2740 C   0  0  0  0  0  0  0  0  0  0  0  0
  161.8760  206.2300  146.3850 N   0  0  0  0  0  0  0  0  0  0  0  0
  161.3000  203.3390  148.5530 C   0  0  0  0  0  0  0  0  0  0  0  0
  160.9230  200.5790  148.7260 C   0  0  0  0  0  3  0  0  0  0  0  0
  162.0260  207.2360  147.1570 N   0  0  0  0  0  0  0  0  0  0  0  0
  161.2090  202.5590  147.4040 C   0  0  0  0  0  0  0  0  0  0  0  0
  161.0210  201.1800  147.4620 C   0  0  0  0  0  3  0  0  0  0  0  0
  161.9780  208.2510  149.3500 C   0  0  2  0  0  3  0  0  0  0  0  0
  162.3310  209.8140  148.6310 Cl  0  0  0  0  0  0  0  0  0  0  0  0
  160.3180  205.9390  150.4290 S   0  0  0  0  0  0  0  0  0  0  0  0
  161.0180  201.3570  149.8950 C   0  0  0  0  0  3  0  0  0  0  0  0
  161.5840  204.9400  146.9180 C   0  0  0  0  0  0  0  0  0  0  0  0
  161.3970  203.5160  146.0300 S   0  0  0  0  0  0  0  0  0  0  0  0
  161.8030  208.1810  150.7760 N   0  0  0  0  0  0  0  0  0  0  0  0
  161.2120  202.7460  149.8150 C   0  0  0  0  0  3  0  0  0  0  0  0
  161.1720  207.2120  151.3740 C   0  0  0  0  0  0  0  0  0  0  0  0
  161.9100  207.1430  148.5930 C   0  0  0  0  0  0  0  0  0  0  0  0
  161.2040  207.1210  152.8610 C   0  0  0  0  0  2  0  0  0  0  0  0
  161.1680  208.4540  153.4450 N   0  0  0  0  0  2  0  0  0  0  0  0
  161.1730  208.6840  154.8570 C   0  0  0  0  0  0  0  0  0  0  0  0
  161.1220  207.7110  155.6580 O   0  0  0  0  0  0  0  0  0  0  0  0
  161.2310  210.0580  155.3720 C   0  0  0  0  0  0  0  0  0  0  0  0
  160.0480  210.6970  155.8390 N   0  0  0  0  0  1  0  0  0  0  0  0
  162.3520  210.7000  155.3960 N   0  0  0  0  0  2  0  0  0  0  0  0
  1  4  1  0  0  0  0
  1  2  2  0  0  0  0
  2 11  1  0  0  0  0
  3 13  2  0  0  0  0
  3  6  1  0  0  0  0
  4 16  1  0  0  0  0
  5 12  1  0  0  0  0
  6 18  2  0  0  0  0
  7  8  1  0  0  0  0
  7  4  2  0  0  0  0
  8  5  2  0  0  0  0
  9 10  1  1  0  0  0
  9 15  1  0  0  0  0
 11 17  1  0  0  0  0
 13  1  1  0  0  0  0
 14 13  1  0  0  0  0
 14  7  1  0  0  0  0
 15 17  2  0  0  0  0
 16 12  2  0  0  0  0
 17 19  1  0  0  0  0
 18  2  1  0  0  0  0
 18  9  1  0  0  0  0
 19 20  1  0  0  0  0
 20 21  1  0  0  0  0
 21 23  1  0  0  0  0
 21 22  2  0  0  0  0
 23 25  2  0  0  0  0
 23 24  1  0  0  0  0
M  END
>  <MODEL>
6

>  <REMARK>
 VINA RESULT:      -8.1      3.583      5.089
  Name = 
  3 active torsions:
  status: ('A' for Active; 'I' for Inactive)
    1  A    between atoms: C_2  and  C_21
    2  A    between atoms: C_6  and  N_15
    3  A    between atoms: C_6  and  C_23
                            x       y       z     vdW  Elec       q    Type
                         _______ _______ _______ _____ _____    ______ ____

>  <TORSDO>
F 3

$$$$
=
 OpenBabel11052422113D

 25 28  0  0  1  0  0  0  0  0999 V2000
  161.4890  206.4250  150.0480 C   0  0  0  0  0  0  0  0  0  0  0  0
  161.8340  207.6860  150.7860 C   0  0  0  0  0  0  0  0  0  0  0  0
  161.6540  207.5620  147.8690 N   0  0  0  0  0  0  0  0  0  0  0  0
  161.3150  205.1500  150.5990 C   0  0  0  0  0  0  0  0  0  0  0  0
  160.9390  202.4840  151.3360 C   0  0  0  0  0  3  0  0  0  0  0  0
  161.9030  208.6910  148.4130 N   0  0  0  0  0  0  0  0  0  0  0  0
  161.0830  204.1700  149.6370 C   0  0  0  0  0  0  0  0  0  0  0  0
  160.8920  202.8340  149.9780 C   0  0  0  0  0  3  0  0  0  0  0  0
  162.1240  210.1000  150.3640 C   0  0  2  0  0  3  0  0  0  0  0  0
  162.4010  211.4890  149.3240 Cl  0  0  0  0  0  0  0  0  0  0  0  0
  160.5850  208.0840  152.0460 S   0  0  0  0  0  0  0  0  0  0  0  0
  161.1790  203.4640  152.3170 C   0  0  0  0  0  3  0  0  0  0  0  0
  161.4170  206.4050  148.6670 C   0  0  0  0  0  0  0  0  0  0  0  0
  161.1140  204.8460  148.0930 S   0  0  0  0  0  0  0  0  0  0  0  0
  162.1180  210.3050  151.7880 N   0  0  0  0  0  0  0  0  0  0  0  0
  161.3730  204.8060  151.9530 C   0  0  0  0  0  3  0  0  0  0  0  0
  161.5550  209.4850  152.6270 C   0  0  0  0  0  0  0  0  0  0  0  0
  161.9570  208.8730  149.8440 C   0  0  0  0  0  0  0  0  0  0  0  0
  161.7630  209.6740  154.0900 C   0  0  0  0  0  2  0  0  0  0  0  0
  160.7080  210.5120  154.6420 N   0  0  0  0  0  2  0  0  0  0  0  0
  159.6970  210.0100  155.5210 C   0  0  0  0  0  0  0  0  0  0  0  0
  159.6380  208.7770  155.7820 O   0  0  0  0  0  0  0  0  0  0  0  0
  158.7210  210.9340  156.1130 C   0  0  0  0  0  0  0  0  0  0  0  0
  159.0780  211.7260  157.2400 N   0  0  0  0  0  1  0  0  0  0  0  0
  157.5300  211.0280  155.6200 N   0  0  0  0  0  2  0  0  0  0  0  0
  1  4  1  0  0  0  0
  1  2  1  0  0  0  0
  2 11  1  0  0  0  0
  3  6  2  0  0  0  0
  3 13  1  0  0  0  0
  4 16  1  0  0  0  0
  5 12  1  0  0  0  0
  6 18  1  0  0  0  0
  7  8  1  0  0  0  0
  7  4  2  0  0  0  0
  8  5  2  0  0  0  0
  9 10  1  1  0  0  0
  9 15  1  0  0  0  0
 11 17  1  0  0  0  0
 13  1  2  0  0  0  0
 14 13  1  0  0  0  0
 14  7  1  0  0  0  0
 15 17  2  0  0  0  0
 16 12  2  0  0  0  0
 17 19  1  0  0  0  0
 18  9  1  0  0  0  0
 18  2  2  0  0  0  0
 19 20  1  0  0  0  0
 20 21  1  0  0  0  0
 21 22  2  0  0  0  0
 21 23  1  0  0  0  0
 23 24  1  0  0  0  0
 25 23  2  0  0  0  0
M  END
>  <MODEL>
7

>  <REMARK>
 VINA RESULT:      -7.8      3.495      5.103
  Name = 
  3 active torsions:
  status: ('A' for Active; 'I' for Inactive)
    1  A    between atoms: C_2  and  C_21
    2  A    between atoms: C_6  and  N_15
    3  A    between atoms: C_6  and  C_23
                            x       y       z     vdW  Elec       q    Type
                         _______ _______ _______ _____ _____    ______ ____

>  <TORSDO>
F 3

$$$$
=
 OpenBabel11052422113D

 25 28  0  0  1  0  0  0  0  0999 V2000
  161.1070  206.4230  151.4070 C   0  0  0  0  0  0  0  0  0  0  0  0
  160.8460  207.7880  151.9760 C   0  0  0  0  0  0  0  0  0  0  0  0
  161.2510  205.4260  153.6550 N   0  0  0  0  0  0  0  0  0  0  0  0
  161.0900  206.0590  150.0550 C   0  0  0  0  0  0  0  0  0  0  0  0
  161.1030  204.9740  147.4830 C   0  0  0  0  0  3  0  0  0  0  0  0
  161.0870  206.5560  154.2280 N   0  0  0  0  0  0  0  0  0  0  0  0
  161.2900  204.6950  149.8570 C   0  0  0  0  0  0  0  0  0  0  0  0
  161.3010  204.1290  148.5850 C   0  0  0  0  0  3  0  0  0  0  0  0
  160.8650  208.9620  154.1460 C   0  0  2  0  0  3  0  0  0  0  0  0
  160.8320  209.0140  155.9020 Cl  0  0  0  0  0  0  0  0  0  0  0  0
  162.0240  209.0150  151.3320 S   0  0  0  0  0  0  0  0  0  0  0  0
  160.8940  206.3540  147.6710 C   0  0  0  0  0  3  0  0  0  0  0  0
  161.2900  205.3300  152.2330 C   0  0  0  0  0  0  0  0  0  0  0  0
  161.4620  203.9090  151.3380 S   0  0  0  0  0  0  0  0  0  0  0  0
  160.7760  210.2030  153.4250 N   0  0  0  0  0  0  0  0  0  0  0  0
  160.8830  206.9050  148.9620 C   0  0  0  0  0  3  0  0  0  0  0  0
  161.1730  210.3470  152.1940 C   0  0  0  0  0  0  0  0  0  0  0  0
  160.9350  207.7900  153.4930 C   0  0  0  0  0  0  0  0  0  0  0  0
  160.8680  211.6110  151.4670 C   0  0  0  0  0  2  0  0  0  0  0  0
  159.7110  212.2650  152.0620 N   0  0  0  0  0  2  0  0  0  0  0  0
  159.2830  213.5780  151.6890 C   0  0  0  0  0  0  0  0  0  0  0  0
  159.9630  214.2590  150.8740 O   0  0  0  0  0  0  0  0  0  0  0  0
  158.0520  214.1350  152.2650 C   0  0  0  0  0  0  0  0  0  0  0  0
  157.9910  214.4510  153.6510 N   0  0  0  0  0  1  0  0  0  0  0  0
  157.0150  214.3330  151.5210 N   0  0  0  0  0  2  0  0  0  0  0  0
  1  2  2  0  0  0  0
  1 13  1  0  0  0  0
  2 18  1  0  0  0  0
  3  6  1  0  0  0  0
  4  1  1  0  0  0  0
  5 12  2  0  0  0  0
  5  8  1  0  0  0  0
  7  4  1  0  0  0  0
  7 14  1  0  0  0  0
  8  7  2  0  0  0  0
  9 10  1  1  0  0  0
 11  2  1  0  0  0  0
 11 17  1  0  0  0  0
 12 16  1  0  0  0  0
 13  3  2  0  0  0  0
 14 13  1  0  0  0  0
 15  9  1  0  0  0  0
 16  4  2  0  0  0  0
 17 15  2  0  0  0  0
 18  9  1  0  0  0  0
 18  6  2  0  0  0  0
 19 20  1  0  0  0  0
 19 17  1  0  0  0  0
 21 20  1  0  0  0  0
 21 23  1  0  0  0  0
 22 21  2  0  0  0  0
 23 24  1  0  0  0  0
 25 23  2  0  0  0  0
M  END
>  <MODEL>
8

>  <REMARK>
 VINA RESULT:      -7.7      2.534      3.037
  Name = 
  3 active torsions:
  status: ('A' for Active; 'I' for Inactive)
    1  A    between atoms: C_2  and  C_21
    2  A    between atoms: C_6  and  N_15
    3  A    between atoms: C_6  and  C_23
                            x       y       z     vdW  Elec       q    Type
                         _______ _______ _______ _____ _____    ______ ____

>  <TORSDO>
F 3

$$$$
=
 OpenBabel11052422113D

 25 28  0  0  1  0  0  0  0  0999 V2000
  161.2480  205.4960  148.9620 C   0  0  0  0  0  0  0  0  0  0  0  0
  161.2430  206.9390  149.3750 C   0  0  0  0  0  0  0  0  0  0  0  0
  160.9330  204.7460  151.2870 N   0  0  0  0  0  0  0  0  0  0  0  0
  161.2880  204.9960  147.6540 C   0  0  0  0  0  0  0  0  0  0  0  0
  161.3200  203.6560  145.2070 C   0  0  0  0  0  3  0  0  0  0  0  0
  160.9690  205.9420  151.7360 N   0  0  0  0  0  0  0  0  0  0  0  0
  161.1950  203.6080  147.6000 C   0  0  0  0  0  0  0  0  0  0  0  0
  161.2090  202.9150  146.3930 C   0  0  0  0  0  3  0  0  0  0  0  0
  161.3030  208.3150  151.4230 C   0  0  2  0  0  3  0  0  0  0  0  0
  161.1030  208.5670  153.1500 Cl  0  0  0  0  0  0  0  0  0  0  0  0
  162.7260  207.8070  148.7810 S   0  0  0  0  0  0  0  0  0  0  0  0
  161.4090  205.0600  145.2480 C   0  0  0  0  0  3  0  0  0  0  0  0
  161.0950  204.4870  149.8940 C   0  0  0  0  0  0  0  0  0  0  0  0
  161.0340  202.9720  149.1530 S   0  0  0  0  0  0  0  0  0  0  0  0
  161.5700  209.4590  150.5930 N   0  0  0  0  0  0  0  0  0  0  0  0
  161.3890  205.7410  146.4750 C   0  0  0  0  0  3  0  0  0  0  0  0
  162.1120  209.3780  149.4130 C   0  0  0  0  0  0  0  0  0  0  0  0
  161.1750  207.0900  150.8860 C   0  0  0  0  0  0  0  0  0  0  0  0
  162.1750  210.5890  148.5480 C   0  0  0  0  0  2  0  0  0  0  0  0
  161.2160  211.5840  149.0080 N   0  0  0  0  0  2  0  0  0  0  0  0
  161.3950  212.9880  148.8020 C   0  0  0  0  0  0  0  0  0  0  0  0
  162.4560  213.4230  148.2780 O   0  0  0  0  0  0  0  0  0  0  0  0
  160.3390  213.9250  149.2110 C   0  0  0  0  0  0  0  0  0  0  0  0
  160.3210  214.4470  150.5350 N   0  0  0  0  0  1  0  0  0  0  0  0
  159.4170  214.2730  148.3770 N   0  0  0  0  0  2  0  0  0  0  0  0
  1  2  2  0  0  0  0
  1 13  1  0  0  0  0
  2 18  1  0  0  0  0
  3  6  1  0  0  0  0
  4  1  1  0  0  0  0
  5 12  2  0  0  0  0
  5  8  1  0  0  0  0
  7  4  1  0  0  0  0
  7 14  1  0  0  0  0
  8  7  2  0  0  0  0
  9 10  1  6  0  0  0
 11  2  1  0  0  0  0
 11 17  1  0  0  0  0
 12 16  1  0  0  0  0
 13  3  2  0  0  0  0
 14 13  1  0  0  0  0
 15  9  1  0  0  0  0
 16  4  2  0  0  0  0
 17 15  2  0  0  0  0
 18  9  1  0  0  0  0
 18  6  2  0  0  0  0
 19 20  1  0  0  0  0
 19 17  1  0  0  0  0
 21 20  1  0  0  0  0
 21 23  1  0  0  0  0
 22 21  2  0  0  0  0
 23 24  1  0  0  0  0
 25 23  2  0  0  0  0
M  END
>  <MODEL>
9

>  <REMARK>
 VINA RESULT:      -7.7      1.584      2.068
  Name = 
  3 active torsions:
  status: ('A' for Active; 'I' for Inactive)
    1  A    between atoms: C_2  and  C_21
    2  A    between atoms: C_6  and  N_15
    3  A    between atoms: C_6  and  C_23
                            x       y       z     vdW  Elec       q    Type
                         _______ _______ _______ _____ _____    ______ ____

>  <TORSDO>
F 3

$$$$
