=
 OpenBabel11052422153D

 25 29  0  0  1  0  0  0  0  0999 V2000
  161.5500  206.6930  149.5500 N   0  0  0  0  0  0  0  0  0  0  0  0
  162.2290  207.9300  149.9500 C   0  0  1  0  0  3  0  0  0  0  0  0
  160.9290  206.1160  151.7960 C   0  0  0  0  0  3  0  0  0  0  0  0
  161.7380  206.0140  148.3150 C   0  0  0  0  0  0  0  0  0  0  0  0
  162.0360  204.4370  146.0400 C   0  0  0  0  0  3  0  0  0  0  0  0
  161.2910  207.4840  152.2130 C   0  0  0  0  0  3  0  0  0  0  0  0
  161.3230  204.6910  148.3290 C   0  0  0  0  0  0  0  0  0  0  0  0
  161.4680  203.8860  147.1970 C   0  0  0  0  0  3  0  0  0  0  0  0
  162.0960  209.7140  151.7090 N   0  0  0  0  0  0  0  0  0  0  0  0
  162.1330  210.1580  153.0950 C   0  0  0  0  0  1  0  0  0  0  0  0
  161.9770  209.0090  148.9910 N   0  0  0  0  0  0  0  0  0  0  0  0
  162.4570  205.7770  146.0270 C   0  0  0  0  0  3  0  0  0  0  0  0
  161.0420  205.7720  150.5140 C   0  0  0  0  0  0  0  0  0  0  0  0
  160.6500  204.1320  149.8950 S   0  0  0  0  0  0  0  0  0  0  0  0
  162.2220  210.6600  150.6800 N   0  0  0  0  0  2  0  0  0  0  0  0
  162.3130  206.5740  147.1710 C   0  0  0  0  0  3  0  0  0  0  0  0
  162.0460  210.2720  149.3070 C   0  0  0  0  0  0  0  0  0  0  0  0
  161.8470  208.3500  151.3520 C   0  0  0  0  0  0  0  0  0  0  0  0
  160.5210  212.3960  146.5900 C   0  0  0  0  0  0  0  0  0  0  0  0
  161.8770  211.3050  148.2680 C   0  0  0  0  0  0  0  0  0  0  0  0
  160.6680  211.4120  147.5700 C   0  0  0  0  0  3  0  0  0  0  0  0
  159.2410  212.5140  145.8430 C   0  0  0  0  0  1  0  0  0  0  0  0
  162.9170  212.1950  147.9670 C   0  0  0  0  0  3  0  0  0  0  0  0
  161.5470  213.2450  146.3170 N   0  0  0  0  0  0  0  0  0  0  0  0
  162.7320  213.1650  146.9800 C   0  0  0  0  0  3  0  0  0  0  0  0
  1  2  1  0  0  0  0
  1 13  1  0  0  0  0
  2 11  1  6  0  0  0
  2 18  1  0  0  0  0
  3  6  1  0  0  0  0
  4  7  1  0  0  0  0
  4  1  1  0  0  0  0
  5  8  1  0  0  0  0
  7 14  1  0  0  0  0
  8  7  2  0  0  0  0
  9 10  1  0  0  0  0
 11 17  2  0  0  0  0
 12  5  2  0  0  0  0
 12 16  1  0  0  0  0
 13  3  2  0  0  0  0
 14 13  1  0  0  0  0
 15  9  1  0  0  0  0
 16  4  2  0  0  0  0
 17 15  1  0  0  0  0
 18  9  1  0  0  0  0
 18  6  2  0  0  0  0
 19 21  1  0  0  0  0
 20 17  1  0  0  0  0
 21 20  2  0  0  0  0
 22 19  1  0  0  0  0
 23 20  1  0  0  0  0
 24 19  2  0  0  0  0
 24 25  1  0  0  0  0
 25 23  2  0  0  0  0
M  END
>  <MODEL>
1

>  <REMARK>
 VINA RESULT:      -8.7      0.000      0.000
  Name = 
  1 active torsions:
  status: ('A' for Active; 'I' for Inactive)
    1  A    between atoms: C_6  and  C_23
                            x       y       z     vdW  Elec       q    Type
                         _______ _______ _______ _____ _____    ______ ____

>  <TORSDO>
F 1

$$$$
=
 OpenBabel11052422153D

 25 29  0  0  1  0  0  0  0  0999 V2000
  160.7020  209.6850  152.5830 N   0  0  0  0  0  0  0  0  0  0  0  0
  161.6250  209.5370  151.4530 C   0  0  1  0  0  3  0  0  0  0  0  0
  160.2970  212.0120  152.1560 C   0  0  0  0  0  3  0  0  0  0  0  0
  160.6080  208.7980  153.6900 C   0  0  0  0  0  0  0  0  0  0  0  0
  160.3320  207.2920  156.0150 C   0  0  0  0  0  3  0  0  0  0  0  0
  160.9350  211.8480  150.8370 C   0  0  0  0  0  3  0  0  0  0  0  0
  159.9830  209.3450  154.8010 C   0  0  0  0  0  0  0  0  0  0  0  0
  159.8390  208.6040  155.9750 C   0  0  0  0  0  3  0  0  0  0  0  0
  162.0280  210.4780  149.1620 N   0  0  0  0  0  0  0  0  0  0  0  0
  162.3220  211.5810  148.2600 C   0  0  0  0  0  1  0  0  0  0  0  0
  161.4320  208.2530  150.7730 N   0  0  0  0  0  0  0  0  0  0  0  0
  160.9660  206.7390  154.8910 C   0  0  0  0  0  3  0  0  0  0  0  0
  160.1790  210.9580  152.9610 C   0  0  0  0  0  0  0  0  0  0  0  0
  159.4400  211.0420  154.5960 S   0  0  0  0  0  0  0  0  0  0  0  0
  162.1720  209.1580  148.7070 N   0  0  0  0  0  2  0  0  0  0  0  0
  161.1110  207.4940  153.7190 C   0  0  0  0  0  3  0  0  0  0  0  0
  161.7530  208.0540  149.5260 C   0  0  0  0  0  0  0  0  0  0  0  0
  161.5090  210.6880  150.4800 C   0  0  0  0  0  0  0  0  0  0  0  0
  161.0920  204.3600  149.1490 C   0  0  0  0  0  0  0  0  0  0  0  0
  161.6220  206.7090  148.9340 C   0  0  0  0  0  0  0  0  0  0  0  0
  161.2130  205.6270  149.7230 C   0  0  0  0  0  3  0  0  0  0  0  0
  160.6600  203.2070  149.9810 C   0  0  0  0  0  1  0  0  0  0  0  0
  161.8990  206.4940  147.5770 C   0  0  0  0  0  3  0  0  0  0  0  0
  161.3700  204.1790  147.8300 N   0  0  0  0  0  0  0  0  0  0  0  0
  161.7670  205.2130  147.0390 C   0  0  0  0  0  3  0  0  0  0  0  0
  1 13  1  0  0  0  0
  1  4  1  0  0  0  0
  2 18  1  6  0  0  0
  2  1  1  0  0  0  0
  3 13  2  0  0  0  0
  4 16  2  0  0  0  0
  4  7  1  0  0  0  0
  6  3  1  0  0  0  0
  7  8  2  0  0  0  0
  8  5  1  0  0  0  0
  9 18  1  0  0  0  0
 10  9  1  0  0  0  0
 11  2  1  0  0  0  0
 12  5  2  0  0  0  0
 13 14  1  0  0  0  0
 14  7  1  0  0  0  0
 15  9  1  0  0  0  0
 15 17  1  0  0  0  0
 16 12  1  0  0  0  0
 17 11  2  0  0  0  0
 18  6  2  0  0  0  0
 19 21  1  0  0  0  0
 19 22  1  0  0  0  0
 20 17  1  0  0  0  0
 20 21  2  0  0  0  0
 23 20  1  0  0  0  0
 24 19  2  0  0  0  0
 25 23  2  0  0  0  0
 25 24  1  0  0  0  0
M  END
>  <MODEL>
2

>  <REMARK>
 VINA RESULT:      -8.4      2.647      6.639
  Name = 
  1 active torsions:
  status: ('A' for Active; 'I' for Inactive)
    1  A    between atoms: C_6  and  C_23
                            x       y       z     vdW  Elec       q    Type
                         _______ _______ _______ _____ _____    ______ ____

>  <TORSDO>
F 1

$$$$
=
 OpenBabel11052422153D

 25 29  0  0  1  0  0  0  0  0999 V2000
  160.8160  209.0580  153.2440 N   0  0  0  0  0  0  0  0  0  0  0  0
  161.6670  208.4650  152.2060 C   0  0  1  0  0  3  0  0  0  0  0  0
  160.6250  211.1660  152.1110 C   0  0  0  0  0  3  0  0  0  0  0  0
  160.6860  208.5760  154.5750 C   0  0  0  0  0  0  0  0  0  0  0  0
  160.3710  207.9110  157.2600 C   0  0  0  0  0  3  0  0  0  0  0  0
  161.1810  210.5300  150.9020 C   0  0  0  0  0  3  0  0  0  0  0  0
  160.1710  209.5070  155.4650 C   0  0  0  0  0  0  0  0  0  0  0  0
  160.0090  209.1900  156.8150 C   0  0  0  0  0  3  0  0  0  0  0  0
  162.0530  208.5950  149.7310 N   0  0  0  0  0  0  0  0  0  0  0  0
  162.4130  209.3230  148.5230 C   0  0  0  0  0  1  0  0  0  0  0  0
  161.3160  207.0620  151.9680 N   0  0  0  0  0  0  0  0  0  0  0  0
  160.8940  206.9690  156.3590 C   0  0  0  0  0  3  0  0  0  0  0  0
  160.4400  210.4350  153.2080 C   0  0  0  0  0  0  0  0  0  0  0  0
  159.7900  211.1050  154.7430 S   0  0  0  0  0  0  0  0  0  0  0  0
  162.0450  207.1910  149.7130 N   0  0  0  0  0  2  0  0  0  0  0  0
  161.0580  207.3000  155.0070 C   0  0  0  0  0  3  0  0  0  0  0  0
  161.5570  206.4510  150.8430 C   0  0  0  0  0  0  0  0  0  0  0  0
  161.6200  209.2620  150.9220 C   0  0  0  0  0  0  0  0  0  0  0  0
  160.9190  203.0570  149.3250 C   0  0  0  0  0  0  0  0  0  0  0  0
  161.2660  205.0110  150.7070 C   0  0  0  0  0  0  0  0  0  0  0  0
  161.1940  204.4220  149.4390 C   0  0  0  0  0  3  0  0  0  0  0  0
  160.8400  202.4260  147.9820 C   0  0  0  0  0  1  0  0  0  0  0  0
  161.0620  204.2110  151.8400 C   0  0  0  0  0  3  0  0  0  0  0  0
  160.7230  202.3060  150.4410 N   0  0  0  0  0  0  0  0  0  0  0  0
  160.7890  202.8520  151.6860 C   0  0  0  0  0  3  0  0  0  0  0  0
  1  4  1  0  0  0  0
  2 18  1  6  0  0  0
  2  1  1  0  0  0  0
  3 13  2  0  0  0  0
  4 16  2  0  0  0  0
  4  7  1  0  0  0  0
  6 18  2  0  0  0  0
  6  3  1  0  0  0  0
  7  8  2  0  0  0  0
  8  5  1  0  0  0  0
  9 18  1  0  0  0  0
 10  9  1  0  0  0  0
 11  2  1  0  0  0  0
 12  5  2  0  0  0  0
 13  1  1  0  0  0  0
 13 14  1  0  0  0  0
 14  7  1  0  0  0  0
 15  9  1  0  0  0  0
 15 17  1  0  0  0  0
 16 12  1  0  0  0  0
 17 11  2  0  0  0  0
 19 21  2  0  0  0  0
 19 24  1  0  0  0  0
 20 17  1  0  0  0  0
 20 23  2  0  0  0  0
 21 20  1  0  0  0  0
 22 19  1  0  0  0  0
 24 25  2  0  0  0  0
 25 23  1  0  0  0  0
M  END
>  <MODEL>
3

>  <REMARK>
 VINA RESULT:      -8.2      3.188      7.615
  Name = 
  1 active torsions:
  status: ('A' for Active; 'I' for Inactive)
    1  A    between atoms: C_6  and  C_23
                            x       y       z     vdW  Elec       q    Type
                         _______ _______ _______ _____ _____    ______ ____

>  <TORSDO>
F 1

$$$$
=
 OpenBabel11052422153D

 25 29  0  0  1  0  0  0  0  0999 V2000
  161.0880  206.5590  151.3970 N   0  0  0  0  0  0  0  0  0  0  0  0
  161.4500  207.6240  152.3390 C   0  0  1  0  0  3  0  0  0  0  0  0
  161.0960  204.8480  153.0810 C   0  0  0  0  0  3  0  0  0  0  0  0
  161.2240  206.6290  149.9840 C   0  0  0  0  0  0  0  0  0  0  0  0
  161.5210  206.4750  147.2200 C   0  0  0  0  0  3  0  0  0  0  0  0
  161.1250  205.9040  154.1100 C   0  0  0  0  0  3  0  0  0  0  0  0
  161.2140  205.3940  149.3530 C   0  0  0  0  0  0  0  0  0  0  0  0
  161.3640  205.2990  147.9680 C   0  0  0  0  0  3  0  0  0  0  0  0
  161.1500  208.2410  154.7520 N   0  0  0  0  0  0  0  0  0  0  0  0
  161.3210  207.9860  156.1750 C   0  0  0  0  0  1  0  0  0  0  0  0
  160.7230  208.8630  152.0450 N   0  0  0  0  0  0  0  0  0  0  0  0
  161.5320  207.7250  147.8600 C   0  0  0  0  0  3  0  0  0  0  0  0
  161.0560  205.1880  151.7940 C   0  0  0  0  0  0  0  0  0  0  0  0
  161.0370  203.9900  150.4560 S   0  0  0  0  0  0  0  0  0  0  0  0
  160.8040  209.5320  154.3210 N   0  0  0  0  0  2  0  0  0  0  0  0
  161.3870  207.8080  149.2510 C   0  0  0  0  0  3  0  0  0  0  0  0
  160.4880  209.7790  152.9410 C   0  0  0  0  0  0  0  0  0  0  0  0
  161.2370  207.1990  153.7740 C   0  0  0  0  0  0  0  0  0  0  0  0
  159.7680  213.0420  151.1910 C   0  0  0  0  0  0  0  0  0  0  0  0
  159.8380  211.0450  152.5530 C   0  0  0  0  0  0  0  0  0  0  0  0
  160.3960  211.8470  151.5510 C   0  0  0  0  0  3  0  0  0  0  0  0
  160.3570  213.8990  150.1300 C   0  0  0  0  0  1  0  0  0  0  0  0
  158.6520  211.4600  153.1740 C   0  0  0  0  0  3  0  0  0  0  0  0
  158.6200  213.4220  151.8130 N   0  0  0  0  0  0  0  0  0  0  0  0
  158.0540  212.6610  152.7890 C   0  0  0  0  0  3  0  0  0  0  0  0
  1 13  1  0  0  0  0
  1  2  1  0  0  0  0
  2 11  1  6  0  0  0
  2 18  1  0  0  0  0
  3  6  1  0  0  0  0
  4  1  1  0  0  0  0
  5 12  2  0  0  0  0
  5  8  1  0  0  0  0
  7  4  1  0  0  0  0
  7 14  1  0  0  0  0
  8  7  2  0  0  0  0
  9 10  1  0  0  0  0
 11 17  2  0  0  0  0
 12 16  1  0  0  0  0
 13  3  2  0  0  0  0
 14 13  1  0  0  0  0
 15  9  1  0  0  0  0
 16  4  2  0  0  0  0
 17 15  1  0  0  0  0
 18  6  2  0  0  0  0
 18  9  1  0  0  0  0
 19 21  2  0  0  0  0
 19 24  1  0  0  0  0
 20 17  1  0  0  0  0
 20 23  2  0  0  0  0
 21 20  1  0  0  0  0
 22 19  1  0  0  0  0
 24 25  2  0  0  0  0
 25 23  1  0  0  0  0
M  END
>  <MODEL>
4

>  <REMARK>
 VINA RESULT:      -8.2      2.700      3.747
  Name = 
  1 active torsions:
  status: ('A' for Active; 'I' for Inactive)
    1  A    between atoms: C_6  and  C_23
                            x       y       z     vdW  Elec       q    Type
                         _______ _______ _______ _____ _____    ______ ____

>  <TORSDO>
F 1

$$$$
=
 OpenBabel11052422153D

 25 29  0  0  1  0  0  0  0  0999 V2000
  160.6750  209.5590  153.1580 N   0  0  0  0  0  0  0  0  0  0  0  0
  161.5570  209.2270  152.0340 C   0  0  1  0  0  3  0  0  0  0  0  0
  160.3790  211.8380  152.4630 C   0  0  0  0  0  3  0  0  0  0  0  0
  160.5670  208.8170  154.3660 C   0  0  0  0  0  0  0  0  0  0  0  0
  160.2810  207.6170  156.8610 C   0  0  0  0  0  3  0  0  0  0  0  0
  160.9690  211.4830  151.1580 C   0  0  0  0  0  3  0  0  0  0  0  0
  160.0030  209.5270  155.4160 C   0  0  0  0  0  0  0  0  0  0  0  0
  159.8550  208.9400  156.6740 C   0  0  0  0  0  3  0  0  0  0  0  0
  161.9410  209.8640  149.6380 N   0  0  0  0  0  0  0  0  0  0  0  0
  162.2660  210.8340  148.6020 C   0  0  0  0  0  1  0  0  0  0  0  0
  161.2780  207.8840  151.5180 N   0  0  0  0  0  0  0  0  0  0  0  0
  160.8530  206.9000  155.7980 C   0  0  0  0  0  3  0  0  0  0  0  0
  160.2300  210.8950  153.3910 C   0  0  0  0  0  0  0  0  0  0  0  0
  159.5430  211.2150  155.0200 S   0  0  0  0  0  0  0  0  0  0  0  0
  162.0050  208.4940  149.3420 N   0  0  0  0  0  2  0  0  0  0  0  0
  161.0030  207.5010  154.5410 C   0  0  0  0  0  3  0  0  0  0  0  0
  161.5520  207.5200  150.2970 C   0  0  0  0  0  0  0  0  0  0  0  0
  161.4720  210.2590  150.9320 C   0  0  0  0  0  0  0  0  0  0  0  0
  161.3410  204.4210  148.1590 C   0  0  0  0  0  0  0  0  0  0  0  0
  161.3350  206.1230  149.8750 C   0  0  0  0  0  0  0  0  0  0  0  0
  161.5480  205.7470  148.5440 C   0  0  0  0  0  3  0  0  0  0  0  0
  161.5630  204.0150  146.7460 C   0  0  0  0  0  1  0  0  0  0  0  0
  160.9180  205.1530  150.7980 C   0  0  0  0  0  3  0  0  0  0  0  0
  160.9340  203.5010  149.0740 N   0  0  0  0  0  0  0  0  0  0  0  0
  160.7200  203.8380  150.3740 C   0  0  0  0  0  3  0  0  0  0  0  0
  1 13  1  0  0  0  0
  1  4  1  0  0  0  0
  2 18  1  6  0  0  0
  2  1  1  0  0  0  0
  3 13  2  0  0  0  0
  4 16  2  0  0  0  0
  4  7  1  0  0  0  0
  6  3  1  0  0  0  0
  7  8  2  0  0  0  0
  8  5  1  0  0  0  0
  9 18  1  0  0  0  0
 10  9  1  0  0  0  0
 11  2  1  0  0  0  0
 12  5  2  0  0  0  0
 13 14  1  0  0  0  0
 14  7  1  0  0  0  0
 15  9  1  0  0  0  0
 15 17  1  0  0  0  0
 16 12  1  0  0  0  0
 17 11  2  0  0  0  0
 18  6  2  0  0  0  0
 19 21  2  0  0  0  0
 19 24  1  0  0  0  0
 20 17  1  0  0  0  0
 20 23  2  0  0  0  0
 21 20  1  0  0  0  0
 22 19  1  0  0  0  0
 24 25  2  0  0  0  0
 25 23  1  0  0  0  0
M  END
>  <MODEL>
5

>  <REMARK>
 VINA RESULT:      -8.2      2.849      7.059
  Name = 
  1 active torsions:
  status: ('A' for Active; 'I' for Inactive)
    1  A    between atoms: C_6  and  C_23
                            x       y       z     vdW  Elec       q    Type
                         _______ _______ _______ _____ _____    ______ ____

>  <TORSDO>
F 1

$$$$
=
 OpenBabel11052422153D

 25 29  0  0  1  0  0  0  0  0999 V2000
  161.1010  206.5820  151.3710 N   0  0  0  0  0  0  0  0  0  0  0  0
  161.4660  207.6310  152.3300 C   0  0  1  0  0  3  0  0  0  0  0  0
  161.0840  204.8470  153.0300 C   0  0  0  0  0  3  0  0  0  0  0  0
  161.2440  206.6720  149.9590 C   0  0  0  0  0  0  0  0  0  0  0  0
  161.5540  206.5540  147.1950 C   0  0  0  0  0  3  0  0  0  0  0  0
  161.1170  205.8890  154.0740 C   0  0  0  0  0  3  0  0  0  0  0  0
  161.2260  205.4460  149.3110 C   0  0  0  0  0  0  0  0  0  0  0  0
  161.3830  205.3700  147.9260 C   0  0  0  0  0  3  0  0  0  0  0  0
  161.1590  208.2160  154.7500 N   0  0  0  0  0  0  0  0  0  0  0  0
  161.3200  207.9390  156.1690 C   0  0  0  0  0  1  0  0  0  0  0  0
  160.7520  208.8800  152.0490 N   0  0  0  0  0  0  0  0  0  0  0  0
  161.5740  207.7950  147.8530 C   0  0  0  0  0  3  0  0  0  0  0  0
  161.0540  205.2070  151.7480 C   0  0  0  0  0  0  0  0  0  0  0  0
  161.0320  204.0280  150.3930 S   0  0  0  0  0  0  0  0  0  0  0  0
  160.8270  209.5160  154.3360 N   0  0  0  0  0  2  0  0  0  0  0  0
  161.4220  207.8600  149.2440 C   0  0  0  0  0  3  0  0  0  0  0  0
  160.5210  209.7860  152.9580 C   0  0  0  0  0  0  0  0  0  0  0  0
  161.2420  207.1870  153.7570 C   0  0  0  0  0  0  0  0  0  0  0  0
  158.1460  212.7150  152.8940 C   0  0  0  0  0  0  0  0  0  0  0  0
  159.8830  211.0620  152.5840 C   0  0  0  0  0  0  0  0  0  0  0  0
  158.7380  211.5030  153.2580 C   0  0  0  0  0  3  0  0  0  0  0  0
  156.9290  213.1880  153.6050 C   0  0  0  0  0  1  0  0  0  0  0  0
  160.4130  211.8530  151.5550 C   0  0  0  0  0  3  0  0  0  0  0  0
  158.6800  213.4610  151.8910 N   0  0  0  0  0  0  0  0  0  0  0  0
  159.7930  213.0570  151.2200 C   0  0  0  0  0  3  0  0  0  0  0  0
  1 13  1  0  0  0  0
  1  2  1  0  0  0  0
  2 11  1  6  0  0  0
  2 18  1  0  0  0  0
  3  6  1  0  0  0  0
  4  1  1  0  0  0  0
  5 12  2  0  0  0  0
  5  8  1  0  0  0  0
  7  4  1  0  0  0  0
  7 14  1  0  0  0  0
  8  7  2  0  0  0  0
  9 10  1  0  0  0  0
 11 17  2  0  0  0  0
 12 16  1  0  0  0  0
 13  3  2  0  0  0  0
 14 13  1  0  0  0  0
 15  9  1  0  0  0  0
 16  4  2  0  0  0  0
 17 15  1  0  0  0  0
 18  6  2  0  0  0  0
 18  9  1  0  0  0  0
 19 21  1  0  0  0  0
 19 22  1  0  0  0  0
 20 17  1  0  0  0  0
 20 21  2  0  0  0  0
 23 20  1  0  0  0  0
 24 19  2  0  0  0  0
 25 23  2  0  0  0  0
 25 24  1  0  0  0  0
M  END
>  <MODEL>
6

>  <REMARK>
 VINA RESULT:      -8.2      2.928      3.918
  Name = 
  1 active torsions:
  status: ('A' for Active; 'I' for Inactive)
    1  A    between atoms: C_6  and  C_23
                            x       y       z     vdW  Elec       q    Type
                         _______ _______ _______ _____ _____    ______ ____

>  <TORSDO>
F 1

$$$$
=
 OpenBabel11052422153D

 25 29  0  0  1  0  0  0  0  0999 V2000
  161.2580  206.0710  150.8290 N   0  0  0  0  0  0  0  0  0  0  0  0
  161.7250  207.1080  151.7560 C   0  0  1  0  0  3  0  0  0  0  0  0
  160.8320  204.4780  152.5730 C   0  0  0  0  0  3  0  0  0  0  0  0
  161.5140  206.0410  149.4310 C   0  0  0  0  0  0  0  0  0  0  0  0
  161.9970  205.6880  146.7120 C   0  0  0  0  0  3  0  0  0  0  0  0
  160.9640  205.5680  153.5580 C   0  0  0  0  0  3  0  0  0  0  0  0
  161.3370  204.7930  148.8520 C   0  0  0  0  0  0  0  0  0  0  0  0
  161.5780  204.6000  147.4900 C   0  0  0  0  0  3  0  0  0  0  0  0
  161.3490  207.8970  154.1080 N   0  0  0  0  0  0  0  0  0  0  0  0
  161.3590  207.6930  155.5480 C   0  0  0  0  0  1  0  0  0  0  0  0
  161.2530  208.4350  151.3510 N   0  0  0  0  0  0  0  0  0  0  0  0
  162.1770  206.9510  147.3000 C   0  0  0  0  0  3  0  0  0  0  0  0
  160.9540  204.7500  151.2750 C   0  0  0  0  0  0  0  0  0  0  0  0
  160.8310  203.5020  149.9890 S   0  0  0  0  0  0  0  0  0  0  0  0
  161.2690  209.2020  153.5970 N   0  0  0  0  0  2  0  0  0  0  0  0
  161.9390  207.1330  148.6690 C   0  0  0  0  0  3  0  0  0  0  0  0
  161.1120  209.4260  152.1860 C   0  0  0  0  0  0  0  0  0  0  0  0
  161.3290  206.8040  153.1830 C   0  0  0  0  0  0  0  0  0  0  0  0
  160.8300  212.4900  150.0060 C   0  0  0  0  0  0  0  0  0  0  0  0
  160.7260  210.7610  151.6930 C   0  0  0  0  0  0  0  0  0  0  0  0
  161.2060  211.2240  150.4620 C   0  0  0  0  0  3  0  0  0  0  0  0
  161.3370  212.9890  148.7010 C   0  0  0  0  0  1  0  0  0  0  0  0
  159.8730  211.5820  152.4430 C   0  0  0  0  0  3  0  0  0  0  0  0
  160.0030  213.2670  150.7560 N   0  0  0  0  0  0  0  0  0  0  0  0
  159.5210  212.8420  151.9550 C   0  0  0  0  0  3  0  0  0  0  0  0
  1 13  1  0  0  0  0
  1  2  1  0  0  0  0
  2 11  1  6  0  0  0
  2 18  1  0  0  0  0
  3  6  1  0  0  0  0
  4  1  1  0  0  0  0
  5 12  2  0  0  0  0
  5  8  1  0  0  0  0
  7  4  1  0  0  0  0
  7 14  1  0  0  0  0
  8  7  2  0  0  0  0
  9 10  1  0  0  0  0
 11 17  2  0  0  0  0
 12 16  1  0  0  0  0
 13  3  2  0  0  0  0
 14 13  1  0  0  0  0
 15  9  1  0  0  0  0
 16  4  2  0  0  0  0
 17 15  1  0  0  0  0
 18  6  2  0  0  0  0
 18  9  1  0  0  0  0
 19 21  2  0  0  0  0
 19 24  1  0  0  0  0
 20 17  1  0  0  0  0
 20 23  2  0  0  0  0
 21 20  1  0  0  0  0
 22 19  1  0  0  0  0
 24 25  2  0  0  0  0
 25 23  1  0  0  0  0
M  END
>  <MODEL>
7

>  <REMARK>
 VINA RESULT:      -7.8      1.981      2.946
  Name = 
  1 active torsions:
  status: ('A' for Active; 'I' for Inactive)
    1  A    between atoms: C_6  and  C_23
                            x       y       z     vdW  Elec       q    Type
                         _______ _______ _______ _____ _____    ______ ____

>  <TORSDO>
F 1

$$$$
=
 OpenBabel11052422153D

 25 29  0  0  1  0  0  0  0  0999 V2000
  161.4560  205.2180  148.7760 N   0  0  0  0  0  0  0  0  0  0  0  0
  160.9680  206.5030  149.2900 C   0  0  1  0  0  3  0  0  0  0  0  0
  162.4960  206.2000  146.8480 C   0  0  0  0  0  3  0  0  0  0  0  0
  160.9620  203.9400  149.1550 C   0  0  0  0  0  0  0  0  0  0  0  0
  160.0760  201.3440  149.6290 C   0  0  0  0  0  3  0  0  0  0  0  0
  162.3310  207.5260  147.4740 C   0  0  0  0  0  3  0  0  0  0  0  0
  161.2740  202.9260  148.2610 C   0  0  0  0  0  0  0  0  0  0  0  0
  160.8350  201.6200  148.4830 C   0  0  0  0  0  3  0  0  0  0  0  0
  161.6000  208.9310  149.3090 N   0  0  0  0  0  0  0  0  0  0  0  0
  161.8900  210.1880  148.6360 C   0  0  0  0  0  1  0  0  0  0  0  0
  161.0880  206.5720  150.7490 N   0  0  0  0  0  0  0  0  0  0  0  0
  159.7590  202.3710  150.5330 C   0  0  0  0  0  3  0  0  0  0  0  0
  162.0900  205.1130  147.5020 C   0  0  0  0  0  0  0  0  0  0  0  0
  162.2220  203.4520  146.8310 S   0  0  0  0  0  0  0  0  0  0  0  0
  161.3260  208.9330  150.6850 N   0  0  0  0  0  2  0  0  0  0  0  0
  160.1990  203.6800  150.2970 C   0  0  0  0  0  3  0  0  0  0  0  0
  161.1790  207.6960  151.4020 C   0  0  0  0  0  0  0  0  0  0  0  0
  161.6680  207.6710  148.6320 C   0  0  0  0  0  0  0  0  0  0  0  0
  161.2220  208.8880  154.9800 C   0  0  0  0  0  0  0  0  0  0  0  0
  161.1980  207.6950  152.8770 C   0  0  0  0  0  0  0  0  0  0  0  0
  161.2060  208.9040  153.5830 C   0  0  0  0  0  3  0  0  0  0  0  0
  161.2320  210.1670  155.7360 C   0  0  0  0  0  1  0  0  0  0  0  0
  161.2040  206.4890  153.5920 C   0  0  0  0  0  3  0  0  0  0  0  0
  161.2300  207.7040  155.6480 N   0  0  0  0  0  0  0  0  0  0  0  0
  161.2210  206.5140  154.9870 C   0  0  0  0  0  3  0  0  0  0  0  0
  1  4  1  0  0  0  0
  1  2  1  0  0  0  0
  2 18  1  6  0  0  0
  2 11  1  0  0  0  0
  3  6  1  0  0  0  0
  3 13  2  0  0  0  0
  4 16  1  0  0  0  0
  5 12  1  0  0  0  0
  6 18  2  0  0  0  0
  7  8  1  0  0  0  0
  7  4  2  0  0  0  0
  8  5  2  0  0  0  0
  9 15  1  0  0  0  0
 10  9  1  0  0  0  0
 11 17  2  0  0  0  0
 13  1  1  0  0  0  0
 14 13  1  0  0  0  0
 14  7  1  0  0  0  0
 15 17  1  0  0  0  0
 16 12  2  0  0  0  0
 17 20  1  0  0  0  0
 18  9  1  0  0  0  0
 19 24  1  0  0  0  0
 19 22  1  0  0  0  0
 20 21  1  0  0  0  0
 20 23  2  0  0  0  0
 21 19  2  0  0  0  0
 23 25  1  0  0  0  0
 25 24  2  0  0  0  0
M  END
>  <MODEL>
8

>  <REMARK>
 VINA RESULT:      -7.4      2.213      5.684
  Name = 
  1 active torsions:
  status: ('A' for Active; 'I' for Inactive)
    1  A    between atoms: C_6  and  C_23
                            x       y       z     vdW  Elec       q    Type
                         _______ _______ _______ _____ _____    ______ ____

>  <TORSDO>
F 1

$$$$
=
 OpenBabel11052422153D

 25 29  0  0  1  0  0  0  0  0999 V2000
  161.3520  204.9210  149.5590 N   0  0  0  0  0  0  0  0  0  0  0  0
  161.9570  205.8810  150.4890 C   0  0  1  0  0  3  0  0  0  0  0  0
  160.6160  203.4480  151.3060 C   0  0  0  0  0  3  0  0  0  0  0  0
  161.6420  204.8260  148.1710 C   0  0  0  0  0  0  0  0  0  0  0  0
  162.1400  204.3550  145.4730 C   0  0  0  0  0  3  0  0  0  0  0  0
  160.8980  204.5170  152.2830 C   0  0  0  0  0  3  0  0  0  0  0  0
  161.2780  203.6160  147.5990 C   0  0  0  0  0  0  0  0  0  0  0  0
  161.5230  203.3630  146.2480 C   0  0  0  0  0  3  0  0  0  0  0  0
  161.6470  206.7590  152.8190 N   0  0  0  0  0  0  0  0  0  0  0  0
  161.5810  206.5800  154.2610 C   0  0  0  0  0  1  0  0  0  0  0  0
  161.7240  207.2610  150.0540 N   0  0  0  0  0  0  0  0  0  0  0  0
  162.5100  205.5800  146.0520 C   0  0  0  0  0  3  0  0  0  0  0  0
  160.8200  203.6760  150.0100 C   0  0  0  0  0  0  0  0  0  0  0  0
  160.5310  202.4450  148.7350 S   0  0  0  0  0  0  0  0  0  0  0  0
  161.8010  208.0510  152.2920 N   0  0  0  0  0  2  0  0  0  0  0  0
  162.2650  205.8200  147.4110 C   0  0  0  0  0  3  0  0  0  0  0  0
  161.7250  208.2750  150.8740 C   0  0  0  0  0  0  0  0  0  0  0  0
  161.4740  205.6700  151.9060 C   0  0  0  0  0  0  0  0  0  0  0  0
  160.7920  211.9190  150.6060 C   0  0  0  0  0  0  0  0  0  0  0  0
  161.5810  209.6470  150.3540 C   0  0  0  0  0  0  0  0  0  0  0  0
  160.9200  210.6230  151.1100 C   0  0  0  0  0  3  0  0  0  0  0  0
  160.0900  212.9590  151.4020 C   0  0  0  0  0  1  0  0  0  0  0  0
  162.1050  209.9970  149.1010 C   0  0  0  0  0  3  0  0  0  0  0  0
  161.3080  212.2300  149.3860 N   0  0  0  0  0  0  0  0  0  0  0  0
  161.9560  211.3020  148.6310 C   0  0  0  0  0  3  0  0  0  0  0  0
  1 13  1  0  0  0  0
  1  2  1  0  0  0  0
  2 11  1  6  0  0  0
  2 18  1  0  0  0  0
  3  6  1  0  0  0  0
  4  1  1  0  0  0  0
  5 12  2  0  0  0  0
  5  8  1  0  0  0  0
  7  4  1  0  0  0  0
  7 14  1  0  0  0  0
  8  7  2  0  0  0  0
  9 10  1  0  0  0  0
 11 17  2  0  0  0  0
 12 16  1  0  0  0  0
 13  3  2  0  0  0  0
 14 13  1  0  0  0  0
 15  9  1  0  0  0  0
 16  4  2  0  0  0  0
 17 15  1  0  0  0  0
 18  6  2  0  0  0  0
 18  9  1  0  0  0  0
 19 21  1  0  0  0  0
 19 22  1  0  0  0  0
 20 17  1  0  0  0  0
 20 21  2  0  0  0  0
 23 20  1  0  0  0  0
 24 19  2  0  0  0  0
 25 23  2  0  0  0  0
 25 24  1  0  0  0  0
M  END
>  <MODEL>
9

>  <REMARK>
 VINA RESULT:      -7.4      1.760      2.711
  Name = 
  1 active torsions:
  status: ('A' for Active; 'I' for Inactive)
    1  A    between atoms: C_6  and  C_23
                            x       y       z     vdW  Elec       q    Type
                         _______ _______ _______ _____ _____    ______ ____

>  <TORSDO>
F 1

$$$$
