=
 OpenBabel11062408053D

 34 40  0  0  1  0  0  0  0  0999 V2000
  161.9560  208.9830  149.1850 C   0  0  0  0  0  0  0  0  0  0  0  0
  161.6540  210.0940  151.3190 C   0  0  0  0  0  0  0  0  0  0  0  0
  161.5640  207.6880  151.1810 C   0  0  0  0  0  0  0  0  0  0  0  0
  161.1950  206.5490  153.1950 C   0  0  0  0  0  0  0  0  0  0  0  0
  162.0400  211.3460  149.3480 C   0  0  0  0  0  3  0  0  0  0  0  0
  161.8150  211.2890  150.6950 N   0  0  0  0  0  0  0  0  0  0  0  0
  161.2670  208.7540  153.2520 N   0  0  0  0  0  0  0  0  0  0  0  0
  161.7220  208.9160  150.5590 C   0  0  0  0  0  0  0  0  0  0  0  0
  160.9890  206.8380  154.6440 C   0  0  0  0  0  2  0  0  0  0  0  0
  162.1090  210.2020  148.6030 N   0  0  0  0  0  0  0  0  0  0  0  0
  161.6360  206.4820  150.4720 C   0  0  0  0  0  0  0  0  0  0  0  0
  162.0290  207.7920  148.4420 C   0  0  0  0  0  3  0  0  0  0  0  0
  161.4240  209.9990  152.7080 C   0  0  0  0  0  3  0  0  0  0  0  0
  161.2560  205.3390  152.5730 N   0  0  0  0  0  0  0  0  0  0  0  0
  161.4710  205.2760  151.2170 C   0  0  0  0  0  0  0  0  0  0  0  0
  161.0380  208.4000  154.6530 C   0  0  2  0  0  3  0  0  0  0  0  0
  161.3430  207.6700  152.5080 N   0  0  0  0  0  0  0  0  0  0  0  0
  161.8700  206.5440  149.0830 C   0  0  0  0  0  3  0  0  0  0  0  0
  160.7830  202.5210  148.6650 C   0  0  0  0  0  0  0  0  0  0  0  0
  160.3840  201.3830  149.5540 C   0  0  0  0  0  2  0  0  0  0  0  0
  161.5230  203.9200  150.5770 C   0  0  2  0  0  3  0  0  0  0  0  0
  161.1540  201.4580  150.8710 C   0  0  0  0  0  2  0  0  0  0  0  0
  160.8080  203.9110  149.2220 C   0  0  0  0  0  2  0  0  0  0  0  0
  160.9890  202.8340  151.5160 C   0  0  0  0  0  2  0  0  0  0  0  0
  161.0270  202.3260  147.4870 O   0  0  0  0  0  0  0  0  0  0  0  0
  159.7020  208.9580  155.1180 C   0  0  0  0  0  2  0  0  0  0  0  0
  159.9200  210.1750  156.0010 C   0  0  0  0  0  2  0  0  0  0  0  0
  160.0990  213.2660  156.5730 C   0  0  0  0  0  1  0  0  0  0  0  0
  159.0980  211.2850  155.5430 N   0  0  0  0  0  0  0  0  0  0  0  0
  159.7390  212.5790  155.2690 C   0  0  1  0  0  3  0  0  0  0  0  0
  157.5690  213.2370  154.2420 C   0  0  0  0  0  3  0  0  0  0  0  0
  156.9470  212.0080  154.7530 C   0  0  0  0  0  3  0  0  0  0  0  0
  157.6880  211.0840  155.3600 C   0  0  0  0  0  3  0  0  0  0  0  0
  158.8600  213.4940  154.4550 C   0  0  0  0  0  3  0  0  0  0  0  0
  1  8  1  0  0  0  0
  2 13  2  0  0  0  0
  3 17  1  0  0  0  0
  4  9  1  0  0  0  0
  5  6  2  0  0  0  0
  6  2  1  0  0  0  0
  7 16  1  0  0  0  0
  8  3  2  0  0  0  0
  8  2  1  0  0  0  0
  9 16  1  0  0  0  0
 10  1  2  0  0  0  0
 10  5  1  0  0  0  0
 11  3  1  0  0  0  0
 11 15  2  0  0  0  0
 12 18  2  0  0  0  0
 12  1  1  0  0  0  0
 13  7  1  0  0  0  0
 14  4  2  0  0  0  0
 15 14  1  0  0  0  0
 16 26  1  6  0  0  0
 17  4  1  0  0  0  0
 17  7  1  0  0  0  0
 18 11  1  0  0  0  0
 19 23  1  0  0  0  0
 19 20  1  0  0  0  0
 20 22  1  0  0  0  0
 21 15  1  1  0  0  0
 21 24  1  0  0  0  0
 22 24  1  0  0  0  0
 23 21  1  0  0  0  0
 25 19  2  0  0  0  0
 26 27  1  0  0  0  0
 29 27  1  0  0  0  0
 30 29  1  0  0  0  0
 30 28  1  1  0  0  0
 31 34  2  0  0  0  0
 31 32  1  0  0  0  0
 32 33  2  0  0  0  0
 33 29  1  0  0  0  0
 34 30  1  0  0  0  0
M  END
>  <MODEL>
1

>  <REMARK>
 VINA RESULT:      -9.7      0.000      0.000
  Name = 
  4 active torsions:
  status: ('A' for Active; 'I' for Inactive)
    1  A    between atoms: C_3  and  N_13
    2  A    between atoms: C_3  and  C_17
    3  A    between atoms: C_12  and  C_28
    4  A    between atoms: C_17  and  C_29
                            x       y       z     vdW  Elec       q    Type
                         _______ _______ _______ _____ _____    ______ ____

>  <TORSDO>
F 4

$$$$
=
 OpenBabel11062408053D

 34 40  0  0  1  0  0  0  0  0999 V2000
  160.8080  209.7260  153.6640 C   0  0  0  0  0  0  0  0  0  0  0  0
  161.0500  207.3800  153.1010 C   0  0  0  0  0  0  0  0  0  0  0  0
  161.3450  209.0700  151.4060 C   0  0  0  0  0  0  0  0  0  0  0  0
  161.8810  208.3000  149.2590 C   0  0  0  0  0  0  0  0  0  0  0  0
  160.5240  208.0450  155.3110 C   0  0  0  0  0  3  0  0  0  0  0  0
  160.7780  207.0640  154.3940 N   0  0  0  0  0  0  0  0  0  0  0  0
  161.5780  206.8000  150.8500 N   0  0  0  0  0  0  0  0  0  0  0  0
  161.0660  208.7310  152.7210 C   0  0  0  0  0  0  0  0  0  0  0  0
  162.1250  207.0170  148.5390 C   0  0  0  0  0  2  0  0  0  0  0  0
  160.5400  209.3620  154.9460 N   0  0  0  0  0  0  0  0  0  0  0  0
  161.3850  210.4030  150.9770 C   0  0  0  0  0  0  0  0  0  0  0  0
  160.8370  211.0740  153.2650 C   0  0  0  0  0  3  0  0  0  0  0  0
  161.3200  206.3920  152.1300 C   0  0  0  0  0  3  0  0  0  0  0  0
  161.9410  209.5700  148.7710 N   0  0  0  0  0  0  0  0  0  0  0  0
  161.6960  210.6360  149.6030 C   0  0  0  0  0  0  0  0  0  0  0  0
  161.8980  205.9770  149.6840 C   0  0  2  0  0  3  0  0  0  0  0  0
  161.5890  208.0780  150.5310 N   0  0  0  0  0  0  0  0  0  0  0  0
  161.1250  211.4120  151.9250 C   0  0  0  0  0  3  0  0  0  0  0  0
  160.6900  213.6670  147.5110 C   0  0  0  0  0  0  0  0  0  0  0  0
  161.9790  213.9970  146.8240 C   0  0  0  0  0  2  0  0  0  0  0  0
  161.7690  212.0160  149.0170 C   0  0  2  0  0  3  0  0  0  0  0  0
  163.1560  213.6690  147.7420 C   0  0  0  0  0  2  0  0  0  0  0  0
  160.5330  212.3310  148.1700 C   0  0  0  0  0  2  0  0  0  0  0  0
  163.0700  212.2260  148.2350 C   0  0  0  0  0  2  0  0  0  0  0  0
  159.7580  214.4530  147.4840 O   0  0  0  0  0  0  0  0  0  0  0  0
  160.7200  205.0790  149.3420 C   0  0  0  0  0  2  0  0  0  0  0  0
  161.1470  203.6210  149.3640 C   0  0  0  0  0  2  0  0  0  0  0  0
  161.4950  200.6710  148.3210 C   0  0  0  0  0  1  0  0  0  0  0  0
  161.1470  203.0740  148.0160 N   0  0  0  0  0  0  0  0  0  0  0  0
  160.5630  201.7440  147.7880 C   0  0  1  0  0  3  0  0  0  0  0  0
  160.7610  202.2670  145.3630 C   0  0  0  0  0  3  0  0  0  0  0  0
  161.5380  203.4730  145.6790 C   0  0  0  0  0  3  0  0  0  0  0  0
  161.7050  203.8500  146.9440 C   0  0  0  0  0  3  0  0  0  0  0  0
  160.2880  201.4800  146.3300 C   0  0  0  0  0  3  0  0  0  0  0  0
  1 10  2  0  0  0  0
  2  6  1  0  0  0  0
  3  8  2  0  0  0  0
  4 17  1  0  0  0  0
  6  5  2  0  0  0  0
  7 13  1  0  0  0  0
  8  2  1  0  0  0  0
  8  1  1  0  0  0  0
  9  4  1  0  0  0  0
  9 16  1  0  0  0  0
 10  5  1  0  0  0  0
 11  3  1  0  0  0  0
 11 18  1  0  0  0  0
 12  1  1  0  0  0  0
 13  2  2  0  0  0  0
 14  4  2  0  0  0  0
 14 15  1  0  0  0  0
 15 11  2  0  0  0  0
 16 26  1  6  0  0  0
 16  7  1  0  0  0  0
 17  7  1  0  0  0  0
 17  3  1  0  0  0  0
 18 12  2  0  0  0  0
 19 23  1  0  0  0  0
 20 19  1  0  0  0  0
 20 22  1  0  0  0  0
 21 15  1  6  0  0  0
 22 24  1  0  0  0  0
 23 21  1  0  0  0  0
 24 21  1  0  0  0  0
 25 19  2  0  0  0  0
 26 27  1  0  0  0  0
 29 27  1  0  0  0  0
 30 29  1  0  0  0  0
 30 28  1  6  0  0  0
 31 32  1  0  0  0  0
 31 34  2  0  0  0  0
 32 33  2  0  0  0  0
 33 29  1  0  0  0  0
 34 30  1  0  0  0  0
M  END
>  <MODEL>
2

>  <REMARK>
 VINA RESULT:      -9.6      2.958      8.886
  Name = 
  4 active torsions:
  status: ('A' for Active; 'I' for Inactive)
    1  A    between atoms: C_3  and  N_13
    2  A    between atoms: C_3  and  C_17
    3  A    between atoms: C_12  and  C_28
    4  A    between atoms: C_17  and  C_29
                            x       y       z     vdW  Elec       q    Type
                         _______ _______ _______ _____ _____    ______ ____

>  <TORSDO>
F 4

$$$$
=
 OpenBabel11062408053D

 34 40  0  0  1  0  0  0  0  0999 V2000
  161.7370  208.7990  148.7740 C   0  0  0  0  0  0  0  0  0  0  0  0
  161.8960  209.6900  151.0240 C   0  0  0  0  0  0  0  0  0  0  0  0
  161.3860  207.3580  150.6760 C   0  0  0  0  0  0  0  0  0  0  0  0
  161.0860  206.0660  152.6080 C   0  0  0  0  0  0  0  0  0  0  0  0
  162.2370  211.0860  149.1440 C   0  0  0  0  0  3  0  0  0  0  0  0
  162.1760  210.9100  150.4970 N   0  0  0  0  0  0  0  0  0  0  0  0
  161.5340  208.2120  152.8590 N   0  0  0  0  0  0  0  0  0  0  0  0
  161.6690  208.6110  150.1550 C   0  0  0  0  0  0  0  0  0  0  0  0
  161.1140  206.2140  154.0910 C   0  0  0  0  0  2  0  0  0  0  0  0
  162.0190  210.0390  148.2930 N   0  0  0  0  0  0  0  0  0  0  0  0
  161.1640  206.2460  149.8550 C   0  0  0  0  0  0  0  0  0  0  0  0
  161.5150  207.7040  147.9210 C   0  0  0  0  0  3  0  0  0  0  0  0
  161.8280  209.4730  152.4170 C   0  0  0  0  0  3  0  0  0  0  0  0
  160.8640  204.9410  151.8730 N   0  0  0  0  0  0  0  0  0  0  0  0
  160.8940  205.0020  150.5000 C   0  0  0  0  0  0  0  0  0  0  0  0
  161.4250  207.7390  154.2400 C   0  0  2  0  0  3  0  0  0  0  0  0
  161.3330  207.2220  152.0140 N   0  0  0  0  0  0  0  0  0  0  0  0
  161.2300  206.4300  148.4590 C   0  0  0  0  0  3  0  0  0  0  0  0
  160.6450  201.2560  149.8080 C   0  0  0  0  0  0  0  0  0  0  0  0
  161.3720  201.1440  148.5030 C   0  0  0  0  0  2  0  0  0  0  0  0
  160.6370  203.7360  149.7350 C   0  0  2  0  0  3  0  0  0  0  0  0
  161.1450  202.4060  147.6730 C   0  0  0  0  0  2  0  0  0  0  0  0
  160.7970  202.5010  150.6270 C   0  0  0  0  0  2  0  0  0  0  0  0
  161.5070  203.6540  148.4770 C   0  0  0  0  0  2  0  0  0  0  0  0
  159.9840  200.3210  150.2270 O   0  0  0  0  0  0  0  0  0  0  0  0
  160.2710  208.4380  154.9390 C   0  0  0  0  0  2  0  0  0  0  0  0
  160.7620  209.7020  155.6250 C   0  0  0  0  0  2  0  0  0  0  0  0
  159.8990  212.1540  153.8470 C   0  0  0  0  0  1  0  0  0  0  0  0
  159.6710  210.6550  155.7690 N   0  0  0  0  0  0  0  0  0  0  0  0
  159.0020  211.1580  154.5600 C   0  0  1  0  0  3  0  0  0  0  0  0
  157.3090  212.1170  156.1110 C   0  0  0  0  0  3  0  0  0  0  0  0
  158.1560  211.7740  157.2610 C   0  0  0  0  0  3  0  0  0  0  0  0
  159.2710  211.0700  157.0840 C   0  0  0  0  0  3  0  0  0  0  0  0
  157.6810  211.8140  154.8660 C   0  0  0  0  0  3  0  0  0  0  0  0
  1  8  1  0  0  0  0
  2 13  2  0  0  0  0
  3 17  1  0  0  0  0
  4  9  1  0  0  0  0
  5  6  2  0  0  0  0
  6  2  1  0  0  0  0
  7 16  1  0  0  0  0
  8  3  2  0  0  0  0
  8  2  1  0  0  0  0
  9 16  1  0  0  0  0
 10  1  2  0  0  0  0
 10  5  1  0  0  0  0
 11 15  2  0  0  0  0
 11  3  1  0  0  0  0
 12 18  2  0  0  0  0
 12  1  1  0  0  0  0
 13  7  1  0  0  0  0
 14  4  2  0  0  0  0
 15 14  1  0  0  0  0
 16 26  1  6  0  0  0
 17  4  1  0  0  0  0
 17  7  1  0  0  0  0
 18 11  1  0  0  0  0
 19 25  2  0  0  0  0
 19 23  1  0  0  0  0
 20 19  1  0  0  0  0
 21 15  1  1  0  0  0
 21 23  1  0  0  0  0
 22 24  1  0  0  0  0
 22 20  1  0  0  0  0
 24 21  1  0  0  0  0
 26 27  1  0  0  0  0
 27 29  1  0  0  0  0
 29 33  1  0  0  0  0
 30 28  1  1  0  0  0
 30 34  1  0  0  0  0
 30 29  1  0  0  0  0
 31 32  1  0  0  0  0
 33 32  2  0  0  0  0
 34 31  2  0  0  0  0
M  END
>  <MODEL>
3

>  <REMARK>
 VINA RESULT:      -9.4      1.144      1.630
  Name = 
  4 active torsions:
  status: ('A' for Active; 'I' for Inactive)
    1  A    between atoms: C_3  and  N_13
    2  A    between atoms: C_3  and  C_17
    3  A    between atoms: C_12  and  C_28
    4  A    between atoms: C_17  and  C_29
                            x       y       z     vdW  Elec       q    Type
                         _______ _______ _______ _____ _____    ______ ____

>  <TORSDO>
F 4

$$$$
=
 OpenBabel11062408053D

 34 40  0  0  1  0  0  0  0  0999 V2000
  161.9470  208.9400  149.0160 C   0  0  0  0  0  0  0  0  0  0  0  0
  161.7180  209.4650  151.3720 C   0  0  0  0  0  0  0  0  0  0  0  0
  161.6350  207.1730  150.6270 C   0  0  0  0  0  0  0  0  0  0  0  0
  161.3470  205.5530  152.2950 C   0  0  0  0  0  0  0  0  0  0  0  0
  162.0250  211.1840  149.7740 C   0  0  0  0  0  3  0  0  0  0  0  0
  161.8490  210.7830  151.0690 N   0  0  0  0  0  0  0  0  0  0  0  0
  161.4090  207.6710  152.9110 N   0  0  0  0  0  0  0  0  0  0  0  0
  161.7640  208.5220  150.3340 C   0  0  0  0  0  0  0  0  0  0  0  0
  161.1910  205.4600  153.7760 C   0  0  0  0  0  2  0  0  0  0  0  0
  162.0730  210.2700  148.7600 N   0  0  0  0  0  0  0  0  0  0  0  0
  161.6880  206.1890  149.6320 C   0  0  0  0  0  0  0  0  0  0  0  0
  162.0000  207.9790  147.9920 C   0  0  0  0  0  3  0  0  0  0  0  0
  161.5380  209.0170  152.6980 C   0  0  0  0  0  3  0  0  0  0  0  0
  161.3910  204.5430  151.3830 N   0  0  0  0  0  0  0  0  0  0  0  0
  161.5570  204.8310  150.0490 C   0  0  0  0  0  0  0  0  0  0  0  0
  161.2320  206.9690  154.1820 C   0  0  2  0  0  3  0  0  0  0  0  0
  161.4630  206.8140  151.9120 N   0  0  0  0  0  0  0  0  0  0  0  0
  161.8720  206.6070  148.2980 C   0  0  0  0  0  3  0  0  0  0  0  0
  161.0320  202.9080  146.7930 C   0  0  0  0  0  0  0  0  0  0  0  0
  160.4170  201.6370  147.2920 C   0  0  0  0  0  2  0  0  0  0  0  0
  161.5940  203.6840  149.0830 C   0  0  2  0  0  3  0  0  0  0  0  0
  160.9880  201.2880  148.6650 C   0  0  0  0  0  2  0  0  0  0  0  0
  161.0870  204.1010  147.6990 C   0  0  0  0  0  2  0  0  0  0  0  0
  160.8420  202.4650  149.6270 C   0  0  0  0  0  2  0  0  0  0  0  0
  161.4310  202.9900  145.6440 O   0  0  0  0  0  0  0  0  0  0  0  0
  159.9110  207.3700  154.8180 C   0  0  0  0  0  2  0  0  0  0  0  0
  160.1090  207.6700  156.2950 C   0  0  0  0  0  2  0  0  0  0  0  0
  159.1340  210.4690  155.2330 C   0  0  0  0  0  1  0  0  0  0  0  0
  160.6570  209.0070  156.4700 N   0  0  0  0  0  0  0  0  0  0  0  0
  159.7330  210.1440  156.5890 C   0  0  1  0  0  3  0  0  0  0  0  0
  161.7310  211.4690  157.2550 C   0  0  0  0  0  3  0  0  0  0  0  0
  162.6050  210.3460  156.8960 C   0  0  0  0  0  3  0  0  0  0  0  0
  162.0810  209.1780  156.5340 C   0  0  0  0  0  3  0  0  0  0  0  0
  160.4050  211.3750  157.1410 C   0  0  0  0  0  3  0  0  0  0  0  0
  1  8  1  0  0  0  0
  2 13  2  0  0  0  0
  3 17  1  0  0  0  0
  4  9  1  0  0  0  0
  5  6  2  0  0  0  0
  6  2  1  0  0  0  0
  7 16  1  0  0  0  0
  8  3  2  0  0  0  0
  8  2  1  0  0  0  0
  9 16  1  0  0  0  0
 10  1  2  0  0  0  0
 10  5  1  0  0  0  0
 11 15  2  0  0  0  0
 11  3  1  0  0  0  0
 12 18  2  0  0  0  0
 12  1  1  0  0  0  0
 13  7  1  0  0  0  0
 14  4  2  0  0  0  0
 15 14  1  0  0  0  0
 16 26  1  6  0  0  0
 17  4  1  0  0  0  0
 17  7  1  0  0  0  0
 18 11  1  0  0  0  0
 19 20  1  0  0  0  0
 19 23  1  0  0  0  0
 20 22  1  0  0  0  0
 21 24  1  0  0  0  0
 21 15  1  1  0  0  0
 22 24  1  0  0  0  0
 23 21  1  0  0  0  0
 25 19  2  0  0  0  0
 26 27  1  0  0  0  0
 27 29  1  0  0  0  0
 29 33  1  0  0  0  0
 29 30  1  0  0  0  0
 30 28  1  6  0  0  0
 30 34  1  0  0  0  0
 32 31  1  0  0  0  0
 33 32  2  0  0  0  0
 34 31  2  0  0  0  0
M  END
>  <MODEL>
4

>  <REMARK>
 VINA RESULT:      -9.0      1.514      2.343
  Name = 
  4 active torsions:
  status: ('A' for Active; 'I' for Inactive)
    1  A    between atoms: C_3  and  N_13
    2  A    between atoms: C_3  and  C_17
    3  A    between atoms: C_12  and  C_28
    4  A    between atoms: C_17  and  C_29
                            x       y       z     vdW  Elec       q    Type
                         _______ _______ _______ _____ _____    ______ ____

>  <TORSDO>
F 4

$$$$
=
 OpenBabel11062408053D

 34 40  0  0  1  0  0  0  0  0999 V2000
  161.2070  207.6330  154.0000 C   0  0  0  0  0  0  0  0  0  0  0  0
  161.3440  209.7880  152.8960 C   0  0  0  0  0  0  0  0  0  0  0  0
  161.4270  207.7540  151.6010 C   0  0  0  0  0  0  0  0  0  0  0  0
  161.6230  208.0130  149.2810 C   0  0  0  0  0  0  0  0  0  0  0  0
  161.1270  209.6460  155.2490 C   0  0  0  0  0  3  0  0  0  0  0  0
  161.2430  210.3910  154.1090 N   0  0  0  0  0  0  0  0  0  0  0  0
  161.5630  209.8360  150.5230 N   0  0  0  0  0  0  0  0  0  0  0  0
  161.3280  208.3860  152.8310 C   0  0  0  0  0  0  0  0  0  0  0  0
  161.7140  209.0970  148.2610 C   0  0  0  0  0  2  0  0  0  0  0  0
  161.1100  208.2810  155.1920 N   0  0  0  0  0  0  0  0  0  0  0  0
  161.4030  206.3590  151.4800 C   0  0  0  0  0  0  0  0  0  0  0  0
  161.1850  206.2300  153.9140 C   0  0  0  0  0  3  0  0  0  0  0  0
  161.4610  210.5270  151.6990 C   0  0  0  0  0  3  0  0  0  0  0  0
  161.6040  206.6650  149.0850 N   0  0  0  0  0  0  0  0  0  0  0  0
  161.4980  205.8180  150.1630 C   0  0  0  0  0  0  0  0  0  0  0  0
  161.6760  210.3710  149.1660 C   0  0  2  0  0  3  0  0  0  0  0  0
  161.5400  208.5190  150.5010 N   0  0  0  0  0  0  0  0  0  0  0  0
  161.2820  205.5940  152.6570 C   0  0  0  0  0  3  0  0  0  0  0  0
  160.8420  202.5460  148.3080 C   0  0  0  0  0  0  0  0  0  0  0  0
  160.2230  201.7110  149.3850 C   0  0  0  0  0  2  0  0  0  0  0  0
  161.4870  204.3410  149.8960 C   0  0  2  0  0  3  0  0  0  0  0  0
  160.8310  202.0740  150.7390 C   0  0  0  0  0  2  0  0  0  0  0  0
  160.9440  204.0290  148.4980 C   0  0  0  0  0  2  0  0  0  0  0  0
  160.7330  203.5780  150.9890 C   0  0  0  0  0  2  0  0  0  0  0  0
  161.2060  202.0340  147.2630 O   0  0  0  0  0  0  0  0  0  0  0  0
  162.9740  211.1490  149.0200 C   0  0  0  0  0  2  0  0  0  0  0  0
  162.8600  212.1530  147.8860 C   0  0  0  0  0  2  0  0  0  0  0  0
  161.0750  213.3110  145.5650 C   0  0  0  0  0  1  0  0  0  0  0  0
  161.5550  212.7950  147.9080 N   0  0  0  0  0  0  0  0  0  0  0  0
  160.6220  212.5510  146.7990 C   0  0  1  0  0  3  0  0  0  0  0  0
  158.9160  213.6760  148.2180 C   0  0  0  0  0  3  0  0  0  0  0  0
  159.9600  214.0740  149.1710 C   0  0  0  0  0  3  0  0  0  0  0  0
  161.2080  213.6390  149.0170 C   0  0  0  0  0  3  0  0  0  0  0  0
  159.2100  212.9530  147.1360 C   0  0  0  0  0  3  0  0  0  0  0  0
  1 10  2  0  0  0  0
  2  6  1  0  0  0  0
  3  8  2  0  0  0  0
  4 17  1  0  0  0  0
  6  5  2  0  0  0  0
  7 13  1  0  0  0  0
  8  2  1  0  0  0  0
  8  1  1  0  0  0  0
  9 16  1  0  0  0  0
  9  4  1  0  0  0  0
 10  5  1  0  0  0  0
 11  3  1  0  0  0  0
 11 18  1  0  0  0  0
 12  1  1  0  0  0  0
 13  2  2  0  0  0  0
 14  4  2  0  0  0  0
 14 15  1  0  0  0  0
 15 11  2  0  0  0  0
 16 26  1  1  0  0  0
 16  7  1  0  0  0  0
 17  7  1  0  0  0  0
 17  3  1  0  0  0  0
 18 12  2  0  0  0  0
 19 23  1  0  0  0  0
 19 20  1  0  0  0  0
 20 22  1  0  0  0  0
 21 15  1  1  0  0  0
 21 24  1  0  0  0  0
 22 24  1  0  0  0  0
 23 21  1  0  0  0  0
 25 19  2  0  0  0  0
 27 29  1  0  0  0  0
 27 26  1  0  0  0  0
 29 33  1  0  0  0  0
 30 28  1  6  0  0  0
 30 34  1  0  0  0  0
 30 29  1  0  0  0  0
 31 32  1  0  0  0  0
 33 32  2  0  0  0  0
 34 31  2  0  0  0  0
M  END
>  <MODEL>
5

>  <REMARK>
 VINA RESULT:      -8.9      2.216      5.150
  Name = 
  4 active torsions:
  status: ('A' for Active; 'I' for Inactive)
    1  A    between atoms: C_3  and  N_13
    2  A    between atoms: C_3  and  C_17
    3  A    between atoms: C_12  and  C_28
    4  A    between atoms: C_17  and  C_29
                            x       y       z     vdW  Elec       q    Type
                         _______ _______ _______ _____ _____    ______ ____

>  <TORSDO>
F 4

$$$$
=
 OpenBabel11062408053D

 34 40  0  0  1  0  0  0  0  0999 V2000
  161.2660  205.2460  150.3580 C   0  0  0  0  0  0  0  0  0  0  0  0
  161.6610  206.7510  148.4980 C   0  0  0  0  0  0  0  0  0  0  0  0
  161.6040  207.6010  150.7540 C   0  0  0  0  0  0  0  0  0  0  0  0
  161.9660  209.9030  151.0010 C   0  0  0  0  0  0  0  0  0  0  0  0
  161.3270  204.4360  148.1320 C   0  0  0  0  0  3  0  0  0  0  0  0
  161.5670  205.6920  147.6510 N   0  0  0  0  0  0  0  0  0  0  0  0
  161.9850  209.0670  148.9590 N   0  0  0  0  0  0  0  0  0  0  0  0
  161.5080  206.5330  149.8760 C   0  0  0  0  0  0  0  0  0  0  0  0
  162.2470  211.1060  150.1660 C   0  0  0  0  0  2  0  0  0  0  0  0
  161.1780  204.2180  149.4730 N   0  0  0  0  0  0  0  0  0  0  0  0
  161.4720  207.4370  152.1390 C   0  0  0  0  0  0  0  0  0  0  0  0
  161.1230  205.0480  151.7430 C   0  0  0  0  0  3  0  0  0  0  0  0
  161.9110  208.0600  148.0350 C   0  0  0  0  0  3  0  0  0  0  0  0
  161.8520  209.8200  152.3560 N   0  0  0  0  0  0  0  0  0  0  0  0
  161.6040  208.6050  152.9490 C   0  0  0  0  0  0  0  0  0  0  0  0
  162.2480  210.4880  148.7300 C   0  0  2  0  0  3  0  0  0  0  0  0
  161.8410  208.8240  150.2460 N   0  0  0  0  0  0  0  0  0  0  0  0
  161.2270  206.1400  152.6320 C   0  0  0  0  0  3  0  0  0  0  0  0
  160.0840  207.8690  156.3730 C   0  0  0  0  0  0  0  0  0  0  0  0
  160.2330  209.1930  157.0570 C   0  0  0  0  0  2  0  0  0  0  0  0
  161.4810  208.5660  154.4440 C   0  0  2  0  0  3  0  0  0  0  0  0
  161.5060  209.8870  156.5740 C   0  0  0  0  0  2  0  0  0  0  0  0
  160.2350  207.7930  154.8840 C   0  0  0  0  0  2  0  0  0  0  0  0
  161.5290  209.9730  155.0490 C   0  0  0  0  0  2  0  0  0  0  0  0
  159.7850  206.8760  157.0130 O   0  0  0  0  0  0  0  0  0  0  0  0
  161.1280  211.0970  147.9030 C   0  0  0  0  0  2  0  0  0  0  0  0
  161.0780  212.6010  148.1140 C   0  0  0  0  0  2  0  0  0  0  0  0
  159.0040  213.9340  146.1550 C   0  0  0  0  0  1  0  0  0  0  0  0
  159.7050  213.0380  148.3210 N   0  0  0  0  0  0  0  0  0  0  0  0
  158.7380  212.8900  147.2240 C   0  0  1  0  0  3  0  0  0  0  0  0
  157.0020  213.4620  148.9130 C   0  0  0  0  0  3  0  0  0  0  0  0
  158.0490  213.8060  149.8840 C   0  0  0  0  0  3  0  0  0  0  0  0
  159.3290  213.5890  149.5930 C   0  0  0  0  0  3  0  0  0  0  0  0
  157.3120  213.0160  147.6950 C   0  0  0  0  0  3  0  0  0  0  0  0
  1 12  1  0  0  0  0
  2  8  1  0  0  0  0
  3 11  1  0  0  0  0
  4 14  2  0  0  0  0
  5 10  1  0  0  0  0
  6  5  2  0  0  0  0
  6  2  1  0  0  0  0
  7 17  1  0  0  0  0
  8  1  1  0  0  0  0
  8  3  2  0  0  0  0
  9  4  1  0  0  0  0
 10  1  2  0  0  0  0
 11 18  1  0  0  0  0
 11 15  2  0  0  0  0
 12 18  2  0  0  0  0
 13  2  2  0  0  0  0
 13  7  1  0  0  0  0
 14 15  1  0  0  0  0
 16 26  1  6  0  0  0
 16  7  1  0  0  0  0
 16  9  1  0  0  0  0
 17  3  1  0  0  0  0
 17  4  1  0  0  0  0
 19 25  2  0  0  0  0
 19 20  1  0  0  0  0
 21 15  1  6  0  0  0
 21 23  1  0  0  0  0
 21 24  1  0  0  0  0
 22 20  1  0  0  0  0
 23 19  1  0  0  0  0
 24 22  1  0  0  0  0
 26 27  1  0  0  0  0
 27 29  1  0  0  0  0
 29 33  1  0  0  0  0
 30 28  1  6  0  0  0
 30 34  1  0  0  0  0
 30 29  1  0  0  0  0
 31 32  1  0  0  0  0
 33 32  2  0  0  0  0
 34 31  2  0  0  0  0
M  END
>  <MODEL>
6

>  <REMARK>
 VINA RESULT:      -8.8      3.109      6.567
  Name = 
  4 active torsions:
  status: ('A' for Active; 'I' for Inactive)
    1  A    between atoms: C_3  and  N_13
    2  A    between atoms: C_3  and  C_17
    3  A    between atoms: C_12  and  C_28
    4  A    between atoms: C_17  and  C_29
                            x       y       z     vdW  Elec       q    Type
                         _______ _______ _______ _____ _____    ______ ____

>  <TORSDO>
F 4

$$$$
=
 OpenBabel11062408053D

 34 40  0  0  1  0  0  0  0  0999 V2000
  159.9370  211.1770  153.8680 C   0  0  0  0  0  0  0  0  0  0  0  0
  160.5250  208.8400  154.1420 C   0  0  0  0  0  0  0  0  0  0  0  0
  160.9870  209.9710  152.0620 C   0  0  0  0  0  0  0  0  0  0  0  0
  162.0260  208.6910  150.3970 C   0  0  0  0  0  0  0  0  0  0  0  0
  159.4940  210.0420  155.9010 C   0  0  0  0  0  3  0  0  0  0  0  0
  160.0280  208.8870  155.4050 N   0  0  0  0  0  0  0  0  0  0  0  0
  161.5570  207.7070  152.3160 N   0  0  0  0  0  0  0  0  0  0  0  0
  160.4810  210.0000  153.3520 C   0  0  0  0  0  0  0  0  0  0  0  0
  162.5400  207.3080  150.1810 C   0  0  0  0  0  2  0  0  0  0  0  0
  159.4500  211.1750  155.1370 N   0  0  0  0  0  0  0  0  0  0  0  0
  160.9790  211.1030  151.2370 C   0  0  0  0  0  0  0  0  0  0  0  0
  159.9100  212.3300  153.0640 C   0  0  0  0  0  3  0  0  0  0  0  0
  161.0860  207.6640  153.6000 C   0  0  0  0  0  3  0  0  0  0  0  0
  162.0550  209.7500  149.5410 N   0  0  0  0  0  0  0  0  0  0  0  0
  161.5390  210.9620  149.9310 C   0  0  0  0  0  0  0  0  0  0  0  0
  162.1910  206.6350  151.5480 C   0  0  2  0  0  3  0  0  0  0  0  0
  161.5040  208.8160  151.6070 N   0  0  0  0  0  0  0  0  0  0  0  0
  160.4300  212.2940  151.7520 C   0  0  0  0  0  3  0  0  0  0  0  0
  160.5620  213.1160  146.9350 C   0  0  0  0  0  0  0  0  0  0  0  0
  161.8880  213.3190  146.2680 C   0  0  0  0  0  2  0  0  0  0  0  0
  161.5900  212.0960  148.9500 C   0  0  2  0  0  3  0  0  0  0  0  0
  162.9940  213.3820  147.3200 C   0  0  0  0  0  2  0  0  0  0  0  0
  160.4180  212.0390  147.9660 C   0  0  0  0  0  2  0  0  0  0  0  0
  162.9420  212.1570  148.2320 C   0  0  0  0  0  2  0  0  0  0  0  0
  159.5960  213.7810  146.6010 O   0  0  0  0  0  0  0  0  0  0  0  0
  161.2040  205.5000  151.3290 C   0  0  0  0  0  2  0  0  0  0  0  0
  160.7890  205.4390  149.8680 C   0  0  0  0  0  2  0  0  0  0  0  0
  161.3700  202.7200  151.3460 C   0  0  0  0  0  1  0  0  0  0  0  0
  160.9120  204.0800  149.3640 N   0  0  0  0  0  0  0  0  0  0  0  0
  160.4190  202.9680  150.1890 C   0  0  1  0  0  3  0  0  0  0  0  0
  160.7540  201.5530  148.1690 C   0  0  0  0  0  3  0  0  0  0  0  0
  161.4400  202.6640  147.4960 C   0  0  0  0  0  3  0  0  0  0  0  0
  161.4990  203.8620  148.0710 C   0  0  0  0  0  3  0  0  0  0  0  0
  160.2590  201.6940  149.4000 C   0  0  0  0  0  3  0  0  0  0  0  0
  1 10  2  0  0  0  0
  2  6  1  0  0  0  0
  3  8  2  0  0  0  0
  4 17  1  0  0  0  0
  6  5  2  0  0  0  0
  7 13  1  0  0  0  0
  8  1  1  0  0  0  0
  8  2  1  0  0  0  0
  9  4  1  0  0  0  0
  9 16  1  0  0  0  0
 10  5  1  0  0  0  0
 11 18  1  0  0  0  0
 11  3  1  0  0  0  0
 12  1  1  0  0  0  0
 13  2  2  0  0  0  0
 14 15  1  0  0  0  0
 14  4  2  0  0  0  0
 15 11  2  0  0  0  0
 16 26  1  6  0  0  0
 16  7  1  0  0  0  0
 17  3  1  0  0  0  0
 17  7  1  0  0  0  0
 18 12  2  0  0  0  0
 19 23  1  0  0  0  0
 20 19  1  0  0  0  0
 20 22  1  0  0  0  0
 21 15  1  1  0  0  0
 22 24  1  0  0  0  0
 23 21  1  0  0  0  0
 24 21  1  0  0  0  0
 25 19  2  0  0  0  0
 27 26  1  0  0  0  0
 29 27  1  0  0  0  0
 29 30  1  0  0  0  0
 30 28  1  1  0  0  0
 31 34  2  0  0  0  0
 32 33  2  0  0  0  0
 32 31  1  0  0  0  0
 33 29  1  0  0  0  0
 34 30  1  0  0  0  0
M  END
>  <MODEL>
7

>  <REMARK>
 VINA RESULT:      -8.7      2.614      8.224
  Name = 
  4 active torsions:
  status: ('A' for Active; 'I' for Inactive)
    1  A    between atoms: C_3  and  N_13
    2  A    between atoms: C_3  and  C_17
    3  A    between atoms: C_12  and  C_28
    4  A    between atoms: C_17  and  C_29
                            x       y       z     vdW  Elec       q    Type
                         _______ _______ _______ _____ _____    ______ ____

>  <TORSDO>
F 4

$$$$
=
 OpenBabel11062408053D

 34 40  0  0  1  0  0  0  0  0999 V2000
  161.2760  204.8360  150.4440 C   0  0  0  0  0  0  0  0  0  0  0  0
  161.6070  206.2970  148.5370 C   0  0  0  0  0  0  0  0  0  0  0  0
  161.5680  207.2080  150.7700 C   0  0  0  0  0  0  0  0  0  0  0  0
  161.8820  209.5230  150.9470 C   0  0  0  0  0  0  0  0  0  0  0  0
  161.3190  203.9660  148.2400 C   0  0  0  0  0  3  0  0  0  0  0  0
  161.5230  205.2140  147.7220 N   0  0  0  0  0  0  0  0  0  0  0  0
  161.8860  208.6320  148.9290 N   0  0  0  0  0  0  0  0  0  0  0  0
  161.4810  206.1140  149.9230 C   0  0  0  0  0  0  0  0  0  0  0  0
  162.1220  210.7090  150.0750 C   0  0  0  0  0  2  0  0  0  0  0  0
  161.1970  203.7830  149.5890 N   0  0  0  0  0  0  0  0  0  0  0  0
  161.4610  207.0800  152.1600 C   0  0  0  0  0  0  0  0  0  0  0  0
  161.1590  204.6730  151.8360 C   0  0  0  0  0  3  0  0  0  0  0  0
  161.8210  207.5980  148.0350 C   0  0  0  0  0  3  0  0  0  0  0  0
  161.7910  209.4750  152.3050 N   0  0  0  0  0  0  0  0  0  0  0  0
  161.5790  208.2720  152.9360 C   0  0  0  0  0  0  0  0  0  0  0  0
  162.1140  210.0510  148.6570 C   0  0  2  0  0  3  0  0  0  0  0  0
  161.7680  208.4210  150.2240 N   0  0  0  0  0  0  0  0  0  0  0  0
  161.2530  205.7920  152.6930 C   0  0  0  0  0  3  0  0  0  0  0  0
  160.1160  207.6270  156.4020 C   0  0  0  0  0  0  0  0  0  0  0  0
  160.2770  208.9680  157.0490 C   0  0  0  0  0  2  0  0  0  0  0  0
  161.4820  208.2730  154.4330 C   0  0  2  0  0  3  0  0  0  0  0  0
  161.5410  209.6480  156.5280 C   0  0  0  0  0  2  0  0  0  0  0  0
  160.2420  207.5120  154.9140 C   0  0  0  0  0  2  0  0  0  0  0  0
  161.5390  209.6940  155.0010 C   0  0  0  0  0  2  0  0  0  0  0  0
  159.8270  206.6500  157.0730 O   0  0  0  0  0  0  0  0  0  0  0  0
  160.9670  210.6120  147.8320 C   0  0  0  0  0  2  0  0  0  0  0  0
  160.9310  212.1270  147.9460 C   0  0  0  0  0  2  0  0  0  0  0  0
  162.8880  214.4460  147.1050 C   0  0  0  0  0  1  0  0  0  0  0  0
  161.1940  212.7390  146.6520 N   0  0  0  0  0  0  0  0  0  0  0  0
  162.5620  213.1770  146.3380 C   0  0  1  0  0  3  0  0  0  0  0  0
  161.7390  213.4820  144.0090 C   0  0  0  0  0  3  0  0  0  0  0  0
  160.3600  213.2490  144.4580 C   0  0  0  0  0  3  0  0  0  0  0  0
  160.1170  212.8860  145.7150 C   0  0  0  0  0  3  0  0  0  0  0  0
  162.7610  213.4250  144.8650 C   0  0  0  0  0  3  0  0  0  0  0  0
  1 12  1  0  0  0  0
  2  8  1  0  0  0  0
  3 11  1  0  0  0  0
  4 14  2  0  0  0  0
  5 10  1  0  0  0  0
  6  5  2  0  0  0  0
  6  2  1  0  0  0  0
  7 17  1  0  0  0  0
  8  1  1  0  0  0  0
  8  3  2  0  0  0  0
  9  4  1  0  0  0  0
 10  1  2  0  0  0  0
 11 18  1  0  0  0  0
 11 15  2  0  0  0  0
 12 18  2  0  0  0  0
 13  2  2  0  0  0  0
 13  7  1  0  0  0  0
 14 15  1  0  0  0  0
 16 26  1  6  0  0  0
 16  7  1  0  0  0  0
 16  9  1  0  0  0  0
 17  3  1  0  0  0  0
 17  4  1  0  0  0  0
 19 20  1  0  0  0  0
 19 25  2  0  0  0  0
 21 15  1  6  0  0  0
 21 23  1  0  0  0  0
 21 24  1  0  0  0  0
 22 20  1  0  0  0  0
 23 19  1  0  0  0  0
 24 22  1  0  0  0  0
 26 27  1  0  0  0  0
 29 27  1  0  0  0  0
 30 29  1  0  0  0  0
 30 28  1  1  0  0  0
 31 32  1  0  0  0  0
 31 34  2  0  0  0  0
 32 33  2  0  0  0  0
 33 29  1  0  0  0  0
 34 30  1  0  0  0  0
M  END
>  <MODEL>
8

>  <REMARK>
 VINA RESULT:      -8.5      3.150      7.294
  Name = 
  4 active torsions:
  status: ('A' for Active; 'I' for Inactive)
    1  A    between atoms: C_3  and  N_13
    2  A    between atoms: C_3  and  C_17
    3  A    between atoms: C_12  and  C_28
    4  A    between atoms: C_17  and  C_29
                            x       y       z     vdW  Elec       q    Type
                         _______ _______ _______ _____ _____    ______ ____

>  <TORSDO>
F 4

$$$$
=
 OpenBabel11062408053D

 34 40  0  0  1  0  0  0  0  0999 V2000
  160.9660  204.6670  152.5460 C   0  0  0  0  0  0  0  0  0  0  0  0
  161.1520  204.2160  150.1700 C   0  0  0  0  0  0  0  0  0  0  0  0
  161.2680  206.4830  150.9860 C   0  0  0  0  0  0  0  0  0  0  0  0
  161.5810  208.1490  149.3700 C   0  0  0  0  0  0  0  0  0  0  0  0
  160.8570  202.4490  151.7180 C   0  0  0  0  0  3  0  0  0  0  0  0
  161.0160  202.8900  150.4340 N   0  0  0  0  0  0  0  0  0  0  0  0
  161.4460  206.0560  148.6840 N   0  0  0  0  0  0  0  0  0  0  0  0
  161.1260  205.1270  151.2380 C   0  0  0  0  0  0  0  0  0  0  0  0
  161.7520  208.2850  147.8950 C   0  0  0  0  0  2  0  0  0  0  0  0
  160.8320  203.3320  152.7610 N   0  0  0  0  0  0  0  0  0  0  0  0
  161.2620  207.4320  152.0160 C   0  0  0  0  0  0  0  0  0  0  0  0
  160.9510  205.5950  153.6020 C   0  0  0  0  0  3  0  0  0  0  0  0
  161.3220  204.7050  148.8570 C   0  0  0  0  0  3  0  0  0  0  0  0
  161.5890  209.1280  150.3170 N   0  0  0  0  0  0  0  0  0  0  0  0
  161.4290  208.8000  151.6430 C   0  0  0  0  0  0  0  0  0  0  0  0
  161.6460  206.7940  147.4360 C   0  0  2  0  0  3  0  0  0  0  0  0
  161.4220  206.8810  149.7110 N   0  0  0  0  0  0  0  0  0  0  0  0
  161.1000  206.9740  153.3390 C   0  0  0  0  0  3  0  0  0  0  0  0
  161.8500  210.5420  155.0130 C   0  0  0  0  0  0  0  0  0  0  0  0
  160.5770  211.3250  155.1060 C   0  0  0  0  0  2  0  0  0  0  0  0
  161.4390  209.9140  152.6470 C   0  0  2  0  0  3  0  0  0  0  0  0
  160.1410  211.7740  153.7120 C   0  0  0  0  0  2  0  0  0  0  0  0
  161.9590  209.4370  154.0070 C   0  0  0  0  0  2  0  0  0  0  0  0
  160.0660  210.5830  152.7600 C   0  0  0  0  0  2  0  0  0  0  0  0
  162.7670  210.7620  155.7860 O   0  0  0  0  0  0  0  0  0  0  0  0
  160.4400  206.6160  146.5280 C   0  0  0  0  0  2  0  0  0  0  0  0
  160.8760  206.0800  145.1750 C   0  0  0  0  0  2  0  0  0  0  0  0
  163.1920  203.9530  145.3570 C   0  0  0  0  0  1  0  0  0  0  0  0
  160.8450  204.6250  145.1740 N   0  0  0  0  0  0  0  0  0  0  0  0
  161.8170  203.8920  145.9980 C   0  0  1  0  0  3  0  0  0  0  0  0
  160.4560  201.8710  145.4910 C   0  0  0  0  0  3  0  0  0  0  0  0
  159.6730  202.6350  144.5110 C   0  0  0  0  0  3  0  0  0  0  0  0
  159.8620  203.9460  144.3780 C   0  0  0  0  0  3  0  0  0  0  0  0
  161.4290  202.4490  146.1970 C   0  0  0  0  0  3  0  0  0  0  0  0
  1 10  2  0  0  0  0
  1 12  1  0  0  0  0
  2  6  1  0  0  0  0
  2  8  1  0  0  0  0
  3  8  2  0  0  0  0
  3 11  1  0  0  0  0
  4 17  1  0  0  0  0
  4 14  2  0  0  0  0
  5 10  1  0  0  0  0
  6  5  2  0  0  0  0
  7 13  1  0  0  0  0
  7 17  1  0  0  0  0
  8  1  1  0  0  0  0
  9  4  1  0  0  0  0
 11 18  1  0  0  0  0
 13  2  2  0  0  0  0
 14 15  1  0  0  0  0
 15 11  2  0  0  0  0
 16 26  1  6  0  0  0
 16  9  1  0  0  0  0
 16  7  1  0  0  0  0
 17  3  1  0  0  0  0
 18 12  2  0  0  0  0
 19 20  1  0  0  0  0
 19 25  2  0  0  0  0
 21 15  1  6  0  0  0
 21 24  1  0  0  0  0
 21 23  1  0  0  0  0
 22 20  1  0  0  0  0
 23 19  1  0  0  0  0
 24 22  1  0  0  0  0
 27 26  1  0  0  0  0
 29 27  1  0  0  0  0
 29 30  1  0  0  0  0
 30 28  1  6  0  0  0
 30 34  1  0  0  0  0
 31 34  2  0  0  0  0
 32 31  1  0  0  0  0
 33 32  2  0  0  0  0
 33 29  1  0  0  0  0
M  END
>  <MODEL>
9

>  <REMARK>
 VINA RESULT:      -8.3      3.279      9.060
  Name = 
  4 active torsions:
  status: ('A' for Active; 'I' for Inactive)
    1  A    between atoms: C_3  and  N_13
    2  A    between atoms: C_3  and  C_17
    3  A    between atoms: C_12  and  C_28
    4  A    between atoms: C_17  and  C_29
                            x       y       z     vdW  Elec       q    Type
                         _______ _______ _______ _____ _____    ______ ____

>  <TORSDO>
F 4

$$$$
