=
 OpenBabel11052423213D

 27 31  0  0  0  0  0  0  0  0999 V2000
  160.5000  208.2730  152.8890 C   0  0  0  0  0  2  0  0  0  0  0  0
  160.5070  210.7390  152.7970 C   0  0  0  0  0  0  0  0  0  0  0  0
  161.9490  210.2920  150.8700 C   0  0  0  0  0  2  0  0  0  0  0  0
  159.6190  211.7790  153.3880 C   0  0  0  0  0  3  0  0  0  0  0  0
  162.2950  206.5730  147.6400 C   0  0  0  0  0  1  0  0  0  0  0  0
  161.8700  207.0450  148.9830 C   0  0  0  0  0  0  0  0  0  0  0  0
  160.9380  209.5460  153.4530 N   0  0  0  0  0  0  0  0  0  0  0  0
  160.3230  212.2900  151.1700 N   0  0  0  0  0  0  0  0  0  0  0  0
  161.0810  207.9330  151.5360 C   0  0  0  0  0  0  0  0  0  0  0  0
  160.8630  211.0370  151.5740 C   0  0  0  0  0  0  0  0  0  0  0  0
  162.0210  208.3860  149.3320 C   0  0  0  0  0  3  0  0  0  0  0  0
  159.5200  212.8220  152.2670 C   0  0  0  0  0  3  0  0  0  0  0  0
  161.3280  206.1460  149.9000 C   0  0  0  0  0  3  0  0  0  0  0  0
  160.9340  206.5920  151.1610 C   0  0  0  0  0  3  0  0  0  0  0  0
  161.6220  208.8540  150.5900 C   0  0  0  0  0  0  0  0  0  0  0  0
  159.4820  213.8290  149.4420 C   0  0  0  0  0  3  0  0  0  0  0  0
  160.7060  214.1840  147.3850 C   0  0  0  0  0  3  0  0  0  0  0  0
  161.6890  213.2910  147.8170 C   0  0  0  0  0  3  0  0  0  0  0  0
  161.5680  212.6680  149.0630 C   0  0  0  0  0  3  0  0  0  0  0  0
  160.4660  212.9340  149.8900 C   0  0  0  0  0  0  0  0  0  0  0  0
  159.6020  214.4530  148.1960 C   0  0  0  0  0  3  0  0  0  0  0  0
  162.7610  209.6620  157.2320 C   0  0  0  0  0  3  0  0  0  0  0  0
  161.5720  209.5760  154.7440 C   0  0  0  0  0  0  0  0  0  0  0  0
  161.3620  208.5500  155.6790 C   0  0  0  0  0  3  0  0  0  0  0  0
  161.9620  208.6170  156.8960 N   0  0  0  0  0  0  0  0  0  0  0  0
  162.9690  210.6890  156.3120 C   0  0  0  0  0  3  0  0  0  0  0  0
  162.3700  210.6240  155.0930 N   0  0  0  0  0  0  0  0  0  0  0  0
  1  7  1  0  0  0  0
  2  4  1  0  0  0  0
  2  7  1  0  0  0  0
  3 10  1  0  0  0  0
  5  6  1  0  0  0  0
  6 11  2  0  0  0  0
  6 13  1  0  0  0  0
  7 23  1  0  0  0  0
  8 10  1  0  0  0  0
  8 12  1  0  0  0  0
  9  1  1  0  0  0  0
 10  2  2  0  0  0  0
 11 15  1  0  0  0  0
 12  4  2  0  0  0  0
 13 14  2  0  0  0  0
 14  9  1  0  0  0  0
 15  3  1  0  0  0  0
 15  9  2  0  0  0  0
 16 20  1  0  0  0  0
 17 18  2  0  0  0  0
 17 21  1  0  0  0  0
 18 19  1  0  0  0  0
 19 20  2  0  0  0  0
 20  8  1  0  0  0  0
 21 16  2  0  0  0  0
 23 27  2  0  0  0  0
 23 24  1  0  0  0  0
 24 25  2  0  0  0  0
 25 22  1  0  0  0  0
 26 22  2  0  0  0  0
 27 26  1  0  0  0  0
M  END
>  <MODEL>
1

>  <REMARK>
 VINA RESULT:      -7.2      0.000      0.000
  Name = 
  2 active torsions:
  status: ('A' for Active; 'I' for Inactive)
    1  A    between atoms: C_9  and  N_15
    2  A    between atoms: C_14  and  N_17
                            x       y       z     vdW  Elec       q    Type
                         _______ _______ _______ _____ _____    ______ ____

>  <TORSDO>
F 2

$$$$
=
 OpenBabel11052423213D

 27 31  0  0  0  0  0  0  0  0999 V2000
  162.8800  208.5240  148.4700 C   0  0  0  0  0  2  0  0  0  0  0  0
  162.2340  209.6820  150.5510 C   0  0  0  0  0  0  0  0  0  0  0  0
  160.5600  207.8970  150.5850 C   0  0  0  0  0  2  0  0  0  0  0  0
  162.9410  210.6520  151.4340 C   0  0  0  0  0  3  0  0  0  0  0  0
  160.4490  203.2700  148.8630 C   0  0  0  0  0  1  0  0  0  0  0  0
  161.0300  204.6350  148.7820 C   0  0  0  0  0  0  0  0  0  0  0  0
  162.2730  209.6800  149.1230 N   0  0  0  0  0  0  0  0  0  0  0  0
  161.6570  209.0450  152.6350 N   0  0  0  0  0  0  0  0  0  0  0  0
  162.1170  207.2270  148.6140 C   0  0  0  0  0  0  0  0  0  0  0  0
  161.5520  208.8020  151.2370 C   0  0  0  0  0  0  0  0  0  0  0  0
  160.6280  205.6200  149.6840 C   0  0  0  0  0  3  0  0  0  0  0  0
  162.5230  210.2020  152.8400 C   0  0  0  0  0  3  0  0  0  0  0  0
  161.9690  204.9370  147.7980 C   0  0  0  0  0  3  0  0  0  0  0  0
  162.5090  206.2210  147.7220 C   0  0  0  0  0  3  0  0  0  0  0  0
  161.1660  206.9110  149.6300 C   0  0  0  0  0  0  0  0  0  0  0  0
  160.4970  208.9260  154.8040 C   0  0  0  0  0  3  0  0  0  0  0  0
  159.9600  206.7940  155.8160 C   0  0  0  0  0  3  0  0  0  0  0  0
  160.5380  206.1340  154.7300 C   0  0  0  0  0  3  0  0  0  0  0  0
  161.0950  206.8710  153.6800 C   0  0  0  0  0  3  0  0  0  0  0  0
  161.0770  208.2740  153.7040 C   0  0  0  0  0  0  0  0  0  0  0  0
  159.9400  208.1900  155.8550 C   0  0  0  0  0  3  0  0  0  0  0  0
  161.3190  213.1120  146.9040 C   0  0  0  0  0  3  0  0  0  0  0  0
  161.9550  210.8520  148.3520 C   0  0  0  0  0  0  0  0  0  0  0  0
  162.8330  211.9460  148.3010 C   0  0  0  0  0  3  0  0  0  0  0  0
  162.4960  213.0460  147.5780 N   0  0  0  0  0  0  0  0  0  0  0  0
  160.4380  212.0320  146.9550 C   0  0  0  0  0  3  0  0  0  0  0  0
  160.7740  210.9310  147.6780 N   0  0  0  0  0  0  0  0  0  0  0  0
  1  9  1  0  0  0  0
  1  7  1  0  0  0  0
  2 10  2  0  0  0  0
  2  4  1  0  0  0  0
  3 10  1  0  0  0  0
  4 12  2  0  0  0  0
  6  5  1  0  0  0  0
  6 11  1  0  0  0  0
  7  2  1  0  0  0  0
  8 12  1  0  0  0  0
  8 20  1  0  0  0  0
  9 15  1  0  0  0  0
 10  8  1  0  0  0  0
 13  6  2  0  0  0  0
 14 13  1  0  0  0  0
 14  9  2  0  0  0  0
 15 11  2  0  0  0  0
 15  3  1  0  0  0  0
 16 21  1  0  0  0  0
 17 21  2  0  0  0  0
 18 17  1  0  0  0  0
 19 20  1  0  0  0  0
 19 18  2  0  0  0  0
 20 16  2  0  0  0  0
 22 26  2  0  0  0  0
 22 25  1  0  0  0  0
 23  7  1  0  0  0  0
 24 23  1  0  0  0  0
 25 24  2  0  0  0  0
 26 27  1  0  0  0  0
 27 23  2  0  0  0  0
M  END
>  <MODEL>
2

>  <REMARK>
 VINA RESULT:      -5.5      2.312      6.511
  Name = 
  2 active torsions:
  status: ('A' for Active; 'I' for Inactive)
    1  A    between atoms: C_9  and  N_15
    2  A    between atoms: C_14  and  N_17
                            x       y       z     vdW  Elec       q    Type
                         _______ _______ _______ _____ _____    ______ ____

>  <TORSDO>
F 2

$$$$
=
 OpenBabel11052423213D

 27 31  0  0  0  0  0  0  0  0999 V2000
  162.2450  206.0920  152.5620 C   0  0  0  0  0  2  0  0  0  0  0  0
  162.1090  207.1100  150.3180 C   0  0  0  0  0  0  0  0  0  0  0  0
  160.4720  208.5220  151.4650 C   0  0  0  0  0  2  0  0  0  0  0  0
  163.0100  207.0760  149.1320 C   0  0  0  0  0  3  0  0  0  0  0  0
  159.9230  210.0280  156.1360 C   0  0  0  0  0  1  0  0  0  0  0  0
  160.4810  209.0310  155.1870 C   0  0  0  0  0  0  0  0  0  0  0  0
  161.8170  206.0010  151.1690 N   0  0  0  0  0  0  0  0  0  0  0  0
  162.0250  209.2120  149.5070 N   0  0  0  0  0  0  0  0  0  0  0  0
  161.5240  207.1280  153.3920 C   0  0  0  0  0  0  0  0  0  0  0  0
  161.5960  208.2980  150.5090 C   0  0  0  0  0  0  0  0  0  0  0  0
  160.3080  209.2000  153.8140 C   0  0  0  0  0  3  0  0  0  0  0  0
  162.9260  208.5120  148.5960 C   0  0  0  0  0  3  0  0  0  0  0  0
  161.1700  207.9190  155.6680 C   0  0  0  0  0  3  0  0  0  0  0  0
  161.6890  206.9830  154.7750 C   0  0  0  0  0  3  0  0  0  0  0  0
  160.8320  208.2760  152.9020 C   0  0  0  0  0  0  0  0  0  0  0  0
  161.9590  211.3020  148.2070 C   0  0  0  0  0  3  0  0  0  0  0  0
  161.1020  213.3480  149.1740 C   0  0  0  0  0  3  0  0  0  0  0  0
  160.8440  212.6720  150.3690 C   0  0  0  0  0  3  0  0  0  0  0  0
  161.1440  211.3110  150.4820 C   0  0  0  0  0  3  0  0  0  0  0  0
  161.7000  210.6110  149.4000 C   0  0  0  0  0  0  0  0  0  0  0  0
  161.6600  212.6640  148.0930 C   0  0  0  0  0  3  0  0  0  0  0  0
  160.4630  202.3370  149.6330 C   0  0  0  0  0  3  0  0  0  0  0  0
  161.3400  204.7480  150.6470 C   0  0  0  0  0  0  0  0  0  0  0  0
  161.0670  203.6650  151.4980 C   0  0  0  0  0  3  0  0  0  0  0  0
  160.6350  202.4890  150.9720 N   0  0  0  0  0  0  0  0  0  0  0  0
  160.7380  203.4060  148.7810 C   0  0  0  0  0  3  0  0  0  0  0  0
  161.1710  204.5830  149.3050 N   0  0  0  0  0  0  0  0  0  0  0  0
  1  9  1  0  0  0  0
  2 10  2  0  0  0  0
  2  7  1  0  0  0  0
  3 15  1  0  0  0  0
  4  2  1  0  0  0  0
  6 13  1  0  0  0  0
  6  5  1  0  0  0  0
  7  1  1  0  0  0  0
  8 10  1  0  0  0  0
  9 14  1  0  0  0  0
 10  3  1  0  0  0  0
 11  6  2  0  0  0  0
 12  4  2  0  0  0  0
 12  8  1  0  0  0  0
 14 13  2  0  0  0  0
 15  9  2  0  0  0  0
 15 11  1  0  0  0  0
 16 20  1  0  0  0  0
 17 18  2  0  0  0  0
 18 19  1  0  0  0  0
 20  8  1  0  0  0  0
 20 19  2  0  0  0  0
 21 16  2  0  0  0  0
 21 17  1  0  0  0  0
 22 25  1  0  0  0  0
 23  7  1  0  0  0  0
 23 24  1  0  0  0  0
 25 24  2  0  0  0  0
 26 27  1  0  0  0  0
 26 22  2  0  0  0  0
 27 23  2  0  0  0  0
M  END
>  <MODEL>
3

>  <REMARK>
 VINA RESULT:      -5.1      2.713      5.759
  Name = 
  2 active torsions:
  status: ('A' for Active; 'I' for Inactive)
    1  A    between atoms: C_9  and  N_15
    2  A    between atoms: C_14  and  N_17
                            x       y       z     vdW  Elec       q    Type
                         _______ _______ _______ _____ _____    ______ ____

>  <TORSDO>
F 2

$$$$
=
 OpenBabel11052423213D

 27 31  0  0  0  0  0  0  0  0999 V2000
  162.0040  206.9700  153.5100 C   0  0  0  0  0  2  0  0  0  0  0  0
  161.8040  207.9500  151.2540 C   0  0  0  0  0  0  0  0  0  0  0  0
  160.0810  209.2700  152.3860 C   0  0  0  0  0  2  0  0  0  0  0  0
  162.7060  207.9590  150.0680 C   0  0  0  0  0  3  0  0  0  0  0  0
  159.4370  210.7950  157.0380 C   0  0  0  0  0  1  0  0  0  0  0  0
  160.0570  209.8230  156.1010 C   0  0  0  0  0  0  0  0  0  0  0  0
  161.5820  206.8350  152.1200 N   0  0  0  0  0  0  0  0  0  0  0  0
  161.5870  210.0330  150.4180 N   0  0  0  0  0  0  0  0  0  0  0  0
  161.2190  207.9690  154.3280 C   0  0  0  0  0  0  0  0  0  0  0  0
  161.2170  209.1060  151.4320 C   0  0  0  0  0  0  0  0  0  0  0  0
  159.8740  209.9650  154.7260 C   0  0  0  0  0  3  0  0  0  0  0  0
  162.5310  209.3800  149.5150 C   0  0  0  0  0  3  0  0  0  0  0  0
  160.8150  208.7630  156.5950 C   0  0  0  0  0  3  0  0  0  0  0  0
  161.3930  207.8510  155.7130 C   0  0  0  0  0  3  0  0  0  0  0  0
  160.4550  209.0640  153.8250 C   0  0  0  0  0  0  0  0  0  0  0  0
  161.5090  212.1390  149.1450 C   0  0  0  0  0  3  0  0  0  0  0  0
  160.4060  214.0980  150.0400 C   0  0  0  0  0  3  0  0  0  0  0  0
  160.0720  213.3820  151.1910 C   0  0  0  0  0  3  0  0  0  0  0  0
  160.4560  212.0440  151.3180 C   0  0  0  0  0  3  0  0  0  0  0  0
  161.1750  211.4070  150.2950 C   0  0  0  0  0  0  0  0  0  0  0  0
  161.1260  213.4780  149.0170 C   0  0  0  0  0  3  0  0  0  0  0  0
  160.4610  203.0780  150.6220 C   0  0  0  0  0  3  0  0  0  0  0  0
  161.1860  205.5480  151.6130 C   0  0  0  0  0  0  0  0  0  0  0  0
  161.1950  204.4120  152.4360 C   0  0  0  0  0  3  0  0  0  0  0  0
  160.8310  203.2070  151.9230 N   0  0  0  0  0  0  0  0  0  0  0  0
  160.4560  204.2010  149.7960 C   0  0  0  0  0  3  0  0  0  0  0  0
  160.8200  205.4080  150.3080 N   0  0  0  0  0  0  0  0  0  0  0  0
  1  9  1  0  0  0  0
  2 10  2  0  0  0  0
  2  7  1  0  0  0  0
  3 15  1  0  0  0  0
  4  2  1  0  0  0  0
  6 13  1  0  0  0  0
  6  5  1  0  0  0  0
  7  1  1  0  0  0  0
  8 10  1  0  0  0  0
  9 14  1  0  0  0  0
 10  3  1  0  0  0  0
 11  6  2  0  0  0  0
 12  4  2  0  0  0  0
 12  8  1  0  0  0  0
 14 13  2  0  0  0  0
 15  9  2  0  0  0  0
 15 11  1  0  0  0  0
 16 20  1  0  0  0  0
 17 18  2  0  0  0  0
 18 19  1  0  0  0  0
 20  8  1  0  0  0  0
 20 19  2  0  0  0  0
 21 16  2  0  0  0  0
 21 17  1  0  0  0  0
 22 25  1  0  0  0  0
 23  7  1  0  0  0  0
 23 24  1  0  0  0  0
 25 24  2  0  0  0  0
 26 27  1  0  0  0  0
 26 22  2  0  0  0  0
 27 23  2  0  0  0  0
M  END
>  <MODEL>
4

>  <REMARK>
 VINA RESULT:      -4.8      2.349      5.444
  Name = 
  2 active torsions:
  status: ('A' for Active; 'I' for Inactive)
    1  A    between atoms: C_9  and  N_15
    2  A    between atoms: C_14  and  N_17
                            x       y       z     vdW  Elec       q    Type
                         _______ _______ _______ _____ _____    ______ ____

>  <TORSDO>
F 2

$$$$
=
 OpenBabel11052423213D

 27 31  0  0  0  0  0  0  0  0999 V2000
  161.2920  211.0610  139.1900 C   0  0  0  0  0  2  0  0  0  0  0  0
  161.6170  212.4530  141.2010 C   0  0  0  0  0  0  0  0  0  0  0  0
  159.2710  212.9890  140.7540 C   0  0  0  0  0  2  0  0  0  0  0  0
  162.6380  212.4450  142.2860 C   0  0  0  0  0  3  0  0  0  0  0  0
  155.5400  210.5410  138.6400 C   0  0  0  0  0  1  0  0  0  0  0  0
  157.0060  210.7230  138.7930 C   0  0  0  0  0  0  0  0  0  0  0  0
  161.8800  212.2430  139.8130 N   0  0  0  0  0  0  0  0  0  0  0  0
  160.4310  212.8810  143.0710 N   0  0  0  0  0  0  0  0  0  0  0  0
  159.7860  211.0780  139.0680 C   0  0  0  0  0  0  0  0  0  0  0  0
  160.4140  212.6770  141.6630 C   0  0  0  0  0  0  0  0  0  0  0  0
  157.5030  211.6730  139.6850 C   0  0  0  0  0  3  0  0  0  0  0  0
  161.8070  212.7490  143.5410 C   0  0  0  0  0  3  0  0  0  0  0  0
  157.8880  209.9510  138.0400 C   0  0  0  0  0  3  0  0  0  0  0  0
  159.2640  210.1270  138.1840 C   0  0  0  0  0  3  0  0  0  0  0  0
  158.8810  211.8560  139.8500 C   0  0  0  0  0  0  0  0  0  0  0  0
  158.4450  214.2020  143.6850 C   0  0  0  0  0  3  0  0  0  0  0  0
  157.1140  213.6260  145.6210 C   0  0  0  0  0  3  0  0  0  0  0  0
  157.9640  212.5500  145.8850 C   0  0  0  0  0  3  0  0  0  0  0  0
  159.0550  212.3000  145.0460 C   0  0  0  0  0  3  0  0  0  0  0  0
  159.3050  213.1210  143.9350 C   0  0  0  0  0  0  0  0  0  0  0  0
  157.3540  214.4530  144.5220 C   0  0  0  0  0  3  0  0  0  0  0  0
  164.7890  214.4530  137.7470 C   0  0  0  0  0  3  0  0  0  0  0  0
  162.8680  213.0100  139.1030 C   0  0  0  0  0  0  0  0  0  0  0  0
  162.8470  213.1000  137.7020 C   0  0  0  0  0  3  0  0  0  0  0  0
  163.8040  213.8200  137.0600 N   0  0  0  0  0  0  0  0  0  0  0  0
  164.8220  214.3630  139.1380 C   0  0  0  0  0  3  0  0  0  0  0  0
  163.8650  213.6440  139.7830 N   0  0  0  0  0  0  0  0  0  0  0  0
  1  7  1  0  0  0  0
  2 10  2  0  0  0  0
  2  4  1  0  0  0  0
  3 10  1  0  0  0  0
  4 12  2  0  0  0  0
  5  6  1  0  0  0  0
  6 11  1  0  0  0  0
  7  2  1  0  0  0  0
  8 12  1  0  0  0  0
  8 20  1  0  0  0  0
  9  1  1  0  0  0  0
  9 15  1  0  0  0  0
 10  8  1  0  0  0  0
 11 15  2  0  0  0  0
 13 14  1  0  0  0  0
 13  6  2  0  0  0  0
 14  9  2  0  0  0  0
 15  3  1  0  0  0  0
 16 20  2  0  0  0  0
 16 21  1  0  0  0  0
 17 18  1  0  0  0  0
 19 18  2  0  0  0  0
 20 19  1  0  0  0  0
 21 17  2  0  0  0  0
 22 26  1  0  0  0  0
 23 27  1  0  0  0  0
 23  7  1  0  0  0  0
 24 23  2  0  0  0  0
 25 24  1  0  0  0  0
 25 22  2  0  0  0  0
 26 27  2  0  0  0  0
M  END
>  <MODEL>
5

>  <REMARK>
 VINA RESULT:      -4.7      8.429     12.507
  Name = 
  2 active torsions:
  status: ('A' for Active; 'I' for Inactive)
    1  A    between atoms: C_9  and  N_15
    2  A    between atoms: C_14  and  N_17
                            x       y       z     vdW  Elec       q    Type
                         _______ _______ _______ _____ _____    ______ ____

>  <TORSDO>
F 2

$$$$
=
 OpenBabel11052423213D

 27 31  0  0  0  0  0  0  0  0999 V2000
  160.4560  213.3610  137.9080 C   0  0  0  0  0  2  0  0  0  0  0  0
  159.6640  212.7360  140.1600 C   0  0  0  0  0  0  0  0  0  0  0  0
  162.0460  212.2560  140.4580 C   0  0  0  0  0  2  0  0  0  0  0  0
  158.4200  213.0440  140.9200 C   0  0  0  0  0  3  0  0  0  0  0  0
  166.1840  214.0880  138.4830 C   0  0  0  0  0  1  0  0  0  0  0  0
  164.7200  213.8620  138.3650 C   0  0  0  0  0  0  0  0  0  0  0  0
  159.7310  212.4300  138.7660 N   0  0  0  0  0  0  0  0  0  0  0  0
  160.3820  213.0750  142.2700 N   0  0  0  0  0  0  0  0  0  0  0  0
  161.9490  213.4170  138.1330 C   0  0  0  0  0  0  0  0  0  0  0  0
  160.7260  212.7770  140.9220 C   0  0  0  0  0  0  0  0  0  0  0  0
  164.0240  213.2460  139.4050 C   0  0  0  0  0  3  0  0  0  0  0  0
  158.9360  213.2590  142.3490 C   0  0  0  0  0  3  0  0  0  0  0  0
  164.0430  214.2550  137.2130 C   0  0  0  0  0  3  0  0  0  0  0  0
  162.6700  214.0370  137.1050 C   0  0  0  0  0  3  0  0  0  0  0  0
  162.6430  213.0290  139.3180 C   0  0  0  0  0  0  0  0  0  0  0  0
  160.7930  213.0990  144.6980 C   0  0  0  0  0  3  0  0  0  0  0  0
  162.9940  213.5720  145.5870 C   0  0  0  0  0  3  0  0  0  0  0  0
  163.4860  213.7160  144.2880 C   0  0  0  0  0  3  0  0  0  0  0  0
  162.6300  213.5510  143.1940 C   0  0  0  0  0  3  0  0  0  0  0  0
  161.2760  213.2360  143.3870 C   0  0  0  0  0  0  0  0  0  0  0  0
  161.6470  213.2640  145.7930 C   0  0  0  0  0  3  0  0  0  0  0  0
  157.3920  209.4180  137.0130 C   0  0  0  0  0  3  0  0  0  0  0  0
  158.9280  211.3910  138.1780 C   0  0  0  0  0  0  0  0  0  0  0  0
  159.4670  210.1240  137.9080 C   0  0  0  0  0  3  0  0  0  0  0  0
  158.6870  209.1690  137.3360 N   0  0  0  0  0  0  0  0  0  0  0  0
  156.8510  210.6770  137.2710 C   0  0  0  0  0  3  0  0  0  0  0  0
  157.6290  211.6330  137.8440 N   0  0  0  0  0  0  0  0  0  0  0  0
  1  9  1  0  0  0  0
  1  7  1  0  0  0  0
  2  4  1  0  0  0  0
  2 10  2  0  0  0  0
  3 10  1  0  0  0  0
  4 12  2  0  0  0  0
  6  5  1  0  0  0  0
  6 11  1  0  0  0  0
  7  2  1  0  0  0  0
  8 12  1  0  0  0  0
  8 20  1  0  0  0  0
  9 15  1  0  0  0  0
 10  8  1  0  0  0  0
 13  6  2  0  0  0  0
 14 13  1  0  0  0  0
 14  9  2  0  0  0  0
 15 11  2  0  0  0  0
 15  3  1  0  0  0  0
 16 21  1  0  0  0  0
 17 21  2  0  0  0  0
 18 17  1  0  0  0  0
 19 20  1  0  0  0  0
 19 18  2  0  0  0  0
 20 16  2  0  0  0  0
 22 26  2  0  0  0  0
 22 25  1  0  0  0  0
 23  7  1  0  0  0  0
 24 23  1  0  0  0  0
 25 24  2  0  0  0  0
 26 27  1  0  0  0  0
 27 23  2  0  0  0  0
M  END
>  <MODEL>
6

>  <REMARK>
 VINA RESULT:      -4.7      8.935     13.334
  Name = 
  2 active torsions:
  status: ('A' for Active; 'I' for Inactive)
    1  A    between atoms: C_9  and  N_15
    2  A    between atoms: C_14  and  N_17
                            x       y       z     vdW  Elec       q    Type
                         _______ _______ _______ _____ _____    ______ ____

>  <TORSDO>
F 2

$$$$
