=
 OpenBabel11062409283D

 34 39  0  0  1  0  0  0  0  0999 V2000
  158.5480  211.6580  154.7230 N   0  0  0  0  0  0  0  0  0  0  0  0
  157.0970  214.0040  152.2820 C   0  0  0  0  0  3  0  0  0  0  0  0
  157.2560  214.3720  154.6050 N   0  0  0  0  0  2  0  0  0  0  0  0
  159.6990  209.5610  155.4900 C   0  0  2  0  0  3  0  0  0  0  0  0
  158.1760  209.9520  154.5600 S   0  0  0  0  0  0  0  0  0  0  0  0
  160.1440  213.2250  155.8690 C   0  0  1  0  0  3  0  0  0  0  0  0
  159.8810  213.8720  157.0940 O   0  0  0  0  0  0  0  0  0  0  0  0
  160.3900  210.7870  155.9020 N   0  0  0  0  0  2  0  0  0  0  0  0
  157.7890  214.1770  155.9470 C   0  0  0  0  0  2  0  0  0  0  0  0
  159.4200  211.8710  155.8700 C   0  0  2  0  0  3  0  0  0  0  0  0
  159.2900  214.4510  155.9570 C   0  0  2  0  0  3  0  0  0  0  0  0
  157.3570  213.3220  150.9820 C   0  0  0  0  0  2  0  0  0  0  0  0
  158.7980  213.4540  150.5990 C   0  0  0  0  0  0  0  0  0  0  0  0
  159.7550  212.8910  151.3410 C   0  0  0  0  0  3  0  0  0  0  0  0
  157.6430  213.6280  153.4420 C   0  0  0  0  0  0  0  0  0  0  0  0
  159.5370  212.2040  152.6290 C   0  0  0  0  0  3  0  0  0  0  0  0
  158.5890  212.4740  153.5440 C   0  0  0  0  0  0  0  0  0  0  0  0
  161.7930  208.5760  152.4850 C   0  0  0  0  0  2  0  0  0  0  0  0
  161.3320  206.2370  154.3000 C   0  0  0  0  0  2  0  0  0  0  0  0
  160.7670  205.7260  150.0660 C   0  0  2  0  0  3  0  0  0  0  0  0
  161.2730  207.1100  150.5050 C   0  0  0  0  0  2  0  0  0  0  0  0
  161.7700  207.1380  151.9560 C   0  0  2  0  0  3  0  0  0  0  0  0
  160.6180  208.6450  154.6830 C   0  0  1  0  0  3  0  0  0  0  0  0
  161.2640  204.6880  152.3320 C   0  0  0  0  0  2  0  0  0  0  0  0
  161.0090  206.1180  152.8210 C   0  0  1  0  0  3  0  0  0  0  0  0
  161.4800  204.5920  150.8130 C   0  0  0  0  0  2  0  0  0  0  0  0
  160.3270  207.1670  154.9650 C   0  0  0  0  0  2  0  0  0  0  0  0
  160.5100  208.9840  153.1990 C   0  0  0  0  0  2  0  0  0  0  0  0
  160.8740  205.5740  148.5520 C   0  0  0  0  0  3  0  0  0  0  0  0
  161.5280  204.3840  148.2330 O   0  0  0  0  0  1  0  0  0  0  0  0
  161.5600  206.6520  147.9890 O   0  0  0  0  0  1  0  0  0  0  0  0
  159.1560  214.1430  149.3490 C   0  0  0  0  0  0  0  0  0  0  0  0
  160.3540  214.4530  149.1150 O   0  0  0  0  0  1  0  0  0  0  0  0
  158.1780  214.4530  148.4100 O   0  0  0  0  0  0  0  0  0  0  0  0
  1 10  1  0  0  0  0
  2 15  2  0  0  0  0
  3  9  1  0  0  0  0
  4  5  1  6  0  0  0
  4  8  1  0  0  0  0
  5  1  1  0  0  0  0
  6 10  1  0  0  0  0
  6 11  1  0  0  0  0
  6  7  1  1  0  0  0
 10  8  1  6  0  0  0
 11  9  1  1  0  0  0
 11  7  1  0  0  0  0
 12  2  1  0  0  0  0
 13 12  1  0  0  0  0
 13 14  2  0  0  0  0
 14 16  1  0  0  0  0
 15 17  1  0  0  0  0
 15  3  1  0  0  0  0
 16 17  2  0  0  0  0
 17  1  1  0  0  0  0
 18 28  1  0  0  0  0
 19 27  1  0  0  0  0
 20 29  1  6  0  0  0
 20 21  1  0  0  0  0
 20 26  1  0  0  0  0
 22 21  1  6  0  0  0
 22 18  1  0  0  0  0
 22 25  1  0  0  0  0
 23 28  1  6  0  0  0
 23 27  1  0  0  0  0
 23  4  1  0  0  0  0
 25 24  1  6  0  0  0
 25 19  1  0  0  0  0
 26 24  1  0  0  0  0
 30 29  1  0  0  0  0
 31 29  1  0  0  0  0
 32 13  1  0  0  0  0
 33 32  1  0  0  0  0
 34 32  2  0  0  0  0
M  END
>  <MODEL>
1

>  <REMARK>
 VINA RESULT:      -7.1      0.000      0.000
  Name = 
  3 active torsions:
  status: ('A' for Active; 'I' for Inactive)
    1  A    between atoms: C_3  and  C_25
    2  A    between atoms: C_7  and  C_11
    3  A    between atoms: C_8  and  C_18
                            x       y       z     vdW  Elec       q    Type
                         _______ _______ _______ _____ _____    ______ ____

>  <TORSDO>
F 3

$$$$
=
 OpenBabel11062409283D

 34 39  0  0  1  0  0  0  0  0999 V2000
  160.1150  209.5510  154.9180 N   0  0  0  0  0  0  0  0  0  0  0  0
  158.3970  212.5640  153.6760 C   0  0  0  0  0  3  0  0  0  0  0  0
  159.2230  212.2640  155.8630 N   0  0  0  0  0  2  0  0  0  0  0  0
  161.1310  207.2590  154.7670 C   0  0  2  0  0  3  0  0  0  0  0  0
  159.4830  207.9830  154.4550 S   0  0  0  0  0  0  0  0  0  0  0  0
  162.1590  210.6420  155.8920 C   0  0  1  0  0  3  0  0  0  0  0  0
  162.3260  210.9400  157.2610 O   0  0  0  0  0  0  0  0  0  0  0  0
  162.0690  208.2800  155.2460 N   0  0  0  0  0  2  0  0  0  0  0  0
  160.0660  211.6740  156.8950 C   0  0  0  0  0  2  0  0  0  0  0  0
  161.2840  209.3860  155.7710 C   0  0  2  0  0  3  0  0  0  0  0  0
  161.5370  211.8450  156.5300 C   0  0  2  0  0  3  0  0  0  0  0  0
  158.2030  212.2540  152.2300 C   0  0  0  0  0  2  0  0  0  0  0  0
  159.4920  212.3990  151.4840 C   0  0  0  0  0  0  0  0  0  0  0  0
  160.5270  211.5970  151.7460 C   0  0  0  0  0  3  0  0  0  0  0  0
  159.1780  211.8490  154.4910 C   0  0  0  0  0  0  0  0  0  0  0  0
  160.5700  210.5950  152.8290 C   0  0  0  0  0  3  0  0  0  0  0  0
  159.9500  210.6580  154.0210 C   0  0  0  0  0  0  0  0  0  0  0  0
  162.7450  207.0760  151.3390 C   0  0  0  0  0  2  0  0  0  0  0  0
  161.4740  204.4660  152.0810 C   0  0  0  0  0  2  0  0  0  0  0  0
  160.7770  206.0760  148.1530 C   0  0  2  0  0  3  0  0  0  0  0  0
  161.7410  206.8820  149.0380 C   0  0  0  0  0  2  0  0  0  0  0  0
  162.2120  206.1090  150.2770 C   0  0  2  0  0  3  0  0  0  0  0  0
  161.6650  206.5490  153.5240 C   0  0  1  0  0  3  0  0  0  0  0  0
  160.8630  204.0510  149.6860 C   0  0  0  0  0  2  0  0  0  0  0  0
  161.1340  205.1190  150.7520 C   0  0  1  0  0  3  0  0  0  0  0  0
  161.0360  204.5670  148.2480 C   0  0  0  0  0  2  0  0  0  0  0  0
  160.8640  205.2790  153.2140 C   0  0  0  0  0  2  0  0  0  0  0  0
  161.6890  207.5180  152.3450 C   0  0  0  0  0  2  0  0  0  0  0  0
  160.8270  206.5780  146.7130 C   0  0  0  0  0  3  0  0  0  0  0  0
  159.7690  206.0420  145.9790 O   0  0  0  0  0  1  0  0  0  0  0  0
  162.0390  206.2370  146.1080 O   0  0  0  0  0  1  0  0  0  0  0  0
  159.5920  213.3850  150.3950 C   0  0  0  0  0  0  0  0  0  0  0  0
  158.7210  214.2860  150.2720 O   0  0  0  0  0  1  0  0  0  0  0  0
  160.6520  213.3360  149.4960 O   0  0  0  0  0  0  0  0  0  0  0  0
  1 10  1  0  0  0  0
  2 15  2  0  0  0  0
  3  9  1  0  0  0  0
  4  5  1  6  0  0  0
  4  8  1  0  0  0  0
  5  1  1  0  0  0  0
  6 11  1  0  0  0  0
  6  7  1  1  0  0  0
 10  8  1  6  0  0  0
 10  6  1  0  0  0  0
 11  9  1  1  0  0  0
 11  7  1  0  0  0  0
 12  2  1  0  0  0  0
 13 14  2  0  0  0  0
 13 12  1  0  0  0  0
 14 16  1  0  0  0  0
 15  3  1  0  0  0  0
 16 17  2  0  0  0  0
 17 15  1  0  0  0  0
 17  1  1  0  0  0  0
 18 28  1  0  0  0  0
 19 27  1  0  0  0  0
 20 29  1  6  0  0  0
 20 26  1  0  0  0  0
 20 21  1  0  0  0  0
 22 21  1  6  0  0  0
 22 25  1  0  0  0  0
 22 18  1  0  0  0  0
 23 28  1  6  0  0  0
 23  4  1  0  0  0  0
 25 24  1  6  0  0  0
 25 19  1  0  0  0  0
 26 24  1  0  0  0  0
 27 23  1  0  0  0  0
 30 29  1  0  0  0  0
 31 29  1  0  0  0  0
 32 13  1  0  0  0  0
 33 32  1  0  0  0  0
 34 32  2  0  0  0  0
M  END
>  <MODEL>
2

>  <REMARK>
 VINA RESULT:      -6.6      1.743      2.562
  Name = 
  3 active torsions:
  status: ('A' for Active; 'I' for Inactive)
    1  A    between atoms: C_3  and  C_25
    2  A    between atoms: C_7  and  C_11
    3  A    between atoms: C_8  and  C_18
                            x       y       z     vdW  Elec       q    Type
                         _______ _______ _______ _____ _____    ______ ____

>  <TORSDO>
F 3

$$$$
=
 OpenBabel11062409283D

 34 39  0  0  1  0  0  0  0  0999 V2000
  160.5130  209.0900  154.8780 N   0  0  0  0  0  0  0  0  0  0  0  0
  157.9400  211.2740  156.3540 C   0  0  0  0  0  3  0  0  0  0  0  0
  160.0800  210.8760  157.2600 N   0  0  0  0  0  2  0  0  0  0  0  0
  161.5110  207.5490  153.1640 C   0  0  2  0  0  3  0  0  0  0  0  0
  160.0120  207.5490  154.2090 S   0  0  0  0  0  0  0  0  0  0  0  0
  162.4430  210.7010  154.8850 C   0  0  1  0  0  3  0  0  0  0  0  0
  163.4530  210.7280  155.8680 O   0  0  0  0  0  0  0  0  0  0  0  0
  162.3300  208.7360  153.4250 N   0  0  0  0  0  2  0  0  0  0  0  0
  161.4840  210.4880  157.2280 C   0  0  0  0  0  2  0  0  0  0  0  0
  161.9530  209.2530  154.7300 C   0  0  2  0  0  3  0  0  0  0  0  0
  162.2400  211.3470  156.2200 C   0  0  2  0  0  3  0  0  0  0  0  0
  156.8590  211.2410  155.3280 C   0  0  0  0  0  2  0  0  0  0  0  0
  157.2290  212.0860  154.1490 C   0  0  0  0  0  0  0  0  0  0  0  0
  158.2740  211.7660  153.3810 C   0  0  0  0  0  3  0  0  0  0  0  0
  159.1720  210.7990  156.1520 C   0  0  0  0  0  0  0  0  0  0  0  0
  159.2190  210.6640  153.6510 C   0  0  0  0  0  3  0  0  0  0  0  0
  159.5920  210.1890  154.8530 C   0  0  0  0  0  0  0  0  0  0  0  0
  159.9000  205.9250  150.1380 C   0  0  0  0  0  2  0  0  0  0  0  0
  161.8500  208.0490  149.3210 C   0  0  0  0  0  2  0  0  0  0  0  0
  161.9650  204.2410  147.3220 C   0  0  2  0  0  3  0  0  0  0  0  0
  160.8470  204.4090  148.3640 C   0  0  0  0  0  2  0  0  0  0  0  0
  160.6410  205.8660  148.7980 C   0  0  2  0  0  3  0  0  0  0  0  0
  161.1500  207.4310  151.6840 C   0  0  1  0  0  3  0  0  0  0  0  0
  162.4740  206.7310  147.2840 C   0  0  0  0  0  2  0  0  0  0  0  0
  161.9590  206.6560  148.7260 C   0  0  1  0  0  3  0  0  0  0  0  0
  162.1250  205.4900  146.4460 C   0  0  0  0  0  2  0  0  0  0  0  0
  162.2530  208.0060  150.7880 C   0  0  0  0  0  2  0  0  0  0  0  0
  160.8280  205.9780  151.3460 C   0  0  0  0  0  2  0  0  0  0  0  0
  161.7360  202.9820  146.4920 C   0  0  0  0  0  3  0  0  0  0  0  0
  161.1790  203.3140  145.2570 O   0  0  0  0  0  1  0  0  0  0  0  0
  160.8980  202.0880  147.1620 O   0  0  0  0  0  1  0  0  0  0  0  0
  156.3840  213.2350  153.7860 C   0  0  0  0  0  0  0  0  0  0  0  0
  156.6580  213.9300  152.7720 O   0  0  0  0  0  0  0  0  0  0  0  0
  155.2710  213.5610  154.5540 O   0  0  0  0  0  1  0  0  0  0  0  0
  4  8  1  6  0  0  0
  4  5  1  0  0  0  0
  5  1  1  0  0  0  0
  6  7  1  1  0  0  0
  6 11  1  0  0  0  0
  7 11  1  0  0  0  0
  9  3  1  0  0  0  0
 10  8  1  6  0  0  0
 10  1  1  0  0  0  0
 10  6  1  0  0  0  0
 11  9  1  1  0  0  0
 12  2  1  0  0  0  0
 13 12  1  0  0  0  0
 14 16  1  0  0  0  0
 14 13  2  0  0  0  0
 15  2  2  0  0  0  0
 15  3  1  0  0  0  0
 16 17  2  0  0  0  0
 17  1  1  0  0  0  0
 17 15  1  0  0  0  0
 18 28  1  0  0  0  0
 19 27  1  0  0  0  0
 20 29  1  6  0  0  0
 20 21  1  0  0  0  0
 22 21  1  1  0  0  0
 22 18  1  0  0  0  0
 23 27  1  6  0  0  0
 23  4  1  0  0  0  0
 25 24  1  6  0  0  0
 25 22  1  0  0  0  0
 25 19  1  0  0  0  0
 26 24  1  0  0  0  0
 26 20  1  0  0  0  0
 28 23  1  0  0  0  0
 29 31  1  0  0  0  0
 30 29  1  0  0  0  0
 32 13  1  0  0  0  0
 32 34  1  0  0  0  0
 33 32  2  0  0  0  0
M  END
>  <MODEL>
3

>  <REMARK>
 VINA RESULT:      -6.3      2.758      4.256
  Name = 
  3 active torsions:
  status: ('A' for Active; 'I' for Inactive)
    1  A    between atoms: C_3  and  C_25
    2  A    between atoms: C_7  and  C_11
    3  A    between atoms: C_8  and  C_18
                            x       y       z     vdW  Elec       q    Type
                         _______ _______ _______ _____ _____    ______ ____

>  <TORSDO>
F 3

$$$$
=
 OpenBabel11062409283D

 34 39  0  0  1  0  0  0  0  0999 V2000
  158.8410  213.7740  152.6680 N   0  0  0  0  0  0  0  0  0  0  0  0
  160.4920  212.0150  155.4520 C   0  0  0  0  0  3  0  0  0  0  0  0
  158.7590  213.5970  155.6700 N   0  0  0  0  0  2  0  0  0  0  0  0
  158.3690  214.3440  150.2680 C   0  0  2  0  0  3  0  0  0  0  0  0
  159.8360  214.3730  151.3560 S   0  0  0  0  0  0  0  0  0  0  0  0
  156.4480  213.2800  153.2590 C   0  0  1  0  0  3  0  0  0  0  0  0
  155.5960  214.1740  153.9390 O   0  0  0  0  0  0  0  0  0  0  0  0
  157.1810  213.9000  151.0040 N   0  0  0  0  0  2  0  0  0  0  0  0
  157.6160  214.3850  155.2270 C   0  0  0  0  0  2  0  0  0  0  0  0
  157.4420  214.0980  152.4210 C   0  0  2  0  0  3  0  0  0  0  0  0
  156.5020  213.4610  154.7440 C   0  0  2  0  0  3  0  0  0  0  0  0
  161.4080  211.0750  154.7440 C   0  0  0  0  0  2  0  0  0  0  0  0
  160.6400  209.9260  154.1690 C   0  0  0  0  0  0  0  0  0  0  0  0
  159.7360  210.1240  153.2060 C   0  0  0  0  0  3  0  0  0  0  0  0
  159.5260  212.7090  154.8450 C   0  0  0  0  0  0  0  0  0  0  0  0
  159.3160  211.4430  152.6940 C   0  0  0  0  0  3  0  0  0  0  0  0
  159.2610  212.6010  153.3770 C   0  0  0  0  0  0  0  0  0  0  0  0
  160.4870  212.3330  147.8480 C   0  0  0  0  0  2  0  0  0  0  0  0
  157.7720  212.8920  146.7090 C   0  0  0  0  0  2  0  0  0  0  0  0
  161.2360  213.5250  144.2370 C   0  0  2  0  0  3  0  0  0  0  0  0
  161.5160  212.9470  145.6330 C   0  0  0  0  0  2  0  0  0  0  0  0
  160.2530  212.4330  146.3370 C   0  0  2  0  0  3  0  0  0  0  0  0
  158.6160  213.4800  149.0320 C   0  0  1  0  0  3  0  0  0  0  0  0
  158.7440  213.0570  144.4050 C   0  0  0  0  0  2  0  0  0  0  0  0
  159.0140  213.2350  145.9030 C   0  0  1  0  0  3  0  0  0  0  0  0
  160.0220  212.8620  143.5740 C   0  0  0  0  0  2  0  0  0  0  0  0
  157.6580  213.8420  147.8920 C   0  0  0  0  0  2  0  0  0  0  0  0
  160.0800  213.5870  148.6130 C   0  0  0  0  0  2  0  0  0  0  0  0
  162.4840  213.4420  143.3640 C   0  0  0  0  0  3  0  0  0  0  0  0
  162.4250  212.3140  142.5450 O   0  0  0  0  0  1  0  0  0  0  0  0
  163.6390  213.3930  144.1480 O   0  0  0  0  0  1  0  0  0  0  0  0
  160.9410  208.5560  154.6150 C   0  0  0  0  0  0  0  0  0  0  0  0
  160.7150  207.5770  153.8560 O   0  0  0  0  0  0  0  0  0  0  0  0
  161.4860  208.3290  155.8740 O   0  0  0  0  0  1  0  0  0  0  0  0
  1 17  1  0  0  0  0
  4  8  1  1  0  0  0
  4  5  1  0  0  0  0
  5  1  1  0  0  0  0
  6  7  1  6  0  0  0
  6 11  1  0  0  0  0
  7 11  1  0  0  0  0
  9  3  1  0  0  0  0
 10  8  1  6  0  0  0
 10  1  1  0  0  0  0
 10  6  1  0  0  0  0
 11  9  1  6  0  0  0
 12  2  1  0  0  0  0
 13 32  1  0  0  0  0
 13 12  1  0  0  0  0
 14 13  2  0  0  0  0
 15  2  2  0  0  0  0
 15  3  1  0  0  0  0
 16 14  1  0  0  0  0
 16 17  2  0  0  0  0
 17 15  1  0  0  0  0
 18 28  1  0  0  0  0
 19 27  1  0  0  0  0
 20 29  1  6  0  0  0
 20 21  1  0  0  0  0
 22 21  1  6  0  0  0
 22 18  1  0  0  0  0
 23 27  1  6  0  0  0
 23  4  1  0  0  0  0
 25 24  1  6  0  0  0
 25 22  1  0  0  0  0
 25 19  1  0  0  0  0
 26 20  1  0  0  0  0
 26 24  1  0  0  0  0
 28 23  1  0  0  0  0
 29 31  1  0  0  0  0
 30 29  1  0  0  0  0
 32 34  1  0  0  0  0
 33 32  2  0  0  0  0
M  END
>  <MODEL>
4

>  <REMARK>
 VINA RESULT:      -6.1      3.740      7.180
  Name = 
  3 active torsions:
  status: ('A' for Active; 'I' for Inactive)
    1  A    between atoms: C_3  and  C_25
    2  A    between atoms: C_7  and  C_11
    3  A    between atoms: C_8  and  C_18
                            x       y       z     vdW  Elec       q    Type
                         _______ _______ _______ _____ _____    ______ ____

>  <TORSDO>
F 3

$$$$
