=
 OpenBabel11052423163D

 27 31  0  0  1  0  0  0  0  0999 V2000
  160.6970  210.4920  151.3920 O   0  0  0  0  0  0  0  0  0  0  0  0
  161.5470  208.8040  149.9330 C   0  0  0  0  0  0  0  0  0  0  0  0
  161.6040  207.7450  152.2530 N   0  0  0  0  0  2  0  0  0  0  0  0
  161.1830  205.0360  148.2640 C   0  0  0  0  0  3  0  0  0  0  0  0
  161.1370  202.5740  148.4450 O   0  0  0  0  0  1  0  0  0  0  0  0
  161.4090  208.6520  148.6050 C   0  0  0  0  0  3  0  0  0  0  0  0
  161.3980  205.1550  151.1740 C   0  0  0  0  0  3  0  0  0  0  0  0
  160.4840  209.3260  155.4150 C   0  0  0  0  0  0  0  0  0  0  0  0
  161.3210  203.8610  150.4050 C   0  0  0  0  0  3  0  0  0  0  0  0
  160.4350  208.9750  156.7920 N   0  0  0  0  0  1  0  0  0  0  0  0
  161.4210  206.3810  150.2910 C   0  0  0  0  0  0  0  0  0  0  0  0
  161.7790  210.1520  150.5440 C   0  0  1  0  0  3  0  0  0  0  0  0
  161.2140  203.8080  149.0750 C   0  0  0  0  0  0  0  0  0  0  0  0
  161.2820  206.2390  148.8260 C   0  0  1  0  0  3  0  0  0  0  0  0
  160.5980  210.0240  152.7000 C   0  0  0  0  0  0  0  0  0  0  0  0
  161.5100  207.6160  150.8250 C   0  0  0  0  0  0  0  0  0  0  0  0
  161.0660  208.4550  154.4940 C   0  0  0  0  0  3  0  0  0  0  0  0
  161.2560  207.3850  148.0330 O   0  0  0  0  0  0  0  0  0  0  0  0
  159.9230  210.5250  154.9800 C   0  0  0  0  0  3  0  0  0  0  0  0
  159.9820  210.8690  153.6310 C   0  0  0  0  0  3  0  0  0  0  0  0
  161.1210  208.7760  153.1310 C   0  0  0  0  0  0  0  0  0  0  0  0
  162.5570  213.3630  147.7850 C   0  0  0  0  0  3  0  0  0  0  0  0
  162.0540  211.2590  149.5650 C   0  0  0  0  0  0  0  0  0  0  0  0
  161.2000  212.3680  149.5270 C   0  0  0  0  0  3  0  0  0  0  0  0
  161.4490  213.4170  148.6370 C   0  0  0  0  0  3  0  0  0  0  0  0
  163.4160  212.2610  147.8250 C   0  0  0  0  0  3  0  0  0  0  0  0
  163.1670  211.2120  148.7130 C   0  0  0  0  0  3  0  0  0  0  0  0
  1 15  1  0  0  0  0
  2 12  1  0  0  0  0
  2 16  1  0  0  0  0
  3 21  1  0  0  0  0
  4 13  2  0  0  0  0
  5 13  1  0  0  0  0
  6  2  2  0  0  0  0
  8 10  1  0  0  0  0
  9  7  2  0  0  0  0
 11 16  2  0  0  0  0
 11  7  1  0  0  0  0
 12 23  1  6  0  0  0
 12  1  1  0  0  0  0
 13  9  1  0  0  0  0
 14  4  1  6  0  0  0
 14 11  1  0  0  0  0
 15 21  2  0  0  0  0
 15 20  1  0  0  0  0
 16  3  1  0  0  0  0
 17  8  2  0  0  0  0
 18  6  1  0  0  0  0
 18 14  1  0  0  0  0
 19  8  1  0  0  0  0
 20 19  2  0  0  0  0
 21 17  1  0  0  0  0
 22 26  2  0  0  0  0
 22 25  1  0  0  0  0
 24 23  1  0  0  0  0
 25 24  2  0  0  0  0
 26 27  1  0  0  0  0
 27 23  2  0  0  0  0
M  END
>  <MODEL>
1

>  <REMARK>
 VINA RESULT:      -7.8      0.000      0.000
  Name = 
  1 active torsions:
  status: ('A' for Active; 'I' for Inactive)
    1  A    between atoms: C_9  and  C_15
                            x       y       z     vdW  Elec       q    Type
                         _______ _______ _______ _____ _____    ______ ____

>  <TORSDO>
F 1

$$$$
=
 OpenBabel11052423163D

 27 31  0  0  1  0  0  0  0  0999 V2000
  162.5600  208.4620  148.4110 O   0  0  0  0  0  0  0  0  0  0  0  0
  161.7230  209.3420  150.4670 C   0  0  0  0  0  0  0  0  0  0  0  0
  160.8640  206.9410  150.3910 N   0  0  0  0  0  2  0  0  0  0  0  0
  161.6010  209.2140  154.6010 C   0  0  0  0  0  3  0  0  0  0  0  0
  161.0330  208.0900  156.7240 O   0  0  0  0  0  1  0  0  0  0  0  0
  162.1390  210.3890  151.1990 C   0  0  0  0  0  3  0  0  0  0  0  0
  160.7220  206.8070  153.1980 C   0  0  0  0  0  2  0  0  0  0  0  0
  161.5210  204.4590  147.7140 C   0  0  0  0  0  0  0  0  0  0  0  0
  160.6820  206.9480  154.6980 C   0  0  0  0  0  3  0  0  0  0  0  0
  161.1520  203.1150  147.4300 N   0  0  0  0  0  1  0  0  0  0  0  0
  161.1960  208.0540  152.4870 C   0  0  0  0  0  0  0  0  0  0  0  0
  161.6680  209.4070  148.9710 C   0  0  1  0  0  3  0  0  0  0  0  0
  161.0920  208.0460  155.3390 C   0  0  0  0  0  0  0  0  0  0  0  0
  161.6490  209.2230  153.2700 C   0  0  0  0  0  0  0  0  0  0  0  0
  162.2300  207.1170  148.2680 C   0  0  0  0  0  0  0  0  0  0  0  0
  161.2680  208.0980  151.1420 C   0  0  0  0  0  0  0  0  0  0  0  0
  160.9940  205.1050  148.8330 C   0  0  0  0  0  3  0  0  0  0  0  0
  162.1300  210.3460  152.5970 O   0  0  0  0  0  0  0  0  0  0  0  0
  162.4300  205.1220  146.8930 C   0  0  0  0  0  3  0  0  0  0  0  0
  162.7800  206.4430  147.1710 C   0  0  0  0  0  3  0  0  0  0  0  0
  161.3450  206.4260  149.1380 C   0  0  0  0  0  0  0  0  0  0  0  0
  162.2880  213.3320  147.3170 C   0  0  0  0  0  3  0  0  0  0  0  0
  161.9000  210.7710  148.3820 C   0  0  0  0  0  0  0  0  0  0  0  0
  160.8110  211.5030  147.8980 C   0  0  0  0  0  3  0  0  0  0  0  0
  161.0040  212.7800  147.3630 C   0  0  0  0  0  3  0  0  0  0  0  0
  163.3780  212.6070  147.8050 C   0  0  0  0  0  3  0  0  0  0  0  0
  163.1860  211.3290  148.3390 C   0  0  0  0  0  3  0  0  0  0  0  0
  1 12  1  0  0  0  0
  2 16  1  0  0  0  0
  2  6  2  0  0  0  0
  3 16  1  0  0  0  0
  4 13  1  0  0  0  0
  6 18  1  0  0  0  0
  7  9  1  0  0  0  0
  8 17  1  0  0  0  0
  9 13  2  0  0  0  0
 10  8  1  0  0  0  0
 11  7  1  0  0  0  0
 11 14  1  0  0  0  0
 12 23  1  1  0  0  0
 12  2  1  0  0  0  0
 13  5  1  0  0  0  0
 14  4  2  0  0  0  0
 15  1  1  0  0  0  0
 15 21  1  0  0  0  0
 16 11  2  0  0  0  0
 17 21  2  0  0  0  0
 18 14  1  0  0  0  0
 19 20  1  0  0  0  0
 19  8  2  0  0  0  0
 20 15  2  0  0  0  0
 21  3  1  0  0  0  0
 22 25  2  0  0  0  0
 22 26  1  0  0  0  0
 24 23  2  0  0  0  0
 25 24  1  0  0  0  0
 26 27  2  0  0  0  0
 27 23  1  0  0  0  0
M  END
>  <MODEL>
2

>  <REMARK>
 VINA RESULT:      -7.8      2.216      5.551
  Name = 
  1 active torsions:
  status: ('A' for Active; 'I' for Inactive)
    1  A    between atoms: C_9  and  C_15
                            x       y       z     vdW  Elec       q    Type
                         _______ _______ _______ _____ _____    ______ ____

>  <TORSDO>
F 1

$$$$
=
 OpenBabel11052423163D

 27 31  0  0  1  0  0  0  0  0999 V2000
  161.5790  206.7900  153.0420 O   0  0  0  0  0  0  0  0  0  0  0  0
  161.3860  207.7800  150.8790 C   0  0  0  0  0  0  0  0  0  0  0  0
  160.5070  209.5560  152.4850 N   0  0  0  0  0  2  0  0  0  0  0  0
  162.4660  210.7680  148.2280 C   0  0  0  0  0  3  0  0  0  0  0  0
  162.5210  213.1340  147.5260 O   0  0  0  0  0  1  0  0  0  0  0  0
  162.0110  207.4840  149.7270 C   0  0  0  0  0  3  0  0  0  0  0  0
  161.1830  211.6290  150.7070 C   0  0  0  0  0  3  0  0  0  0  0  0
  160.3220  209.2750  156.1790 C   0  0  0  0  0  0  0  0  0  0  0  0
  161.5810  212.5830  149.6100 C   0  0  0  0  0  3  0  0  0  0  0  0
  159.8680  210.0780  157.2610 N   0  0  0  0  0  1  0  0  0  0  0  0
  161.4480  210.1790  150.3720 C   0  0  0  0  0  0  0  0  0  0  0  0
  160.9000  206.7060  151.8030 C   0  0  1  0  0  3  0  0  0  0  0  0
  162.1760  212.1890  148.4810 C   0  0  0  0  0  0  0  0  0  0  0  0
  162.1260  209.8270  149.1060 C   0  0  1  0  0  3  0  0  0  0  0  0
  161.2010  207.6850  154.0410 C   0  0  0  0  0  0  0  0  0  0  0  0
  161.1280  209.1980  151.2390 C   0  0  0  0  0  0  0  0  0  0  0  0
  160.1520  209.7140  154.8650 C   0  0  0  0  0  3  0  0  0  0  0  0
  162.4080  208.4870  148.8370 O   0  0  0  0  0  0  0  0  0  0  0  0
  160.9650  208.0650  156.4300 C   0  0  0  0  0  3  0  0  0  0  0  0
  161.4000  207.2770  155.3650 C   0  0  0  0  0  3  0  0  0  0  0  0
  160.5960  208.9430  153.7820 C   0  0  0  0  0  0  0  0  0  0  0  0
  161.0710  202.6870  150.2720 C   0  0  0  0  0  3  0  0  0  0  0  0
  160.9730  205.3090  151.2520 C   0  0  0  0  0  0  0  0  0  0  0  0
  161.2060  204.2400  152.1250 C   0  0  0  0  0  3  0  0  0  0  0  0
  161.2580  202.9310  151.6360 C   0  0  0  0  0  3  0  0  0  0  0  0
  160.8310  203.7500  149.3980 C   0  0  0  0  0  3  0  0  0  0  0  0
  160.7800  205.0590  149.8860 C   0  0  0  0  0  3  0  0  0  0  0  0
  1 15  1  0  0  0  0
  2 16  1  0  0  0  0
  2 12  1  0  0  0  0
  3 21  1  0  0  0  0
  4 13  2  0  0  0  0
  5 13  1  0  0  0  0
  6  2  2  0  0  0  0
  8 19  1  0  0  0  0
  8 10  1  0  0  0  0
  9  7  2  0  0  0  0
 11  7  1  0  0  0  0
 11 16  2  0  0  0  0
 12 23  1  6  0  0  0
 12  1  1  0  0  0  0
 13  9  1  0  0  0  0
 14  4  1  6  0  0  0
 14 11  1  0  0  0  0
 15 20  1  0  0  0  0
 16  3  1  0  0  0  0
 17  8  2  0  0  0  0
 18 14  1  0  0  0  0
 18  6  1  0  0  0  0
 20 19  2  0  0  0  0
 21 15  2  0  0  0  0
 21 17  1  0  0  0  0
 22 25  1  0  0  0  0
 23 24  1  0  0  0  0
 25 24  2  0  0  0  0
 26 27  1  0  0  0  0
 26 22  2  0  0  0  0
 27 23  2  0  0  0  0
M  END
>  <MODEL>
3

>  <REMARK>
 VINA RESULT:      -7.5      1.825      5.884
  Name = 
  1 active torsions:
  status: ('A' for Active; 'I' for Inactive)
    1  A    between atoms: C_9  and  C_15
                            x       y       z     vdW  Elec       q    Type
                         _______ _______ _______ _____ _____    ______ ____

>  <TORSDO>
F 1

$$$$
=
 OpenBabel11052423163D

 27 31  0  0  1  0  0  0  0  0999 V2000
  160.7870  211.4200  150.9290 O   0  0  0  0  0  0  0  0  0  0  0  0
  161.6290  209.4410  149.8930 C   0  0  0  0  0  0  0  0  0  0  0  0
  161.7040  208.9440  152.3940 N   0  0  0  0  0  2  0  0  0  0  0  0
  161.2580  205.3900  149.1390 C   0  0  0  0  0  3  0  0  0  0  0  0
  161.2180  203.0360  149.8820 O   0  0  0  0  0  1  0  0  0  0  0  0
  161.4810  208.9870  148.6360 C   0  0  0  0  0  3  0  0  0  0  0  0
  161.4950  206.1760  151.9420 C   0  0  0  0  0  3  0  0  0  0  0  0
  160.6040  211.2120  155.1150 C   0  0  0  0  0  0  0  0  0  0  0  0
  161.4150  204.7390  151.4920 C   0  0  0  0  0  3  0  0  0  0  0  0
  160.5670  211.1880  156.5360 N   0  0  0  0  0  1  0  0  0  0  0  0
  161.5090  207.1660  150.8000 C   0  0  0  0  0  0  0  0  0  0  0  0
  161.8620  210.8940  150.1750 C   0  0  1  0  0  3  0  0  0  0  0  0
  161.2980  204.3810  150.2100 C   0  0  0  0  0  0  0  0  0  0  0  0
  161.3600  206.6890  149.4080 C   0  0  2  0  0  3  0  0  0  0  0  0
  160.6980  211.2650  152.3110 C   0  0  0  0  0  0  0  0  0  0  0  0
  161.6000  208.4900  151.0340 C   0  0  0  0  0  0  0  0  0  0  0  0
  161.1810  210.1520  154.4140 C   0  0  0  0  0  3  0  0  0  0  0  0
  161.3260  207.6230  148.3720 O   0  0  0  0  0  0  0  0  0  0  0  0
  160.0390  212.2790  154.4200 C   0  0  0  0  0  3  0  0  0  0  0  0
  160.0870  212.3020  153.0260 C   0  0  0  0  0  3  0  0  0  0  0  0
  161.2260  210.1500  153.0140 C   0  0  0  0  0  0  0  0  0  0  0  0
  162.6440  213.2840  146.6820 C   0  0  0  0  0  3  0  0  0  0  0  0
  162.1280  211.7450  148.9650 C   0  0  0  0  0  0  0  0  0  0  0  0
  163.3500  211.6210  148.2950 C   0  0  0  0  0  3  0  0  0  0  0  0
  163.6090  212.3900  147.1560 C   0  0  0  0  0  3  0  0  0  0  0  0
  161.4200  213.4070  147.3440 C   0  0  0  0  0  3  0  0  0  0  0  0
  161.1610  212.6390  148.4830 C   0  0  0  0  0  3  0  0  0  0  0  0
  1 15  1  0  0  0  0
  2 12  1  0  0  0  0
  2 16  1  0  0  0  0
  3 21  1  0  0  0  0
  4 13  2  0  0  0  0
  5 13  1  0  0  0  0
  6  2  2  0  0  0  0
  8 10  1  0  0  0  0
  9  7  2  0  0  0  0
 11 16  2  0  0  0  0
 11  7  1  0  0  0  0
 12 23  1  6  0  0  0
 12  1  1  0  0  0  0
 13  9  1  0  0  0  0
 14  4  1  1  0  0  0
 14 11  1  0  0  0  0
 15 21  2  0  0  0  0
 15 20  1  0  0  0  0
 16  3  1  0  0  0  0
 17  8  2  0  0  0  0
 18  6  1  0  0  0  0
 18 14  1  0  0  0  0
 19  8  1  0  0  0  0
 20 19  2  0  0  0  0
 21 17  1  0  0  0  0
 22 25  2  0  0  0  0
 22 26  1  0  0  0  0
 24 23  2  0  0  0  0
 25 24  1  0  0  0  0
 26 27  2  0  0  0  0
 27 23  1  0  0  0  0
M  END
>  <MODEL>
4

>  <REMARK>
 VINA RESULT:      -7.0      1.077      1.536
  Name = 
  1 active torsions:
  status: ('A' for Active; 'I' for Inactive)
    1  A    between atoms: C_9  and  C_15
                            x       y       z     vdW  Elec       q    Type
                         _______ _______ _______ _____ _____    ______ ____

>  <TORSDO>
F 1

$$$$
=
 OpenBabel11052423163D

 27 31  0  0  1  0  0  0  0  0999 V2000
  160.5490  206.9750  151.9590 O   0  0  0  0  0  0  0  0  0  0  0  0
  161.1960  209.2710  151.8660 C   0  0  0  0  0  0  0  0  0  0  0  0
  162.0700  208.2630  149.6920 N   0  0  0  0  0  2  0  0  0  0  0  0
  160.9500  212.9610  150.0110 C   0  0  0  0  0  3  0  0  0  0  0  0
  161.3320  214.4530  148.0820 O   0  0  0  0  0  1  0  0  0  0  0  0
  160.7120  210.3390  152.5230 C   0  0  0  0  0  3  0  0  0  0  0  0
  161.9620  210.7530  148.3880 C   0  0  0  0  0  2  0  0  0  0  0  0
  161.6660  204.7450  148.5860 C   0  0  0  0  0  0  0  0  0  0  0  0
  161.8680  212.1710  147.8850 C   0  0  0  0  0  3  0  0  0  0  0  0
  162.0640  203.9530  147.4750 N   0  0  0  0  0  1  0  0  0  0  0  0
  161.5470  210.5970  149.8330 C   0  0  0  0  0  0  0  0  0  0  0  0
  161.3840  207.9520  152.5520 C   0  0  1  0  0  3  0  0  0  0  0  0
  161.3960  213.1780  148.6260 C   0  0  0  0  0  0  0  0  0  0  0  0
  161.0210  211.7590  150.5800 C   0  0  0  0  0  0  0  0  0  0  0  0
  160.8980  206.3060  150.7880 C   0  0  0  0  0  0  0  0  0  0  0  0
  161.5950  209.3940  150.4400 C   0  0  0  0  0  0  0  0  0  0  0  0
  162.0880  206.0720  148.6850 C   0  0  0  0  0  3  0  0  0  0  0  0
  160.5960  211.5840  151.8970 O   0  0  0  0  0  0  0  0  0  0  0  0
  160.8300  204.2080  149.5630 C   0  0  0  0  0  3  0  0  0  0  0  0
  160.4500  204.9860  150.6550 C   0  0  0  0  0  3  0  0  0  0  0  0
  161.7050  206.8740  149.7670 C   0  0  0  0  0  0  0  0  0  0  0  0
  160.8650  207.9580  156.8240 C   0  0  0  0  0  3  0  0  0  0  0  0
  161.1980  207.9750  154.0430 C   0  0  0  0  0  0  0  0  0  0  0  0
  160.4580  206.9580  154.6570 C   0  0  0  0  0  3  0  0  0  0  0  0
  160.2890  206.9500  156.0450 C   0  0  0  0  0  3  0  0  0  0  0  0
  161.6110  208.9720  156.2170 C   0  0  0  0  0  3  0  0  0  0  0  0
  161.7790  208.9800  154.8290 C   0  0  0  0  0  3  0  0  0  0  0  0
  1 12  1  0  0  0  0
  2  6  2  0  0  0  0
  2 12  1  0  0  0  0
  3 21  1  0  0  0  0
  3 16  1  0  0  0  0
  4 14  2  0  0  0  0
  5 13  1  0  0  0  0
  7 11  1  0  0  0  0
  8 17  2  0  0  0  0
  8 19  1  0  0  0  0
  9  7  1  0  0  0  0
  9 13  2  0  0  0  0
 10  8  1  0  0  0  0
 11 16  2  0  0  0  0
 11 14  1  0  0  0  0
 12 23  1  1  0  0  0
 13  4  1  0  0  0  0
 14 18  1  0  0  0  0
 15  1  1  0  0  0  0
 16  2  1  0  0  0  0
 17 21  1  0  0  0  0
 18  6  1  0  0  0  0
 19 20  2  0  0  0  0
 20 15  1  0  0  0  0
 21 15  2  0  0  0  0
 23 24  2  0  0  0  0
 23 27  1  0  0  0  0
 24 25  1  0  0  0  0
 25 22  2  0  0  0  0
 26 22  1  0  0  0  0
 27 26  2  0  0  0  0
M  END
>  <MODEL>
5

>  <REMARK>
 VINA RESULT:      -6.7      2.283      7.068
  Name = 
  1 active torsions:
  status: ('A' for Active; 'I' for Inactive)
    1  A    between atoms: C_9  and  C_15
                            x       y       z     vdW  Elec       q    Type
                         _______ _______ _______ _____ _____    ______ ____

>  <TORSDO>
F 1

$$$$
=
 OpenBabel11052423163D

 27 31  0  0  1  0  0  0  0  0999 V2000
  161.1200  209.0020  147.8920 O   0  0  0  0  0  0  0  0  0  0  0  0
  161.5520  207.6880  149.8380 C   0  0  0  0  0  0  0  0  0  0  0  0
  162.2450  210.0560  150.4870 N   0  0  0  0  0  2  0  0  0  0  0  0
  160.7710  206.8670  153.8170 C   0  0  0  0  0  3  0  0  0  0  0  0
  160.7930  207.4830  156.2080 O   0  0  0  0  0  1  0  0  0  0  0  0
  161.0590  206.4940  150.2090 C   0  0  0  0  0  3  0  0  0  0  0  0
  161.7700  209.5450  153.2130 C   0  0  0  0  0  3  0  0  0  0  0  0
  162.0170  213.0750  148.3440 C   0  0  0  0  0  0  0  0  0  0  0  0
  161.4960  209.0640  154.6140 C   0  0  0  0  0  3  0  0  0  0  0  0
  162.3470  214.4530  148.4520 N   0  0  0  0  0  1  0  0  0  0  0  0
  161.5440  208.4870  152.1570 C   0  0  0  0  0  0  0  0  0  0  0  0
  161.9320  207.9680  148.4160 C   0  0  1  0  0  3  0  0  0  0  0  0
  161.0300  207.8420  154.8890 C   0  0  0  0  0  0  0  0  0  0  0  0
  161.0120  207.1620  152.5410 C   0  0  1  0  0  3  0  0  0  0  0  0
  161.3830  210.3500  148.1260 C   0  0  0  0  0  0  0  0  0  0  0  0
  161.7660  208.7510  150.8540 C   0  0  0  0  0  0  0  0  0  0  0  0
  162.3320  212.1980  149.3830 C   0  0  0  0  0  3  0  0  0  0  0  0
  160.7630  206.2160  151.5470 O   0  0  0  0  0  0  0  0  0  0  0  0
  161.3510  212.6030  147.2140 C   0  0  0  0  0  3  0  0  0  0  0  0
  161.0380  211.2480  147.1090 C   0  0  0  0  0  3  0  0  0  0  0  0
  162.0120  210.8360  149.3020 C   0  0  0  0  0  0  0  0  0  0  0  0
  161.8890  204.5810  145.7600 C   0  0  0  0  0  3  0  0  0  0  0  0
  161.9230  206.7730  147.5050 C   0  0  0  0  0  0  0  0  0  0  0  0
  160.8440  206.5840  146.6330 C   0  0  0  0  0  3  0  0  0  0  0  0
  160.8260  205.4890  145.7630 C   0  0  0  0  0  3  0  0  0  0  0  0
  162.9710  204.7690  146.6250 C   0  0  0  0  0  3  0  0  0  0  0  0
  162.9900  205.8630  147.4950 C   0  0  0  0  0  3  0  0  0  0  0  0
  1 15  1  0  0  0  0
  1 12  1  0  0  0  0
  2  6  2  0  0  0  0
  2 16  1  0  0  0  0
  3 16  1  0  0  0  0
  4 13  2  0  0  0  0
  6 18  1  0  0  0  0
  7  9  2  0  0  0  0
  8 10  1  0  0  0  0
  8 17  1  0  0  0  0
  9 13  1  0  0  0  0
 11 14  1  0  0  0  0
 11  7  1  0  0  0  0
 12 23  1  6  0  0  0
 12  2  1  0  0  0  0
 13  5  1  0  0  0  0
 14  4  1  1  0  0  0
 15 21  1  0  0  0  0
 16 11  2  0  0  0  0
 18 14  1  0  0  0  0
 19  8  2  0  0  0  0
 20 19  1  0  0  0  0
 20 15  2  0  0  0  0
 21 17  2  0  0  0  0
 21  3  1  0  0  0  0
 22 25  2  0  0  0  0
 22 26  1  0  0  0  0
 24 23  2  0  0  0  0
 25 24  1  0  0  0  0
 26 27  2  0  0  0  0
 27 23  1  0  0  0  0
M  END
>  <MODEL>
6

>  <REMARK>
 VINA RESULT:      -6.1      2.552      6.047
  Name = 
  1 active torsions:
  status: ('A' for Active; 'I' for Inactive)
    1  A    between atoms: C_9  and  C_15
                            x       y       z     vdW  Elec       q    Type
                         _______ _______ _______ _____ _____    ______ ____

>  <TORSDO>
F 1

$$$$
=
 OpenBabel11052423163D

 27 31  0  0  1  0  0  0  0  0999 V2000
  162.2080  208.9720  150.9560 O   0  0  0  0  0  0  0  0  0  0  0  0
  161.3060  206.8520  150.3300 C   0  0  0  0  0  0  0  0  0  0  0  0
  161.0660  208.3010  148.2430 N   0  0  0  0  0  2  0  0  0  0  0  0
  161.4730  203.4880  147.9270 C   0  0  0  0  0  3  0  0  0  0  0  0
  161.3320  202.3810  145.7240 O   0  0  0  0  0  1  0  0  0  0  0  0
  161.4930  205.6340  150.8650 C   0  0  0  0  0  3  0  0  0  0  0  0
  161.1330  206.0470  146.5610 C   0  0  0  0  0  2  0  0  0  0  0  0
  162.1510  211.8290  147.8860 C   0  0  0  0  0  0  0  0  0  0  0  0
  161.1510  204.7240  145.8400 C   0  0  0  0  0  3  0  0  0  0  0  0
  162.1110  212.8320  146.8780 N   0  0  0  0  0  1  0  0  0  0  0  0
  161.2390  205.9180  148.0630 C   0  0  0  0  0  0  0  0  0  0  0  0
  161.1450  208.0670  151.1910 C   0  0  1  0  0  3  0  0  0  0  0  0
  161.3150  203.5540  146.4650 C   0  0  0  0  0  0  0  0  0  0  0  0
  161.4350  204.5870  148.6770 C   0  0  0  0  0  0  0  0  0  0  0  0
  162.2130  209.8550  149.8790 C   0  0  0  0  0  0  0  0  0  0  0  0
  161.2160  207.0080  148.8550 C   0  0  0  0  0  0  0  0  0  0  0  0
  161.5500  210.5900  147.6610 C   0  0  0  0  0  3  0  0  0  0  0  0
  161.5810  204.4940  150.0610 O   0  0  0  0  0  0  0  0  0  0  0  0
  162.8160  212.0720  149.0860 C   0  0  0  0  0  3  0  0  0  0  0  0
  162.8450  211.0890  150.0740 C   0  0  0  0  0  3  0  0  0  0  0  0
  161.5810  209.5840  148.6360 C   0  0  0  0  0  0  0  0  0  0  0  0
  160.6730  207.3230  155.4030 C   0  0  0  0  0  3  0  0  0  0  0  0
  160.9960  207.7940  152.6610 C   0  0  0  0  0  0  0  0  0  0  0  0
  160.8310  208.8670  153.5450 C   0  0  0  0  0  3  0  0  0  0  0  0
  160.6720  208.6320  154.9140 C   0  0  0  0  0  3  0  0  0  0  0  0
  160.8310  206.2480  154.5240 C   0  0  0  0  0  3  0  0  0  0  0  0
  160.9910  206.4810  153.1560 C   0  0  0  0  0  3  0  0  0  0  0  0
  1 12  1  0  0  0  0
  2  6  2  0  0  0  0
  2 12  1  0  0  0  0
  3 21  1  0  0  0  0
  3 16  1  0  0  0  0
  4 14  2  0  0  0  0
  5 13  1  0  0  0  0
  7 11  1  0  0  0  0
  8 19  1  0  0  0  0
  9 13  2  0  0  0  0
  9  7  1  0  0  0  0
 10  8  1  0  0  0  0
 11 14  1  0  0  0  0
 11 16  2  0  0  0  0
 12 23  1  1  0  0  0
 13  4  1  0  0  0  0
 14 18  1  0  0  0  0
 15 20  1  0  0  0  0
 15  1  1  0  0  0  0
 16  2  1  0  0  0  0
 17  8  2  0  0  0  0
 17 21  1  0  0  0  0
 18  6  1  0  0  0  0
 19 20  2  0  0  0  0
 21 15  2  0  0  0  0
 23 27  2  0  0  0  0
 23 24  1  0  0  0  0
 24 25  2  0  0  0  0
 25 22  1  0  0  0  0
 26 22  2  0  0  0  0
 27 26  1  0  0  0  0
M  END
>  <MODEL>
7

>  <REMARK>
 VINA RESULT:      -5.7      2.344      5.472
  Name = 
  1 active torsions:
  status: ('A' for Active; 'I' for Inactive)
    1  A    between atoms: C_9  and  C_15
                            x       y       z     vdW  Elec       q    Type
                         _______ _______ _______ _____ _____    ______ ____

>  <TORSDO>
F 1

$$$$
=
 OpenBabel11052423163D

 27 31  0  0  1  0  0  0  0  0999 V2000
  161.5140  210.2630  140.8270 O   0  0  0  0  0  0  0  0  0  0  0  0
  159.9000  211.9210  140.2390 C   0  0  0  0  0  0  0  0  0  0  0  0
  159.9020  210.2940  138.2750 N   0  0  0  0  0  2  0  0  0  0  0  0
  155.9800  212.9120  139.3630 C   0  0  0  0  0  3  0  0  0  0  0  0
  153.9700  212.7730  137.9350 O   0  0  0  0  0  1  0  0  0  0  0  0
  159.2210  212.7880  141.0110 C   0  0  0  0  0  3  0  0  0  0  0  0
  157.2510  210.9560  137.6060 C   0  0  0  0  0  2  0  0  0  0  0  0
  161.9540  207.2180  137.9770 C   0  0  0  0  0  0  0  0  0  0  0  0
  155.8520  211.4710  137.3890 C   0  0  0  0  0  3  0  0  0  0  0  0
  162.1550  206.1930  137.0130 N   0  0  0  0  0  1  0  0  0  0  0  0
  157.9570  211.5980  138.7780 C   0  0  0  0  0  0  0  0  0  0  0  0
  161.3480  211.6260  140.4840 C   0  0  1  0  0  3  0  0  0  0  0  0
  155.2680  212.3600  138.1990 C   0  0  0  0  0  0  0  0  0  0  0  0
  157.2350  212.5630  139.6350 C   0  0  0  0  0  0  0  0  0  0  0  0
  161.5700  209.2530  139.8690 C   0  0  0  0  0  0  0  0  0  0  0  0
  159.2240  211.2620  139.0920 C   0  0  0  0  0  0  0  0  0  0  0  0
  161.1160  208.2950  137.6850 C   0  0  0  0  0  3  0  0  0  0  0  0
  157.8870  213.1070  140.7420 O   0  0  0  0  0  0  0  0  0  0  0  0
  162.5690  207.1340  139.2240 C   0  0  0  0  0  3  0  0  0  0  0  0
  162.3770  208.1470  140.1620 C   0  0  0  0  0  3  0  0  0  0  0  0
  160.8980  209.3150  138.6200 C   0  0  0  0  0  0  0  0  0  0  0  0
  163.2910  214.1170  143.4080 C   0  0  0  0  0  3  0  0  0  0  0  0
  162.0190  212.5130  141.4950 C   0  0  0  0  0  0  0  0  0  0  0  0
  161.9130  212.2030  142.8560 C   0  0  0  0  0  3  0  0  0  0  0  0
  162.5460  213.0050  143.8110 C   0  0  0  0  0  3  0  0  0  0  0  0
  163.4050  214.4270  142.0500 C   0  0  0  0  0  3  0  0  0  0  0  0
  162.7720  213.6270  141.0940 C   0  0  0  0  0  3  0  0  0  0  0  0
  2 12  1  0  0  0  0
  2  6  2  0  0  0  0
  3 21  1  0  0  0  0
  3 16  1  0  0  0  0
  4 14  2  0  0  0  0
  5 13  1  0  0  0  0
  7 11  1  0  0  0  0
  8 19  1  0  0  0  0
  9  7  1  0  0  0  0
  9 13  2  0  0  0  0
 10  8  1  0  0  0  0
 11 16  2  0  0  0  0
 11 14  1  0  0  0  0
 12  1  1  0  0  0  0
 12 23  1  1  0  0  0
 13  4  1  0  0  0  0
 14 18  1  0  0  0  0
 15 20  1  0  0  0  0
 15  1  1  0  0  0  0
 16  2  1  0  0  0  0
 17  8  2  0  0  0  0
 17 21  1  0  0  0  0
 18  6  1  0  0  0  0
 19 20  2  0  0  0  0
 21 15  2  0  0  0  0
 22 25  1  0  0  0  0
 23 24  1  0  0  0  0
 24 25  2  0  0  0  0
 26 22  2  0  0  0  0
 27 23  2  0  0  0  0
 27 26  1  0  0  0  0
M  END
>  <MODEL>
8

>  <REMARK>
 VINA RESULT:      -5.1      9.734     12.792
  Name = 
  1 active torsions:
  status: ('A' for Active; 'I' for Inactive)
    1  A    between atoms: C_9  and  C_15
                            x       y       z     vdW  Elec       q    Type
                         _______ _______ _______ _____ _____    ______ ____

>  <TORSDO>
F 1

$$$$
=
 OpenBabel11052423163D

 27 31  0  0  1  0  0  0  0  0999 V2000
  160.8980  210.0790  152.4490 O   0  0  0  0  0  0  0  0  0  0  0  0
  159.3190  211.3050  153.7540 C   0  0  0  0  0  0  0  0  0  0  0  0
  159.6460  212.7070  151.6480 N   0  0  0  0  0  2  0  0  0  0  0  0
  155.5200  212.8900  154.1710 C   0  0  0  0  0  3  0  0  0  0  0  0
  153.7280  214.4470  153.4930 O   0  0  0  0  0  1  0  0  0  0  0  0
  158.5120  210.9010  154.7490 C   0  0  0  0  0  3  0  0  0  0  0  0
  157.0880  213.8480  151.9010 C   0  0  0  0  0  2  0  0  0  0  0  0
  161.8300  211.8660  148.7700 C   0  0  0  0  0  0  0  0  0  0  0  0
  155.7120  214.3690  152.2320 C   0  0  0  0  0  3  0  0  0  0  0  0
  162.1960  212.4650  147.5340 N   0  0  0  0  0  1  0  0  0  0  0  0
  157.6050  212.8340  152.8950 C   0  0  0  0  0  0  0  0  0  0  0  0
  160.7310  210.8160  153.6460 C   0  0  1  0  0  3  0  0  0  0  0  0
  154.9930  213.9230  153.2650 C   0  0  0  0  0  0  0  0  0  0  0  0
  156.7390  212.3810  154.0050 C   0  0  0  0  0  0  0  0  0  0  0  0
  161.1200  210.6940  151.2190 C   0  0  0  0  0  0  0  0  0  0  0  0
  158.8290  212.2880  152.7540 C   0  0  0  0  0  0  0  0  0  0  0  0
  161.0000  212.5510  149.6580 C   0  0  0  0  0  3  0  0  0  0  0  0
  157.2150  211.4070  154.8820 O   0  0  0  0  0  0  0  0  0  0  0  0
  162.2740  210.5820  149.0820 C   0  0  0  0  0  3  0  0  0  0  0  0
  161.9190  210.0030  150.3000 C   0  0  0  0  0  3  0  0  0  0  0  0
  160.6210  211.9800  150.8800 C   0  0  0  0  0  0  0  0  0  0  0  0
  162.1200  208.5980  157.0630 C   0  0  0  0  0  3  0  0  0  0  0  0
  161.2260  210.0280  154.8270 C   0  0  0  0  0  0  0  0  0  0  0  0
  161.7450  210.7070  155.9350 C   0  0  0  0  0  3  0  0  0  0  0  0
  162.1930  209.9940  157.0510 C   0  0  0  0  0  3  0  0  0  0  0  0
  161.5960  207.9150  155.9620 C   0  0  0  0  0  3  0  0  0  0  0  0
  161.1490  208.6280  154.8460 C   0  0  0  0  0  3  0  0  0  0  0  0
  1 12  1  0  0  0  0
  2  6  2  0  0  0  0
  3 16  1  0  0  0  0
  6 18  1  0  0  0  0
  7  9  1  0  0  0  0
  7 11  1  0  0  0  0
  8 19  2  0  0  0  0
  8 17  1  0  0  0  0
  9 13  2  0  0  0  0
 10  8  1  0  0  0  0
 11 14  1  0  0  0  0
 12  2  1  0  0  0  0
 12 23  1  1  0  0  0
 13  5  1  0  0  0  0
 13  4  1  0  0  0  0
 14  4  2  0  0  0  0
 14 18  1  0  0  0  0
 15  1  1  0  0  0  0
 16 11  2  0  0  0  0
 16  2  1  0  0  0  0
 17 21  2  0  0  0  0
 19 20  1  0  0  0  0
 20 15  2  0  0  0  0
 21 15  1  0  0  0  0
 21  3  1  0  0  0  0
 23 27  2  0  0  0  0
 23 24  1  0  0  0  0
 24 25  2  0  0  0  0
 25 22  1  0  0  0  0
 26 22  2  0  0  0  0
 27 26  1  0  0  0  0
M  END
>  <MODEL>
9

>  <REMARK>
 VINA RESULT:      -4.9      3.679      8.160
  Name = 
  1 active torsions:
  status: ('A' for Active; 'I' for Inactive)
    1  A    between atoms: C_9  and  C_15
                            x       y       z     vdW  Elec       q    Type
                         _______ _______ _______ _____ _____    ______ ____

>  <TORSDO>
F 1

$$$$
