=
 OpenBabel11052422233D

 31 34  0  0  1  0  0  0  0  0999 V2000
  160.9430  208.1200  154.3200 C   0  0  0  0  0  0  0  0  0  0  0  0
  161.2850  207.3240  150.6550 C   0  0  0  0  0  0  0  0  0  0  0  0
  160.9610  205.9390  150.4950 C   0  0  0  0  0  0  0  0  0  0  0  0
  161.2810  203.9920  151.9880 C   0  0  0  0  0  3  0  0  0  0  0  0
  161.2620  208.0230  151.9000 C   0  0  0  0  0  0  0  0  0  0  0  0
  161.2550  209.4780  154.3210 C   0  0  0  0  0  3  0  0  0  0  0  0
  160.3860  205.1230  151.6140 C   0  0  0  0  0  2  0  0  0  0  0  0
  161.9580  209.4190  149.5800 C   0  0  0  0  0  0  0  0  0  0  0  0
  160.5420  207.3120  155.8200 Cl  0  0  0  0  0  0  0  0  0  0  0  0
  161.4210  206.1230  148.1280 C   0  0  0  0  0  3  0  0  0  0  0  0
  161.5280  202.9750  151.1650 C   0  0  0  0  0  3  0  0  0  0  0  0
  161.9180  210.0500  150.7790 N   0  0  0  0  0  0  0  0  0  0  0  0
  161.6500  208.0530  149.4910 C   0  0  0  0  0  0  0  0  0  0  0  0
  160.9480  207.4030  153.1220 C   0  0  0  0  0  3  0  0  0  0  0  0
  161.0270  202.8810  149.7820 C   0  0  0  0  0  3  0  0  0  0  0  0
  161.5860  209.4040  151.9220 C   0  0  0  0  0  0  0  0  0  0  0  0
  161.5770  210.1180  153.1240 C   0  0  0  0  0  3  0  0  0  0  0  0
  161.6960  207.4380  148.2810 N   0  0  0  0  0  0  0  0  0  0  0  0
  161.0700  205.3390  149.2200 C   0  0  0  0  0  0  0  0  0  0  0  0
  160.8210  203.9070  148.9470 C   0  0  0  0  0  3  0  0  0  0  0  0
  162.3540  210.2030  148.3680 C   0  0  0  0  0  2  0  0  0  0  0  0
  163.5010  212.3990  147.9850 C   0  0  0  0  0  1  0  0  0  0  0  0
  162.3300  211.6980  148.6550 C   0  0  1  0  0  3  0  0  0  0  0  0
  160.5090  211.8900  147.1260 O   0  0  0  0  0  0  0  0  0  0  0  0
  161.0350  212.2950  148.1990 C   0  0  0  0  0  0  0  0  0  0  0  0
  160.0910  214.4440  148.4670 O   0  0  0  0  0  0  0  0  0  0  0  0
  160.3860  213.3490  149.0160 C   0  0  0  0  0  0  0  0  0  0  0  0
  158.9160  213.4270  150.9330 C   0  0  0  0  0  3  0  0  0  0  0  0
  160.0740  213.1850  150.4080 N   0  0  0  0  0  0  0  0  0  0  0  0
  158.6930  213.2260  152.3920 C   0  0  0  0  0  2  0  0  0  0  0  0
  158.4870  211.7550  152.6940 C   0  0  0  0  0  1  0  0  0  0  0  0
  1  6  1  0  0  0  0
  1  9  1  0  0  0  0
  2  5  1  0  0  0  0
  3  2  1  0  0  0  0
  3  7  1  0  0  0  0
  5 16  2  0  0  0  0
  5 14  1  0  0  0  0
  7  4  1  0  0  0  0
  8 12  2  0  0  0  0
 10 18  2  0  0  0  0
 10 19  1  0  0  0  0
 11  4  2  0  0  0  0
 12 16  1  0  0  0  0
 13  8  1  0  0  0  0
 13  2  2  0  0  0  0
 14  1  2  0  0  0  0
 15 11  1  0  0  0  0
 16 17  1  0  0  0  0
 17  6  2  0  0  0  0
 18 13  1  0  0  0  0
 19  3  2  0  0  0  0
 20 19  1  0  0  0  0
 20 15  2  0  0  0  0
 21 23  1  0  0  0  0
 21  8  1  0  0  0  0
 23 22  1  6  0  0  0
 24 25  2  0  0  0  0
 25 23  1  0  0  0  0
 25 27  1  0  0  0  0
 26 27  2  0  0  0  0
 27 29  1  0  0  0  0
 28 30  1  0  0  0  0
 29 28  2  0  0  0  0
 30 31  1  0  0  0  0
M  END
>  <MODEL>
1

>  <REMARK>
 VINA RESULT:      -8.9      0.000      0.000
  Name = 
  6 active torsions:
  status: ('A' for Active; 'I' for Inactive)
    1  A    between atoms: C_1  and  C_11
    2  A    between atoms: C_9  and  C_22
    3  A    between atoms: C_9  and  C_23
    4  A    between atoms: C_15  and  C_23
    5  A    between atoms: C_19  and  C_22
    6  A    between atoms: C_19  and  N_24
                            x       y       z     vdW  Elec       q    Type
                         _______ _______ _______ _____ _____    ______ ____

>  <TORSDO>
F 6

$$$$
=
 OpenBabel11052422233D

 31 34  0  0  1  0  0  0  0  0999 V2000
  160.9400  206.9380  153.9290 C   0  0  0  0  0  0  0  0  0  0  0  0
  161.5150  208.8360  150.7270 C   0  0  0  0  0  0  0  0  0  0  0  0
  161.3200  210.2230  151.0210 C   0  0  0  0  0  0  0  0  0  0  0  0
  159.8250  211.3710  152.6230 C   0  0  0  0  0  3  0  0  0  0  0  0
  161.4010  207.7810  151.6830 C   0  0  0  0  0  0  0  0  0  0  0  0
  161.1850  205.6340  153.5040 C   0  0  0  0  0  3  0  0  0  0  0  0
  161.1520  210.7220  152.4250 C   0  0  0  0  0  2  0  0  0  0  0  0
  162.0710  207.1460  149.0440 C   0  0  0  0  0  0  0  0  0  0  0  0
  160.5000  207.2510  155.5940 Cl  0  0  0  0  0  0  0  0  0  0  0  0
  161.7500  210.7570  148.7010 C   0  0  0  0  0  3  0  0  0  0  0  0
  159.4880  212.5050  152.0140 C   0  0  0  0  0  3  0  0  0  0  0  0
  161.9610  206.1730  149.9810 N   0  0  0  0  0  0  0  0  0  0  0  0
  161.8470  208.4870  149.3890 C   0  0  0  0  0  0  0  0  0  0  0  0
  161.0460  207.9980  153.0260 C   0  0  0  0  0  3  0  0  0  0  0  0
  160.3300  213.2030  151.0250 C   0  0  0  0  0  3  0  0  0  0  0  0
  161.6370  206.4450  151.2680 C   0  0  0  0  0  0  0  0  0  0  0  0
  161.5320  205.3880  152.1760 C   0  0  0  0  0  3  0  0  0  0  0  0
  161.9610  209.4480  148.4370 N   0  0  0  0  0  0  0  0  0  0  0  0
  161.4070  211.1760  149.9810 C   0  0  0  0  0  0  0  0  0  0  0  0
  161.1660  212.6260  150.1540 C   0  0  0  0  0  3  0  0  0  0  0  0
  162.4130  206.7570  147.6390 C   0  0  0  0  0  2  0  0  0  0  0  0
  160.5430  206.4390  145.9990 C   0  0  0  0  0  1  0  0  0  0  0  0
  161.3850  205.7810  147.0800 C   0  0  1  0  0  3  0  0  0  0  0  0
  163.1350  204.6880  145.8820 O   0  0  0  0  0  0  0  0  0  0  0  0
  162.0660  204.5620  146.5400 C   0  0  0  0  0  0  0  0  0  0  0  0
  161.1530  202.5110  145.8030 O   0  0  0  0  0  0  0  0  0  0  0  0
  161.4780  203.2230  146.7900 C   0  0  0  0  0  0  0  0  0  0  0  0
  160.9000  201.4750  148.3560 C   0  0  0  0  0  3  0  0  0  0  0  0
  161.2590  202.6940  148.1060 N   0  0  0  0  0  0  0  0  0  0  0  0
  160.6960  201.0220  149.7610 C   0  0  0  0  0  2  0  0  0  0  0  0
  160.9480  202.1650  150.7230 C   0  0  0  0  0  1  0  0  0  0  0  0
  1  9  1  0  0  0  0
  2  3  1  0  0  0  0
  2  5  1  0  0  0  0
  3  7  1  0  0  0  0
  5 14  1  0  0  0  0
  6  1  1  0  0  0  0
  7  4  1  0  0  0  0
  8 13  1  0  0  0  0
  8 12  2  0  0  0  0
 10 19  1  0  0  0  0
 11  4  2  0  0  0  0
 12 16  1  0  0  0  0
 13  2  2  0  0  0  0
 14  1  2  0  0  0  0
 15 11  1  0  0  0  0
 16  5  2  0  0  0  0
 16 17  1  0  0  0  0
 17  6  2  0  0  0  0
 18 10  2  0  0  0  0
 18 13  1  0  0  0  0
 19 20  1  0  0  0  0
 19  3  2  0  0  0  0
 20 15  2  0  0  0  0
 21  8  1  0  0  0  0
 23 22  1  6  0  0  0
 23 21  1  0  0  0  0
 24 25  2  0  0  0  0
 25 27  1  0  0  0  0
 25 23  1  0  0  0  0
 26 27  2  0  0  0  0
 27 29  1  0  0  0  0
 28 30  1  0  0  0  0
 29 28  2  0  0  0  0
 30 31  1  0  0  0  0
M  END
>  <MODEL>
2

>  <REMARK>
 VINA RESULT:      -8.4      2.850      7.046
  Name = 
  6 active torsions:
  status: ('A' for Active; 'I' for Inactive)
    1  A    between atoms: C_1  and  C_11
    2  A    between atoms: C_9  and  C_22
    3  A    between atoms: C_9  and  C_23
    4  A    between atoms: C_15  and  C_23
    5  A    between atoms: C_19  and  C_22
    6  A    between atoms: C_19  and  N_24
                            x       y       z     vdW  Elec       q    Type
                         _______ _______ _______ _____ _____    ______ ____

>  <TORSDO>
F 6

$$$$
=
 OpenBabel11052422233D

 31 34  0  0  1  0  0  0  0  0999 V2000
  160.8520  208.0040  154.2420 C   0  0  0  0  0  0  0  0  0  0  0  0
  161.3700  207.7210  150.5220 C   0  0  0  0  0  0  0  0  0  0  0  0
  161.0460  206.3760  150.1550 C   0  0  0  0  0  0  0  0  0  0  0  0
  161.2780  204.2360  151.3750 C   0  0  0  0  0  3  0  0  0  0  0  0
  161.2900  208.2400  151.8510 C   0  0  0  0  0  0  0  0  0  0  0  0
  161.1730  209.3440  154.4470 C   0  0  0  0  0  3  0  0  0  0  0  0
  160.4100  205.4200  151.1200 C   0  0  0  0  0  2  0  0  0  0  0  0
  162.1100  209.9360  149.7850 C   0  0  0  0  0  0  0  0  0  0  0  0
  160.3720  207.0000  155.5930 Cl  0  0  0  0  0  0  0  0  0  0  0  0
  161.6230  206.8820  147.8620 C   0  0  0  0  0  3  0  0  0  0  0  0
  161.5580  203.3410  150.4320 C   0  0  0  0  0  3  0  0  0  0  0  0
  162.0140  210.3940  151.0560 N   0  0  0  0  0  0  0  0  0  0  0  0
  161.7980  208.6000  149.4910 C   0  0  0  0  0  0  0  0  0  0  0  0
  160.9120  207.4600  152.9580 C   0  0  0  0  0  3  0  0  0  0  0  0
  161.1260  203.4470  149.0260 C   0  0  0  0  0  3  0  0  0  0  0  0
  161.6220  209.6000  152.0810 C   0  0  0  0  0  0  0  0  0  0  0  0
  161.5580  210.1400  153.3690 C   0  0  0  0  0  3  0  0  0  0  0  0
  161.9000  208.1580  148.2100 N   0  0  0  0  0  0  0  0  0  0  0  0
  161.2130  205.9580  148.8150 C   0  0  0  0  0  0  0  0  0  0  0  0
  160.9680  204.5810  148.3330 C   0  0  0  0  0  3  0  0  0  0  0  0
  162.5710  210.8750  148.7140 C   0  0  0  0  0  2  0  0  0  0  0  0
  161.0710  212.7740  149.3690 C   0  0  0  0  0  1  0  0  0  0  0  0
  161.4380  211.7900  148.2690 C   0  0  1  0  0  3  0  0  0  0  0  0
  163.0190  212.8890  146.8590 O   0  0  0  0  0  0  0  0  0  0  0  0
  161.8220  212.5250  147.0220 C   0  0  0  0  0  0  0  0  0  0  0  0
  161.1270  212.7800  144.7780 O   0  0  0  0  0  0  0  0  0  0  0  0
  160.7920  212.8070  145.9920 C   0  0  0  0  0  0  0  0  0  0  0  0
  158.4010  212.5200  145.7830 C   0  0  0  0  0  3  0  0  0  0  0  0
  159.4250  213.1120  146.3090 N   0  0  0  0  0  0  0  0  0  0  0  0
  157.0190  212.9100  146.1780 C   0  0  0  0  0  2  0  0  0  0  0  0
  157.0060  213.4250  147.6030 C   0  0  0  0  0  1  0  0  0  0  0  0
  1  6  1  0  0  0  0
  1  9  1  0  0  0  0
  2  5  1  0  0  0  0
  3  2  1  0  0  0  0
  3  7  1  0  0  0  0
  5 16  2  0  0  0  0
  5 14  1  0  0  0  0
  7  4  1  0  0  0  0
  8 12  2  0  0  0  0
 10 18  2  0  0  0  0
 10 19  1  0  0  0  0
 11  4  2  0  0  0  0
 12 16  1  0  0  0  0
 13  8  1  0  0  0  0
 13  2  2  0  0  0  0
 14  1  2  0  0  0  0
 15 11  1  0  0  0  0
 16 17  1  0  0  0  0
 17  6  2  0  0  0  0
 18 13  1  0  0  0  0
 19  3  2  0  0  0  0
 20 19  1  0  0  0  0
 20 15  2  0  0  0  0
 21  8  1  0  0  0  0
 23 21  1  0  0  0  0
 23 22  1  1  0  0  0
 24 25  2  0  0  0  0
 25 23  1  0  0  0  0
 26 27  2  0  0  0  0
 27 29  1  0  0  0  0
 27 25  1  0  0  0  0
 28 30  1  0  0  0  0
 28 29  2  0  0  0  0
 30 31  1  0  0  0  0
M  END
>  <MODEL>
3

>  <REMARK>
 VINA RESULT:      -8.3      1.728      2.342
  Name = 
  6 active torsions:
  status: ('A' for Active; 'I' for Inactive)
    1  A    between atoms: C_1  and  C_11
    2  A    between atoms: C_9  and  C_22
    3  A    between atoms: C_9  and  C_23
    4  A    between atoms: C_15  and  C_23
    5  A    between atoms: C_19  and  C_22
    6  A    between atoms: C_19  and  N_24
                            x       y       z     vdW  Elec       q    Type
                         _______ _______ _______ _____ _____    ______ ____

>  <TORSDO>
F 6

$$$$
=
 OpenBabel11052422233D

 31 34  0  0  1  0  0  0  0  0999 V2000
  161.9980  209.8610  149.4100 C   0  0  0  0  0  0  0  0  0  0  0  0
  161.1160  207.7290  152.3870 C   0  0  0  0  0  0  0  0  0  0  0  0
  161.0240  208.6040  153.5160 C   0  0  0  0  0  0  0  0  0  0  0  0
  162.2290  210.6890  154.0850 C   0  0  0  0  0  3  0  0  0  0  0  0
  161.4200  208.1520  151.0570 C   0  0  0  0  0  0  0  0  0  0  0  0
  162.0270  208.8990  148.4020 C   0  0  0  0  0  3  0  0  0  0  0  0
  161.0630  210.0960  153.3710 C   0  0  0  0  0  2  0  0  0  0  0  0
  160.9410  205.4400  151.5360 C   0  0  0  0  0  0  0  0  0  0  0  0
  162.3340  211.5370  149.0330 Cl  0  0  0  0  0  0  0  0  0  0  0  0
  160.5410  206.7010  154.9290 C   0  0  0  0  0  3  0  0  0  0  0  0
  162.3440  210.6590  155.4100 C   0  0  0  0  0  3  0  0  0  0  0  0
  161.2250  205.8800  150.2860 N   0  0  0  0  0  0  0  0  0  0  0  0
  160.8860  206.3440  152.6070 C   0  0  0  0  0  0  0  0  0  0  0  0
  161.6990  209.4890  150.7220 C   0  0  0  0  0  3  0  0  0  0  0  0
  161.3990  209.9790  156.3150 C   0  0  0  0  0  3  0  0  0  0  0  0
  161.4630  207.1860  150.0190 C   0  0  0  0  0  0  0  0  0  0  0  0
  161.7610  207.5640  148.7070 C   0  0  0  0  0  3  0  0  0  0  0  0
  160.6000  205.8850  153.8530 N   0  0  0  0  0  0  0  0  0  0  0  0
  160.7680  208.0650  154.7980 C   0  0  0  0  0  0  0  0  0  0  0  0
  160.7110  208.8630  156.0420 C   0  0  0  0  0  3  0  0  0  0  0  0
  160.7110  203.9760  151.7480 C   0  0  0  0  0  2  0  0  0  0  0  0
  162.3400  202.0790  151.5660 C   0  0  0  0  0  1  0  0  0  0  0  0
  161.5730  203.1470  150.8050 C   0  0  1  0  0  3  0  0  0  0  0  0
  159.6560  201.9340  150.0650 O   0  0  0  0  0  0  0  0  0  0  0  0
  160.7250  202.5210  149.7410 C   0  0  0  0  0  0  0  0  0  0  0  0
  161.2170  201.5430  147.6470 O   0  0  0  0  0  0  0  0  0  0  0  0
  161.1500  202.6050  148.3220 C   0  0  0  0  0  0  0  0  0  0  0  0
  161.4810  204.0230  146.3930 C   0  0  0  0  0  3  0  0  0  0  0  0
  161.4900  203.8400  147.6740 N   0  0  0  0  0  0  0  0  0  0  0  0
  161.8530  205.3460  145.8170 C   0  0  0  0  0  2  0  0  0  0  0  0
  160.6090  206.1010  145.3930 C   0  0  0  0  0  1  0  0  0  0  0  0
  1 14  1  0  0  0  0
  2 13  2  0  0  0  0
  2  3  1  0  0  0  0
  3 19  2  0  0  0  0
  4 11  2  0  0  0  0
  5  2  1  0  0  0  0
  6 17  1  0  0  0  0
  6  1  2  0  0  0  0
  7  3  1  0  0  0  0
  7  4  1  0  0  0  0
  8 21  1  0  0  0  0
  8 13  1  0  0  0  0
  9  1  1  0  0  0  0
 11 15  1  0  0  0  0
 12  8  2  0  0  0  0
 13 18  1  0  0  0  0
 14  5  2  0  0  0  0
 16 12  1  0  0  0  0
 16  5  1  0  0  0  0
 17 16  2  0  0  0  0
 18 10  2  0  0  0  0
 19 10  1  0  0  0  0
 19 20  1  0  0  0  0
 20 15  2  0  0  0  0
 23 22  1  1  0  0  0
 23 21  1  0  0  0  0
 25 24  2  0  0  0  0
 25 23  1  0  0  0  0
 26 27  2  0  0  0  0
 27 25  1  0  0  0  0
 28 29  2  0  0  0  0
 29 27  1  0  0  0  0
 30 28  1  0  0  0  0
 31 30  1  0  0  0  0
M  END
>  <MODEL>
4

>  <REMARK>
 VINA RESULT:      -7.9      4.089      7.735
  Name = 
  6 active torsions:
  status: ('A' for Active; 'I' for Inactive)
    1  A    between atoms: C_1  and  C_11
    2  A    between atoms: C_9  and  C_22
    3  A    between atoms: C_9  and  C_23
    4  A    between atoms: C_15  and  C_23
    5  A    between atoms: C_19  and  C_22
    6  A    between atoms: C_19  and  N_24
                            x       y       z     vdW  Elec       q    Type
                         _______ _______ _______ _____ _____    ______ ____

>  <TORSDO>
F 6

$$$$
=
 OpenBabel11052422233D

 31 34  0  0  1  0  0  0  0  0999 V2000
  160.8710  202.4180  151.0290 C   0  0  0  0  0  0  0  0  0  0  0  0
  161.2600  205.7580  149.3320 C   0  0  0  0  0  0  0  0  0  0  0  0
  161.2070  205.5210  147.9220 C   0  0  0  0  0  0  0  0  0  0  0  0
  161.9380  203.5970  146.5490 C   0  0  0  0  0  3  0  0  0  0  0  0
  161.1370  204.7440  150.3300 C   0  0  0  0  0  0  0  0  0  0  0  0
  160.9140  202.8010  152.3680 C   0  0  0  0  0  3  0  0  0  0  0  0
  160.8310  204.1850  147.3550 C   0  0  0  0  0  2  0  0  0  0  0  0
  161.4860  207.3980  151.1380 C   0  0  0  0  0  0  0  0  0  0  0  0
  160.6750  200.7320  150.6040 Cl  0  0  0  0  0  0  0  0  0  0  0  0
  161.5580  207.8810  147.5290 C   0  0  0  0  0  3  0  0  0  0  0  0
  162.3550  204.1390  145.4070 C   0  0  0  0  0  3  0  0  0  0  0  0
  161.3570  206.4090  152.0550 N   0  0  0  0  0  0  0  0  0  0  0  0
  161.4460  207.0990  149.7680 C   0  0  0  0  0  0  0  0  0  0  0  0
  160.9820  203.3810  150.0230 C   0  0  0  0  0  3  0  0  0  0  0  0
  161.8440  205.4040  144.8490 C   0  0  0  0  0  3  0  0  0  0  0  0
  161.1880  205.1130  151.6990 C   0  0  0  0  0  0  0  0  0  0  0  0
  161.0730  204.1450  152.7020 C   0  0  0  0  0  3  0  0  0  0  0  0
  161.5770  208.1030  148.8630 N   0  0  0  0  0  0  0  0  0  0  0  0
  161.3950  206.5970  147.0250 C   0  0  0  0  0  0  0  0  0  0  0  0
  161.4200  206.4620  145.5520 C   0  0  0  0  0  3  0  0  0  0  0  0
  161.6900  208.8010  151.6170 C   0  0  0  0  0  2  0  0  0  0  0  0
  160.8310  208.7860  153.9720 C   0  0  0  0  0  1  0  0  0  0  0  0
  160.5600  209.2290  152.5430 C   0  0  1  0  0  3  0  0  0  0  0  0
  160.8320  211.3590  151.5040 O   0  0  0  0  0  0  0  0  0  0  0  0
  160.3730  210.7140  152.4860 C   0  0  0  0  0  0  0  0  0  0  0  0
  160.3110  211.9430  154.5020 O   0  0  0  0  0  0  0  0  0  0  0  0
  159.6460  211.4040  153.5790 C   0  0  0  0  0  0  0  0  0  0  0  0
  157.5280  211.5450  154.7360 C   0  0  0  0  0  3  0  0  0  0  0  0
  158.2130  211.4890  153.6390 N   0  0  0  0  0  0  0  0  0  0  0  0
  156.0410  211.6310  154.6930 C   0  0  0  0  0  2  0  0  0  0  0  0
  155.4270  210.3280  155.1650 C   0  0  0  0  0  1  0  0  0  0  0  0
  1  6  1  0  0  0  0
  2 13  2  0  0  0  0
  2  5  1  0  0  0  0
  3  2  1  0  0  0  0
  4  7  1  0  0  0  0
  5 16  2  0  0  0  0
  6 17  2  0  0  0  0
  7  3  1  0  0  0  0
  8 21  1  0  0  0  0
  8 12  2  0  0  0  0
  9  1  1  0  0  0  0
 10 18  2  0  0  0  0
 11  4  2  0  0  0  0
 13  8  1  0  0  0  0
 14  5  1  0  0  0  0
 14  1  2  0  0  0  0
 15 11  1  0  0  0  0
 15 20  2  0  0  0  0
 16 12  1  0  0  0  0
 16 17  1  0  0  0  0
 18 13  1  0  0  0  0
 19 10  1  0  0  0  0
 19  3  2  0  0  0  0
 20 19  1  0  0  0  0
 21 23  1  0  0  0  0
 23 22  1  1  0  0  0
 24 25  2  0  0  0  0
 25 23  1  0  0  0  0
 25 27  1  0  0  0  0
 27 29  1  0  0  0  0
 27 26  2  0  0  0  0
 29 28  2  0  0  0  0
 30 28  1  0  0  0  0
 30 31  1  0  0  0  0
M  END
>  <MODEL>
5

>  <REMARK>
 VINA RESULT:      -7.4      2.897      4.774
  Name = 
  6 active torsions:
  status: ('A' for Active; 'I' for Inactive)
    1  A    between atoms: C_1  and  C_11
    2  A    between atoms: C_9  and  C_22
    3  A    between atoms: C_9  and  C_23
    4  A    between atoms: C_15  and  C_23
    5  A    between atoms: C_19  and  C_22
    6  A    between atoms: C_19  and  N_24
                            x       y       z     vdW  Elec       q    Type
                         _______ _______ _______ _____ _____    ______ ____

>  <TORSDO>
F 6

$$$$
=
 OpenBabel11052422233D

 31 34  0  0  1  0  0  0  0  0999 V2000
  161.1280  204.7860  149.3770 C   0  0  0  0  0  0  0  0  0  0  0  0
  161.7250  208.1320  151.0010 C   0  0  0  0  0  0  0  0  0  0  0  0
  161.6670  207.9280  152.4160 C   0  0  0  0  0  0  0  0  0  0  0  0
  160.3520  206.3520  153.7980 C   0  0  0  0  0  3  0  0  0  0  0  0
  161.5620  207.1010  150.0250 C   0  0  0  0  0  0  0  0  0  0  0  0
  161.2380  205.1280  148.0310 C   0  0  0  0  0  3  0  0  0  0  0  0
  161.6060  206.5560  153.0180 C   0  0  0  0  0  2  0  0  0  0  0  0
  162.0540  209.7140  149.1600 C   0  0  0  0  0  0  0  0  0  0  0  0
  160.7930  203.1310  149.8370 Cl  0  0  0  0  0  0  0  0  0  0  0  0
  162.0380  210.2930  152.7550 C   0  0  0  0  0  3  0  0  0  0  0  0
  160.0900  207.0250  154.9160 C   0  0  0  0  0  3  0  0  0  0  0  0
  161.9010  208.7080  148.2650 N   0  0  0  0  0  0  0  0  0  0  0  0
  161.9660  209.4540  150.5350 C   0  0  0  0  0  0  0  0  0  0  0  0
  161.2880  205.7640  150.3610 C   0  0  0  0  0  3  0  0  0  0  0  0
  160.9450  208.0910  155.4680 C   0  0  0  0  0  3  0  0  0  0  0  0
  161.6600  207.4320  148.6490 C   0  0  0  0  0  0  0  0  0  0  0  0
  161.5020  206.4490  147.6680 C   0  0  0  0  0  3  0  0  0  0  0  0
  162.1220  210.4740  151.4180 N   0  0  0  0  0  0  0  0  0  0  0  0
  161.7910  209.0340  153.2870 C   0  0  0  0  0  0  0  0  0  0  0  0
  161.6870  208.9520  154.7600 C   0  0  0  0  0  3  0  0  0  0  0  0
  162.2980  211.1000  148.6500 C   0  0  0  0  0  2  0  0  0  0  0  0
  160.7920  212.9650  149.3860 C   0  0  0  0  0  1  0  0  0  0  0  0
  160.9820  211.8250  148.3980 C   0  0  1  0  0  3  0  0  0  0  0  0
  161.9730  212.8350  146.4770 O   0  0  0  0  0  0  0  0  0  0  0  0
  160.9330  212.3410  146.9930 C   0  0  0  0  0  0  0  0  0  0  0  0
  159.7070  211.8550  145.0330 O   0  0  0  0  0  0  0  0  0  0  0  0
  159.6660  212.2580  146.2260 C   0  0  0  0  0  0  0  0  0  0  0  0
  158.0290  213.8230  147.0700 C   0  0  0  0  0  3  0  0  0  0  0  0
  158.3880  212.6150  146.7760 N   0  0  0  0  0  0  0  0  0  0  0  0
  156.6780  214.0900  147.6390 C   0  0  0  0  0  2  0  0  0  0  0  0
  156.5960  213.5730  149.0610 C   0  0  0  0  0  1  0  0  0  0  0  0
  1  9  1  0  0  0  0
  1 14  1  0  0  0  0
  2  3  1  0  0  0  0
  3  7  1  0  0  0  0
  3 19  2  0  0  0  0
  4 11  2  0  0  0  0
  5 14  2  0  0  0  0
  5  2  1  0  0  0  0
  6  1  2  0  0  0  0
  7  4  1  0  0  0  0
  8 13  1  0  0  0  0
 10 19  1  0  0  0  0
 11 15  1  0  0  0  0
 12 16  1  0  0  0  0
 12  8  2  0  0  0  0
 13  2  2  0  0  0  0
 13 18  1  0  0  0  0
 16  5  1  0  0  0  0
 17  6  1  0  0  0  0
 17 16  2  0  0  0  0
 18 10  2  0  0  0  0
 19 20  1  0  0  0  0
 20 15  2  0  0  0  0
 21  8  1  0  0  0  0
 23 21  1  0  0  0  0
 23 22  1  1  0  0  0
 24 25  2  0  0  0  0
 25 23  1  0  0  0  0
 26 27  2  0  0  0  0
 27 29  1  0  0  0  0
 27 25  1  0  0  0  0
 28 30  1  0  0  0  0
 29 28  2  0  0  0  0
 30 31  1  0  0  0  0
M  END
>  <MODEL>
6

>  <REMARK>
 VINA RESULT:      -7.4      2.200      4.481
  Name = 
  6 active torsions:
  status: ('A' for Active; 'I' for Inactive)
    1  A    between atoms: C_1  and  C_11
    2  A    between atoms: C_9  and  C_22
    3  A    between atoms: C_9  and  C_23
    4  A    between atoms: C_15  and  C_23
    5  A    between atoms: C_19  and  C_22
    6  A    between atoms: C_19  and  N_24
                            x       y       z     vdW  Elec       q    Type
                         _______ _______ _______ _____ _____    ______ ____

>  <TORSDO>
F 6

$$$$
=
 OpenBabel11052422233D

 31 34  0  0  1  0  0  0  0  0999 V2000
  159.9100  209.3500  156.1240 C   0  0  0  0  0  0  0  0  0  0  0  0
  161.2010  208.8570  152.6200 C   0  0  0  0  0  0  0  0  0  0  0  0
  161.2710  210.1510  152.0130 C   0  0  0  0  0  0  0  0  0  0  0  0
  159.8890  212.1820  152.3060 C   0  0  0  0  0  3  0  0  0  0  0  0
  160.7700  208.6120  153.9600 C   0  0  0  0  0  0  0  0  0  0  0  0
  159.9200  208.0380  156.5910 C   0  0  0  0  0  3  0  0  0  0  0  0
  161.0640  211.4110  152.8010 C   0  0  0  0  0  2  0  0  0  0  0  0
  161.5650  206.4470  152.3800 C   0  0  0  0  0  0  0  0  0  0  0  0
  159.3730  210.6490  157.1680 Cl  0  0  0  0  0  0  0  0  0  0  0  0
  162.0430  209.1280  149.9620 C   0  0  0  0  0  3  0  0  0  0  0  0
  159.8610  212.7470  151.1010 C   0  0  0  0  0  3  0  0  0  0  0  0
  161.1570  206.2560  153.6580 N   0  0  0  0  0  0  0  0  0  0  0  0
  161.5920  207.7390  151.8340 C   0  0  0  0  0  0  0  0  0  0  0  0
  160.3290  209.6320  154.8220 C   0  0  0  0  0  3  0  0  0  0  0  0
  160.9290  212.6130  150.0940 C   0  0  0  0  0  3  0  0  0  0  0  0
  160.7640  207.2810  154.4500 C   0  0  0  0  0  0  0  0  0  0  0  0
  160.3450  207.0050  155.7550 C   0  0  0  0  0  3  0  0  0  0  0  0
  162.0030  207.9120  150.5510 N   0  0  0  0  0  0  0  0  0  0  0  0
  161.6630  210.2680  150.6600 C   0  0  0  0  0  0  0  0  0  0  0  0
  161.7140  211.5430  149.9120 C   0  0  0  0  0  3  0  0  0  0  0  0
  161.9640  205.2560  151.5650 C   0  0  0  0  0  2  0  0  0  0  0  0
  160.2800  205.3660  149.7110 C   0  0  0  0  0  1  0  0  0  0  0  0
  160.7440  204.5950  150.9360 C   0  0  1  0  0  3  0  0  0  0  0  0
  161.4810  202.3870  151.4590 O   0  0  0  0  0  0  0  0  0  0  0  0
  161.0500  203.1760  150.5730 C   0  0  0  0  0  0  0  0  0  0  0  0
  159.9700  201.8270  148.9620 O   0  0  0  0  0  0  0  0  0  0  0  0
  160.8370  202.7140  149.1790 C   0  0  0  0  0  0  0  0  0  0  0  0
  161.1300  203.2610  146.8430 C   0  0  0  0  0  3  0  0  0  0  0  0
  161.5730  203.2280  148.0590 N   0  0  0  0  0  0  0  0  0  0  0  0
  161.9730  203.8150  145.7470 C   0  0  0  0  0  2  0  0  0  0  0  0
  161.1130  204.5710  144.7540 C   0  0  0  0  0  1  0  0  0  0  0  0
  1  6  1  0  0  0  0
  1  9  1  0  0  0  0
  2  5  1  0  0  0  0
  3  2  1  0  0  0  0
  3  7  1  0  0  0  0
  4  7  1  0  0  0  0
  5 16  2  0  0  0  0
  5 14  1  0  0  0  0
  8 12  2  0  0  0  0
 10 18  2  0  0  0  0
 10 19  1  0  0  0  0
 11  4  2  0  0  0  0
 12 16  1  0  0  0  0
 13  8  1  0  0  0  0
 13  2  2  0  0  0  0
 14  1  2  0  0  0  0
 15 11  1  0  0  0  0
 16 17  1  0  0  0  0
 17  6  2  0  0  0  0
 18 13  1  0  0  0  0
 19  3  2  0  0  0  0
 20 15  2  0  0  0  0
 20 19  1  0  0  0  0
 21  8  1  0  0  0  0
 23 22  1  6  0  0  0
 23 21  1  0  0  0  0
 25 23  1  0  0  0  0
 25 24  2  0  0  0  0
 26 27  2  0  0  0  0
 27 25  1  0  0  0  0
 28 29  2  0  0  0  0
 29 27  1  0  0  0  0
 30 28  1  0  0  0  0
 31 30  1  0  0  0  0
M  END
>  <MODEL>
7

>  <REMARK>
 VINA RESULT:      -7.4      3.423      7.355
  Name = 
  6 active torsions:
  status: ('A' for Active; 'I' for Inactive)
    1  A    between atoms: C_1  and  C_11
    2  A    between atoms: C_9  and  C_22
    3  A    between atoms: C_9  and  C_23
    4  A    between atoms: C_15  and  C_23
    5  A    between atoms: C_19  and  C_22
    6  A    between atoms: C_19  and  N_24
                            x       y       z     vdW  Elec       q    Type
                         _______ _______ _______ _____ _____    ______ ____

>  <TORSDO>
F 6

$$$$
=
 OpenBabel11052422233D

 31 34  0  0  1  0  0  0  0  0999 V2000
  161.9870  210.6540  149.2880 C   0  0  0  0  0  0  0  0  0  0  0  0
  161.5500  207.1110  150.4900 C   0  0  0  0  0  0  0  0  0  0  0  0
  161.6830  206.2610  149.3460 C   0  0  0  0  0  0  0  0  0  0  0  0
  161.1010  206.6020  146.9660 C   0  0  0  0  0  3  0  0  0  0  0  0
  161.6630  208.5340  150.4600 C   0  0  0  0  0  0  0  0  0  0  0  0
  161.8610  211.3510  150.4880 C   0  0  0  0  0  3  0  0  0  0  0  0
  162.1410  206.7830  148.0170 C   0  0  0  0  0  2  0  0  0  0  0  0
  161.1670  207.2710  152.9040 C   0  0  0  0  0  0  0  0  0  0  0  0
  162.2720  211.5200  147.7950 Cl  0  0  0  0  0  0  0  0  0  0  0  0
  161.2580  204.3360  150.7480 C   0  0  0  0  0  3  0  0  0  0  0  0
  160.7210  205.4000  146.5380 C   0  0  0  0  0  3  0  0  0  0  0  0
  161.2900  208.6180  152.8360 N   0  0  0  0  0  0  0  0  0  0  0  0
  161.2880  206.4920  151.7430 C   0  0  0  0  0  0  0  0  0  0  0  0
  161.8880  209.2610  149.2770 C   0  0  0  0  0  3  0  0  0  0  0  0
  161.2070  204.1240  147.0940 C   0  0  0  0  0  3  0  0  0  0  0  0
  161.5280  209.2630  151.6690 C   0  0  0  0  0  0  0  0  0  0  0  0
  161.6310  210.6570  151.6750 C   0  0  0  0  0  3  0  0  0  0  0  0
  161.1630  205.1430  151.8290 N   0  0  0  0  0  0  0  0  0  0  0  0
  161.4980  204.8670  149.4870 C   0  0  0  0  0  0  0  0  0  0  0  0
  161.5520  203.9000  148.3680 C   0  0  0  0  0  3  0  0  0  0  0  0
  160.8830  206.6390  154.2310 C   0  0  0  0  0  2  0  0  0  0  0  0
  159.2500  206.9170  156.1130 C   0  0  0  0  0  1  0  0  0  0  0  0
  160.2060  207.6290  155.1700 C   0  0  1  0  0  3  0  0  0  0  0  0
  162.1260  207.7660  156.5790 O   0  0  0  0  0  0  0  0  0  0  0  0
  161.2320  208.3940  155.9480 C   0  0  0  0  0  0  0  0  0  0  0  0
  162.1260  210.5050  156.5170 O   0  0  0  0  0  0  0  0  0  0  0  0
  161.1870  209.8760  155.9610 C   0  0  0  0  0  0  0  0  0  0  0  0
  160.2670  211.8020  154.8240 C   0  0  0  0  0  3  0  0  0  0  0  0
  160.1220  210.6360  155.3690 N   0  0  0  0  0  0  0  0  0  0  0  0
  159.0970  212.5120  154.2370 C   0  0  0  0  0  2  0  0  0  0  0  0
  158.4650  211.6690  153.1480 C   0  0  0  0  0  1  0  0  0  0  0  0
  1  6  1  0  0  0  0
  2 13  1  0  0  0  0
  3 19  2  0  0  0  0
  3  2  1  0  0  0  0
  4  7  1  0  0  0  0
  5  2  2  0  0  0  0
  5 16  1  0  0  0  0
  6 17  2  0  0  0  0
  7  3  1  0  0  0  0
  8 21  1  0  0  0  0
  9  1  1  0  0  0  0
 10 18  2  0  0  0  0
 11  4  2  0  0  0  0
 11 15  1  0  0  0  0
 12  8  1  0  0  0  0
 13 18  1  0  0  0  0
 13  8  2  0  0  0  0
 14  1  2  0  0  0  0
 14  5  1  0  0  0  0
 15 20  2  0  0  0  0
 16 17  1  0  0  0  0
 16 12  2  0  0  0  0
 19 10  1  0  0  0  0
 20 19  1  0  0  0  0
 21 23  1  0  0  0  0
 23 25  1  0  0  0  0
 23 22  1  1  0  0  0
 25 27  1  0  0  0  0
 25 24  2  0  0  0  0
 27 26  2  0  0  0  0
 28 29  2  0  0  0  0
 29 27  1  0  0  0  0
 30 28  1  0  0  0  0
 31 30  1  0  0  0  0
M  END
>  <MODEL>
8

>  <REMARK>
 VINA RESULT:      -7.3      3.495      5.454
  Name = 
  6 active torsions:
  status: ('A' for Active; 'I' for Inactive)
    1  A    between atoms: C_1  and  C_11
    2  A    between atoms: C_9  and  C_22
    3  A    between atoms: C_9  and  C_23
    4  A    between atoms: C_15  and  C_23
    5  A    between atoms: C_19  and  C_22
    6  A    between atoms: C_19  and  N_24
                            x       y       z     vdW  Elec       q    Type
                         _______ _______ _______ _____ _____    ______ ____

>  <TORSDO>
F 6

$$$$
=
 OpenBabel11052422233D

 31 34  0  0  1  0  0  0  0  0999 V2000
  161.1410  205.0080  149.5610 C   0  0  0  0  0  0  0  0  0  0  0  0
  161.7040  208.2770  151.3460 C   0  0  0  0  0  0  0  0  0  0  0  0
  161.6130  208.0090  152.7490 C   0  0  0  0  0  0  0  0  0  0  0  0
  160.2660  206.3760  154.0290 C   0  0  0  0  0  3  0  0  0  0  0  0
  161.5610  207.2910  150.3220 C   0  0  0  0  0  0  0  0  0  0  0  0
  161.2820  205.4100  148.2340 C   0  0  0  0  0  3  0  0  0  0  0  0
  161.5370  206.6120  153.2880 C   0  0  0  0  0  2  0  0  0  0  0  0
  162.0750  209.9390  149.5860 C   0  0  0  0  0  0  0  0  0  0  0  0
  160.7940  203.3350  149.9390 Cl  0  0  0  0  0  0  0  0  0  0  0  0
  161.9780  210.3570  153.2020 C   0  0  0  0  0  3  0  0  0  0  0  0
  159.9790  206.9980  155.1690 C   0  0  0  0  0  3  0  0  0  0  0  0
  161.9420  208.9740  148.6440 N   0  0  0  0  0  0  0  0  0  0  0  0
  161.9550  209.6170  150.9460 C   0  0  0  0  0  0  0  0  0  0  0  0
  161.2790  205.9400  150.5910 C   0  0  0  0  0  3  0  0  0  0  0  0
  160.8220  208.0370  155.7880 C   0  0  0  0  0  3  0  0  0  0  0  0
  161.6920  207.6820  148.9650 C   0  0  0  0  0  0  0  0  0  0  0  0
  161.5550  206.7440  147.9370 C   0  0  0  0  0  3  0  0  0  0  0  0
  162.0920  210.5970  151.8770 N   0  0  0  0  0  0  0  0  0  0  0  0
  161.7180  209.0750  153.6710 C   0  0  0  0  0  0  0  0  0  0  0  0
  161.5810  208.9280  155.1370 C   0  0  0  0  0  3  0  0  0  0  0  0
  162.3310  211.3460  149.1440 C   0  0  0  0  0  2  0  0  0  0  0  0
  160.5250  213.0600  149.4360 C   0  0  0  0  0  1  0  0  0  0  0  0
  161.0760  211.9620  148.5400 C   0  0  1  0  0  3  0  0  0  0  0  0
  162.5110  212.9750  146.9250 O   0  0  0  0  0  0  0  0  0  0  0  0
  161.3670  212.5030  147.1740 C   0  0  0  0  0  0  0  0  0  0  0  0
  159.1090  212.3660  146.4930 O   0  0  0  0  0  0  0  0  0  0  0  0
  160.3120  212.4700  146.1330 C   0  0  0  0  0  0  0  0  0  0  0  0
  159.7620  212.2100  143.7930 C   0  0  0  0  0  3  0  0  0  0  0  0
  160.5910  212.5510  144.7270 N   0  0  0  0  0  0  0  0  0  0  0  0
  160.1480  212.3310  142.3600 C   0  0  0  0  0  2  0  0  0  0  0  0
  161.6540  212.2490  142.2140 C   0  0  0  0  0  1  0  0  0  0  0  0
  1  9  1  0  0  0  0
  1 14  1  0  0  0  0
  2  3  1  0  0  0  0
  3  7  1  0  0  0  0
  3 19  2  0  0  0  0
  4 11  2  0  0  0  0
  5 14  2  0  0  0  0
  5  2  1  0  0  0  0
  6  1  2  0  0  0  0
  7  4  1  0  0  0  0
  8 13  1  0  0  0  0
 10 19  1  0  0  0  0
 11 15  1  0  0  0  0
 12 16  1  0  0  0  0
 12  8  2  0  0  0  0
 13  2  2  0  0  0  0
 13 18  1  0  0  0  0
 16  5  1  0  0  0  0
 17  6  1  0  0  0  0
 17 16  2  0  0  0  0
 18 10  2  0  0  0  0
 19 20  1  0  0  0  0
 20 15  2  0  0  0  0
 21  8  1  0  0  0  0
 23 21  1  0  0  0  0
 23 22  1  1  0  0  0
 24 25  2  0  0  0  0
 25 23  1  0  0  0  0
 27 26  2  0  0  0  0
 27 25  1  0  0  0  0
 28 29  2  0  0  0  0
 29 27  1  0  0  0  0
 30 28  1  0  0  0  0
 31 30  1  0  0  0  0
M  END
>  <MODEL>
9

>  <REMARK>
 VINA RESULT:      -7.2      2.600      5.235
  Name = 
  6 active torsions:
  status: ('A' for Active; 'I' for Inactive)
    1  A    between atoms: C_1  and  C_11
    2  A    between atoms: C_9  and  C_22
    3  A    between atoms: C_9  and  C_23
    4  A    between atoms: C_15  and  C_23
    5  A    between atoms: C_19  and  C_22
    6  A    between atoms: C_19  and  N_24
                            x       y       z     vdW  Elec       q    Type
                         _______ _______ _______ _____ _____    ______ ____

>  <TORSDO>
F 6

$$$$
