=
 OpenBabel11062407443D

 34 39  0  0  1  0  0  0  0  0999 V2000
  160.0290  212.1290  152.1540 C   0  0  1  0  0  3  0  0  0  0  0  0
  161.6750  210.7970  150.8010 C   0  0  1  0  0  3  0  0  0  0  0  0
  160.6130  209.9000  152.9040 C   0  0  1  0  0  3  0  0  0  0  0  0
  159.9280  207.1600  154.3280 C   0  0  0  0  0  2  0  0  0  0  0  0
  158.3010  213.3460  152.2530 C   0  0  0  0  0  2  0  0  0  0  0  0
  161.5040  211.5900  149.6670 O   0  0  0  0  0  1  0  0  0  0  0  0
  162.2620  208.5260  151.6090 C   0  0  0  0  0  2  0  0  0  0  0  0
  160.3920  210.7640  151.6290 C   0  0  1  0  0  3  0  0  0  0  0  0
  161.2580  207.5310  153.7050 C   0  0  2  0  0  3  0  0  0  0  0  0
  159.5470  213.3240  151.3610 C   0  0  0  0  0  2  0  0  0  0  0  0
  159.4430  210.0260  153.9670 C   0  0  1  0  0  3  0  0  0  0  0  0
  158.6530  211.9410  152.6910 C   0  0  2  0  0  3  0  0  0  0  0  0
  162.0220  209.3810  150.3750 C   0  0  0  0  0  2  0  0  0  0  0  0
  159.6440  207.9920  155.5690 C   0  0  0  0  0  2  0  0  0  0  0  0
  159.7870  209.5000  155.3700 C   0  0  1  0  0  3  0  0  0  0  0  0
  161.0130  208.4650  152.5000 C   0  0  1  0  0  3  0  0  0  0  0  0
  158.8610  211.4590  154.1000 C   0  0  0  0  0  2  0  0  0  0  0  0
  162.2730  211.9430  156.9500 C   0  0  0  0  0  0  0  0  0  0  0  0
  163.3240  211.0740  157.2590 C   0  0  0  0  0  3  0  0  0  0  0  0
  160.9950  210.0730  156.0620 C   0  0  0  0  0  0  0  0  0  0  0  0
  163.2180  209.7160  156.9630 C   0  0  0  0  0  3  0  0  0  0  0  0
  161.1130  211.4430  156.3510 C   0  0  0  0  0  3  0  0  0  0  0  0
  162.0570  209.2150  156.3650 C   0  0  0  0  0  3  0  0  0  0  0  0
  162.3650  213.2580  157.2610 F   0  0  0  0  0  0  0  0  0  0  0  0
  161.9340  206.3000  153.3050 N   0  0  0  0  0  2  0  0  0  0  0  0
  160.9040  205.3770  152.8580 C   0  0  0  0  0  2  0  0  0  0  0  0
  161.5180  204.2500  152.0430 C   0  0  0  0  0  2  0  0  0  0  0  0
  160.0590  202.9390  149.8270 O   0  0  0  0  0  1  0  0  0  0  0  0
  161.6300  204.6160  150.5680 C   0  0  1  0  0  3  0  0  0  0  0  0
  161.3600  203.4150  149.6440 C   0  0  2  0  0  3  0  0  0  0  0  0
  161.4390  205.2820  147.8760 C   0  0  0  0  0  2  0  0  0  0  0  0
  160.3590  205.9100  148.7500 C   0  0  0  0  0  2  0  0  0  0  0  0
  160.7270  205.8190  150.2380 C   0  0  0  0  0  2  0  0  0  0  0  0
  161.5720  203.7790  148.1620 C   0  0  0  0  0  2  0  0  0  0  0  0
  1 10  1  6  0  0  0
  1 12  1  0  0  0  0
  2  6  1  6  0  0  0
  2  8  1  0  0  0  0
  3 11  1  0  0  0  0
  4 14  1  0  0  0  0
  5 12  1  0  0  0  0
  7 16  1  0  0  0  0
  8  1  1  0  0  0  0
  8  3  1  0  0  0  0
  9  4  1  0  0  0  0
 10  5  1  0  0  0  0
 11 17  1  0  0  0  0
 11 15  1  0  0  0  0
 12 17  1  0  0  0  0
 13  2  1  0  0  0  0
 13  7  1  0  0  0  0
 15 14  1  0  0  0  0
 15 20  1  0  0  0  0
 16  3  1  0  0  0  0
 16  9  1  0  0  0  0
 18 19  1  0  0  0  0
 18 24  1  0  0  0  0
 20 22  1  0  0  0  0
 20 23  2  0  0  0  0
 21 19  2  0  0  0  0
 22 18  2  0  0  0  0
 23 21  1  0  0  0  0
 25  9  1  0  0  0  0
 26 25  1  0  0  0  0
 27 26  1  0  0  0  0
 29 27  1  0  0  0  0
 30 28  1  0  0  0  0
 30 29  1  0  0  0  0
 31 34  1  0  0  0  0
 31 32  1  0  0  0  0
 32 33  1  0  0  0  0
 33 29  1  0  0  0  0
 34 30  1  0  0  0  0
M  END
>  <MODEL>
1

>  <REMARK>
 VINA RESULT:      -6.0      0.000      0.000
  Name = 
  5 active torsions:
  status: ('A' for Active; 'I' for Inactive)
    1  A    between atoms: C_3  and  C_13
    2  A    between atoms: C_3  and  C_17
    3  A    between atoms: C_12  and  C_28
    4  A    between atoms: C_17  and  N_29
    5  A    between atoms: C_18  and  N_29
                            x       y       z     vdW  Elec       q    Type
                         _______ _______ _______ _____ _____    ______ ____

>  <TORSDO>
F 5

$$$$
=
 OpenBabel11062407443D

 34 39  0  0  1  0  0  0  0  0999 V2000
  161.4440  212.8180  145.0780 C   0  0  1  0  0  3  0  0  0  0  0  0
  158.9610  212.4600  144.9430 C   0  0  1  0  0  3  0  0  0  0  0  0
  160.1200  213.0950  147.0890 C   0  0  1  0  0  3  0  0  0  0  0  0
  159.5320  214.4530  149.8840 C   0  0  0  0  0  2  0  0  0  0  0  0
  163.2130  213.6880  144.3090 C   0  0  0  0  0  2  0  0  0  0  0  0
  158.9380  212.6010  143.5550 O   0  0  0  0  0  1  0  0  0  0  0  0
  157.6410  212.7340  147.0250 C   0  0  0  0  0  2  0  0  0  0  0  0
  160.0920  213.2900  145.5460 C   0  0  1  0  0  3  0  0  0  0  0  0
  158.7030  213.3670  149.2300 C   0  0  2  0  0  3  0  0  0  0  0  0
  162.0320  212.9330  143.6890 C   0  0  0  0  0  2  0  0  0  0  0  0
  161.4200  213.6860  147.7790 C   0  0  1  0  0  3  0  0  0  0  0  0
  162.3680  213.8870  145.5480 C   0  0  2  0  0  3  0  0  0  0  0  0
  157.6390  212.9370  145.5180 C   0  0  0  0  0  2  0  0  0  0  0  0
  160.8940  213.9300  150.3120 C   0  0  0  0  0  2  0  0  0  0  0  0
  161.6660  213.1960  149.2150 C   0  0  1  0  0  3  0  0  0  0  0  0
  158.7690  213.5300  147.6960 C   0  0  1  0  0  3  0  0  0  0  0  0
  162.7210  213.4890  146.9550 C   0  0  0  0  0  2  0  0  0  0  0  0
  161.8930  209.7760  150.9170 C   0  0  0  0  0  0  0  0  0  0  0  0
  162.0180  208.9430  149.8020 C   0  0  0  0  0  3  0  0  0  0  0  0
  161.7510  211.7120  149.4500 C   0  0  0  0  0  0  0  0  0  0  0  0
  162.0210  209.4890  148.5190 C   0  0  0  0  0  3  0  0  0  0  0  0
  161.7620  211.1570  150.7410 C   0  0  0  0  0  3  0  0  0  0  0  0
  161.8890  210.8690  148.3420 C   0  0  0  0  0  3  0  0  0  0  0  0
  161.8640  209.2440  152.1630 F   0  0  0  0  0  0  0  0  0  0  0  0
  157.3340  213.4790  149.7250 N   0  0  0  0  0  2  0  0  0  0  0  0
  157.3760  214.3360  150.8980 C   0  0  0  0  0  2  0  0  0  0  0  0
  156.9480  213.5630  152.1360 C   0  0  0  0  0  2  0  0  0  0  0  0
  156.8180  212.3840  154.8470 O   0  0  0  0  0  1  0  0  0  0  0  0
  158.1460  213.1370  152.9760 C   0  0  1  0  0  3  0  0  0  0  0  0
  157.8670  213.2350  154.4870 C   0  0  2  0  0  3  0  0  0  0  0  0
  160.1340  212.0210  154.5670 C   0  0  0  0  0  2  0  0  0  0  0  0
  159.4280  211.0200  153.6610 C   0  0  0  0  0  2  0  0  0  0  0  0
  158.6260  211.7330  152.5630 C   0  0  0  0  0  2  0  0  0  0  0  0
  159.1180  212.8940  155.3190 C   0  0  0  0  0  2  0  0  0  0  0  0
  1 10  1  6  0  0  0
  1  8  1  0  0  0  0
  1 12  1  0  0  0  0
  2  6  1  6  0  0  0
  2 13  1  0  0  0  0
  2  8  1  0  0  0  0
  3 16  1  0  0  0  0
  3 11  1  0  0  0  0
  4 14  1  0  0  0  0
  5 12  1  0  0  0  0
  7 16  1  0  0  0  0
  8  3  1  0  0  0  0
  9 25  1  0  0  0  0
  9  4  1  0  0  0  0
 10  5  1  0  0  0  0
 11 15  1  0  0  0  0
 12 17  1  0  0  0  0
 13  7  1  0  0  0  0
 15 20  1  0  0  0  0
 15 14  1  0  0  0  0
 16  9  1  0  0  0  0
 17 11  1  0  0  0  0
 18 24  1  0  0  0  0
 19 18  2  0  0  0  0
 20 22  2  0  0  0  0
 21 19  1  0  0  0  0
 22 18  1  0  0  0  0
 23 21  2  0  0  0  0
 23 20  1  0  0  0  0
 25 26  1  0  0  0  0
 26 27  1  0  0  0  0
 27 29  1  0  0  0  0
 29 30  1  0  0  0  0
 30 28  1  0  0  0  0
 30 34  1  0  0  0  0
 31 34  1  0  0  0  0
 32 31  1  0  0  0  0
 33 29  1  0  0  0  0
 33 32  1  0  0  0  0
M  END
>  <MODEL>
2

>  <REMARK>
 VINA RESULT:      -5.6      4.422      8.276
  Name = 
  5 active torsions:
  status: ('A' for Active; 'I' for Inactive)
    1  A    between atoms: C_3  and  C_13
    2  A    between atoms: C_3  and  C_17
    3  A    between atoms: C_12  and  C_28
    4  A    between atoms: C_17  and  N_29
    5  A    between atoms: C_18  and  N_29
                            x       y       z     vdW  Elec       q    Type
                         _______ _______ _______ _____ _____    ______ ____

>  <TORSDO>
F 5

$$$$
=
 OpenBabel11062407443D

 34 39  0  0  1  0  0  0  0  0999 V2000
  161.4720  209.3300  155.7860 C   0  0  1  0  0  3  0  0  0  0  0  0
  160.5430  207.1160  155.0450 C   0  0  1  0  0  3  0  0  0  0  0  0
  161.3070  208.8770  153.4110 C   0  0  1  0  0  3  0  0  0  0  0  0
  162.3180  209.1800  150.4290 C   0  0  0  0  0  2  0  0  0  0  0  0
  162.7830  210.4450  157.0180 C   0  0  0  0  0  2  0  0  0  0  0  0
  160.7560  206.5220  156.2890 O   0  0  0  0  0  1  0  0  0  0  0  0
  160.3710  206.6950  152.6060 C   0  0  0  0  0  2  0  0  0  0  0  0
  161.5810  208.2060  154.7870 C   0  0  1  0  0  3  0  0  0  0  0  0
  161.1060  208.3910  150.8830 C   0  0  2  0  0  3  0  0  0  0  0  0
  161.8070  209.2880  157.2610 C   0  0  0  0  0  2  0  0  0  0  0  0
  162.1480  210.1990  153.1710 C   0  0  1  0  0  3  0  0  0  0  0  0
  162.7010  210.1350  155.5390 C   0  0  2  0  0  3  0  0  0  0  0  0
  160.6570  206.0610  153.9580 C   0  0  0  0  0  2  0  0  0  0  0  0
  162.1090  210.6750  150.6170 C   0  0  0  0  0  2  0  0  0  0  0  0
  161.6460  211.0820  152.0160 C   0  0  1  0  0  3  0  0  0  0  0  0
  161.3710  207.8160  152.2910 C   0  0  1  0  0  3  0  0  0  0  0  0
  162.3150  211.0820  154.4370 C   0  0  0  0  0  2  0  0  0  0  0  0
  158.4010  212.9740  151.2860 C   0  0  0  0  0  0  0  0  0  0  0  0
  157.5570  212.4150  152.2500 C   0  0  0  0  0  3  0  0  0  0  0  0
  160.2140  211.5420  152.0500 C   0  0  0  0  0  0  0  0  0  0  0  0
  158.0380  211.4340  153.1160 C   0  0  0  0  0  3  0  0  0  0  0  0
  159.7260  212.5390  151.1880 C   0  0  0  0  0  3  0  0  0  0  0  0
  159.3630  210.9980  153.0190 C   0  0  0  0  0  3  0  0  0  0  0  0
  157.9270  213.9080  150.4270 F   0  0  0  0  0  0  0  0  0  0  0  0
  160.8600  207.3350  149.9060 N   0  0  0  0  0  2  0  0  0  0  0  0
  162.1160  207.0930  149.2160 C   0  0  0  0  0  2  0  0  0  0  0  0
  161.8760  206.9090  147.7260 C   0  0  0  0  0  2  0  0  0  0  0  0
  163.4410  204.7910  146.3760 O   0  0  0  0  0  1  0  0  0  0  0  0
  161.3760  205.5070  147.4030 C   0  0  1  0  0  3  0  0  0  0  0  0
  162.0650  204.9090  146.1630 C   0  0  2  0  0  3  0  0  0  0  0  0
  160.8030  202.8200  146.9770 C   0  0  0  0  0  2  0  0  0  0  0  0
  161.5450  203.0980  148.2790 C   0  0  0  0  0  2  0  0  0  0  0  0
  161.5000  204.5910  148.6350 C   0  0  0  0  0  2  0  0  0  0  0  0
  161.4790  203.5320  145.7950 C   0  0  0  0  0  2  0  0  0  0  0  0
  1 10  1  1  0  0  0
  2  6  1  1  0  0  0
  3  8  1  0  0  0  0
  4 14  1  0  0  0  0
  4  9  1  0  0  0  0
  5 10  1  0  0  0  0
  7 13  1  0  0  0  0
  8  2  1  0  0  0  0
  8  1  1  0  0  0  0
  9 16  1  0  0  0  0
 11  3  1  0  0  0  0
 11 17  1  0  0  0  0
 12  1  1  0  0  0  0
 12  5  1  0  0  0  0
 13  2  1  0  0  0  0
 14 15  1  0  0  0  0
 15 20  1  0  0  0  0
 15 11  1  0  0  0  0
 16  7  1  0  0  0  0
 16  3  1  0  0  0  0
 17 12  1  0  0  0  0
 18 19  1  0  0  0  0
 19 21  2  0  0  0  0
 20 23  2  0  0  0  0
 22 18  2  0  0  0  0
 22 20  1  0  0  0  0
 23 21  1  0  0  0  0
 24 18  1  0  0  0  0
 25  9  1  0  0  0  0
 26 25  1  0  0  0  0
 27 26  1  0  0  0  0
 29 27  1  0  0  0  0
 29 33  1  0  0  0  0
 30 28  1  0  0  0  0
 30 29  1  0  0  0  0
 31 32  1  0  0  0  0
 32 33  1  0  0  0  0
 34 30  1  0  0  0  0
 34 31  1  0  0  0  0
M  END
>  <MODEL>
3

>  <REMARK>
 VINA RESULT:      -4.8      2.548      5.003
  Name = 
  5 active torsions:
  status: ('A' for Active; 'I' for Inactive)
    1  A    between atoms: C_3  and  C_13
    2  A    between atoms: C_3  and  C_17
    3  A    between atoms: C_12  and  C_28
    4  A    between atoms: C_17  and  N_29
    5  A    between atoms: C_18  and  N_29
                            x       y       z     vdW  Elec       q    Type
                         _______ _______ _______ _____ _____    ______ ____

>  <TORSDO>
F 5

$$$$
=
 OpenBabel11062407443D

 34 39  0  0  1  0  0  0  0  0999 V2000
  161.2090  209.6320  155.5930 C   0  0  1  0  0  3  0  0  0  0  0  0
  160.8470  208.9190  153.2110 C   0  0  1  0  0  3  0  0  0  0  0  0
  160.0360  211.1350  154.0970 C   0  0  1  0  0  3  0  0  0  0  0  0
  159.2370  214.0290  153.1010 C   0  0  0  0  0  2  0  0  0  0  0  0
  162.4930  209.8660  157.2590 C   0  0  0  0  0  2  0  0  0  0  0  0
  161.8430  207.9450  153.2700 O   0  0  0  0  0  1  0  0  0  0  0  0
  159.6260  210.4750  151.7140 C   0  0  0  0  0  2  0  0  0  0  0  0
  161.1730  210.0760  154.1530 C   0  0  1  0  0  3  0  0  0  0  0  0
  158.7690  212.7200  152.5000 C   0  0  2  0  0  3  0  0  0  0  0  0
  162.2310  208.7360  156.2570 C   0  0  0  0  0  2  0  0  0  0  0  0
  160.1370  212.2350  155.2360 C   0  0  1  0  0  3  0  0  0  0  0  0
  161.7890  210.8050  156.3040 C   0  0  2  0  0  3  0  0  0  0  0  0
  160.7480  209.4520  151.7930 C   0  0  0  0  0  2  0  0  0  0  0  0
  158.6600  214.2390  154.4930 C   0  0  0  0  0  2  0  0  0  0  0  0
  158.8580  213.0620  155.4470 C   0  0  1  0  0  3  0  0  0  0  0  0
  159.8830  211.6620  152.6540 C   0  0  1  0  0  3  0  0  0  0  0  0
  160.6070  211.6840  156.6090 C   0  0  0  0  0  2  0  0  0  0  0  0
  155.7750  210.8200  155.1060 C   0  0  0  0  0  0  0  0  0  0  0  0
  155.1430  211.0660  156.3280 C   0  0  0  0  0  3  0  0  0  0  0  0
  157.5800  212.3230  155.7420 C   0  0  0  0  0  0  0  0  0  0  0  0
  155.7180  211.9420  157.2480 C   0  0  0  0  0  3  0  0  0  0  0  0
  156.9890  211.4480  154.8140 C   0  0  0  0  0  3  0  0  0  0  0  0
  156.9320  212.5710  156.9570 C   0  0  0  0  0  3  0  0  0  0  0  0
  155.2310  209.9490  154.2230 F   0  0  0  0  0  0  0  0  0  0  0  0
  158.4400  212.9560  151.0970 N   0  0  0  0  0  2  0  0  0  0  0  0
  159.3050  214.0270  150.6320 C   0  0  0  0  0  2  0  0  0  0  0  0
  160.5300  213.4570  149.9360 C   0  0  0  0  0  2  0  0  0  0  0  0
  161.6670  211.7080  147.8370 O   0  0  0  0  0  1  0  0  0  0  0  0
  160.5110  213.7400  148.4390 C   0  0  1  0  0  3  0  0  0  0  0  0
  161.7030  213.0990  147.7060 C   0  0  2  0  0  3  0  0  0  0  0  0
  160.3450  213.8870  145.6680 C   0  0  0  0  0  2  0  0  0  0  0  0
  159.2350  213.0670  146.3140 C   0  0  0  0  0  2  0  0  0  0  0  0
  159.1600  213.3280  147.8260 C   0  0  0  0  0  2  0  0  0  0  0  0
  161.7210  213.4750  146.2120 C   0  0  0  0  0  2  0  0  0  0  0  0
  1 10  1  6  0  0  0
  1 12  1  0  0  0  0
  2  6  1  6  0  0  0
  2  8  1  0  0  0  0
  3  8  1  0  0  0  0
  3 11  1  0  0  0  0
  4 14  1  0  0  0  0
  7 13  1  0  0  0  0
  7 16  1  0  0  0  0
  8  1  1  0  0  0  0
  9 16  1  0  0  0  0
  9  4  1  0  0  0  0
 10  5  1  0  0  0  0
 11 15  1  0  0  0  0
 11 17  1  0  0  0  0
 12 17  1  0  0  0  0
 12  5  1  0  0  0  0
 13  2  1  0  0  0  0
 14 15  1  0  0  0  0
 15 20  1  0  0  0  0
 16  3  1  0  0  0  0
 18 19  1  0  0  0  0
 19 21  2  0  0  0  0
 20 23  2  0  0  0  0
 22 18  2  0  0  0  0
 22 20  1  0  0  0  0
 23 21  1  0  0  0  0
 24 18  1  0  0  0  0
 25  9  1  0  0  0  0
 26 25  1  0  0  0  0
 27 26  1  0  0  0  0
 29 27  1  0  0  0  0
 30 28  1  0  0  0  0
 30 29  1  0  0  0  0
 31 34  1  0  0  0  0
 31 32  1  0  0  0  0
 32 33  1  0  0  0  0
 33 29  1  0  0  0  0
 34 30  1  0  0  0  0
M  END
>  <MODEL>
4

>  <REMARK>
 VINA RESULT:      -3.7      3.580      6.652
  Name = 
  5 active torsions:
  status: ('A' for Active; 'I' for Inactive)
    1  A    between atoms: C_3  and  C_13
    2  A    between atoms: C_3  and  C_17
    3  A    between atoms: C_12  and  C_28
    4  A    between atoms: C_17  and  N_29
    5  A    between atoms: C_18  and  N_29
                            x       y       z     vdW  Elec       q    Type
                         _______ _______ _______ _____ _____    ______ ____

>  <TORSDO>
F 5

$$$$
=
 OpenBabel11062407443D

 34 39  0  0  1  0  0  0  0  0999 V2000
  160.6150  212.8180  148.3590 C   0  0  1  0  0  3  0  0  0  0  0  0
  158.5420  213.0560  149.7600 C   0  0  1  0  0  3  0  0  0  0  0  0
  160.5500  211.7410  150.5290 C   0  0  1  0  0  3  0  0  0  0  0  0
  161.9330  210.7030  153.1780 C   0  0  0  0  0  2  0  0  0  0  0  0
  162.1210  213.6910  147.1560 C   0  0  0  0  0  2  0  0  0  0  0  0
  158.0910  214.1640  149.0430 O   0  0  0  0  0  1  0  0  0  0  0  0
  158.5050  211.9250  151.9670 C   0  0  0  0  0  2  0  0  0  0  0  0
  160.0680  212.9990  149.7520 C   0  0  1  0  0  3  0  0  0  0  0  0
  160.4620  210.5800  152.8340 C   0  0  2  0  0  3  0  0  0  0  0  0
  160.5950  213.8180  147.2240 C   0  0  0  0  0  2  0  0  0  0  0  0
  162.0960  211.4360  150.3460 C   0  0  1  0  0  3  0  0  0  0  0  0
  162.0760  213.0500  148.5260 C   0  0  2  0  0  3  0  0  0  0  0  0
  158.0610  213.1570  151.1960 C   0  0  0  0  0  2  0  0  0  0  0  0
  162.7900  209.8350  152.2700 C   0  0  0  0  0  2  0  0  0  0  0  0
  162.5290  210.0250  150.7760 C   0  0  1  0  0  3  0  0  0  0  0  0
  160.0350  211.7960  151.9830 C   0  0  1  0  0  3  0  0  0  0  0  0
  162.6290  211.7060  148.9130 C   0  0  0  0  0  2  0  0  0  0  0  0
  160.6990  206.6990  150.2880 C   0  0  0  0  0  0  0  0  0  0  0  0
  160.6370  206.6440  148.8930 C   0  0  0  0  0  3  0  0  0  0  0  0
  161.8310  208.8490  150.1480 C   0  0  0  0  0  0  0  0  0  0  0  0
  161.1760  207.6780  148.1280 C   0  0  0  0  0  3  0  0  0  0  0  0
  161.2960  207.7990  150.9130 C   0  0  0  0  0  3  0  0  0  0  0  0
  161.7730  208.7770  148.7520 C   0  0  0  0  0  3  0  0  0  0  0  0
  160.1530  205.7080  151.0320 F   0  0  0  0  0  0  0  0  0  0  0  0
  159.7080  210.5030  154.0810 N   0  0  0  0  0  2  0  0  0  0  0  0
  160.4500  211.2620  155.0740 C   0  0  0  0  0  2  0  0  0  0  0  0
  159.7690  212.5940  155.3430 C   0  0  0  0  0  2  0  0  0  0  0  0
  157.2940  214.1790  154.9980 O   0  0  0  0  0  1  0  0  0  0  0  0
  158.4850  212.4190  156.1440 C   0  0  1  0  0  3  0  0  0  0  0  0
  157.6840  213.7280  156.2620 C   0  0  2  0  0  3  0  0  0  0  0  0
  155.9570  212.1020  157.2570 C   0  0  0  0  0  2  0  0  0  0  0  0
  156.1500  211.3690  155.9340 C   0  0  0  0  0  2  0  0  0  0  0  0
  157.6380  211.2700  155.5670 C   0  0  0  0  0  2  0  0  0  0  0  0
  156.4410  213.5570  157.1560 C   0  0  0  0  0  2  0  0  0  0  0  0
  1 10  1  6  0  0  0
  1 12  1  0  0  0  0
  1  8  1  0  0  0  0
  2  6  1  6  0  0  0
  2 13  1  0  0  0  0
  3 16  1  0  0  0  0
  5 10  1  0  0  0  0
  5 12  1  0  0  0  0
  7 16  1  0  0  0  0
  8  2  1  0  0  0  0
  8  3  1  0  0  0  0
  9  4  1  0  0  0  0
  9 25  1  0  0  0  0
 11  3  1  0  0  0  0
 11 15  1  0  0  0  0
 12 17  1  0  0  0  0
 13  7  1  0  0  0  0
 14  4  1  0  0  0  0
 15 14  1  0  0  0  0
 16  9  1  0  0  0  0
 17 11  1  0  0  0  0
 18 22  1  0  0  0  0
 18 24  1  0  0  0  0
 19 18  2  0  0  0  0
 20 15  1  0  0  0  0
 20 22  2  0  0  0  0
 21 23  2  0  0  0  0
 21 19  1  0  0  0  0
 23 20  1  0  0  0  0
 25 26  1  0  0  0  0
 26 27  1  0  0  0  0
 27 29  1  0  0  0  0
 28 30  1  0  0  0  0
 29 30  1  0  0  0  0
 30 34  1  0  0  0  0
 32 31  1  0  0  0  0
 33 32  1  0  0  0  0
 33 29  1  0  0  0  0
 34 31  1  0  0  0  0
M  END
>  <MODEL>
5

>  <REMARK>
 VINA RESULT:      -3.4      3.536      7.620
  Name = 
  5 active torsions:
  status: ('A' for Active; 'I' for Inactive)
    1  A    between atoms: C_3  and  C_13
    2  A    between atoms: C_3  and  C_17
    3  A    between atoms: C_12  and  C_28
    4  A    between atoms: C_17  and  N_29
    5  A    between atoms: C_18  and  N_29
                            x       y       z     vdW  Elec       q    Type
                         _______ _______ _______ _____ _____    ______ ____

>  <TORSDO>
F 5

$$$$
=
 OpenBabel11062407443D

 34 39  0  0  1  0  0  0  0  0999 V2000
  160.6770  205.8600  151.6640 C   0  0  1  0  0  3  0  0  0  0  0  0
  160.5500  206.5690  149.2570 C   0  0  1  0  0  3  0  0  0  0  0  0
  161.4900  208.0610  151.0590 C   0  0  1  0  0  3  0  0  0  0  0  0
  163.4420  210.5210  151.4330 C   0  0  0  0  0  2  0  0  0  0  0  0
  161.1900  204.4140  153.1220 C   0  0  0  0  0  2  0  0  0  0  0  0
  160.4060  205.2600  148.7980 O   0  0  0  0  0  1  0  0  0  0  0  0
  161.3750  208.8360  148.6780 C   0  0  0  0  0  2  0  0  0  0  0  0
  161.3680  206.5970  150.5470 C   0  0  1  0  0  3  0  0  0  0  0  0
  162.3340  210.4120  150.4050 C   0  0  2  0  0  3  0  0  0  0  0  0
  160.4470  204.3690  151.7820 C   0  0  0  0  0  2  0  0  0  0  0  0
  162.0760  208.1720  152.5280 C   0  0  1  0  0  3  0  0  0  0  0  0
  161.7210  205.7730  152.7220 C   0  0  2  0  0  3  0  0  0  0  0  0
  161.2650  207.3960  148.2030 C   0  0  0  0  0  2  0  0  0  0  0  0
  162.8830  210.6210  152.8440 C   0  0  0  0  0  2  0  0  0  0  0  0
  161.8670  209.5370  153.2030 C   0  0  1  0  0  3  0  0  0  0  0  0
  162.1730  208.9350  149.9850 C   0  0  1  0  0  3  0  0  0  0  0  0
  161.5850  207.0580  153.4920 C   0  0  0  0  0  2  0  0  0  0  0  0
  158.6160  211.4380  152.5200 C   0  0  0  0  0  0  0  0  0  0  0  0
  157.8690  211.0800  153.6460 C   0  0  0  0  0  3  0  0  0  0  0  0
  160.4610  210.0630  153.3130 C   0  0  0  0  0  0  0  0  0  0  0  0
  158.4150  210.2280  154.6050 C   0  0  0  0  0  3  0  0  0  0  0  0
  159.9090  210.9320  152.3560 C   0  0  0  0  0  3  0  0  0  0  0  0
  159.7080  209.7210  154.4410 C   0  0  0  0  0  3  0  0  0  0  0  0
  158.0770  212.2450  151.5750 F   0  0  0  0  0  0  0  0  0  0  0  0
  162.6810  211.2610  149.2700 N   0  0  0  0  0  2  0  0  0  0  0  0
  161.5980  212.2160  149.1060 C   0  0  0  0  0  2  0  0  0  0  0  0
  162.0390  213.3750  148.2260 C   0  0  0  0  0  2  0  0  0  0  0  0
  162.7730  213.0940  145.3730 O   0  0  0  0  0  1  0  0  0  0  0  0
  161.0980  213.5750  147.0450 C   0  0  1  0  0  3  0  0  0  0  0  0
  161.8380  214.0490  145.7800 C   0  0  2  0  0  3  0  0  0  0  0  0
  159.5220  213.5970  144.7550 C   0  0  0  0  0  2  0  0  0  0  0  0
  159.7230  212.2120  145.3580 C   0  0  0  0  0  2  0  0  0  0  0  0
  160.2680  212.3040  146.7910 C   0  0  0  0  0  2  0  0  0  0  0  0
  160.8610  214.3400  144.6250 C   0  0  0  0  0  2  0  0  0  0  0  0
  1 10  1  6  0  0  0
  1 12  1  0  0  0  0
  2  6  1  6  0  0  0
  2  8  1  0  0  0  0
  3 11  1  0  0  0  0
  4 14  1  0  0  0  0
  7 16  1  0  0  0  0
  8  3  1  0  0  0  0
  8  1  1  0  0  0  0
  9  4  1  0  0  0  0
 10  5  1  0  0  0  0
 11 15  1  0  0  0  0
 11 17  1  0  0  0  0
 12  5  1  0  0  0  0
 12 17  1  0  0  0  0
 13  7  1  0  0  0  0
 13  2  1  0  0  0  0
 14 15  1  0  0  0  0
 15 20  1  0  0  0  0
 16  9  1  0  0  0  0
 16  3  1  0  0  0  0
 18 19  1  0  0  0  0
 19 21  2  0  0  0  0
 20 23  2  0  0  0  0
 22 18  2  0  0  0  0
 22 20  1  0  0  0  0
 23 21  1  0  0  0  0
 24 18  1  0  0  0  0
 25  9  1  0  0  0  0
 26 25  1  0  0  0  0
 27 26  1  0  0  0  0
 28 30  1  0  0  0  0
 29 27  1  0  0  0  0
 30 29  1  0  0  0  0
 31 32  1  0  0  0  0
 32 33  1  0  0  0  0
 33 29  1  0  0  0  0
 34 31  1  0  0  0  0
 34 30  1  0  0  0  0
M  END
>  <MODEL>
6

>  <REMARK>
 VINA RESULT:      -3.4      3.333      6.768
  Name = 
  5 active torsions:
  status: ('A' for Active; 'I' for Inactive)
    1  A    between atoms: C_3  and  C_13
    2  A    between atoms: C_3  and  C_17
    3  A    between atoms: C_12  and  C_28
    4  A    between atoms: C_17  and  N_29
    5  A    between atoms: C_18  and  N_29
                            x       y       z     vdW  Elec       q    Type
                         _______ _______ _______ _____ _____    ______ ____

>  <TORSDO>
F 5

$$$$
=
 OpenBabel11062407443D

 34 39  0  0  1  0  0  0  0  0999 V2000
  161.4630  209.1830  155.7910 C   0  0  1  0  0  3  0  0  0  0  0  0
  160.4680  207.0370  154.9430 C   0  0  1  0  0  3  0  0  0  0  0  0
  161.2750  208.8580  153.3970 C   0  0  1  0  0  3  0  0  0  0  0  0
  162.2830  209.2860  150.4300 C   0  0  0  0  0  2  0  0  0  0  0  0
  162.8080  210.1970  157.0720 C   0  0  0  0  0  2  0  0  0  0  0  0
  160.6700  206.3750  156.1540 O   0  0  0  0  0  1  0  0  0  0  0  0
  160.2760  206.7470  152.4870 C   0  0  0  0  0  2  0  0  0  0  0  0
  161.5360  208.1100  154.7360 C   0  0  1  0  0  3  0  0  0  0  0  0
  161.0510  208.5090  150.8490 C   0  0  2  0  0  3  0  0  0  0  0  0
  161.8010  209.0570  157.2610 C   0  0  0  0  0  2  0  0  0  0  0  0
  162.1530  210.1670  153.2210 C   0  0  1  0  0  3  0  0  0  0  0  0
  162.7120  209.9650  155.5800 C   0  0  2  0  0  3  0  0  0  0  0  0
  160.5490  206.0370  153.8030 C   0  0  0  0  0  2  0  0  0  0  0  0
  162.1170  210.7740  150.6950 C   0  0  0  0  0  2  0  0  0  0  0  0
  161.6710  211.1210  152.1160 C   0  0  1  0  0  3  0  0  0  0  0  0
  161.3050  207.8550  152.2240 C   0  0  1  0  0  3  0  0  0  0  0  0
  162.3490  210.9790  154.5300 C   0  0  0  0  0  2  0  0  0  0  0  0
  158.0010  211.5680  153.1030 C   0  0  0  0  0  0  0  0  0  0  0  0
  157.5990  212.5240  152.1670 C   0  0  0  0  0  3  0  0  0  0  0  0
  160.2520  211.6180  152.1810 C   0  0  0  0  0  0  0  0  0  0  0  0
  158.5120  213.0180  151.2360 C   0  0  0  0  0  3  0  0  0  0  0  0
  159.3240  211.1150  153.1080 C   0  0  0  0  0  3  0  0  0  0  0  0
  159.8350  212.5670  151.2410 C   0  0  0  0  0  3  0  0  0  0  0  0
  157.1210  211.1060  154.0240 F   0  0  0  0  0  0  0  0  0  0  0  0
  160.7720  207.5110  149.8200 N   0  0  0  0  0  2  0  0  0  0  0  0
  161.6280  206.3680  150.0930 C   0  0  0  0  0  2  0  0  0  0  0  0
  161.6450  205.4210  148.9040 C   0  0  0  0  0  2  0  0  0  0  0  0
  159.7320  204.1430  150.7650 O   0  0  0  0  0  1  0  0  0  0  0  0
  161.6760  203.9630  149.3450 C   0  0  1  0  0  3  0  0  0  0  0  0
  161.0760  203.7610  150.7480 C   0  0  2  0  0  3  0  0  0  0  0  0
  161.3470  201.2970  150.0610 C   0  0  0  0  0  2  0  0  0  0  0  0
  160.5120  201.7260  148.8600 C   0  0  0  0  0  2  0  0  0  0  0  0
  161.0040  203.0640  148.2900 C   0  0  0  0  0  2  0  0  0  0  0  0
  161.2040  202.2990  151.2160 C   0  0  0  0  0  2  0  0  0  0  0  0
  1 10  1  1  0  0  0
  2  6  1  1  0  0  0
  3  8  1  0  0  0  0
  4 14  1  0  0  0  0
  4  9  1  0  0  0  0
  5 10  1  0  0  0  0
  7 13  1  0  0  0  0
  8  2  1  0  0  0  0
  8  1  1  0  0  0  0
  9 16  1  0  0  0  0
 11  3  1  0  0  0  0
 11 17  1  0  0  0  0
 12  1  1  0  0  0  0
 12  5  1  0  0  0  0
 13  2  1  0  0  0  0
 14 15  1  0  0  0  0
 15 20  1  0  0  0  0
 15 11  1  0  0  0  0
 16  7  1  0  0  0  0
 16  3  1  0  0  0  0
 17 12  1  0  0  0  0
 18 22  1  0  0  0  0
 18 24  1  0  0  0  0
 19 18  2  0  0  0  0
 20 22  2  0  0  0  0
 21 23  2  0  0  0  0
 21 19  1  0  0  0  0
 23 20  1  0  0  0  0
 25 26  1  0  0  0  0
 25  9  1  0  0  0  0
 27 29  1  0  0  0  0
 27 26  1  0  0  0  0
 29 30  1  0  0  0  0
 30 28  1  0  0  0  0
 30 34  1  0  0  0  0
 31 34  1  0  0  0  0
 32 31  1  0  0  0  0
 33 32  1  0  0  0  0
 33 29  1  0  0  0  0
M  END
>  <MODEL>
7

>  <REMARK>
 VINA RESULT:      -3.2      2.171      4.877
  Name = 
  5 active torsions:
  status: ('A' for Active; 'I' for Inactive)
    1  A    between atoms: C_3  and  C_13
    2  A    between atoms: C_3  and  C_17
    3  A    between atoms: C_12  and  C_28
    4  A    between atoms: C_17  and  N_29
    5  A    between atoms: C_18  and  N_29
                            x       y       z     vdW  Elec       q    Type
                         _______ _______ _______ _____ _____    ______ ____

>  <TORSDO>
F 5

$$$$
