=
 OpenBabel11052422053D

 25 27  0  0  1  0  0  0  0  0999 V2000
  161.3810  206.3830  148.5380 C   0  0  0  0  0  0  0  0  0  0  0  0
  161.3120  205.7520  149.7980 C   0  0  0  0  0  0  0  0  0  0  0  0
  161.7950  208.5130  149.6350 C   0  0  0  0  0  3  0  0  0  0  0  0
  161.7260  207.8940  150.8820 C   0  0  0  0  0  3  0  0  0  0  0  0
  161.4160  205.8870  152.2360 C   0  0  0  0  0  0  0  0  0  0  0  0
  161.6230  206.7810  153.7370 Cl  0  0  0  0  0  0  0  0  0  0  0  0
  161.0730  204.3740  149.9020 C   0  0  0  0  0  3  0  0  0  0  0  0
  161.6240  207.7630  148.4710 C   0  0  0  0  0  3  0  0  0  0  0  0
  161.1770  204.5130  152.3120 C   0  0  0  0  0  3  0  0  0  0  0  0
  161.0050  203.7500  151.1480 C   0  0  0  0  0  0  0  0  0  0  0  0
  161.4860  206.5170  150.9810 C   0  0  0  0  0  0  0  0  0  0  0  0
  161.2070  205.5930  147.2650 C   0  0  2  0  0  3  0  0  0  0  0  0
  161.2170  204.9920  144.4630 C   0  0  0  0  0  2  0  0  0  0  0  0
  162.5230  205.2550  146.5920 C   0  0  0  0  0  0  0  0  0  0  0  0
  162.6070  205.1360  145.0920 C   0  0  0  0  0  2  0  0  0  0  0  0
  160.2730  206.0240  145.0120 C   0  0  0  0  0  3  0  0  0  0  0  0
  163.5170  205.0230  147.2630 O   0  0  0  0  0  0  0  0  0  0  0  0
  160.2660  206.3010  146.3210 C   0  0  0  0  0  3  0  0  0  0  0  0
  160.7650  202.3750  151.2040 O   0  0  0  0  0  0  0  0  0  0  0  0
  161.1250  201.4890  150.1530 C   0  0  0  0  0  2  0  0  0  0  0  0
  160.2640  201.7610  148.9310 C   0  0  2  0  0  3  0  0  0  0  0  0
  158.9550  201.1500  149.0980 N   0  0  0  0  0  1  0  0  0  0  0  0
  160.9240  201.2240  147.7050 C   0  0  0  0  0  0  0  0  0  0  0  0
  160.8420  201.9330  146.5150 O   0  0  0  0  0  0  0  0  0  0  0  0
  161.5660  200.1400  147.7440 O   0  0  0  0  0  1  0  0  0  0  0  0
  1  2  1  0  0  0  0
  2  7  2  0  0  0  0
  2 11  1  0  0  0  0
  3  4  2  0  0  0  0
  4 11  1  0  0  0  0
  5  9  1  0  0  0  0
  5  6  1  0  0  0  0
  7 10  1  0  0  0  0
  8  1  2  0  0  0  0
  8  3  1  0  0  0  0
 10 19  1  0  0  0  0
 10  9  2  0  0  0  0
 11  5  2  0  0  0  0
 12  1  1  1  0  0  0
 13 16  1  0  0  0  0
 13 15  1  0  0  0  0
 14 17  2  0  0  0  0
 14 12  1  0  0  0  0
 15 14  1  0  0  0  0
 16 18  2  0  0  0  0
 18 12  1  0  0  0  0
 20 19  1  0  0  0  0
 21 22  1  1  0  0  0
 21 20  1  0  0  0  0
 23 25  1  0  0  0  0
 23 21  1  0  0  0  0
 24 23  2  0  0  0  0
M  END
>  <MODEL>
1

>  <REMARK>
 VINA RESULT:      -8.9      0.000      0.000
  Name = 
  5 active torsions:
  status: ('A' for Active; 'I' for Inactive)
    1  A    between atoms: C_1  and  C_5
    2  A    between atoms: C_2  and  C_21
    3  A    between atoms: O_6  and  C_15
    4  A    between atoms: O_6  and  C_23
    5  A    between atoms: C_15  and  C_21
                            x       y       z     vdW  Elec       q    Type
                         _______ _______ _______ _____ _____    ______ ____

>  <TORSDO>
F 5

$$$$
=
 OpenBabel11052422053D

 25 27  0  0  1  0  0  0  0  0999 V2000
  161.5250  205.4180  148.7880 C   0  0  0  0  0  0  0  0  0  0  0  0
  161.5210  206.4330  149.7680 C   0  0  0  0  0  0  0  0  0  0  0  0
  160.8870  203.7920  150.4790 C   0  0  0  0  0  3  0  0  0  0  0  0
  160.8830  204.7920  151.4510 C   0  0  0  0  0  3  0  0  0  0  0  0
  161.1940  207.1270  152.0880 C   0  0  0  0  0  0  0  0  0  0  0  0
  160.8000  206.7960  153.7700 Cl  0  0  0  0  0  0  0  0  0  0  0  0
  161.8340  207.7580  149.4330 C   0  0  0  0  0  3  0  0  0  0  0  0
  161.2050  204.1030  149.1570 C   0  0  0  0  0  3  0  0  0  0  0  0
  161.5090  208.4400  151.7290 C   0  0  0  0  0  3  0  0  0  0  0  0
  161.8290  208.7630  150.4020 C   0  0  0  0  0  0  0  0  0  0  0  0
  161.1970  206.1150  151.1120 C   0  0  0  0  0  0  0  0  0  0  0  0
  161.8600  205.7290  147.3510 C   0  0  2  0  0  3  0  0  0  0  0  0
  162.0450  205.3940  144.5100 C   0  0  0  0  0  2  0  0  0  0  0  0
  160.6320  205.9900  146.5000 C   0  0  0  0  0  0  0  0  0  0  0  0
  160.6250  205.6300  145.0360 C   0  0  0  0  0  2  0  0  0  0  0  0
  162.8110  204.4860  145.4310 C   0  0  0  0  0  3  0  0  0  0  0  0
  159.6550  206.5450  146.9790 O   0  0  0  0  0  0  0  0  0  0  0  0
  162.7270  204.6460  146.7560 C   0  0  0  0  0  3  0  0  0  0  0  0
  162.1470  210.0690  150.0240 O   0  0  0  0  0  0  0  0  0  0  0  0
  162.0990  210.5110  148.6740 C   0  0  0  0  0  2  0  0  0  0  0  0
  162.0670  212.0290  148.6280 C   0  0  2  0  0  3  0  0  0  0  0  0
  161.0520  212.5340  149.5380 N   0  0  0  0  0  1  0  0  0  0  0  0
  161.7850  212.4970  147.2390 C   0  0  0  0  0  0  0  0  0  0  0  0
  160.5010  212.3800  146.7240 O   0  0  0  0  0  1  0  0  0  0  0  0
  162.6960  213.0080  146.5360 O   0  0  0  0  0  0  0  0  0  0  0  0
  1  8  2  0  0  0  0
  1  2  1  0  0  0  0
  2 11  1  0  0  0  0
  3  4  2  0  0  0  0
  5  6  1  0  0  0  0
  7  2  2  0  0  0  0
  7 10  1  0  0  0  0
  8  3  1  0  0  0  0
  9  5  1  0  0  0  0
 10  9  2  0  0  0  0
 11  4  1  0  0  0  0
 11  5  2  0  0  0  0
 12  1  1  1  0  0  0
 13 15  1  0  0  0  0
 13 16  1  0  0  0  0
 14 17  2  0  0  0  0
 14 12  1  0  0  0  0
 15 14  1  0  0  0  0
 16 18  2  0  0  0  0
 18 12  1  0  0  0  0
 19 10  1  0  0  0  0
 20 19  1  0  0  0  0
 21 20  1  0  0  0  0
 21 22  1  1  0  0  0
 23 21  1  0  0  0  0
 24 23  1  0  0  0  0
 25 23  2  0  0  0  0
M  END
>  <MODEL>
2

>  <REMARK>
 VINA RESULT:      -8.8      3.827      6.157
  Name = 
  5 active torsions:
  status: ('A' for Active; 'I' for Inactive)
    1  A    between atoms: C_1  and  C_5
    2  A    between atoms: C_2  and  C_21
    3  A    between atoms: O_6  and  C_15
    4  A    between atoms: O_6  and  C_23
    5  A    between atoms: C_15  and  C_21
                            x       y       z     vdW  Elec       q    Type
                         _______ _______ _______ _____ _____    ______ ____

>  <TORSDO>
F 5

$$$$
=
 OpenBabel11052422053D

 25 27  0  0  1  0  0  0  0  0999 V2000
  160.9700  204.8510  151.1090 C   0  0  0  0  0  0  0  0  0  0  0  0
  161.2520  206.0550  150.4300 C   0  0  0  0  0  0  0  0  0  0  0  0
  161.4840  205.9330  153.2250 C   0  0  0  0  0  3  0  0  0  0  0  0
  161.7650  207.1240  152.5570 C   0  0  0  0  0  3  0  0  0  0  0  0
  161.9340  208.4010  150.4850 C   0  0  0  0  0  0  0  0  0  0  0  0
  162.4360  209.8550  151.3370 Cl  0  0  0  0  0  0  0  0  0  0  0  0
  161.1400  206.1380  149.0350 C   0  0  0  0  0  3  0  0  0  0  0  0
  161.0900  204.8040  152.5060 C   0  0  0  0  0  3  0  0  0  0  0  0
  161.8160  208.4580  149.0940 C   0  0  0  0  0  3  0  0  0  0  0  0
  161.4180  207.3290  148.3620 C   0  0  0  0  0  0  0  0  0  0  0  0
  161.6530  207.2020  151.1630 C   0  0  0  0  0  0  0  0  0  0  0  0
  160.5350  203.6200  150.3560 C   0  0  2  0  0  3  0  0  0  0  0  0
  160.7360  201.2090  148.8190 C   0  0  0  0  0  2  0  0  0  0  0  0
  160.9150  202.3300  151.0590 C   0  0  0  0  0  0  0  0  0  0  0  0
  161.2320  201.0900  150.2630 C   0  0  0  0  0  2  0  0  0  0  0  0
  161.1470  202.5250  148.2190 C   0  0  0  0  0  3  0  0  0  0  0  0
  160.9150  202.2690  152.2790 O   0  0  0  0  0  0  0  0  0  0  0  0
  161.0490  203.6500  148.9370 C   0  0  0  0  0  3  0  0  0  0  0  0
  161.2940  207.3660  146.9710 O   0  0  0  0  0  0  0  0  0  0  0  0
  160.7770  206.2780  146.2170 C   0  0  0  0  0  2  0  0  0  0  0  0
  161.7920  205.8430  145.1740 C   0  0  2  0  0  3  0  0  0  0  0  0
  161.1290  205.6050  143.9030 N   0  0  0  0  0  1  0  0  0  0  0  0
  162.4950  204.6060  145.6230 C   0  0  0  0  0  0  0  0  0  0  0  0
  161.9820  203.3630  145.2800 O   0  0  0  0  0  0  0  0  0  0  0  0
  163.5560  204.6780  146.2980 O   0  0  0  0  0  1  0  0  0  0  0  0
  1  8  1  0  0  0  0
  2  1  2  0  0  0  0
  2 11  1  0  0  0  0
  4  3  1  0  0  0  0
  5 11  1  0  0  0  0
  5  6  1  0  0  0  0
  7  2  1  0  0  0  0
  8  3  2  0  0  0  0
  9  5  2  0  0  0  0
 10  7  2  0  0  0  0
 10  9  1  0  0  0  0
 11  4  2  0  0  0  0
 12 14  1  0  0  0  0
 12  1  1  1  0  0  0
 13 15  1  0  0  0  0
 14 17  2  0  0  0  0
 15 14  1  0  0  0  0
 16 13  1  0  0  0  0
 16 18  2  0  0  0  0
 18 12  1  0  0  0  0
 19 10  1  0  0  0  0
 20 19  1  0  0  0  0
 21 22  1  6  0  0  0
 21 23  1  0  0  0  0
 21 20  1  0  0  0  0
 23 25  1  0  0  0  0
 24 23  2  0  0  0  0
M  END
>  <MODEL>
3

>  <REMARK>
 VINA RESULT:      -8.5      2.058      4.698
  Name = 
  5 active torsions:
  status: ('A' for Active; 'I' for Inactive)
    1  A    between atoms: C_1  and  C_5
    2  A    between atoms: C_2  and  C_21
    3  A    between atoms: O_6  and  C_15
    4  A    between atoms: O_6  and  C_23
    5  A    between atoms: C_15  and  C_21
                            x       y       z     vdW  Elec       q    Type
                         _______ _______ _______ _____ _____    ______ ____

>  <TORSDO>
F 5

$$$$
=
 OpenBabel11052422053D

 25 27  0  0  1  0  0  0  0  0999 V2000
  160.9520  206.5980  151.8550 C   0  0  0  0  0  0  0  0  0  0  0  0
  160.9090  205.8700  150.6480 C   0  0  0  0  0  0  0  0  0  0  0  0
  161.2150  204.5210  153.0910 C   0  0  0  0  0  3  0  0  0  0  0  0
  161.1720  203.7970  151.9000 C   0  0  0  0  0  3  0  0  0  0  0  0
  160.9760  203.7300  149.4680 C   0  0  0  0  0  0  0  0  0  0  0  0
  161.1090  201.9770  149.4340 Cl  0  0  0  0  0  0  0  0  0  0  0  0
  160.7580  206.5240  149.4180 C   0  0  0  0  0  3  0  0  0  0  0  0
  161.1060  205.9110  153.0690 C   0  0  0  0  0  3  0  0  0  0  0  0
  160.8250  204.4060  148.2550 C   0  0  0  0  0  3  0  0  0  0  0  0
  160.7160  205.8040  148.2230 C   0  0  0  0  0  0  0  0  0  0  0  0
  161.0200  204.4550  150.6730 C   0  0  0  0  0  0  0  0  0  0  0  0
  160.8420  208.1020  151.8580 C   0  0  2  0  0  3  0  0  0  0  0  0
  161.2720  210.8180  152.6670 C   0  0  0  0  0  2  0  0  0  0  0  0
  162.1340  208.7910  151.4610 C   0  0  0  0  0  0  0  0  0  0  0  0
  162.4900  210.1380  152.0350 C   0  0  0  0  0  2  0  0  0  0  0  0
  160.5380  209.8660  153.5700 C   0  0  0  0  0  3  0  0  0  0  0  0
  162.8730  208.2850  150.6300 O   0  0  0  0  0  0  0  0  0  0  0  0
  160.3350  208.6000  153.1900 C   0  0  0  0  0  3  0  0  0  0  0  0
  160.5640  206.4980  147.0190 O   0  0  0  0  0  0  0  0  0  0  0  0
  160.3260  205.8430  145.7810 C   0  0  0  0  0  2  0  0  0  0  0  0
  161.6220  205.7380  144.9950 C   0  0  2  0  0  3  0  0  0  0  0  0
  161.3370  205.6500  143.5720 N   0  0  0  0  0  1  0  0  0  0  0  0
  162.3960  204.5400  145.4350 C   0  0  0  0  0  0  0  0  0  0  0  0
  161.8230  203.2800  145.3370 O   0  0  0  0  0  0  0  0  0  0  0  0
  163.5670  204.6600  145.8830 O   0  0  0  0  0  1  0  0  0  0  0  0
  1  8  1  0  0  0  0
  2 11  1  0  0  0  0
  2  1  2  0  0  0  0
  4  3  1  0  0  0  0
  5 11  1  0  0  0  0
  6  5  1  0  0  0  0
  7  2  1  0  0  0  0
  8  3  2  0  0  0  0
  9  5  2  0  0  0  0
 10  9  1  0  0  0  0
 10  7  2  0  0  0  0
 11  4  2  0  0  0  0
 12  1  1  1  0  0  0
 12 18  1  0  0  0  0
 13 16  1  0  0  0  0
 14 12  1  0  0  0  0
 14 15  1  0  0  0  0
 15 13  1  0  0  0  0
 17 14  2  0  0  0  0
 18 16  2  0  0  0  0
 19 10  1  0  0  0  0
 20 19  1  0  0  0  0
 21 22  1  6  0  0  0
 21 23  1  0  0  0  0
 21 20  1  0  0  0  0
 23 25  1  0  0  0  0
 24 23  2  0  0  0  0
M  END
>  <MODEL>
4

>  <REMARK>
 VINA RESULT:      -8.2      2.781      5.626
  Name = 
  5 active torsions:
  status: ('A' for Active; 'I' for Inactive)
    1  A    between atoms: C_1  and  C_5
    2  A    between atoms: C_2  and  C_21
    3  A    between atoms: O_6  and  C_15
    4  A    between atoms: O_6  and  C_23
    5  A    between atoms: C_15  and  C_21
                            x       y       z     vdW  Elec       q    Type
                         _______ _______ _______ _____ _____    ______ ____

>  <TORSDO>
F 5

$$$$
=
 OpenBabel11052422053D

 25 27  0  0  1  0  0  0  0  0999 V2000
  161.4350  204.8310  148.8540 C   0  0  0  0  0  0  0  0  0  0  0  0
  161.5050  205.6740  149.9830 C   0  0  0  0  0  0  0  0  0  0  0  0
  160.7470  202.9880  150.2820 C   0  0  0  0  0  3  0  0  0  0  0  0
  160.8160  203.8180  151.4000 C   0  0  0  0  0  3  0  0  0  0  0  0
  161.2630  206.0020  152.3920 C   0  0  0  0  0  0  0  0  0  0  0  0
  160.8880  205.4240  154.0100 Cl  0  0  0  0  0  0  0  0  0  0  0  0
  161.8800  207.0190  149.8540 C   0  0  0  0  0  3  0  0  0  0  0  0
  161.0540  203.4910  149.0180 C   0  0  0  0  0  3  0  0  0  0  0  0
  161.6390  207.3380  152.2380 C   0  0  0  0  0  3  0  0  0  0  0  0
  161.9490  207.8540  150.9710 C   0  0  0  0  0  0  0  0  0  0  0  0
  161.1920  205.1600  151.2680 C   0  0  0  0  0  0  0  0  0  0  0  0
  161.7560  205.3520  147.4760 C   0  0  2  0  0  3  0  0  0  0  0  0
  161.7450  205.5490  144.6160 C   0  0  0  0  0  2  0  0  0  0  0  0
  160.5610  205.9840  146.7880 C   0  0  0  0  0  0  0  0  0  0  0  0
  160.4200  205.9220  145.2890 C   0  0  0  0  0  2  0  0  0  0  0  0
  162.3700  204.3600  145.2900 C   0  0  0  0  0  3  0  0  0  0  0  0
  159.7280  206.5970  147.4380 O   0  0  0  0  0  0  0  0  0  0  0  0
  162.3780  204.2710  146.6250 C   0  0  0  0  0  3  0  0  0  0  0  0
  162.3270  209.1870  150.7970 O   0  0  0  0  0  0  0  0  0  0  0  0
  162.3660  210.1210  151.8680 C   0  0  0  0  0  2  0  0  0  0  0  0
  160.9520  210.5170  152.2590 C   0  0  2  0  0  3  0  0  0  0  0  0
  160.5970  211.7790  151.6300 N   0  0  0  0  0  1  0  0  0  0  0  0
  160.8420  210.6370  153.7420 C   0  0  0  0  0  0  0  0  0  0  0  0
  161.9940  210.6570  154.5160 O   0  0  0  0  0  1  0  0  0  0  0  0
  159.7150  210.7330  154.2970 O   0  0  0  0  0  0  0  0  0  0  0  0
  1  8  2  0  0  0  0
  1  2  1  0  0  0  0
  2 11  1  0  0  0  0
  3  4  2  0  0  0  0
  5  6  1  0  0  0  0
  7  2  2  0  0  0  0
  7 10  1  0  0  0  0
  8  3  1  0  0  0  0
  9  5  1  0  0  0  0
 10  9  2  0  0  0  0
 11  4  1  0  0  0  0
 11  5  2  0  0  0  0
 12  1  1  1  0  0  0
 13 15  1  0  0  0  0
 13 16  1  0  0  0  0
 14 17  2  0  0  0  0
 14 12  1  0  0  0  0
 15 14  1  0  0  0  0
 16 18  2  0  0  0  0
 18 12  1  0  0  0  0
 19 10  1  0  0  0  0
 19 20  1  0  0  0  0
 20 21  1  0  0  0  0
 21 22  1  6  0  0  0
 21 23  1  0  0  0  0
 23 25  2  0  0  0  0
 23 24  1  0  0  0  0
M  END
>  <MODEL>
5

>  <REMARK>
 VINA RESULT:      -8.1      3.897      6.055
  Name = 
  5 active torsions:
  status: ('A' for Active; 'I' for Inactive)
    1  A    between atoms: C_1  and  C_5
    2  A    between atoms: C_2  and  C_21
    3  A    between atoms: O_6  and  C_15
    4  A    between atoms: O_6  and  C_23
    5  A    between atoms: C_15  and  C_21
                            x       y       z     vdW  Elec       q    Type
                         _______ _______ _______ _____ _____    ______ ____

>  <TORSDO>
F 5

$$$$
=
 OpenBabel11052422053D

 25 27  0  0  1  0  0  0  0  0999 V2000
  161.1230  204.7910  149.6440 C   0  0  0  0  0  0  0  0  0  0  0  0
  161.3110  206.0810  150.1820 C   0  0  0  0  0  0  0  0  0  0  0  0
  160.9910  203.8800  151.8950 C   0  0  0  0  0  3  0  0  0  0  0  0
  161.1780  205.1540  152.4300 C   0  0  0  0  0  3  0  0  0  0  0  0
  161.5280  207.5490  152.1240 C   0  0  0  0  0  0  0  0  0  0  0  0
  161.5720  207.8370  153.8580 Cl  0  0  0  0  0  0  0  0  0  0  0  0
  161.4710  207.1940  149.3440 C   0  0  0  0  0  3  0  0  0  0  0  0
  160.9630  203.7000  150.5110 C   0  0  0  0  0  3  0  0  0  0  0  0
  161.6850  208.6420  151.2680 C   0  0  0  0  0  3  0  0  0  0  0  0
  161.6570  208.4710  149.8760 C   0  0  0  0  0  0  0  0  0  0  0  0
  161.3390  206.2620  151.5890 C   0  0  0  0  0  0  0  0  0  0  0  0
  161.0820  204.5710  148.1530 C   0  0  2  0  0  3  0  0  0  0  0  0
  161.9100  203.7050  145.5490 C   0  0  0  0  0  2  0  0  0  0  0  0
  160.9060  203.1120  147.7740 C   0  0  0  0  0  0  0  0  0  0  0  0
  161.5120  202.5740  146.5030 C   0  0  0  0  0  2  0  0  0  0  0  0
  162.6860  204.7680  146.2750 C   0  0  0  0  0  3  0  0  0  0  0  0
  160.2250  202.3730  148.4670 O   0  0  0  0  0  0  0  0  0  0  0  0
  162.2960  205.1740  147.4890 C   0  0  0  0  0  3  0  0  0  0  0  0
  161.8130  209.5510  149.0040 O   0  0  0  0  0  0  0  0  0  0  0  0
  162.0410  210.8790  149.4580 C   0  0  0  0  0  2  0  0  0  0  0  0
  161.9720  211.8440  148.2870 C   0  0  2  0  0  3  0  0  0  0  0  0
  163.3010  212.3470  147.9780 N   0  0  0  0  0  1  0  0  0  0  0  0
  161.0590  212.9800  148.6080 C   0  0  0  0  0  0  0  0  0  0  0  0
  160.4930  213.0680  149.8730 O   0  0  0  0  0  1  0  0  0  0  0  0
  160.8070  213.8650  147.7480 O   0  0  0  0  0  0  0  0  0  0  0  0
  1  2  2  0  0  0  0
  1  8  1  0  0  0  0
  2 11  1  0  0  0  0
  3  4  1  0  0  0  0
  5  6  1  0  0  0  0
  7 10  2  0  0  0  0
  7  2  1  0  0  0  0
  8  3  2  0  0  0  0
  9  5  2  0  0  0  0
 10  9  1  0  0  0  0
 11  5  1  0  0  0  0
 11  4  2  0  0  0  0
 12  1  1  1  0  0  0
 13 16  1  0  0  0  0
 13 15  1  0  0  0  0
 14 12  1  0  0  0  0
 14 17  2  0  0  0  0
 15 14  1  0  0  0  0
 16 18  2  0  0  0  0
 18 12  1  0  0  0  0
 19 20  1  0  0  0  0
 19 10  1  0  0  0  0
 21 22  1  1  0  0  0
 21 23  1  0  0  0  0
 21 20  1  0  0  0  0
 23 24  1  0  0  0  0
 25 23  2  0  0  0  0
M  END
>  <MODEL>
6

>  <REMARK>
 VINA RESULT:      -7.6      4.015      6.442
  Name = 
  5 active torsions:
  status: ('A' for Active; 'I' for Inactive)
    1  A    between atoms: C_1  and  C_5
    2  A    between atoms: C_2  and  C_21
    3  A    between atoms: O_6  and  C_15
    4  A    between atoms: O_6  and  C_23
    5  A    between atoms: C_15  and  C_21
                            x       y       z     vdW  Elec       q    Type
                         _______ _______ _______ _____ _____    ______ ____

>  <TORSDO>
F 5

$$$$
=
 OpenBabel11052422053D

 25 27  0  0  1  0  0  0  0  0999 V2000
  161.2970  202.9320  147.3040 C   0  0  0  0  0  0  0  0  0  0  0  0
  161.1470  203.7160  148.4670 C   0  0  0  0  0  0  0  0  0  0  0  0
  160.9830  200.9180  148.6290 C   0  0  0  0  0  3  0  0  0  0  0  0
  160.8350  201.6900  149.7820 C   0  0  0  0  0  3  0  0  0  0  0  0
  160.7660  203.8690  150.8760 C   0  0  0  0  0  0  0  0  0  0  0  0
  160.4770  203.1480  152.4540 Cl  0  0  0  0  0  0  0  0  0  0  0  0
  161.2250  205.1150  148.4070 C   0  0  0  0  0  3  0  0  0  0  0  0
  161.2120  201.5350  147.3990 C   0  0  0  0  0  3  0  0  0  0  0  0
  160.8480  205.2610  150.7900 C   0  0  0  0  0  3  0  0  0  0  0  0
  161.0760  205.8910  149.5580 C   0  0  0  0  0  0  0  0  0  0  0  0
  160.9150  203.0870  149.7170 C   0  0  0  0  0  0  0  0  0  0  0  0
  161.5390  203.5750  145.9620 C   0  0  2  0  0  3  0  0  0  0  0  0
  161.6610  205.6120  143.9500 C   0  0  0  0  0  2  0  0  0  0  0  0
  162.7040  204.5460  145.9700 C   0  0  0  0  0  0  0  0  0  0  0  0
  162.7010  205.7520  145.0650 C   0  0  0  0  0  2  0  0  0  0  0  0
  160.3340  205.1780  144.5070 C   0  0  0  0  0  3  0  0  0  0  0  0
  163.6800  204.3320  146.6720 O   0  0  0  0  0  0  0  0  0  0  0  0
  160.2780  204.2240  145.4440 C   0  0  0  0  0  3  0  0  0  0  0  0
  161.1610  207.2810  149.4520 O   0  0  0  0  0  0  0  0  0  0  0  0
  162.1160  208.0500  150.1720 C   0  0  0  0  0  2  0  0  0  0  0  0
  161.4310  209.2280  150.8420 C   0  0  2  0  0  3  0  0  0  0  0  0
  162.3310  210.3700  150.8830 N   0  0  0  0  0  1  0  0  0  0  0  0
  161.0100  208.8610  152.2260 C   0  0  0  0  0  0  0  0  0  0  0  0
  161.5440  207.7300  152.8280 O   0  0  0  0  0  0  0  0  0  0  0  0
  160.1840  209.5730  152.8570 O   0  0  0  0  0  1  0  0  0  0  0  0
  1  8  2  0  0  0  0
  1  2  1  0  0  0  0
  2 11  1  0  0  0  0
  3  4  2  0  0  0  0
  5  6  1  0  0  0  0
  7  2  2  0  0  0  0
  7 10  1  0  0  0  0
  8  3  1  0  0  0  0
  9  5  1  0  0  0  0
 10  9  2  0  0  0  0
 11  4  1  0  0  0  0
 11  5  2  0  0  0  0
 12 14  1  0  0  0  0
 12  1  1  1  0  0  0
 13 16  1  0  0  0  0
 13 15  1  0  0  0  0
 14 17  2  0  0  0  0
 15 14  1  0  0  0  0
 16 18  2  0  0  0  0
 18 12  1  0  0  0  0
 19 10  1  0  0  0  0
 19 20  1  0  0  0  0
 20 21  1  0  0  0  0
 21 22  1  1  0  0  0
 21 23  1  0  0  0  0
 23 24  2  0  0  0  0
 23 25  1  0  0  0  0
M  END
>  <MODEL>
7

>  <REMARK>
 VINA RESULT:      -7.6      3.139      5.385
  Name = 
  5 active torsions:
  status: ('A' for Active; 'I' for Inactive)
    1  A    between atoms: C_1  and  C_5
    2  A    between atoms: C_2  and  C_21
    3  A    between atoms: O_6  and  C_15
    4  A    between atoms: O_6  and  C_23
    5  A    between atoms: C_15  and  C_21
                            x       y       z     vdW  Elec       q    Type
                         _______ _______ _______ _____ _____    ______ ____

>  <TORSDO>
F 5

$$$$
=
 OpenBabel11052422053D

 25 27  0  0  1  0  0  0  0  0999 V2000
  160.7540  208.5710  153.4540 C   0  0  0  0  0  0  0  0  0  0  0  0
  160.9840  207.6430  152.4170 C   0  0  0  0  0  0  0  0  0  0  0  0
  160.7770  206.7590  155.0740 C   0  0  0  0  0  3  0  0  0  0  0  0
  161.0040  205.8380  154.0520 C   0  0  0  0  0  3  0  0  0  0  0  0
  161.3390  205.3380  151.6870 C   0  0  0  0  0  0  0  0  0  0  0  0
  161.5030  203.6150  152.0000 Cl  0  0  0  0  0  0  0  0  0  0  0  0
  161.0920  208.0640  151.0840 C   0  0  0  0  0  3  0  0  0  0  0  0
  160.6530  208.1160  154.7770 C   0  0  0  0  0  3  0  0  0  0  0  0
  161.4420  205.7830  150.3670 C   0  0  0  0  0  3  0  0  0  0  0  0
  161.3200  207.1460  150.0580 C   0  0  0  0  0  0  0  0  0  0  0  0
  161.1100  206.2630  152.7210 C   0  0  0  0  0  0  0  0  0  0  0  0
  160.6220  210.0450  153.1600 C   0  0  2  0  0  3  0  0  0  0  0  0
  159.6380  212.7320  153.3220 C   0  0  0  0  0  2  0  0  0  0  0  0
  161.0680  210.9210  154.3150 C   0  0  0  0  0  0  0  0  0  0  0  0
  160.4200  212.2610  154.5530 C   0  0  0  0  0  2  0  0  0  0  0  0
  158.7570  211.6340  152.7970 C   0  0  0  0  0  3  0  0  0  0  0  0
  161.9940  210.5740  155.0320 O   0  0  0  0  0  0  0  0  0  0  0  0
  159.2190  210.3800  152.7180 C   0  0  0  0  0  3  0  0  0  0  0  0
  161.4210  207.6100  148.7450 O   0  0  0  0  0  0  0  0  0  0  0  0
  162.4610  207.2050  147.8650 C   0  0  0  0  0  2  0  0  0  0  0  0
  161.8820  206.3980  146.7160 C   0  0  2  0  0  3  0  0  0  0  0  0
  160.4360  206.3150  146.8450 N   0  0  0  0  0  1  0  0  0  0  0  0
  162.4720  205.0280  146.6990 C   0  0  0  0  0  0  0  0  0  0  0  0
  161.9050  204.0270  147.4740 O   0  0  0  0  0  1  0  0  0  0  0  0
  163.4730  204.7690  145.9780 O   0  0  0  0  0  0  0  0  0  0  0  0
  1  8  1  0  0  0  0
  2 11  1  0  0  0  0
  2  1  2  0  0  0  0
  4  3  1  0  0  0  0
  5  6  1  0  0  0  0
  5 11  1  0  0  0  0
  7  2  1  0  0  0  0
  8  3  2  0  0  0  0
  9  5  2  0  0  0  0
 10  9  1  0  0  0  0
 10  7  2  0  0  0  0
 11  4  2  0  0  0  0
 12  1  1  1  0  0  0
 12 14  1  0  0  0  0
 13 15  1  0  0  0  0
 14 15  1  0  0  0  0
 14 17  2  0  0  0  0
 16 13  1  0  0  0  0
 18 16  2  0  0  0  0
 18 12  1  0  0  0  0
 19 10  1  0  0  0  0
 20 19  1  0  0  0  0
 21 22  1  1  0  0  0
 21 20  1  0  0  0  0
 23 21  1  0  0  0  0
 23 24  1  0  0  0  0
 25 23  2  0  0  0  0
M  END
>  <MODEL>
8

>  <REMARK>
 VINA RESULT:      -7.3      3.652      6.480
  Name = 
  5 active torsions:
  status: ('A' for Active; 'I' for Inactive)
    1  A    between atoms: C_1  and  C_5
    2  A    between atoms: C_2  and  C_21
    3  A    between atoms: O_6  and  C_15
    4  A    between atoms: O_6  and  C_23
    5  A    between atoms: C_15  and  C_21
                            x       y       z     vdW  Elec       q    Type
                         _______ _______ _______ _____ _____    ______ ____

>  <TORSDO>
F 5

$$$$
=
 OpenBabel11052422053D

 25 27  0  0  1  0  0  0  0  0999 V2000
  161.2630  205.6620  149.6250 C   0  0  0  0  0  0  0  0  0  0  0  0
  161.2750  206.8020  150.4550 C   0  0  0  0  0  0  0  0  0  0  0  0
  162.1790  206.9870  147.8030 C   0  0  0  0  0  3  0  0  0  0  0  0
  162.1910  208.1160  148.6200 C   0  0  0  0  0  3  0  0  0  0  0  0
  161.7540  209.1770  150.7740 C   0  0  0  0  0  0  0  0  0  0  0  0
  162.3220  210.7400  150.2010 Cl  0  0  0  0  0  0  0  0  0  0  0  0
  160.8290  206.7310  151.7820 C   0  0  0  0  0  3  0  0  0  0  0  0
  161.7180  205.7680  148.3020 C   0  0  0  0  0  3  0  0  0  0  0  0
  161.3050  209.0800  152.0930 C   0  0  0  0  0  3  0  0  0  0  0  0
  160.8410  207.8590  152.6040 C   0  0  0  0  0  0  0  0  0  0  0  0
  161.7430  208.0410  149.9450 C   0  0  0  0  0  0  0  0  0  0  0  0
  160.7760  204.3310  150.1410 C   0  0  2  0  0  3  0  0  0  0  0  0
  160.6800  201.5010  150.5800 C   0  0  0  0  0  2  0  0  0  0  0  0
  161.7120  203.7150  151.1640 C   0  0  0  0  0  0  0  0  0  0  0  0
  161.8400  202.2170  151.2780 C   0  0  0  0  0  2  0  0  0  0  0  0
  160.4560  202.0610  149.2030 C   0  0  0  0  0  3  0  0  0  0  0  0
  162.3300  204.4240  151.9420 O   0  0  0  0  0  0  0  0  0  0  0  0
  160.4980  203.3830  149.0010 C   0  0  0  0  0  3  0  0  0  0  0  0
  160.3880  207.7420  153.9200 O   0  0  0  0  0  0  0  0  0  0  0  0
  161.2670  207.5700  155.0230 C   0  0  0  0  0  2  0  0  0  0  0  0
  160.9330  208.5750  156.1120 C   0  0  2  0  0  3  0  0  0  0  0  0
  159.6480  209.1980  155.8380 N   0  0  0  0  0  1  0  0  0  0  0  0
  161.9980  209.6170  156.1960 C   0  0  0  0  0  0  0  0  0  0  0  0
  162.0750  210.5980  155.2170 O   0  0  0  0  0  0  0  0  0  0  0  0
  162.8180  209.6230  157.1520 O   0  0  0  0  0  1  0  0  0  0  0  0
  1  2  1  0  0  0  0
  2  7  1  0  0  0  0
  3  8  1  0  0  0  0
  3  4  2  0  0  0  0
  4 11  1  0  0  0  0
  5  9  2  0  0  0  0
  6  5  1  0  0  0  0
  7 10  2  0  0  0  0
  8  1  2  0  0  0  0
  9 10  1  0  0  0  0
 10 19  1  0  0  0  0
 11  2  2  0  0  0  0
 11  5  1  0  0  0  0
 12  1  1  6  0  0  0
 12 14  1  0  0  0  0
 13 15  1  0  0  0  0
 14 15  1  0  0  0  0
 14 17  2  0  0  0  0
 16 13  1  0  0  0  0
 18 16  2  0  0  0  0
 18 12  1  0  0  0  0
 19 20  1  0  0  0  0
 20 21  1  0  0  0  0
 21 22  1  6  0  0  0
 21 23  1  0  0  0  0
 23 25  1  0  0  0  0
 24 23  2  0  0  0  0
M  END
>  <MODEL>
9

>  <REMARK>
 VINA RESULT:      -7.2      4.204      6.630
  Name = 
  5 active torsions:
  status: ('A' for Active; 'I' for Inactive)
    1  A    between atoms: C_1  and  C_5
    2  A    between atoms: C_2  and  C_21
    3  A    between atoms: O_6  and  C_15
    4  A    between atoms: O_6  and  C_23
    5  A    between atoms: C_15  and  C_21
                            x       y       z     vdW  Elec       q    Type
                         _______ _______ _______ _____ _____    ______ ____

>  <TORSDO>
F 5

$$$$
