=
 OpenBabel11062408323D

 32 35  0  0  1  0  0  0  0  0999 V2000
  161.5930  206.0460  153.6210 C   0  0  0  0  0  2  0  0  0  0  0  0
  161.3510  207.4730  154.1220 C   0  0  1  0  0  3  0  0  0  0  0  0
  161.0190  205.8240  152.2190 C   0  0  1  0  0  3  0  0  0  0  0  0
  161.1470  207.0850  151.3430 C   0  0  1  0  0  3  0  0  0  0  0  0
  160.5540  208.3220  152.0440 C   0  0  0  0  0  2  0  0  0  0  0  0
  160.2000  208.0720  153.4450 N   0  0  0  0  0  2  0  0  0  0  0  0
  161.6550  204.5970  151.5770 C   0  0  0  0  0  2  0  0  0  0  0  0
  160.8830  204.1610  150.3430 C   0  0  2  0  0  3  0  0  0  0  0  0
  160.7610  201.6650  146.2130 C   0  0  0  0  0  3  0  0  0  0  0  0
  160.7830  202.3310  150.2470 S   0  0  0  0  0  0  0  0  0  0  0  0
  161.4750  203.9470  146.6600 C   0  0  0  0  0  3  0  0  0  0  0  0
  161.3250  203.7000  148.0260 C   0  0  0  0  0  0  0  0  0  0  0  0
  161.5630  204.7050  149.0860 C   0  0  0  0  0  2  0  0  0  0  0  0
  160.9210  202.4630  148.4820 C   0  0  0  0  0  0  0  0  0  0  0  0
  161.1910  202.9190  145.7500 C   0  0  0  0  0  3  0  0  0  0  0  0
  160.6200  201.4340  147.5890 C   0  0  0  0  0  3  0  0  0  0  0  0
  162.4860  207.3300  151.0230 O   0  0  0  0  0  0  0  0  0  0  0  0
  162.4890  208.5970  150.4370 C   0  0  0  0  0  2  0  0  0  0  0  0
  161.8740  208.5140  149.0550 C   0  0  0  0  0  2  0  0  0  0  0  0
  162.7050  207.5920  148.1890 C   0  0  0  0  0  1  0  0  0  0  0  0
  161.1270  207.4520  155.6260 C   0  0  0  0  0  2  0  0  0  0  0  0
  160.1690  208.5560  156.0580 C   0  0  0  0  0  2  0  0  0  0  0  0
  160.9220  209.8040  156.5170 C   0  0  0  0  0  2  0  0  0  0  0  0
  160.9290  212.1600  156.2590 F   0  0  0  0  0  0  0  0  0  0  0  0
  161.7490  210.9390  154.5480 O   0  0  0  0  0  1  0  0  0  0  0  0
  160.7670  210.9850  155.5460 C   0  0  1  0  0  0  0  0  0  0  0  0
  159.4730  211.0010  154.9760 O   0  0  0  0  0  0  0  0  0  0  0  0
  157.9650  212.3540  153.6290 C   0  0  2  0  0  3  0  0  0  0  0  0
  158.7740  211.4380  152.7330 C   0  0  0  0  0  2  0  0  0  0  0  0
  159.4090  212.0040  153.9870 C   0  0  2  0  0  3  0  0  0  0  0  0
  157.0540  211.5970  154.3710 O   0  0  0  0  0  0  0  0  0  0  0  0
  156.0330  212.4910  154.6910 C   0  0  0  0  0  1  0  0  0  0  0  0
  1  2  1  0  0  0  0
  2 21  1  1  0  0  0
  3  7  1  6  0  0  0
  3  1  1  0  0  0  0
  4 17  1  1  0  0  0
  4  5  1  0  0  0  0
  4  3  1  0  0  0  0
  5  6  1  0  0  0  0
  6  2  1  0  0  0  0
  8  7  1  1  0  0  0
  9 16  1  0  0  0  0
 10  8  1  0  0  0  0
 11 12  2  0  0  0  0
 12 14  1  0  0  0  0
 12 13  1  0  0  0  0
 13  8  1  0  0  0  0
 14 10  1  0  0  0  0
 15  9  2  0  0  0  0
 15 11  1  0  0  0  0
 16 14  2  0  0  0  0
 18 17  1  0  0  0  0
 19 18  1  0  0  0  0
 20 19  1  0  0  0  0
 21 22  1  0  0  0  0
 22 23  1  0  0  0  0
 26 25  1  6  0  0  0
 26 24  1  0  0  0  0
 26 23  1  0  0  0  0
 27 26  1  0  0  0  0
 28 30  1  0  0  0  0
 28 31  1  1  0  0  0
 29 28  1  0  0  0  0
 29 30  1  0  0  0  0
 30 27  1  1  0  0  0
 31 32  1  0  0  0  0
M  END
>  <MODEL>
1

>  <REMARK>
 VINA RESULT:      -7.3      0.000      0.000
  Name = 
  12 active torsions:
  status: ('A' for Active; 'I' for Inactive)
    1  A    between atoms: C_2  and  C_5
    2  A    between atoms: C_2  and  C_6
    3  A    between atoms: C_3  and  O_22
    4  A    between atoms: C_4  and  C_27
    5  A    between atoms: O_7  and  C_19
    6  A    between atoms: O_7  and  C_26
    7  A    between atoms: C_13  and  C_29
    8  A    between atoms: C_14  and  O_18
    9  A    between atoms: O_18  and  C_29
   10  A    between atoms: C_20  and  C_24
   11  A    between atoms: C_20  and  C_26
   12  A    between atoms: C_24  and  C_27
                            x       y       z     vdW  Elec       q    Type
                         _______ _______ _______ _____ _____    ______ ____

>  <TORSDO>
F 12

$$$$
=
 OpenBabel11062408323D

 32 35  0  0  1  0  0  0  0  0999 V2000
  161.3240  208.4670  150.5260 C   0  0  0  0  0  2  0  0  0  0  0  0
  161.7220  209.9450  150.5670 C   0  0  1  0  0  3  0  0  0  0  0  0
  161.7540  207.7200  151.7920 C   0  0  1  0  0  3  0  0  0  0  0  0
  161.6520  208.6120  153.0430 C   0  0  1  0  0  3  0  0  0  0  0  0
  162.4010  209.9440  152.8510 C   0  0  0  0  0  2  0  0  0  0  0  0
  162.8540  210.1520  151.4710 N   0  0  0  0  0  2  0  0  0  0  0  0
  160.9680  206.4220  151.9300 C   0  0  0  0  0  2  0  0  0  0  0  0
  161.5870  205.3140  151.0930 C   0  0  2  0  0  3  0  0  0  0  0  0
  161.0020  201.6310  148.0300 C   0  0  0  0  0  3  0  0  0  0  0  0
  161.1450  205.5070  149.3230 S   0  0  0  0  0  0  0  0  0  0  0  0
  160.9880  201.6810  150.4610 C   0  0  0  0  0  3  0  0  0  0  0  0
  161.0480  203.0750  150.4080 C   0  0  0  0  0  0  0  0  0  0  0  0
  161.1080  203.9530  151.5980 C   0  0  0  0  0  2  0  0  0  0  0  0
  161.0660  203.7380  149.1990 C   0  0  0  0  0  0  0  0  0  0  0  0
  160.9630  200.9570  149.2600 C   0  0  0  0  0  3  0  0  0  0  0  0
  161.0570  203.0320  147.9950 C   0  0  0  0  0  3  0  0  0  0  0  0
  160.3130  208.8730  153.3560 O   0  0  0  0  0  0  0  0  0  0  0  0
  160.2680  208.8980  154.7510 C   0  0  0  0  0  2  0  0  0  0  0  0
  160.3400  207.4820  155.2840 C   0  0  0  0  0  2  0  0  0  0  0  0
  160.1960  207.5040  156.7900 C   0  0  0  0  0  1  0  0  0  0  0  0
  162.0740  210.4160  149.1650 C   0  0  0  0  0  2  0  0  0  0  0  0
  161.8780  211.9200  149.0210 C   0  0  0  0  0  2  0  0  0  0  0  0
  162.2070  212.3960  147.6070 C   0  0  0  0  0  2  0  0  0  0  0  0
  159.8910  212.0990  147.2000 F   0  0  0  0  0  0  0  0  0  0  0  0
  160.6740  214.2140  147.1710 O   0  0  0  0  0  1  0  0  0  0  0  0
  160.9700  212.8850  146.8390 C   0  0  1  0  0  0  0  0  0  0  0  0
  161.1570  212.7480  145.4440 O   0  0  0  0  0  0  0  0  0  0  0  0
  160.1460  211.9630  143.3760 C   0  0  2  0  0  3  0  0  0  0  0  0
  159.5500  213.3000  143.7650 C   0  0  0  0  0  2  0  0  0  0  0  0
  159.9530  212.3210  144.8490 C   0  0  2  0  0  3  0  0  0  0  0  0
  161.4720  212.1420  142.9720 O   0  0  0  0  0  0  0  0  0  0  0  0
  161.4800  211.7910  141.6230 C   0  0  0  0  0  1  0  0  0  0  0  0
  1  2  1  0  0  0  0
  1  3  1  0  0  0  0
  2 21  1  6  0  0  0
  2  6  1  0  0  0  0
  3  7  1  1  0  0  0
  3  4  1  0  0  0  0
  4 17  1  6  0  0  0
  5  4  1  0  0  0  0
  6  5  1  0  0  0  0
  8 13  1  0  0  0  0
  8  7  1  1  0  0  0
  9 15  1  0  0  0  0
 10  8  1  0  0  0  0
 12 11  1  0  0  0  0
 12 13  1  0  0  0  0
 14 10  1  0  0  0  0
 14 12  2  0  0  0  0
 15 11  2  0  0  0  0
 16  9  2  0  0  0  0
 16 14  1  0  0  0  0
 17 18  1  0  0  0  0
 18 19  1  0  0  0  0
 19 20  1  0  0  0  0
 22 21  1  0  0  0  0
 23 22  1  0  0  0  0
 26 25  1  1  0  0  0
 26 24  1  0  0  0  0
 26 23  1  0  0  0  0
 27 26  1  0  0  0  0
 28 31  1  1  0  0  0
 28 29  1  0  0  0  0
 28 30  1  0  0  0  0
 29 30  1  0  0  0  0
 30 27  1  1  0  0  0
 32 31  1  0  0  0  0
M  END
>  <MODEL>
2

>  <REMARK>
 VINA RESULT:      -6.8      4.414      6.749
  Name = 
  12 active torsions:
  status: ('A' for Active; 'I' for Inactive)
    1  A    between atoms: C_2  and  C_5
    2  A    between atoms: C_2  and  C_6
    3  A    between atoms: C_3  and  O_22
    4  A    between atoms: C_4  and  C_27
    5  A    between atoms: O_7  and  C_19
    6  A    between atoms: O_7  and  C_26
    7  A    between atoms: C_13  and  C_29
    8  A    between atoms: C_14  and  O_18
    9  A    between atoms: O_18  and  C_29
   10  A    between atoms: C_20  and  C_24
   11  A    between atoms: C_20  and  C_26
   12  A    between atoms: C_24  and  C_27
                            x       y       z     vdW  Elec       q    Type
                         _______ _______ _______ _____ _____    ______ ____

>  <TORSDO>
F 12

$$$$
=
 OpenBabel11062408323D

 32 35  0  0  1  0  0  0  0  0999 V2000
  160.4220  206.3160  148.6670 C   0  0  0  0  0  2  0  0  0  0  0  0
  161.1280  206.4660  147.3160 C   0  0  1  0  0  3  0  0  0  0  0  0
  161.3060  206.7730  149.8310 C   0  0  1  0  0  3  0  0  0  0  0  0
  162.1890  207.9730  149.4410 C   0  0  1  0  0  3  0  0  0  0  0  0
  162.9900  207.6920  148.1560 C   0  0  0  0  0  2  0  0  0  0  0  0
  162.5810  206.4520  147.4870 N   0  0  0  0  0  2  0  0  0  0  0  0
  160.4530  207.0480  151.0640 C   0  0  0  0  0  2  0  0  0  0  0  0
  161.2940  207.6060  152.2000 C   0  0  2  0  0  3  0  0  0  0  0  0
  161.5630  209.1920  156.7510 C   0  0  0  0  0  3  0  0  0  0  0  0
  161.2020  206.5210  153.6770 S   0  0  0  0  0  0  0  0  0  0  0  0
  161.0630  210.3820  154.6900 C   0  0  0  0  0  3  0  0  0  0  0  0
  161.0440  209.1590  154.0170 C   0  0  0  0  0  0  0  0  0  0  0  0
  160.8110  209.0100  152.5630 C   0  0  0  0  0  2  0  0  0  0  0  0
  161.2610  207.9760  154.6910 C   0  0  0  0  0  0  0  0  0  0  0  0
  161.3240  210.3940  156.0670 C   0  0  0  0  0  3  0  0  0  0  0  0
  161.5360  207.9720  156.0600 C   0  0  0  0  0  3  0  0  0  0  0  0
  161.4100  209.1210  149.2600 O   0  0  0  0  0  0  0  0  0  0  0  0
  162.2300  210.0050  148.5570 C   0  0  0  0  0  2  0  0  0  0  0  0
  162.0100  211.4140  149.0690 C   0  0  0  0  0  2  0  0  0  0  0  0
  162.7820  212.3880  148.2050 C   0  0  0  0  0  1  0  0  0  0  0  0
  160.6950  205.3410  146.3900 C   0  0  0  0  0  2  0  0  0  0  0  0
  161.7690  204.2630  146.2880 C   0  0  0  0  0  2  0  0  0  0  0  0
  161.2470  203.0170  145.5770 C   0  0  0  0  0  2  0  0  0  0  0  0
  159.3810  201.8400  146.4430 F   0  0  0  0  0  0  0  0  0  0  0  0
  161.3080  200.6880  146.2260 O   0  0  0  0  0  1  0  0  0  0  0  0
  160.7570  201.9340  146.5510 C   0  0  1  0  0  0  0  0  0  0  0  0
  161.0620  202.2840  147.8870 O   0  0  0  0  0  0  0  0  0  0  0  0
  160.2490  202.1200  150.1730 C   0  0  2  0  0  3  0  0  0  0  0  0
  161.1310  200.9300  149.8530 C   0  0  0  0  0  2  0  0  0  0  0  0
  160.2620  201.5260  148.7650 C   0  0  2  0  0  3  0  0  0  0  0  0
  161.0320  203.2750  150.2510 O   0  0  0  0  0  0  0  0  0  0  0  0
  161.3660  203.3820  151.6000 C   0  0  0  0  0  1  0  0  0  0  0  0
  1  3  1  0  0  0  0
  2 21  1  6  0  0  0
  2  6  1  0  0  0  0
  2  1  1  0  0  0  0
  3  7  1  1  0  0  0
  4 17  1  6  0  0  0
  4  3  1  0  0  0  0
  5  4  1  0  0  0  0
  6  5  1  0  0  0  0
  8  7  1  6  0  0  0
  8 13  1  0  0  0  0
  8 10  1  0  0  0  0
 10 14  1  0  0  0  0
 11 15  2  0  0  0  0
 12 11  1  0  0  0  0
 12 14  2  0  0  0  0
 13 12  1  0  0  0  0
 14 16  1  0  0  0  0
 15  9  1  0  0  0  0
 16  9  2  0  0  0  0
 18 19  1  0  0  0  0
 18 17  1  0  0  0  0
 20 19  1  0  0  0  0
 22 21  1  0  0  0  0
 23 22  1  0  0  0  0
 23 26  1  0  0  0  0
 24 26  1  0  0  0  0
 26 25  1  6  0  0  0
 26 27  1  0  0  0  0
 28 31  1  6  0  0  0
 29 28  1  0  0  0  0
 30 27  1  6  0  0  0
 30 29  1  0  0  0  0
 30 28  1  0  0  0  0
 31 32  1  0  0  0  0
M  END
>  <MODEL>
3

>  <REMARK>
 VINA RESULT:      -6.8      3.953      9.043
  Name = 
  12 active torsions:
  status: ('A' for Active; 'I' for Inactive)
    1  A    between atoms: C_2  and  C_5
    2  A    between atoms: C_2  and  C_6
    3  A    between atoms: C_3  and  O_22
    4  A    between atoms: C_4  and  C_27
    5  A    between atoms: O_7  and  C_19
    6  A    between atoms: O_7  and  C_26
    7  A    between atoms: C_13  and  C_29
    8  A    between atoms: C_14  and  O_18
    9  A    between atoms: O_18  and  C_29
   10  A    between atoms: C_20  and  C_24
   11  A    between atoms: C_20  and  C_26
   12  A    between atoms: C_24  and  C_27
                            x       y       z     vdW  Elec       q    Type
                         _______ _______ _______ _____ _____    ______ ____

>  <TORSDO>
F 12

$$$$
=
 OpenBabel11062408323D

 32 35  0  0  1  0  0  0  0  0999 V2000
  161.0590  207.5480  150.8970 C   0  0  0  0  0  2  0  0  0  0  0  0
  160.7910  206.6820  149.6620 C   0  0  1  0  0  3  0  0  0  0  0  0
  162.2890  208.4440  150.7150 C   0  0  1  0  0  3  0  0  0  0  0  0
  162.4270  208.9360  149.2630 C   0  0  1  0  0  3  0  0  0  0  0  0
  162.3860  207.7660  148.2620 C   0  0  0  0  0  2  0  0  0  0  0  0
  162.0180  206.4910  148.8880 N   0  0  0  0  0  2  0  0  0  0  0  0
  162.2610  209.5860  151.7230 C   0  0  0  0  0  2  0  0  0  0  0  0
  160.9450  209.6170  152.4820 C   0  0  2  0  0  3  0  0  0  0  0  0
  158.1780  211.6430  155.8780 C   0  0  0  0  0  3  0  0  0  0  0  0
  160.1250  211.2490  152.3050 S   0  0  0  0  0  0  0  0  0  0  0  0
  159.8220  209.8590  156.0380 C   0  0  0  0  0  3  0  0  0  0  0  0
  160.1720  210.0950  154.7060 C   0  0  0  0  0  0  0  0  0  0  0  0
  161.1920  209.3230  153.9620 C   0  0  0  0  0  2  0  0  0  0  0  0
  159.5560  211.0920  153.9790 C   0  0  0  0  0  0  0  0  0  0  0  0
  158.8180  210.6420  156.6240 C   0  0  0  0  0  3  0  0  0  0  0  0
  158.5440  211.8700  154.5440 C   0  0  0  0  0  3  0  0  0  0  0  0
  161.4120  209.8480  148.9520 O   0  0  0  0  0  0  0  0  0  0  0  0
  162.0550  210.8850  148.2740 C   0  0  0  0  0  2  0  0  0  0  0  0
  161.7100  212.2070  148.9290 C   0  0  0  0  0  2  0  0  0  0  0  0
  162.3220  213.3380  148.1310 C   0  0  0  0  0  1  0  0  0  0  0  0
  160.2270  205.3390  150.0970 C   0  0  0  0  0  2  0  0  0  0  0  0
  161.3230  204.2850  150.1980 C   0  0  0  0  0  2  0  0  0  0  0  0
  160.7410  202.8910  150.4270 C   0  0  0  0  0  2  0  0  0  0  0  0
  161.5330  201.1200  149.0660 F   0  0  0  0  0  0  0  0  0  0  0  0
  159.3060  201.4740  149.0940 O   0  0  0  0  0  1  0  0  0  0  0  0
  160.5580  202.1000  149.1230 C   0  0  1  0  0  0  0  0  0  0  0  0
  160.7240  202.9400  147.9970 O   0  0  0  0  0  0  0  0  0  0  0  0
  161.5690  203.0830  145.7210 C   0  0  2  0  0  3  0  0  0  0  0  0
  160.4100  202.1090  145.7790 C   0  0  0  0  0  2  0  0  0  0  0  0
  161.3510  202.2180  146.9610 C   0  0  2  0  0  3  0  0  0  0  0  0
  161.0960  204.3840  145.9120 O   0  0  0  0  0  0  0  0  0  0  0  0
  160.9950  204.9140  144.6260 C   0  0  0  0  0  1  0  0  0  0  0  0
  2 21  1  1  0  0  0
  2  1  1  0  0  0  0
  3  1  1  0  0  0  0
  3  7  1  1  0  0  0
  4 17  1  6  0  0  0
  4  3  1  0  0  0  0
  5  6  1  0  0  0  0
  5  4  1  0  0  0  0
  6  2  1  0  0  0  0
  8  7  1  6  0  0  0
  8 13  1  0  0  0  0
  9 15  1  0  0  0  0
 10  8  1  0  0  0  0
 10 14  1  0  0  0  0
 11 15  2  0  0  0  0
 12 11  1  0  0  0  0
 13 12  1  0  0  0  0
 14 16  1  0  0  0  0
 14 12  2  0  0  0  0
 16  9  2  0  0  0  0
 18 19  1  0  0  0  0
 18 17  1  0  0  0  0
 20 19  1  0  0  0  0
 21 22  1  0  0  0  0
 22 23  1  0  0  0  0
 25 26  1  0  0  0  0
 26 24  1  6  0  0  0
 26 23  1  0  0  0  0
 27 26  1  0  0  0  0
 28 29  1  0  0  0  0
 28 31  1  1  0  0  0
 28 30  1  0  0  0  0
 29 30  1  0  0  0  0
 30 27  1  1  0  0  0
 32 31  1  0  0  0  0
M  END
>  <MODEL>
4

>  <REMARK>
 VINA RESULT:      -6.6      3.940      9.182
  Name = 
  12 active torsions:
  status: ('A' for Active; 'I' for Inactive)
    1  A    between atoms: C_2  and  C_5
    2  A    between atoms: C_2  and  C_6
    3  A    between atoms: C_3  and  O_22
    4  A    between atoms: C_4  and  C_27
    5  A    between atoms: O_7  and  C_19
    6  A    between atoms: O_7  and  C_26
    7  A    between atoms: C_13  and  C_29
    8  A    between atoms: C_14  and  O_18
    9  A    between atoms: O_18  and  C_29
   10  A    between atoms: C_20  and  C_24
   11  A    between atoms: C_20  and  C_26
   12  A    between atoms: C_24  and  C_27
                            x       y       z     vdW  Elec       q    Type
                         _______ _______ _______ _____ _____    ______ ____

>  <TORSDO>
F 12

$$$$
=
 OpenBabel11062408323D

 32 35  0  0  1  0  0  0  0  0999 V2000
  161.3860  208.5480  150.2510 C   0  0  0  0  0  2  0  0  0  0  0  0
  161.8440  210.0070  150.3380 C   0  0  1  0  0  3  0  0  0  0  0  0
  161.6790  207.7760  151.5410 C   0  0  1  0  0  3  0  0  0  0  0  0
  161.5150  208.6640  152.7880 C   0  0  1  0  0  3  0  0  0  0  0  0
  162.3350  209.9630  152.6690 C   0  0  0  0  0  2  0  0  0  0  0  0
  162.9060  210.1580  151.3320 N   0  0  0  0  0  2  0  0  0  0  0  0
  160.8290  206.5130  151.6040 C   0  0  0  0  0  2  0  0  0  0  0  0
  161.4960  205.3640  150.8660 C   0  0  2  0  0  3  0  0  0  0  0  0
  161.1140  201.5890  147.8830 C   0  0  0  0  0  3  0  0  0  0  0  0
  161.2270  205.5040  149.0560 S   0  0  0  0  0  0  0  0  0  0  0  0
  160.8740  201.7240  150.2990 C   0  0  0  0  0  3  0  0  0  0  0  0
  160.9710  203.1150  150.2070 C   0  0  0  0  0  0  0  0  0  0  0  0
  160.9400  204.0320  151.3670 C   0  0  0  0  0  2  0  0  0  0  0  0
  161.1180  203.7340  148.9840 C   0  0  0  0  0  0  0  0  0  0  0  0
  160.9450  200.9600  149.1260 C   0  0  0  0  0  3  0  0  0  0  0  0
  161.2060  202.9860  147.8080 C   0  0  0  0  0  3  0  0  0  0  0  0
  160.1680  208.9830  152.9940 O   0  0  0  0  0  0  0  0  0  0  0  0
  160.1870  210.1940  153.6880 C   0  0  0  0  0  2  0  0  0  0  0  0
  159.0450  211.0670  153.2110 C   0  0  0  0  0  2  0  0  0  0  0  0
  159.5980  212.2230  152.4070 C   0  0  0  0  0  1  0  0  0  0  0  0
  162.3280  210.4690  148.9730 C   0  0  0  0  0  2  0  0  0  0  0  0
  162.3300  211.9900  148.8720 C   0  0  0  0  0  2  0  0  0  0  0  0
  162.4460  212.4560  147.4220 C   0  0  0  0  0  2  0  0  0  0  0  0
  160.0970  212.1630  147.2980 F   0  0  0  0  0  0  0  0  0  0  0  0
  160.8650  214.2830  147.3190 O   0  0  0  0  0  1  0  0  0  0  0  0
  161.1190  212.9850  146.8580 C   0  0  1  0  0  0  0  0  0  0  0  0
  161.1230  212.9490  145.4440 O   0  0  0  0  0  0  0  0  0  0  0  0
  160.0780  211.8700  143.5310 C   0  0  2  0  0  3  0  0  0  0  0  0
  159.3290  213.1400  143.8790 C   0  0  0  0  0  2  0  0  0  0  0  0
  159.9500  212.3160  144.9870 C   0  0  2  0  0  3  0  0  0  0  0  0
  161.3300  212.1960  143.0020 O   0  0  0  0  0  0  0  0  0  0  0  0
  161.0460  212.8690  141.8140 C   0  0  0  0  0  1  0  0  0  0  0  0
  1  2  1  0  0  0  0
  1  3  1  0  0  0  0
  2 21  1  6  0  0  0
  2  6  1  0  0  0  0
  3  7  1  1  0  0  0
  3  4  1  0  0  0  0
  4 17  1  6  0  0  0
  5  4  1  0  0  0  0
  6  5  1  0  0  0  0
  8 13  1  0  0  0  0
  8  7  1  1  0  0  0
  9 15  1  0  0  0  0
 10  8  1  0  0  0  0
 12 11  1  0  0  0  0
 12 13  1  0  0  0  0
 14 10  1  0  0  0  0
 14 12  2  0  0  0  0
 15 11  2  0  0  0  0
 16  9  2  0  0  0  0
 16 14  1  0  0  0  0
 17 18  1  0  0  0  0
 19 18  1  0  0  0  0
 20 19  1  0  0  0  0
 22 21  1  0  0  0  0
 23 22  1  0  0  0  0
 26 24  1  1  0  0  0
 26 25  1  0  0  0  0
 26 23  1  0  0  0  0
 27 26  1  0  0  0  0
 28 31  1  6  0  0  0
 28 29  1  0  0  0  0
 28 30  1  0  0  0  0
 29 30  1  0  0  0  0
 30 27  1  6  0  0  0
 32 31  1  0  0  0  0
M  END
>  <MODEL>
5

>  <REMARK>
 VINA RESULT:      -6.5      4.442      6.610
  Name = 
  12 active torsions:
  status: ('A' for Active; 'I' for Inactive)
    1  A    between atoms: C_2  and  C_5
    2  A    between atoms: C_2  and  C_6
    3  A    between atoms: C_3  and  O_22
    4  A    between atoms: C_4  and  C_27
    5  A    between atoms: O_7  and  C_19
    6  A    between atoms: O_7  and  C_26
    7  A    between atoms: C_13  and  C_29
    8  A    between atoms: C_14  and  O_18
    9  A    between atoms: O_18  and  C_29
   10  A    between atoms: C_20  and  C_24
   11  A    between atoms: C_20  and  C_26
   12  A    between atoms: C_24  and  C_27
                            x       y       z     vdW  Elec       q    Type
                         _______ _______ _______ _____ _____    ______ ____

>  <TORSDO>
F 12

$$$$
=
 OpenBabel11062408323D

 32 35  0  0  1  0  0  0  0  0999 V2000
  159.8350  210.7010  152.6620 C   0  0  0  0  0  2  0  0  0  0  0  0
  158.8440  211.4960  153.5170 C   0  0  1  0  0  3  0  0  0  0  0  0
  161.2460  210.7100  153.2610 C   0  0  1  0  0  3  0  0  0  0  0  0
  161.2130  210.6860  154.8000 C   0  0  1  0  0  3  0  0  0  0  0  0
  160.3170  211.8060  155.3630 C   0  0  0  0  0  2  0  0  0  0  0  0
  159.5420  212.4950  154.3260 N   0  0  0  0  0  2  0  0  0  0  0  0
  162.0730  209.5730  152.6740 C   0  0  0  0  0  2  0  0  0  0  0  0
  161.1950  208.5850  151.9220 C   0  0  2  0  0  3  0  0  0  0  0  0
  160.7790  204.4230  149.5150 C   0  0  0  0  0  3  0  0  0  0  0  0
  161.2490  206.9290  152.7110 S   0  0  0  0  0  0  0  0  0  0  0  0
  161.3340  206.6550  148.7260 C   0  0  0  0  0  3  0  0  0  0  0  0
  161.3800  207.0860  150.0540 C   0  0  0  0  0  0  0  0  0  0  0  0
  161.6580  208.4790  150.4690 C   0  0  0  0  0  2  0  0  0  0  0  0
  161.1510  206.2080  151.0920 C   0  0  0  0  0  0  0  0  0  0  0  0
  161.0320  205.3120  148.4600 C   0  0  0  0  0  3  0  0  0  0  0  0
  160.8340  204.8710  150.8430 C   0  0  0  0  0  3  0  0  0  0  0  0
  160.7570  209.4490  155.2660 O   0  0  0  0  0  0  0  0  0  0  0  0
  161.7370  209.0180  156.1620 C   0  0  0  0  0  2  0  0  0  0  0  0
  161.2760  207.7460  156.8420 C   0  0  0  0  0  2  0  0  0  0  0  0
  159.9330  207.3330  156.2780 C   0  0  0  0  0  1  0  0  0  0  0  0
  157.8210  212.1680  152.6150 C   0  0  0  0  0  2  0  0  0  0  0  0
  158.4960  213.0840  151.6010 C   0  0  0  0  0  2  0  0  0  0  0  0
  157.4910  214.0240  150.9370 C   0  0  0  0  0  2  0  0  0  0  0  0
  156.9970  212.3740  149.3090 F   0  0  0  0  0  0  0  0  0  0  0  0
  156.2050  214.4530  148.9360 O   0  0  0  0  0  1  0  0  0  0  0  0
  157.2840  213.7210  149.4450 C   0  0  1  0  0  0  0  0  0  0  0  0
  158.4620  213.9880  148.7100 O   0  0  0  0  0  0  0  0  0  0  0  0
  159.9200  212.6200  147.3240 C   0  0  2  0  0  3  0  0  0  0  0  0
  159.3820  213.7830  146.5150 C   0  0  0  0  0  2  0  0  0  0  0  0
  158.5090  213.1490  147.5780 C   0  0  2  0  0  3  0  0  0  0  0  0
  160.8260  213.0930  148.2770 O   0  0  0  0  0  0  0  0  0  0  0  0
  161.9830  213.3740  147.5530 C   0  0  0  0  0  1  0  0  0  0  0  0
  1  3  1  0  0  0  0
  1  2  1  0  0  0  0
  2 21  1  6  0  0  0
  2  6  1  0  0  0  0
  3  7  1  6  0  0  0
  3  4  1  0  0  0  0
  4 17  1  6  0  0  0
  4  5  1  0  0  0  0
  6  5  1  0  0  0  0
  8  7  1  1  0  0  0
  8 10  1  0  0  0  0
  9 16  1  0  0  0  0
 11 12  2  0  0  0  0
 12 13  1  0  0  0  0
 12 14  1  0  0  0  0
 13  8  1  0  0  0  0
 14 10  1  0  0  0  0
 15 11  1  0  0  0  0
 15  9  2  0  0  0  0
 16 14  2  0  0  0  0
 17 18  1  0  0  0  0
 18 19  1  0  0  0  0
 20 19  1  0  0  0  0
 22 21  1  0  0  0  0
 23 22  1  0  0  0  0
 24 26  1  0  0  0  0
 26 25  1  6  0  0  0
 26 23  1  0  0  0  0
 27 26  1  0  0  0  0
 28 30  1  0  0  0  0
 28 31  1  1  0  0  0
 29 28  1  0  0  0  0
 29 30  1  0  0  0  0
 30 27  1  1  0  0  0
 32 31  1  0  0  0  0
M  END
>  <MODEL>
6

>  <REMARK>
 VINA RESULT:      -6.5      3.616      6.106
  Name = 
  12 active torsions:
  status: ('A' for Active; 'I' for Inactive)
    1  A    between atoms: C_2  and  C_5
    2  A    between atoms: C_2  and  C_6
    3  A    between atoms: C_3  and  O_22
    4  A    between atoms: C_4  and  C_27
    5  A    between atoms: O_7  and  C_19
    6  A    between atoms: O_7  and  C_26
    7  A    between atoms: C_13  and  C_29
    8  A    between atoms: C_14  and  O_18
    9  A    between atoms: O_18  and  C_29
   10  A    between atoms: C_20  and  C_24
   11  A    between atoms: C_20  and  C_26
   12  A    between atoms: C_24  and  C_27
                            x       y       z     vdW  Elec       q    Type
                         _______ _______ _______ _____ _____    ______ ____

>  <TORSDO>
F 12

$$$$
=
 OpenBabel11062408323D

 32 35  0  0  1  0  0  0  0  0999 V2000
  160.7250  208.8190  152.1190 C   0  0  0  0  0  2  0  0  0  0  0  0
  160.9700  210.3090  152.3800 C   0  0  1  0  0  3  0  0  0  0  0  0
  161.4030  207.9330  153.1680 C   0  0  1  0  0  3  0  0  0  0  0  0
  161.3850  208.5840  154.5630 C   0  0  1  0  0  3  0  0  0  0  0  0
  161.9570  210.0140  154.5280 C   0  0  0  0  0  2  0  0  0  0  0  0
  162.1890  210.5030  153.1650 N   0  0  0  0  0  2  0  0  0  0  0  0
  160.7830  206.5410  153.1610 C   0  0  0  0  0  2  0  0  0  0  0  0
  161.4630  205.6420  152.1420 C   0  0  2  0  0  3  0  0  0  0  0  0
  161.1250  202.8290  148.2350 C   0  0  0  0  0  3  0  0  0  0  0  0
  161.2050  206.2720  150.4380 S   0  0  0  0  0  0  0  0  0  0  0  0
  160.8670  202.2950  150.5920 C   0  0  0  0  0  3  0  0  0  0  0  0
  160.9570  203.6570  150.8860 C   0  0  0  0  0  0  0  0  0  0  0  0
  160.9120  204.2200  152.2540 C   0  0  0  0  0  2  0  0  0  0  0  0
  161.1080  204.5890  149.8810 C   0  0  0  0  0  0  0  0  0  0  0  0
  160.9520  201.8820  149.2550 C   0  0  0  0  0  3  0  0  0  0  0  0
  161.2090  204.1930  148.5460 C   0  0  0  0  0  3  0  0  0  0  0  0
  160.0830  208.6180  155.0760 O   0  0  0  0  0  0  0  0  0  0  0  0
  160.0400  209.7640  155.8720 C   0  0  0  0  0  2  0  0  0  0  0  0
  158.6540  210.3710  155.8090 C   0  0  0  0  0  2  0  0  0  0  0  0
  158.6750  211.5790  154.8980 C   0  0  0  0  0  1  0  0  0  0  0  0
  161.0720  211.0460  151.0550 C   0  0  0  0  0  2  0  0  0  0  0  0
  162.2210  210.5090  150.2090 C   0  0  0  0  0  2  0  0  0  0  0  0
  161.9560  210.6980  148.7170 C   0  0  0  0  0  2  0  0  0  0  0  0
  161.8890  213.0370  149.0900 F   0  0  0  0  0  0  0  0  0  0  0  0
  163.7660  212.2010  148.1610 O   0  0  0  0  0  1  0  0  0  0  0  0
  162.3700  212.0870  148.2080 C   0  0  1  0  0  0  0  0  0  0  0  0
  161.8030  212.3480  146.9390 O   0  0  0  0  0  0  0  0  0  0  0  0
  159.7480  212.3450  145.6400 C   0  0  2  0  0  3  0  0  0  0  0  0
  159.7390  213.5060  146.6130 C   0  0  0  0  0  2  0  0  0  0  0  0
  160.4030  212.2040  147.0130 C   0  0  2  0  0  3  0  0  0  0  0  0
  160.6950  212.5810  144.6390 O   0  0  0  0  0  0  0  0  0  0  0  0
  160.0790  212.1520  143.4640 C   0  0  0  0  0  1  0  0  0  0  0  0
  1  2  1  0  0  0  0
  1  3  1  0  0  0  0
  2 21  1  6  0  0  0
  2  6  1  0  0  0  0
  3  7  1  1  0  0  0
  3  4  1  0  0  0  0
  4 17  1  6  0  0  0
  5  4  1  0  0  0  0
  6  5  1  0  0  0  0
  8 13  1  0  0  0  0
  8  7  1  1  0  0  0
  9 16  2  0  0  0  0
  9 15  1  0  0  0  0
 10  8  1  0  0  0  0
 11 12  1  0  0  0  0
 12 13  1  0  0  0  0
 14 10  1  0  0  0  0
 14 12  2  0  0  0  0
 15 11  2  0  0  0  0
 16 14  1  0  0  0  0
 17 18  1  0  0  0  0
 19 18  1  0  0  0  0
 20 19  1  0  0  0  0
 22 21  1  0  0  0  0
 23 22  1  0  0  0  0
 26 25  1  6  0  0  0
 26 23  1  0  0  0  0
 26 24  1  0  0  0  0
 27 26  1  0  0  0  0
 28 31  1  6  0  0  0
 28 29  1  0  0  0  0
 28 30  1  0  0  0  0
 29 30  1  0  0  0  0
 30 27  1  6  0  0  0
 32 31  1  0  0  0  0
M  END
>  <MODEL>
7

>  <REMARK>
 VINA RESULT:      -6.4      3.639      5.962
  Name = 
  12 active torsions:
  status: ('A' for Active; 'I' for Inactive)
    1  A    between atoms: C_2  and  C_5
    2  A    between atoms: C_2  and  C_6
    3  A    between atoms: C_3  and  O_22
    4  A    between atoms: C_4  and  C_27
    5  A    between atoms: O_7  and  C_19
    6  A    between atoms: O_7  and  C_26
    7  A    between atoms: C_13  and  C_29
    8  A    between atoms: C_14  and  O_18
    9  A    between atoms: O_18  and  C_29
   10  A    between atoms: C_20  and  C_24
   11  A    between atoms: C_20  and  C_26
   12  A    between atoms: C_24  and  C_27
                            x       y       z     vdW  Elec       q    Type
                         _______ _______ _______ _____ _____    ______ ____

>  <TORSDO>
F 12

$$$$
=
 OpenBabel11062408323D

 32 35  0  0  1  0  0  0  0  0999 V2000
  161.5900  208.0870  152.1950 C   0  0  0  0  0  2  0  0  0  0  0  0
  161.8740  206.6550  152.6590 C   0  0  1  0  0  3  0  0  0  0  0  0
  160.5350  208.7750  153.0670 C   0  0  1  0  0  3  0  0  0  0  0  0
  160.6460  208.3460  154.5420 C   0  0  1  0  0  3  0  0  0  0  0  0
  160.6350  206.8130  154.6880 C   0  0  0  0  0  2  0  0  0  0  0  0
  160.7350  206.1150  153.4020 N   0  0  0  0  0  2  0  0  0  0  0  0
  160.6080  210.2860  152.8880 C   0  0  0  0  0  2  0  0  0  0  0  0
  159.2200  210.8910  152.7520 C   0  0  2  0  0  3  0  0  0  0  0  0
  156.1400  214.4500  153.8180 C   0  0  0  0  0  3  0  0  0  0  0  0
  159.3080  212.5780  152.0370 S   0  0  0  0  0  0  0  0  0  0  0  0
  156.6370  212.3850  155.0010 C   0  0  0  0  0  3  0  0  0  0  0  0
  157.6760  212.1460  154.0980 C   0  0  0  0  0  0  0  0  0  0  0  0
  158.5420  210.9470  154.1210 C   0  0  0  0  0  2  0  0  0  0  0  0
  157.9570  213.0430  153.0890 C   0  0  0  0  0  0  0  0  0  0  0  0
  155.8670  213.5470  154.8570 C   0  0  0  0  0  3  0  0  0  0  0  0
  157.1900  214.1980  152.9230 C   0  0  0  0  0  3  0  0  0  0  0  0
  161.8130  208.8590  155.1190 O   0  0  0  0  0  0  0  0  0  0  0  0
  161.3850  209.5170  156.2730 C   0  0  0  0  0  2  0  0  0  0  0  0
  162.0400  210.8810  156.3490 C   0  0  0  0  0  2  0  0  0  0  0  0
  163.4590  210.7290  156.8550 C   0  0  0  0  0  1  0  0  0  0  0  0
  162.1800  205.7820  151.4530 C   0  0  0  0  0  2  0  0  0  0  0  0
  160.9250  205.0820  150.9440 C   0  0  0  0  0  2  0  0  0  0  0  0
  161.1270  203.5710  150.8450 C   0  0  0  0  0  2  0  0  0  0  0  0
  161.9520  202.2110  149.0880 F   0  0  0  0  0  0  0  0  0  0  0  0
  159.7160  202.2660  149.3770 O   0  0  0  0  0  1  0  0  0  0  0  0
  160.8900  203.0290  149.4270 C   0  0  1  0  0  0  0  0  0  0  0  0
  160.8400  204.0850  148.4860 O   0  0  0  0  0  0  0  0  0  0  0  0
  162.3060  205.3480  147.0130 C   0  0  2  0  0  3  0  0  0  0  0  0
  161.5130  204.3380  146.2080 C   0  0  0  0  0  2  0  0  0  0  0  0
  161.9460  203.9910  147.6180 C   0  0  2  0  0  3  0  0  0  0  0  0
  161.4520  206.3570  147.4680 O   0  0  0  0  0  0  0  0  0  0  0  0
  162.3020  207.3190  148.0100 C   0  0  0  0  0  1  0  0  0  0  0  0
  1  2  1  0  0  0  0
  1  3  1  0  0  0  0
  2 21  1  6  0  0  0
  2  6  1  0  0  0  0
  3  7  1  1  0  0  0
  3  4  1  0  0  0  0
  4  5  1  0  0  0  0
  4 17  1  6  0  0  0
  6  5  1  0  0  0  0
  8  7  1  1  0  0  0
  8 13  1  0  0  0  0
  9 15  1  0  0  0  0
 10  8  1  0  0  0  0
 10 14  1  0  0  0  0
 12 13  1  0  0  0  0
 12 11  1  0  0  0  0
 14 12  2  0  0  0  0
 15 11  2  0  0  0  0
 16 14  1  0  0  0  0
 16  9  2  0  0  0  0
 17 18  1  0  0  0  0
 18 19  1  0  0  0  0
 19 20  1  0  0  0  0
 22 21  1  0  0  0  0
 23 22  1  0  0  0  0
 25 26  1  0  0  0  0
 26 24  1  6  0  0  0
 26 23  1  0  0  0  0
 27 26  1  0  0  0  0
 28 31  1  1  0  0  0
 28 30  1  0  0  0  0
 29 28  1  0  0  0  0
 29 30  1  0  0  0  0
 30 27  1  1  0  0  0
 31 32  1  0  0  0  0
M  END
>  <MODEL>
8

>  <REMARK>
 VINA RESULT:      -6.4      3.469      9.228
  Name = 
  12 active torsions:
  status: ('A' for Active; 'I' for Inactive)
    1  A    between atoms: C_2  and  C_5
    2  A    between atoms: C_2  and  C_6
    3  A    between atoms: C_3  and  O_22
    4  A    between atoms: C_4  and  C_27
    5  A    between atoms: O_7  and  C_19
    6  A    between atoms: O_7  and  C_26
    7  A    between atoms: C_13  and  C_29
    8  A    between atoms: C_14  and  O_18
    9  A    between atoms: O_18  and  C_29
   10  A    between atoms: C_20  and  C_24
   11  A    between atoms: C_20  and  C_26
   12  A    between atoms: C_24  and  C_27
                            x       y       z     vdW  Elec       q    Type
                         _______ _______ _______ _____ _____    ______ ____

>  <TORSDO>
F 12

$$$$
=
 OpenBabel11062408323D

 32 35  0  0  1  0  0  0  0  0999 V2000
  162.1650  207.2750  150.2510 C   0  0  0  0  0  2  0  0  0  0  0  0
  162.1810  207.3350  148.7200 C   0  0  1  0  0  3  0  0  0  0  0  0
  160.9620  206.4900  150.7820 C   0  0  1  0  0  3  0  0  0  0  0  0
  160.6000  205.3090  149.8640 C   0  0  1  0  0  3  0  0  0  0  0  0
  160.4190  205.7630  148.4030 C   0  0  0  0  0  2  0  0  0  0  0  0
  160.8340  207.1520  148.1810 N   0  0  0  0  0  2  0  0  0  0  0  0
  161.2100  206.0600  152.2230 C   0  0  0  0  0  2  0  0  0  0  0  0
  161.4870  207.2590  153.1140 C   0  0  2  0  0  3  0  0  0  0  0  0
  159.8000  210.7620  155.9740 C   0  0  0  0  0  3  0  0  0  0  0  0
  160.8320  206.9830  154.8060 S   0  0  0  0  0  0  0  0  0  0  0  0
  160.1520  210.7190  153.5690 C   0  0  0  0  0  3  0  0  0  0  0  0
  160.4560  209.3590  153.6620 C   0  0  0  0  0  0  0  0  0  0  0  0
  160.8480  208.5120  152.5140 C   0  0  0  0  0  2  0  0  0  0  0  0
  160.4160  208.7070  154.8760 C   0  0  0  0  0  0  0  0  0  0  0  0
  159.8210  211.4220  154.7360 C   0  0  0  0  0  3  0  0  0  0  0  0
  160.1030  209.3950  156.0490 C   0  0  0  0  0  3  0  0  0  0  0  0
  161.5850  204.3170  149.9230 O   0  0  0  0  0  0  0  0  0  0  0  0
  161.2460  203.4130  148.9150 C   0  0  0  0  0  2  0  0  0  0  0  0
  160.8210  202.0990  149.5370 C   0  0  0  0  0  2  0  0  0  0  0  0
  161.2080  200.9600  148.6180 C   0  0  0  0  0  1  0  0  0  0  0  0
  162.7540  208.6690  148.2700 C   0  0  0  0  0  2  0  0  0  0  0  0
  161.9540  209.8350  148.8410 C   0  0  0  0  0  2  0  0  0  0  0  0
  162.6580  211.1690  148.6000 C   0  0  0  0  0  2  0  0  0  0  0  0
  161.0160  212.6850  149.3910 F   0  0  0  0  0  0  0  0  0  0  0  0
  162.3770  213.4140  147.7460 O   0  0  0  0  0  1  0  0  0  0  0  0
  161.6830  212.3020  148.2410 C   0  0  1  0  0  0  0  0  0  0  0  0
  160.7170  211.8580  147.3080 O   0  0  0  0  0  0  0  0  0  0  0  0
  159.1830  213.2530  146.0370 C   0  0  2  0  0  3  0  0  0  0  0  0
  159.7890  212.1980  145.1340 C   0  0  0  0  0  2  0  0  0  0  0  0
  160.6230  212.7880  146.2530 C   0  0  2  0  0  3  0  0  0  0  0  0
  158.3050  212.6460  146.9400 O   0  0  0  0  0  0  0  0  0  0  0  0
  157.0540  212.7450  146.3350 C   0  0  0  0  0  1  0  0  0  0  0  0
  1  3  1  0  0  0  0
  2 21  1  1  0  0  0
  2  1  1  0  0  0  0
  3  7  1  1  0  0  0
  4 17  1  6  0  0  0
  4  3  1  0  0  0  0
  5  4  1  0  0  0  0
  6  5  1  0  0  0  0
  6  2  1  0  0  0  0
  8  7  1  6  0  0  0
  8 10  1  0  0  0  0
  9 16  1  0  0  0  0
 10 14  1  0  0  0  0
 11 12  2  0  0  0  0
 11 15  1  0  0  0  0
 12 14  1  0  0  0  0
 13  8  1  0  0  0  0
 13 12  1  0  0  0  0
 14 16  2  0  0  0  0
 15  9  2  0  0  0  0
 18 19  1  0  0  0  0
 18 17  1  0  0  0  0
 20 19  1  0  0  0  0
 21 22  1  0  0  0  0
 23 22  1  0  0  0  0
 26 25  1  6  0  0  0
 26 23  1  0  0  0  0
 26 24  1  0  0  0  0
 27 26  1  0  0  0  0
 28 30  1  0  0  0  0
 28 31  1  1  0  0  0
 29 28  1  0  0  0  0
 29 30  1  0  0  0  0
 30 27  1  1  0  0  0
 32 31  1  0  0  0  0
M  END
>  <MODEL>
9

>  <REMARK>
 VINA RESULT:      -6.3      3.823      7.373
  Name = 
  12 active torsions:
  status: ('A' for Active; 'I' for Inactive)
    1  A    between atoms: C_2  and  C_5
    2  A    between atoms: C_2  and  C_6
    3  A    between atoms: C_3  and  O_22
    4  A    between atoms: C_4  and  C_27
    5  A    between atoms: O_7  and  C_19
    6  A    between atoms: O_7  and  C_26
    7  A    between atoms: C_13  and  C_29
    8  A    between atoms: C_14  and  O_18
    9  A    between atoms: O_18  and  C_29
   10  A    between atoms: C_20  and  C_24
   11  A    between atoms: C_20  and  C_26
   12  A    between atoms: C_24  and  C_27
                            x       y       z     vdW  Elec       q    Type
                         _______ _______ _______ _____ _____    ______ ____

>  <TORSDO>
F 12

$$$$
