=
 OpenBabel11062410023D

 43 47  0  0  1  0  0  0  0  0999 V2000
  160.4350  207.6320  155.9070 C   0  0  0  0  0  0  0  0  0  0  0  0
  161.7810  209.8560  151.6610 C   0  0  0  0  0  0  0  0  0  0  0  0
  161.8120  208.6700  149.8900 C   0  0  0  0  0  0  0  0  0  0  0  0
  161.1320  209.2110  154.2760 C   0  0  0  0  0  0  0  0  0  0  0  0
  160.3690  206.6220  154.9410 C   0  0  0  0  0  3  0  0  0  0  0  0
  160.1110  207.3390  157.2610 N   0  0  0  0  0  1  0  0  0  0  0  0
  161.0770  208.2120  153.2710 C   0  0  0  0  0  0  0  0  0  0  0  0
  160.8120  208.8930  155.5590 N   0  0  0  0  0  0  0  0  0  0  0  0
  160.6920  206.9140  153.6130 C   0  0  0  0  0  3  0  0  0  0  0  0
  161.4230  207.8040  150.8650 N   0  0  0  0  0  0  0  0  0  0  0  0
  161.4140  208.5770  151.9680 C   0  0  0  0  0  0  0  0  0  0  0  0
  161.8430  210.8680  152.6200 C   0  0  0  0  0  3  0  0  0  0  0  0
  162.0280  209.9290  150.3450 N   0  0  0  0  0  0  0  0  0  0  0  0
  161.5130  210.5300  153.9450 C   0  0  0  0  0  3  0  0  0  0  0  0
  161.9750  208.2670  148.4600 C   0  0  1  0  0  3  0  0  0  0  0  0
  163.0280  208.9830  147.8880 O   0  0  0  0  0  1  0  0  0  0  0  0
  162.2390  206.7710  148.3600 C   0  0  0  0  0  2  0  0  0  0  0  0
  161.0650  206.0920  147.8340 N   0  0  0  0  0  2  0  0  0  0  0  0
  161.0570  206.2730  146.3870 C   0  0  0  0  0  2  0  0  0  0  0  0
  161.6880  205.0770  145.6650 C   0  0  0  0  0  0  0  0  0  0  0  0
  163.1750  205.0100  145.9880 C   0  0  0  0  0  1  0  0  0  0  0  0
  161.5160  205.2370  144.1610 C   0  0  0  0  0  1  0  0  0  0  0  0
  161.0130  203.7800  146.1430 C   0  0  1  0  0  3  0  0  0  0  0  0
  160.8890  202.8600  145.0960 O   0  0  0  0  0  0  0  0  0  0  0  0
  159.5610  202.9640  144.6810 C   0  0  0  0  0  1  0  0  0  0  0  0
  161.7350  203.1960  147.1920 O   0  0  0  0  0  0  0  0  0  0  0  0
  160.8010  202.4220  147.8860 C   0  0  0  0  0  2  0  0  0  0  0  0
  160.9010  202.7020  149.3430 C   0  0  0  0  0  0  0  0  0  0  0  0
  161.2290  201.9210  151.6120 C   0  0  0  0  0  3  0  0  0  0  0  0
  160.7870  204.2650  151.1910 C   0  0  0  0  0  3  0  0  0  0  0  0
  161.0470  203.2230  152.0870 C   0  0  0  0  0  3  0  0  0  0  0  0
  160.7120  204.0050  149.8190 C   0  0  0  0  0  3  0  0  0  0  0  0
  161.1540  201.6590  150.2400 C   0  0  0  0  0  3  0  0  0  0  0  0
  162.3950  211.1060  149.5610 C   0  0  0  0  0  2  0  0  0  0  0  0
  161.1560  211.8760  149.1140 C   0  0  0  0  0  2  0  0  0  0  0  0
  160.3090  212.5940  145.4910 C   0  0  0  0  0  3  0  0  0  0  0  0
  161.5140  213.1450  145.0230 C   0  0  0  0  0  0  0  0  0  0  0  0
  162.4760  212.8820  147.2360 C   0  0  0  0  0  3  0  0  0  0  0  0
  160.1920  212.1910  146.8240 C   0  0  0  0  0  3  0  0  0  0  0  0
  161.2750  212.3350  147.6980 C   0  0  0  0  0  0  0  0  0  0  0  0
  162.5910  213.2900  145.9050 C   0  0  0  0  0  3  0  0  0  0  0  0
  162.2100  212.7050  142.6900 C   0  0  0  0  0  1  0  0  0  0  0  0
  161.6670  213.5510  143.6960 O   0  0  0  0  0  0  0  0  0  0  0  0
  1  6  1  0  0  0  0
  2 11  2  0  0  0  0
  2 12  1  0  0  0  0
  3 13  1  0  0  0  0
  3 10  2  0  0  0  0
  4  8  2  0  0  0  0
  5  1  2  0  0  0  0
  7  9  2  0  0  0  0
  7  4  1  0  0  0  0
  8  1  1  0  0  0  0
  9  5  1  0  0  0  0
 10 11  1  0  0  0  0
 11  7  1  0  0  0  0
 12 14  2  0  0  0  0
 13  2  1  0  0  0  0
 14  4  1  0  0  0  0
 15 16  1  1  0  0  0
 15  3  1  0  0  0  0
 17 15  1  0  0  0  0
 18 17  1  0  0  0  0
 19 18  1  0  0  0  0
 20 21  1  0  0  0  0
 20 23  1  0  0  0  0
 20 19  1  0  0  0  0
 22 20  1  0  0  0  0
 23 24  1  6  0  0  0
 23 26  1  0  0  0  0
 25 24  1  0  0  0  0
 26 27  1  0  0  0  0
 27 28  1  0  0  0  0
 28 32  2  0  0  0  0
 28 33  1  0  0  0  0
 29 31  1  0  0  0  0
 30 31  2  0  0  0  0
 32 30  1  0  0  0  0
 33 29  2  0  0  0  0
 34 13  1  0  0  0  0
 35 34  1  0  0  0  0
 36 39  1  0  0  0  0
 37 36  2  0  0  0  0
 37 41  1  0  0  0  0
 38 40  1  0  0  0  0
 39 40  2  0  0  0  0
 40 35  1  0  0  0  0
 41 38  2  0  0  0  0
 42 43  1  0  0  0  0
 43 37  1  0  0  0  0
M  END
>  <MODEL>
1

>  <REMARK>
 VINA RESULT:      -7.8      0.000      0.000
  Name = 
  14 active torsions:
  status: ('A' for Active; 'I' for Inactive)
    1  A    between atoms: C_1  and  C_35
    2  A    between atoms: C_1  and  C_38
    3  A    between atoms: C_2  and  C_6
    4  A    between atoms: C_2  and  C_13
    5  A    between atoms: C_3  and  C_4
    6  A    between atoms: C_3  and  N_17
    7  A    between atoms: C_4  and  C_22
    8  A    between atoms: C_6  and  N_17
    9  A    between atoms: O_10  and  C_22
   10  A    between atoms: C_11  and  C_41
   11  A    between atoms: O_14  and  C_22
   12  A    between atoms: O_14  and  C_41
   13  A    between atoms: C_19  and  O_37
   14  A    between atoms: N_34  and  C_38
                            x       y       z     vdW  Elec       q    Type
                         _______ _______ _______ _____ _____    ______ ____

>  <TORSDO>
F 14

$$$$
=
 OpenBabel11062410023D

 43 47  0  0  1  0  0  0  0  0999 V2000
  160.7050  201.7700  146.1590 C   0  0  0  0  0  0  0  0  0  0  0  0
  161.4240  204.7010  150.1190 C   0  0  0  0  0  0  0  0  0  0  0  0
  161.6420  206.7930  149.7740 C   0  0  0  0  0  0  0  0  0  0  0  0
  161.0070  202.5980  148.3650 C   0  0  0  0  0  0  0  0  0  0  0  0
  160.8180  203.0600  145.6300 C   0  0  0  0  0  3  0  0  0  0  0  0
  160.4920  200.6640  145.2900 N   0  0  0  0  0  1  0  0  0  0  0  0
  161.1280  203.9190  147.8620 C   0  0  0  0  0  0  0  0  0  0  0  0
  160.8010  201.5660  147.5020 N   0  0  0  0  0  0  0  0  0  0  0  0
  161.0310  204.1420  146.4870 C   0  0  0  0  0  3  0  0  0  0  0  0
  161.4730  206.2660  148.5310 N   0  0  0  0  0  0  0  0  0  0  0  0
  161.3390  204.9480  148.7780 C   0  0  0  0  0  0  0  0  0  0  0  0
  161.3070  203.4170  150.6520 C   0  0  0  0  0  3  0  0  0  0  0  0
  161.6080  205.8630  150.7600 N   0  0  0  0  0  0  0  0  0  0  0  0
  161.0970  202.3550  149.7530 C   0  0  0  0  0  3  0  0  0  0  0  0
  161.8390  208.2550  150.0180 C   0  0  1  0  0  3  0  0  0  0  0  0
  162.8480  208.4400  150.9650 O   0  0  0  0  0  1  0  0  0  0  0  0
  162.1970  208.9630  148.7200 C   0  0  0  0  0  2  0  0  0  0  0  0
  162.0800  210.4030  148.8900 N   0  0  0  0  0  2  0  0  0  0  0  0
  161.2690  210.9170  147.7910 C   0  0  0  0  0  2  0  0  0  0  0  0
  161.1770  212.4460  147.8240 C   0  0  0  0  0  0  0  0  0  0  0  0
  162.3670  213.0470  147.0870 C   0  0  0  0  0  1  0  0  0  0  0  0
  161.1930  212.9310  149.2670 C   0  0  0  0  0  1  0  0  0  0  0  0
  159.8800  212.8930  147.1250 C   0  0  1  0  0  3  0  0  0  0  0  0
  159.1740  213.8100  147.9110 O   0  0  0  0  0  0  0  0  0  0  0  0
  157.8790  213.2950  147.9890 C   0  0  0  0  0  1  0  0  0  0  0  0
  160.1550  213.4640  145.8760 O   0  0  0  0  0  0  0  0  0  0  0  0
  159.5160  212.6320  144.9520 C   0  0  0  0  0  2  0  0  0  0  0  0
  160.3140  212.5690  143.6990 C   0  0  0  0  0  0  0  0  0  0  0  0
  160.4310  212.2600  141.2990 C   0  0  0  0  0  3  0  0  0  0  0  0
  162.4580  212.6330  142.5720 C   0  0  0  0  0  3  0  0  0  0  0  0
  161.8200  212.4090  141.3470 C   0  0  0  0  0  3  0  0  0  0  0  0
  161.7050  212.7110  143.7480 C   0  0  0  0  0  3  0  0  0  0  0  0
  159.6770  212.3380  142.4750 C   0  0  0  0  0  3  0  0  0  0  0  0
  161.6990  206.0940  152.2000 C   0  0  0  0  0  2  0  0  0  0  0  0
  160.4460  206.7880  152.7250 C   0  0  0  0  0  2  0  0  0  0  0  0
  161.1640  210.0330  154.5450 C   0  0  0  0  0  3  0  0  0  0  0  0
  161.4310  209.5740  155.8460 C   0  0  0  0  0  0  0  0  0  0  0  0
  161.0330  207.2960  155.1070 C   0  0  0  0  0  3  0  0  0  0  0  0
  160.8350  209.1260  153.5340 C   0  0  0  0  0  3  0  0  0  0  0  0
  160.7690  207.7570  153.8140 C   0  0  0  0  0  0  0  0  0  0  0  0
  161.3580  208.2040  156.1190 C   0  0  0  0  0  3  0  0  0  0  0  0
  163.1150  210.7060  157.2600 C   0  0  0  0  0  1  0  0  0  0  0  0
  161.7700  210.4530  156.8770 O   0  0  0  0  0  0  0  0  0  0  0  0
  1  8  1  0  0  0  0
  2 12  1  0  0  0  0
  2 13  1  0  0  0  0
  3 15  1  0  0  0  0
  3 13  1  0  0  0  0
  4 14  1  0  0  0  0
  5  1  2  0  0  0  0
  5  9  1  0  0  0  0
  6  1  1  0  0  0  0
  7  4  1  0  0  0  0
  7 11  1  0  0  0  0
  8  4  2  0  0  0  0
  9  7  2  0  0  0  0
 10 11  1  0  0  0  0
 10  3  2  0  0  0  0
 11  2  2  0  0  0  0
 13 34  1  0  0  0  0
 14 12  2  0  0  0  0
 15 16  1  1  0  0  0
 17 18  1  0  0  0  0
 17 15  1  0  0  0  0
 19 20  1  0  0  0  0
 19 18  1  0  0  0  0
 20 22  1  0  0  0  0
 21 20  1  0  0  0  0
 23 26  1  6  0  0  0
 23 20  1  0  0  0  0
 23 24  1  0  0  0  0
 24 25  1  0  0  0  0
 27 26  1  0  0  0  0
 28 32  1  0  0  0  0
 28 27  1  0  0  0  0
 29 31  2  0  0  0  0
 29 33  1  0  0  0  0
 30 32  2  0  0  0  0
 31 30  1  0  0  0  0
 33 28  2  0  0  0  0
 34 35  1  0  0  0  0
 35 40  1  0  0  0  0
 36 37  1  0  0  0  0
 37 41  2  0  0  0  0
 37 43  1  0  0  0  0
 38 41  1  0  0  0  0
 39 40  1  0  0  0  0
 39 36  2  0  0  0  0
 40 38  2  0  0  0  0
 43 42  1  0  0  0  0
M  END
>  <MODEL>
2

>  <REMARK>
 VINA RESULT:      -7.7      2.542      9.391
  Name = 
  14 active torsions:
  status: ('A' for Active; 'I' for Inactive)
    1  A    between atoms: C_1  and  C_35
    2  A    between atoms: C_1  and  C_38
    3  A    between atoms: C_2  and  C_6
    4  A    between atoms: C_2  and  C_13
    5  A    between atoms: C_3  and  C_4
    6  A    between atoms: C_3  and  N_17
    7  A    between atoms: C_4  and  C_22
    8  A    between atoms: C_6  and  N_17
    9  A    between atoms: O_10  and  C_22
   10  A    between atoms: C_11  and  C_41
   11  A    between atoms: O_14  and  C_22
   12  A    between atoms: O_14  and  C_41
   13  A    between atoms: C_19  and  O_37
   14  A    between atoms: N_34  and  C_38
                            x       y       z     vdW  Elec       q    Type
                         _______ _______ _______ _____ _____    ______ ____

>  <TORSDO>
F 14

$$$$
=
 OpenBabel11062410023D

 43 47  0  0  1  0  0  0  0  0999 V2000
  161.1350  202.4300  147.3870 C   0  0  0  0  0  0  0  0  0  0  0  0
  161.0720  206.0460  150.8100 C   0  0  0  0  0  0  0  0  0  0  0  0
  161.5470  208.0220  150.1690 C   0  0  0  0  0  0  0  0  0  0  0  0
  160.9370  203.6580  149.4100 C   0  0  0  0  0  0  0  0  0  0  0  0
  161.4880  203.5890  146.6870 C   0  0  0  0  0  3  0  0  0  0  0  0
  161.0570  201.1850  146.7040 N   0  0  0  0  0  1  0  0  0  0  0  0
  161.2930  204.8520  148.7320 C   0  0  0  0  0  0  0  0  0  0  0  0
  160.8700  202.4880  148.7210 N   0  0  0  0  0  0  0  0  0  0  0  0
  161.5670  204.8080  147.3630 C   0  0  0  0  0  3  0  0  0  0  0  0
  161.6540  207.2710  149.0400 N   0  0  0  0  0  0  0  0  0  0  0  0
  161.3510  206.0310  149.4730 C   0  0  0  0  0  0  0  0  0  0  0  0
  160.7140  204.8940  151.5120 C   0  0  0  0  0  3  0  0  0  0  0  0
  161.1840  207.3030  151.2600 N   0  0  0  0  0  0  0  0  0  0  0  0
  160.6500  203.6860  150.7930 C   0  0  0  0  0  3  0  0  0  0  0  0
  161.7980  209.4960  150.1940 C   0  0  1  0  0  3  0  0  0  0  0  0
  162.9550  209.7610  150.9280 O   0  0  0  0  0  1  0  0  0  0  0  0
  161.9390  210.0300  148.7750 C   0  0  0  0  0  2  0  0  0  0  0  0
  162.2180  211.4570  148.8070 N   0  0  0  0  0  2  0  0  0  0  0  0
  161.1300  212.1080  149.5270 C   0  0  0  0  0  2  0  0  0  0  0  0
  160.7470  213.4460  148.8840 C   0  0  0  0  0  0  0  0  0  0  0  0
  161.9230  213.9830  148.0790 C   0  0  0  0  0  1  0  0  0  0  0  0
  160.3890  214.4530  149.9680 C   0  0  0  0  0  1  0  0  0  0  0  0
  159.5510  213.2330  147.9390 C   0  0  1  0  0  3  0  0  0  0  0  0
  158.4310  213.9510  148.3730 O   0  0  0  0  0  0  0  0  0  0  0  0
  157.3360  213.2580  147.8530 C   0  0  0  0  0  1  0  0  0  0  0  0
  159.8720  213.6150  146.6300 O   0  0  0  0  0  0  0  0  0  0  0  0
  159.6160  212.4840  145.8510 C   0  0  0  0  0  2  0  0  0  0  0  0
  160.5060  212.4830  144.6600 C   0  0  0  0  0  0  0  0  0  0  0  0
  160.9030  211.9210  142.3380 C   0  0  0  0  0  3  0  0  0  0  0  0
  162.6460  212.9840  143.6420 C   0  0  0  0  0  3  0  0  0  0  0  0
  162.1960  212.4450  142.4320 C   0  0  0  0  0  3  0  0  0  0  0  0
  161.8020  213.0010  144.7570 C   0  0  0  0  0  3  0  0  0  0  0  0
  160.0580  211.9380  143.4530 C   0  0  0  0  0  3  0  0  0  0  0  0
  160.9260  207.8040  152.6080 C   0  0  0  0  0  2  0  0  0  0  0  0
  161.2000  209.3030  152.6980 C   0  0  0  0  0  2  0  0  0  0  0  0
  159.0520  210.3340  155.6430 C   0  0  0  0  0  3  0  0  0  0  0  0
  158.1910  211.2730  155.0510 C   0  0  0  0  0  0  0  0  0  0  0  0
  159.3120  210.9350  152.9240 C   0  0  0  0  0  3  0  0  0  0  0  0
  160.0350  209.7010  154.8790 C   0  0  0  0  0  3  0  0  0  0  0  0
  160.1670  210.0020  153.5180 C   0  0  0  0  0  0  0  0  0  0  0  0
  158.3320  211.5710  153.6910 C   0  0  0  0  0  3  0  0  0  0  0  0
  157.4590  213.0160  156.6460 C   0  0  0  0  0  1  0  0  0  0  0  0
  157.1930  211.9170  155.7850 O   0  0  0  0  0  0  0  0  0  0  0  0
  1  8  1  0  0  0  0
  2 13  1  0  0  0  0
  2 12  1  0  0  0  0
  3 15  1  0  0  0  0
  3 13  1  0  0  0  0
  4 14  1  0  0  0  0
  5  9  1  0  0  0  0
  5  1  2  0  0  0  0
  6  1  1  0  0  0  0
  7  4  1  0  0  0  0
  7 11  1  0  0  0  0
  8  4  2  0  0  0  0
  9  7  2  0  0  0  0
 10 11  1  0  0  0  0
 10  3  2  0  0  0  0
 11  2  2  0  0  0  0
 13 34  1  0  0  0  0
 14 12  2  0  0  0  0
 15 16  1  1  0  0  0
 17 18  1  0  0  0  0
 17 15  1  0  0  0  0
 18 19  1  0  0  0  0
 20 19  1  0  0  0  0
 20 22  1  0  0  0  0
 21 20  1  0  0  0  0
 23 26  1  6  0  0  0
 23 24  1  0  0  0  0
 23 20  1  0  0  0  0
 25 24  1  0  0  0  0
 27 26  1  0  0  0  0
 28 32  1  0  0  0  0
 28 27  1  0  0  0  0
 29 31  2  0  0  0  0
 29 33  1  0  0  0  0
 30 32  2  0  0  0  0
 31 30  1  0  0  0  0
 33 28  2  0  0  0  0
 34 35  1  0  0  0  0
 35 40  1  0  0  0  0
 37 36  1  0  0  0  0
 37 43  1  0  0  0  0
 38 40  2  0  0  0  0
 38 41  1  0  0  0  0
 39 36  2  0  0  0  0
 40 39  1  0  0  0  0
 41 37  2  0  0  0  0
 43 42  1  0  0  0  0
M  END
>  <MODEL>
3

>  <REMARK>
 VINA RESULT:      -7.4      2.782      8.918
  Name = 
  14 active torsions:
  status: ('A' for Active; 'I' for Inactive)
    1  A    between atoms: C_1  and  C_35
    2  A    between atoms: C_1  and  C_38
    3  A    between atoms: C_2  and  C_6
    4  A    between atoms: C_2  and  C_13
    5  A    between atoms: C_3  and  C_4
    6  A    between atoms: C_3  and  N_17
    7  A    between atoms: C_4  and  C_22
    8  A    between atoms: C_6  and  N_17
    9  A    between atoms: O_10  and  C_22
   10  A    between atoms: C_11  and  C_41
   11  A    between atoms: O_14  and  C_22
   12  A    between atoms: O_14  and  C_41
   13  A    between atoms: C_19  and  O_37
   14  A    between atoms: N_34  and  C_38
                            x       y       z     vdW  Elec       q    Type
                         _______ _______ _______ _____ _____    ______ ____

>  <TORSDO>
F 14

$$$$
=
 OpenBabel11062410023D

 43 47  0  0  1  0  0  0  0  0999 V2000
  161.4560  204.1600  147.7180 C   0  0  0  0  0  0  0  0  0  0  0  0
  161.6430  208.3750  150.3610 C   0  0  0  0  0  0  0  0  0  0  0  0
  162.0410  210.1850  149.3090 C   0  0  0  0  0  0  0  0  0  0  0  0
  161.4160  205.7610  149.4720 C   0  0  0  0  0  0  0  0  0  0  0  0
  161.7350  205.1570  146.7770 C   0  0  0  0  0  3  0  0  0  0  0  0
  161.3340  202.8060  147.3000 N   0  0  0  0  0  1  0  0  0  0  0  0
  161.7000  206.7970  148.5450 C   0  0  0  0  0  0  0  0  0  0  0  0
  161.3040  204.4790  149.0330 N   0  0  0  0  0  0  0  0  0  0  0  0
  161.8580  206.4850  147.1940 C   0  0  0  0  0  3  0  0  0  0  0  0
  162.0600  209.2270  148.3430 N   0  0  0  0  0  0  0  0  0  0  0  0
  161.8090  208.0980  149.0340 C   0  0  0  0  0  0  0  0  0  0  0  0
  161.3590  207.3850  151.3030 C   0  0  0  0  0  3  0  0  0  0  0  0
  161.7800  209.6960  150.5460 N   0  0  0  0  0  0  0  0  0  0  0  0
  161.2480  206.0610  150.8420 C   0  0  0  0  0  3  0  0  0  0  0  0
  162.2770  211.6340  149.0240 C   0  0  1  0  0  3  0  0  0  0  0  0
  163.2200  211.7620  148.0020 O   0  0  0  0  0  1  0  0  0  0  0  0
  160.9730  212.3130  148.6270 C   0  0  0  0  0  2  0  0  0  0  0  0
  160.7420  212.1500  147.2000 N   0  0  0  0  0  2  0  0  0  0  0  0
  160.7020  213.4800  146.6020 C   0  0  0  0  0  2  0  0  0  0  0  0
  160.0750  213.4520  145.2040 C   0  0  0  0  0  0  0  0  0  0  0  0
  158.9290  214.4530  145.1360 C   0  0  0  0  0  1  0  0  0  0  0  0
  159.5320  212.0600  144.9120 C   0  0  0  0  0  1  0  0  0  0  0  0
  161.1380  213.8390  144.1610 C   0  0  1  0  0  3  0  0  0  0  0  0
  162.3160  214.2740  144.7790 O   0  0  0  0  0  0  0  0  0  0  0  0
  163.2940  213.3680  144.3650 C   0  0  0  0  0  1  0  0  0  0  0  0
  161.4260  212.7610  143.3140 O   0  0  0  0  0  0  0  0  0  0  0  0
  161.1900  213.2440  142.0240 C   0  0  0  0  0  2  0  0  0  0  0  0
  161.0330  212.1030  141.0830 C   0  0  0  0  0  0  0  0  0  0  0  0
  161.9680  210.1880  139.9330 C   0  0  0  0  0  3  0  0  0  0  0  0
  159.6710  210.8410  139.5260 C   0  0  0  0  0  3  0  0  0  0  0  0
  160.7480  209.9820  139.2810 C   0  0  0  0  0  3  0  0  0  0  0  0
  159.8140  211.9030  140.4260 C   0  0  0  0  0  3  0  0  0  0  0  0
  162.1120  211.2490  140.8320 C   0  0  0  0  0  3  0  0  0  0  0  0
  161.6310  210.4520  151.7870 C   0  0  0  0  0  2  0  0  0  0  0  0
  160.5570  209.8380  152.6790 C   0  0  0  0  0  2  0  0  0  0  0  0
  158.5800  211.9020  155.1670 C   0  0  0  0  0  3  0  0  0  0  0  0
  157.9150  212.8040  154.3210 C   0  0  0  0  0  0  0  0  0  0  0  0
  158.9930  211.7770  152.4040 C   0  0  0  0  0  3  0  0  0  0  0  0
  159.4460  210.9440  154.6330 C   0  0  0  0  0  3  0  0  0  0  0  0
  159.6540  210.8810  153.2500 C   0  0  0  0  0  0  0  0  0  0  0  0
  158.1320  212.7370  152.9400 C   0  0  0  0  0  3  0  0  0  0  0  0
  155.6260  213.5940  154.8300 C   0  0  0  0  0  1  0  0  0  0  0  0
  157.0370  213.7680  154.8220 O   0  0  0  0  0  0  0  0  0  0  0  0
  1  8  1  0  0  0  0
  2 13  1  0  0  0  0
  2 12  1  0  0  0  0
  3 13  1  0  0  0  0
  4 14  1  0  0  0  0
  5  9  1  0  0  0  0
  5  1  2  0  0  0  0
  6  1  1  0  0  0  0
  7 11  1  0  0  0  0
  7  4  1  0  0  0  0
  8  4  2  0  0  0  0
  9  7  2  0  0  0  0
 10 11  1  0  0  0  0
 10  3  2  0  0  0  0
 11  2  2  0  0  0  0
 13 34  1  0  0  0  0
 14 12  2  0  0  0  0
 15 16  1  6  0  0  0
 15  3  1  0  0  0  0
 17 15  1  0  0  0  0
 18 17  1  0  0  0  0
 19 18  1  0  0  0  0
 20 19  1  0  0  0  0
 21 20  1  0  0  0  0
 22 20  1  0  0  0  0
 23 26  1  1  0  0  0
 23 24  1  0  0  0  0
 23 20  1  0  0  0  0
 25 24  1  0  0  0  0
 27 26  1  0  0  0  0
 28 27  1  0  0  0  0
 29 33  2  0  0  0  0
 30 32  1  0  0  0  0
 31 30  2  0  0  0  0
 31 29  1  0  0  0  0
 32 28  2  0  0  0  0
 33 28  1  0  0  0  0
 34 35  1  0  0  0  0
 35 40  1  0  0  0  0
 37 43  1  0  0  0  0
 37 36  2  0  0  0  0
 38 41  2  0  0  0  0
 38 40  1  0  0  0  0
 39 36  1  0  0  0  0
 40 39  2  0  0  0  0
 41 37  1  0  0  0  0
 43 42  1  0  0  0  0
M  END
>  <MODEL>
4

>  <REMARK>
 VINA RESULT:      -7.3      3.103      8.822
  Name = 
  14 active torsions:
  status: ('A' for Active; 'I' for Inactive)
    1  A    between atoms: C_1  and  C_35
    2  A    between atoms: C_1  and  C_38
    3  A    between atoms: C_2  and  C_6
    4  A    between atoms: C_2  and  C_13
    5  A    between atoms: C_3  and  C_4
    6  A    between atoms: C_3  and  N_17
    7  A    between atoms: C_4  and  C_22
    8  A    between atoms: C_6  and  N_17
    9  A    between atoms: O_10  and  C_22
   10  A    between atoms: C_11  and  C_41
   11  A    between atoms: O_14  and  C_22
   12  A    between atoms: O_14  and  C_41
   13  A    between atoms: C_19  and  O_37
   14  A    between atoms: N_34  and  C_38
                            x       y       z     vdW  Elec       q    Type
                         _______ _______ _______ _____ _____    ______ ____

>  <TORSDO>
F 14

$$$$
=
 OpenBabel11062410023D

 43 47  0  0  1  0  0  0  0  0999 V2000
  154.6960  213.8370  156.6090 C   0  0  0  0  0  0  0  0  0  0  0  0
  158.3820  212.7970  153.4280 C   0  0  0  0  0  0  0  0  0  0  0  0
  159.7600  211.2670  153.9780 C   0  0  0  0  0  0  0  0  0  0  0  0
  156.1650  213.8120  154.7430 C   0  0  0  0  0  0  0  0  0  0  0  0
  155.4270  212.8200  157.2320 C   0  0  0  0  0  3  0  0  0  0  0  0
  153.5530  214.3850  157.2540 N   0  0  0  0  0  1  0  0  0  0  0  0
  156.9300  212.7810  155.3470 C   0  0  0  0  0  0  0  0  0  0  0  0
  155.0760  214.3080  155.3890 N   0  0  0  0  0  0  0  0  0  0  0  0
  156.5520  212.2880  156.5970 C   0  0  0  0  0  3  0  0  0  0  0  0
  158.8950  211.3280  155.0250 N   0  0  0  0  0  0  0  0  0  0  0  0
  158.0390  212.3000  154.6530 C   0  0  0  0  0  0  0  0  0  0  0  0
  157.6530  213.8080  152.7990 C   0  0  0  0  0  3  0  0  0  0  0  0
  159.4670  212.1440  152.9860 N   0  0  0  0  0  0  0  0  0  0  0  0
  156.5310  214.3180  153.4760 C   0  0  0  0  0  3  0  0  0  0  0  0
  160.9150  210.3180  153.9290 C   0  0  1  0  0  3  0  0  0  0  0  0
  161.9030  210.7360  154.8230 O   0  0  0  0  0  1  0  0  0  0  0  0
  160.4530  208.9090  154.2740 C   0  0  0  0  0  2  0  0  0  0  0  0
  161.4150  207.9350  153.7800 N   0  0  0  0  0  2  0  0  0  0  0  0
  160.8230  207.2740  152.6220 C   0  0  0  0  0  2  0  0  0  0  0  0
  161.7650  207.2990  151.4140 C   0  0  0  0  0  0  0  0  0  0  0  0
  162.9690  206.4060  151.6840 C   0  0  0  0  0  1  0  0  0  0  0  0
  162.2510  208.7220  151.1710 C   0  0  0  0  0  1  0  0  0  0  0  0
  161.0200  206.7720  150.1760 C   0  0  1  0  0  3  0  0  0  0  0  0
  161.0350  207.7120  149.1390 O   0  0  0  0  0  0  0  0  0  0  0  0
  161.5780  207.0340  148.0460 C   0  0  0  0  0  1  0  0  0  0  0  0
  161.5830  205.5710  149.7240 O   0  0  0  0  0  0  0  0  0  0  0  0
  160.7720  204.5680  150.2620 C   0  0  0  0  0  2  0  0  0  0  0  0
  160.8920  203.3330  149.4420 C   0  0  0  0  0  0  0  0  0  0  0  0
  161.2910  202.2650  147.3050 C   0  0  0  0  0  3  0  0  0  0  0  0
  160.7650  200.9220  149.2510 C   0  0  0  0  0  3  0  0  0  0  0  0
  161.0770  201.0130  147.8900 C   0  0  0  0  0  3  0  0  0  0  0  0
  160.6710  202.0820  150.0270 C   0  0  0  0  0  3  0  0  0  0  0  0
  161.1970  203.4260  148.0800 C   0  0  0  0  0  3  0  0  0  0  0  0
  160.1530  212.3000  151.7060 C   0  0  0  0  0  2  0  0  0  0  0  0
  159.8080  213.6360  151.0570 C   0  0  0  0  0  2  0  0  0  0  0  0
  161.1220  213.5120  147.5050 C   0  0  0  0  0  3  0  0  0  0  0  0
  159.9290  213.4460  146.7650 C   0  0  0  0  0  0  0  0  0  0  0  0
  158.6610  213.4850  148.8340 C   0  0  0  0  0  3  0  0  0  0  0  0
  161.0800  213.5640  148.9010 C   0  0  0  0  0  3  0  0  0  0  0  0
  159.8490  213.5510  149.5670 C   0  0  0  0  0  0  0  0  0  0  0  0
  158.7030  213.4280  147.4390 C   0  0  0  0  0  3  0  0  0  0  0  0
  158.7430  213.4100  144.5940 C   0  0  0  0  0  1  0  0  0  0  0  0
  159.9350  213.4000  145.3690 O   0  0  0  0  0  0  0  0  0  0  0  0
  1  5  1  0  0  0  0
  1  6  1  0  0  0  0
  2 11  1  0  0  0  0
  3 10  2  0  0  0  0
  4  7  1  0  0  0  0
  4  8  1  0  0  0  0
  7  9  1  0  0  0  0
  8  1  2  0  0  0  0
  9  5  2  0  0  0  0
 11 10  1  0  0  0  0
 11  7  2  0  0  0  0
 12  2  2  0  0  0  0
 12 14  1  0  0  0  0
 13  2  1  0  0  0  0
 13  3  1  0  0  0  0
 14  4  2  0  0  0  0
 15  3  1  0  0  0  0
 15 17  1  0  0  0  0
 15 16  1  1  0  0  0
 18 17  1  0  0  0  0
 19 18  1  0  0  0  0
 20 21  1  0  0  0  0
 20 19  1  0  0  0  0
 22 20  1  0  0  0  0
 23 24  1  6  0  0  0
 23 20  1  0  0  0  0
 25 24  1  0  0  0  0
 26 23  1  0  0  0  0
 26 27  1  0  0  0  0
 28 32  1  0  0  0  0
 28 27  1  0  0  0  0
 29 31  2  0  0  0  0
 29 33  1  0  0  0  0
 30 32  2  0  0  0  0
 31 30  1  0  0  0  0
 33 28  2  0  0  0  0
 34 13  1  0  0  0  0
 35 34  1  0  0  0  0
 36 39  1  0  0  0  0
 37 41  1  0  0  0  0
 37 36  2  0  0  0  0
 38 40  1  0  0  0  0
 39 40  2  0  0  0  0
 40 35  1  0  0  0  0
 41 38  2  0  0  0  0
 42 43  1  0  0  0  0
 43 37  1  0  0  0  0
M  END
>  <MODEL>
5

>  <REMARK>
 VINA RESULT:      -7.2      3.872      5.445
  Name = 
  14 active torsions:
  status: ('A' for Active; 'I' for Inactive)
    1  A    between atoms: C_1  and  C_35
    2  A    between atoms: C_1  and  C_38
    3  A    between atoms: C_2  and  C_6
    4  A    between atoms: C_2  and  C_13
    5  A    between atoms: C_3  and  C_4
    6  A    between atoms: C_3  and  N_17
    7  A    between atoms: C_4  and  C_22
    8  A    between atoms: C_6  and  N_17
    9  A    between atoms: O_10  and  C_22
   10  A    between atoms: C_11  and  C_41
   11  A    between atoms: O_14  and  C_22
   12  A    between atoms: O_14  and  C_41
   13  A    between atoms: C_19  and  O_37
   14  A    between atoms: N_34  and  C_38
                            x       y       z     vdW  Elec       q    Type
                         _______ _______ _______ _____ _____    ______ ____

>  <TORSDO>
F 14

$$$$
=
 OpenBabel11062410023D

 43 47  0  0  1  0  0  0  0  0999 V2000
  161.2760  203.5050  147.3660 C   0  0  0  0  0  0  0  0  0  0  0  0
  161.1280  206.5140  151.3300 C   0  0  0  0  0  0  0  0  0  0  0  0
  161.6010  208.5690  151.0290 C   0  0  0  0  0  0  0  0  0  0  0  0
  161.0340  204.3860  149.5580 C   0  0  0  0  0  0  0  0  0  0  0  0
  161.6330  204.7630  146.8700 C   0  0  0  0  0  3  0  0  0  0  0  0
  161.2190  202.3870  146.4870 N   0  0  0  0  0  1  0  0  0  0  0  0
  161.3930  205.6750  149.0890 C   0  0  0  0  0  0  0  0  0  0  0  0
  160.9870  203.3430  148.6860 N   0  0  0  0  0  0  0  0  0  0  0  0
  161.6920  205.8560  147.7380 C   0  0  0  0  0  3  0  0  0  0  0  0
  161.7330  208.0130  149.7940 N   0  0  0  0  0  0  0  0  0  0  0  0
  161.4310  206.7180  150.0140 C   0  0  0  0  0  0  0  0  0  0  0  0
  160.7660  205.2610  151.8290 C   0  0  0  0  0  3  0  0  0  0  0  0
  161.2240  207.6810  151.9810 N   0  0  0  0  0  0  0  0  0  0  0  0
  160.7230  204.1870  150.9210 C   0  0  0  0  0  3  0  0  0  0  0  0
  161.8410  210.0210  151.2970 C   0  0  1  0  0  3  0  0  0  0  0  0
  163.2140  210.2730  151.3090 O   0  0  0  0  0  1  0  0  0  0  0  0
  161.1560  210.8730  150.2390 C   0  0  0  0  0  2  0  0  0  0  0  0
  162.1510  211.4870  149.3730 N   0  0  0  0  0  2  0  0  0  0  0  0
  161.6510  211.4240  148.0050 C   0  0  0  0  0  2  0  0  0  0  0  0
  161.4140  212.8230  147.4250 C   0  0  0  0  0  0  0  0  0  0  0  0
  162.4630  213.1200  146.3610 C   0  0  0  0  0  1  0  0  0  0  0  0
  161.5240  213.8630  148.5310 C   0  0  0  0  0  1  0  0  0  0  0  0
  160.0190  212.8760  146.7790 C   0  0  1  0  0  3  0  0  0  0  0  0
  159.9060  211.9420  145.7420 O   0  0  0  0  0  0  0  0  0  0  0  0
  159.2820  212.6330  144.7020 C   0  0  0  0  0  1  0  0  0  0  0  0
  159.0170  212.6400  147.7290 O   0  0  0  0  0  0  0  0  0  0  0  0
  158.1880  213.7640  147.6650 C   0  0  0  0  0  2  0  0  0  0  0  0
  157.4850  213.9420  148.9630 C   0  0  0  0  0  0  0  0  0  0  0  0
  155.4660  214.4420  150.2040 C   0  0  0  0  0  3  0  0  0  0  0  0
  157.5370  214.0120  151.3840 C   0  0  0  0  0  3  0  0  0  0  0  0
  156.1720  214.3190  151.4040 C   0  0  0  0  0  3  0  0  0  0  0  0
  158.1940  213.8250  150.1640 C   0  0  0  0  0  3  0  0  0  0  0  0
  156.1220  214.2560  148.9830 C   0  0  0  0  0  3  0  0  0  0  0  0
  160.9390  207.9550  153.3880 C   0  0  0  0  0  2  0  0  0  0  0  0
  161.4310  209.3430  153.7870 C   0  0  0  0  0  2  0  0  0  0  0  0
  159.2080  211.2530  156.1870 C   0  0  0  0  0  3  0  0  0  0  0  0
  158.2060  211.7310  155.3260 C   0  0  0  0  0  0  0  0  0  0  0  0
  159.3260  210.6610  153.4560 C   0  0  0  0  0  3  0  0  0  0  0  0
  160.2610  210.4850  155.6840 C   0  0  0  0  0  3  0  0  0  0  0  0
  160.3210  210.1880  154.3170 C   0  0  0  0  0  0  0  0  0  0  0  0
  158.2770  211.4340  153.9600 C   0  0  0  0  0  3  0  0  0  0  0  0
  155.8950  211.9220  156.1850 C   0  0  0  0  0  1  0  0  0  0  0  0
  157.1370  212.4950  155.7980 O   0  0  0  0  0  0  0  0  0  0  0  0
  1  8  1  0  0  0  0
  2 12  1  0  0  0  0
  2 13  1  0  0  0  0
  3 15  1  0  0  0  0
  3 13  1  0  0  0  0
  4 14  1  0  0  0  0
  5  1  2  0  0  0  0
  5  9  1  0  0  0  0
  6  1  1  0  0  0  0
  7  4  1  0  0  0  0
  7 11  1  0  0  0  0
  8  4  2  0  0  0  0
  9  7  2  0  0  0  0
 10 11  1  0  0  0  0
 10  3  2  0  0  0  0
 11  2  2  0  0  0  0
 13 34  1  0  0  0  0
 14 12  2  0  0  0  0
 15 16  1  6  0  0  0
 17 15  1  0  0  0  0
 18 17  1  0  0  0  0
 19 18  1  0  0  0  0
 20 19  1  0  0  0  0
 20 22  1  0  0  0  0
 21 20  1  0  0  0  0
 23 24  1  6  0  0  0
 23 20  1  0  0  0  0
 23 26  1  0  0  0  0
 25 24  1  0  0  0  0
 27 26  1  0  0  0  0
 27 28  1  0  0  0  0
 28 33  2  0  0  0  0
 28 32  1  0  0  0  0
 29 31  2  0  0  0  0
 30 31  1  0  0  0  0
 32 30  2  0  0  0  0
 33 29  1  0  0  0  0
 34 35  1  0  0  0  0
 35 40  1  0  0  0  0
 37 43  1  0  0  0  0
 37 36  2  0  0  0  0
 38 41  2  0  0  0  0
 38 40  1  0  0  0  0
 39 36  1  0  0  0  0
 40 39  2  0  0  0  0
 41 37  1  0  0  0  0
 43 42  1  0  0  0  0
M  END
>  <MODEL>
6

>  <REMARK>
 VINA RESULT:      -7.0      3.268      8.695
  Name = 
  14 active torsions:
  status: ('A' for Active; 'I' for Inactive)
    1  A    between atoms: C_1  and  C_35
    2  A    between atoms: C_1  and  C_38
    3  A    between atoms: C_2  and  C_6
    4  A    between atoms: C_2  and  C_13
    5  A    between atoms: C_3  and  C_4
    6  A    between atoms: C_3  and  N_17
    7  A    between atoms: C_4  and  C_22
    8  A    between atoms: C_6  and  N_17
    9  A    between atoms: O_10  and  C_22
   10  A    between atoms: C_11  and  C_41
   11  A    between atoms: O_14  and  C_22
   12  A    between atoms: O_14  and  C_41
   13  A    between atoms: C_19  and  O_37
   14  A    between atoms: N_34  and  C_38
                            x       y       z     vdW  Elec       q    Type
                         _______ _______ _______ _____ _____    ______ ____

>  <TORSDO>
F 14

$$$$
=
 OpenBabel11062410023D

 43 47  0  0  1  0  0  0  0  0999 V2000
  160.9660  202.6670  149.6900 C   0  0  0  0  0  0  0  0  0  0  0  0
  161.2060  207.5870  150.4120 C   0  0  0  0  0  0  0  0  0  0  0  0
  161.5710  208.2790  152.3940 C   0  0  0  0  0  0  0  0  0  0  0  0
  160.9700  205.0230  149.3900 C   0  0  0  0  0  0  0  0  0  0  0  0
  161.2030  202.8130  151.0610 C   0  0  0  0  0  3  0  0  0  0  0  0
  160.8370  201.3660  149.1290 N   0  0  0  0  0  1  0  0  0  0  0  0
  161.2080  205.2080  150.7760 C   0  0  0  0  0  0  0  0  0  0  0  0
  160.8550  203.7630  148.8900 N   0  0  0  0  0  0  0  0  0  0  0  0
  161.3250  204.0930  151.6080 C   0  0  0  0  0  3  0  0  0  0  0  0
  161.5510  206.9240  152.5120 N   0  0  0  0  0  0  0  0  0  0  0  0
  161.3190  206.5150  151.2500 C   0  0  0  0  0  0  0  0  0  0  0  0
  160.9750  207.4460  149.0420 C   0  0  0  0  0  3  0  0  0  0  0  0
  161.3720  208.7100  151.1240 N   0  0  0  0  0  0  0  0  0  0  0  0
  160.8550  206.1400  148.5340 C   0  0  0  0  0  3  0  0  0  0  0  0
  161.7970  209.1940  153.5540 C   0  0  1  0  0  3  0  0  0  0  0  0
  162.4780  210.3350  153.1250 O   0  0  0  0  0  1  0  0  0  0  0  0
  160.4690  209.5800  154.1900 C   0  0  0  0  0  2  0  0  0  0  0  0
  160.0600  210.8970  153.7270 N   0  0  0  0  0  2  0  0  0  0  0  0
  160.3300  211.8480  154.7990 C   0  0  0  0  0  2  0  0  0  0  0  0
  159.0660  212.1640  155.6070 C   0  0  0  0  0  0  0  0  0  0  0  0
  159.0980  213.6170  156.0610 C   0  0  0  0  0  1  0  0  0  0  0  0
  159.0030  211.2640  156.8330 C   0  0  0  0  0  1  0  0  0  0  0  0
  157.8280  211.9450  154.7210 C   0  0  1  0  0  3  0  0  0  0  0  0
  156.8010  211.3160  155.4340 O   0  0  0  0  0  0  0  0  0  0  0  0
  155.6510  211.5290  154.6730 C   0  0  0  0  0  1  0  0  0  0  0  0
  157.3590  213.1600  154.2040 O   0  0  0  0  0  0  0  0  0  0  0  0
  158.1740  213.4190  153.0980 C   0  0  0  0  0  2  0  0  0  0  0  0
  157.3290  213.6600  151.8990 C   0  0  0  0  0  0  0  0  0  0  0  0
  155.2300  214.3660  150.9190 C   0  0  0  0  0  3  0  0  0  0  0  0
  157.0210  213.5680  149.4970 C   0  0  0  0  0  3  0  0  0  0  0  0
  155.7250  214.0730  149.6450 C   0  0  0  0  0  3  0  0  0  0  0  0
  157.8230  213.3600  150.6240 C   0  0  0  0  0  3  0  0  0  0  0  0
  156.0310  214.1580  152.0470 C   0  0  0  0  0  3  0  0  0  0  0  0
  161.3900  210.0890  150.6420 C   0  0  0  0  0  2  0  0  0  0  0  0
  162.4980  210.2970  149.6140 C   0  0  0  0  0  2  0  0  0  0  0  0
  160.5160  212.7630  147.5290 C   0  0  0  0  0  3  0  0  0  0  0  0
  161.5390  213.4350  146.8390 C   0  0  0  0  0  0  0  0  0  0  0  0
  163.1870  212.0660  147.9790 C   0  0  0  0  0  3  0  0  0  0  0  0
  160.8310  211.7490  148.4380 C   0  0  0  0  0  3  0  0  0  0  0  0
  162.1670  211.4000  148.6640 C   0  0  0  0  0  0  0  0  0  0  0  0
  162.8720  213.0830  147.0740 C   0  0  0  0  0  3  0  0  0  0  0  0
  161.7430  214.4270  144.5820 C   0  0  0  0  0  1  0  0  0  0  0  0
  161.2580  214.4470  145.9180 O   0  0  0  0  0  0  0  0  0  0  0  0
  1  5  1  0  0  0  0
  2 13  1  0  0  0  0
  2 11  1  0  0  0  0
  3 10  2  0  0  0  0
  3 15  1  0  0  0  0
  4  7  1  0  0  0  0
  5  9  2  0  0  0  0
  6  1  1  0  0  0  0
  7 11  2  0  0  0  0
  7  9  1  0  0  0  0
  8  4  1  0  0  0  0
  8  1  2  0  0  0  0
 11 10  1  0  0  0  0
 12  2  2  0  0  0  0
 13  3  1  0  0  0  0
 14 12  1  0  0  0  0
 14  4  2  0  0  0  0
 15 16  1  6  0  0  0
 15 17  1  0  0  0  0
 18 17  1  0  0  0  0
 18 19  1  0  0  0  0
 19 20  1  0  0  0  0
 20 21  1  0  0  0  0
 20 22  1  0  0  0  0
 23 26  1  1  0  0  0
 23 24  1  0  0  0  0
 23 20  1  0  0  0  0
 25 24  1  0  0  0  0
 27 26  1  0  0  0  0
 28 33  1  0  0  0  0
 28 27  1  0  0  0  0
 29 33  2  0  0  0  0
 30 31  2  0  0  0  0
 30 32  1  0  0  0  0
 31 29  1  0  0  0  0
 32 28  2  0  0  0  0
 34 13  1  0  0  0  0
 35 34  1  0  0  0  0
 36 39  1  0  0  0  0
 37 41  1  0  0  0  0
 37 36  2  0  0  0  0
 38 40  1  0  0  0  0
 39 40  2  0  0  0  0
 40 35  1  0  0  0  0
 41 38  2  0  0  0  0
 42 43  1  0  0  0  0
 43 37  1  0  0  0  0
M  END
>  <MODEL>
7

>  <REMARK>
 VINA RESULT:      -6.7      3.717      8.368
  Name = 
  14 active torsions:
  status: ('A' for Active; 'I' for Inactive)
    1  A    between atoms: C_1  and  C_35
    2  A    between atoms: C_1  and  C_38
    3  A    between atoms: C_2  and  C_6
    4  A    between atoms: C_2  and  C_13
    5  A    between atoms: C_3  and  C_4
    6  A    between atoms: C_3  and  N_17
    7  A    between atoms: C_4  and  C_22
    8  A    between atoms: C_6  and  N_17
    9  A    between atoms: O_10  and  C_22
   10  A    between atoms: C_11  and  C_41
   11  A    between atoms: O_14  and  C_22
   12  A    between atoms: O_14  and  C_41
   13  A    between atoms: C_19  and  O_37
   14  A    between atoms: N_34  and  C_38
                            x       y       z     vdW  Elec       q    Type
                         _______ _______ _______ _____ _____    ______ ____

>  <TORSDO>
F 14

$$$$
=
 OpenBabel11062410023D

 43 47  0  0  1  0  0  0  0  0999 V2000
  159.0920  212.9970  142.4920 C   0  0  0  0  0  0  0  0  0  0  0  0
  159.0200  213.7220  147.4170 C   0  0  0  0  0  0  0  0  0  0  0  0
  160.5780  212.8360  148.5700 C   0  0  0  0  0  0  0  0  0  0  0  0
  158.5210  213.6850  144.6920 C   0  0  0  0  0  0  0  0  0  0  0  0
  160.2100  212.3050  142.9690 C   0  0  0  0  0  3  0  0  0  0  0  0
  158.8020  213.0000  141.0990 N   0  0  0  0  0  1  0  0  0  0  0  0
  159.6450  212.9920  145.2110 C   0  0  0  0  0  0  0  0  0  0  0  0
  158.2780  213.6660  143.3540 N   0  0  0  0  0  0  0  0  0  0  0  0
  160.4880  212.3020  144.3380 C   0  0  0  0  0  3  0  0  0  0  0  0
  160.8560  212.4630  147.2910 N   0  0  0  0  0  0  0  0  0  0  0  0
  159.8590  213.0340  146.5880 C   0  0  0  0  0  0  0  0  0  0  0  0
  157.9060  214.4200  146.9450 C   0  0  0  0  0  3  0  0  0  0  0  0
  159.4700  213.6110  148.6750 N   0  0  0  0  0  0  0  0  0  0  0  0
  157.6610  214.3930  145.5600 C   0  0  0  0  0  3  0  0  0  0  0  0
  161.4210  212.4330  149.7370 C   0  0  1  0  0  3  0  0  0  0  0  0
  160.6070  212.2200  150.8510 O   0  0  0  0  0  1  0  0  0  0  0  0
  162.2070  211.1720  149.4090 C   0  0  0  0  0  2  0  0  0  0  0  0
  161.9380  210.1450  150.4040 N   0  0  0  0  0  2  0  0  0  0  0  0
  162.3460  208.8630  149.8420 C   0  0  0  0  0  2  0  0  0  0  0  0
  161.6520  207.6900  150.5450 C   0  0  0  0  0  0  0  0  0  0  0  0
  160.6360  208.2230  151.5470 C   0  0  0  0  0  1  0  0  0  0  0  0
  162.6840  206.8520  151.2870 C   0  0  0  0  0  1  0  0  0  0  0  0
  160.9190  206.8320  149.4990 C   0  0  1  0  0  3  0  0  0  0  0  0
  160.9560  207.4340  148.2360 O   0  0  0  0  0  0  0  0  0  0  0  0
  161.4920  206.4630  147.3900 C   0  0  0  0  0  1  0  0  0  0  0  0
  161.4800  205.5500  149.4200 O   0  0  0  0  0  0  0  0  0  0  0  0
  160.5320  204.7060  150.0060 C   0  0  0  0  0  2  0  0  0  0  0  0
  160.7560  203.3090  149.5490 C   0  0  0  0  0  0  0  0  0  0  0  0
  161.0240  200.9550  150.0530 C   0  0  0  0  0  3  0  0  0  0  0  0
  161.1910  201.7300  147.7640 C   0  0  0  0  0  3  0  0  0  0  0  0
  161.2210  200.6860  148.6950 C   0  0  0  0  0  3  0  0  0  0  0  0
  160.9610  203.0420  148.1910 C   0  0  0  0  0  3  0  0  0  0  0  0
  160.7940  202.2670  150.4810 C   0  0  0  0  0  3  0  0  0  0  0  0
  158.9280  214.2250  149.8840 C   0  0  0  0  0  2  0  0  0  0  0  0
  157.7630  213.4100  150.4380 C   0  0  0  0  0  2  0  0  0  0  0  0
  157.4200  214.4120  154.0760 C   0  0  0  0  0  3  0  0  0  0  0  0
  157.9010  213.2660  154.7310 C   0  0  0  0  0  0  0  0  0  0  0  0
  158.2720  212.2090  152.5780 C   0  0  0  0  0  3  0  0  0  0  0  0
  157.3670  214.4530  152.6810 C   0  0  0  0  0  3  0  0  0  0  0  0
  157.7930  213.3510  151.9290 C   0  0  0  0  0  0  0  0  0  0  0  0
  158.3200  212.1670  153.9730 C   0  0  0  0  0  3  0  0  0  0  0  0
  157.7560  211.9890  156.8450 C   0  0  0  0  0  1  0  0  0  0  0  0
  157.9740  213.1940  156.1240 O   0  0  0  0  0  0  0  0  0  0  0  0
  1  5  2  0  0  0  0
  1  8  1  0  0  0  0
  2 13  1  0  0  0  0
  3 13  1  0  0  0  0
  3 15  1  0  0  0  0
  4  7  1  0  0  0  0
  4 14  1  0  0  0  0
  5  9  1  0  0  0  0
  6  1  1  0  0  0  0
  7 11  1  0  0  0  0
  8  4  2  0  0  0  0
  9  7  2  0  0  0  0
 10  3  2  0  0  0  0
 11 10  1  0  0  0  0
 11  2  2  0  0  0  0
 12  2  1  0  0  0  0
 13 34  1  0  0  0  0
 14 12  2  0  0  0  0
 15 16  1  1  0  0  0
 17 15  1  0  0  0  0
 17 18  1  0  0  0  0
 19 18  1  0  0  0  0
 19 20  1  0  0  0  0
 20 22  1  0  0  0  0
 20 21  1  0  0  0  0
 23 24  1  6  0  0  0
 23 20  1  0  0  0  0
 25 24  1  0  0  0  0
 26 23  1  0  0  0  0
 26 27  1  0  0  0  0
 28 27  1  0  0  0  0
 28 33  1  0  0  0  0
 29 33  2  0  0  0  0
 30 32  1  0  0  0  0
 30 31  2  0  0  0  0
 31 29  1  0  0  0  0
 32 28  2  0  0  0  0
 34 35  1  0  0  0  0
 35 40  1  0  0  0  0
 36 37  1  0  0  0  0
 37 43  1  0  0  0  0
 38 41  1  0  0  0  0
 39 36  2  0  0  0  0
 40 38  2  0  0  0  0
 40 39  1  0  0  0  0
 41 37  2  0  0  0  0
 43 42  1  0  0  0  0
M  END
>  <MODEL>
8

>  <REMARK>
 VINA RESULT:      -6.5      3.805      7.959
  Name = 
  14 active torsions:
  status: ('A' for Active; 'I' for Inactive)
    1  A    between atoms: C_1  and  C_35
    2  A    between atoms: C_1  and  C_38
    3  A    between atoms: C_2  and  C_6
    4  A    between atoms: C_2  and  C_13
    5  A    between atoms: C_3  and  C_4
    6  A    between atoms: C_3  and  N_17
    7  A    between atoms: C_4  and  C_22
    8  A    between atoms: C_6  and  N_17
    9  A    between atoms: O_10  and  C_22
   10  A    between atoms: C_11  and  C_41
   11  A    between atoms: O_14  and  C_22
   12  A    between atoms: O_14  and  C_41
   13  A    between atoms: C_19  and  O_37
   14  A    between atoms: N_34  and  C_38
                            x       y       z     vdW  Elec       q    Type
                         _______ _______ _______ _____ _____    ______ ____

>  <TORSDO>
F 14

$$$$
=
 OpenBabel11062410023D

 43 47  0  0  1  0  0  0  0  0999 V2000
  161.9950  212.6100  147.6430 C   0  0  0  0  0  0  0  0  0  0  0  0
  161.4630  209.0200  151.0510 C   0  0  0  0  0  0  0  0  0  0  0  0
  160.9350  209.6070  153.0300 C   0  0  0  0  0  0  0  0  0  0  0  0
  161.8940  210.5170  148.7600 C   0  0  0  0  0  0  0  0  0  0  0  0
  161.6610  213.2860  148.8210 C   0  0  0  0  0  3  0  0  0  0  0  0
  162.2250  213.3450  146.4470 N   0  0  0  0  0  1  0  0  0  0  0  0
  161.5550  211.1700  149.9730 C   0  0  0  0  0  0  0  0  0  0  0  0
  162.1040  211.2530  147.6360 N   0  0  0  0  0  0  0  0  0  0  0  0
  161.4400  212.5610  149.9950 C   0  0  0  0  0  3  0  0  0  0  0  0
  161.0130  210.7790  152.3450 N   0  0  0  0  0  0  0  0  0  0  0  0
  161.3490  210.3800  151.1030 C   0  0  0  0  0  0  0  0  0  0  0  0
  161.7910  208.3410  149.8760 C   0  0  0  0  0  3  0  0  0  0  0  0
  161.1950  208.5180  152.2640 N   0  0  0  0  0  0  0  0  0  0  0  0
  162.0090  209.1100  148.7190 C   0  0  0  0  0  3  0  0  0  0  0  0
  160.5860  209.5340  154.4830 C   0  0  1  0  0  3  0  0  0  0  0  0
  161.6160  208.8990  155.1800 O   0  0  0  0  0  1  0  0  0  0  0  0
  160.3550  210.9310  155.0400 C   0  0  0  0  0  2  0  0  0  0  0  0
  159.0320  211.4050  154.6640 N   0  0  0  0  0  2  0  0  0  0  0  0
  158.9380  212.8100  155.0440 C   0  0  0  0  0  2  0  0  0  0  0  0
  157.7420  213.0660  155.9690 C   0  0  0  0  0  0  0  0  0  0  0  0
  157.8610  214.4530  156.5870 C   0  0  0  0  0  1  0  0  0  0  0  0
  157.7230  212.0280  157.0830 C   0  0  0  0  0  1  0  0  0  0  0  0
  156.4410  212.9940  155.1500 C   0  0  1  0  0  3  0  0  0  0  0  0
  155.4490  212.2890  155.8410 O   0  0  0  0  0  0  0  0  0  0  0  0
  155.1790  211.1750  155.0440 C   0  0  0  0  0  1  0  0  0  0  0  0
  155.9720  214.2770  154.8410 O   0  0  0  0  0  0  0  0  0  0  0  0
  154.9920  214.0760  153.8650 C   0  0  0  0  0  2  0  0  0  0  0  0
  155.6160  214.1020  152.5160 C   0  0  0  0  0  0  0  0  0  0  0  0
  155.4000  214.0920  150.1030 C   0  0  0  0  0  3  0  0  0  0  0  0
  157.5980  214.1150  151.1220 C   0  0  0  0  0  3  0  0  0  0  0  0
  156.7930  214.1070  149.9780 C   0  0  0  0  0  3  0  0  0  0  0  0
  157.0100  214.1100  152.3910 C   0  0  0  0  0  3  0  0  0  0  0  0
  154.8110  214.0870  151.3720 C   0  0  0  0  0  3  0  0  0  0  0  0
  161.1400  207.1150  152.6680 C   0  0  0  0  0  2  0  0  0  0  0  0
  162.2480  206.3080  151.9980 C   0  0  0  0  0  2  0  0  0  0  0  0
  160.8070  202.8940  151.2100 C   0  0  0  0  0  3  0  0  0  0  0  0
  160.7200  202.9410  149.8090 C   0  0  0  0  0  0  0  0  0  0  0  0
  161.6140  205.1970  149.8440 C   0  0  0  0  0  3  0  0  0  0  0  0
  161.2950  203.9930  151.9210 C   0  0  0  0  0  3  0  0  0  0  0  0
  161.7000  205.1470  151.2380 C   0  0  0  0  0  0  0  0  0  0  0  0
  161.1210  204.0990  149.1340 C   0  0  0  0  0  3  0  0  0  0  0  0
  161.0990  200.8600  148.5250 C   0  0  0  0  0  1  0  0  0  0  0  0
  160.2430  201.8570  149.0680 O   0  0  0  0  0  0  0  0  0  0  0  0
  1  5  1  0  0  0  0
  2 11  1  0  0  0  0
  2 13  1  0  0  0  0
  3 15  1  0  0  0  0
  4  7  1  0  0  0  0
  5  9  2  0  0  0  0
  6  1  1  0  0  0  0
  7  9  1  0  0  0  0
  7 11  2  0  0  0  0
  8  1  2  0  0  0  0
  8  4  1  0  0  0  0
 10  3  2  0  0  0  0
 11 10  1  0  0  0  0
 12  2  2  0  0  0  0
 13 34  1  0  0  0  0
 13  3  1  0  0  0  0
 14  4  2  0  0  0  0
 14 12  1  0  0  0  0
 15 17  1  0  0  0  0
 15 16  1  1  0  0  0
 18 17  1  0  0  0  0
 18 19  1  0  0  0  0
 19 20  1  0  0  0  0
 20 21  1  0  0  0  0
 20 22  1  0  0  0  0
 23 26  1  1  0  0  0
 23 24  1  0  0  0  0
 23 20  1  0  0  0  0
 25 24  1  0  0  0  0
 27 26  1  0  0  0  0
 28 27  1  0  0  0  0
 29 33  1  0  0  0  0
 30 32  2  0  0  0  0
 31 29  2  0  0  0  0
 31 30  1  0  0  0  0
 32 28  1  0  0  0  0
 33 28  2  0  0  0  0
 35 34  1  0  0  0  0
 36 39  1  0  0  0  0
 37 36  2  0  0  0  0
 38 40  1  0  0  0  0
 40 39  2  0  0  0  0
 40 35  1  0  0  0  0
 41 37  1  0  0  0  0
 41 38  2  0  0  0  0
 42 43  1  0  0  0  0
 43 37  1  0  0  0  0
M  END
>  <MODEL>
9

>  <REMARK>
 VINA RESULT:      -6.2      4.439     10.262
  Name = 
  14 active torsions:
  status: ('A' for Active; 'I' for Inactive)
    1  A    between atoms: C_1  and  C_35
    2  A    between atoms: C_1  and  C_38
    3  A    between atoms: C_2  and  C_6
    4  A    between atoms: C_2  and  C_13
    5  A    between atoms: C_3  and  C_4
    6  A    between atoms: C_3  and  N_17
    7  A    between atoms: C_4  and  C_22
    8  A    between atoms: C_6  and  N_17
    9  A    between atoms: O_10  and  C_22
   10  A    between atoms: C_11  and  C_41
   11  A    between atoms: O_14  and  C_22
   12  A    between atoms: O_14  and  C_41
   13  A    between atoms: C_19  and  O_37
   14  A    between atoms: N_34  and  C_38
                            x       y       z     vdW  Elec       q    Type
                         _______ _______ _______ _____ _____    ______ ____

>  <TORSDO>
F 14

$$$$
