=
 OpenBabel11052423123D

 27 31  0  0  0  0  0  0  0  0999 V2000
  162.1980  210.3060  151.2220 C   0  0  0  0  0  2  0  0  0  0  0  0
  161.2170  208.0830  150.7670 C   0  0  0  0  0  0  0  0  0  0  0  0
  162.0260  209.0520  148.5690 N   0  0  0  0  0  2  0  0  0  0  0  0
  160.9530  203.9520  149.0660 C   0  0  0  0  0  3  0  0  0  0  0  0
  161.7190  203.8400  146.7720 O   0  0  0  0  0  1  0  0  0  0  0  0
  160.8160  206.9040  151.2100 O   0  0  0  0  0  0  0  0  0  0  0  0
  161.7690  205.9650  147.9410 C   0  0  0  0  0  0  0  0  0  0  0  0
  160.4190  211.9260  147.3730 C   0  0  0  0  0  3  0  0  0  0  0  0
  162.2850  206.6070  146.8200 O   0  0  0  0  0  1  0  0  0  0  0  0
  159.9530  212.8260  148.2350 C   0  0  0  0  0  3  0  0  0  0  0  0
  161.5190  206.6630  149.1230 C   0  0  0  0  0  0  0  0  0  0  0  0
  161.2270  209.2730  151.5530 N   0  0  0  0  0  0  0  0  0  0  0  0
  161.4830  204.5860  147.9210 C   0  0  0  0  0  0  0  0  0  0  0  0
  160.9930  206.0440  150.2330 C   0  0  0  0  0  0  0  0  0  0  0  0
  161.7910  211.0460  149.9910 C   0  0  0  0  0  0  0  0  0  0  0  0
  161.6660  207.9890  149.4590 C   0  0  0  0  0  0  0  0  0  0  0  0
  161.7600  211.2950  147.5300 C   0  0  0  0  0  2  0  0  0  0  0  0
  160.7000  204.6820  150.2420 C   0  0  0  0  0  3  0  0  0  0  0  0
  160.6530  213.2400  149.4650 C   0  0  0  0  0  3  0  0  0  0  0  0
  161.4560  212.4710  150.2110 C   0  0  0  0  0  3  0  0  0  0  0  0
  161.8320  210.4650  148.7680 C   0  0  0  0  0  0  0  0  0  0  0  0
  159.5310  209.6070  155.4300 C   0  0  0  0  0  2  0  0  0  0  0  0
  160.4820  209.3220  152.8060 C   0  0  0  0  0  3  0  0  0  0  0  0
  160.2560  210.7670  153.2540 C   0  0  0  0  0  2  0  0  0  0  0  0
  159.3860  210.8310  154.5160 C   0  0  0  0  0  2  0  0  0  0  0  0
  160.9210  208.9870  155.3120 C   0  0  0  0  0  2  0  0  0  0  0  0
  161.1810  208.4810  153.8870 C   0  0  0  0  0  2  0  0  0  0  0  0
  1 12  1  0  0  0  0
  2  6  1  0  0  0  0
  2 12  1  0  0  0  0
  3 21  1  0  0  0  0
  3 16  1  0  0  0  0
  4 18  1  0  0  0  0
  5 13  1  0  0  0  0
  7 11  2  0  0  0  0
  8 17  1  0  0  0  0
  8 10  2  0  0  0  0
  9  7  1  0  0  0  0
 10 19  1  0  0  0  0
 11 16  1  0  0  0  0
 11 14  1  0  0  0  0
 12 23  1  0  0  0  0
 13  7  1  0  0  0  0
 13  4  2  0  0  0  0
 14 18  2  0  0  0  0
 14  6  1  0  0  0  0
 15 20  1  0  0  0  0
 15  1  1  0  0  0  0
 16  2  2  0  0  0  0
 17 21  1  0  0  0  0
 19 20  2  0  0  0  0
 21 15  2  0  0  0  0
 23 24  1  0  0  0  0
 23 27  1  0  0  0  0
 24 25  1  0  0  0  0
 25 22  1  0  0  0  0
 26 22  1  0  0  0  0
 27 26  1  0  0  0  0
M  END
>  <MODEL>
1

>  <REMARK>
 VINA RESULT:      -7.3      0.000      0.000
  Name = 
  1 active torsions:
  status: ('A' for Active; 'I' for Inactive)
    1  A    between atoms: C_9  and  N_15
                            x       y       z     vdW  Elec       q    Type
                         _______ _______ _______ _____ _____    ______ ____

>  <TORSDO>
F 1

$$$$
=
 OpenBabel11052423123D

 27 31  0  0  0  0  0  0  0  0999 V2000
  161.8920  209.9210  153.6960 C   0  0  0  0  0  2  0  0  0  0  0  0
  161.3550  207.9920  152.2460 C   0  0  0  0  0  0  0  0  0  0  0  0
  161.2660  210.0930  150.8290 N   0  0  0  0  0  2  0  0  0  0  0  0
  161.5670  205.3460  148.6430 C   0  0  0  0  0  3  0  0  0  0  0  0
  161.6560  206.5980  146.5730 O   0  0  0  0  0  1  0  0  0  0  0  0
  161.3750  206.6880  152.0320 O   0  0  0  0  0  0  0  0  0  0  0  0
  161.5500  207.7910  148.6810 C   0  0  0  0  0  0  0  0  0  0  0  0
  158.7750  212.4430  151.5700 C   0  0  0  0  0  3  0  0  0  0  0  0
  161.5670  209.0180  148.0270 O   0  0  0  0  0  1  0  0  0  0  0  0
  158.3810  212.6090  152.8290 C   0  0  0  0  0  3  0  0  0  0  0  0
  161.4940  207.7160  150.0740 C   0  0  0  0  0  0  0  0  0  0  0  0
  161.3170  208.5920  153.5380 N   0  0  0  0  0  0  0  0  0  0  0  0
  161.5920  206.5820  147.9610 C   0  0  0  0  0  0  0  0  0  0  0  0
  161.4590  206.5100  150.7340 C   0  0  0  0  0  0  0  0  0  0  0  0
  160.9960  210.9630  153.1140 C   0  0  0  0  0  0  0  0  0  0  0  0
  161.4240  208.6860  151.0470 C   0  0  0  0  0  0  0  0  0  0  0  0
  160.2130  212.3160  151.1970 C   0  0  0  0  0  2  0  0  0  0  0  0
  161.4980  205.2990  150.0470 C   0  0  0  0  0  3  0  0  0  0  0  0
  159.2870  212.6060  153.9920 C   0  0  0  0  0  3  0  0  0  0  0  0
  160.4220  211.9030  154.1040 C   0  0  0  0  0  3  0  0  0  0  0  0
  160.8200  211.0810  151.7770 C   0  0  0  0  0  0  0  0  0  0  0  0
  160.2010  206.7330  157.1880 C   0  0  0  0  0  2  0  0  0  0  0  0
  160.9670  207.7870  154.7030 C   0  0  0  0  0  3  0  0  0  0  0  0
  159.4710  207.8850  155.0090 C   0  0  0  0  0  2  0  0  0  0  0  0
  159.0770  206.9610  156.1690 C   0  0  0  0  0  2  0  0  0  0  0  0
  161.1390  207.9350  157.2590 C   0  0  0  0  0  2  0  0  0  0  0  0
  161.8340  208.1740  155.9120 C   0  0  0  0  0  2  0  0  0  0  0  0
  2 12  1  0  0  0  0
  3 16  1  0  0  0  0
  3 21  1  0  0  0  0
  4 18  1  0  0  0  0
  5 13  1  0  0  0  0
  6  2  1  0  0  0  0
  7 11  2  0  0  0  0
  8 10  2  0  0  0  0
  9  7  1  0  0  0  0
 10 19  1  0  0  0  0
 11 14  1  0  0  0  0
 11 16  1  0  0  0  0
 12  1  1  0  0  0  0
 12 23  1  0  0  0  0
 13  4  2  0  0  0  0
 13  7  1  0  0  0  0
 14  6  1  0  0  0  0
 15  1  1  0  0  0  0
 15 20  1  0  0  0  0
 16  2  2  0  0  0  0
 17  8  1  0  0  0  0
 17 21  1  0  0  0  0
 18 14  2  0  0  0  0
 19 20  2  0  0  0  0
 21 15  2  0  0  0  0
 22 26  1  0  0  0  0
 23 24  1  0  0  0  0
 23 27  1  0  0  0  0
 24 25  1  0  0  0  0
 25 22  1  0  0  0  0
 27 26  1  0  0  0  0
M  END
>  <MODEL>
2

>  <REMARK>
 VINA RESULT:      -6.4      1.881      2.932
  Name = 
  1 active torsions:
  status: ('A' for Active; 'I' for Inactive)
    1  A    between atoms: C_9  and  N_15
                            x       y       z     vdW  Elec       q    Type
                         _______ _______ _______ _____ _____    ______ ____

>  <TORSDO>
F 1

$$$$
=
 OpenBabel11052423123D

 27 31  0  0  0  0  0  0  0  0999 V2000
  162.4360  210.6450  149.8060 C   0  0  0  0  0  2  0  0  0  0  0  0
  160.6760  211.6050  151.2530 C   0  0  0  0  0  0  0  0  0  0  0  0
  161.2980  209.3270  152.1750 N   0  0  0  0  0  2  0  0  0  0  0  0
  158.6590  212.8050  155.0640 C   0  0  0  0  0  3  0  0  0  0  0  0
  158.8480  211.1170  156.7880 O   0  0  0  0  0  1  0  0  0  0  0  0
  159.9940  212.6580  151.6690 O   0  0  0  0  0  0  0  0  0  0  0  0
  159.8670  210.7250  154.6230 C   0  0  0  0  0  0  0  0  0  0  0  0
  160.5710  206.5260  150.2010 C   0  0  0  0  0  3  0  0  0  0  0  0
  160.3300  209.4790  155.0290 O   0  0  0  0  0  1  0  0  0  0  0  0
  160.6320  206.6210  148.8760 C   0  0  0  0  0  3  0  0  0  0  0  0
  160.1240  211.2090  153.3390 C   0  0  0  0  0  0  0  0  0  0  0  0
  161.2580  211.4880  149.9570 N   0  0  0  0  0  0  0  0  0  0  0  0
  159.1260  211.5450  155.4960 C   0  0  0  0  0  0  0  0  0  0  0  0
  159.6580  212.4320  152.9180 C   0  0  0  0  0  0  0  0  0  0  0  0
  162.0640  209.1990  149.8410 C   0  0  0  0  0  0  0  0  0  0  0  0
  160.7850  210.6620  152.2630 C   0  0  0  0  0  0  0  0  0  0  0  0
  161.6140  207.1120  151.0900 C   0  0  0  0  0  2  0  0  0  0  0  0
  158.9220  213.2640  153.7590 C   0  0  0  0  0  3  0  0  0  0  0  0
  161.6690  207.3690  148.1440 C   0  0  0  0  0  3  0  0  0  0  0  0
  162.2940  208.4740  148.5700 C   0  0  0  0  0  3  0  0  0  0  0  0
  161.6480  208.6010  150.9820 C   0  0  0  0  0  0  0  0  0  0  0  0
  160.6170  214.1630  146.7240 C   0  0  0  0  0  2  0  0  0  0  0  0
  160.8520  212.4000  148.8940 C   0  0  0  0  0  3  0  0  0  0  0  0
  161.0300  211.7540  147.5190 C   0  0  0  0  0  2  0  0  0  0  0  0
  160.5100  212.6660  146.4010 C   0  0  0  0  0  2  0  0  0  0  0  0
  161.7870  214.4470  147.6610 C   0  0  0  0  0  2  0  0  0  0  0  0
  161.6010  213.7380  149.0090 C   0  0  0  0  0  2  0  0  0  0  0  0
  1 15  1  0  0  0  0
  1 12  1  0  0  0  0
  2  6  1  0  0  0  0
  2 16  2  0  0  0  0
  3 16  1  0  0  0  0
  4 13  1  0  0  0  0
  6 14  1  0  0  0  0
  7  9  1  0  0  0  0
  7 13  2  0  0  0  0
  8 17  1  0  0  0  0
 10  8  2  0  0  0  0
 11  7  1  0  0  0  0
 12  2  1  0  0  0  0
 13  5  1  0  0  0  0
 14 11  2  0  0  0  0
 14 18  1  0  0  0  0
 15 21  2  0  0  0  0
 16 11  1  0  0  0  0
 18  4  2  0  0  0  0
 19 20  2  0  0  0  0
 19 10  1  0  0  0  0
 20 15  1  0  0  0  0
 21 17  1  0  0  0  0
 21  3  1  0  0  0  0
 22 26  1  0  0  0  0
 23 27  1  0  0  0  0
 23 12  1  0  0  0  0
 24 23  1  0  0  0  0
 25 22  1  0  0  0  0
 25 24  1  0  0  0  0
 26 27  1  0  0  0  0
M  END
>  <MODEL>
3

>  <REMARK>
 VINA RESULT:      -6.2      3.017      7.076
  Name = 
  1 active torsions:
  status: ('A' for Active; 'I' for Inactive)
    1  A    between atoms: C_9  and  N_15
                            x       y       z     vdW  Elec       q    Type
                         _______ _______ _______ _____ _____    ______ ____

>  <TORSDO>
F 1

$$$$
=
 OpenBabel11052423123D

 27 31  0  0  0  0  0  0  0  0999 V2000
  161.2280  210.7160  154.1470 C   0  0  0  0  0  2  0  0  0  0  0  0
  161.2930  210.6490  151.6770 C   0  0  0  0  0  0  0  0  0  0  0  0
  160.0050  212.7170  152.3750 N   0  0  0  0  0  2  0  0  0  0  0  0
  161.8770  212.1870  147.5150 C   0  0  0  0  0  3  0  0  0  0  0  0
  160.9770  214.4130  147.2110 O   0  0  0  0  0  1  0  0  0  0  0  0
  161.8330  210.1810  150.5650 O   0  0  0  0  0  0  0  0  0  0  0  0
  160.8060  213.3470  149.3820 C   0  0  0  0  0  0  0  0  0  0  0  0
  156.9560  212.2460  154.0350 C   0  0  0  0  0  3  0  0  0  0  0  0
  160.1500  214.4530  149.9110 O   0  0  0  0  0  1  0  0  0  0  0  0
  156.8020  211.2000  154.8430 C   0  0  0  0  0  3  0  0  0  0  0  0
  161.0810  212.2260  150.1670 C   0  0  0  0  0  0  0  0  0  0  0  0
  161.2680  209.9420  152.9140 N   0  0  0  0  0  0  0  0  0  0  0  0
  161.2180  213.3210  148.0360 C   0  0  0  0  0  0  0  0  0  0  0  0
  161.7130  211.1180  149.6530 C   0  0  0  0  0  0  0  0  0  0  0  0
  159.8680  211.2890  154.3730 C   0  0  0  0  0  0  0  0  0  0  0  0
  160.8010  211.9300  151.4810 C   0  0  0  0  0  0  0  0  0  0  0  0
  158.1930  213.0780  154.0390 C   0  0  0  0  0  2  0  0  0  0  0  0
  162.1310  211.0650  148.3250 C   0  0  0  0  0  3  0  0  0  0  0  0
  157.8400  210.6990  155.7610 C   0  0  0  0  0  3  0  0  0  0  0  0
  159.1620  210.7520  155.5590 C   0  0  0  0  0  3  0  0  0  0  0  0
  159.3820  212.2900  153.6010 C   0  0  0  0  0  0  0  0  0  0  0  0
  161.5710  205.7140  153.1360 C   0  0  0  0  0  2  0  0  0  0  0  0
  161.5560  208.5130  152.9410 C   0  0  0  0  0  3  0  0  0  0  0  0
  160.8310  207.7860  151.8060 C   0  0  0  0  0  2  0  0  0  0  0  0
  161.2080  206.2990  151.7640 C   0  0  0  0  0  2  0  0  0  0  0  0
  160.8320  206.4340  154.2600 C   0  0  0  0  0  2  0  0  0  0  0  0
  161.2250  207.9160  154.3180 C   0  0  0  0  0  2  0  0  0  0  0  0
  1 15  1  0  0  0  0
  2 12  1  0  0  0  0
  3 21  1  0  0  0  0
  4 13  2  0  0  0  0
  4 18  1  0  0  0  0
  5 13  1  0  0  0  0
  6  2  1  0  0  0  0
  7  9  1  0  0  0  0
  7 11  2  0  0  0  0
  8 17  1  0  0  0  0
  8 10  2  0  0  0  0
 10 19  1  0  0  0  0
 11 16  1  0  0  0  0
 12 23  1  0  0  0  0
 12  1  1  0  0  0  0
 13  7  1  0  0  0  0
 14 11  1  0  0  0  0
 14  6  1  0  0  0  0
 15 20  1  0  0  0  0
 16  2  2  0  0  0  0
 16  3  1  0  0  0  0
 18 14  2  0  0  0  0
 20 19  2  0  0  0  0
 21 17  1  0  0  0  0
 21 15  2  0  0  0  0
 22 26  1  0  0  0  0
 23 27  1  0  0  0  0
 24 23  1  0  0  0  0
 25 24  1  0  0  0  0
 25 22  1  0  0  0  0
 26 27  1  0  0  0  0
M  END
>  <MODEL>
4

>  <REMARK>
 VINA RESULT:      -6.1      2.774      6.016
  Name = 
  1 active torsions:
  status: ('A' for Active; 'I' for Inactive)
    1  A    between atoms: C_9  and  N_15
                            x       y       z     vdW  Elec       q    Type
                         _______ _______ _______ _____ _____    ______ ____

>  <TORSDO>
F 1

$$$$
=
 OpenBabel11052423123D

 27 31  0  0  0  0  0  0  0  0999 V2000
  162.9670  209.2340  150.2650 C   0  0  0  0  0  2  0  0  0  0  0  0
  161.4560  209.8650  152.1180 C   0  0  0  0  0  0  0  0  0  0  0  0
  161.6610  207.3390  152.0940 N   0  0  0  0  0  2  0  0  0  0  0  0
  159.7970  209.8800  156.2740 C   0  0  0  0  0  3  0  0  0  0  0  0
  159.7070  207.6650  157.2480 O   0  0  0  0  0  1  0  0  0  0  0  0
  160.9950  210.7850  152.9470 O   0  0  0  0  0  0  0  0  0  0  0  0
  160.5800  207.9430  155.0020 C   0  0  0  0  0  0  0  0  0  0  0  0
  160.3700  205.6340  149.3190 C   0  0  0  0  0  3  0  0  0  0  0  0
  160.8100  206.5770  154.8860 O   0  0  0  0  0  1  0  0  0  0  0  0
  160.4150  206.2030  148.1170 C   0  0  0  0  0  3  0  0  0  0  0  0
  160.8910  208.8190  153.9610 C   0  0  0  0  0  0  0  0  0  0  0  0
  161.9730  210.1440  150.8190 N   0  0  0  0  0  0  0  0  0  0  0  0
  160.0290  208.4900  156.1770 C   0  0  0  0  0  0  0  0  0  0  0  0
  160.6540  210.1700  154.0560 C   0  0  0  0  0  0  0  0  0  0  0  0
  162.3300  207.9630  149.8100 C   0  0  0  0  0  0  0  0  0  0  0  0
  161.4100  208.6100  152.7050 C   0  0  0  0  0  0  0  0  0  0  0  0
  161.5260  205.6670  150.2580 C   0  0  0  0  0  2  0  0  0  0  0  0
  160.1080  210.7390  155.2050 C   0  0  0  0  0  3  0  0  0  0  0  0
  161.5560  206.9870  147.6110 C   0  0  0  0  0  3  0  0  0  0  0  0
  162.3880  207.7340  148.3480 C   0  0  0  0  0  3  0  0  0  0  0  0
  161.8380  207.0610  150.6920 C   0  0  0  0  0  0  0  0  0  0  0  0
  160.8640  213.6470  148.6930 C   0  0  0  0  0  2  0  0  0  0  0  0
  161.7200  211.4390  150.1980 C   0  0  0  0  0  3  0  0  0  0  0  0
  160.3200  211.9490  150.5440 C   0  0  0  0  0  2  0  0  0  0  0  0
  160.0820  213.3560  149.9810 C   0  0  0  0  0  2  0  0  0  0  0  0
  161.1040  212.3720  147.8880 C   0  0  0  0  0  2  0  0  0  0  0  0
  161.9550  211.3710  148.6810 C   0  0  0  0  0  2  0  0  0  0  0  0
  1 12  1  0  0  0  0
  2 16  2  0  0  0  0
  2  6  1  0  0  0  0
  3 16  1  0  0  0  0
  6 14  1  0  0  0  0
  7 13  2  0  0  0  0
  8 17  1  0  0  0  0
  9  7  1  0  0  0  0
 10  8  2  0  0  0  0
 11 14  2  0  0  0  0
 11  7  1  0  0  0  0
 12  2  1  0  0  0  0
 13  4  1  0  0  0  0
 13  5  1  0  0  0  0
 14 18  1  0  0  0  0
 15  1  1  0  0  0  0
 15 21  2  0  0  0  0
 16 11  1  0  0  0  0
 17 21  1  0  0  0  0
 18  4  2  0  0  0  0
 19 10  1  0  0  0  0
 19 20  2  0  0  0  0
 20 15  1  0  0  0  0
 21  3  1  0  0  0  0
 22 25  1  0  0  0  0
 23 24  1  0  0  0  0
 23 12  1  0  0  0  0
 25 24  1  0  0  0  0
 26 27  1  0  0  0  0
 26 22  1  0  0  0  0
 27 23  1  0  0  0  0
M  END
>  <MODEL>
5

>  <REMARK>
 VINA RESULT:      -5.7      2.591      6.200
  Name = 
  1 active torsions:
  status: ('A' for Active; 'I' for Inactive)
    1  A    between atoms: C_9  and  N_15
                            x       y       z     vdW  Elec       q    Type
                         _______ _______ _______ _____ _____    ______ ____

>  <TORSDO>
F 1

$$$$
=
 OpenBabel11052423123D

 27 31  0  0  0  0  0  0  0  0999 V2000
  159.5580  210.7390  154.1360 C   0  0  0  0  0  2  0  0  0  0  0  0
  160.6540  209.3500  152.4090 C   0  0  0  0  0  0  0  0  0  0  0  0
  160.7960  208.1170  154.6190 N   0  0  0  0  0  2  0  0  0  0  0  0
  161.6090  205.6560  150.0710 C   0  0  0  0  0  3  0  0  0  0  0  0
  161.8360  203.6980  151.4760 O   0  0  0  0  0  1  0  0  0  0  0  0
  160.8490  209.0650  151.1340 O   0  0  0  0  0  0  0  0  0  0  0  0
  161.3050  205.8360  152.4910 C   0  0  0  0  0  0  0  0  0  0  0  0
  162.7320  209.5580  157.1590 C   0  0  0  0  0  3  0  0  0  0  0  0
  161.2820  205.2660  153.7590 O   0  0  0  0  0  1  0  0  0  0  0  0
  162.8040  210.8820  157.2600 C   0  0  0  0  0  3  0  0  0  0  0  0
  161.0510  207.1950  152.3040 C   0  0  0  0  0  0  0  0  0  0  0  0
  160.3200  210.6470  152.8980 N   0  0  0  0  0  0  0  0  0  0  0  0
  161.5830  205.0590  151.3500 C   0  0  0  0  0  0  0  0  0  0  0  0
  161.0870  207.7750  151.0580 C   0  0  0  0  0  0  0  0  0  0  0  0
  160.4240  210.4460  155.3170 C   0  0  0  0  0  0  0  0  0  0  0  0
  160.7730  208.2100  153.1900 C   0  0  0  0  0  0  0  0  0  0  0  0
  161.4450  208.8480  156.9050 C   0  0  0  0  0  2  0  0  0  0  0  0
  161.3600  207.0320  149.9120 C   0  0  0  0  0  3  0  0  0  0  0  0
  161.6640  211.7940  157.0580 C   0  0  0  0  0  3  0  0  0  0  0  0
  160.6330  211.5950  156.2280 C   0  0  0  0  0  3  0  0  0  0  0  0
  160.8840  209.1970  155.5660 C   0  0  0  0  0  0  0  0  0  0  0  0
  160.6030  213.7320  149.9960 C   0  0  0  0  0  2  0  0  0  0  0  0
  160.4940  211.8130  152.0410 C   0  0  0  0  0  3  0  0  0  0  0  0
  159.1430  212.4160  151.6510 C   0  0  0  0  0  2  0  0  0  0  0  0
  159.3180  213.7020  150.8350 C   0  0  0  0  0  2  0  0  0  0  0  0
  161.0310  212.3260  149.5840 C   0  0  0  0  0  2  0  0  0  0  0  0
  161.3490  211.4630  150.8120 C   0  0  0  0  0  2  0  0  0  0  0  0
  1 15  1  0  0  0  0
  2 12  1  0  0  0  0
  2 16  2  0  0  0  0
  3 21  1  0  0  0  0
  4 13  1  0  0  0  0
  6  2  1  0  0  0  0
  7  9  1  0  0  0  0
  8 10  2  0  0  0  0
 11  7  1  0  0  0  0
 11 16  1  0  0  0  0
 12  1  1  0  0  0  0
 13  5  1  0  0  0  0
 13  7  2  0  0  0  0
 14  6  1  0  0  0  0
 14 11  2  0  0  0  0
 15 21  2  0  0  0  0
 15 20  1  0  0  0  0
 16  3  1  0  0  0  0
 17  8  1  0  0  0  0
 18  4  2  0  0  0  0
 18 14  1  0  0  0  0
 19 10  1  0  0  0  0
 20 19  2  0  0  0  0
 21 17  1  0  0  0  0
 22 25  1  0  0  0  0
 23 12  1  0  0  0  0
 24 23  1  0  0  0  0
 25 24  1  0  0  0  0
 26 22  1  0  0  0  0
 26 27  1  0  0  0  0
 27 23  1  0  0  0  0
M  END
>  <MODEL>
6

>  <REMARK>
 VINA RESULT:      -5.6      2.188      5.547
  Name = 
  1 active torsions:
  status: ('A' for Active; 'I' for Inactive)
    1  A    between atoms: C_9  and  N_15
                            x       y       z     vdW  Elec       q    Type
                         _______ _______ _______ _____ _____    ______ ____

>  <TORSDO>
F 1

$$$$
=
 OpenBabel11052423123D

 27 31  0  0  0  0  0  0  0  0999 V2000
  159.0690  212.9900  154.1260 C   0  0  0  0  0  2  0  0  0  0  0  0
  159.3480  210.5330  154.1370 C   0  0  0  0  0  0  0  0  0  0  0  0
  160.2510  211.4190  151.9400 N   0  0  0  0  0  2  0  0  0  0  0  0
  161.4420  206.6100  153.6320 C   0  0  0  0  0  3  0  0  0  0  0  0
  162.8120  206.5360  151.6370 O   0  0  0  0  0  1  0  0  0  0  0  0
  159.3990  209.3970  154.8100 O   0  0  0  0  0  0  0  0  0  0  0  0
  161.5760  208.5570  152.1580 C   0  0  0  0  0  0  0  0  0  0  0  0
  157.9700  212.8870  149.7230 C   0  0  0  0  0  3  0  0  0  0  0  0
  162.0590  209.1870  151.0160 O   0  0  0  0  0  1  0  0  0  0  0  0
  156.9260  213.5580  150.2020 C   0  0  0  0  0  3  0  0  0  0  0  0
  160.7120  209.2140  153.0350 C   0  0  0  0  0  0  0  0  0  0  0  0
  158.6040  211.6770  154.5490 N   0  0  0  0  0  0  0  0  0  0  0  0
  161.9470  207.2360  152.4710 C   0  0  0  0  0  0  0  0  0  0  0  0
  160.2130  208.5980  154.1590 C   0  0  0  0  0  0  0  0  0  0  0  0
  158.7580  213.2260  152.6850 C   0  0  0  0  0  0  0  0  0  0  0  0
  160.1540  210.4710  153.0100 C   0  0  0  0  0  0  0  0  0  0  0  0
  159.3410  213.0400  150.2880 C   0  0  0  0  0  2  0  0  0  0  0  0
  160.5620  207.2920  154.4930 C   0  0  0  0  0  3  0  0  0  0  0  0
  156.9790  214.4510  151.3730 C   0  0  0  0  0  3  0  0  0  0  0  0
  157.7810  214.3110  152.4360 C   0  0  0  0  0  3  0  0  0  0  0  0
  159.4060  212.5600  151.7000 C   0  0  0  0  0  0  0  0  0  0  0  0
  155.3370  211.6570  157.2600 C   0  0  0  0  0  2  0  0  0  0  0  0
  157.5840  211.5450  155.5830 C   0  0  0  0  0  3  0  0  0  0  0  0
  156.3430  210.8320  155.0430 C   0  0  0  0  0  2  0  0  0  0  0  0
  155.3060  210.5980  156.1500 C   0  0  0  0  0  2  0  0  0  0  0  0
  155.8120  213.0060  156.7280 C   0  0  0  0  0  2  0  0  0  0  0  0
  157.2470  212.9150  156.1940 C   0  0  0  0  0  2  0  0  0  0  0  0
  1 12  1  0  0  0  0
  2 12  1  0  0  0  0
  2  6  1  0  0  0  0
  3 16  1  0  0  0  0
  4 18  1  0  0  0  0
  5 13  1  0  0  0  0
  7 13  1  0  0  0  0
  7 11  2  0  0  0  0
  8 10  2  0  0  0  0
  8 17  1  0  0  0  0
  9  7  1  0  0  0  0
 10 19  1  0  0  0  0
 11 14  1  0  0  0  0
 12 23  1  0  0  0  0
 13  4  2  0  0  0  0
 14 18  2  0  0  0  0
 14  6  1  0  0  0  0
 15  1  1  0  0  0  0
 16 11  1  0  0  0  0
 16  2  2  0  0  0  0
 17 21  1  0  0  0  0
 19 20  2  0  0  0  0
 20 15  1  0  0  0  0
 21  3  1  0  0  0  0
 21 15  2  0  0  0  0
 23 27  1  0  0  0  0
 24 23  1  0  0  0  0
 24 25  1  0  0  0  0
 25 22  1  0  0  0  0
 26 22  1  0  0  0  0
 27 26  1  0  0  0  0
M  END
>  <MODEL>
7

>  <REMARK>
 VINA RESULT:      -5.4      3.198      4.827
  Name = 
  1 active torsions:
  status: ('A' for Active; 'I' for Inactive)
    1  A    between atoms: C_9  and  N_15
                            x       y       z     vdW  Elec       q    Type
                         _______ _______ _______ _____ _____    ______ ____

>  <TORSDO>
F 1

$$$$
=
 OpenBabel11052423123D

 27 31  0  0  0  0  0  0  0  0999 V2000
  160.0730  212.3470  155.1720 C   0  0  0  0  0  2  0  0  0  0  0  0
  160.5690  211.4720  152.9130 C   0  0  0  0  0  0  0  0  0  0  0  0
  159.0770  213.5060  152.6610 N   0  0  0  0  0  2  0  0  0  0  0  0
  161.7870  211.5980  148.6090 C   0  0  0  0  0  3  0  0  0  0  0  0
  160.8430  213.4900  147.4290 O   0  0  0  0  0  1  0  0  0  0  0  0
  161.3170  210.7240  152.1220 O   0  0  0  0  0  0  0  0  0  0  0  0
  160.3520  213.1910  149.7850 C   0  0  0  0  0  0  0  0  0  0  0  0
  155.8140  213.2910  153.9180 C   0  0  0  0  0  3  0  0  0  0  0  0
  159.5600  214.3340  149.7990 O   0  0  0  0  0  1  0  0  0  0  0  0
  155.5750  212.5610  155.0050 C   0  0  0  0  0  3  0  0  0  0  0  0
  160.5430  212.4290  150.9390 C   0  0  0  0  0  0  0  0  0  0  0  0
  160.3660  211.2170  154.3010 N   0  0  0  0  0  0  0  0  0  0  0  0
  160.9920  212.7650  148.6060 C   0  0  0  0  0  0  0  0  0  0  0  0
  161.3090  211.2870  150.9350 C   0  0  0  0  0  0  0  0  0  0  0  0
  158.6680  212.8140  154.9850 C   0  0  0  0  0  0  0  0  0  0  0  0
  160.0550  212.5570  152.2190 C   0  0  0  0  0  0  0  0  0  0  0  0
  156.9880  214.2030  153.8160 C   0  0  0  0  0  2  0  0  0  0  0  0
  161.9530  210.8420  149.7830 C   0  0  0  0  0  3  0  0  0  0  0  0
  156.4620  212.5050  156.1800 C   0  0  0  0  0  3  0  0  0  0  0  0
  157.7950  212.6280  156.1680 C   0  0  0  0  0  3  0  0  0  0  0  0
  158.2740  213.4450  153.8540 C   0  0  0  0  0  0  0  0  0  0  0  0
  161.3610  207.6790  156.4240 C   0  0  0  0  0  2  0  0  0  0  0  0
  160.7160  209.9160  154.8590 C   0  0  0  0  0  3  0  0  0  0  0  0
  159.5450  209.3230  155.6440 C   0  0  0  0  0  2  0  0  0  0  0  0
  159.8690  207.9100  156.1490 C   0  0  0  0  0  2  0  0  0  0  0  0
  162.0580  208.9740  156.8330 C   0  0  0  0  0  2  0  0  0  0  0  0
  161.9950  210.0140  155.7070 C   0  0  0  0  0  2  0  0  0  0  0  0
  2 12  1  0  0  0  0
  3 21  1  0  0  0  0
  4 18  1  0  0  0  0
  5 13  1  0  0  0  0
  6  2  1  0  0  0  0
  7  9  1  0  0  0  0
  7 11  2  0  0  0  0
  8 10  2  0  0  0  0
 10 19  1  0  0  0  0
 11 16  1  0  0  0  0
 12 23  1  0  0  0  0
 12  1  1  0  0  0  0
 13  4  2  0  0  0  0
 13  7  1  0  0  0  0
 14 11  1  0  0  0  0
 14  6  1  0  0  0  0
 15  1  1  0  0  0  0
 15 20  1  0  0  0  0
 16  3  1  0  0  0  0
 16  2  2  0  0  0  0
 17 21  1  0  0  0  0
 17  8  1  0  0  0  0
 18 14  2  0  0  0  0
 20 19  2  0  0  0  0
 21 15  2  0  0  0  0
 22 26  1  0  0  0  0
 23 24  1  0  0  0  0
 23 27  1  0  0  0  0
 24 25  1  0  0  0  0
 25 22  1  0  0  0  0
 27 26  1  0  0  0  0
M  END
>  <MODEL>
8

>  <REMARK>
 VINA RESULT:      -5.1      3.995      6.226
  Name = 
  1 active torsions:
  status: ('A' for Active; 'I' for Inactive)
    1  A    between atoms: C_9  and  N_15
                            x       y       z     vdW  Elec       q    Type
                         _______ _______ _______ _____ _____    ______ ____

>  <TORSDO>
F 1

$$$$
=
 OpenBabel11052423123D

 27 31  0  0  0  0  0  0  0  0999 V2000
  160.6130  213.3890  151.2710 C   0  0  0  0  0  2  0  0  0  0  0  0
  160.2240  211.0670  152.0280 C   0  0  0  0  0  0  0  0  0  0  0  0
  161.6690  210.9850  149.9470 N   0  0  0  0  0  2  0  0  0  0  0  0
  161.2530  206.8560  153.1380 C   0  0  0  0  0  3  0  0  0  0  0  0
  162.8550  205.8590  151.6210 O   0  0  0  0  0  1  0  0  0  0  0  0
  159.8620  210.2280  152.9820 O   0  0  0  0  0  0  0  0  0  0  0  0
  162.1340  208.1450  151.2560 C   0  0  0  0  0  0  0  0  0  0  0  0
  160.2450  212.0810  146.9400 C   0  0  0  0  0  3  0  0  0  0  0  0
  162.9420  208.2560  150.1300 O   0  0  0  0  0  1  0  0  0  0  0  0
  159.3540  213.0690  146.9550 C   0  0  0  0  0  3  0  0  0  0  0  0
  161.3460  209.2130  151.6880 C   0  0  0  0  0  0  0  0  0  0  0  0
  159.7540  212.4090  151.9210 N   0  0  0  0  0  0  0  0  0  0  0  0
  162.0850  206.9520  152.0010 C   0  0  0  0  0  0  0  0  0  0  0  0
  160.5290  209.1120  152.7890 C   0  0  0  0  0  0  0  0  0  0  0  0
  160.6110  213.2000  149.7900 C   0  0  0  0  0  0  0  0  0  0  0  0
  161.1530  210.4790  151.1840 C   0  0  0  0  0  0  0  0  0  0  0  0
  161.4980  212.1280  147.7450 C   0  0  0  0  0  2  0  0  0  0  0  0
  160.4600  207.9440  153.5440 C   0  0  0  0  0  3  0  0  0  0  0  0
  159.4540  214.2650  147.8110 C   0  0  0  0  0  3  0  0  0  0  0  0
  160.0090  214.3190  149.0280 C   0  0  0  0  0  3  0  0  0  0  0  0
  161.2060  212.1320  149.2090 C   0  0  0  0  0  0  0  0  0  0  0  0
  156.5890  214.1420  154.1580 C   0  0  0  0  0  2  0  0  0  0  0  0
  158.5840  212.8310  152.6820 C   0  0  0  0  0  3  0  0  0  0  0  0
  157.7320  213.8150  151.8780 C   0  0  0  0  0  2  0  0  0  0  0  0
  156.4470  214.1860  152.6300 C   0  0  0  0  0  2  0  0  0  0  0  0
  158.0190  214.4500  154.5920 C   0  0  0  0  0  2  0  0  0  0  0  0
  159.0000  213.4030  154.0470 C   0  0  0  0  0  2  0  0  0  0  0  0
  1 12  1  0  0  0  0
  2  6  1  0  0  0  0
  3 16  1  0  0  0  0
  4 18  1  0  0  0  0
  5 13  1  0  0  0  0
  7 11  2  0  0  0  0
  7 13  1  0  0  0  0
  8 10  2  0  0  0  0
  8 17  1  0  0  0  0
  9  7  1  0  0  0  0
 10 19  1  0  0  0  0
 11 14  1  0  0  0  0
 12  2  1  0  0  0  0
 12 23  1  0  0  0  0
 13  4  2  0  0  0  0
 14  6  1  0  0  0  0
 14 18  2  0  0  0  0
 15  1  1  0  0  0  0
 16 11  1  0  0  0  0
 16  2  2  0  0  0  0
 17 21  1  0  0  0  0
 19 20  2  0  0  0  0
 20 15  1  0  0  0  0
 21 15  2  0  0  0  0
 21  3  1  0  0  0  0
 22 26  1  0  0  0  0
 23 27  1  0  0  0  0
 24 25  1  0  0  0  0
 24 23  1  0  0  0  0
 25 22  1  0  0  0  0
 27 26  1  0  0  0  0
M  END
>  <MODEL>
9

>  <REMARK>
 VINA RESULT:      -4.9      2.556      3.866
  Name = 
  1 active torsions:
  status: ('A' for Active; 'I' for Inactive)
    1  A    between atoms: C_9  and  N_15
                            x       y       z     vdW  Elec       q    Type
                         _______ _______ _______ _____ _____    ______ ____

>  <TORSDO>
F 1

$$$$
