=
 OpenBabel11052421593D

 30 34  0  0  1  0  0  0  0  0999 V2000
  162.3880  206.8890  148.9840 C   0  0  2  0  0  3  0  0  0  0  0  0
  160.1840  203.1490  149.5380 C   0  0  0  0  0  2  0  0  0  0  0  0
  160.9610  206.9620  149.5640 C   0  0  2  0  0  3  0  0  0  0  0  0
  162.9760  208.2560  148.6040 C   0  0  0  0  0  2  0  0  0  0  0  0
  161.4670  208.6700  153.0420 C   0  0  0  0  0  0  0  0  0  0  0  0
  161.3400  209.4260  150.1130 C   0  0  0  0  0  2  0  0  0  0  0  0
  161.0690  206.2820  152.4280 C   0  0  2  0  0  3  0  0  0  0  0  0
  160.7540  203.8470  151.8650 C   0  0  0  0  0  2  0  0  0  0  0  0
  161.9450  209.3770  148.7040 C   0  0  1  0  0  3  0  0  0  0  0  0
  160.8440  208.0610  150.6390 C   0  0  2  0  0  3  0  0  0  0  0  0
  161.7550  205.9230  153.7520 C   0  0  0  0  0  2  0  0  0  0  0  0
  160.8660  208.2720  154.3570 C   0  0  0  0  0  2  0  0  0  0  0  0
  160.6170  204.5140  148.9890 C   0  0  1  0  0  3  0  0  0  0  0  0
  162.4740  205.8700  147.8430 C   0  0  1  0  0  3  0  0  0  0  0  0
  160.5060  205.5940  150.0860 C   0  0  1  0  0  3  0  0  0  0  0  0
  160.9620  202.7810  150.7980 C   0  0  0  0  0  2  0  0  0  0  0  0
  161.2680  205.1990  151.3660 C   0  0  1  0  0  3  0  0  0  0  0  0
  161.4860  206.9600  154.8580 C   0  0  0  0  0  2  0  0  0  0  0  0
  161.9120  209.7980  152.9030 O   0  0  0  0  0  0  0  0  0  0  0  0
  162.0220  204.4770  148.3480 C   0  0  2  0  0  3  0  0  0  0  0  0
  161.5840  207.6480  151.9300 C   0  0  1  0  0  3  0  0  0  0  0  0
  160.6320  211.6350  147.5370 O   0  0  0  0  0  0  0  0  0  0  0  0
  162.5750  210.6500  148.3870 N   0  0  0  0  0  2  0  0  0  0  0  0
  162.5630  213.0220  147.5400 C   0  0  0  0  0  1  0  0  0  0  0  0
  161.8570  211.7430  147.8150 C   0  0  0  0  0  0  0  0  0  0  0  0
  161.8280  206.3870  146.5350 C   0  0  0  0  0  3  0  0  0  0  0  0
  160.3130  206.2760  146.4870 C   0  0  0  0  0  1  0  0  0  0  0  0
  162.4490  205.7460  145.3100 C   0  0  0  0  0  1  0  0  0  0  0  0
  161.0670  202.7440  146.8860 C   0  0  0  0  0  2  0  0  0  0  0  0
  162.1420  203.4100  147.3010 C   0  0  0  0  0  3  0  0  0  0  0  0
  1  4  1  6  0  0  0
  1  3  1  0  0  0  0
  2 16  1  0  0  0  0
  3 15  1  0  0  0  0
  3 10  1  0  0  0  0
  4  9  1  0  0  0  0
  5 12  1  0  0  0  0
  6 10  1  0  0  0  0
  7 11  1  0  0  0  0
  9  6  1  0  0  0  0
 10 21  1  0  0  0  0
 11 18  1  0  0  0  0
 12 18  1  0  0  0  0
 13  2  1  0  0  0  0
 13 15  1  0  0  0  0
 14 20  1  0  0  0  0
 14  1  1  0  0  0  0
 15 17  1  0  0  0  0
 16  8  1  0  0  0  0
 17  8  1  0  0  0  0
 17  7  1  0  0  0  0
 19  5  2  0  0  0  0
 20 13  1  0  0  0  0
 21  7  1  0  0  0  0
 21  5  1  0  0  0  0
 22 25  2  0  0  0  0
 23  9  1  0  0  0  0
 24 25  1  0  0  0  0
 25 23  1  0  0  0  0
 26 14  1  0  0  0  0
 27 26  1  0  0  0  0
 28 26  1  0  0  0  0
 29 30  2  0  0  0  0
 30 20  1  0  0  0  0
M  END
>  <MODEL>
1

>  <REMARK>
 VINA RESULT:      -8.3      0.000      0.000
  Name = 
  3 active torsions:
  status: ('A' for Active; 'I' for Inactive)
    1  A    between atoms: C_2  and  C_22
    2  A    between atoms: N_9  and  C_12
    3  A    between atoms: C_28  and  C_29
                            x       y       z     vdW  Elec       q    Type
                         _______ _______ _______ _____ _____    ______ ____

>  <TORSDO>
F 3

$$$$
=
 OpenBabel11052421593D

 30 34  0  0  1  0  0  0  0  0999 V2000
  159.6140  210.7290  153.2520 C   0  0  2  0  0  3  0  0  0  0  0  0
  160.4530  209.1880  157.2610 C   0  0  0  0  0  2  0  0  0  0  0  0
  161.0690  210.3610  153.6020 C   0  0  2  0  0  3  0  0  0  0  0  0
  159.4640  211.4820  151.9210 C   0  0  0  0  0  2  0  0  0  0  0  0
  161.9860  207.6250  150.9660 C   0  0  0  0  0  0  0  0  0  0  0  0
  161.7010  210.6340  151.1430 C   0  0  0  0  0  2  0  0  0  0  0  0
  161.3840  207.4400  153.3830 C   0  0  2  0  0  3  0  0  0  0  0  0
  160.7020  207.1840  155.7950 C   0  0  0  0  0  2  0  0  0  0  0  0
  160.8140  211.8720  151.3240 C   0  0  1  0  0  3  0  0  0  0  0  0
  161.7990  209.7350  152.3960 C   0  0  2  0  0  3  0  0  0  0  0  0
  160.9350  206.0080  153.0680 C   0  0  0  0  0  2  0  0  0  0  0  0
  162.6940  206.3230  151.2010 C   0  0  0  0  0  2  0  0  0  0  0  0
  160.4060  210.1140  156.0390 C   0  0  1  0  0  3  0  0  0  0  0  0
  158.9240  211.4460  154.4170 C   0  0  1  0  0  3  0  0  0  0  0  0
  161.1280  209.4610  154.8420 C   0  0  1  0  0  3  0  0  0  0  0  0
  159.9020  207.8030  156.9320 C   0  0  0  0  0  2  0  0  0  0  0  0
  160.5880  208.0500  154.5390 C   0  0  1  0  0  3  0  0  0  0  0  0
  161.7890  205.3490  151.9680 C   0  0  0  0  0  2  0  0  0  0  0  0
  161.9390  208.0870  149.8370 O   0  0  0  0  0  0  0  0  0  0  0  0
  158.9690  210.5540  155.6820 C   0  0  2  0  0  3  0  0  0  0  0  0
  161.2750  208.3100  152.1150 C   0  0  1  0  0  3  0  0  0  0  0  0
  159.6390  214.4530  150.9530 O   0  0  0  0  0  0  0  0  0  0  0  0
  160.6070  212.5300  150.0420 N   0  0  0  0  0  2  0  0  0  0  0  0
  159.8680  214.4490  148.5870 C   0  0  0  0  0  1  0  0  0  0  0  0
  160.0240  213.8290  149.9290 C   0  0  0  0  0  0  0  0  0  0  0  0
  159.3950  212.9120  154.5740 C   0  0  0  0  0  3  0  0  0  0  0  0
  160.0850  213.2200  155.8940 C   0  0  0  0  0  1  0  0  0  0  0  0
  158.2700  213.8950  154.3180 C   0  0  0  0  0  1  0  0  0  0  0  0
  156.9560  211.4520  156.7760 C   0  0  0  0  0  2  0  0  0  0  0  0
  158.2530  211.1630  156.8520 C   0  0  0  0  0  3  0  0  0  0  0  0
  1  4  1  6  0  0  0
  1  3  1  0  0  0  0
  1 14  1  0  0  0  0
  3 15  1  0  0  0  0
  5 12  1  0  0  0  0
  5 21  1  0  0  0  0
  6  9  1  0  0  0  0
  6 10  1  0  0  0  0
  7 17  1  0  0  0  0
  8 16  1  0  0  0  0
  9  4  1  0  0  0  0
 10  3  1  0  0  0  0
 11  7  1  0  0  0  0
 12 18  1  0  0  0  0
 13  2  1  0  0  0  0
 14 26  1  0  0  0  0
 14 20  1  0  0  0  0
 15 13  1  0  0  0  0
 16  2  1  0  0  0  0
 17 15  1  0  0  0  0
 17  8  1  0  0  0  0
 18 11  1  0  0  0  0
 19  5  2  0  0  0  0
 20 13  1  0  0  0  0
 20 30  1  0  0  0  0
 21 10  1  0  0  0  0
 21  7  1  0  0  0  0
 23  9  1  0  0  0  0
 24 25  1  0  0  0  0
 25 23  1  0  0  0  0
 25 22  2  0  0  0  0
 26 27  1  0  0  0  0
 28 26  1  0  0  0  0
 29 30  2  0  0  0  0
M  END
>  <MODEL>
2

>  <REMARK>
 VINA RESULT:      -6.5      3.167      7.101
  Name = 
  3 active torsions:
  status: ('A' for Active; 'I' for Inactive)
    1  A    between atoms: C_2  and  C_22
    2  A    between atoms: N_9  and  C_12
    3  A    between atoms: C_28  and  C_29
                            x       y       z     vdW  Elec       q    Type
                         _______ _______ _______ _____ _____    ______ ____

>  <TORSDO>
F 3

$$$$
=
 OpenBabel11052421593D

 30 34  0  0  1  0  0  0  0  0999 V2000
  159.2740  211.2750  153.0550 C   0  0  2  0  0  3  0  0  0  0  0  0
  160.2720  209.5660  156.9590 C   0  0  0  0  0  2  0  0  0  0  0  0
  160.7550  210.9770  153.3640 C   0  0  2  0  0  3  0  0  0  0  0  0
  159.0580  212.0900  151.7710 C   0  0  0  0  0  2  0  0  0  0  0  0
  161.7880  208.4520  150.5650 C   0  0  0  0  0  0  0  0  0  0  0  0
  161.3270  211.4240  150.9160 C   0  0  0  0  0  2  0  0  0  0  0  0
  161.2400  208.0970  152.9760 C   0  0  2  0  0  3  0  0  0  0  0  0
  160.6150  207.6660  155.3780 C   0  0  0  0  0  2  0  0  0  0  0  0
  160.3710  212.5950  151.1790 C   0  0  1  0  0  3  0  0  0  0  0  0
  161.5000  210.4650  152.1140 C   0  0  2  0  0  3  0  0  0  0  0  0
  160.8710  206.6610  152.5860 C   0  0  0  0  0  2  0  0  0  0  0  0
  162.5760  207.1850  150.7160 C   0  0  0  0  0  2  0  0  0  0  0  0
  160.1490  210.5550  155.7920 C   0  0  1  0  0  3  0  0  0  0  0  0
  158.5630  211.8830  154.2690 C   0  0  1  0  0  3  0  0  0  0  0  0
  160.8890  210.0140  154.5500 C   0  0  1  0  0  3  0  0  0  0  0  0
  159.7990  208.1710  156.5600 C   0  0  0  0  0  2  0  0  0  0  0  0
  160.4280  208.5920  154.1750 C   0  0  1  0  0  3  0  0  0  0  0  0
  161.7440  206.1160  151.4390 C   0  0  0  0  0  2  0  0  0  0  0  0
  161.6950  208.9730  149.4650 O   0  0  0  0  0  0  0  0  0  0  0  0
  158.6830  210.9260  155.4810 C   0  0  2  0  0  3  0  0  0  0  0  0
  161.0570  209.0280  151.7610 C   0  0  1  0  0  3  0  0  0  0  0  0
  162.0770  212.6310  148.8830 O   0  0  0  0  0  0  0  0  0  0  0  0
  160.1040  213.3090  149.9400 N   0  0  0  0  0  2  0  0  0  0  0  0
  160.6430  214.0100  147.5810 C   0  0  0  0  0  1  0  0  0  0  0  0
  160.9950  213.2750  148.8240 C   0  0  0  0  0  0  0  0  0  0  0  0
  158.9480  213.3630  154.5020 C   0  0  0  0  0  3  0  0  0  0  0  0
  159.5100  213.6640  155.8830 C   0  0  0  0  0  1  0  0  0  0  0  0
  157.8030  214.3010  154.1770 C   0  0  0  0  0  1  0  0  0  0  0  0
  156.6390  211.6360  156.6520 C   0  0  0  0  0  2  0  0  0  0  0  0
  157.9520  211.4240  156.6920 C   0  0  0  0  0  3  0  0  0  0  0  0
  1  4  1  6  0  0  0
  1  3  1  0  0  0  0
  1 14  1  0  0  0  0
  3 15  1  0  0  0  0
  5 12  1  0  0  0  0
  5 21  1  0  0  0  0
  6  9  1  0  0  0  0
  6 10  1  0  0  0  0
  7 17  1  0  0  0  0
  8 16  1  0  0  0  0
  9  4  1  0  0  0  0
 10  3  1  0  0  0  0
 11  7  1  0  0  0  0
 12 18  1  0  0  0  0
 13  2  1  0  0  0  0
 14 26  1  0  0  0  0
 14 20  1  0  0  0  0
 15 13  1  0  0  0  0
 16  2  1  0  0  0  0
 17 15  1  0  0  0  0
 17  8  1  0  0  0  0
 18 11  1  0  0  0  0
 19  5  2  0  0  0  0
 20 13  1  0  0  0  0
 20 30  1  0  0  0  0
 21 10  1  0  0  0  0
 21  7  1  0  0  0  0
 23  9  1  0  0  0  0
 24 25  1  0  0  0  0
 25 22  2  0  0  0  0
 25 23  1  0  0  0  0
 26 27  1  0  0  0  0
 28 26  1  0  0  0  0
 29 30  2  0  0  0  0
M  END
>  <MODEL>
3

>  <REMARK>
 VINA RESULT:      -6.3      3.305      7.215
  Name = 
  3 active torsions:
  status: ('A' for Active; 'I' for Inactive)
    1  A    between atoms: C_2  and  C_22
    2  A    between atoms: N_9  and  C_12
    3  A    between atoms: C_28  and  C_29
                            x       y       z     vdW  Elec       q    Type
                         _______ _______ _______ _____ _____    ______ ____

>  <TORSDO>
F 3

$$$$
=
 OpenBabel11052421593D

 30 34  0  0  1  0  0  0  0  0999 V2000
  160.9910  206.4270  148.8430 C   0  0  2  0  0  3  0  0  0  0  0  0
  161.8350  206.1240  153.1270 C   0  0  0  0  0  2  0  0  0  0  0  0
  162.1390  205.5030  149.2970 C   0  0  2  0  0  3  0  0  0  0  0  0
  160.9360  206.6500  147.3240 C   0  0  0  0  0  2  0  0  0  0  0  0
  161.0770  201.9890  147.9560 C   0  0  0  0  0  0  0  0  0  0  0  0
  162.2870  204.5670  146.9260 C   0  0  0  0  0  2  0  0  0  0  0  0
  160.9880  202.9650  150.2530 C   0  0  2  0  0  3  0  0  0  0  0  0
  160.7940  203.9250  152.5740 C   0  0  0  0  0  2  0  0  0  0  0  0
  162.1490  206.0610  146.6090 C   0  0  1  0  0  3  0  0  0  0  0  0
  162.2140  204.2280  148.4320 C   0  0  2  0  0  3  0  0  0  0  0  0
  159.8620  201.9630  150.5360 C   0  0  0  0  0  2  0  0  0  0  0  0
  161.1200  200.6770  148.6810 C   0  0  0  0  0  2  0  0  0  0  0  0
  161.9710  206.4690  151.6380 C   0  0  1  0  0  3  0  0  0  0  0  0
  160.9860  207.7390  149.6340 C   0  0  1  0  0  3  0  0  0  0  0  0
  162.0290  205.1790  150.7920 C   0  0  1  0  0  3  0  0  0  0  0  0
  160.6420  205.2080  153.3800 C   0  0  0  0  0  2  0  0  0  0  0  0
  160.8380  204.2450  151.0790 C   0  0  1  0  0  3  0  0  0  0  0  0
  160.0500  200.6340  149.7810 C   0  0  0  0  0  2  0  0  0  0  0  0
  161.0150  201.9980  146.7370 O   0  0  0  0  0  0  0  0  0  0  0  0
  160.8720  207.4370  151.1500 C   0  0  2  0  0  3  0  0  0  0  0  0
  161.0340  203.2820  148.7450 C   0  0  1  0  0  3  0  0  0  0  0  0
  160.7910  204.2920  144.8170 O   0  0  0  0  0  0  0  0  0  0  0  0
  162.0100  206.2560  145.1730 N   0  0  0  0  0  2  0  0  0  0  0  0
  161.1840  205.6150  142.8820 C   0  0  0  0  0  1  0  0  0  0  0  0
  161.3060  205.3370  144.3360 C   0  0  0  0  0  0  0  0  0  0  0  0
  162.1120  208.7030  149.1930 C   0  0  0  0  0  3  0  0  0  0  0  0
  161.6360  209.9360  148.4400 C   0  0  0  0  0  1  0  0  0  0  0  0
  163.1930  207.9850  148.4100 C   0  0  0  0  0  1  0  0  0  0  0  0
  161.8910  209.3840  152.2560 C   0  0  0  0  0  2  0  0  0  0  0  0
  160.7940  208.6790  151.9870 C   0  0  0  0  0  3  0  0  0  0  0  0
  1  4  1  6  0  0  0
  1  3  1  0  0  0  0
  1 14  1  0  0  0  0
  2 16  1  0  0  0  0
  3 15  1  0  0  0  0
  5 12  1  0  0  0  0
  5 21  1  0  0  0  0
  6 10  1  0  0  0  0
  7 11  1  0  0  0  0
  7 17  1  0  0  0  0
  8 16  1  0  0  0  0
  9  6  1  0  0  0  0
  9  4  1  0  0  0  0
 10 21  1  0  0  0  0
 10  3  1  0  0  0  0
 12 18  1  0  0  0  0
 13  2  1  0  0  0  0
 14 20  1  0  0  0  0
 15 17  1  0  0  0  0
 15 13  1  0  0  0  0
 17  8  1  0  0  0  0
 18 11  1  0  0  0  0
 19  5  2  0  0  0  0
 20 13  1  0  0  0  0
 20 30  1  0  0  0  0
 21  7  1  0  0  0  0
 23  9  1  0  0  0  0
 24 25  1  0  0  0  0
 25 22  2  0  0  0  0
 25 23  1  0  0  0  0
 26 14  1  0  0  0  0
 27 26  1  0  0  0  0
 28 26  1  0  0  0  0
 30 29  2  0  0  0  0
M  END
>  <MODEL>
4

>  <REMARK>
 VINA RESULT:      -6.2      2.818      5.672
  Name = 
  3 active torsions:
  status: ('A' for Active; 'I' for Inactive)
    1  A    between atoms: C_2  and  C_22
    2  A    between atoms: N_9  and  C_12
    3  A    between atoms: C_28  and  C_29
                            x       y       z     vdW  Elec       q    Type
                         _______ _______ _______ _____ _____    ______ ____

>  <TORSDO>
F 3

$$$$
=
 OpenBabel11052421593D

 30 34  0  0  1  0  0  0  0  0999 V2000
  161.8170  204.9080  148.7880 C   0  0  2  0  0  3  0  0  0  0  0  0
  160.1510  203.9930  152.7290 C   0  0  0  0  0  2  0  0  0  0  0  0
  160.5900  205.7100  149.2650 C   0  0  2  0  0  3  0  0  0  0  0  0
  162.1700  205.1320  147.3090 C   0  0  0  0  0  2  0  0  0  0  0  0
  161.8430  209.4120  149.2390 C   0  0  0  0  0  0  0  0  0  0  0  0
  160.8940  207.2990  147.2890 C   0  0  0  0  0  2  0  0  0  0  0  0
  161.4980  207.8090  151.1220 C   0  0  2  0  0  3  0  0  0  0  0  0
  161.2490  206.2100  153.0540 C   0  0  0  0  0  2  0  0  0  0  0  0
  161.1120  205.9560  146.5800 C   0  0  1  0  0  3  0  0  0  0  0  0
  160.6670  207.1830  148.8130 C   0  0  2  0  0  3  0  0  0  0  0  0
  162.5320  208.6350  151.8950 C   0  0  0  0  0  2  0  0  0  0  0  0
  161.6410  210.4580  150.2950 C   0  0  0  0  0  2  0  0  0  0  0  0
  160.3120  204.1010  151.2070 C   0  0  1  0  0  3  0  0  0  0  0  0
  161.6870  203.4240  149.1460 C   0  0  1  0  0  3  0  0  0  0  0  0
  160.4020  205.5820  150.7820 C   0  0  1  0  0  3  0  0  0  0  0  0
  161.2590  204.7430  153.4620 C   0  0  0  0  0  2  0  0  0  0  0  0
  161.5010  206.3400  151.5500 C   0  0  1  0  0  3  0  0  0  0  0  0
  162.4770  210.1340  151.5410 C   0  0  0  0  0  2  0  0  0  0  0  0
  162.1420  209.7540  148.1060 O   0  0  0  0  0  0  0  0  0  0  0  0
  161.4990  203.2690  150.6750 C   0  0  2  0  0  3  0  0  0  0  0  0
  161.7500  207.9450  149.6080 C   0  0  1  0  0  3  0  0  0  0  0  0
  160.4250  204.3060  144.3480 O   0  0  0  0  0  0  0  0  0  0  0  0
  161.5300  206.1800  145.2050 N   0  0  0  0  0  2  0  0  0  0  0  0
  161.5860  205.6270  142.7480 C   0  0  0  0  0  1  0  0  0  0  0  0
  161.1400  205.3210  144.1320 C   0  0  0  0  0  0  0  0  0  0  0  0
  160.6810  202.6790  148.2350 C   0  0  0  0  0  3  0  0  0  0  0  0
  159.7880  201.6830  148.9560 C   0  0  0  0  0  1  0  0  0  0  0  0
  161.3700  202.0230  147.0550 C   0  0  0  0  0  1  0  0  0  0  0  0
  162.4040  201.3020  151.8450 C   0  0  0  0  0  2  0  0  0  0  0  0
  161.4290  201.8350  151.1120 C   0  0  0  0  0  3  0  0  0  0  0  0
  1  4  1  6  0  0  0
  1 14  1  0  0  0  0
  1  3  1  0  0  0  0
  2 16  1  0  0  0  0
  3 15  1  0  0  0  0
  5 21  1  0  0  0  0
  5 12  1  0  0  0  0
  6 10  1  0  0  0  0
  7 17  1  0  0  0  0
  7 11  1  0  0  0  0
  8 16  1  0  0  0  0
  9  6  1  0  0  0  0
  9  4  1  0  0  0  0
 10  3  1  0  0  0  0
 10 21  1  0  0  0  0
 12 18  1  0  0  0  0
 13  2  1  0  0  0  0
 14 20  1  0  0  0  0
 15 13  1  0  0  0  0
 15 17  1  0  0  0  0
 17  8  1  0  0  0  0
 18 11  1  0  0  0  0
 19  5  2  0  0  0  0
 20 30  1  0  0  0  0
 20 13  1  0  0  0  0
 21  7  1  0  0  0  0
 23  9  1  0  0  0  0
 24 25  1  0  0  0  0
 25 22  2  0  0  0  0
 25 23  1  0  0  0  0
 26 27  1  0  0  0  0
 26 14  1  0  0  0  0
 28 26  1  0  0  0  0
 30 29  2  0  0  0  0
M  END
>  <MODEL>
5

>  <REMARK>
 VINA RESULT:      -6.1      2.209      4.264
  Name = 
  3 active torsions:
  status: ('A' for Active; 'I' for Inactive)
    1  A    between atoms: C_2  and  C_22
    2  A    between atoms: N_9  and  C_12
    3  A    between atoms: C_28  and  C_29
                            x       y       z     vdW  Elec       q    Type
                         _______ _______ _______ _____ _____    ______ ____

>  <TORSDO>
F 3

$$$$
=
 OpenBabel11052421593D

 30 34  0  0  1  0  0  0  0  0999 V2000
  162.1080  206.6070  150.9220 C   0  0  2  0  0  3  0  0  0  0  0  0
  160.9510  207.3300  146.7640 C   0  0  0  0  0  2  0  0  0  0  0  0
  160.7170  206.1290  150.4590 C   0  0  2  0  0  3  0  0  0  0  0  0
  162.3190  206.5270  152.4420 C   0  0  0  0  0  2  0  0  0  0  0  0
  160.8070  202.2760  151.1060 C   0  0  0  0  0  0  0  0  0  0  0  0
  160.4540  204.8530  152.6550 C   0  0  0  0  0  2  0  0  0  0  0  0
  161.0310  203.5920  148.9950 C   0  0  2  0  0  3  0  0  0  0  0  0
  161.3490  204.8670  146.8460 C   0  0  0  0  0  2  0  0  0  0  0  0
  161.0340  206.1700  153.1860 C   0  0  1  0  0  3  0  0  0  0  0  0
  160.3340  204.7870  151.1160 C   0  0  2  0  0  3  0  0  0  0  0  0
  161.8030  202.3900  148.4360 C   0  0  0  0  0  2  0  0  0  0  0  0
  160.3450  201.1800  150.1920 C   0  0  0  0  0  2  0  0  0  0  0  0
  161.0110  207.4220  148.2950 C   0  0  1  0  0  3  0  0  0  0  0  0
  162.4410  207.9890  150.3520 C   0  0  1  0  0  3  0  0  0  0  0  0
  160.6380  206.0640  148.9280 C   0  0  1  0  0  3  0  0  0  0  0  0
  161.8130  206.1850  146.2400 C   0  0  0  0  0  2  0  0  0  0  0  0
  161.4910  204.9100  148.3690 C   0  0  1  0  0  3  0  0  0  0  0  0
  161.2880  201.0470  148.9890 C   0  0  0  0  0  2  0  0  0  0  0  0
  160.9440  202.0460  152.2970 O   0  0  0  0  0  0  0  0  0  0  0  0
  162.3700  207.9490  148.8050 C   0  0  2  0  0  3  0  0  0  0  0  0
  161.1700  203.6290  150.5300 C   0  0  1  0  0  3  0  0  0  0  0  0
  160.0510  207.9300  155.2150 O   0  0  0  0  0  0  0  0  0  0  0  0
  161.3110  206.0550  154.6100 N   0  0  0  0  0  2  0  0  0  0  0  0
  161.0830  206.7700  157.0140 C   0  0  0  0  0  1  0  0  0  0  0  0
  160.7760  206.9640  155.5740 C   0  0  0  0  0  0  0  0  0  0  0  0
  161.6680  209.1270  151.0610 C   0  0  0  0  0  3  0  0  0  0  0  0
  162.5270  210.0410  151.9200 C   0  0  0  0  0  1  0  0  0  0  0  0
  160.4920  208.5970  151.8570 C   0  0  0  0  0  1  0  0  0  0  0  0
  162.0130  210.3440  148.3700 C   0  0  0  0  0  2  0  0  0  0  0  0
  162.7490  209.2540  148.1690 C   0  0  0  0  0  3  0  0  0  0  0  0
  1  4  1  1  0  0  0
  2 13  1  0  0  0  0
  3  1  1  0  0  0  0
  3 10  1  0  0  0  0
  4  9  1  0  0  0  0
  5 19  2  0  0  0  0
  6  9  1  0  0  0  0
  7 21  1  0  0  0  0
  8 17  1  0  0  0  0
  9 23  1  0  0  0  0
 10  6  1  0  0  0  0
 11 18  1  0  0  0  0
 11  7  1  0  0  0  0
 12  5  1  0  0  0  0
 13 20  1  0  0  0  0
 13 15  1  0  0  0  0
 14  1  1  0  0  0  0
 14 26  1  0  0  0  0
 15  3  1  0  0  0  0
 16  2  1  0  0  0  0
 16  8  1  0  0  0  0
 17 15  1  0  0  0  0
 17  7  1  0  0  0  0
 18 12  1  0  0  0  0
 20 14  1  0  0  0  0
 21  5  1  0  0  0  0
 21 10  1  0  0  0  0
 22 25  2  0  0  0  0
 23 25  1  0  0  0  0
 25 24  1  0  0  0  0
 26 28  1  0  0  0  0
 26 27  1  0  0  0  0
 30 29  2  0  0  0  0
 30 20  1  0  0  0  0
M  END
>  <MODEL>
6

>  <REMARK>
 VINA RESULT:      -6.0      2.525      6.115
  Name = 
  3 active torsions:
  status: ('A' for Active; 'I' for Inactive)
    1  A    between atoms: C_2  and  C_22
    2  A    between atoms: N_9  and  C_12
    3  A    between atoms: C_28  and  C_29
                            x       y       z     vdW  Elec       q    Type
                         _______ _______ _______ _____ _____    ______ ____

>  <TORSDO>
F 3

$$$$
=
 OpenBabel11052421593D

 30 34  0  0  1  0  0  0  0  0999 V2000
  160.9380  208.6180  150.9190 C   0  0  2  0  0  3  0  0  0  0  0  0
  161.8360  205.7770  154.1240 C   0  0  0  0  0  2  0  0  0  0  0  0
  162.2510  207.8130  150.8330 C   0  0  2  0  0  3  0  0  0  0  0  0
  160.8350  209.7510  149.8860 C   0  0  0  0  0  2  0  0  0  0  0  0
  161.9190  205.8660  147.4600 C   0  0  0  0  0  0  0  0  0  0  0  0
  162.5790  208.6530  148.4450 C   0  0  0  0  0  2  0  0  0  0  0  0
  161.6390  205.1130  149.8250 C   0  0  2  0  0  3  0  0  0  0  0  0
  161.2600  204.3150  152.1840 C   0  0  0  0  0  2  0  0  0  0  0  0
  162.1400  209.9570  149.1220 C   0  0  1  0  0  3  0  0  0  0  0  0
  162.5790  207.4220  149.3780 C   0  0  2  0  0  3  0  0  0  0  0  0
  160.7400  204.0030  149.2690 C   0  0  0  0  0  2  0  0  0  0  0  0
  162.2280  204.4230  147.1990 C   0  0  0  0  0  2  0  0  0  0  0  0
  161.8960  207.0110  153.2150 C   0  0  1  0  0  3  0  0  0  0  0  0
  160.6690  209.0950  152.3490 C   0  0  1  0  0  3  0  0  0  0  0  0
  162.2110  206.5940  151.7630 C   0  0  1  0  0  3  0  0  0  0  0  0
  160.8530  204.7380  153.5890 C   0  0  0  0  0  2  0  0  0  0  0  0
  161.2350  205.5220  151.2440 C   0  0  1  0  0  3  0  0  0  0  0  0
  161.1910  203.5170  147.8780 C   0  0  0  0  0  2  0  0  0  0  0  0
  161.8530  206.6450  146.5230 O   0  0  0  0  0  0  0  0  0  0  0  0
  160.6230  207.8790  153.3080 C   0  0  2  0  0  3  0  0  0  0  0  0
  161.6170  206.3250  148.8730 C   0  0  1  0  0  3  0  0  0  0  0  0
  161.3070  212.6400  149.6610 O   0  0  0  0  0  0  0  0  0  0  0  0
  161.9610  211.0020  148.1250 N   0  0  0  0  0  2  0  0  0  0  0  0
  161.4160  213.3500  147.3950 C   0  0  0  0  0  1  0  0  0  0  0  0
  161.5540  212.3290  148.4650 C   0  0  0  0  0  0  0  0  0  0  0  0
  161.5760  210.2800  152.7610 C   0  0  0  0  0  3  0  0  0  0  0  0
  162.5260  209.9840  153.9100 C   0  0  0  0  0  1  0  0  0  0  0  0
  160.7710  211.5330  153.0420 C   0  0  0  0  0  1  0  0  0  0  0  0
  159.5080  207.4930  155.4670 C   0  0  0  0  0  2  0  0  0  0  0  0
  160.2970  208.2630  154.7210 C   0  0  0  0  0  3  0  0  0  0  0  0
  1  4  1  6  0  0  0
  1 14  1  0  0  0  0
  3  1  1  0  0  0  0
  3 15  1  0  0  0  0
  5 21  1  0  0  0  0
  6  9  1  0  0  0  0
  6 10  1  0  0  0  0
  7 17  1  0  0  0  0
  8 16  1  0  0  0  0
  9  4  1  0  0  0  0
 10  3  1  0  0  0  0
 11  7  1  0  0  0  0
 12  5  1  0  0  0  0
 12 18  1  0  0  0  0
 13 20  1  0  0  0  0
 13  2  1  0  0  0  0
 14 26  1  0  0  0  0
 14 20  1  0  0  0  0
 15 13  1  0  0  0  0
 16  2  1  0  0  0  0
 17 15  1  0  0  0  0
 17  8  1  0  0  0  0
 18 11  1  0  0  0  0
 19  5  2  0  0  0  0
 20 30  1  0  0  0  0
 21 10  1  0  0  0  0
 21  7  1  0  0  0  0
 23 25  1  0  0  0  0
 23  9  1  0  0  0  0
 24 25  1  0  0  0  0
 25 22  2  0  0  0  0
 26 28  1  0  0  0  0
 26 27  1  0  0  0  0
 30 29  2  0  0  0  0
M  END
>  <MODEL>
7

>  <REMARK>
 VINA RESULT:      -5.7      1.566      5.340
  Name = 
  3 active torsions:
  status: ('A' for Active; 'I' for Inactive)
    1  A    between atoms: C_2  and  C_22
    2  A    between atoms: N_9  and  C_12
    3  A    between atoms: C_28  and  C_29
                            x       y       z     vdW  Elec       q    Type
                         _______ _______ _______ _____ _____    ______ ____

>  <TORSDO>
F 3

$$$$
=
 OpenBabel11052421593D

 30 34  0  0  1  0  0  0  0  0999 V2000
  160.7110  209.2130  151.6280 C   0  0  2  0  0  3  0  0  0  0  0  0
  161.7790  206.1000  154.5120 C   0  0  0  0  0  2  0  0  0  0  0  0
  162.0530  208.4790  151.4430 C   0  0  2  0  0  3  0  0  0  0  0  0
  160.5430  210.4410  150.7190 C   0  0  0  0  0  2  0  0  0  0  0  0
  161.7440  206.8750  147.8920 C   0  0  0  0  0  0  0  0  0  0  0  0
  162.3060  209.5720  149.1500 C   0  0  0  0  0  2  0  0  0  0  0  0
  161.5360  205.8730  150.1700 C   0  0  2  0  0  3  0  0  0  0  0  0
  161.2310  204.8210  152.4390 C   0  0  0  0  0  2  0  0  0  0  0  0
  161.8260  210.7800  149.9640 C   0  0  1  0  0  3  0  0  0  0  0  0
  162.3730  208.2530  149.9510 C   0  0  2  0  0  3  0  0  0  0  0  0
  160.6740  204.7870  149.5140 C   0  0  0  0  0  2  0  0  0  0  0  0
  162.1080  205.4800  147.4790 C   0  0  0  0  0  2  0  0  0  0  0  0
  161.7730  207.4230  153.7340 C   0  0  1  0  0  3  0  0  0  0  0  0
  160.4470  209.5300  153.1030 C   0  0  1  0  0  3  0  0  0  0  0  0
  162.0800  207.1700  152.2430 C   0  0  1  0  0  3  0  0  0  0  0  0
  160.8310  205.0810  153.8860 C   0  0  0  0  0  2  0  0  0  0  0  0
  161.1400  206.1160  151.6280 C   0  0  1  0  0  3  0  0  0  0  0  0
  161.1210  204.4670  148.0750 C   0  0  0  0  0  2  0  0  0  0  0  0
  161.6310  207.7420  147.0410 O   0  0  0  0  0  0  0  0  0  0  0  0
  160.4670  208.2210  153.9320 C   0  0  2  0  0  3  0  0  0  0  0  0
  161.4480  207.1740  149.3480 C   0  0  1  0  0  3  0  0  0  0  0  0
  163.7810  212.0130  148.2790 O   0  0  0  0  0  0  0  0  0  0  0  0
  161.5870  211.9130  149.0820 N   0  0  0  0  0  2  0  0  0  0  0  0
  162.2840  213.6150  147.3620 C   0  0  0  0  0  1  0  0  0  0  0  0
  162.6080  212.4740  148.2560 C   0  0  0  0  0  0  0  0  0  0  0  0
  161.3110  210.7040  153.6230 C   0  0  0  0  0  3  0  0  0  0  0  0
  162.3830  210.3090  154.6260 C   0  0  0  0  0  1  0  0  0  0  0  0
  160.4580  211.8320  154.1690 C   0  0  0  0  0  1  0  0  0  0  0  0
  159.3610  207.5970  156.0400 C   0  0  0  0  0  2  0  0  0  0  0  0
  160.1500  208.4440  155.3820 C   0  0  0  0  0  3  0  0  0  0  0  0
  1  4  1  6  0  0  0
  1 14  1  0  0  0  0
  3  1  1  0  0  0  0
  3 15  1  0  0  0  0
  5 21  1  0  0  0  0
  6 10  1  0  0  0  0
  6  9  1  0  0  0  0
  7 17  1  0  0  0  0
  8 16  1  0  0  0  0
  9  4  1  0  0  0  0
 10  3  1  0  0  0  0
 11  7  1  0  0  0  0
 12  5  1  0  0  0  0
 12 18  1  0  0  0  0
 13 20  1  0  0  0  0
 13  2  1  0  0  0  0
 14 26  1  0  0  0  0
 14 20  1  0  0  0  0
 15 13  1  0  0  0  0
 16  2  1  0  0  0  0
 17 15  1  0  0  0  0
 17  8  1  0  0  0  0
 18 11  1  0  0  0  0
 19  5  2  0  0  0  0
 20 30  1  0  0  0  0
 21 10  1  0  0  0  0
 21  7  1  0  0  0  0
 23  9  1  0  0  0  0
 24 25  1  0  0  0  0
 25 22  2  0  0  0  0
 25 23  1  0  0  0  0
 26 28  1  0  0  0  0
 26 27  1  0  0  0  0
 30 29  2  0  0  0  0
M  END
>  <MODEL>
8

>  <REMARK>
 VINA RESULT:      -5.4      1.734      5.597
  Name = 
  3 active torsions:
  status: ('A' for Active; 'I' for Inactive)
    1  A    between atoms: C_2  and  C_22
    2  A    between atoms: N_9  and  C_12
    3  A    between atoms: C_28  and  C_29
                            x       y       z     vdW  Elec       q    Type
                         _______ _______ _______ _____ _____    ______ ____

>  <TORSDO>
F 3

$$$$
