=
 OpenBabel11062410383D

 32 37  0  0  0  0  0  0  0  0999 V2000
  161.2020  204.1050  147.6220 C   0  0  0  0  0  3  0  0  0  0  0  0
  161.6390  207.6820  151.1510 C   0  0  0  0  0  0  0  0  0  0  0  0
  161.4260  211.6380  148.1620 N   0  0  0  0  0  2  0  0  0  0  0  0
  161.7620  212.5200  149.2760 C   0  0  0  0  0  2  0  0  0  0  0  0
  160.8570  208.2040  153.5560 C   0  0  0  0  0  0  0  0  0  0  0  0
  160.7830  207.0500  154.3520 C   0  0  0  0  0  0  0  0  0  0  0  0
  161.5930  205.4870  150.0260 C   0  0  0  0  0  0  0  0  0  0  0  0
  162.4700  207.4870  148.7760 C   0  0  0  0  0  2  0  0  0  0  0  0
  160.1120  209.6000  155.3990 C   0  0  0  0  0  0  0  0  0  0  0  0
  161.7090  205.4080  147.6020 C   0  0  0  0  0  3  0  0  0  0  0  0
  162.1360  210.3750  148.3610 C   0  0  0  0  0  2  0  0  0  0  0  0
  161.9290  208.3020  149.8690 N   0  0  0  0  0  0  0  0  0  0  0  0
  161.7650  209.7320  149.6780 C   0  0  0  0  0  0  0  0  0  0  0  0
  161.0850  209.8630  151.9540 N   0  0  0  0  0  0  0  0  0  0  0  0
  160.0350  208.4570  156.2080 C   0  0  0  0  0  3  0  0  0  0  0  0
  161.9000  206.1030  148.7990 C   0  0  0  0  0  0  0  0  0  0  0  0
  160.3680  207.1920  155.6870 C   0  0  0  0  0  3  0  0  0  0  0  0
  161.0980  204.1800  150.0420 C   0  0  0  0  0  3  0  0  0  0  0  0
  160.8980  203.4890  148.8420 C   0  0  0  0  0  0  0  0  0  0  0  0
  161.1330  211.9830  150.5590 C   0  0  0  0  0  2  0  0  0  0  0  0
  161.3690  210.5040  150.7120 C   0  0  0  0  0  0  0  0  0  0  0  0
  160.6600  210.4470  153.1220 O   0  0  0  0  0  0  0  0  0  0  0  0
  161.8320  206.2040  151.3170 C   0  0  0  0  0  2  0  0  0  0  0  0
  161.0920  205.8210  153.8810 F   0  0  0  0  0  0  0  0  0  0  0  0
  159.7910  210.8210  155.8930 F   0  0  0  0  0  0  0  0  0  0  0  0
  161.2310  208.4660  152.1550 C   0  0  0  0  0  0  0  0  0  0  0  0
  160.5240  209.4470  154.0790 C   0  0  0  0  0  0  0  0  0  0  0  0
  160.3430  202.1040  148.8630 C   0  0  0  0  0  2  0  0  0  0  0  0
  161.3970  201.0810  148.4600 C   0  0  0  0  0  2  0  0  0  0  0  0
  161.1600  200.5850  147.0740 C   0  0  0  0  0  0  0  0  0  0  0  0
  160.4710  201.3730  146.1620 O   0  0  0  0  0  0  0  0  0  0  0  0
  161.6060  199.4630  146.7230 O   0  0  0  0  0  1  0  0  0  0  0  0
  1 19  1  0  0  0  0
  2 23  1  0  0  0  0
  2 26  2  0  0  0  0
  3 11  1  0  0  0  0
  3  4  1  0  0  0  0
  4 20  1  0  0  0  0
  5 27  2  0  0  0  0
  5  6  1  0  0  0  0
  6 17  2  0  0  0  0
  7 18  1  0  0  0  0
  7 23  1  0  0  0  0
  8 16  1  0  0  0  0
  8 12  1  0  0  0  0
  9 25  1  0  0  0  0
  9 15  2  0  0  0  0
 10  1  2  0  0  0  0
 10 16  1  0  0  0  0
 11 13  1  0  0  0  0
 12  2  1  0  0  0  0
 13 12  1  0  0  0  0
 13 21  2  0  0  0  0
 14 26  1  0  0  0  0
 14 22  1  0  0  0  0
 16  7  2  0  0  0  0
 17 15  1  0  0  0  0
 19 28  1  0  0  0  0
 19 18  2  0  0  0  0
 20 21  1  0  0  0  0
 21 14  1  0  0  0  0
 22 27  1  0  0  0  0
 24  6  1  0  0  0  0
 26  5  1  0  0  0  0
 27  9  1  0  0  0  0
 29 28  1  0  0  0  0
 30 29  1  0  0  0  0
 31 30  2  0  0  0  0
 32 30  1  0  0  0  0
M  END
>  <MODEL>
1

>  <REMARK>
 VINA RESULT:      -9.7      0.000      0.000
  Name = 
  3 active torsions:
  status: ('A' for Active; 'I' for Inactive)
    1  A    between atoms: C_1  and  C_10
    2  A    between atoms: C_10  and  C_19
    3  A    between atoms: C_19  and  C_24
                            x       y       z     vdW  Elec       q    Type
                         _______ _______ _______ _____ _____    ______ ____

>  <TORSDO>
F 3

$$$$
=
 OpenBabel11062410383D

 32 37  0  0  0  0  0  0  0  0999 V2000
  161.2770  205.0910  147.9970 C   0  0  0  0  0  3  0  0  0  0  0  0
  161.5710  209.0070  151.1630 C   0  0  0  0  0  0  0  0  0  0  0  0
  161.0460  212.6420  147.8250 N   0  0  0  0  0  2  0  0  0  0  0  0
  161.3520  213.6440  148.8410 C   0  0  0  0  0  2  0  0  0  0  0  0
  160.8130  209.7080  153.5300 C   0  0  0  0  0  0  0  0  0  0  0  0
  160.8300  208.6330  154.4320 C   0  0  0  0  0  0  0  0  0  0  0  0
  161.6360  206.7160  150.2490 C   0  0  0  0  0  0  0  0  0  0  0  0
  162.3590  208.6380  148.7940 C   0  0  0  0  0  2  0  0  0  0  0  0
  160.0260  211.2260  155.2550 C   0  0  0  0  0  0  0  0  0  0  0  0
  161.7010  206.4150  147.8410 C   0  0  0  0  0  3  0  0  0  0  0  0
  161.8370  211.4480  148.1200 C   0  0  0  0  0  2  0  0  0  0  0  0
  161.7930  209.5190  149.8200 N   0  0  0  0  0  0  0  0  0  0  0  0
  161.5370  210.9120  149.5020 C   0  0  0  0  0  0  0  0  0  0  0  0
  160.9020  211.2180  151.7740 N   0  0  0  0  0  0  0  0  0  0  0  0
  160.0380  210.1630  156.1690 C   0  0  0  0  0  3  0  0  0  0  0  0
  161.8760  207.2300  148.9620 C   0  0  0  0  0  0  0  0  0  0  0  0
  160.4370  208.8760  155.7590 C   0  0  0  0  0  3  0  0  0  0  0  0
  161.2230  205.3900  150.4020 C   0  0  0  0  0  3  0  0  0  0  0  0
  161.0390  204.5770  149.2780 C   0  0  0  0  0  0  0  0  0  0  0  0
  160.7860  213.1950  150.1860 C   0  0  0  0  0  2  0  0  0  0  0  0
  161.1170  211.7540  150.4700 C   0  0  0  0  0  0  0  0  0  0  0  0
  160.4680  211.8840  152.8940 O   0  0  0  0  0  0  0  0  0  0  0  0
  161.8590  207.5660  151.4610 C   0  0  0  0  0  2  0  0  0  0  0  0
  161.2030  207.3840  154.0690 F   0  0  0  0  0  0  0  0  0  0  0  0
  159.6410  212.4670  155.6420 F   0  0  0  0  0  0  0  0  0  0  0  0
  161.1390  209.8580  152.1000 C   0  0  0  0  0  0  0  0  0  0  0  0
  160.4160  210.9730  153.9430 C   0  0  0  0  0  0  0  0  0  0  0  0
  160.5720  203.1700  149.4440 C   0  0  0  0  0  2  0  0  0  0  0  0
  160.8870  202.3340  148.2100 C   0  0  0  0  0  2  0  0  0  0  0  0
  161.2420  200.9360  148.5880 C   0  0  0  0  0  0  0  0  0  0  0  0
  161.5640  200.0110  147.6050 O   0  0  0  0  0  0  0  0  0  0  0  0
  161.2750  200.6020  149.8000 O   0  0  0  0  0  1  0  0  0  0  0  0
  1 19  1  0  0  0  0
  2 23  1  0  0  0  0
  2 26  2  0  0  0  0
  3 11  1  0  0  0  0
  3  4  1  0  0  0  0
  4 20  1  0  0  0  0
  5 27  2  0  0  0  0
  5  6  1  0  0  0  0
  6 17  2  0  0  0  0
  7 18  1  0  0  0  0
  7 23  1  0  0  0  0
  8 16  1  0  0  0  0
  8 12  1  0  0  0  0
  9 25  1  0  0  0  0
  9 15  2  0  0  0  0
 10  1  2  0  0  0  0
 10 16  1  0  0  0  0
 11 13  1  0  0  0  0
 12  2  1  0  0  0  0
 13 12  1  0  0  0  0
 13 21  2  0  0  0  0
 14 26  1  0  0  0  0
 14 22  1  0  0  0  0
 16  7  2  0  0  0  0
 17 15  1  0  0  0  0
 19 28  1  0  0  0  0
 19 18  2  0  0  0  0
 20 21  1  0  0  0  0
 21 14  1  0  0  0  0
 22 27  1  0  0  0  0
 24  6  1  0  0  0  0
 26  5  1  0  0  0  0
 27  9  1  0  0  0  0
 29 30  1  0  0  0  0
 29 28  1  0  0  0  0
 30 32  1  0  0  0  0
 31 30  2  0  0  0  0
M  END
>  <MODEL>
2

>  <REMARK>
 VINA RESULT:      -9.3      1.234      1.503
  Name = 
  3 active torsions:
  status: ('A' for Active; 'I' for Inactive)
    1  A    between atoms: C_1  and  C_10
    2  A    between atoms: C_10  and  C_19
    3  A    between atoms: C_19  and  C_24
                            x       y       z     vdW  Elec       q    Type
                         _______ _______ _______ _____ _____    ______ ____

>  <TORSDO>
F 3

$$$$
=
 OpenBabel11062410383D

 32 37  0  0  0  0  0  0  0  0999 V2000
  160.9220  213.1450  148.5740 C   0  0  0  0  0  3  0  0  0  0  0  0
  161.7530  208.4050  150.0860 C   0  0  0  0  0  0  0  0  0  0  0  0
  160.4730  208.9600  154.8490 N   0  0  0  0  0  2  0  0  0  0  0  0
  160.9520  207.6150  155.1540 C   0  0  0  0  0  2  0  0  0  0  0  0
  161.4730  205.9770  149.2530 C   0  0  0  0  0  0  0  0  0  0  0  0
  161.6980  205.8610  147.8730 C   0  0  0  0  0  0  0  0  0  0  0  0
  161.6890  210.4550  148.7150 C   0  0  0  0  0  0  0  0  0  0  0  0
  162.0540  210.6510  151.1980 C   0  0  0  0  0  2  0  0  0  0  0  0
  161.0130  203.5990  149.4430 C   0  0  0  0  0  0  0  0  0  0  0  0
  161.2730  212.5840  149.8060 C   0  0  0  0  0  3  0  0  0  0  0  0
  161.3360  209.5200  153.8110 C   0  0  0  0  0  2  0  0  0  0  0  0
  161.6860  209.2340  151.2790 N   0  0  0  0  0  0  0  0  0  0  0  0
  161.3360  208.6610  152.5660 C   0  0  0  0  0  0  0  0  0  0  0  0
  161.1670  206.5530  151.4770 N   0  0  0  0  0  0  0  0  0  0  0  0
  161.2370  203.4660  148.0650 C   0  0  0  0  0  3  0  0  0  0  0  0
  161.6510  211.2410  149.8820 C   0  0  0  0  0  0  0  0  0  0  0  0
  161.5760  204.5890  147.2870 C   0  0  0  0  0  3  0  0  0  0  0  0
  161.3490  211.0220  147.4840 C   0  0  0  0  0  3  0  0  0  0  0  0
  160.9610  212.3650  147.4120 C   0  0  0  0  0  0  0  0  0  0  0  0
  160.6830  206.6960  153.9650 C   0  0  0  0  0  2  0  0  0  0  0  0
  161.1000  207.3360  152.6670 C   0  0  0  0  0  0  0  0  0  0  0  0
  160.9520  205.2020  151.3480 O   0  0  0  0  0  0  0  0  0  0  0  0
  162.1310  209.0270  148.7750 C   0  0  0  0  0  2  0  0  0  0  0  0
  162.0210  206.9200  147.0970 F   0  0  0  0  0  0  0  0  0  0  0  0
  160.6840  202.5230  150.1980 F   0  0  0  0  0  0  0  0  0  0  0  0
  161.4990  207.0970  150.2100 C   0  0  0  0  0  0  0  0  0  0  0  0
  161.1360  204.8630  150.0120 C   0  0  0  0  0  0  0  0  0  0  0  0
  160.5730  212.9580  146.0990 C   0  0  0  0  0  2  0  0  0  0  0  0
  161.6960  213.8130  145.5260 C   0  0  0  0  0  2  0  0  0  0  0  0
  162.3420  213.1380  144.3630 C   0  0  0  0  0  0  0  0  0  0  0  0
  161.5680  212.4420  143.4450 O   0  0  0  0  0  0  0  0  0  0  0  0
  163.5860  213.2220  144.2010 O   0  0  0  0  0  1  0  0  0  0  0  0
  1 10  1  0  0  0  0
  2 26  2  0  0  0  0
  2 12  1  0  0  0  0
  3  4  1  0  0  0  0
  5 27  1  0  0  0  0
  5 26  1  0  0  0  0
  6  5  2  0  0  0  0
  7 23  1  0  0  0  0
  7 16  1  0  0  0  0
  8 12  1  0  0  0  0
  9 27  2  0  0  0  0
  9 25  1  0  0  0  0
 10 16  2  0  0  0  0
 11  3  1  0  0  0  0
 12 13  1  0  0  0  0
 13 21  2  0  0  0  0
 13 11  1  0  0  0  0
 14 21  1  0  0  0  0
 15  9  1  0  0  0  0
 16  8  1  0  0  0  0
 17  6  1  0  0  0  0
 17 15  2  0  0  0  0
 18  7  2  0  0  0  0
 19 18  1  0  0  0  0
 19  1  2  0  0  0  0
 20  4  1  0  0  0  0
 21 20  1  0  0  0  0
 22 14  1  0  0  0  0
 23  2  1  0  0  0  0
 24  6  1  0  0  0  0
 26 14  1  0  0  0  0
 27 22  1  0  0  0  0
 28 19  1  0  0  0  0
 29 28  1  0  0  0  0
 30 29  1  0  0  0  0
 31 30  2  0  0  0  0
 32 30  1  0  0  0  0
M  END
>  <MODEL>
3

>  <REMARK>
 VINA RESULT:      -9.1      3.477      7.726
  Name = 
  3 active torsions:
  status: ('A' for Active; 'I' for Inactive)
    1  A    between atoms: C_1  and  C_10
    2  A    between atoms: C_10  and  C_19
    3  A    between atoms: C_19  and  C_24
                            x       y       z     vdW  Elec       q    Type
                         _______ _______ _______ _____ _____    ______ ____

>  <TORSDO>
F 3

$$$$
=
 OpenBabel11062410383D

 32 37  0  0  0  0  0  0  0  0999 V2000
  161.2170  212.9720  148.7050 C   0  0  0  0  0  3  0  0  0  0  0  0
  161.9090  208.1350  149.9560 C   0  0  0  0  0  0  0  0  0  0  0  0
  160.6960  208.4770  154.7570 N   0  0  0  0  0  2  0  0  0  0  0  0
  161.1360  207.1040  154.9840 C   0  0  0  0  0  2  0  0  0  0  0  0
  161.5430  205.7650  149.0000 C   0  0  0  0  0  0  0  0  0  0  0  0
  161.7500  205.7150  147.6130 C   0  0  0  0  0  0  0  0  0  0  0  0
  161.8980  210.2560  148.6960 C   0  0  0  0  0  0  0  0  0  0  0  0
  162.2940  210.3080  151.1810 C   0  0  0  0  0  2  0  0  0  0  0  0
  161.0080  203.3960  149.0700 C   0  0  0  0  0  0  0  0  0  0  0  0
  161.5610  212.3360  149.9020 C   0  0  0  0  0  3  0  0  0  0  0  0
  161.5670  209.0640  153.7390 C   0  0  0  0  0  2  0  0  0  0  0  0
  161.8810  208.9010  151.1910 N   0  0  0  0  0  0  0  0  0  0  0  0
  161.5260  208.2730  152.4510 C   0  0  0  0  0  0  0  0  0  0  0  0
  161.2780  206.2310  151.2540 N   0  0  0  0  0  0  0  0  0  0  0  0
  161.2130  203.3290  147.6840 C   0  0  0  0  0  3  0  0  0  0  0  0
  161.8970  210.9790  149.9020 C   0  0  0  0  0  0  0  0  0  0  0  0
  161.5810  204.4800  146.9620 C   0  0  0  0  0  3  0  0  0  0  0  0
  161.5640  210.8980  147.5010 C   0  0  0  0  0  3  0  0  0  0  0  0
  161.2190  212.2540  147.5030 C   0  0  0  0  0  0  0  0  0  0  0  0
  160.8240  206.2580  153.7520 C   0  0  0  0  0  2  0  0  0  0  0  0
  161.2480  206.9520  152.4850 C   0  0  0  0  0  0  0  0  0  0  0  0
  161.0180  204.8970  151.0570 O   0  0  0  0  0  0  0  0  0  0  0  0
  162.2940  208.8130  148.6750 C   0  0  0  0  0  2  0  0  0  0  0  0
  162.0990  206.8030  146.8900 F   0  0  0  0  0  0  0  0  0  0  0  0
  160.6520  202.2920  149.7720 F   0  0  0  0  0  0  0  0  0  0  0  0
  161.6140  206.8310  150.0140 C   0  0  0  0  0  0  0  0  0  0  0  0
  161.1770  204.6230  149.7030 C   0  0  0  0  0  0  0  0  0  0  0  0
  160.8360  212.9280  146.2280 C   0  0  0  0  0  2  0  0  0  0  0  0
  159.6360  212.2480  145.5830 C   0  0  0  0  0  2  0  0  0  0  0  0
  158.3630  212.9060  145.9950 C   0  0  0  0  0  0  0  0  0  0  0  0
  157.1790  212.1820  146.0110 O   0  0  0  0  0  0  0  0  0  0  0  0
  158.3660  214.1120  146.3520 O   0  0  0  0  0  1  0  0  0  0  0  0
  1 10  1  0  0  0  0
  2 26  2  0  0  0  0
  2 12  1  0  0  0  0
  3  4  1  0  0  0  0
  5 27  1  0  0  0  0
  5 26  1  0  0  0  0
  6  5  2  0  0  0  0
  7 16  1  0  0  0  0
  8 12  1  0  0  0  0
  9 27  2  0  0  0  0
  9 25  1  0  0  0  0
 10 16  2  0  0  0  0
 11  3  1  0  0  0  0
 12 13  1  0  0  0  0
 13 21  2  0  0  0  0
 13 11  1  0  0  0  0
 14 21  1  0  0  0  0
 15  9  1  0  0  0  0
 16  8  1  0  0  0  0
 17  6  1  0  0  0  0
 17 15  2  0  0  0  0
 18 19  1  0  0  0  0
 18  7  2  0  0  0  0
 19  1  2  0  0  0  0
 20  4  1  0  0  0  0
 21 20  1  0  0  0  0
 22 14  1  0  0  0  0
 23  7  1  0  0  0  0
 23  2  1  0  0  0  0
 24  6  1  0  0  0  0
 26 14  1  0  0  0  0
 27 22  1  0  0  0  0
 28 19  1  0  0  0  0
 29 30  1  0  0  0  0
 29 28  1  0  0  0  0
 30 31  2  0  0  0  0
 30 32  1  0  0  0  0
M  END
>  <MODEL>
4

>  <REMARK>
 VINA RESULT:      -8.8      3.240      7.778
  Name = 
  3 active torsions:
  status: ('A' for Active; 'I' for Inactive)
    1  A    between atoms: C_1  and  C_10
    2  A    between atoms: C_10  and  C_19
    3  A    between atoms: C_19  and  C_24
                            x       y       z     vdW  Elec       q    Type
                         _______ _______ _______ _____ _____    ______ ____

>  <TORSDO>
F 3

$$$$
=
 OpenBabel11062410383D

 32 37  0  0  0  0  0  0  0  0999 V2000
  161.2920  212.0760  149.7530 C   0  0  0  0  0  3  0  0  0  0  0  0
  161.9460  207.1070  149.1920 C   0  0  0  0  0  0  0  0  0  0  0  0
  160.6930  205.7160  153.7880 N   0  0  0  0  0  2  0  0  0  0  0  0
  161.1220  204.3490  153.5120 C   0  0  0  0  0  2  0  0  0  0  0  0
  161.5750  205.2400  147.4470 C   0  0  0  0  0  0  0  0  0  0  0  0
  161.7940  205.6880  146.1360 C   0  0  0  0  0  0  0  0  0  0  0  0
  161.9580  209.5380  148.7760 C   0  0  0  0  0  0  0  0  0  0  0  0
  162.3320  208.6940  151.1160 C   0  0  0  0  0  2  0  0  0  0  0  0
  161.0270  203.0080  146.6610 C   0  0  0  0  0  0  0  0  0  0  0  0
  161.6220  211.0510  150.6450 C   0  0  0  0  0  3  0  0  0  0  0  0
  161.5750  206.6210  153.0540 C   0  0  0  0  0  2  0  0  0  0  0  0
  161.9110  207.3800  150.6190 N   0  0  0  0  0  0  0  0  0  0  0  0
  161.5420  206.3450  151.5680 C   0  0  0  0  0  0  0  0  0  0  0  0
  161.2930  204.8700  149.7180 N   0  0  0  0  0  0  0  0  0  0  0  0
  161.2430  203.4400  145.3440 C   0  0  0  0  0  3  0  0  0  0  0  0
  161.9500  209.7820  150.1610 C   0  0  0  0  0  0  0  0  0  0  0  0
  161.6240  204.7710  145.0850 C   0  0  0  0  0  3  0  0  0  0  0  0
  161.6380  210.5690  147.8880 C   0  0  0  0  0  3  0  0  0  0  0  0
  161.3000  211.8370  148.3740 C   0  0  0  0  0  0  0  0  0  0  0  0
  160.8170  204.0030  152.0560 C   0  0  0  0  0  2  0  0  0  0  0  0
  161.2560  205.1020  151.1240 C   0  0  0  0  0  0  0  0  0  0  0  0
  161.0270  203.6970  149.0540 O   0  0  0  0  0  0  0  0  0  0  0  0
  162.3460  208.1960  148.2420 C   0  0  0  0  0  2  0  0  0  0  0  0
  162.1560  206.9600  145.8530 F   0  0  0  0  0  0  0  0  0  0  0  0
  160.6580  201.7290  146.9180 F   0  0  0  0  0  0  0  0  0  0  0  0
  161.6430  205.8720  148.7770 C   0  0  0  0  0  0  0  0  0  0  0  0
  161.1970  203.9250  147.6930 C   0  0  0  0  0  0  0  0  0  0  0  0
  160.9330  212.9260  147.4230 C   0  0  0  0  0  2  0  0  0  0  0  0
  161.8660  212.9460  146.2190 C   0  0  0  0  0  2  0  0  0  0  0  0
  161.0940  212.9370  144.9430 C   0  0  0  0  0  0  0  0  0  0  0  0
  159.9200  212.2040  144.8460 O   0  0  0  0  0  1  0  0  0  0  0  0
  161.4940  213.6160  143.9620 O   0  0  0  0  0  0  0  0  0  0  0  0
  1 10  1  0  0  0  0
  2 12  1  0  0  0  0
  4  3  1  0  0  0  0
  5 27  1  0  0  0  0
  5 26  1  0  0  0  0
  6  5  2  0  0  0  0
  7 16  1  0  0  0  0
  9 25  1  0  0  0  0
  9 27  2  0  0  0  0
 11  3  1  0  0  0  0
 12  8  1  0  0  0  0
 12 13  1  0  0  0  0
 13 11  1  0  0  0  0
 14 21  1  0  0  0  0
 15  9  1  0  0  0  0
 16 10  2  0  0  0  0
 16  8  1  0  0  0  0
 17 15  2  0  0  0  0
 17  6  1  0  0  0  0
 18 19  1  0  0  0  0
 18  7  2  0  0  0  0
 19  1  2  0  0  0  0
 20  4  1  0  0  0  0
 21 13  2  0  0  0  0
 21 20  1  0  0  0  0
 22 14  1  0  0  0  0
 23  7  1  0  0  0  0
 23  2  1  0  0  0  0
 24  6  1  0  0  0  0
 26  2  2  0  0  0  0
 26 14  1  0  0  0  0
 27 22  1  0  0  0  0
 28 19  1  0  0  0  0
 29 28  1  0  0  0  0
 30 29  1  0  0  0  0
 31 30  1  0  0  0  0
 32 30  2  0  0  0  0
M  END
>  <MODEL>
5

>  <REMARK>
 VINA RESULT:      -7.3      3.628      8.384
  Name = 
  3 active torsions:
  status: ('A' for Active; 'I' for Inactive)
    1  A    between atoms: C_1  and  C_10
    2  A    between atoms: C_10  and  C_19
    3  A    between atoms: C_19  and  C_24
                            x       y       z     vdW  Elec       q    Type
                         _______ _______ _______ _____ _____    ______ ____

>  <TORSDO>
F 3

$$$$
