=
 OpenBabel11052422153D

 25 27  0  0  1  0  0  0  0  0999 V2000
  160.4790  208.9240  154.6950 C   0  0  0  0  0  0  0  0  0  0  0  0
  160.2080  206.9120  156.0230 O   0  0  0  0  0  1  0  0  0  0  0  0
  161.0510  206.7510  153.7640 C   0  0  0  0  0  0  0  0  0  0  0  0
  161.1470  205.3710  153.8900 O   0  0  0  0  0  1  0  0  0  0  0  0
  160.8670  209.5250  153.4870 C   0  0  0  0  0  3  0  0  0  0  0  0
  161.4250  207.3610  152.5640 C   0  0  0  0  0  3  0  0  0  0  0  0
  161.3390  208.7490  152.4260 C   0  0  0  0  0  0  0  0  0  0  0  0
  160.5780  207.5280  154.8310 C   0  0  0  0  0  0  0  0  0  0  0  0
  159.9680  209.7610  155.8450 C   0  0  2  0  0  3  0  0  0  0  0  0
  162.4840  209.8180  156.5590 C   0  0  0  0  0  1  0  0  0  0  0  0
  159.2680  210.9850  155.3610 C   0  0  0  0  0  0  0  0  0  0  0  0
  158.3500  213.5000  154.6260 C   0  0  0  0  0  3  0  0  0  0  0  0
  159.9230  212.1070  155.7870 C   0  0  0  0  0  0  0  0  0  0  0  0
  159.4920  213.3850  155.4350 C   0  0  0  0  0  3  0  0  0  0  0  0
  157.6700  212.3460  154.1890 C   0  0  0  0  0  3  0  0  0  0  0  0
  161.0750  210.3550  156.7730 C   0  0  1  0  0  3  0  0  0  0  0  0
  161.0440  211.8060  156.5920 N   0  0  0  0  0  2  0  0  0  0  0  0
  158.1300  211.0700  154.5550 C   0  0  0  0  0  3  0  0  0  0  0  0
  161.7040  209.4020  151.1410 C   0  0  0  0  0  2  0  0  0  0  0  0
  162.3930  208.3970  150.2330 C   0  0  0  0  0  2  0  0  0  0  0  0
  161.8750  208.5250  148.8090 C   0  0  0  0  0  2  0  0  0  0  0  0
  162.1400  207.3050  148.0570 N   0  0  0  0  0  2  0  0  0  0  0  0
  160.8900  206.5690  147.9440 C   0  0  1  0  0  3  0  0  0  0  0  0
  160.6560  206.2120  146.5550 N   0  0  0  0  0  1  0  0  0  0  0  0
  160.9730  205.3070  148.7770 C   0  0  0  0  0  1  0  0  0  0  0  0
  1  8  1  0  0  0  0
  3  4  1  0  0  0  0
  3  8  2  0  0  0  0
  5  1  2  0  0  0  0
  6  3  1  0  0  0  0
  7  6  2  0  0  0  0
  7  5  1  0  0  0  0
  8  2  1  0  0  0  0
  9  1  1  6  0  0  0
  9 16  1  0  0  0  0
 11 13  1  0  0  0  0
 11  9  1  0  0  0  0
 12 14  1  0  0  0  0
 13 17  1  0  0  0  0
 14 13  2  0  0  0  0
 15 18  1  0  0  0  0
 15 12  2  0  0  0  0
 16 10  1  6  0  0  0
 17 16  1  0  0  0  0
 18 11  2  0  0  0  0
 19  7  1  0  0  0  0
 20 19  1  0  0  0  0
 21 20  1  0  0  0  0
 22 21  1  0  0  0  0
 23 22  1  0  0  0  0
 23 25  1  1  0  0  0
 24 23  1  0  0  0  0
M  END
>  <MODEL>
1

>  <REMARK>
 VINA RESULT:      -6.5      0.000      0.000
  Name = 
  6 active torsions:
  status: ('A' for Active; 'I' for Inactive)
    1  A    between atoms: C_1  and  C_3
    2  A    between atoms: C_2  and  N_25
    3  A    between atoms: C_6  and  C_15
    4  A    between atoms: C_6  and  C_23
    5  A    between atoms: C_15  and  C_21
    6  A    between atoms: C_21  and  N_25
                            x       y       z     vdW  Elec       q    Type
                         _______ _______ _______ _____ _____    ______ ____

>  <TORSDO>
F 6

$$$$
=
 OpenBabel11052422153D

 25 27  0  0  1  0  0  0  0  0999 V2000
  161.3480  203.5520  149.0660 C   0  0  0  0  0  0  0  0  0  0  0  0
  161.4850  201.4890  150.3350 O   0  0  0  0  0  1  0  0  0  0  0  0
  160.9020  203.5490  151.4570 C   0  0  0  0  0  0  0  0  0  0  0  0
  160.8030  202.8710  152.6660 O   0  0  0  0  0  1  0  0  0  0  0  0
  161.0930  204.9330  149.0370 C   0  0  0  0  0  3  0  0  0  0  0  0
  160.6590  204.9240  151.4160 C   0  0  0  0  0  3  0  0  0  0  0  0
  160.7490  205.6160  150.2050 C   0  0  0  0  0  0  0  0  0  0  0  0
  161.2450  202.8590  150.2850 C   0  0  0  0  0  0  0  0  0  0  0  0
  161.7200  202.8090  147.8030 C   0  0  2  0  0  3  0  0  0  0  0  0
  159.5490  201.4370  148.3010 C   0  0  0  0  0  1  0  0  0  0  0  0
  161.8080  203.7310  146.6350 C   0  0  0  0  0  0  0  0  0  0  0  0
  161.5660  205.2300  144.3110 C   0  0  0  0  0  3  0  0  0  0  0  0
  160.8770  203.3920  145.6910 C   0  0  0  0  0  0  0  0  0  0  0  0
  160.7260  204.1240  144.5160 C   0  0  0  0  0  3  0  0  0  0  0  0
  162.5300  205.5790  145.2780 C   0  0  0  0  0  3  0  0  0  0  0  0
  160.6700  201.7590  147.3220 C   0  0  1  0  0  3  0  0  0  0  0  0
  160.1240  202.2540  146.0590 N   0  0  0  0  0  2  0  0  0  0  0  0
  162.6570  204.8260  146.4560 C   0  0  0  0  0  3  0  0  0  0  0  0
  160.5240  207.0860  150.1610 C   0  0  0  0  0  2  0  0  0  0  0  0
  161.8590  207.8080  150.1000 C   0  0  0  0  0  2  0  0  0  0  0  0
  162.0660  208.6490  151.3490 C   0  0  0  0  0  2  0  0  0  0  0  0
  160.8240  208.7550  152.1060 N   0  0  0  0  0  2  0  0  0  0  0  0
  161.1630  208.7590  153.5210 C   0  0  1  0  0  3  0  0  0  0  0  0
  160.3920  209.7820  154.2060 N   0  0  0  0  0  1  0  0  0  0  0  0
  160.8380  207.4050  154.1200 C   0  0  0  0  0  1  0  0  0  0  0  0
  1  8  1  0  0  0  0
  3  4  1  0  0  0  0
  5  1  2  0  0  0  0
  5  7  1  0  0  0  0
  6  3  1  0  0  0  0
  7  6  2  0  0  0  0
  8  2  1  0  0  0  0
  8  3  2  0  0  0  0
  9  1  1  1  0  0  0
 11  9  1  0  0  0  0
 12 14  2  0  0  0  0
 12 15  1  0  0  0  0
 13 17  1  0  0  0  0
 13 11  2  0  0  0  0
 14 13  1  0  0  0  0
 15 18  2  0  0  0  0
 16  9  1  0  0  0  0
 16 10  1  1  0  0  0
 17 16  1  0  0  0  0
 18 11  1  0  0  0  0
 19  7  1  0  0  0  0
 20 19  1  0  0  0  0
 20 21  1  0  0  0  0
 21 22  1  0  0  0  0
 22 23  1  0  0  0  0
 23 25  1  1  0  0  0
 23 24  1  0  0  0  0
M  END
>  <MODEL>
2

>  <REMARK>
 VINA RESULT:      -6.4      3.233      9.032
  Name = 
  6 active torsions:
  status: ('A' for Active; 'I' for Inactive)
    1  A    between atoms: C_1  and  C_3
    2  A    between atoms: C_2  and  N_25
    3  A    between atoms: C_6  and  C_15
    4  A    between atoms: C_6  and  C_23
    5  A    between atoms: C_15  and  C_21
    6  A    between atoms: C_21  and  N_25
                            x       y       z     vdW  Elec       q    Type
                         _______ _______ _______ _____ _____    ______ ____

>  <TORSDO>
F 6

$$$$
=
 OpenBabel11052422153D

 25 27  0  0  1  0  0  0  0  0999 V2000
  161.2480  202.5710  147.8550 C   0  0  0  0  0  0  0  0  0  0  0  0
  161.4600  200.1820  148.2150 O   0  0  0  0  0  1  0  0  0  0  0  0
  161.0030  201.6390  150.0870 C   0  0  0  0  0  0  0  0  0  0  0  0
  160.9950  200.5460  150.9450 O   0  0  0  0  0  1  0  0  0  0  0  0
  161.0120  203.8510  148.3810 C   0  0  0  0  0  3  0  0  0  0  0  0
  160.7780  202.9190  150.6010 C   0  0  0  0  0  3  0  0  0  0  0  0
  160.7770  204.0250  149.7470 C   0  0  0  0  0  0  0  0  0  0  0  0
  161.2370  201.4600  148.7170 C   0  0  0  0  0  0  0  0  0  0  0  0
  161.5030  202.3800  146.3770 C   0  0  2  0  0  3  0  0  0  0  0  0
  159.1420  201.2540  146.3990 C   0  0  0  0  0  1  0  0  0  0  0  0
  161.7390  203.6820  145.6910 C   0  0  0  0  0  0  0  0  0  0  0  0
  161.7430  206.0330  144.2150 C   0  0  0  0  0  3  0  0  0  0  0  0
  160.7690  203.9070  144.7530 C   0  0  0  0  0  0  0  0  0  0  0  0
  160.7380  205.0770  143.9970 C   0  0  0  0  0  3  0  0  0  0  0  0
  162.7460  205.8030  145.1770 C   0  0  0  0  0  3  0  0  0  0  0  0
  160.3020  201.7900  145.5710 C   0  0  1  0  0  3  0  0  0  0  0  0
  159.8450  202.8410  144.6640 N   0  0  0  0  0  2  0  0  0  0  0  0
  162.7490  204.6160  145.9280 C   0  0  0  0  0  3  0  0  0  0  0  0
  160.5710  205.3940  150.2910 C   0  0  0  0  0  2  0  0  0  0  0  0
  160.7900  206.4220  149.1940 C   0  0  0  0  0  2  0  0  0  0  0  0
  161.9790  207.3080  149.5250 C   0  0  0  0  0  2  0  0  0  0  0  0
  162.2350  207.3070  150.9610 N   0  0  0  0  0  2  0  0  0  0  0  0
  162.0790  208.6710  151.4430 C   0  0  1  0  0  3  0  0  0  0  0  0
  162.0630  209.5880  150.3160 N   0  0  0  0  0  1  0  0  0  0  0  0
  160.7730  208.7900  152.2020 C   0  0  0  0  0  1  0  0  0  0  0  0
  1  5  2  0  0  0  0
  1  8  1  0  0  0  0
  2  8  1  0  0  0  0
  3  6  1  0  0  0  0
  3  4  1  0  0  0  0
  5  7  1  0  0  0  0
  7 19  1  0  0  0  0
  7  6  2  0  0  0  0
  8  3  2  0  0  0  0
  9  1  1  1  0  0  0
 11 18  1  0  0  0  0
 11  9  1  0  0  0  0
 12 15  1  0  0  0  0
 13 11  2  0  0  0  0
 14 12  2  0  0  0  0
 14 13  1  0  0  0  0
 15 18  2  0  0  0  0
 16  9  1  0  0  0  0
 16 10  1  1  0  0  0
 17 13  1  0  0  0  0
 17 16  1  0  0  0  0
 20 21  1  0  0  0  0
 20 19  1  0  0  0  0
 21 22  1  0  0  0  0
 22 23  1  0  0  0  0
 23 25  1  6  0  0  0
 24 23  1  0  0  0  0
M  END
>  <MODEL>
3

>  <REMARK>
 VINA RESULT:      -6.1      4.081      9.642
  Name = 
  6 active torsions:
  status: ('A' for Active; 'I' for Inactive)
    1  A    between atoms: C_1  and  C_3
    2  A    between atoms: C_2  and  N_25
    3  A    between atoms: C_6  and  C_15
    4  A    between atoms: C_6  and  C_23
    5  A    between atoms: C_15  and  C_21
    6  A    between atoms: C_21  and  N_25
                            x       y       z     vdW  Elec       q    Type
                         _______ _______ _______ _____ _____    ______ ____

>  <TORSDO>
F 6

$$$$
=
 OpenBabel11052422153D

 25 27  0  0  1  0  0  0  0  0999 V2000
  161.4170  209.7850  152.2720 C   0  0  0  0  0  0  0  0  0  0  0  0
  161.9530  211.0430  150.2680 O   0  0  0  0  0  1  0  0  0  0  0  0
  161.8520  208.6300  150.1770 C   0  0  0  0  0  0  0  0  0  0  0  0
  162.1760  208.6600  148.8260 O   0  0  0  0  0  1  0  0  0  0  0  0
  161.1990  208.5440  152.8920 C   0  0  0  0  0  3  0  0  0  0  0  0
  161.6410  207.4010  150.8070 C   0  0  0  0  0  3  0  0  0  0  0  0
  161.3090  207.3580  152.1640 C   0  0  0  0  0  0  0  0  0  0  0  0
  161.7410  209.8230  150.9040 C   0  0  0  0  0  0  0  0  0  0  0  0
  161.2990  211.0720  153.0570 C   0  0  2  0  0  3  0  0  0  0  0  0
  158.8550  211.0920  152.1230 C   0  0  0  0  0  1  0  0  0  0  0  0
  161.5780  210.8550  154.5050 C   0  0  0  0  0  0  0  0  0  0  0  0
  161.6230  210.5220  157.2610 C   0  0  0  0  0  3  0  0  0  0  0  0
  160.4700  211.1490  155.2510 C   0  0  0  0  0  0  0  0  0  0  0  0
  160.4560  210.9910  156.6350 C   0  0  0  0  0  3  0  0  0  0  0  0
  162.7670  210.2230  156.4960 C   0  0  0  0  0  3  0  0  0  0  0  0
  159.8700  211.7010  153.0820 C   0  0  1  0  0  3  0  0  0  0  0  0
  159.3930  211.6100  154.4610 N   0  0  0  0  0  2  0  0  0  0  0  0
  162.7510  210.3870  155.1010 C   0  0  0  0  0  3  0  0  0  0  0  0
  161.1150  206.0520  152.8490 C   0  0  0  0  0  2  0  0  0  0  0  0
  161.6980  204.9350  152.0000 C   0  0  0  0  0  2  0  0  0  0  0  0
  160.7890  203.7170  152.0270 C   0  0  0  0  0  2  0  0  0  0  0  0
  161.2710  202.6970  151.1030 N   0  0  0  0  0  2  0  0  0  0  0  0
  160.4440  202.7510  149.9080 C   0  0  1  0  0  3  0  0  0  0  0  0
  161.0760  203.6000  148.9130 N   0  0  0  0  0  1  0  0  0  0  0  0
  160.2850  201.3540  149.3430 C   0  0  0  0  0  1  0  0  0  0  0  0
  1  5  1  0  0  0  0
  2  8  1  0  0  0  0
  3  6  2  0  0  0  0
  3  8  1  0  0  0  0
  4  3  1  0  0  0  0
  6  7  1  0  0  0  0
  7 19  1  0  0  0  0
  7  5  2  0  0  0  0
  8  1  2  0  0  0  0
  9  1  1  6  0  0  0
  9 16  1  0  0  0  0
  9 11  1  0  0  0  0
 11 18  2  0  0  0  0
 11 13  1  0  0  0  0
 13 14  2  0  0  0  0
 14 12  1  0  0  0  0
 15 12  2  0  0  0  0
 16 10  1  6  0  0  0
 16 17  1  0  0  0  0
 17 13  1  0  0  0  0
 18 15  1  0  0  0  0
 20 21  1  0  0  0  0
 20 19  1  0  0  0  0
 22 21  1  0  0  0  0
 23 25  1  6  0  0  0
 23 22  1  0  0  0  0
 24 23  1  0  0  0  0
M  END
>  <MODEL>
4

>  <REMARK>
 VINA RESULT:      -6.1      2.876      4.278
  Name = 
  6 active torsions:
  status: ('A' for Active; 'I' for Inactive)
    1  A    between atoms: C_1  and  C_3
    2  A    between atoms: C_2  and  N_25
    3  A    between atoms: C_6  and  C_15
    4  A    between atoms: C_6  and  C_23
    5  A    between atoms: C_15  and  C_21
    6  A    between atoms: C_21  and  N_25
                            x       y       z     vdW  Elec       q    Type
                         _______ _______ _______ _____ _____    ______ ____

>  <TORSDO>
F 6

$$$$
=
 OpenBabel11052422153D

 25 27  0  0  1  0  0  0  0  0999 V2000
  161.4360  203.8210  149.2670 C   0  0  0  0  0  0  0  0  0  0  0  0
  161.4350  201.8400  150.6670 O   0  0  0  0  0  1  0  0  0  0  0  0
  160.9340  203.9950  151.6400 C   0  0  0  0  0  0  0  0  0  0  0  0
  160.7710  203.4020  152.8860 O   0  0  0  0  0  1  0  0  0  0  0  0
  161.2550  205.2080  149.1440 C   0  0  0  0  0  3  0  0  0  0  0  0
  160.7660  205.3750  151.5060 C   0  0  0  0  0  3  0  0  0  0  0  0
  160.9200  205.9820  150.2570 C   0  0  0  0  0  0  0  0  0  0  0  0
  161.2690  203.2140  150.5240 C   0  0  0  0  0  0  0  0  0  0  0  0
  161.7980  202.9800  148.0640 C   0  0  2  0  0  3  0  0  0  0  0  0
  159.6470  201.6360  148.7020 C   0  0  0  0  0  1  0  0  0  0  0  0
  161.8640  203.8030  146.8230 C   0  0  0  0  0  0  0  0  0  0  0  0
  161.5780  205.1060  144.3880 C   0  0  0  0  0  3  0  0  0  0  0  0
  160.9230  203.3810  145.9230 C   0  0  0  0  0  0  0  0  0  0  0  0
  160.7500  204.0140  144.6940 C   0  0  0  0  0  3  0  0  0  0  0  0
  162.5510  205.5400  145.3090 C   0  0  0  0  0  3  0  0  0  0  0  0
  160.7520  201.8850  147.6840 C   0  0  1  0  0  3  0  0  0  0  0  0
  160.1850  202.2710  146.3930 N   0  0  0  0  0  2  0  0  0  0  0  0
  162.7000  204.8870  146.5440 C   0  0  0  0  0  3  0  0  0  0  0  0
  160.7740  207.4560  150.1130 C   0  0  0  0  0  2  0  0  0  0  0  0
  162.1130  208.0710  149.7430 C   0  0  0  0  0  2  0  0  0  0  0  0
  161.9180  209.2170  148.7640 C   0  0  0  0  0  2  0  0  0  0  0  0
  162.2180  210.4930  149.4040 N   0  0  0  0  0  2  0  0  0  0  0  0
  161.9240  211.5510  148.4490 C   0  0  1  0  0  3  0  0  0  0  0  0
  161.1060  212.5690  149.0850 N   0  0  0  0  0  1  0  0  0  0  0  0
  163.2200  212.1760  147.9760 C   0  0  0  0  0  1  0  0  0  0  0  0
  1  8  1  0  0  0  0
  3  4  1  0  0  0  0
  5  1  2  0  0  0  0
  5  7  1  0  0  0  0
  6  3  1  0  0  0  0
  7  6  2  0  0  0  0
  8  2  1  0  0  0  0
  8  3  2  0  0  0  0
  9  1  1  1  0  0  0
 11  9  1  0  0  0  0
 12 14  2  0  0  0  0
 12 15  1  0  0  0  0
 13 17  1  0  0  0  0
 13 11  2  0  0  0  0
 14 13  1  0  0  0  0
 15 18  2  0  0  0  0
 16  9  1  0  0  0  0
 16 10  1  1  0  0  0
 17 16  1  0  0  0  0
 18 11  1  0  0  0  0
 19  7  1  0  0  0  0
 20 19  1  0  0  0  0
 21 22  1  0  0  0  0
 21 20  1  0  0  0  0
 23 25  1  1  0  0  0
 23 24  1  0  0  0  0
 23 22  1  0  0  0  0
M  END
>  <MODEL>
5

>  <REMARK>
 VINA RESULT:      -6.0      5.027      8.792
  Name = 
  6 active torsions:
  status: ('A' for Active; 'I' for Inactive)
    1  A    between atoms: C_1  and  C_3
    2  A    between atoms: C_2  and  N_25
    3  A    between atoms: C_6  and  C_15
    4  A    between atoms: C_6  and  C_23
    5  A    between atoms: C_15  and  C_21
    6  A    between atoms: C_21  and  N_25
                            x       y       z     vdW  Elec       q    Type
                         _______ _______ _______ _____ _____    ______ ____

>  <TORSDO>
F 6

$$$$
=
 OpenBabel11052422153D

 25 27  0  0  1  0  0  0  0  0999 V2000
  161.5800  207.3640  151.7970 C   0  0  0  0  0  0  0  0  0  0  0  0
  161.9720  206.1350  153.8520 O   0  0  0  0  0  1  0  0  0  0  0  0
  161.1340  204.9760  151.9040 C   0  0  0  0  0  0  0  0  0  0  0  0
  161.1120  203.7820  152.6160 O   0  0  0  0  0  1  0  0  0  0  0  0
  161.1720  207.3630  150.4540 C   0  0  0  0  0  3  0  0  0  0  0  0
  160.7220  204.9900  150.5700 C   0  0  0  0  0  3  0  0  0  0  0  0
  160.7460  206.1830  149.8420 C   0  0  0  0  0  0  0  0  0  0  0  0
  161.5640  206.1590  152.5220 C   0  0  0  0  0  0  0  0  0  0  0  0
  162.0410  208.6400  152.4630 C   0  0  2  0  0  3  0  0  0  0  0  0
  162.1280  209.5590  150.0150 C   0  0  0  0  0  1  0  0  0  0  0  0
  161.0370  209.1370  153.4460 C   0  0  0  0  0  0  0  0  0  0  0  0
  159.0860  210.4120  154.9550 C   0  0  0  0  0  3  0  0  0  0  0  0
  160.5670  210.3640  153.0660 C   0  0  0  0  0  0  0  0  0  0  0  0
  159.5860  211.0310  153.7970 C   0  0  0  0  0  3  0  0  0  0  0  0
  159.5720  209.1500  155.3520 C   0  0  0  0  0  3  0  0  0  0  0  0
  162.2040  209.8630  151.5050 C   0  0  1  0  0  3  0  0  0  0  0  0
  161.1820  210.8370  151.8850 N   0  0  0  0  0  2  0  0  0  0  0  0
  160.5570  208.4990  154.5930 C   0  0  0  0  0  3  0  0  0  0  0  0
  160.2780  206.2110  148.4300 C   0  0  0  0  0  2  0  0  0  0  0  0
  161.3250  206.8800  147.5550 C   0  0  0  0  0  2  0  0  0  0  0  0
  162.1790  205.8350  146.8570 C   0  0  0  0  0  2  0  0  0  0  0  0
  161.5240  204.5330  146.8880 N   0  0  0  0  0  2  0  0  0  0  0  0
  161.6870  203.9200  145.5780 C   0  0  1  0  0  3  0  0  0  0  0  0
  160.9910  202.6450  145.5450 N   0  0  0  0  0  1  0  0  0  0  0  0
  161.1040  204.8340  144.5200 C   0  0  0  0  0  1  0  0  0  0  0  0
  1  8  1  0  0  0  0
  3  8  2  0  0  0  0
  3  4  1  0  0  0  0
  5  1  2  0  0  0  0
  6  3  1  0  0  0  0
  7  5  1  0  0  0  0
  7  6  2  0  0  0  0
  8  2  1  0  0  0  0
  9  1  1  6  0  0  0
  9 11  1  0  0  0  0
 11 18  1  0  0  0  0
 12 15  1  0  0  0  0
 13 11  2  0  0  0  0
 13 14  1  0  0  0  0
 14 12  2  0  0  0  0
 16 10  1  6  0  0  0
 16 17  1  0  0  0  0
 16  9  1  0  0  0  0
 17 13  1  0  0  0  0
 18 15  2  0  0  0  0
 19  7  1  0  0  0  0
 20 19  1  0  0  0  0
 21 22  1  0  0  0  0
 21 20  1  0  0  0  0
 23 25  1  6  0  0  0
 23 22  1  0  0  0  0
 24 23  1  0  0  0  0
M  END
>  <MODEL>
6

>  <REMARK>
 VINA RESULT:      -6.0      2.020      3.757
  Name = 
  6 active torsions:
  status: ('A' for Active; 'I' for Inactive)
    1  A    between atoms: C_1  and  C_3
    2  A    between atoms: C_2  and  N_25
    3  A    between atoms: C_6  and  C_15
    4  A    between atoms: C_6  and  C_23
    5  A    between atoms: C_15  and  C_21
    6  A    between atoms: C_21  and  N_25
                            x       y       z     vdW  Elec       q    Type
                         _______ _______ _______ _____ _____    ______ ____

>  <TORSDO>
F 6

$$$$
=
 OpenBabel11052422153D

 25 27  0  0  1  0  0  0  0  0999 V2000
  161.2760  205.7520  148.8840 C   0  0  0  0  0  0  0  0  0  0  0  0
  160.9200  207.3830  147.1240 O   0  0  0  0  0  1  0  0  0  0  0  0
  161.8540  208.0870  149.2380 C   0  0  0  0  0  0  0  0  0  0  0  0
  161.9250  209.3960  148.7790 O   0  0  0  0  0  1  0  0  0  0  0  0
  161.7220  205.4610  150.1820 C   0  0  0  0  0  3  0  0  0  0  0  0
  162.2860  207.7860  150.5320 C   0  0  0  0  0  3  0  0  0  0  0  0
  162.2260  206.4720  151.0030 C   0  0  0  0  0  0  0  0  0  0  0  0
  161.3490  207.0740  148.4110 C   0  0  0  0  0  0  0  0  0  0  0  0
  160.7300  204.6590  147.9920 C   0  0  2  0  0  3  0  0  0  0  0  0
  162.7380  205.3010  146.4430 C   0  0  0  0  0  1  0  0  0  0  0  0
  160.6810  203.3490  148.7020 C   0  0  0  0  0  0  0  0  0  0  0  0
  160.9560  200.7860  149.7330 C   0  0  0  0  0  3  0  0  0  0  0  0
  161.4970  202.4430  148.0830 C   0  0  0  0  0  0  0  0  0  0  0  0
  161.6610  201.1500  148.5750 C   0  0  0  0  0  3  0  0  0  0  0  0
  160.1100  201.7160  150.3710 C   0  0  0  0  0  3  0  0  0  0  0  0
  161.6040  204.3290  146.7410 C   0  0  1  0  0  3  0  0  0  0  0  0
  162.1230  202.9760  146.9330 N   0  0  0  0  0  2  0  0  0  0  0  0
  159.9680  203.0150  149.8560 C   0  0  0  0  0  3  0  0  0  0  0  0
  162.6550  206.1500  152.3910 C   0  0  0  0  0  2  0  0  0  0  0  0
  161.4350  205.8740  153.2540 C   0  0  0  0  0  2  0  0  0  0  0  0
  160.8140  207.1780  153.7280 C   0  0  0  0  0  2  0  0  0  0  0  0
  161.2250  207.4740  155.0950 N   0  0  0  0  0  2  0  0  0  0  0  0
  161.0250  208.8980  155.3230 C   0  0  1  0  0  3  0  0  0  0  0  0
  162.0890  209.4120  156.1670 N   0  0  0  0  0  1  0  0  0  0  0  0
  161.0450  209.6270  153.9950 C   0  0  0  0  0  1  0  0  0  0  0  0
  1  5  1  0  0  0  0
  2  8  1  0  0  0  0
  3  6  2  0  0  0  0
  4  3  1  0  0  0  0
  5  7  2  0  0  0  0
  6  7  1  0  0  0  0
  7 19  1  0  0  0  0
  8  1  2  0  0  0  0
  8  3  1  0  0  0  0
  9 11  1  0  0  0  0
  9  1  1  1  0  0  0
 11 18  1  0  0  0  0
 12 15  1  0  0  0  0
 13 14  1  0  0  0  0
 13 11  2  0  0  0  0
 14 12  2  0  0  0  0
 16 10  1  1  0  0  0
 16 17  1  0  0  0  0
 16  9  1  0  0  0  0
 17 13  1  0  0  0  0
 18 15  2  0  0  0  0
 19 20  1  0  0  0  0
 20 21  1  0  0  0  0
 21 22  1  0  0  0  0
 22 23  1  0  0  0  0
 23 25  1  6  0  0  0
 23 24  1  0  0  0  0
M  END
>  <MODEL>
7

>  <REMARK>
 VINA RESULT:      -5.9      3.203      8.920
  Name = 
  6 active torsions:
  status: ('A' for Active; 'I' for Inactive)
    1  A    between atoms: C_1  and  C_3
    2  A    between atoms: C_2  and  N_25
    3  A    between atoms: C_6  and  C_15
    4  A    between atoms: C_6  and  C_23
    5  A    between atoms: C_15  and  C_21
    6  A    between atoms: C_21  and  N_25
                            x       y       z     vdW  Elec       q    Type
                         _______ _______ _______ _____ _____    ______ ____

>  <TORSDO>
F 6

$$$$
=
 OpenBabel11052422153D

 25 27  0  0  1  0  0  0  0  0999 V2000
  161.3380  209.5210  152.2830 C   0  0  0  0  0  0  0  0  0  0  0  0
  162.2530  211.0760  150.6620 O   0  0  0  0  0  1  0  0  0  0  0  0
  161.8570  208.7780  150.0270 C   0  0  0  0  0  0  0  0  0  0  0  0
  162.3340  209.0420  148.7490 O   0  0  0  0  0  1  0  0  0  0  0  0
  160.8940  208.2250  152.5910 C   0  0  0  0  0  3  0  0  0  0  0  0
  161.4220  207.4900  150.3480 C   0  0  0  0  0  3  0  0  0  0  0  0
  160.9340  207.2140  151.6280 C   0  0  0  0  0  0  0  0  0  0  0  0
  161.8170  209.7960  150.9900 C   0  0  0  0  0  0  0  0  0  0  0  0
  161.2950  210.6180  153.3230 C   0  0  2  0  0  3  0  0  0  0  0  0
  159.1700  211.3980  152.0130 C   0  0  0  0  0  1  0  0  0  0  0  0
  161.1990  210.0600  154.7020 C   0  0  0  0  0  0  0  0  0  0  0  0
  160.5670  209.1880  157.2610 C   0  0  0  0  0  3  0  0  0  0  0  0
  160.0300  210.4540  155.2930 C   0  0  0  0  0  0  0  0  0  0  0  0
  159.6800  210.0320  156.5740 C   0  0  0  0  0  3  0  0  0  0  0  0
  161.7740  208.7850  156.6570 C   0  0  0  0  0  3  0  0  0  0  0  0
  160.0430  211.5480  153.2510 C   0  0  1  0  0  3  0  0  0  0  0  0
  159.2630  211.3020  154.4630 N   0  0  0  0  0  2  0  0  0  0  0  0
  162.1000  209.2200  155.3620 C   0  0  0  0  0  3  0  0  0  0  0  0
  160.5000  205.8370  151.9870 C   0  0  0  0  0  2  0  0  0  0  0  0
  161.7140  204.9820  152.3080 C   0  0  0  0  0  2  0  0  0  0  0  0
  161.5780  203.6080  151.6740 C   0  0  0  0  0  2  0  0  0  0  0  0
  160.4990  203.6000  150.6940 N   0  0  0  0  0  2  0  0  0  0  0  0
  161.0130  203.0050  149.4690 C   0  0  1  0  0  3  0  0  0  0  0  0
  160.0660  202.0250  148.9660 N   0  0  0  0  0  1  0  0  0  0  0  0
  161.2110  204.0880  148.4290 C   0  0  0  0  0  1  0  0  0  0  0  0
  1  5  1  0  0  0  0
  2  8  1  0  0  0  0
  3  6  2  0  0  0  0
  3  8  1  0  0  0  0
  4  3  1  0  0  0  0
  6  7  1  0  0  0  0
  7 19  1  0  0  0  0
  7  5  2  0  0  0  0
  8  1  2  0  0  0  0
  9  1  1  6  0  0  0
  9 11  1  0  0  0  0
 11 13  2  0  0  0  0
 11 18  1  0  0  0  0
 13 14  1  0  0  0  0
 14 12  2  0  0  0  0
 15 12  1  0  0  0  0
 16 10  1  6  0  0  0
 16  9  1  0  0  0  0
 16 17  1  0  0  0  0
 17 13  1  0  0  0  0
 18 15  2  0  0  0  0
 19 20  1  0  0  0  0
 21 20  1  0  0  0  0
 22 21  1  0  0  0  0
 23 25  1  6  0  0  0
 23 22  1  0  0  0  0
 24 23  1  0  0  0  0
M  END
>  <MODEL>
8

>  <REMARK>
 VINA RESULT:      -5.8      2.881      4.238
  Name = 
  6 active torsions:
  status: ('A' for Active; 'I' for Inactive)
    1  A    between atoms: C_1  and  C_3
    2  A    between atoms: C_2  and  N_25
    3  A    between atoms: C_6  and  C_15
    4  A    between atoms: C_6  and  C_23
    5  A    between atoms: C_15  and  C_21
    6  A    between atoms: C_21  and  N_25
                            x       y       z     vdW  Elec       q    Type
                         _______ _______ _______ _____ _____    ______ ____

>  <TORSDO>
F 6

$$$$
=
 OpenBabel11052422153D

 25 27  0  0  1  0  0  0  0  0999 V2000
  161.6220  207.5220  151.5740 C   0  0  0  0  0  0  0  0  0  0  0  0
  161.9640  206.5290  153.7610 O   0  0  0  0  0  1  0  0  0  0  0  0
  161.2000  205.1530  151.9280 C   0  0  0  0  0  0  0  0  0  0  0  0
  161.1690  204.0440  152.7640 O   0  0  0  0  0  1  0  0  0  0  0  0
  161.2560  207.3690  150.2270 C   0  0  0  0  0  3  0  0  0  0  0  0
  160.8300  205.0160  150.5880 C   0  0  0  0  0  3  0  0  0  0  0  0
  160.8630  206.1230  149.7350 C   0  0  0  0  0  0  0  0  0  0  0  0
  161.5970  206.4020  152.4250 C   0  0  0  0  0  0  0  0  0  0  0  0
  162.0480  208.8700  152.1100 C   0  0  2  0  0  3  0  0  0  0  0  0
  162.2700  209.4970  149.5800 C   0  0  0  0  0  1  0  0  0  0  0  0
  160.9930  209.4720  152.9730 C   0  0  0  0  0  0  0  0  0  0  0  0
  158.9640  210.9050  154.2140 C   0  0  0  0  0  3  0  0  0  0  0  0
  160.5450  210.6450  152.4270 C   0  0  0  0  0  0  0  0  0  0  0  0
  159.5270  211.3870  153.0210 C   0  0  0  0  0  3  0  0  0  0  0  0
  159.4250  209.7010  154.7810 C   0  0  0  0  0  3  0  0  0  0  0  0
  162.2650  209.9730  151.0270 C   0  0  1  0  0  3  0  0  0  0  0  0
  161.2240  210.9790  151.2340 N   0  0  0  0  0  2  0  0  0  0  0  0
  160.4500  208.9700  154.1580 C   0  0  0  0  0  3  0  0  0  0  0  0
  160.4390  205.9920  148.3150 C   0  0  0  0  0  2  0  0  0  0  0  0
  161.6490  205.7080  147.4420 C   0  0  0  0  0  2  0  0  0  0  0  0
  161.5380  204.3280  146.8130 C   0  0  0  0  0  2  0  0  0  0  0  0
  161.8490  203.2930  147.7910 N   0  0  0  0  0  2  0  0  0  0  0  0
  160.8240  202.2640  147.6930 C   0  0  1  0  0  3  0  0  0  0  0  0
  160.8270  201.6970  146.3560 N   0  0  0  0  0  1  0  0  0  0  0  0
  161.1130  201.1700  148.7000 C   0  0  0  0  0  1  0  0  0  0  0  0
  1  8  1  0  0  0  0
  3  8  2  0  0  0  0
  3  4  1  0  0  0  0
  5  1  2  0  0  0  0
  6  3  1  0  0  0  0
  7  5  1  0  0  0  0
  7  6  2  0  0  0  0
  8  2  1  0  0  0  0
  9  1  1  6  0  0  0
  9 11  1  0  0  0  0
 11 18  1  0  0  0  0
 12 15  1  0  0  0  0
 13 11  2  0  0  0  0
 13 14  1  0  0  0  0
 14 12  2  0  0  0  0
 16 10  1  6  0  0  0
 16 17  1  0  0  0  0
 16  9  1  0  0  0  0
 17 13  1  0  0  0  0
 18 15  2  0  0  0  0
 19  7  1  0  0  0  0
 20 19  1  0  0  0  0
 21 20  1  0  0  0  0
 21 22  1  0  0  0  0
 23 22  1  0  0  0  0
 23 25  1  1  0  0  0
 24 23  1  0  0  0  0
M  END
>  <MODEL>
9

>  <REMARK>
 VINA RESULT:      -5.7      2.239      4.016
  Name = 
  6 active torsions:
  status: ('A' for Active; 'I' for Inactive)
    1  A    between atoms: C_1  and  C_3
    2  A    between atoms: C_2  and  N_25
    3  A    between atoms: C_6  and  C_15
    4  A    between atoms: C_6  and  C_23
    5  A    between atoms: C_15  and  C_21
    6  A    between atoms: C_21  and  N_25
                            x       y       z     vdW  Elec       q    Type
                         _______ _______ _______ _____ _____    ______ ____

>  <TORSDO>
F 6

$$$$
