=
 OpenBabel11062408133D

 32 37  0  0  1  0  0  0  0  0999 V2000
  161.5740  208.4130  150.9790 C   0  0  0  0  0  0  0  0  0  0  0  0
  161.4280  206.3890  149.6300 C   0  0  0  0  0  0  0  0  0  0  0  0
  161.7700  209.8000  151.0590 C   0  0  0  0  0  3  0  0  0  0  0  0
  161.5890  207.7830  149.7140 C   0  0  0  0  0  0  0  0  0  0  0  0
  161.5250  205.7160  148.3980 C   0  0  0  0  0  0  0  0  0  0  0  0
  160.9220  201.9870  151.8170 C   0  0  0  0  0  2  0  0  0  0  0  0
  161.1880  205.6520  150.8060 C   0  0  0  0  0  0  0  0  0  0  0  0
  160.9890  202.1360  149.3350 C   0  0  0  0  0  2  0  0  0  0  0  0
  161.0840  203.6310  149.4710 C   0  0  0  0  0  0  0  0  0  0  0  0
  161.7530  208.5560  148.5470 C   0  0  0  0  0  0  0  0  0  0  0  0
  161.3760  204.3640  148.3630 N   0  0  0  0  0  0  0  0  0  0  0  0
  161.5750  207.9370  147.1920 C   0  0  0  0  0  2  0  0  0  0  0  0
  161.9280  209.9380  148.6480 C   0  0  0  0  0  3  0  0  0  0  0  0
  161.1530  206.2920  152.0070 N   0  0  0  0  0  0  0  0  0  0  0  0
  161.3480  207.6340  152.1280 C   0  0  0  0  0  0  0  0  0  0  0  0
  161.0100  204.2620  150.7330 C   0  0  0  0  0  0  0  0  0  0  0  0
  161.9850  206.4600  147.1640 C   0  0  2  0  0  3  0  0  0  0  0  0
  161.9530  210.5560  149.9000 C   0  0  0  0  0  3  0  0  0  0  0  0
  160.2910  201.4880  150.5270 C   0  0  0  0  0  2  0  0  0  0  0  0
  160.6530  203.4790  151.9730 C   0  0  0  0  0  2  0  0  0  0  0  0
  160.1000  207.8760  155.7460 C   0  0  1  0  0  3  0  0  0  0  0  0
  162.1350  210.9070  156.5280 C   0  0  0  0  0  1  0  0  0  0  0  0
  159.6340  206.8820  156.6070 O   0  0  0  0  0  1  0  0  0  0  0  0
  160.7300  210.4530  154.7130 C   0  0  0  0  0  2  0  0  0  0  0  0
  161.3110  208.2590  153.4910 C   0  0  1  0  0  3  0  0  0  0  0  0
  160.9480  208.8910  156.5290 C   0  0  0  0  0  2  0  0  0  0  0  0
  160.5330  209.5840  153.4580 C   0  0  0  0  0  2  0  0  0  0  0  0
  160.8120  207.2470  154.5380 C   0  0  1  0  0  3  0  0  0  0  0  0
  161.8740  206.4440  154.9600 O   0  0  0  0  0  1  0  0  0  0  0  0
  161.6570  209.8410  155.6660 N   0  0  0  0  0  0  0  0  0  0  0  0
  161.4610  205.8110  145.8910 C   0  0  0  0  0  2  0  0  0  0  0  0
  160.1950  206.3120  145.5850 O   0  0  0  0  0  1  0  0  0  0  0  0
  1  3  1  0  0  0  0
  1 15  1  0  0  0  0
  2  4  1  0  0  0  0
  2  7  1  0  0  0  0
  4  1  2  0  0  0  0
  5  2  2  0  0  0  0
  6 20  1  0  0  0  0
  7 14  1  0  0  0  0
  8  9  1  0  0  0  0
  8 19  1  0  0  0  0
  9 16  1  0  0  0  0
 10 13  2  0  0  0  0
 10  4  1  0  0  0  0
 11  5  1  0  0  0  0
 11  9  2  0  0  0  0
 12 10  1  0  0  0  0
 13 18  1  0  0  0  0
 14 15  2  0  0  0  0
 16  7  2  0  0  0  0
 16 20  1  0  0  0  0
 17 31  1  6  0  0  0
 17 12  1  0  0  0  0
 17  5  1  0  0  0  0
 18  3  2  0  0  0  0
 19  6  1  0  0  0  0
 21 26  1  0  0  0  0
 21 23  1  1  0  0  0
 24 30  1  0  0  0  0
 25 15  1  6  0  0  0
 25 28  1  0  0  0  0
 27 25  1  0  0  0  0
 27 24  1  0  0  0  0
 28 29  1  1  0  0  0
 28 21  1  0  0  0  0
 30 22  1  0  0  0  0
 30 26  1  0  0  0  0
 32 31  1  0  0  0  0
M  END
>  <MODEL>
1

>  <REMARK>
 VINA RESULT:      -9.4      0.000      0.000
  Name = 
  2 active torsions:
  status: ('A' for Active; 'I' for Inactive)
    1  A    between atoms: C_13  and  C_29
    2  A    between atoms: C_16  and  C_27
                            x       y       z     vdW  Elec       q    Type
                         _______ _______ _______ _____ _____    ______ ____

>  <TORSDO>
F 2

$$$$
=
 OpenBabel11062408133D

 32 37  0  0  1  0  0  0  0  0999 V2000
  161.1470  207.0940  151.0940 C   0  0  0  0  0  0  0  0  0  0  0  0
  161.2280  205.1010  149.6940 C   0  0  0  0  0  0  0  0  0  0  0  0
  161.0640  207.6710  152.3690 C   0  0  0  0  0  3  0  0  0  0  0  0
  161.1810  205.6860  150.9710 C   0  0  0  0  0  0  0  0  0  0  0  0
  161.1740  203.7050  149.5280 C   0  0  0  0  0  0  0  0  0  0  0  0
  161.1770  205.5290  144.7710 C   0  0  0  0  0  2  0  0  0  0  0  0
  161.3080  205.9310  148.5590 C   0  0  0  0  0  0  0  0  0  0  0  0
  161.3240  203.2770  145.8160 C   0  0  0  0  0  2  0  0  0  0  0  0
  161.3460  203.9510  147.1610 C   0  0  0  0  0  0  0  0  0  0  0  0
  161.1770  204.8810  152.1270 C   0  0  0  0  0  0  0  0  0  0  0  0
  161.2090  203.1800  148.2730 N   0  0  0  0  0  0  0  0  0  0  0  0
  161.4110  203.4020  152.0270 C   0  0  0  0  0  2  0  0  0  0  0  0
  161.1140  205.4760  153.3890 C   0  0  0  0  0  3  0  0  0  0  0  0
  161.3000  207.2840  148.7110 N   0  0  0  0  0  0  0  0  0  0  0  0
  161.2120  207.8830  149.9310 C   0  0  0  0  0  0  0  0  0  0  0  0
  161.3720  205.3580  147.2800 C   0  0  0  0  0  0  0  0  0  0  0  0
  160.8800  202.8140  150.7140 C   0  0  2  0  0  3  0  0  0  0  0  0
  161.0410  206.8660  153.5100 C   0  0  0  0  0  3  0  0  0  0  0  0
  161.8650  204.1750  144.7080 C   0  0  0  0  0  2  0  0  0  0  0  0
  161.5590  206.2360  146.0660 C   0  0  0  0  0  2  0  0  0  0  0  0
  162.5700  211.3700  149.0940 C   0  0  1  0  0  3  0  0  0  0  0  0
  160.0080  213.1520  151.1430 C   0  0  0  0  0  1  0  0  0  0  0  0
  163.2710  211.8200  147.9750 O   0  0  0  0  0  1  0  0  0  0  0  0
  161.3800  211.3360  151.6800 C   0  0  0  0  0  2  0  0  0  0  0  0
  161.1920  209.3800  150.0110 C   0  0  1  0  0  3  0  0  0  0  0  0
  161.5760  212.4470  149.5560 C   0  0  0  0  0  2  0  0  0  0  0  0
  161.6830  209.8550  151.3880 C   0  0  0  0  0  2  0  0  0  0  0  0
  161.9390  209.9980  148.8150 C   0  0  1  0  0  3  0  0  0  0  0  0
  161.0840  210.0670  147.7120 O   0  0  0  0  0  1  0  0  0  0  0  0
  160.6460  211.9730  150.5860 N   0  0  0  0  0  0  0  0  0  0  0  0
  161.4480  201.4150  150.5180 C   0  0  0  0  0  2  0  0  0  0  0  0
  160.4820  200.5820  149.9490 O   0  0  0  0  0  1  0  0  0  0  0  0
  1  3  2  0  0  0  0
  2  4  1  0  0  0  0
  3 18  1  0  0  0  0
  4  1  1  0  0  0  0
  4 10  2  0  0  0  0
  5  2  1  0  0  0  0
  5 17  1  0  0  0  0
  6 20  1  0  0  0  0
  7 14  1  0  0  0  0
  7  2  2  0  0  0  0
  8  9  1  0  0  0  0
  9 16  2  0  0  0  0
  9 11  1  0  0  0  0
 10 13  1  0  0  0  0
 11  5  2  0  0  0  0
 12 10  1  0  0  0  0
 13 18  2  0  0  0  0
 14 15  2  0  0  0  0
 15  1  1  0  0  0  0
 16  7  1  0  0  0  0
 17 31  1  6  0  0  0
 17 12  1  0  0  0  0
 19  6  1  0  0  0  0
 19  8  1  0  0  0  0
 20 16  1  0  0  0  0
 21 23  1  6  0  0  0
 21 26  1  0  0  0  0
 25 15  1  1  0  0  0
 25 27  1  0  0  0  0
 26 30  1  0  0  0  0
 27 24  1  0  0  0  0
 28 29  1  6  0  0  0
 28 21  1  0  0  0  0
 28 25  1  0  0  0  0
 30 22  1  0  0  0  0
 30 24  1  0  0  0  0
 32 31  1  0  0  0  0
M  END
>  <MODEL>
2

>  <REMARK>
 VINA RESULT:      -8.0      3.030      5.396
  Name = 
  2 active torsions:
  status: ('A' for Active; 'I' for Inactive)
    1  A    between atoms: C_13  and  C_29
    2  A    between atoms: C_16  and  C_27
                            x       y       z     vdW  Elec       q    Type
                         _______ _______ _______ _____ _____    ______ ____

>  <TORSDO>
F 2

$$$$
=
 OpenBabel11062408133D

 32 37  0  0  1  0  0  0  0  0999 V2000
  161.0060  205.2470  151.0200 C   0  0  0  0  0  0  0  0  0  0  0  0
  161.1290  204.0230  148.9160 C   0  0  0  0  0  0  0  0  0  0  0  0
  160.9510  205.2370  152.4210 C   0  0  0  0  0  3  0  0  0  0  0  0
  161.1090  204.0220  150.3210 C   0  0  0  0  0  0  0  0  0  0  0  0
  161.1410  202.8210  148.1850 C   0  0  0  0  0  0  0  0  0  0  0  0
  160.8310  206.4470  144.6200 C   0  0  0  0  0  2  0  0  0  0  0  0
  161.1130  205.2520  148.2280 C   0  0  0  0  0  0  0  0  0  0  0  0
  161.1450  203.9800  144.6300 C   0  0  0  0  0  2  0  0  0  0  0  0
  161.1930  204.0360  146.1330 C   0  0  0  0  0  0  0  0  0  0  0  0
  161.2010  202.8120  151.0380 C   0  0  0  0  0  0  0  0  0  0  0  0
  161.1470  202.8660  146.8250 N   0  0  0  0  0  0  0  0  0  0  0  0
  161.5080  201.5270  150.3260 C   0  0  0  0  0  2  0  0  0  0  0  0
  161.1640  202.8260  152.4340 C   0  0  0  0  0  3  0  0  0  0  0  0
  161.0410  206.4160  148.9300 N   0  0  0  0  0  0  0  0  0  0  0  0
  160.9760  206.4490  150.2900 C   0  0  0  0  0  0  0  0  0  0  0  0
  161.1490  205.2660  146.8250 C   0  0  0  0  0  0  0  0  0  0  0  0
  160.9490  201.5010  148.8990 C   0  0  2  0  0  3  0  0  0  0  0  0
  161.0230  204.0320  153.1230 C   0  0  0  0  0  3  0  0  0  0  0  0
  161.5870  205.2900  143.9860 C   0  0  0  0  0  2  0  0  0  0  0  0
  161.2340  206.5780  146.0840 C   0  0  0  0  0  2  0  0  0  0  0  0
  162.4300  209.7760  151.5240 C   0  0  1  0  0  3  0  0  0  0  0  0
  159.2490  210.8740  153.1390 C   0  0  0  0  0  1  0  0  0  0  0  0
  163.4710  210.5510  151.0110 O   0  0  0  0  0  1  0  0  0  0  0  0
  160.3960  208.8410  153.2820 C   0  0  0  0  0  2  0  0  0  0  0  0
  160.8810  207.7740  150.9860 C   0  0  1  0  0  3  0  0  0  0  0  0
  161.3020  210.6860  152.0340 C   0  0  0  0  0  2  0  0  0  0  0  0
  160.8310  207.5820  152.5100 C   0  0  0  0  0  2  0  0  0  0  0  0
  161.9860  208.7260  150.4940 C   0  0  1  0  0  3  0  0  0  0  0  0
  161.5800  209.3450  149.3090 O   0  0  0  0  0  1  0  0  0  0  0  0
  160.0810  209.9540  152.3860 N   0  0  0  0  0  0  0  0  0  0  0  0
  161.5810  200.3510  148.1260 C   0  0  0  0  0  2  0  0  0  0  0  0
  160.9530  200.2030  146.8890 O   0  0  0  0  0  1  0  0  0  0  0  0
  1  3  2  0  0  0  0
  2  4  1  0  0  0  0
  3 18  1  0  0  0  0
  4  1  1  0  0  0  0
  4 10  2  0  0  0  0
  5 17  1  0  0  0  0
  5  2  2  0  0  0  0
  6 20  1  0  0  0  0
  7  2  1  0  0  0  0
  7 14  1  0  0  0  0
  8  9  1  0  0  0  0
  9 11  2  0  0  0  0
  9 16  1  0  0  0  0
 10 13  1  0  0  0  0
 11  5  1  0  0  0  0
 12 10  1  0  0  0  0
 13 18  2  0  0  0  0
 14 15  2  0  0  0  0
 15  1  1  0  0  0  0
 16  7  2  0  0  0  0
 17 31  1  6  0  0  0
 17 12  1  0  0  0  0
 19  6  1  0  0  0  0
 19  8  1  0  0  0  0
 20 16  1  0  0  0  0
 21 23  1  6  0  0  0
 21 26  1  0  0  0  0
 25 15  1  6  0  0  0
 25 27  1  0  0  0  0
 26 30  1  0  0  0  0
 27 24  1  0  0  0  0
 28 29  1  6  0  0  0
 28 25  1  0  0  0  0
 28 21  1  0  0  0  0
 30 22  1  0  0  0  0
 30 24  1  0  0  0  0
 32 31  1  0  0  0  0
M  END
>  <MODEL>
3

>  <REMARK>
 VINA RESULT:      -7.7      2.626      5.154
  Name = 
  2 active torsions:
  status: ('A' for Active; 'I' for Inactive)
    1  A    between atoms: C_13  and  C_29
    2  A    between atoms: C_16  and  C_27
                            x       y       z     vdW  Elec       q    Type
                         _______ _______ _______ _____ _____    ______ ____

>  <TORSDO>
F 2

$$$$
=
 OpenBabel11062408133D

 32 37  0  0  1  0  0  0  0  0999 V2000
  161.4720  207.8680  150.7960 C   0  0  0  0  0  0  0  0  0  0  0  0
  161.4840  205.9500  149.2940 C   0  0  0  0  0  0  0  0  0  0  0  0
  161.6510  209.2440  150.9990 C   0  0  0  0  0  3  0  0  0  0  0  0
  161.6280  207.3330  149.4970 C   0  0  0  0  0  0  0  0  0  0  0  0
  161.7190  205.3700  148.0340 C   0  0  0  0  0  0  0  0  0  0  0  0
  160.7640  201.4000  151.0820 C   0  0  0  0  0  2  0  0  0  0  0  0
  161.1210  205.1290  150.3790 C   0  0  0  0  0  0  0  0  0  0  0  0
  161.1020  201.7320  148.6400 C   0  0  0  0  0  2  0  0  0  0  0  0
  161.1740  203.2120  148.8950 C   0  0  0  0  0  0  0  0  0  0  0  0
  161.9160  208.1900  148.4160 C   0  0  0  0  0  0  0  0  0  0  0  0
  161.5810  204.0240  147.8830 N   0  0  0  0  0  0  0  0  0  0  0  0
  161.8900  207.6730  147.0070 C   0  0  0  0  0  2  0  0  0  0  0  0
  162.0710  209.5600  148.6360 C   0  0  0  0  0  3  0  0  0  0  0  0
  160.9520  205.6780  151.6130 N   0  0  0  0  0  0  0  0  0  0  0  0
  161.1250  207.0070  151.8530 C   0  0  0  0  0  0  0  0  0  0  0  0
  160.9580  203.7490  150.1840 C   0  0  0  0  0  0  0  0  0  0  0  0
  162.3080  206.2010  146.9160 C   0  0  2  0  0  3  0  0  0  0  0  0
  161.9560  210.0840  149.9260 C   0  0  0  0  0  3  0  0  0  0  0  0
  160.2800  201.0000  149.6970 C   0  0  0  0  0  2  0  0  0  0  0  0
  160.4720  202.8770  151.3170 C   0  0  0  0  0  2  0  0  0  0  0  0
  161.4610  209.6880  154.5750 C   0  0  1  0  0  3  0  0  0  0  0  0
  159.8770  207.5820  157.2190 C   0  0  0  0  0  1  0  0  0  0  0  0
  161.5120  211.0780  154.4700 O   0  0  0  0  0  1  0  0  0  0  0  0
  161.5810  207.0760  155.7000 C   0  0  0  0  0  2  0  0  0  0  0  0
  160.9360  207.5300  153.2460 C   0  0  1  0  0  3  0  0  0  0  0  0
  160.6420  209.2870  155.8120 C   0  0  0  0  0  2  0  0  0  0  0  0
  161.9230  206.8600  154.2140 C   0  0  0  0  0  2  0  0  0  0  0  0
  160.9690  209.0690  153.2570 C   0  0  1  0  0  3  0  0  0  0  0  0
  159.7080  209.5690  152.9220 O   0  0  0  0  0  1  0  0  0  0  0  0
  160.3520  207.8510  155.8750 N   0  0  0  0  0  0  0  0  0  0  0  0
  161.9290  205.6490  145.5490 C   0  0  0  0  0  2  0  0  0  0  0  0
  160.6280  206.0320  145.2220 O   0  0  0  0  0  1  0  0  0  0  0  0
  1  3  1  0  0  0  0
  1 15  1  0  0  0  0
  2  4  1  0  0  0  0
  2  7  1  0  0  0  0
  4  1  2  0  0  0  0
  5  2  2  0  0  0  0
  6 20  1  0  0  0  0
  7 14  1  0  0  0  0
  8  9  1  0  0  0  0
  8 19  1  0  0  0  0
  9 16  1  0  0  0  0
 10 13  2  0  0  0  0
 10  4  1  0  0  0  0
 11  5  1  0  0  0  0
 11  9  2  0  0  0  0
 12 10  1  0  0  0  0
 13 18  1  0  0  0  0
 14 15  2  0  0  0  0
 16  7  2  0  0  0  0
 16 20  1  0  0  0  0
 17 31  1  6  0  0  0
 17 12  1  0  0  0  0
 17  5  1  0  0  0  0
 18  3  2  0  0  0  0
 19  6  1  0  0  0  0
 21 23  1  6  0  0  0
 21 26  1  0  0  0  0
 24 30  1  0  0  0  0
 25 15  1  6  0  0  0
 25 28  1  0  0  0  0
 25 27  1  0  0  0  0
 26 30  1  0  0  0  0
 27 24  1  0  0  0  0
 28 29  1  1  0  0  0
 28 21  1  0  0  0  0
 30 22  1  0  0  0  0
 32 31  1  0  0  0  0
M  END
>  <MODEL>
4

>  <REMARK>
 VINA RESULT:      -7.5      1.443      1.873
  Name = 
  2 active torsions:
  status: ('A' for Active; 'I' for Inactive)
    1  A    between atoms: C_13  and  C_29
    2  A    between atoms: C_16  and  C_27
                            x       y       z     vdW  Elec       q    Type
                         _______ _______ _______ _____ _____    ______ ____

>  <TORSDO>
F 2

$$$$
=
 OpenBabel11062408133D

 32 37  0  0  1  0  0  0  0  0999 V2000
  161.0740  205.1350  149.9050 C   0  0  0  0  0  0  0  0  0  0  0  0
  161.3400  207.1930  151.1830 C   0  0  0  0  0  0  0  0  0  0  0  0
  160.9130  203.7420  149.8800 C   0  0  0  0  0  3  0  0  0  0  0  0
  161.1440  205.8020  151.1500 C   0  0  0  0  0  0  0  0  0  0  0  0
  161.5030  207.8780  152.4000 C   0  0  0  0  0  0  0  0  0  0  0  0
  162.1700  211.4680  148.8460 C   0  0  0  0  0  2  0  0  0  0  0  0
  161.3980  207.9090  149.9710 C   0  0  0  0  0  0  0  0  0  0  0  0
  161.9870  211.4270  151.3260 C   0  0  0  0  0  2  0  0  0  0  0  0
  161.7050  209.9520  151.2380 C   0  0  0  0  0  0  0  0  0  0  0  0
  161.0050  205.0700  152.3460 C   0  0  0  0  0  0  0  0  0  0  0  0
  161.7040  209.2240  152.3870 N   0  0  0  0  0  0  0  0  0  0  0  0
  160.8790  205.7790  153.6630 C   0  0  0  0  0  2  0  0  0  0  0  0
  160.8260  203.6860  152.2980 C   0  0  0  0  0  3  0  0  0  0  0  0
  161.3010  207.2410  148.7880 N   0  0  0  0  0  0  0  0  0  0  0  0
  161.1530  205.8890  148.7200 C   0  0  0  0  0  0  0  0  0  0  0  0
  161.5770  209.3000  149.9910 C   0  0  0  0  0  0  0  0  0  0  0  0
  161.6510  207.1030  153.6900 C   0  0  2  0  0  3  0  0  0  0  0  0
  160.7970  203.0210  151.0700 C   0  0  0  0  0  3  0  0  0  0  0  0
  161.5810  212.1720  150.0570 C   0  0  0  0  0  2  0  0  0  0  0  0
  161.5400  210.0870  148.7030 C   0  0  0  0  0  2  0  0  0  0  0  0
  162.6910  204.4940  145.4960 C   0  0  1  0  0  3  0  0  0  0  0  0
  159.3990  203.5150  144.0330 C   0  0  0  0  0  1  0  0  0  0  0  0
  163.9550  203.9530  145.2610 O   0  0  0  0  0  1  0  0  0  0  0  0
  160.0810  205.5250  145.0160 C   0  0  0  0  0  2  0  0  0  0  0  0
  161.0720  205.2280  147.3770 C   0  0  1  0  0  3  0  0  0  0  0  0
  161.6320  203.7130  144.7030 C   0  0  0  0  0  2  0  0  0  0  0  0
  160.5160  206.2030  146.3270 C   0  0  0  0  0  2  0  0  0  0  0  0
  162.4190  204.5840  147.0060 C   0  0  1  0  0  3  0  0  0  0  0  0
  162.5150  203.3210  147.5960 O   0  0  0  0  0  1  0  0  0  0  0  0
  160.2560  204.0730  145.0620 N   0  0  0  0  0  0  0  0  0  0  0  0
  161.2060  207.9260  154.8920 C   0  0  0  0  0  2  0  0  0  0  0  0
  160.1000  207.3280  155.4970 O   0  0  0  0  0  1  0  0  0  0  0  0
  1  4  1  0  0  0  0
  2  5  1  0  0  0  0
  3  1  2  0  0  0  0
  3 18  1  0  0  0  0
  4  2  1  0  0  0  0
  4 10  2  0  0  0  0
  5 17  1  0  0  0  0
  6 19  1  0  0  0  0
  7 16  1  0  0  0  0
  7  2  2  0  0  0  0
  9  8  1  0  0  0  0
  9 11  1  0  0  0  0
 10 12  1  0  0  0  0
 11  5  2  0  0  0  0
 12 17  1  0  0  0  0
 13 10  1  0  0  0  0
 14  7  1  0  0  0  0
 15 14  2  0  0  0  0
 15  1  1  0  0  0  0
 16  9  2  0  0  0  0
 17 31  1  1  0  0  0
 18 13  2  0  0  0  0
 19  8  1  0  0  0  0
 20  6  1  0  0  0  0
 20 16  1  0  0  0  0
 21 23  1  1  0  0  0
 21 28  1  0  0  0  0
 22 30  1  0  0  0  0
 24 30  1  0  0  0  0
 24 27  1  0  0  0  0
 25 15  1  1  0  0  0
 26 30  1  0  0  0  0
 26 21  1  0  0  0  0
 27 25  1  0  0  0  0
 28 25  1  0  0  0  0
 28 29  1  6  0  0  0
 31 32  1  0  0  0  0
M  END
>  <MODEL>
5

>  <REMARK>
 VINA RESULT:      -7.3      1.955      8.237
  Name = 
  2 active torsions:
  status: ('A' for Active; 'I' for Inactive)
    1  A    between atoms: C_13  and  C_29
    2  A    between atoms: C_16  and  C_27
                            x       y       z     vdW  Elec       q    Type
                         _______ _______ _______ _____ _____    ______ ____

>  <TORSDO>
F 2

$$$$
=
 OpenBabel11062408133D

 32 37  0  0  1  0  0  0  0  0999 V2000
  161.6510  208.7180  149.6840 C   0  0  0  0  0  0  0  0  0  0  0  0
  161.3060  207.4640  151.7450 C   0  0  0  0  0  0  0  0  0  0  0  0
  161.8910  208.7280  148.3030 C   0  0  0  0  0  3  0  0  0  0  0  0
  161.5120  207.4820  150.3550 C   0  0  0  0  0  0  0  0  0  0  0  0
  161.2520  206.2540  152.4590 C   0  0  0  0  0  0  0  0  0  0  0  0
  160.9240  209.8460  156.0580 C   0  0  0  0  0  2  0  0  0  0  0  0
  161.1760  208.6840  152.4370 C   0  0  0  0  0  0  0  0  0  0  0  0
  160.7260  207.3680  155.9900 C   0  0  0  0  0  2  0  0  0  0  0  0
  160.8750  207.4400  154.4950 C   0  0  0  0  0  0  0  0  0  0  0  0
  161.5700  206.2780  149.6240 C   0  0  0  0  0  0  0  0  0  0  0  0
  161.0640  206.2820  153.8070 N   0  0  0  0  0  0  0  0  0  0  0  0
  161.2300  204.9720  150.2810 C   0  0  0  0  0  2  0  0  0  0  0  0
  161.7900  206.3100  148.2460 C   0  0  0  0  0  3  0  0  0  0  0  0
  161.2880  209.8590  151.7580 N   0  0  0  0  0  0  0  0  0  0  0  0
  161.5300  209.9120  150.4190 C   0  0  0  0  0  0  0  0  0  0  0  0
  160.9540  208.6790  153.8220 C   0  0  0  0  0  0  0  0  0  0  0  0
  161.5950  204.9520  151.7690 C   0  0  2  0  0  3  0  0  0  0  0  0
  161.9670  207.5300  147.5890 C   0  0  0  0  0  3  0  0  0  0  0  0
  160.1440  208.6490  156.5780 C   0  0  0  0  0  2  0  0  0  0  0  0
  160.7130  209.9770  154.5540 C   0  0  0  0  0  2  0  0  0  0  0  0
  160.1010  213.1750  149.0000 C   0  0  1  0  0  3  0  0  0  0  0  0
  163.4230  214.4530  147.8740 C   0  0  0  0  0  1  0  0  0  0  0  0
  158.9580  213.8900  149.3590 O   0  0  0  0  0  1  0  0  0  0  0  0
  162.4160  212.3660  147.5560 C   0  0  0  0  0  2  0  0  0  0  0  0
  161.6570  211.2480  149.7500 C   0  0  1  0  0  3  0  0  0  0  0  0
  161.2420  214.1470  148.6650 C   0  0  0  0  0  2  0  0  0  0  0  0
  161.9390  211.0770  148.2500 C   0  0  0  0  0  2  0  0  0  0  0  0
  160.4440  212.1370  150.0790 C   0  0  1  0  0  3  0  0  0  0  0  0
  160.6400  212.7610  151.3140 O   0  0  0  0  0  1  0  0  0  0  0  0
  162.5380  213.4830  148.4920 N   0  0  0  0  0  0  0  0  0  0  0  0
  160.9190  203.7660  152.4430 C   0  0  0  0  0  2  0  0  0  0  0  0
  161.2370  202.5870  151.7680 O   0  0  0  0  0  1  0  0  0  0  0  0
  1  4  2  0  0  0  0
  1 15  1  0  0  0  0
  2  7  2  0  0  0  0
  2  5  1  0  0  0  0
  3  1  1  0  0  0  0
  4  2  1  0  0  0  0
  5 11  2  0  0  0  0
  6 19  1  0  0  0  0
  7 16  1  0  0  0  0
  8 19  1  0  0  0  0
  9  8  1  0  0  0  0
 10 12  1  0  0  0  0
 10  4  1  0  0  0  0
 11  9  1  0  0  0  0
 12 17  1  0  0  0  0
 13 10  2  0  0  0  0
 14  7  1  0  0  0  0
 15 14  2  0  0  0  0
 16  9  2  0  0  0  0
 16 20  1  0  0  0  0
 17 31  1  1  0  0  0
 17  5  1  0  0  0  0
 18 13  1  0  0  0  0
 18  3  2  0  0  0  0
 20  6  1  0  0  0  0
 21 23  1  1  0  0  0
 21 28  1  0  0  0  0
 22 30  1  0  0  0  0
 24 27  1  0  0  0  0
 24 30  1  0  0  0  0
 25 28  1  0  0  0  0
 25 15  1  6  0  0  0
 26 21  1  0  0  0  0
 27 25  1  0  0  0  0
 28 29  1  1  0  0  0
 30 26  1  0  0  0  0
 32 31  1  0  0  0  0
M  END
>  <MODEL>
6

>  <REMARK>
 VINA RESULT:      -7.2      3.107      6.286
  Name = 
  2 active torsions:
  status: ('A' for Active; 'I' for Inactive)
    1  A    between atoms: C_13  and  C_29
    2  A    between atoms: C_16  and  C_27
                            x       y       z     vdW  Elec       q    Type
                         _______ _______ _______ _____ _____    ______ ____

>  <TORSDO>
F 2

$$$$
=
 OpenBabel11062408133D

 32 37  0  0  1  0  0  0  0  0999 V2000
  161.6480  209.1390  150.5500 C   0  0  0  0  0  0  0  0  0  0  0  0
  161.3940  206.7800  149.9960 C   0  0  0  0  0  0  0  0  0  0  0  0
  161.6500  210.1610  151.5110 C   0  0  0  0  0  3  0  0  0  0  0  0
  161.4320  207.8030  150.9580 C   0  0  0  0  0  0  0  0  0  0  0  0
  161.0940  205.4530  150.3530 C   0  0  0  0  0  0  0  0  0  0  0  0
  161.4990  205.3200  145.2760 C   0  0  0  0  0  2  0  0  0  0  0  0
  161.6400  207.0960  148.6450 C   0  0  0  0  0  0  0  0  0  0  0  0
  161.2240  203.6370  147.0860 C   0  0  0  0  0  2  0  0  0  0  0  0
  161.3450  204.7560  148.0850 C   0  0  0  0  0  0  0  0  0  0  0  0
  161.2660  207.5060  152.3260 C   0  0  0  0  0  0  0  0  0  0  0  0
  161.0550  204.4940  149.3880 N   0  0  0  0  0  0  0  0  0  0  0  0
  161.2330  206.0820  152.7970 C   0  0  0  0  0  2  0  0  0  0  0  0
  161.2910  208.5360  153.2690 C   0  0  0  0  0  3  0  0  0  0  0  0
  161.8720  208.3890  148.2860 N   0  0  0  0  0  0  0  0  0  0  0  0
  161.8720  209.4100  149.1880 C   0  0  0  0  0  0  0  0  0  0  0  0
  161.6210  206.0800  147.6770 C   0  0  0  0  0  0  0  0  0  0  0  0
  160.6260  205.1350  151.7560 C   0  0  2  0  0  3  0  0  0  0  0  0
  161.4650  209.8610  152.8620 C   0  0  0  0  0  3  0  0  0  0  0  0
  161.9350  203.9510  145.7740 C   0  0  0  0  0  2  0  0  0  0  0  0
  161.9810  206.3930  146.2450 C   0  0  0  0  0  2  0  0  0  0  0  0
  161.0390  212.4960  147.0690 C   0  0  1  0  0  3  0  0  0  0  0  0
  163.9780  214.4520  148.2800 C   0  0  0  0  0  1  0  0  0  0  0  0
  159.8120  212.9560  146.5900 O   0  0  0  0  0  1  0  0  0  0  0  0
  163.8480  212.2630  147.4670 C   0  0  0  0  0  2  0  0  0  0  0  0
  162.1200  210.8090  148.7080 C   0  0  1  0  0  3  0  0  0  0  0  0
  161.9080  213.6850  147.5070 C   0  0  0  0  0  2  0  0  0  0  0  0
  163.3130  210.8460  147.7400 C   0  0  0  0  0  2  0  0  0  0  0  0
  160.8240  211.4300  148.1550 C   0  0  1  0  0  3  0  0  0  0  0  0
  160.0650  211.9480  149.2070 O   0  0  0  0  0  1  0  0  0  0  0  0
  163.1220  213.2820  148.2250 N   0  0  0  0  0  0  0  0  0  0  0  0
  160.9380  203.6940  152.1360 C   0  0  0  0  0  2  0  0  0  0  0  0
  162.2730  203.4030  151.8510 O   0  0  0  0  0  1  0  0  0  0  0  0
  1  4  1  0  0  0  0
  1  3  2  0  0  0  0
  2  5  1  0  0  0  0
  2  4  1  0  0  0  0
  3 18  1  0  0  0  0
  4 10  2  0  0  0  0
  5 17  1  0  0  0  0
  6 19  1  0  0  0  0
  6 20  1  0  0  0  0
  7  2  2  0  0  0  0
  8  9  1  0  0  0  0
  9 11  1  0  0  0  0
 10 12  1  0  0  0  0
 10 13  1  0  0  0  0
 11  5  2  0  0  0  0
 14  7  1  0  0  0  0
 14 15  2  0  0  0  0
 15  1  1  0  0  0  0
 16  9  2  0  0  0  0
 16  7  1  0  0  0  0
 17 31  1  1  0  0  0
 17 12  1  0  0  0  0
 18 13  2  0  0  0  0
 19  8  1  0  0  0  0
 20 16  1  0  0  0  0
 21 23  1  1  0  0  0
 21 26  1  0  0  0  0
 21 28  1  0  0  0  0
 24 27  1  0  0  0  0
 24 30  1  0  0  0  0
 25 15  1  6  0  0  0
 26 30  1  0  0  0  0
 27 25  1  0  0  0  0
 28 25  1  0  0  0  0
 28 29  1  1  0  0  0
 30 22  1  0  0  0  0
 32 31  1  0  0  0  0
M  END
>  <MODEL>
7

>  <REMARK>
 VINA RESULT:      -6.8      2.968      6.017
  Name = 
  2 active torsions:
  status: ('A' for Active; 'I' for Inactive)
    1  A    between atoms: C_13  and  C_29
    2  A    between atoms: C_16  and  C_27
                            x       y       z     vdW  Elec       q    Type
                         _______ _______ _______ _____ _____    ______ ____

>  <TORSDO>
F 2

$$$$
=
 OpenBabel11062408133D

 32 37  0  0  1  0  0  0  0  0999 V2000
  161.7780  208.7770  148.9460 C   0  0  0  0  0  0  0  0  0  0  0  0
  161.4160  208.2260  151.2920 C   0  0  0  0  0  0  0  0  0  0  0  0
  162.0760  208.3620  147.6400 C   0  0  0  0  0  3  0  0  0  0  0  0
  161.6800  207.8130  149.9750 C   0  0  0  0  0  0  0  0  0  0  0  0
  161.3990  207.3070  152.3560 C   0  0  0  0  0  0  0  0  0  0  0  0
  160.7200  211.8290  154.6020 C   0  0  0  0  0  2  0  0  0  0  0  0
  161.1890  209.5920  151.5520 C   0  0  0  0  0  0  0  0  0  0  0  0
  160.6630  209.4520  155.3290 C   0  0  0  0  0  2  0  0  0  0  0  0
  160.8710  209.0530  153.8940 C   0  0  0  0  0  0  0  0  0  0  0  0
  161.8350  206.4460  149.6720 C   0  0  0  0  0  0  0  0  0  0  0  0
  161.1530  207.7510  153.6190 N   0  0  0  0  0  0  0  0  0  0  0  0
  161.5410  205.3980  150.7050 C   0  0  0  0  0  2  0  0  0  0  0  0
  162.1120  206.0510  148.3610 C   0  0  0  0  0  3  0  0  0  0  0  0
  161.2640  210.4940  150.5350 N   0  0  0  0  0  0  0  0  0  0  0  0
  161.5600  210.1320  149.2560 C   0  0  0  0  0  0  0  0  0  0  0  0
  160.9090  210.0150  152.8610 C   0  0  0  0  0  0  0  0  0  0  0  0
  161.8440  205.8790  152.1290 C   0  0  2  0  0  3  0  0  0  0  0  0
  162.2490  207.0070  147.3510 C   0  0  0  0  0  3  0  0  0  0  0  0
  159.9860  210.8120  155.4620 C   0  0  0  0  0  2  0  0  0  0  0  0
  160.5660  211.4600  153.1310 C   0  0  0  0  0  2  0  0  0  0  0  0
  162.5370  213.6060  147.9600 C   0  0  1  0  0  3  0  0  0  0  0  0
  161.1040  213.0350  144.5600 C   0  0  0  0  0  1  0  0  0  0  0  0
  163.5760  214.4530  148.3470 O   0  0  0  0  0  1  0  0  0  0  0  0
  160.1760  212.6690  146.6760 C   0  0  0  0  0  2  0  0  0  0  0  0
  161.6400  211.1900  148.1960 C   0  0  1  0  0  3  0  0  0  0  0  0
  162.3490  213.6720  146.4360 C   0  0  0  0  0  2  0  0  0  0  0  0
  160.2620  211.8270  147.9620 C   0  0  0  0  0  2  0  0  0  0  0  0
  162.7660  212.1910  148.5130 C   0  0  1  0  0  3  0  0  0  0  0  0
  163.9880  211.6820  148.0670 O   0  0  0  0  0  1  0  0  0  0  0  0
  161.4290  212.6510  145.9210 N   0  0  0  0  0  0  0  0  0  0  0  0
  161.2070  204.9280  153.1330 C   0  0  0  0  0  2  0  0  0  0  0  0
  160.8320  203.7430  152.4980 O   0  0  0  0  0  1  0  0  0  0  0  0
  1 15  2  0  0  0  0
  1  4  1  0  0  0  0
  2  7  1  0  0  0  0
  2  5  1  0  0  0  0
  3  1  1  0  0  0  0
  4  2  2  0  0  0  0
  5 11  2  0  0  0  0
  6 19  1  0  0  0  0
  7 16  1  0  0  0  0
  8 19  1  0  0  0  0
  9  8  1  0  0  0  0
 10  4  1  0  0  0  0
 10 12  1  0  0  0  0
 11  9  1  0  0  0  0
 12 17  1  0  0  0  0
 13 10  2  0  0  0  0
 14  7  2  0  0  0  0
 15 14  1  0  0  0  0
 16 20  1  0  0  0  0
 16  9  2  0  0  0  0
 17  5  1  0  0  0  0
 17 31  1  1  0  0  0
 18  3  2  0  0  0  0
 18 13  1  0  0  0  0
 20  6  1  0  0  0  0
 21 23  1  6  0  0  0
 21 28  1  0  0  0  0
 22 30  1  0  0  0  0
 24 27  1  0  0  0  0
 25 28  1  0  0  0  0
 25 15  1  1  0  0  0
 26 21  1  0  0  0  0
 27 25  1  0  0  0  0
 28 29  1  6  0  0  0
 30 26  1  0  0  0  0
 30 24  1  0  0  0  0
 32 31  1  0  0  0  0
M  END
>  <MODEL>
8

>  <REMARK>
 VINA RESULT:      -6.7      3.331      7.259
  Name = 
  2 active torsions:
  status: ('A' for Active; 'I' for Inactive)
    1  A    between atoms: C_13  and  C_29
    2  A    between atoms: C_16  and  C_27
                            x       y       z     vdW  Elec       q    Type
                         _______ _______ _______ _____ _____    ______ ____

>  <TORSDO>
F 2

$$$$
=
 OpenBabel11062408133D

 32 37  0  0  1  0  0  0  0  0999 V2000
  161.2370  204.8790  150.8170 C   0  0  0  0  0  0  0  0  0  0  0  0
  161.4960  207.2170  151.4550 C   0  0  0  0  0  0  0  0  0  0  0  0
  161.0340  203.5420  151.1870 C   0  0  0  0  0  3  0  0  0  0  0  0
  161.2590  205.8790  151.8160 C   0  0  0  0  0  0  0  0  0  0  0  0
  161.6130  208.2250  152.4290 C   0  0  0  0  0  0  0  0  0  0  0  0
  162.5840  210.6120  148.0340 C   0  0  0  0  0  2  0  0  0  0  0  0
  161.6420  207.5470  150.0940 C   0  0  0  0  0  0  0  0  0  0  0  0
  162.2640  211.2990  150.4020 C   0  0  0  0  0  2  0  0  0  0  0  0
  161.9420  209.8670  150.7290 C   0  0  0  0  0  0  0  0  0  0  0  0
  161.0320  205.5300  153.1620 C   0  0  0  0  0  0  0  0  0  0  0  0
  161.8560  209.5060  152.0380 N   0  0  0  0  0  0  0  0  0  0  0  0
  160.8560  206.5940  154.2060 C   0  0  0  0  0  2  0  0  0  0  0  0
  160.8130  204.1940  153.5070 C   0  0  0  0  0  3  0  0  0  0  0  0
  161.5890  206.5650  149.1520 N   0  0  0  0  0  0  0  0  0  0  0  0
  161.4040  205.2540  149.4710 C   0  0  0  0  0  0  0  0  0  0  0  0
  161.8630  208.8810  149.7200 C   0  0  0  0  0  0  0  0  0  0  0  0
  161.6660  207.8580  153.8950 C   0  0  2  0  0  3  0  0  0  0  0  0
  160.8310  203.2010  152.5250 C   0  0  0  0  0  3  0  0  0  0  0  0
  161.9520  211.6480  148.9500 C   0  0  0  0  0  2  0  0  0  0  0  0
  161.9210  209.2580  148.2600 C   0  0  0  0  0  2  0  0  0  0  0  0
  160.9140  204.1580  145.8290 C   0  0  1  0  0  3  0  0  0  0  0  0
  161.5810  200.5550  146.5430 C   0  0  0  0  0  1  0  0  0  0  0  0
  161.0940  204.8690  144.6420 O   0  0  0  0  0  1  0  0  0  0  0  0
  160.1740  202.0780  147.6250 C   0  0  0  0  0  2  0  0  0  0  0  0
  161.3760  204.2310  148.3750 C   0  0  1  0  0  3  0  0  0  0  0  0
  161.3880  202.7080  145.6480 C   0  0  0  0  0  2  0  0  0  0  0  0
  160.1200  203.3520  148.4860 C   0  0  0  0  0  2  0  0  0  0  0  0
  161.5710  204.9010  147.0020 C   0  0  1  0  0  3  0  0  0  0  0  0
  162.9340  205.0900  146.7610 O   0  0  0  0  0  1  0  0  0  0  0  0
  161.4410  201.9530  146.9040 N   0  0  0  0  0  0  0  0  0  0  0  0
  161.1820  209.0010  154.7760 C   0  0  0  0  0  2  0  0  0  0  0  0
  161.7590  208.9060  156.0430 O   0  0  0  0  0  1  0  0  0  0  0  0
  1  3  2  0  0  0  0
  1  4  1  0  0  0  0
  2  4  1  0  0  0  0
  2  5  1  0  0  0  0
  3 18  1  0  0  0  0
  4 10  2  0  0  0  0
  5 17  1  0  0  0  0
  6 20  1  0  0  0  0
  6 19  1  0  0  0  0
  7  2  2  0  0  0  0
  8  9  1  0  0  0  0
  9 11  1  0  0  0  0
 10 13  1  0  0  0  0
 10 12  1  0  0  0  0
 11  5  2  0  0  0  0
 14 15  2  0  0  0  0
 14  7  1  0  0  0  0
 15  1  1  0  0  0  0
 16  7  1  0  0  0  0
 16  9  2  0  0  0  0
 17 12  1  0  0  0  0
 17 31  1  1  0  0  0
 18 13  2  0  0  0  0
 19  8  1  0  0  0  0
 20 16  1  0  0  0  0
 21 23  1  6  0  0  0
 21 28  1  0  0  0  0
 22 30  1  0  0  0  0
 24 27  1  0  0  0  0
 25 27  1  0  0  0  0
 25 15  1  1  0  0  0
 26 21  1  0  0  0  0
 26 30  1  0  0  0  0
 28 29  1  6  0  0  0
 28 25  1  0  0  0  0
 30 24  1  0  0  0  0
 31 32  1  0  0  0  0
M  END
>  <MODEL>
9

>  <REMARK>
 VINA RESULT:      -6.5      1.776      8.169
  Name = 
  2 active torsions:
  status: ('A' for Active; 'I' for Inactive)
    1  A    between atoms: C_13  and  C_29
    2  A    between atoms: C_16  and  C_27
                            x       y       z     vdW  Elec       q    Type
                         _______ _______ _______ _____ _____    ______ ____

>  <TORSDO>
F 2

$$$$
