=
 OpenBabel11062409053D

 37 41  0  0  1  0  0  0  0  0999 V2000
  160.4540  211.3240  146.3230 C   0  0  0  0  0  2  0  0  0  0  0  0
  158.0630  212.8620  150.3960 C   0  0  2  0  0  3  0  0  0  0  0  0
  159.9570  211.9770  145.0450 C   0  0  0  0  0  2  0  0  0  0  0  0
  161.7960  213.3580  149.5450 O   0  0  0  0  0  0  0  0  0  0  0  0
  156.7640  212.2840  148.2930 C   0  0  0  0  0  2  0  0  0  0  0  0
  159.2610  213.1940  149.4920 C   0  0  1  0  0  3  0  0  0  0  0  0
  162.0170  213.5890  144.8970 C   0  0  0  0  0  0  0  0  0  0  0  0
  160.1750  211.6490  142.2500 N   0  0  0  0  0  1  0  0  0  0  0  0
  156.7210  213.0040  149.6480 C   0  0  2  0  0  3  0  0  0  0  0  0
  160.6020  213.1840  150.2870 C   0  0  1  0  0  3  0  0  0  0  0  0
  156.2820  214.4530  149.4630 C   0  0  0  0  0  1  0  0  0  0  0  0
  161.0540  212.6520  144.2640 C   0  0  0  0  0  0  0  0  0  0  0  0
  158.0360  212.6090  147.4880 C   0  0  2  0  0  3  0  0  0  0  0  0
  159.0460  212.9620  152.8010 C   0  0  0  0  0  3  0  0  0  0  0  0
  161.1020  212.4840  142.9390 C   0  0  0  0  0  3  0  0  0  0  0  0
  157.3770  214.4530  152.0770 O   0  0  0  0  0  0  0  0  0  0  0  0
  162.3590  213.5400  146.3550 C   0  0  0  0  0  2  0  0  0  0  0  0
  161.5630  214.3380  148.5640 C   0  0  0  0  0  2  0  0  0  0  0  0
  158.1250  213.4870  151.7740 C   0  0  0  0  0  0  0  0  0  0  0  0
  159.2330  212.3160  148.3020 N   0  0  1  0  0  0  0  0  0  0  0  0
  160.6850  212.0550  151.2260 N   0  0  0  0  0  0  0  0  0  0  0  0
  161.1330  213.6860  147.2410 C   0  0  2  0  0  3  0  0  0  0  0  0
  162.6460  214.4120  144.1780 O   0  0  0  0  0  0  0  0  0  0  0  0
  160.4800  212.3080  147.4980 C   0  0  2  0  0  3  0  0  0  0  0  0
  160.1620  212.2680  152.5490 C   0  0  0  0  0  3  0  0  0  0  0  0
  160.8460  209.6870  151.6140 C   0  0  0  0  0  3  0  0  0  0  0  0
  161.1770  210.7420  150.8520 C   0  0  0  0  0  0  0  0  0  0  0  0
  162.0740  210.5960  149.6770 C   0  0  0  0  0  3  0  0  0  0  0  0
  162.1490  209.5490  148.8430 C   0  0  0  0  0  3  0  0  0  0  0  0
  160.9580  207.7530  150.0820 C   0  0  0  0  0  3  0  0  0  0  0  0
  161.3540  208.3090  148.9380 C   0  0  0  0  0  3  0  0  0  0  0  0
  161.3540  208.2950  151.4130 C   0  0  0  0  0  2  0  0  0  0  0  0
  158.0230  214.0480  146.9550 C   0  0  0  0  0  2  0  0  0  0  0  0
  157.1200  214.1940  145.7720 C   0  0  0  0  0  0  0  0  0  0  0  0
  157.6250  214.4230  144.6100 N   0  0  0  0  0  2  0  0  0  0  0  0
  155.6540  214.3900  145.9970 C   0  0  0  0  0  2  0  0  0  0  0  0
  154.9520  214.1440  144.8130 O   0  0  0  0  0  1  0  0  0  0  0  0
  1 24  1  0  0  0  0
  2 19  1  1  0  0  0
  3  1  1  0  0  0  0
  4 10  1  0  0  0  0
  5  9  1  0  0  0  0
  6 10  1  0  0  0  0
  6  2  1  0  0  0  0
  7 17  1  0  0  0  0
  8 15  1  0  0  0  0
  9  2  1  0  0  0  0
 10 21  1  0  0  0  0
 11  9  1  0  0  0  0
 12  7  1  0  0  0  0
 12  3  1  0  0  0  0
 13  5  1  0  0  0  0
 13 20  1  0  0  0  0
 15 12  2  0  0  0  0
 17 22  1  0  0  0  0
 18  4  1  0  0  0  0
 19 16  2  0  0  0  0
 19 14  1  0  0  0  0
 20  6  1  0  0  0  0
 21 25  1  0  0  0  0
 22 24  1  0  0  0  0
 22 18  1  0  0  0  0
 23  7  2  0  0  0  0
 24 20  1  0  0  0  0
 25 14  2  0  0  0  0
 27 21  1  0  0  0  0
 27 26  2  0  0  0  0
 28 27  1  0  0  0  0
 29 31  1  0  0  0  0
 29 28  2  0  0  0  0
 30 32  1  0  0  0  0
 31 30  2  0  0  0  0
 32 26  1  0  0  0  0
 33 13  1  0  0  0  0
 34 36  1  0  0  0  0
 34 33  1  0  0  0  0
 35 34  2  0  0  0  0
 37 36  1  0  0  0  0
M  END
>  <MODEL>
1

>  <REMARK>
 VINA RESULT:      -2.2      0.000      0.000
  Name = 
  4 active torsions:
  status: ('A' for Active; 'I' for Inactive)
    1  A    between atoms: C_3  and  CA_21
    2  A    between atoms: C_6  and  N_31
    3  A    between atoms: C_20  and  C_25
    4  A    between atoms: CA_21  and  C_25
                            x       y       z     vdW  Elec       q    Type
                         _______ _______ _______ _____ _____    ______ ____

>  <TORSDO>
F 4

$$$$
