=
 OpenBabel11062407453D

 34 38  0  0  1  0  0  0  0  0999 V2000
  161.2520  204.8110  151.7840 C   0  0  2  0  0  3  0  0  0  0  0  0
  161.7260  206.9280  153.1060 C   0  0  1  0  0  3  0  0  0  0  0  0
  161.5280  207.0360  150.5880 C   0  0  1  0  0  3  0  0  0  0  0  0
  162.7740  208.9690  148.5860 C   0  0  0  0  0  2  0  0  0  0  0  0
  161.1870  206.4050  154.2820 O   0  0  0  0  0  1  0  0  0  0  0  0
  162.1160  209.0850  151.8770 C   0  0  0  0  0  2  0  0  0  0  0  0
  161.0150  206.3320  151.8690 C   0  0  1  0  0  3  0  0  0  0  0  0
  161.5310  209.3730  149.4090 C   0  0  1  0  0  3  0  0  0  0  0  0
  160.9990  206.3870  149.2820 C   0  0  1  0  0  3  0  0  0  0  0  0
  160.6490  204.2420  150.5050 C   0  0  0  0  0  2  0  0  0  0  0  0
  161.5970  208.4500  153.1580 C   0  0  0  0  0  2  0  0  0  0  0  0
  162.8890  207.5850  148.3060 O   0  0  0  0  0  0  0  0  0  0  0  0
  161.6070  207.0700  148.0330 C   0  0  1  0  0  3  0  0  0  0  0  0
  161.2990  208.5590  150.7020 C   0  0  1  0  0  3  0  0  0  0  0  0
  161.3050  204.8890  149.3020 C   0  0  0  0  0  2  0  0  0  0  0  0
  162.5580  204.6570  145.2430 C   0  0  0  0  0  0  0  0  0  0  0  0
  161.4380  204.7540  144.4110 C   0  0  0  0  0  3  0  0  0  0  0  0
  161.5690  206.2690  146.7630 C   0  0  0  0  0  0  0  0  0  0  0  0
  160.3830  205.6040  144.7560 C   0  0  0  0  0  3  0  0  0  0  0  0
  162.6230  205.4100  146.4180 C   0  0  0  0  0  3  0  0  0  0  0  0
  160.4480  206.3590  145.9320 C   0  0  0  0  0  3  0  0  0  0  0  0
  163.5780  203.8300  144.9110 F   0  0  0  0  0  0  0  0  0  0  0  0
  160.4460  202.8520  152.4360 C   0  0  0  0  0  1  0  0  0  0  0  0
  160.6710  204.1580  152.8760 O   0  0  0  0  0  0  0  0  0  0  0  0
  161.4770  210.8820  149.6120 C   0  0  0  0  0  2  0  0  0  0  0  0
  162.3770  211.5800  148.6110 C   0  0  0  0  0  2  0  0  0  0  0  0
  161.7410  212.8900  148.1890 C   0  0  0  0  0  2  0  0  0  0  0  0
  159.3000  212.3400  146.8570 O   0  0  0  0  0  0  0  0  0  0  0  0
  161.5400  212.9070  146.7090 C   0  0  0  0  0  0  0  0  0  0  0  0
  160.2940  212.6120  146.1320 C   0  0  0  0  0  0  0  0  0  0  0  0
  161.1980  212.9030  143.9540 C   0  0  0  0  0  3  0  0  0  0  0  0
  162.4540  213.1960  144.4870 C   0  0  0  0  0  2  0  0  0  0  0  0
  162.6220  213.1950  145.8720 C   0  0  0  0  0  3  0  0  0  0  0  0
  160.1540  212.6200  144.7790 N   0  0  0  0  0  0  0  0  0  0  0  0
  1  7  1  0  0  0  0
  1 24  1  1  0  0  0
  2 11  1  0  0  0  0
  2  5  1  1  0  0  0
  3 14  1  0  0  0  0
  3  7  1  0  0  0  0
  4  8  1  0  0  0  0
  6 11  1  0  0  0  0
  7  2  1  0  0  0  0
  8 25  1  0  0  0  0
  8 14  1  0  0  0  0
  9 15  1  0  0  0  0
  9  3  1  0  0  0  0
 10  1  1  0  0  0  0
 12  4  1  0  0  0  0
 13 12  1  0  0  0  0
 13  9  1  0  0  0  0
 14  6  1  0  0  0  0
 15 10  1  0  0  0  0
 16 20  1  0  0  0  0
 17 19  1  0  0  0  0
 17 16  2  0  0  0  0
 18 13  1  0  0  0  0
 19 21  2  0  0  0  0
 20 18  2  0  0  0  0
 21 18  1  0  0  0  0
 22 16  1  0  0  0  0
 23 24  1  0  0  0  0
 26 25  1  0  0  0  0
 27 26  1  0  0  0  0
 29 27  1  0  0  0  0
 30 29  1  0  0  0  0
 30 28  2  0  0  0  0
 31 32  1  0  0  0  0
 31 34  2  0  0  0  0
 32 33  1  0  0  0  0
 33 29  2  0  0  0  0
 34 30  1  0  0  0  0
M  END
>  <MODEL>
1

>  <REMARK>
 VINA RESULT:      -8.2      0.000      0.000
  Name = 
  6 active torsions:
  status: ('A' for Active; 'I' for Inactive)
    1  A    between atoms: C_1  and  O_19
    2  A    between atoms: C_3  and  C_13
    3  A    between atoms: C_3  and  C_17
    4  A    between atoms: C_12  and  C_28
    5  A    between atoms: C_17  and  C_29
    6  A    between atoms: C_18  and  C_29
                            x       y       z     vdW  Elec       q    Type
                         _______ _______ _______ _____ _____    ______ ____

>  <TORSDO>
F 6

$$$$
=
 OpenBabel11062407453D

 34 38  0  0  1  0  0  0  0  0999 V2000
  161.3420  204.9620  146.8330 C   0  0  2  0  0  3  0  0  0  0  0  0
  161.4720  203.0240  148.4710 C   0  0  1  0  0  3  0  0  0  0  0  0
  161.3560  205.3970  149.3370 C   0  0  1  0  0  3  0  0  0  0  0  0
  162.4000  206.6100  151.9330 C   0  0  0  0  0  2  0  0  0  0  0  0
  160.9670  202.1100  147.5470 O   0  0  0  0  0  1  0  0  0  0  0  0
  161.6100  203.5020  150.9350 C   0  0  0  0  0  2  0  0  0  0  0  0
  160.8970  204.4360  148.2120 C   0  0  1  0  0  3  0  0  0  0  0  0
  161.0840  205.8020  151.9090 C   0  0  1  0  0  3  0  0  0  0  0  0
  160.9700  206.8750  149.0710 C   0  0  1  0  0  3  0  0  0  0  0  0
  160.8710  206.3960  146.6260 C   0  0  0  0  0  2  0  0  0  0  0  0
  161.1350  202.5210  149.8740 C   0  0  0  0  0  2  0  0  0  0  0  0
  162.7140  207.2880  150.7290 O   0  0  0  0  0  0  0  0  0  0  0  0
  161.5260  207.8050  150.1780 C   0  0  1  0  0  3  0  0  0  0  0  0
  160.9170  204.8420  150.7100 C   0  0  1  0  0  3  0  0  0  0  0  0
  161.4770  207.2900  147.6900 C   0  0  0  0  0  2  0  0  0  0  0  0
  161.3240  211.6060  150.3370 C   0  0  0  0  0  0  0  0  0  0  0  0
  161.9310  211.9580  149.1280 C   0  0  0  0  0  3  0  0  0  0  0  0
  161.6450  209.2580  149.8160 C   0  0  0  0  0  0  0  0  0  0  0  0
  162.3980  210.9620  148.2640 C   0  0  0  0  0  3  0  0  0  0  0  0
  161.1830  210.2590  150.6830 C   0  0  0  0  0  3  0  0  0  0  0  0
  162.2570  209.6140  148.6100 C   0  0  0  0  0  3  0  0  0  0  0  0
  160.8740  212.5700  151.1760 F   0  0  0  0  0  0  0  0  0  0  0  0
  161.0610  204.8890  144.6360 C   0  0  0  0  0  1  0  0  0  0  0  0
  160.8160  204.1700  145.8080 O   0  0  0  0  0  0  0  0  0  0  0  0
  160.8170  205.1530  153.2610 C   0  0  0  0  0  2  0  0  0  0  0  0
  161.3900  206.0060  154.3760 C   0  0  0  0  0  2  0  0  0  0  0  0
  160.3490  207.0120  154.8280 C   0  0  0  0  0  2  0  0  0  0  0  0
  161.5860  207.7810  157.2600 O   0  0  0  0  0  0  0  0  0  0  0  0
  160.9950  208.3330  155.0890 C   0  0  2  0  0  3  0  0  0  0  0  0
  161.5780  208.6340  156.3320 C   0  0  0  0  0  0  0  0  0  0  0  0
  162.1540  210.8100  155.5690 C   0  0  0  0  0  3  0  0  0  0  0  0
  161.5800  210.5520  154.3240 C   0  0  0  0  0  3  0  0  0  0  0  0
  160.9970  209.3070  154.0870 C   0  0  0  0  0  3  0  0  0  0  0  0
  162.1410  209.8550  156.5380 N   0  0  0  0  0  0  0  0  0  0  0  0
  1 24  1  6  0  0  0
  1  7  1  0  0  0  0
  2  5  1  6  0  0  0
  2 11  1  0  0  0  0
  3 14  1  0  0  0  0
  7  2  1  0  0  0  0
  7  3  1  0  0  0  0
  8  4  1  0  0  0  0
  8 25  1  0  0  0  0
  9  3  1  0  0  0  0
  9 13  1  0  0  0  0
 10  1  1  0  0  0  0
 10 15  1  0  0  0  0
 11  6  1  0  0  0  0
 12  4  1  0  0  0  0
 13 12  1  0  0  0  0
 14  6  1  0  0  0  0
 14  8  1  0  0  0  0
 15  9  1  0  0  0  0
 16 20  1  0  0  0  0
 16 22  1  0  0  0  0
 17 16  2  0  0  0  0
 18 13  1  0  0  0  0
 18 20  2  0  0  0  0
 19 21  2  0  0  0  0
 19 17  1  0  0  0  0
 21 18  1  0  0  0  0
 23 24  1  0  0  0  0
 25 26  1  0  0  0  0
 26 27  1  0  0  0  0
 27 29  1  0  0  0  0
 29 30  1  0  0  0  0
 30 34  1  0  0  0  0
 30 28  2  0  0  0  0
 31 34  2  0  0  0  0
 32 31  1  0  0  0  0
 33 32  2  0  0  0  0
 33 29  1  0  0  0  0
M  END
>  <MODEL>
2

>  <REMARK>
 VINA RESULT:      -7.9      3.678      7.378
  Name = 
  6 active torsions:
  status: ('A' for Active; 'I' for Inactive)
    1  A    between atoms: C_1  and  O_19
    2  A    between atoms: C_3  and  C_13
    3  A    between atoms: C_3  and  C_17
    4  A    between atoms: C_12  and  C_28
    5  A    between atoms: C_17  and  C_29
    6  A    between atoms: C_18  and  C_29
                            x       y       z     vdW  Elec       q    Type
                         _______ _______ _______ _____ _____    ______ ____

>  <TORSDO>
F 6

$$$$
=
 OpenBabel11062407453D

 34 38  0  0  1  0  0  0  0  0999 V2000
  161.7530  205.7630  148.7860 C   0  0  2  0  0  3  0  0  0  0  0  0
  161.6110  205.0560  151.2210 C   0  0  1  0  0  3  0  0  0  0  0  0
  161.5240  207.5090  150.6180 C   0  0  1  0  0  3  0  0  0  0  0  0
  162.3470  209.9710  152.2180 C   0  0  0  0  0  2  0  0  0  0  0  0
  161.1610  203.7750  150.9020 O   0  0  0  0  0  1  0  0  0  0  0  0
  161.5110  206.8170  153.0110 C   0  0  0  0  0  2  0  0  0  0  0  0
  161.1380  206.0800  150.1630 C   0  0  1  0  0  3  0  0  0  0  0  0
  161.0020  209.2630  152.4900 C   0  0  1  0  0  3  0  0  0  0  0  0
  161.2430  208.5880  149.5400 C   0  0  1  0  0  3  0  0  0  0  0  0
  161.3800  206.8370  147.7700 C   0  0  0  0  0  2  0  0  0  0  0  0
  161.1020  205.4050  152.6190 C   0  0  0  0  0  2  0  0  0  0  0  0
  162.8200  209.8770  150.8850 O   0  0  0  0  0  0  0  0  0  0  0  0
  161.7240  209.9830  150.0070 C   0  0  1  0  0  3  0  0  0  0  0  0
  160.9150  207.7980  152.0080 C   0  0  1  0  0  3  0  0  0  0  0  0
  161.9130  208.1790  148.2280 C   0  0  0  0  0  2  0  0  0  0  0  0
  161.1190  212.4430  147.1620 C   0  0  0  0  0  0  0  0  0  0  0  0
  162.4140  212.9220  146.9420 C   0  0  0  0  0  3  0  0  0  0  0  0
  161.9540  210.9960  148.9220 C   0  0  0  0  0  0  0  0  0  0  0  0
  163.4780  212.4420  147.7120 C   0  0  0  0  0  3  0  0  0  0  0  0
  160.8880  211.4840  148.1520 C   0  0  0  0  0  3  0  0  0  0  0  0
  163.2470  211.4830  148.7020 C   0  0  0  0  0  3  0  0  0  0  0  0
  160.0880  212.9110  146.4180 F   0  0  0  0  0  0  0  0  0  0  0  0
  161.9640  204.3420  147.0980 C   0  0  0  0  0  1  0  0  0  0  0  0
  161.2990  204.5280  148.3120 O   0  0  0  0  0  0  0  0  0  0  0  0
  160.5610  209.4650  153.9330 C   0  0  0  0  0  2  0  0  0  0  0  0
  160.2670  210.9290  154.1940 C   0  0  0  0  0  2  0  0  0  0  0  0
  158.8250  211.2280  153.8320 C   0  0  0  0  0  2  0  0  0  0  0  0
  156.7710  213.1780  153.7220 O   0  0  0  0  0  0  0  0  0  0  0  0
  158.7650  212.3670  152.8680 C   0  0  0  0  0  0  0  0  0  0  0  0
  157.7020  213.2840  152.8780 C   0  0  0  0  0  0  0  0  0  0  0  0
  158.6510  214.4530  151.0400 C   0  0  0  0  0  3  0  0  0  0  0  0
  159.7220  213.5590  150.9930 C   0  0  0  0  0  2  0  0  0  0  0  0
  159.7740  212.5100  151.9110 C   0  0  0  0  0  3  0  0  0  0  0  0
  157.6730  214.2990  151.9730 N   0  0  0  0  0  0  0  0  0  0  0  0
  1 24  1  6  0  0  0
  1  7  1  0  0  0  0
  2  5  1  6  0  0  0
  2 11  1  0  0  0  0
  3 14  1  0  0  0  0
  4  8  1  0  0  0  0
  7  3  1  0  0  0  0
  7  2  1  0  0  0  0
  8 25  1  0  0  0  0
  9 13  1  0  0  0  0
  9  3  1  0  0  0  0
 10 15  1  0  0  0  0
 10  1  1  0  0  0  0
 11  6  1  0  0  0  0
 12  4  1  0  0  0  0
 13 12  1  0  0  0  0
 14  8  1  0  0  0  0
 14  6  1  0  0  0  0
 15  9  1  0  0  0  0
 16 20  1  0  0  0  0
 17 16  2  0  0  0  0
 17 19  1  0  0  0  0
 18 13  1  0  0  0  0
 19 21  2  0  0  0  0
 20 18  2  0  0  0  0
 21 18  1  0  0  0  0
 22 16  1  0  0  0  0
 23 24  1  0  0  0  0
 25 26  1  0  0  0  0
 27 26  1  0  0  0  0
 29 30  1  0  0  0  0
 29 27  1  0  0  0  0
 30 28  2  0  0  0  0
 31 34  2  0  0  0  0
 32 31  1  0  0  0  0
 32 33  1  0  0  0  0
 33 29  2  0  0  0  0
 34 30  1  0  0  0  0
M  END
>  <MODEL>
3

>  <REMARK>
 VINA RESULT:      -7.6      3.357      5.624
  Name = 
  6 active torsions:
  status: ('A' for Active; 'I' for Inactive)
    1  A    between atoms: C_1  and  O_19
    2  A    between atoms: C_3  and  C_13
    3  A    between atoms: C_3  and  C_17
    4  A    between atoms: C_12  and  C_28
    5  A    between atoms: C_17  and  C_29
    6  A    between atoms: C_18  and  C_29
                            x       y       z     vdW  Elec       q    Type
                         _______ _______ _______ _____ _____    ______ ____

>  <TORSDO>
F 6

$$$$
=
 OpenBabel11062407453D

 34 38  0  0  1  0  0  0  0  0999 V2000
  160.8280  204.6790  151.0130 C   0  0  2  0  0  3  0  0  0  0  0  0
  161.0610  205.7950  148.7430 C   0  0  1  0  0  3  0  0  0  0  0  0
  161.3330  207.1640  150.8510 C   0  0  1  0  0  3  0  0  0  0  0  0
  160.8440  210.1300  151.3620 C   0  0  0  0  0  2  0  0  0  0  0  0
  161.3700  204.5960  148.1010 O   0  0  0  0  0  1  0  0  0  0  0  0
  161.4370  208.2770  148.6250 C   0  0  0  0  0  2  0  0  0  0  0  0
  161.5560  205.7730  150.2070 C   0  0  1  0  0  3  0  0  0  0  0  0
  162.1340  209.6490  150.6610 C   0  0  1  0  0  3  0  0  0  0  0  0
  161.6410  207.1890  152.3710 C   0  0  1  0  0  3  0  0  0  0  0  0
  161.2310  204.7320  152.4820 C   0  0  0  0  0  2  0  0  0  0  0  0
  161.6890  206.9380  147.9470 C   0  0  0  0  0  2  0  0  0  0  0  0
  160.2790  209.2130  152.2820 O   0  0  0  0  0  0  0  0  0  0  0  0
  161.3210  208.5750  152.9820 C   0  0  1  0  0  3  0  0  0  0  0  0
  162.0550  208.2460  150.0180 C   0  0  1  0  0  3  0  0  0  0  0  0
  160.8530  206.0780  153.0660 C   0  0  0  0  0  2  0  0  0  0  0  0
  160.2950  207.5910  156.5170 C   0  0  0  0  0  0  0  0  0  0  0  0
  160.7970  208.6700  157.2520 C   0  0  0  0  0  3  0  0  0  0  0  0
  161.1160  208.6040  154.4700 C   0  0  0  0  0  0  0  0  0  0  0  0
  161.4600  209.7130  156.5980 C   0  0  0  0  0  3  0  0  0  0  0  0
  160.4570  207.5560  155.1290 C   0  0  0  0  0  3  0  0  0  0  0  0
  161.6210  209.6780  155.2100 C   0  0  0  0  0  3  0  0  0  0  0  0
  159.6560  206.5780  157.1500 F   0  0  0  0  0  0  0  0  0  0  0  0
  161.2070  202.5870  151.6410 C   0  0  0  0  0  1  0  0  0  0  0  0
  161.1350  203.4090  150.5140 O   0  0  0  0  0  0  0  0  0  0  0  0
  162.6840  210.7230  149.7320 C   0  0  0  0  0  2  0  0  0  0  0  0
  161.5940  211.7140  149.3690 C   0  0  0  0  0  2  0  0  0  0  0  0
  162.1110  212.6660  148.3090 C   0  0  0  0  0  2  0  0  0  0  0  0
  162.8200  213.0990  145.5980 O   0  0  0  0  0  0  0  0  0  0  0  0
  161.1540  212.7250  147.1630 C   0  0  0  0  0  0  0  0  0  0  0  0
  161.5940  212.9540  145.8490 C   0  0  0  0  0  0  0  0  0  0  0  0
  159.3560  212.8710  145.0530 C   0  0  0  0  0  3  0  0  0  0  0  0
  158.8790  212.6480  146.3460 C   0  0  0  0  0  2  0  0  0  0  0  0
  159.7860  212.5770  147.4040 C   0  0  0  0  0  3  0  0  0  0  0  0
  160.6910  213.0180  144.8340 N   0  0  0  0  0  0  0  0  0  0  0  0
  1 24  1  6  0  0  0
  1 10  1  0  0  0  0
  2  5  1  6  0  0  0
  2  7  1  0  0  0  0
  3  9  1  0  0  0  0
  4 12  1  0  0  0  0
  6 14  1  0  0  0  0
  7  3  1  0  0  0  0
  7  1  1  0  0  0  0
  8  4  1  0  0  0  0
  9 13  1  0  0  0  0
  9 15  1  0  0  0  0
 10 15  1  0  0  0  0
 11  6  1  0  0  0  0
 11  2  1  0  0  0  0
 12 13  1  0  0  0  0
 13 18  1  0  0  0  0
 14  8  1  0  0  0  0
 14  3  1  0  0  0  0
 16 22  1  0  0  0  0
 16 17  1  0  0  0  0
 18 20  1  0  0  0  0
 18 21  2  0  0  0  0
 19 17  2  0  0  0  0
 20 16  2  0  0  0  0
 21 19  1  0  0  0  0
 24 23  1  0  0  0  0
 25  8  1  0  0  0  0
 26 25  1  0  0  0  0
 27 26  1  0  0  0  0
 28 30  2  0  0  0  0
 29 33  2  0  0  0  0
 29 27  1  0  0  0  0
 30 29  1  0  0  0  0
 31 32  1  0  0  0  0
 32 33  1  0  0  0  0
 34 31  2  0  0  0  0
 34 30  1  0  0  0  0
M  END
>  <MODEL>
4

>  <REMARK>
 VINA RESULT:      -7.6      2.975      5.860
  Name = 
  6 active torsions:
  status: ('A' for Active; 'I' for Inactive)
    1  A    between atoms: C_1  and  O_19
    2  A    between atoms: C_3  and  C_13
    3  A    between atoms: C_3  and  C_17
    4  A    between atoms: C_12  and  C_28
    5  A    between atoms: C_17  and  C_29
    6  A    between atoms: C_18  and  C_29
                            x       y       z     vdW  Elec       q    Type
                         _______ _______ _______ _____ _____    ______ ____

>  <TORSDO>
F 6

$$$$
=
 OpenBabel11062407453D

 34 38  0  0  1  0  0  0  0  0999 V2000
  161.6600  205.9170  148.9640 C   0  0  2  0  0  3  0  0  0  0  0  0
  161.6570  204.8340  151.2610 C   0  0  1  0  0  3  0  0  0  0  0  0
  161.4690  207.3460  151.0560 C   0  0  1  0  0  3  0  0  0  0  0  0
  162.2950  209.5580  152.9860 C   0  0  0  0  0  2  0  0  0  0  0  0
  161.2300  203.6020  150.7640 O   0  0  0  0  0  1  0  0  0  0  0  0
  161.5910  206.2900  153.3080 C   0  0  0  0  0  2  0  0  0  0  0  0
  161.1040  205.9920  150.3990 C   0  0  1  0  0  3  0  0  0  0  0  0
  160.9860  208.7670  153.2010 C   0  0  1  0  0  3  0  0  0  0  0  0
  161.1050  208.5690  150.1740 C   0  0  1  0  0  3  0  0  0  0  0  0
  161.2080  207.1210  148.1460 C   0  0  0  0  0  2  0  0  0  0  0  0
  161.2060  204.9430  152.7170 C   0  0  0  0  0  2  0  0  0  0  0  0
  162.7060  209.6900  151.6370 O   0  0  0  0  0  0  0  0  0  0  0  0
  161.5670  209.8910  150.8340 C   0  0  1  0  0  3  0  0  0  0  0  0
  160.9190  207.3920  152.4980 C   0  0  1  0  0  3  0  0  0  0  0  0
  161.7230  208.3940  148.7860 C   0  0  0  0  0  2  0  0  0  0  0  0
  162.8120  212.1850  148.0580 C   0  0  0  0  0  0  0  0  0  0  0  0
  161.9260  213.2590  148.1800 C   0  0  0  0  0  3  0  0  0  0  0  0
  161.7150  211.0680  149.9120 C   0  0  0  0  0  0  0  0  0  0  0  0
  160.9330  213.2380  149.1650 C   0  0  0  0  0  3  0  0  0  0  0  0
  162.7060  211.0890  148.9200 C   0  0  0  0  0  3  0  0  0  0  0  0
  160.8260  212.1430  150.0270 C   0  0  0  0  0  3  0  0  0  0  0  0
  163.7710  212.2030  147.1020 F   0  0  0  0  0  0  0  0  0  0  0  0
  161.9550  204.6990  147.1350 C   0  0  0  0  0  1  0  0  0  0  0  0
  161.2210  204.7550  148.3220 O   0  0  0  0  0  0  0  0  0  0  0  0
  160.6090  208.7250  154.6750 C   0  0  0  0  0  2  0  0  0  0  0  0
  160.4730  210.1320  155.2250 C   0  0  0  0  0  2  0  0  0  0  0  0
  159.0190  210.4090  155.5520 C   0  0  0  0  0  2  0  0  0  0  0  0
  156.3220  211.2750  155.4330 O   0  0  0  0  0  0  0  0  0  0  0  0
  158.5040  211.5180  154.6950 C   0  0  2  0  0  3  0  0  0  0  0  0
  157.1450  211.8760  154.6920 C   0  0  0  0  0  0  0  0  0  0  0  0
  157.5590  213.5560  153.0630 C   0  0  0  0  0  3  0  0  0  0  0  0
  158.9150  213.2280  153.0330 C   0  0  0  0  0  3  0  0  0  0  0  0
  159.3860  212.2010  153.8520 C   0  0  0  0  0  3  0  0  0  0  0  0
  156.7110  212.8800  153.8840 N   0  0  0  0  0  0  0  0  0  0  0  0
  1 24  1  6  0  0  0
  1  7  1  0  0  0  0
  2  5  1  6  0  0  0
  2 11  1  0  0  0  0
  3 14  1  0  0  0  0
  4  8  1  0  0  0  0
  7  3  1  0  0  0  0
  7  2  1  0  0  0  0
  8 25  1  0  0  0  0
  9 13  1  0  0  0  0
  9  3  1  0  0  0  0
 10 15  1  0  0  0  0
 10  1  1  0  0  0  0
 11  6  1  0  0  0  0
 12  4  1  0  0  0  0
 13 12  1  0  0  0  0
 14  8  1  0  0  0  0
 14  6  1  0  0  0  0
 15  9  1  0  0  0  0
 16 17  2  0  0  0  0
 16 20  1  0  0  0  0
 17 19  1  0  0  0  0
 18 21  1  0  0  0  0
 18 13  1  0  0  0  0
 19 21  2  0  0  0  0
 20 18  2  0  0  0  0
 22 16  1  0  0  0  0
 23 24  1  0  0  0  0
 25 26  1  0  0  0  0
 26 27  1  0  0  0  0
 29 27  1  0  0  0  0
 30 29  1  0  0  0  0
 30 28  2  0  0  0  0
 31 34  2  0  0  0  0
 32 31  1  0  0  0  0
 32 33  2  0  0  0  0
 33 29  1  0  0  0  0
 34 30  1  0  0  0  0
M  END
>  <MODEL>
5

>  <REMARK>
 VINA RESULT:      -7.5      3.552      6.395
  Name = 
  6 active torsions:
  status: ('A' for Active; 'I' for Inactive)
    1  A    between atoms: C_1  and  O_19
    2  A    between atoms: C_3  and  C_13
    3  A    between atoms: C_3  and  C_17
    4  A    between atoms: C_12  and  C_28
    5  A    between atoms: C_17  and  C_29
    6  A    between atoms: C_18  and  C_29
                            x       y       z     vdW  Elec       q    Type
                         _______ _______ _______ _____ _____    ______ ____

>  <TORSDO>
F 6

$$$$
=
 OpenBabel11062407453D

 34 38  0  0  1  0  0  0  0  0999 V2000
  160.1720  213.0380  150.6070 C   0  0  2  0  0  3  0  0  0  0  0  0
  161.8950  211.2300  150.1450 C   0  0  1  0  0  3  0  0  0  0  0  0
  160.5910  211.1990  152.3100 C   0  0  1  0  0  3  0  0  0  0  0  0
  161.3230  210.0710  155.0470 C   0  0  0  0  0  2  0  0  0  0  0  0
  161.8300  211.4140  148.7640 O   0  0  0  0  0  1  0  0  0  0  0  0
  162.3680  209.5010  151.9070 C   0  0  0  0  0  2  0  0  0  0  0  0
  160.5340  211.5520  150.8030 C   0  0  1  0  0  3  0  0  0  0  0  0
  160.8320  209.1440  153.9140 C   0  0  1  0  0  3  0  0  0  0  0  0
  159.3270  211.6480  153.0900 C   0  0  1  0  0  3  0  0  0  0  0  0
  158.8890  213.3830  151.3530 C   0  0  0  0  0  2  0  0  0  0  0  0
  162.3300  209.7900  150.4140 C   0  0  0  0  0  2  0  0  0  0  0  0
  160.8180  211.3940  155.0070 O   0  0  0  0  0  0  0  0  0  0  0  0
  159.4690  211.3510  154.6020 C   0  0  1  0  0  3  0  0  0  0  0  0
  160.9740  209.7120  152.4840 C   0  0  1  0  0  3  0  0  0  0  0  0
  159.0780  213.1350  152.8360 C   0  0  0  0  0  2  0  0  0  0  0  0
  156.3890  212.5720  156.4830 C   0  0  0  0  0  0  0  0  0  0  0  0
  156.9390  213.5960  157.2610 C   0  0  0  0  0  3  0  0  0  0  0  0
  158.5710  212.1390  155.5130 C   0  0  0  0  0  0  0  0  0  0  0  0
  158.3030  213.8890  157.1680 C   0  0  0  0  0  3  0  0  0  0  0  0
  157.2040  211.8420  155.6130 C   0  0  0  0  0  3  0  0  0  0  0  0
  159.1180  213.1590  156.2980 C   0  0  0  0  0  3  0  0  0  0  0  0
  155.0690  212.2860  156.5750 F   0  0  0  0  0  0  0  0  0  0  0  0
  158.8670  214.1580  149.2090 C   0  0  0  0  0  1  0  0  0  0  0  0
  159.9900  213.3290  149.2510 O   0  0  0  0  0  0  0  0  0  0  0  0
  161.3940  207.7380  154.0770 C   0  0  0  0  0  2  0  0  0  0  0  0
  160.6440  206.7640  153.1890 C   0  0  0  0  0  2  0  0  0  0  0  0
  161.5810  205.6580  152.7470 C   0  0  0  0  0  2  0  0  0  0  0  0
  161.3960  203.0160  151.7380 O   0  0  0  0  0  0  0  0  0  0  0  0
  161.3060  205.2930  151.3250 C   0  0  0  0  0  0  0  0  0  0  0  0
  161.2400  203.9520  150.9090 C   0  0  0  0  0  0  0  0  0  0  0  0
  160.8350  204.6340  148.6690 C   0  0  0  0  0  3  0  0  0  0  0  0
  160.8980  205.9780  149.0410 C   0  0  0  0  0  2  0  0  0  0  0  0
  161.1380  206.3050  150.3760 C   0  0  0  0  0  3  0  0  0  0  0  0
  161.0050  203.6590  149.6020 N   0  0  0  0  0  0  0  0  0  0  0  0
  1 24  1  6  0  0  0
  1  7  1  0  0  0  0
  1 10  1  0  0  0  0
  2  5  1  6  0  0  0
  2 11  1  0  0  0  0
  2  7  1  0  0  0  0
  3 14  1  0  0  0  0
  3  9  1  0  0  0  0
  6 14  1  0  0  0  0
  7  3  1  0  0  0  0
  8 25  1  0  0  0  0
  8  4  1  0  0  0  0
  9 13  1  0  0  0  0
 10 15  1  0  0  0  0
 11  6  1  0  0  0  0
 12  4  1  0  0  0  0
 13 12  1  0  0  0  0
 13 18  1  0  0  0  0
 14  8  1  0  0  0  0
 15  9  1  0  0  0  0
 16 22  1  0  0  0  0
 16 17  1  0  0  0  0
 18 20  1  0  0  0  0
 18 21  2  0  0  0  0
 19 17  2  0  0  0  0
 20 16  2  0  0  0  0
 21 19  1  0  0  0  0
 23 24  1  0  0  0  0
 26 25  1  0  0  0  0
 27 26  1  0  0  0  0
 29 27  1  0  0  0  0
 30 29  1  0  0  0  0
 30 28  2  0  0  0  0
 31 32  1  0  0  0  0
 31 34  2  0  0  0  0
 32 33  1  0  0  0  0
 33 29  2  0  0  0  0
 34 30  1  0  0  0  0
M  END
>  <MODEL>
6

>  <REMARK>
 VINA RESULT:      -7.1      4.929      9.520
  Name = 
  6 active torsions:
  status: ('A' for Active; 'I' for Inactive)
    1  A    between atoms: C_1  and  O_19
    2  A    between atoms: C_3  and  C_13
    3  A    between atoms: C_3  and  C_17
    4  A    between atoms: C_12  and  C_28
    5  A    between atoms: C_17  and  C_29
    6  A    between atoms: C_18  and  C_29
                            x       y       z     vdW  Elec       q    Type
                         _______ _______ _______ _____ _____    ______ ____

>  <TORSDO>
F 6

$$$$
=
 OpenBabel11062407453D

 34 38  0  0  1  0  0  0  0  0999 V2000
  160.7780  204.0310  150.7110 C   0  0  2  0  0  3  0  0  0  0  0  0
  160.9950  205.2050  148.4690 C   0  0  1  0  0  3  0  0  0  0  0  0
  161.3290  206.5090  150.6080 C   0  0  1  0  0  3  0  0  0  0  0  0
  160.9070  209.4690  151.2090 C   0  0  0  0  0  2  0  0  0  0  0  0
  161.2700  204.0180  147.7890 O   0  0  0  0  0  1  0  0  0  0  0  0
  161.4170  207.6820  148.4120 C   0  0  0  0  0  2  0  0  0  0  0  0
  161.5140  205.1320  149.9230 C   0  0  1  0  0  3  0  0  0  0  0  0
  162.1740  208.9830  150.4730 C   0  0  1  0  0  3  0  0  0  0  0  0
  161.6630  206.4870  152.1230 C   0  0  1  0  0  3  0  0  0  0  0  0
  161.2070  204.0350  152.1740 C   0  0  0  0  0  2  0  0  0  0  0  0
  161.6310  206.3580  147.6940 C   0  0  0  0  0  2  0  0  0  0  0  0
  160.3400  208.5380  152.1140 O   0  0  0  0  0  0  0  0  0  0  0  0
  161.3800  207.8600  152.7780 C   0  0  1  0  0  3  0  0  0  0  0  0
  162.0580  207.6000  149.7930 C   0  0  1  0  0  3  0  0  0  0  0  0
  160.8650  205.3720  152.8010 C   0  0  0  0  0  2  0  0  0  0  0  0
  161.7180  208.7290  156.4720 C   0  0  0  0  0  0  0  0  0  0  0  0
  160.8000  207.8410  157.0410 C   0  0  0  0  0  3  0  0  0  0  0  0
  161.2000  207.8520  154.2690 C   0  0  0  0  0  0  0  0  0  0  0  0
  160.0800  206.9620  156.2260 C   0  0  0  0  0  3  0  0  0  0  0  0
  161.9170  208.7370  155.0880 C   0  0  0  0  0  3  0  0  0  0  0  0
  160.2780  206.9700  154.8420 C   0  0  0  0  0  3  0  0  0  0  0  0
  162.4140  209.5830  157.2600 F   0  0  0  0  0  0  0  0  0  0  0  0
  161.1150  201.9140  151.2750 C   0  0  0  0  0  1  0  0  0  0  0  0
  161.0520  202.7690  150.1730 O   0  0  0  0  0  0  0  0  0  0  0  0
  162.7300  210.0720  149.5650 C   0  0  0  0  0  2  0  0  0  0  0  0
  161.8950  211.3320  149.6820 C   0  0  0  0  0  2  0  0  0  0  0  0
  162.3350  212.3300  148.6290 C   0  0  0  0  0  2  0  0  0  0  0  0
  162.0880  212.9630  145.8770 O   0  0  0  0  0  0  0  0  0  0  0  0
  161.1410  212.9600  147.9900 C   0  0  2  0  0  3  0  0  0  0  0  0
  161.1080  213.2480  146.6160 C   0  0  0  0  0  0  0  0  0  0  0  0
  158.9280  214.1710  146.8300 C   0  0  0  0  0  3  0  0  0  0  0  0
  158.9240  213.9060  148.2010 C   0  0  0  0  0  3  0  0  0  0  0  0
  160.0400  213.3000  148.7810 C   0  0  0  0  0  3  0  0  0  0  0  0
  160.0090  213.8390  146.0740 N   0  0  0  0  0  0  0  0  0  0  0  0
  1 24  1  6  0  0  0
  1 10  1  0  0  0  0
  2  5  1  6  0  0  0
  2  7  1  0  0  0  0
  3  9  1  0  0  0  0
  4 12  1  0  0  0  0
  6 14  1  0  0  0  0
  7  3  1  0  0  0  0
  7  1  1  0  0  0  0
  8  4  1  0  0  0  0
  9 13  1  0  0  0  0
  9 15  1  0  0  0  0
 10 15  1  0  0  0  0
 11  6  1  0  0  0  0
 11  2  1  0  0  0  0
 12 13  1  0  0  0  0
 13 18  1  0  0  0  0
 14  8  1  0  0  0  0
 14  3  1  0  0  0  0
 16 17  1  0  0  0  0
 16 22  1  0  0  0  0
 18 21  2  0  0  0  0
 18 20  1  0  0  0  0
 19 17  2  0  0  0  0
 20 16  2  0  0  0  0
 21 19  1  0  0  0  0
 24 23  1  0  0  0  0
 25 26  1  0  0  0  0
 25  8  1  0  0  0  0
 27 26  1  0  0  0  0
 28 30  2  0  0  0  0
 29 27  1  0  0  0  0
 29 33  1  0  0  0  0
 30 29  1  0  0  0  0
 31 32  1  0  0  0  0
 32 33  2  0  0  0  0
 34 30  1  0  0  0  0
 34 31  2  0  0  0  0
M  END
>  <MODEL>
7

>  <REMARK>
 VINA RESULT:      -7.1      3.052      5.844
  Name = 
  6 active torsions:
  status: ('A' for Active; 'I' for Inactive)
    1  A    between atoms: C_1  and  O_19
    2  A    between atoms: C_3  and  C_13
    3  A    between atoms: C_3  and  C_17
    4  A    between atoms: C_12  and  C_28
    5  A    between atoms: C_17  and  C_29
    6  A    between atoms: C_18  and  C_29
                            x       y       z     vdW  Elec       q    Type
                         _______ _______ _______ _____ _____    ______ ____

>  <TORSDO>
F 6

$$$$
=
 OpenBabel11062407453D

 34 38  0  0  1  0  0  0  0  0999 V2000
  160.9070  207.5500  155.1440 C   0  0  2  0  0  3  0  0  0  0  0  0
  161.6740  209.8010  154.2530 C   0  0  1  0  0  3  0  0  0  0  0  0
  161.4410  207.8390  152.6760 C   0  0  1  0  0  3  0  0  0  0  0  0
  162.8820  207.2180  150.0620 C   0  0  0  0  0  2  0  0  0  0  0  0
  161.0980  210.5020  155.3120 O   0  0  0  0  0  1  0  0  0  0  0  0
  162.3120  210.0140  151.8310 C   0  0  0  0  0  2  0  0  0  0  0  0
  160.8690  208.5180  153.9450 C   0  0  1  0  0  3  0  0  0  0  0  0
  161.7180  208.2320  150.1030 C   0  0  1  0  0  3  0  0  0  0  0  0
  160.8070  206.4530  152.3880 C   0  0  1  0  0  3  0  0  0  0  0  0
  160.2120  206.2380  154.8000 C   0  0  0  0  0  2  0  0  0  0  0  0
  161.7420  210.7340  153.0440 C   0  0  0  0  0  2  0  0  0  0  0  0
  162.8140  206.1810  151.0250 O   0  0  0  0  0  0  0  0  0  0  0  0
  161.4720  205.7780  151.1630 C   0  0  1  0  0  3  0  0  0  0  0  0
  161.4110  208.8320  151.4940 C   0  0  1  0  0  3  0  0  0  0  0  0
  160.9200  205.5750  153.6350 C   0  0  0  0  0  2  0  0  0  0  0  0
  160.4820  202.3200  149.9080 C   0  0  0  0  0  0  0  0  0  0  0  0
  161.0610  201.5050  150.8850 C   0  0  0  0  0  3  0  0  0  0  0  0
  161.3060  204.2890  151.0640 C   0  0  0  0  0  0  0  0  0  0  0  0
  161.7640  202.0790  151.9480 C   0  0  0  0  0  3  0  0  0  0  0  0
  160.6060  203.7100  149.9950 C   0  0  0  0  0  3  0  0  0  0  0  0
  161.8880  203.4690  152.0350 C   0  0  0  0  0  3  0  0  0  0  0  0
  159.8030  201.7650  148.8760 F   0  0  0  0  0  0  0  0  0  0  0  0
  160.0920  207.0480  157.1430 C   0  0  0  0  0  1  0  0  0  0  0  0
  160.2710  208.1110  156.2560 O   0  0  0  0  0  0  0  0  0  0  0  0
  161.8610  209.2720  149.0010 C   0  0  0  0  0  2  0  0  0  0  0  0
  161.7780  208.6110  147.6380 C   0  0  0  0  0  2  0  0  0  0  0  0
  160.9250  207.3620  147.7350 C   0  0  0  0  0  2  0  0  0  0  0  0
  159.6260  206.3610  145.4220 O   0  0  0  0  0  0  0  0  0  0  0  0
  161.4640  206.3030  146.8300 C   0  0  2  0  0  3  0  0  0  0  0  0
  160.7460  205.8590  145.7070 C   0  0  0  0  0  0  0  0  0  0  0  0
  162.4650  204.3040  145.1840 C   0  0  0  0  0  3  0  0  0  0  0  0
  163.2070  204.7130  146.2930 C   0  0  0  0  0  3  0  0  0  0  0  0
  162.6990  205.7160  147.1200 C   0  0  0  0  0  3  0  0  0  0  0  0
  161.2620  204.8800  144.9170 N   0  0  0  0  0  0  0  0  0  0  0  0
  1 24  1  1  0  0  0
  2  5  1  1  0  0  0
  3  7  1  0  0  0  0
  4  8  1  0  0  0  0
  4 12  1  0  0  0  0
  6 11  1  0  0  0  0
  7  2  1  0  0  0  0
  7  1  1  0  0  0  0
  8 14  1  0  0  0  0
  9  3  1  0  0  0  0
  9 15  1  0  0  0  0
 10  1  1  0  0  0  0
 11  2  1  0  0  0  0
 12 13  1  0  0  0  0
 13  9  1  0  0  0  0
 14  6  1  0  0  0  0
 14  3  1  0  0  0  0
 15 10  1  0  0  0  0
 16 20  2  0  0  0  0
 16 17  1  0  0  0  0
 17 19  2  0  0  0  0
 18 13  1  0  0  0  0
 18 21  2  0  0  0  0
 19 21  1  0  0  0  0
 20 18  1  0  0  0  0
 22 16  1  0  0  0  0
 24 23  1  0  0  0  0
 25  8  1  0  0  0  0
 26 27  1  0  0  0  0
 26 25  1  0  0  0  0
 28 30  2  0  0  0  0
 29 33  1  0  0  0  0
 29 27  1  0  0  0  0
 30 29  1  0  0  0  0
 31 32  1  0  0  0  0
 32 33  2  0  0  0  0
 34 31  2  0  0  0  0
 34 30  1  0  0  0  0
M  END
>  <MODEL>
8

>  <REMARK>
 VINA RESULT:      -7.0      3.132      5.236
  Name = 
  6 active torsions:
  status: ('A' for Active; 'I' for Inactive)
    1  A    between atoms: C_1  and  O_19
    2  A    between atoms: C_3  and  C_13
    3  A    between atoms: C_3  and  C_17
    4  A    between atoms: C_12  and  C_28
    5  A    between atoms: C_17  and  C_29
    6  A    between atoms: C_18  and  C_29
                            x       y       z     vdW  Elec       q    Type
                         _______ _______ _______ _____ _____    ______ ____

>  <TORSDO>
F 6

$$$$
=
 OpenBabel11062407453D

 34 38  0  0  1  0  0  0  0  0999 V2000
  161.2570  207.6470  155.2820 C   0  0  2  0  0  3  0  0  0  0  0  0
  161.0180  210.0880  155.9440 C   0  0  1  0  0  3  0  0  0  0  0  0
  160.8980  209.4290  153.5060 C   0  0  1  0  0  3  0  0  0  0  0  0
  161.5830  211.0130  150.9910 C   0  0  0  0  0  2  0  0  0  0  0  0
  160.6160  209.7750  157.2420 O   0  0  0  0  0  1  0  0  0  0  0  0
  160.7900  211.8330  154.1490 C   0  0  0  0  0  2  0  0  0  0  0  0
  160.5700  208.9880  154.9540 C   0  0  1  0  0  3  0  0  0  0  0  0
  160.2450  211.2360  151.7290 C   0  0  1  0  0  3  0  0  0  0  0  0
  160.6420  208.3160  152.4560 C   0  0  1  0  0  3  0  0  0  0  0  0
  160.9060  206.5920  154.2390 C   0  0  0  0  0  2  0  0  0  0  0  0
  160.4350  211.4520  155.5790 C   0  0  0  0  0  2  0  0  0  0  0  0
  162.1210  209.7060  151.1000 O   0  0  0  0  0  0  0  0  0  0  0  0
  161.0660  208.7760  151.0400 C   0  0  1  0  0  3  0  0  0  0  0  0
  160.2170  210.7820  153.2050 C   0  0  1  0  0  3  0  0  0  0  0  0
  161.3840  207.0460  152.8740 C   0  0  0  0  0  2  0  0  0  0  0  0
  160.9960  205.4060  149.2630 C   0  0  0  0  0  0  0  0  0  0  0  0
  161.7790  205.6810  148.1380 C   0  0  0  0  0  3  0  0  0  0  0  0
  161.3220  207.6810  150.0440 C   0  0  0  0  0  0  0  0  0  0  0  0
  162.3300  206.9530  147.9630 C   0  0  0  0  0  3  0  0  0  0  0  0
  160.7650  206.4050  150.2140 C   0  0  0  0  0  3  0  0  0  0  0  0
  162.0990  207.9530  148.9130 C   0  0  0  0  0  3  0  0  0  0  0  0
  160.4590  204.1740  149.4320 F   0  0  0  0  0  0  0  0  0  0  0  0
  159.4880  206.9350  156.4120 C   0  0  0  0  0  1  0  0  0  0  0  0
  160.8570  207.1800  156.5380 O   0  0  0  0  0  0  0  0  0  0  0  0
  159.7310  212.6530  151.5090 C   0  0  0  0  0  2  0  0  0  0  0  0
  160.4550  213.3020  150.3460 C   0  0  0  0  0  2  0  0  0  0  0  0
  159.4730  213.5630  149.2220 C   0  0  0  0  0  2  0  0  0  0  0  0
  158.2150  212.5790  146.8800 O   0  0  0  0  0  0  0  0  0  0  0  0
  160.1410  213.3610  147.9010 C   0  0  0  0  0  0  0  0  0  0  0  0
  159.4400  212.8580  146.7920 C   0  0  0  0  0  0  0  0  0  0  0  0
  161.4110  212.9530  145.4660 C   0  0  0  0  0  3  0  0  0  0  0  0
  162.1430  213.4490  146.5460 C   0  0  0  0  0  2  0  0  0  0  0  0
  161.5020  213.6510  147.7690 C   0  0  0  0  0  3  0  0  0  0  0  0
  160.0880  212.6710  145.6100 N   0  0  0  0  0  0  0  0  0  0  0  0
  1 24  1  1  0  0  0
  2  5  1  1  0  0  0
  3  7  1  0  0  0  0
  4 12  1  0  0  0  0
  4  8  1  0  0  0  0
  6 11  1  0  0  0  0
  7  1  1  0  0  0  0
  7  2  1  0  0  0  0
  8 14  1  0  0  0  0
  9 15  1  0  0  0  0
  9  3  1  0  0  0  0
 10  1  1  0  0  0  0
 11  2  1  0  0  0  0
 13 12  1  0  0  0  0
 13  9  1  0  0  0  0
 14  3  1  0  0  0  0
 14  6  1  0  0  0  0
 15 10  1  0  0  0  0
 16 22  1  0  0  0  0
 16 20  1  0  0  0  0
 17 16  2  0  0  0  0
 18 20  2  0  0  0  0
 18 13  1  0  0  0  0
 19 17  1  0  0  0  0
 19 21  2  0  0  0  0
 21 18  1  0  0  0  0
 23 24  1  0  0  0  0
 25  8  1  0  0  0  0
 26 25  1  0  0  0  0
 27 26  1  0  0  0  0
 29 27  1  0  0  0  0
 30 28  2  0  0  0  0
 30 29  1  0  0  0  0
 31 34  2  0  0  0  0
 31 32  1  0  0  0  0
 32 33  1  0  0  0  0
 33 29  2  0  0  0  0
 34 30  1  0  0  0  0
M  END
>  <MODEL>
9

>  <REMARK>
 VINA RESULT:      -6.9      2.391      3.671
  Name = 
  6 active torsions:
  status: ('A' for Active; 'I' for Inactive)
    1  A    between atoms: C_1  and  O_19
    2  A    between atoms: C_3  and  C_13
    3  A    between atoms: C_3  and  C_17
    4  A    between atoms: C_12  and  C_28
    5  A    between atoms: C_17  and  C_29
    6  A    between atoms: C_18  and  C_29
                            x       y       z     vdW  Elec       q    Type
                         _______ _______ _______ _____ _____    ______ ____

>  <TORSDO>
F 6

$$$$
