=
 OpenBabel11052422553D

 28 32  0  0  1  0  0  0  0  0999 V2000
  162.5350  207.3540  150.6020 C   0  0  0  0  0  2  0  0  0  0  0  0
  160.8500  209.1090  152.4630 C   0  0  2  0  0  3  0  0  0  0  0  0
  161.9250  208.6920  150.2110 C   0  0  0  0  0  2  0  0  0  0  0  0
  161.8360  205.6580  152.2250 C   0  0  1  0  0  3  0  0  0  0  0  0
  161.3190  207.7840  153.0590 C   0  0  0  0  0  2  0  0  0  0  0  0
  161.4390  206.3680  151.0150 C   0  0  1  0  0  3  0  0  0  0  0  0
  161.8430  209.6140  151.4200 C   0  0  0  0  0  2  0  0  0  0  0  0
  160.7610  206.6590  152.3100 N   0  0  1  0  0  0  0  0  0  0  0  0
  161.4960  210.1910  154.6530 C   0  0  0  0  0  3  0  0  0  0  0  0
  159.6420  211.1090  153.3890 C   0  0  0  0  0  0  0  0  0  0  0  0
  160.2970  212.1160  155.4930 C   0  0  0  0  0  0  0  0  0  0  0  0
  160.6530  210.1450  153.5310 C   0  0  0  0  0  0  0  0  0  0  0  0
  159.4640  212.0880  154.3710 C   0  0  0  0  0  3  0  0  0  0  0  0
  158.8330  211.1070  152.2990 F   0  0  0  0  0  0  0  0  0  0  0  0
  160.1210  213.0670  156.4420 F   0  0  0  0  0  0  0  0  0  0  0  0
  161.3150  211.1710  155.6310 C   0  0  0  0  0  3  0  0  0  0  0  0
  161.2330  204.2680  152.2280 C   0  0  0  0  0  2  0  0  0  0  0  0
  160.4580  204.0580  150.9390 C   0  0  0  0  0  2  0  0  0  0  0  0
  160.5380  202.5290  149.0570 C   0  0  0  0  0  2  0  0  0  0  0  0
  160.8980  203.8560  148.5370 N   0  0  0  0  0  0  0  0  0  0  0  0
  161.3410  203.4290  149.8750 C   0  0  1  0  0  3  0  0  0  0  0  0
  161.9460  203.6680  147.6970 O   0  0  0  0  0  0  0  0  0  0  0  0
  161.4550  204.5510  145.3930 C   0  0  2  0  0  0  0  0  0  0  0  0
  161.8720  206.0390  147.3610 O   0  0  0  0  0  1  0  0  0  0  0  0
  162.9430  204.6250  145.6900 C   0  0  0  0  0  2  0  0  0  0  0  0
  161.9250  204.7560  146.8130 C   0  0  1  0  0  0  0  0  0  0  0  0
  160.9640  203.3070  145.0420 F   0  0  0  0  0  0  0  0  0  0  0  0
  160.9460  205.6780  144.7500 O   0  0  0  0  0  1  0  0  0  0  0  0
  2  5  1  0  0  0  0
  2 12  1  1  0  0  0
  3  1  1  0  0  0  0
  3  7  1  0  0  0  0
  4 17  1  6  0  0  0
  4  8  1  0  0  0  0
  6  1  1  1  0  0  0
  6  4  1  0  0  0  0
  6  8  1  0  0  0  0
  7  2  1  0  0  0  0
  8  5  1  1  0  0  0
  9 16  1  0  0  0  0
 10 12  1  0  0  0  0
 10 13  2  0  0  0  0
 11 16  2  0  0  0  0
 11 15  1  0  0  0  0
 12  9  2  0  0  0  0
 13 11  1  0  0  0  0
 14 10  1  0  0  0  0
 18 17  1  0  0  0  0
 19 21  1  0  0  0  0
 20 19  1  0  0  0  0
 20 21  1  0  0  0  0
 21 18  1  1  0  0  0
 22 20  1  0  0  0  0
 23 28  1  6  0  0  0
 23 25  1  0  0  0  0
 23 26  1  0  0  0  0
 25 26  1  0  0  0  0
 26 24  1  1  0  0  0
 26 22  1  0  0  0  0
 27 23  1  0  0  0  0
M  END
>  <MODEL>
1

>  <REMARK>
 VINA RESULT:      -9.0      0.000      0.000
  Name = 
  6 active torsions:
  status: ('A' for Active; 'I' for Inactive)
    1  A    between atoms: O_2  and  N_3
    2  A    between atoms: O_2  and  C_11
    3  A    between atoms: C_10  and  C_13
    4  A    between atoms: C_16  and  C_21
    5  A    between atoms: C_19  and  C_21
    6  A    between atoms: C_19  and  C_26
                            x       y       z     vdW  Elec       q    Type
                         _______ _______ _______ _____ _____    ______ ____

>  <TORSDO>
F 6

$$$$
=
 OpenBabel11052422553D

 28 32  0  0  1  0  0  0  0  0999 V2000
  161.5990  202.9270  151.7260 C   0  0  0  0  0  2  0  0  0  0  0  0
  160.8270  204.1890  149.0440 C   0  0  2  0  0  3  0  0  0  0  0  0
  160.7840  202.2310  150.6470 C   0  0  0  0  0  2  0  0  0  0  0  0
  161.8410  205.2920  152.3140 C   0  0  1  0  0  3  0  0  0  0  0  0
  161.6100  205.0930  149.9920 C   0  0  0  0  0  2  0  0  0  0  0  0
  160.8860  204.1970  152.1990 C   0  0  1  0  0  3  0  0  0  0  0  0
  161.1970  202.7240  149.2660 C   0  0  0  0  0  2  0  0  0  0  0  0
  160.8540  205.3220  151.2230 N   0  0  1  0  0  0  0  0  0  0  0  0
  161.6480  203.6590  146.7130 C   0  0  0  0  0  3  0  0  0  0  0  0
  160.6620  205.8310  147.1490 C   0  0  0  0  0  0  0  0  0  0  0  0
  161.4610  205.2810  144.9290 C   0  0  0  0  0  0  0  0  0  0  0  0
  161.0650  204.5680  147.6120 C   0  0  0  0  0  0  0  0  0  0  0  0
  160.8650  206.1860  145.8120 C   0  0  0  0  0  3  0  0  0  0  0  0
  160.0690  206.7180  147.9880 F   0  0  0  0  0  0  0  0  0  0  0  0
  161.6550  205.6290  143.6340 F   0  0  0  0  0  0  0  0  0  0  0  0
  161.8470  204.0170  145.3780 C   0  0  0  0  0  3  0  0  0  0  0  0
  161.4070  206.2400  153.4140 C   0  0  0  0  0  2  0  0  0  0  0  0
  160.9870  207.5620  152.7960 C   0  0  0  0  0  2  0  0  0  0  0  0
  161.6850  209.8070  153.3940 C   0  0  0  0  0  2  0  0  0  0  0  0
  160.2170  209.8300  153.3120 N   0  0  0  0  0  0  0  0  0  0  0  0
  160.9210  208.6530  153.8510 C   0  0  1  0  0  3  0  0  0  0  0  0
  159.7850  210.5500  154.3780 O   0  0  0  0  0  0  0  0  0  0  0  0
  159.0870  212.9660  154.4550 C   0  0  2  0  0  0  0  0  0  0  0  0
  158.5690  211.4600  152.5250 O   0  0  0  0  0  1  0  0  0  0  0  0
  157.9170  212.0590  154.7960 C   0  0  0  0  0  2  0  0  0  0  0  0
  159.0070  211.5880  153.8450 C   0  0  1  0  0  0  0  0  0  0  0  0
  160.0080  213.1790  155.4640 F   0  0  0  0  0  0  0  0  0  0  0  0
  158.7590  214.0270  153.6140 O   0  0  0  0  0  1  0  0  0  0  0  0
  2 12  1  6  0  0  0
  2  7  1  0  0  0  0
  2  5  1  0  0  0  0
  3  1  1  0  0  0  0
  4 17  1  1  0  0  0
  6  1  1  6  0  0  0
  6  4  1  0  0  0  0
  7  3  1  0  0  0  0
  8  5  1  6  0  0  0
  8  6  1  0  0  0  0
  8  4  1  0  0  0  0
  9 12  1  0  0  0  0
 10 12  2  0  0  0  0
 10 14  1  0  0  0  0
 11 16  1  0  0  0  0
 11 13  2  0  0  0  0
 13 10  1  0  0  0  0
 15 11  1  0  0  0  0
 16  9  2  0  0  0  0
 18 17  1  0  0  0  0
 19 21  1  0  0  0  0
 20 19  1  0  0  0  0
 20 21  1  0  0  0  0
 20 22  1  0  0  0  0
 21 18  1  6  0  0  0
 23 28  1  6  0  0  0
 23 25  1  0  0  0  0
 23 27  1  0  0  0  0
 26 24  1  6  0  0  0
 26 22  1  0  0  0  0
 26 23  1  0  0  0  0
 26 25  1  0  0  0  0
M  END
>  <MODEL>
2

>  <REMARK>
 VINA RESULT:      -8.7      3.508      8.972
  Name = 
  6 active torsions:
  status: ('A' for Active; 'I' for Inactive)
    1  A    between atoms: O_2  and  N_3
    2  A    between atoms: O_2  and  C_11
    3  A    between atoms: C_10  and  C_13
    4  A    between atoms: C_16  and  C_21
    5  A    between atoms: C_19  and  C_21
    6  A    between atoms: C_19  and  C_26
                            x       y       z     vdW  Elec       q    Type
                         _______ _______ _______ _____ _____    ______ ____

>  <TORSDO>
F 6

$$$$
=
 OpenBabel11052422553D

 28 32  0  0  1  0  0  0  0  0999 V2000
  162.0260  206.2940  152.9860 C   0  0  0  0  0  2  0  0  0  0  0  0
  160.9180  205.0610  150.4100 C   0  0  2  0  0  3  0  0  0  0  0  0
  161.2320  204.9980  152.9200 C   0  0  0  0  0  2  0  0  0  0  0  0
  162.0090  208.2890  151.5640 C   0  0  1  0  0  3  0  0  0  0  0  0
  161.6460  206.3930  150.2390 C   0  0  0  0  0  2  0  0  0  0  0  0
  161.1930  207.4590  152.4430 C   0  0  1  0  0  3  0  0  0  0  0  0
  161.4830  204.2860  151.5970 C   0  0  0  0  0  2  0  0  0  0  0  0
  160.9530  207.4520  150.9720 N   0  0  1  0  0  0  0  0  0  0  0  0
  161.4440  204.7930  147.9530 C   0  0  0  0  0  3  0  0  0  0  0  0
  160.6930  202.8630  149.2140 C   0  0  0  0  0  0  0  0  0  0  0  0
  161.2090  202.6500  146.8570 C   0  0  0  0  0  0  0  0  0  0  0  0
  161.0070  204.2310  149.1640 C   0  0  0  0  0  0  0  0  0  0  0  0
  160.7900  202.0790  148.0610 C   0  0  0  0  0  3  0  0  0  0  0  0
  160.2980  202.2860  150.3770 F   0  0  0  0  0  0  0  0  0  0  0  0
  161.3020  201.8860  145.7410 F   0  0  0  0  0  0  0  0  0  0  0  0
  161.5410  204.0050  146.8040 C   0  0  0  0  0  3  0  0  0  0  0  0
  161.5370  209.7270  151.6300 C   0  0  0  0  0  2  0  0  0  0  0  0
  160.3180  209.8110  152.5330 C   0  0  0  0  0  2  0  0  0  0  0  0
  159.7860  212.1490  152.1690 C   0  0  0  0  0  2  0  0  0  0  0  0
  158.8160  211.6450  153.1520 N   0  0  0  0  0  0  0  0  0  0  0  0
  160.2150  211.1840  153.1730 C   0  0  1  0  0  3  0  0  0  0  0  0
  158.7030  212.6030  154.1060 O   0  0  0  0  0  0  0  0  0  0  0  0
  156.5260  213.7470  153.5820 C   0  0  2  0  0  0  0  0  0  0  0  0
  156.6670  211.6420  154.9270 O   0  0  0  0  0  1  0  0  0  0  0  0
  156.9670  214.0590  155.0010 C   0  0  0  0  0  2  0  0  0  0  0  0
  157.3300  212.7310  154.3560 C   0  0  1  0  0  0  0  0  0  0  0  0
  157.1610  214.4520  152.5760 F   0  0  0  0  0  0  0  0  0  0  0  0
  155.1640  213.4800  153.4540 O   0  0  0  0  0  1  0  0  0  0  0  0
  2 12  1  6  0  0  0
  2  7  1  0  0  0  0
  3  1  1  0  0  0  0
  4 17  1  1  0  0  0
  4  6  1  0  0  0  0
  5  2  1  0  0  0  0
  6  1  1  6  0  0  0
  7  3  1  0  0  0  0
  8  5  1  6  0  0  0
  8  4  1  0  0  0  0
  8  6  1  0  0  0  0
  9 12  1  0  0  0  0
 10 14  1  0  0  0  0
 11 13  2  0  0  0  0
 12 10  2  0  0  0  0
 13 10  1  0  0  0  0
 15 11  1  0  0  0  0
 16 11  1  0  0  0  0
 16  9  2  0  0  0  0
 17 18  1  0  0  0  0
 19 20  1  0  0  0  0
 19 21  1  0  0  0  0
 20 21  1  0  0  0  0
 20 22  1  0  0  0  0
 21 18  1  6  0  0  0
 22 26  1  0  0  0  0
 23 27  1  6  0  0  0
 23 26  1  0  0  0  0
 23 25  1  0  0  0  0
 26 24  1  1  0  0  0
 26 25  1  0  0  0  0
 28 23  1  0  0  0  0
M  END
>  <MODEL>
3

>  <REMARK>
 VINA RESULT:      -8.5      4.134      9.534
  Name = 
  6 active torsions:
  status: ('A' for Active; 'I' for Inactive)
    1  A    between atoms: O_2  and  N_3
    2  A    between atoms: O_2  and  C_11
    3  A    between atoms: C_10  and  C_13
    4  A    between atoms: C_16  and  C_21
    5  A    between atoms: C_19  and  C_21
    6  A    between atoms: C_19  and  C_26
                            x       y       z     vdW  Elec       q    Type
                         _______ _______ _______ _____ _____    ______ ____

>  <TORSDO>
F 6

$$$$
=
 OpenBabel11052422553D

 28 32  0  0  1  0  0  0  0  0999 V2000
  162.1330  206.5540  152.6400 C   0  0  0  0  0  2  0  0  0  0  0  0
  160.9450  205.0320  150.2620 C   0  0  2  0  0  3  0  0  0  0  0  0
  161.2260  205.3390  152.7580 C   0  0  0  0  0  2  0  0  0  0  0  0
  162.3120  208.2930  150.9240 C   0  0  1  0  0  3  0  0  0  0  0  0
  161.7920  206.2510  149.9030 C   0  0  0  0  0  2  0  0  0  0  0  0
  161.4150  207.6870  151.9010 C   0  0  1  0  0  3  0  0  0  0  0  0
  161.4250  204.4070  151.5690 C   0  0  0  0  0  2  0  0  0  0  0  0
  161.1910  207.4690  150.4440 N   0  0  1  0  0  0  0  0  0  0  0  0
  161.4420  204.3430  147.8820 C   0  0  0  0  0  3  0  0  0  0  0  0
  160.5640  202.6930  149.4270 C   0  0  0  0  0  0  0  0  0  0  0  0
  161.0560  202.0740  147.1370 C   0  0  0  0  0  0  0  0  0  0  0  0
  160.9720  204.0110  149.1640 C   0  0  0  0  0  0  0  0  0  0  0  0
  160.6020  201.7310  148.4130 C   0  0  0  0  0  3  0  0  0  0  0  0
  160.1350  202.3360  150.6640 F   0  0  0  0  0  0  0  0  0  0  0  0
  161.0910  201.1390  146.1570 F   0  0  0  0  0  0  0  0  0  0  0  0
  161.4800  203.3780  146.8730 C   0  0  0  0  0  3  0  0  0  0  0  0
  161.9710  209.7590  150.7520 C   0  0  0  0  0  2  0  0  0  0  0  0
  162.0070  210.1110  149.2750 C   0  0  0  0  0  2  0  0  0  0  0  0
  162.8100  212.0770  148.1030 C   0  0  0  0  0  2  0  0  0  0  0  0
  161.4150  211.8770  147.6850 N   0  0  0  0  0  0  0  0  0  0  0  0
  161.8290  211.6050  149.0720 C   0  0  1  0  0  3  0  0  0  0  0  0
  160.8360  213.1040  147.6810 O   0  0  0  0  0  0  0  0  0  0  0  0
  160.1460  212.9650  145.2660 C   0  0  2  0  0  0  0  0  0  0  0  0
  158.5620  212.5590  147.1600 O   0  0  0  0  0  1  0  0  0  0  0  0
  159.7050  214.2850  145.8740 C   0  0  0  0  0  2  0  0  0  0  0  0
  159.8040  213.0350  146.7340 C   0  0  1  0  0  0  0  0  0  0  0  0
  161.4780  212.8720  144.9100 F   0  0  0  0  0  0  0  0  0  0  0  0
  159.1910  212.3700  144.4440 O   0  0  0  0  0  1  0  0  0  0  0  0
  1  3  1  0  0  0  0
  2 12  1  6  0  0  0
  2  7  1  0  0  0  0
  4 17  1  6  0  0  0
  4  6  1  0  0  0  0
  5  2  1  0  0  0  0
  6  1  1  1  0  0  0
  7  3  1  0  0  0  0
  8  5  1  1  0  0  0
  8  4  1  0  0  0  0
  8  6  1  0  0  0  0
  9 12  1  0  0  0  0
 10 14  1  0  0  0  0
 11 13  2  0  0  0  0
 12 10  2  0  0  0  0
 13 10  1  0  0  0  0
 15 11  1  0  0  0  0
 16 11  1  0  0  0  0
 16  9  2  0  0  0  0
 18 17  1  0  0  0  0
 19 21  1  0  0  0  0
 20 19  1  0  0  0  0
 20 21  1  0  0  0  0
 21 18  1  6  0  0  0
 22 20  1  0  0  0  0
 23 28  1  6  0  0  0
 23 25  1  0  0  0  0
 23 26  1  0  0  0  0
 25 26  1  0  0  0  0
 26 24  1  1  0  0  0
 26 22  1  0  0  0  0
 27 23  1  0  0  0  0
M  END
>  <MODEL>
4

>  <REMARK>
 VINA RESULT:      -8.4      4.459      8.335
  Name = 
  6 active torsions:
  status: ('A' for Active; 'I' for Inactive)
    1  A    between atoms: O_2  and  N_3
    2  A    between atoms: O_2  and  C_11
    3  A    between atoms: C_10  and  C_13
    4  A    between atoms: C_16  and  C_21
    5  A    between atoms: C_19  and  C_21
    6  A    between atoms: C_19  and  C_26
                            x       y       z     vdW  Elec       q    Type
                         _______ _______ _______ _____ _____    ______ ____

>  <TORSDO>
F 6

$$$$
=
 OpenBabel11052422553D

 28 32  0  0  1  0  0  0  0  0999 V2000
  161.2350  205.9620  151.6470 C   0  0  0  0  0  2  0  0  0  0  0  0
  161.2570  208.3860  153.5190 C   0  0  2  0  0  3  0  0  0  0  0  0
  161.6050  205.9120  153.1210 C   0  0  0  0  0  2  0  0  0  0  0  0
  161.4160  207.7510  149.9830 C   0  0  1  0  0  3  0  0  0  0  0  0
  160.8960  208.6840  152.0660 C   0  0  0  0  0  2  0  0  0  0  0  0
  162.1790  206.9030  150.8920 C   0  0  1  0  0  3  0  0  0  0  0  0
  160.8340  206.9700  153.9010 C   0  0  0  0  0  2  0  0  0  0  0  0
  162.0150  208.3550  151.1840 N   0  0  1  0  0  0  0  0  0  0  0  0
  159.7070  210.3300  153.9730 C   0  0  0  0  0  3  0  0  0  0  0  0
  160.9180  209.3340  155.8220 C   0  0  0  0  0  0  0  0  0  0  0  0
  159.4200  211.1980  156.2130 C   0  0  0  0  0  0  0  0  0  0  0  0
  160.6240  209.3790  154.4500 C   0  0  0  0  0  0  0  0  0  0  0  0
  160.3200  210.2450  156.6980 C   0  0  0  0  0  3  0  0  0  0  0  0
  161.7770  208.4060  156.3150 F   0  0  0  0  0  0  0  0  0  0  0  0
  158.8420  212.0790  157.0640 F   0  0  0  0  0  0  0  0  0  0  0  0
  159.1100  211.2370  154.8520 C   0  0  0  0  0  3  0  0  0  0  0  0
  162.2590  208.0940  148.7710 C   0  0  0  0  0  2  0  0  0  0  0  0
  162.4880  206.8370  147.9500 C   0  0  0  0  0  2  0  0  0  0  0  0
  161.3590  204.9880  146.8600 C   0  0  0  0  0  2  0  0  0  0  0  0
  161.5860  204.5800  148.2540 N   0  0  0  0  0  0  0  0  0  0  0  0
  161.2390  205.9740  147.9260 C   0  0  1  0  0  3  0  0  0  0  0  0
  160.4420  203.9780  148.6680 O   0  0  0  0  0  0  0  0  0  0  0  0
  160.9270  201.5460  148.2460 C   0  0  2  0  0  0  0  0  0  0  0  0
  161.5630  202.7120  150.3660 O   0  0  0  0  0  1  0  0  0  0  0  0
  159.7120  201.7020  149.1440 C   0  0  0  0  0  2  0  0  0  0  0  0
  160.8320  202.7300  149.1760 C   0  0  1  0  0  0  0  0  0  0  0  0
  160.7190  201.7590  146.8960 F   0  0  0  0  0  0  0  0  0  0  0  0
  161.7970  200.5300  148.6360 O   0  0  0  0  0  1  0  0  0  0  0  0
  1  3  1  0  0  0  0
  2  7  1  0  0  0  0
  2 12  1  1  0  0  0
  3  7  1  0  0  0  0
  4 17  1  6  0  0  0
  4  6  1  0  0  0  0
  4  8  1  0  0  0  0
  5  2  1  0  0  0  0
  6  8  1  0  0  0  0
  6  1  1  1  0  0  0
  8  5  1  1  0  0  0
  9 12  2  0  0  0  0
  9 16  1  0  0  0  0
 10 14  1  0  0  0  0
 10 13  2  0  0  0  0
 11 13  1  0  0  0  0
 11 15  1  0  0  0  0
 12 10  1  0  0  0  0
 16 11  2  0  0  0  0
 18 17  1  0  0  0  0
 19 21  1  0  0  0  0
 19 20  1  0  0  0  0
 20 22  1  0  0  0  0
 21 18  1  6  0  0  0
 21 20  1  0  0  0  0
 22 26  1  0  0  0  0
 23 27  1  6  0  0  0
 23 28  1  0  0  0  0
 23 25  1  0  0  0  0
 23 26  1  0  0  0  0
 25 26  1  0  0  0  0
 26 24  1  1  0  0  0
M  END
>  <MODEL>
5

>  <REMARK>
 VINA RESULT:      -8.3      1.899      3.409
  Name = 
  6 active torsions:
  status: ('A' for Active; 'I' for Inactive)
    1  A    between atoms: O_2  and  N_3
    2  A    between atoms: O_2  and  C_11
    3  A    between atoms: C_10  and  C_13
    4  A    between atoms: C_16  and  C_21
    5  A    between atoms: C_19  and  C_21
    6  A    between atoms: C_19  and  C_26
                            x       y       z     vdW  Elec       q    Type
                         _______ _______ _______ _____ _____    ______ ____

>  <TORSDO>
F 6

$$$$
=
 OpenBabel11052422553D

 28 32  0  0  1  0  0  0  0  0999 V2000
  160.4930  206.0940  153.6970 C   0  0  0  0  0  2  0  0  0  0  0  0
  161.8950  207.8850  151.6460 C   0  0  2  0  0  3  0  0  0  0  0  0
  161.2070  207.3950  154.0310 C   0  0  0  0  0  2  0  0  0  0  0  0
  160.8450  204.4550  151.9110 C   0  0  1  0  0  3  0  0  0  0  0  0
  161.2850  206.6020  151.0860 C   0  0  0  0  0  2  0  0  0  0  0  0
  161.4680  205.0980  153.0620 C   0  0  1  0  0  3  0  0  0  0  0  0
  161.1130  208.3690  152.8630 C   0  0  0  0  0  2  0  0  0  0  0  0
  161.9240  205.4290  151.6830 N   0  0  1  0  0  0  0  0  0  0  0  0
  161.6950  210.3030  150.9400 C   0  0  0  0  0  3  0  0  0  0  0  0
  162.2790  208.6370  149.2790 C   0  0  0  0  0  0  0  0  0  0  0  0
  162.0790  210.9670  148.6460 C   0  0  0  0  0  0  0  0  0  0  0  0
  161.9420  208.9620  150.6020 C   0  0  0  0  0  0  0  0  0  0  0  0
  162.3420  209.6370  148.3050 C   0  0  0  0  0  3  0  0  0  0  0  0
  162.5530  207.3540  148.9300 F   0  0  0  0  0  0  0  0  0  0  0  0
  162.1410  211.9340  147.6990 F   0  0  0  0  0  0  0  0  0  0  0  0
  161.7610  211.3000  149.9640 C   0  0  0  0  0  3  0  0  0  0  0  0
  161.3900  203.0500  151.7490 C   0  0  0  0  0  2  0  0  0  0  0  0
  160.7180  202.3880  150.5590 C   0  0  0  0  0  2  0  0  0  0  0  0
  160.8160  202.0360  148.1610 C   0  0  0  0  0  2  0  0  0  0  0  0
  160.8910  203.4890  148.3780 N   0  0  0  0  0  0  0  0  0  0  0  0
  161.5560  202.5570  149.3040 C   0  0  1  0  0  3  0  0  0  0  0  0
  161.8470  203.9540  147.5340 O   0  0  0  0  0  0  0  0  0  0  0  0
  161.1180  205.0630  145.3970 C   0  0  2  0  0  0  0  0  0  0  0  0
  160.4740  205.9130  147.6610 O   0  0  0  0  0  1  0  0  0  0  0  0
  162.2780  205.8170  146.0240 C   0  0  0  0  0  2  0  0  0  0  0  0
  161.2830  205.0680  146.8980 C   0  0  1  0  0  0  0  0  0  0  0  0
  161.4420  203.9080  144.7100 F   0  0  0  0  0  0  0  0  0  0  0  0
  160.1120  205.8840  144.8900 O   0  0  0  0  0  1  0  0  0  0  0  0
  1  3  1  0  0  0  0
  2 12  1  6  0  0  0
  2  7  1  0  0  0  0
  4 17  1  1  0  0  0
  4  6  1  0  0  0  0
  5  2  1  0  0  0  0
  6  1  1  6  0  0  0
  7  3  1  0  0  0  0
  8  5  1  6  0  0  0
  8  4  1  0  0  0  0
  8  6  1  0  0  0  0
 10 12  2  0  0  0  0
 11 16  1  0  0  0  0
 12  9  1  0  0  0  0
 13 11  2  0  0  0  0
 13 10  1  0  0  0  0
 14 10  1  0  0  0  0
 15 11  1  0  0  0  0
 16  9  2  0  0  0  0
 18 17  1  0  0  0  0
 19 20  1  0  0  0  0
 19 21  1  0  0  0  0
 20 21  1  0  0  0  0
 21 18  1  1  0  0  0
 22 20  1  0  0  0  0
 23 27  1  6  0  0  0
 23 25  1  0  0  0  0
 23 26  1  0  0  0  0
 25 26  1  0  0  0  0
 26 22  1  0  0  0  0
 26 24  1  1  0  0  0
 28 23  1  0  0  0  0
M  END
>  <MODEL>
6

>  <REMARK>
 VINA RESULT:      -8.2      2.738      3.691
  Name = 
  6 active torsions:
  status: ('A' for Active; 'I' for Inactive)
    1  A    between atoms: O_2  and  N_3
    2  A    between atoms: O_2  and  C_11
    3  A    between atoms: C_10  and  C_13
    4  A    between atoms: C_16  and  C_21
    5  A    between atoms: C_19  and  C_21
    6  A    between atoms: C_19  and  C_26
                            x       y       z     vdW  Elec       q    Type
                         _______ _______ _______ _____ _____    ______ ____

>  <TORSDO>
F 6

$$$$
=
 OpenBabel11052422553D

 28 32  0  0  1  0  0  0  0  0999 V2000
  161.4320  207.6870  150.1450 C   0  0  0  0  0  2  0  0  0  0  0  0
  161.8070  205.0350  148.6580 C   0  0  2  0  0  3  0  0  0  0  0  0
  162.2760  207.5100  148.8920 C   0  0  0  0  0  2  0  0  0  0  0  0
  160.8460  206.1330  151.9460 C   0  0  1  0  0  3  0  0  0  0  0  0
  160.9510  204.9630  149.9200 C   0  0  0  0  0  2  0  0  0  0  0  0
  161.9580  206.7950  151.2730 C   0  0  1  0  0  3  0  0  0  0  0  0
  161.6970  206.4120  148.0090 C   0  0  0  0  0  2  0  0  0  0  0  0
  161.7400  205.3310  151.0950 N   0  0  1  0  0  0  0  0  0  0  0  0
  161.3710  204.2420  146.2990 C   0  0  0  0  0  3  0  0  0  0  0  0
  161.1300  202.6730  148.1310 C   0  0  0  0  0  0  0  0  0  0  0  0
  160.7240  201.9550  145.8530 C   0  0  0  0  0  0  0  0  0  0  0  0
  161.4150  203.9710  147.6760 C   0  0  0  0  0  0  0  0  0  0  0  0
  160.7810  201.6710  147.2200 C   0  0  0  0  0  3  0  0  0  0  0  0
  161.1950  202.3740  149.4530 F   0  0  0  0  0  0  0  0  0  0  0  0
  160.3850  200.9820  144.9730 F   0  0  0  0  0  0  0  0  0  0  0  0
  161.0230  203.2380  145.3920 C   0  0  0  0  0  3  0  0  0  0  0  0
  161.1910  205.9010  153.4020 C   0  0  0  0  0  2  0  0  0  0  0  0
  161.5680  207.2250  154.0440 C   0  0  0  0  0  2  0  0  0  0  0  0
  161.2650  208.2580  156.2180 C   0  0  0  0  0  2  0  0  0  0  0  0
  160.5130  209.0750  155.2540 N   0  0  0  0  0  0  0  0  0  0  0  0
  160.5640  207.6090  155.1170 C   0  0  1  0  0  3  0  0  0  0  0  0
  159.3290  209.3730  155.8460 O   0  0  0  0  0  0  0  0  0  0  0  0
  159.8460  211.7800  156.3630 C   0  0  2  0  0  0  0  0  0  0  0  0
  158.5870  211.0660  154.3220 O   0  0  0  0  0  1  0  0  0  0  0  0
  158.4070  211.4520  156.7220 C   0  0  0  0  0  2  0  0  0  0  0  0
  159.1000  210.7300  155.5760 C   0  0  1  0  0  0  0  0  0  0  0  0
  160.8100  211.3600  157.2610 F   0  0  0  0  0  0  0  0  0  0  0  0
  160.0090  213.0130  155.7340 O   0  0  0  0  0  1  0  0  0  0  0  0
  2 12  1  6  0  0  0
  2  5  1  0  0  0  0
  3  1  1  0  0  0  0
  4 17  1  1  0  0  0
  6  1  1  6  0  0  0
  6  4  1  0  0  0  0
  7  2  1  0  0  0  0
  7  3  1  0  0  0  0
  8  5  1  6  0  0  0
  8  6  1  0  0  0  0
  8  4  1  0  0  0  0
  9 12  1  0  0  0  0
 10 14  1  0  0  0  0
 11 13  2  0  0  0  0
 12 10  2  0  0  0  0
 13 10  1  0  0  0  0
 15 11  1  0  0  0  0
 16 11  1  0  0  0  0
 16  9  2  0  0  0  0
 17 18  1  0  0  0  0
 20 22  1  0  0  0  0
 20 19  1  0  0  0  0
 21 18  1  6  0  0  0
 21 20  1  0  0  0  0
 21 19  1  0  0  0  0
 23 28  1  6  0  0  0
 23 25  1  0  0  0  0
 23 27  1  0  0  0  0
 26 24  1  6  0  0  0
 26 22  1  0  0  0  0
 26 23  1  0  0  0  0
 26 25  1  0  0  0  0
M  END
>  <MODEL>
7

>  <REMARK>
 VINA RESULT:      -8.2      3.902      9.538
  Name = 
  6 active torsions:
  status: ('A' for Active; 'I' for Inactive)
    1  A    between atoms: O_2  and  N_3
    2  A    between atoms: O_2  and  C_11
    3  A    between atoms: C_10  and  C_13
    4  A    between atoms: C_16  and  C_21
    5  A    between atoms: C_19  and  C_21
    6  A    between atoms: C_19  and  C_26
                            x       y       z     vdW  Elec       q    Type
                         _______ _______ _______ _____ _____    ______ ____

>  <TORSDO>
F 6

$$$$
=
 OpenBabel11052422553D

 28 32  0  0  1  0  0  0  0  0999 V2000
  161.4980  205.7900  149.3230 C   0  0  0  0  0  2  0  0  0  0  0  0
  160.8410  207.3390  151.8820 C   0  0  2  0  0  3  0  0  0  0  0  0
  160.7970  207.1390  149.3600 C   0  0  0  0  0  2  0  0  0  0  0  0
  161.5720  203.9470  150.9350 C   0  0  1  0  0  3  0  0  0  0  0  0
  161.5090  205.9830  152.0910 C   0  0  0  0  0  2  0  0  0  0  0  0
  160.6870  204.7440  150.0940 C   0  0  1  0  0  3  0  0  0  0  0  0
  161.2740  207.9550  150.5540 C   0  0  0  0  0  2  0  0  0  0  0  0
  160.6610  204.9090  151.5750 N   0  0  1  0  0  0  0  0  0  0  0  0
  161.6520  209.5670  152.7590 C   0  0  0  0  0  3  0  0  0  0  0  0
  160.9090  207.8810  154.3350 C   0  0  0  0  0  0  0  0  0  0  0  0
  161.6920  210.0310  155.1320 C   0  0  0  0  0  0  0  0  0  0  0  0
  161.1550  208.2770  153.0110 C   0  0  0  0  0  0  0  0  0  0  0  0
  161.1820  208.7560  155.3910 C   0  0  0  0  0  3  0  0  0  0  0  0
  160.3990  206.6530  154.6070 F   0  0  0  0  0  0  0  0  0  0  0  0
  161.9550  210.8760  156.1580 F   0  0  0  0  0  0  0  0  0  0  0  0
  161.9220  210.4380  153.8160 C   0  0  0  0  0  3  0  0  0  0  0  0
  161.0140  202.5460  151.0860 C   0  0  0  0  0  2  0  0  0  0  0  0
  160.4130  202.1040  149.7630 C   0  0  0  0  0  2  0  0  0  0  0  0
  161.1050  201.1410  147.6470 C   0  0  0  0  0  2  0  0  0  0  0  0
  160.8470  202.5660  147.3970 N   0  0  0  0  0  0  0  0  0  0  0  0
  161.4590  202.1250  148.6620 C   0  0  1  0  0  3  0  0  0  0  0  0
  161.8570  203.0060  146.6040 O   0  0  0  0  0  0  0  0  0  0  0  0
  161.9090  204.9830  145.0500 C   0  0  2  0  0  0  0  0  0  0  0  0
  160.3280  203.0660  144.7610 O   0  0  0  0  0  1  0  0  0  0  0  0
  160.7550  205.1020  146.0300 C   0  0  0  0  0  2  0  0  0  0  0  0
  161.2430  203.7350  145.5760 C   0  0  1  0  0  0  0  0  0  0  0  0
  163.1600  205.3090  145.5390 F   0  0  0  0  0  0  0  0  0  0  0  0
  161.5860  205.3440  143.7430 O   0  0  0  0  0  1  0  0  0  0  0  0
  1  3  1  0  0  0  0
  2  5  1  0  0  0  0
  2 12  1  1  0  0  0
  3  7  1  0  0  0  0
  4 17  1  1  0  0  0
  4  8  1  0  0  0  0
  6  1  1  6  0  0  0
  6  4  1  0  0  0  0
  6  8  1  0  0  0  0
  7  2  1  0  0  0  0
  8  5  1  6  0  0  0
  9 12  2  0  0  0  0
  9 16  1  0  0  0  0
 10 14  1  0  0  0  0
 10 13  2  0  0  0  0
 11 13  1  0  0  0  0
 11 15  1  0  0  0  0
 12 10  1  0  0  0  0
 16 11  2  0  0  0  0
 18 17  1  0  0  0  0
 19 21  1  0  0  0  0
 20 19  1  0  0  0  0
 20 21  1  0  0  0  0
 21 18  1  1  0  0  0
 22 20  1  0  0  0  0
 23 28  1  6  0  0  0
 23 27  1  0  0  0  0
 23 26  1  0  0  0  0
 23 25  1  0  0  0  0
 26 24  1  6  0  0  0
 26 25  1  0  0  0  0
 26 22  1  0  0  0  0
M  END
>  <MODEL>
8

>  <REMARK>
 VINA RESULT:      -8.0      1.925      2.498
  Name = 
  6 active torsions:
  status: ('A' for Active; 'I' for Inactive)
    1  A    between atoms: O_2  and  N_3
    2  A    between atoms: O_2  and  C_11
    3  A    between atoms: C_10  and  C_13
    4  A    between atoms: C_16  and  C_21
    5  A    between atoms: C_19  and  C_21
    6  A    between atoms: C_19  and  C_26
                            x       y       z     vdW  Elec       q    Type
                         _______ _______ _______ _____ _____    ______ ____

>  <TORSDO>
F 6

$$$$
=
 OpenBabel11052422553D

 28 32  0  0  1  0  0  0  0  0999 V2000
  160.8300  208.4900  151.7850 C   0  0  0  0  0  2  0  0  0  0  0  0
  161.5350  205.6430  150.9040 C   0  0  2  0  0  3  0  0  0  0  0  0
  161.5890  208.1430  150.5140 C   0  0  0  0  0  2  0  0  0  0  0  0
  160.6650  207.3510  153.9470 C   0  0  1  0  0  3  0  0  0  0  0  0
  160.8080  205.7530  152.2410 C   0  0  0  0  0  2  0  0  0  0  0  0
  161.5890  207.9860  153.0160 C   0  0  1  0  0  3  0  0  0  0  0  0
  161.1390  206.7900  149.9770 C   0  0  0  0  0  2  0  0  0  0  0  0
  161.6130  206.5080  153.2010 N   0  0  1  0  0  0  0  0  0  0  0  0
  161.2060  204.2210  148.8410 C   0  0  0  0  0  3  0  0  0  0  0  0
  161.0820  203.1740  151.0250 C   0  0  0  0  0  0  0  0  0  0  0  0
  160.7740  201.8480  149.0210 C   0  0  0  0  0  0  0  0  0  0  0  0
  161.2550  204.3270  150.2410 C   0  0  0  0  0  0  0  0  0  0  0  0
  160.8380  201.9410  150.4140 C   0  0  0  0  0  3  0  0  0  0  0  0
  161.1550  203.2410  152.3780 F   0  0  0  0  0  0  0  0  0  0  0  0
  160.5370  200.6500  148.4320 F   0  0  0  0  0  0  0  0  0  0  0  0
  160.9630  202.9860  148.2350 C   0  0  0  0  0  3  0  0  0  0  0  0
  161.1610  207.5320  155.3680 C   0  0  0  0  0  2  0  0  0  0  0  0
  161.3640  209.0120  155.6410 C   0  0  0  0  0  2  0  0  0  0  0  0
  160.3300  211.0490  156.4570 C   0  0  0  0  0  2  0  0  0  0  0  0
  159.4910  210.5640  155.3510 N   0  0  0  0  0  0  0  0  0  0  0  0
  160.1270  209.6160  156.2820 C   0  0  1  0  0  3  0  0  0  0  0  0
  158.2040  210.7080  155.7560 O   0  0  0  0  0  0  0  0  0  0  0  0
  156.6590  212.5940  155.1350 C   0  0  2  0  0  0  0  0  0  0  0  0
  158.1450  211.4500  153.4790 O   0  0  0  0  0  1  0  0  0  0  0  0
  156.0630  211.2570  154.7300 C   0  0  0  0  0  2  0  0  0  0  0  0
  157.5710  211.4540  154.7520 C   0  0  1  0  0  0  0  0  0  0  0  0
  156.5590  212.9260  156.4740 F   0  0  0  0  0  0  0  0  0  0  0  0
  156.5040  213.5990  154.1830 O   0  0  0  0  0  1  0  0  0  0  0  0
  2 12  1  6  0  0  0
  2  5  1  0  0  0  0
  3  1  1  0  0  0  0
  4 17  1  1  0  0  0
  6  1  1  6  0  0  0
  6  8  1  0  0  0  0
  6  4  1  0  0  0  0
  7  3  1  0  0  0  0
  7  2  1  0  0  0  0
  8  5  1  6  0  0  0
  8  4  1  0  0  0  0
  9 12  1  0  0  0  0
 10 14  1  0  0  0  0
 11 13  2  0  0  0  0
 12 10  2  0  0  0  0
 13 10  1  0  0  0  0
 15 11  1  0  0  0  0
 16  9  2  0  0  0  0
 16 11  1  0  0  0  0
 17 18  1  0  0  0  0
 20 22  1  0  0  0  0
 20 21  1  0  0  0  0
 20 19  1  0  0  0  0
 21 18  1  6  0  0  0
 21 19  1  0  0  0  0
 23 28  1  6  0  0  0
 23 27  1  0  0  0  0
 25 26  1  0  0  0  0
 25 23  1  0  0  0  0
 26 24  1  6  0  0  0
 26 23  1  0  0  0  0
 26 22  1  0  0  0  0
M  END
>  <MODEL>
9

>  <REMARK>
 VINA RESULT:      -7.9      4.159      9.235
  Name = 
  6 active torsions:
  status: ('A' for Active; 'I' for Inactive)
    1  A    between atoms: O_2  and  N_3
    2  A    between atoms: O_2  and  C_11
    3  A    between atoms: C_10  and  C_13
    4  A    between atoms: C_16  and  C_21
    5  A    between atoms: C_19  and  C_21
    6  A    between atoms: C_19  and  C_26
                            x       y       z     vdW  Elec       q    Type
                         _______ _______ _______ _____ _____    ______ ____

>  <TORSDO>
F 6

$$$$
