=
 OpenBabel11062410453D

 32 36  0  0  1  0  0  0  0  0999 V2000
  160.5290  214.3900  149.9400 C   0  0  1  0  0  3  0  0  0  0  0  0
  161.9130  209.5300  148.9690 C   0  0  0  0  0  0  0  0  0  0  0  0
  161.0390  207.0600  153.0630 C   0  0  0  0  0  3  0  0  0  0  0  0
  161.4170  205.8810  152.4180 C   0  0  0  0  0  3  0  0  0  0  0  0
  161.6020  211.9320  148.8420 C   0  0  0  0  0  0  0  0  0  0  0  0
  161.1280  210.7550  150.9130 C   0  0  0  0  0  3  0  0  0  0  0  0
  160.8270  213.2280  150.8940 C   0  0  0  0  0  2  0  0  0  0  0  0
  161.0610  208.2730  152.3740 C   0  0  0  0  0  3  0  0  0  0  0  0
  161.4960  209.5370  150.3180 C   0  0  0  0  0  0  0  0  0  0  0  0
  161.4640  208.3230  151.0270 C   0  0  0  0  0  0  0  0  0  0  0  0
  162.2500  207.1750  149.0270 C   0  0  0  0  0  0  0  0  0  0  0  0
  161.5790  214.4530  148.8320 C   0  0  0  0  0  2  0  0  0  0  0  0
  161.1630  211.9460  150.1840 C   0  0  0  0  0  0  0  0  0  0  0  0
  161.5890  213.1720  147.9960 C   0  0  0  0  0  2  0  0  0  0  0  0
  161.8190  205.9130  151.0820 C   0  0  0  0  0  3  0  0  0  0  0  0
  161.8480  207.1260  150.3750 C   0  0  0  0  0  0  0  0  0  0  0  0
  161.9590  210.7210  148.2430 C   0  0  0  0  0  3  0  0  0  0  0  0
  162.2750  208.3650  148.3720 N   0  0  0  0  0  0  0  0  0  0  0  0
  158.1700  213.6770  150.0390 C   0  0  0  0  0  3  0  0  0  0  0  0
  159.1410  214.3040  149.3760 C   0  0  0  0  0  3  0  0  0  0  0  0
  156.7940  213.5920  149.4700 C   0  0  0  0  0  3  0  0  0  0  0  0
  155.8780  214.3870  150.2700 N   0  0  0  0  0  1  0  0  0  0  0  0
  156.8030  214.0930  148.1080 N   0  0  0  0  0  1  0  0  0  0  0  0
  162.7020  205.9470  148.2970 C   0  0  0  0  0  2  0  0  0  0  0  0
  161.6300  203.7340  147.7780 C   0  0  1  0  0  3  0  0  0  0  0  0
  161.5270  205.5170  146.1500 C   0  0  1  0  0  3  0  0  0  0  0  0
  160.9410  204.2810  145.5060 C   0  0  0  0  0  2  0  0  0  0  0  0
  161.2820  203.1250  146.4270 C   0  0  0  0  0  2  0  0  0  0  0  0
  160.7300  206.6250  145.8640 O   0  0  0  0  0  1  0  0  0  0  0  0
  161.5220  205.2460  147.6370 C   0  0  2  0  0  3  0  0  0  0  0  0
  160.7410  203.1910  148.8970 C   0  0  0  0  0  2  0  0  0  0  0  0
  160.5870  201.6780  148.8440 C   0  0  0  0  0  1  0  0  0  0  0  0
  1 20  1  6  0  0  0
  1  7  1  0  0  0  0
  2  9  1  0  0  0  0
  4  3  1  0  0  0  0
  5 13  1  0  0  0  0
  8  3  2  0  0  0  0
  9  6  1  0  0  0  0
  9 10  2  0  0  0  0
 10  8  1  0  0  0  0
 11 16  2  0  0  0  0
 12  1  1  0  0  0  0
 13  7  1  0  0  0  0
 13  6  2  0  0  0  0
 14 12  1  0  0  0  0
 14  5  1  0  0  0  0
 15  4  2  0  0  0  0
 16 10  1  0  0  0  0
 16 15  1  0  0  0  0
 17  5  2  0  0  0  0
 17  2  1  0  0  0  0
 18  2  2  0  0  0  0
 18 11  1  0  0  0  0
 20 19  2  0  0  0  0
 21 19  1  0  0  0  0
 21 22  1  0  0  0  0
 23 21  1  0  0  0  0
 24 11  1  0  0  0  0
 25 31  1  1  0  0  0
 26 29  1  1  0  0  0
 26 30  1  0  0  0  0
 27 26  1  0  0  0  0
 27 28  1  0  0  0  0
 28 25  1  0  0  0  0
 30 25  1  0  0  0  0
 30 24  1  1  0  0  0
 32 31  1  0  0  0  0
M  END
>  <MODEL>
1

>  <REMARK>
 VINA RESULT:      -7.4      0.000      0.000
  Name = 
  5 active torsions:
  status: ('A' for Active; 'I' for Inactive)
    1  A    between atoms: C_1  and  C_10
    2  A    between atoms: C_2  and  C_24
    3  A    between atoms: C_6  and  C_7
    4  A    between atoms: C_16  and  C_27
    5  A    between atoms: C_27  and  C_32
                            x       y       z     vdW  Elec       q    Type
                         _______ _______ _______ _____ _____    ______ ____

>  <TORSDO>
F 5

$$$$
=
 OpenBabel11062410453D

 32 36  0  0  1  0  0  0  0  0999 V2000
  160.9400  214.4530  148.6400 C   0  0  1  0  0  3  0  0  0  0  0  0
  161.9550  209.4850  149.5170 C   0  0  0  0  0  0  0  0  0  0  0  0
  160.5670  208.6400  154.0990 C   0  0  0  0  0  3  0  0  0  0  0  0
  160.8850  207.2900  153.9330 C   0  0  0  0  0  3  0  0  0  0  0  0
  161.8690  211.7090  148.5530 C   0  0  0  0  0  0  0  0  0  0  0  0
  161.1410  211.3510  150.8430 C   0  0  0  0  0  3  0  0  0  0  0  0
  161.0640  213.6780  149.9550 C   0  0  0  0  0  2  0  0  0  0  0  0
  160.7480  209.5360  153.0450 C   0  0  0  0  0  3  0  0  0  0  0  0
  161.4420  209.9840  150.7350 C   0  0  0  0  0  0  0  0  0  0  0  0
  161.2500  209.0930  151.8080 C   0  0  0  0  0  0  0  0  0  0  0  0
  162.0760  207.2800  150.4040 C   0  0  0  0  0  0  0  0  0  0  0  0
  162.0700  214.0680  147.6860 C   0  0  0  0  0  2  0  0  0  0  0  0
  161.3360  212.2120  149.7600 C   0  0  0  0  0  0  0  0  0  0  0  0
  162.0270  212.5790  147.3390 C   0  0  0  0  0  2  0  0  0  0  0  0
  161.3850  206.8350  152.7130 C   0  0  0  0  0  3  0  0  0  0  0  0
  161.5730  207.7250  151.6420 C   0  0  0  0  0  0  0  0  0  0  0  0
  162.1590  210.3470  148.4380 C   0  0  0  0  0  3  0  0  0  0  0  0
  162.2540  208.1670  149.3900 N   0  0  0  0  0  0  0  0  0  0  0  0
  158.5100  214.0570  148.7480 C   0  0  0  0  0  3  0  0  0  0  0  0
  159.5960  214.2590  148.0030 C   0  0  0  0  0  3  0  0  0  0  0  0
  157.1760  213.8600  148.1090 C   0  0  0  0  0  3  0  0  0  0  0  0
  157.1930  212.6610  147.2880 N   0  0  0  0  0  1  0  0  0  0  0  0
  156.1630  213.7230  149.1390 N   0  0  0  0  0  1  0  0  0  0  0  0
  162.4680  205.8520  150.1830 C   0  0  0  0  0  2  0  0  0  0  0  0
  161.2860  203.6390  150.0330 C   0  0  1  0  0  3  0  0  0  0  0  0
  161.5690  204.9740  148.0380 C   0  0  1  0  0  3  0  0  0  0  0  0
  160.9710  203.6520  147.6170 C   0  0  0  0  0  2  0  0  0  0  0  0
  161.0770  202.7390  148.8240 C   0  0  0  0  0  2  0  0  0  0  0  0
  160.9220  206.0200  147.3810 O   0  0  0  0  0  1  0  0  0  0  0  0
  161.3340  205.0750  149.5280 C   0  0  2  0  0  3  0  0  0  0  0  0
  160.2060  203.4330  151.0940 C   0  0  0  0  0  2  0  0  0  0  0  0
  160.7770  203.3150  152.5000 C   0  0  0  0  0  1  0  0  0  0  0  0
  1 20  1  6  0  0  0
  1  7  1  0  0  0  0
  2  9  1  0  0  0  0
  4  3  1  0  0  0  0
  5 13  1  0  0  0  0
  8  3  2  0  0  0  0
  9  6  1  0  0  0  0
  9 10  2  0  0  0  0
 10  8  1  0  0  0  0
 11 16  2  0  0  0  0
 12  1  1  0  0  0  0
 13  7  1  0  0  0  0
 13  6  2  0  0  0  0
 14 12  1  0  0  0  0
 14  5  1  0  0  0  0
 15  4  2  0  0  0  0
 16 10  1  0  0  0  0
 16 15  1  0  0  0  0
 17  5  2  0  0  0  0
 17  2  1  0  0  0  0
 18  2  2  0  0  0  0
 18 11  1  0  0  0  0
 20 19  2  0  0  0  0
 21 19  1  0  0  0  0
 21 23  1  0  0  0  0
 22 21  1  0  0  0  0
 24 11  1  0  0  0  0
 25 31  1  1  0  0  0
 26 29  1  6  0  0  0
 26 30  1  0  0  0  0
 27 26  1  0  0  0  0
 27 28  1  0  0  0  0
 28 25  1  0  0  0  0
 30 25  1  0  0  0  0
 30 24  1  1  0  0  0
 31 32  1  0  0  0  0
M  END
>  <MODEL>
2

>  <REMARK>
 VINA RESULT:      -7.2      1.205      1.771
  Name = 
  5 active torsions:
  status: ('A' for Active; 'I' for Inactive)
    1  A    between atoms: C_1  and  C_10
    2  A    between atoms: C_2  and  C_24
    3  A    between atoms: C_6  and  C_7
    4  A    between atoms: C_16  and  C_27
    5  A    between atoms: C_27  and  C_32
                            x       y       z     vdW  Elec       q    Type
                         _______ _______ _______ _____ _____    ______ ____

>  <TORSDO>
F 5

$$$$
=
 OpenBabel11062410453D

 32 36  0  0  1  0  0  0  0  0999 V2000
  162.6280  205.8630  151.6250 C   0  0  1  0  0  3  0  0  0  0  0  0
  160.3780  210.4660  152.1080 C   0  0  0  0  0  0  0  0  0  0  0  0
  162.0310  213.1430  148.4020 C   0  0  0  0  0  3  0  0  0  0  0  0
  161.1900  214.1860  148.7960 C   0  0  0  0  0  3  0  0  0  0  0  0
  161.1970  208.2200  152.5180 C   0  0  0  0  0  0  0  0  0  0  0  0
  162.0500  209.4970  150.6350 C   0  0  0  0  0  3  0  0  0  0  0  0
  162.9860  207.2180  151.0060 C   0  0  0  0  0  2  0  0  0  0  0  0
  162.0470  211.9470  149.1200 C   0  0  0  0  0  3  0  0  0  0  0  0
  161.2250  210.5790  150.9830 C   0  0  0  0  0  0  0  0  0  0  0  0
  161.2200  211.7780  150.2450 C   0  0  0  0  0  0  0  0  0  0  0  0
  159.5400  212.6680  151.7700 C   0  0  0  0  0  0  0  0  0  0  0  0
  162.2910  206.0260  153.1060 C   0  0  0  0  0  2  0  0  0  0  0  0
  162.0310  208.3160  151.3830 C   0  0  0  0  0  0  0  0  0  0  0  0
  161.0880  206.9480  153.3080 C   0  0  0  0  0  2  0  0  0  0  0  0
  160.3630  214.0340  149.9100 C   0  0  0  0  0  3  0  0  0  0  0  0
  160.3680  212.8360  150.6440 C   0  0  0  0  0  0  0  0  0  0  0  0
  160.3670  209.2900  152.8600 C   0  0  0  0  0  3  0  0  0  0  0  0
  159.5730  211.4990  152.4630 N   0  0  0  0  0  0  0  0  0  0  0  0
  161.5600  203.8830  150.6160 C   0  0  0  0  0  3  0  0  0  0  0  0
  161.5150  205.1890  150.8800 C   0  0  0  0  0  3  0  0  0  0  0  0
  160.4520  203.2190  149.8710 C   0  0  0  0  0  3  0  0  0  0  0  0
  160.6570  203.3700  148.4400 N   0  0  0  0  0  1  0  0  0  0  0  0
  160.4250  201.8070  150.2060 N   0  0  0  0  0  1  0  0  0  0  0  0
  158.6460  213.7650  152.2590 C   0  0  0  0  0  2  0  0  0  0  0  0
  156.2620  214.2450  151.6230 C   0  0  1  0  0  3  0  0  0  0  0  0
  156.7460  213.2820  153.7870 C   0  0  1  0  0  3  0  0  0  0  0  0
  155.2670  213.5940  153.7510 C   0  0  0  0  0  2  0  0  0  0  0  0
  155.0490  214.4530  152.5190 C   0  0  0  0  0  2  0  0  0  0  0  0
  156.9510  212.0210  154.3460 O   0  0  0  0  0  1  0  0  0  0  0  0
  157.2020  213.2890  152.3460 C   0  0  2  0  0  3  0  0  0  0  0  0
  155.8690  213.7340  150.2370 C   0  0  0  0  0  2  0  0  0  0  0  0
  156.7410  214.3090  149.1300 C   0  0  0  0  0  1  0  0  0  0  0  0
  1 20  1  6  0  0  0
  1 12  1  0  0  0  0
  2 18  1  0  0  0  0
  2 17  1  0  0  0  0
  3  4  2  0  0  0  0
  3  8  1  0  0  0  0
  4 15  1  0  0  0  0
  5 17  2  0  0  0  0
  5 14  1  0  0  0  0
  6  9  1  0  0  0  0
  6 13  2  0  0  0  0
  7 13  1  0  0  0  0
  7  1  1  0  0  0  0
  8 10  2  0  0  0  0
  9  2  2  0  0  0  0
 10 16  1  0  0  0  0
 10  9  1  0  0  0  0
 11 24  1  0  0  0  0
 11 18  2  0  0  0  0
 12 14  1  0  0  0  0
 13  5  1  0  0  0  0
 15 16  2  0  0  0  0
 16 11  1  0  0  0  0
 19 20  2  0  0  0  0
 21 23  1  0  0  0  0
 21 19  1  0  0  0  0
 22 21  1  0  0  0  0
 25 31  1  6  0  0  0
 25 30  1  0  0  0  0
 25 28  1  0  0  0  0
 26 29  1  6  0  0  0
 27 26  1  0  0  0  0
 28 27  1  0  0  0  0
 30 24  1  1  0  0  0
 30 26  1  0  0  0  0
 32 31  1  0  0  0  0
M  END
>  <MODEL>
3

>  <REMARK>
 VINA RESULT:      -6.2      3.099      9.142
  Name = 
  5 active torsions:
  status: ('A' for Active; 'I' for Inactive)
    1  A    between atoms: C_1  and  C_10
    2  A    between atoms: C_2  and  C_24
    3  A    between atoms: C_6  and  C_7
    4  A    between atoms: C_16  and  C_27
    5  A    between atoms: C_27  and  C_32
                            x       y       z     vdW  Elec       q    Type
                         _______ _______ _______ _____ _____    ______ ____

>  <TORSDO>
F 5

$$$$
=
 OpenBabel11062410453D

 32 36  0  0  1  0  0  0  0  0999 V2000
  162.4410  205.9360  151.7440 C   0  0  1  0  0  3  0  0  0  0  0  0
  160.0640  210.4300  152.5360 C   0  0  0  0  0  0  0  0  0  0  0  0
  161.5430  213.3600  148.9490 C   0  0  0  0  0  3  0  0  0  0  0  0
  160.6800  214.3510  149.4200 C   0  0  0  0  0  3  0  0  0  0  0  0
  160.9600  208.1920  152.8000 C   0  0  0  0  0  0  0  0  0  0  0  0
  161.7280  209.5990  150.9740 C   0  0  0  0  0  3  0  0  0  0  0  0
  162.7420  207.3330  151.1950 C   0  0  0  0  0  2  0  0  0  0  0  0
  161.6130  212.1270  149.5990 C   0  0  0  0  0  3  0  0  0  0  0  0
  160.8790  210.6330  151.4000 C   0  0  0  0  0  0  0  0  0  0  0  0
  160.8190  211.8690  150.7310 C   0  0  0  0  0  0  0  0  0  0  0  0
  159.1500  212.6190  152.3410 C   0  0  0  0  0  0  0  0  0  0  0  0
  162.1350  206.0050  153.2400 C   0  0  0  0  0  2  0  0  0  0  0  0
  161.7630  208.3780  151.6540 C   0  0  0  0  0  0  0  0  0  0  0  0
  160.9090  206.8760  153.5210 C   0  0  0  0  0  2  0  0  0  0  0  0
  159.8860  214.1120  150.5420 C   0  0  0  0  0  3  0  0  0  0  0  0
  159.9460  212.8760  151.2070 C   0  0  0  0  0  0  0  0  0  0  0  0
  160.1070  209.2150  153.2210 C   0  0  0  0  0  3  0  0  0  0  0  0
  159.2360  211.4160  152.9670 N   0  0  0  0  0  0  0  0  0  0  0  0
  161.5520  204.1570  150.2880 C   0  0  0  0  0  3  0  0  0  0  0  0
  161.3310  205.2680  150.9880 C   0  0  0  0  0  3  0  0  0  0  0  0
  160.4440  203.5000  149.5340 C   0  0  0  0  0  3  0  0  0  0  0  0
  160.8120  203.3630  148.1350 N   0  0  0  0  0  1  0  0  0  0  0  0
  160.1930  202.1860  150.0950 N   0  0  0  0  0  1  0  0  0  0  0  0
  158.2360  213.6590  152.9110 C   0  0  0  0  0  2  0  0  0  0  0  0
  156.3880  213.5290  154.6100 C   0  0  1  0  0  3  0  0  0  0  0  0
  158.5810  214.2810  155.2920 C   0  0  1  0  0  3  0  0  0  0  0  0
  157.6550  214.4530  156.4750 C   0  0  0  0  0  2  0  0  0  0  0  0
  156.2490  214.2560  155.9400 C   0  0  0  0  0  2  0  0  0  0  0  0
  159.7900  213.7290  155.7130 O   0  0  0  0  0  1  0  0  0  0  0  0
  157.8750  213.3300  154.3530 C   0  0  2  0  0  3  0  0  0  0  0  0
  155.6150  212.2100  154.5940 C   0  0  0  0  0  2  0  0  0  0  0  0
  156.3870  211.0680  155.2390 C   0  0  0  0  0  1  0  0  0  0  0  0
  1 20  1  6  0  0  0
  1 12  1  0  0  0  0
  2 18  1  0  0  0  0
  2 17  1  0  0  0  0
  3  4  2  0  0  0  0
  3  8  1  0  0  0  0
  4 15  1  0  0  0  0
  5 17  2  0  0  0  0
  5 14  1  0  0  0  0
  6  9  1  0  0  0  0
  6 13  2  0  0  0  0
  7 13  1  0  0  0  0
  7  1  1  0  0  0  0
  8 10  2  0  0  0  0
  9  2  2  0  0  0  0
 10 16  1  0  0  0  0
 10  9  1  0  0  0  0
 11 24  1  0  0  0  0
 11 18  2  0  0  0  0
 12 14  1  0  0  0  0
 13  5  1  0  0  0  0
 15 16  2  0  0  0  0
 16 11  1  0  0  0  0
 19 20  2  0  0  0  0
 21 23  1  0  0  0  0
 21 19  1  0  0  0  0
 22 21  1  0  0  0  0
 25 31  1  1  0  0  0
 25 28  1  0  0  0  0
 26 29  1  1  0  0  0
 26 27  1  0  0  0  0
 28 27  1  0  0  0  0
 30 24  1  6  0  0  0
 30 25  1  0  0  0  0
 30 26  1  0  0  0  0
 31 32  1  0  0  0  0
M  END
>  <MODEL>
4

>  <REMARK>
 VINA RESULT:      -6.0      3.947      9.413
  Name = 
  5 active torsions:
  status: ('A' for Active; 'I' for Inactive)
    1  A    between atoms: C_1  and  C_10
    2  A    between atoms: C_2  and  C_24
    3  A    between atoms: C_6  and  C_7
    4  A    between atoms: C_16  and  C_27
    5  A    between atoms: C_27  and  C_32
                            x       y       z     vdW  Elec       q    Type
                         _______ _______ _______ _____ _____    ______ ____

>  <TORSDO>
F 5

$$$$
=
 OpenBabel11062410453D

 32 36  0  0  1  0  0  0  0  0999 V2000
  160.0550  214.1860  149.5670 C   0  0  1  0  0  3  0  0  0  0  0  0
  161.7850  209.5510  150.9820 C   0  0  0  0  0  0  0  0  0  0  0  0
  159.8580  208.6980  155.3620 C   0  0  0  0  0  3  0  0  0  0  0  0
  160.4330  207.4260  155.3540 C   0  0  0  0  0  3  0  0  0  0  0  0
  161.4590  211.6660  149.8390 C   0  0  0  0  0  0  0  0  0  0  0  0
  160.4510  211.2960  152.0180 C   0  0  0  0  0  3  0  0  0  0  0  0
  160.1030  213.5170  150.9440 C   0  0  0  0  0  2  0  0  0  0  0  0
  160.0420  209.5560  154.2770 C   0  0  0  0  0  3  0  0  0  0  0  0
  161.0040  210.0060  152.0670 C   0  0  0  0  0  0  0  0  0  0  0  0
  160.8060  209.1530  153.1680 C   0  0  0  0  0  0  0  0  0  0  0  0
  162.1550  207.4570  152.0510 C   0  0  0  0  0  0  0  0  0  0  0  0
  161.3730  213.9720  148.8240 C   0  0  0  0  0  2  0  0  0  0  0  0
  160.6590  212.1210  150.9100 C   0  0  0  0  0  0  0  0  0  0  0  0
  161.6520  212.4850  148.5960 C   0  0  0  0  0  2  0  0  0  0  0  0
  161.1950  207.0100  154.2610 C   0  0  0  0  0  3  0  0  0  0  0  0
  161.3890  207.8630  153.1620 C   0  0  0  0  0  0  0  0  0  0  0  0
  162.0020  210.3790  149.8780 C   0  0  0  0  0  3  0  0  0  0  0  0
  162.3310  208.3080  151.0060 N   0  0  0  0  0  0  0  0  0  0  0  0
  158.6170  214.2410  147.5660 C   0  0  0  0  0  3  0  0  0  0  0  0
  158.8860  213.7090  148.7570 C   0  0  0  0  0  3  0  0  0  0  0  0
  157.4500  213.7660  146.7670 C   0  0  0  0  0  3  0  0  0  0  0  0
  157.6640  214.0540  145.3590 N   0  0  0  0  0  1  0  0  0  0  0  0
  157.2930  212.3350  146.9460 N   0  0  0  0  0  1  0  0  0  0  0  0
  162.8260  206.1190  152.0060 C   0  0  0  0  0  2  0  0  0  0  0  0
  161.3750  206.0620  149.9540 C   0  0  1  0  0  3  0  0  0  0  0  0
  161.2390  204.2590  151.5580 C   0  0  1  0  0  3  0  0  0  0  0  0
  160.1580  204.0300  150.5270 C   0  0  0  0  0  2  0  0  0  0  0  0
  160.0740  205.3090  149.7150 C   0  0  0  0  0  2  0  0  0  0  0  0
  161.8910  203.0580  151.8370 O   0  0  0  0  0  1  0  0  0  0  0  0
  162.2040  205.2390  150.9300 C   0  0  2  0  0  3  0  0  0  0  0  0
  162.1230  206.3420  148.6500 C   0  0  0  0  0  2  0  0  0  0  0  0
  161.1930  206.7330  147.5110 C   0  0  0  0  0  1  0  0  0  0  0  0
  1 20  1  6  0  0  0
  1  7  1  0  0  0  0
  2 18  2  0  0  0  0
  2  9  1  0  0  0  0
  4  3  1  0  0  0  0
  5 17  2  0  0  0  0
  5 13  1  0  0  0  0
  6  9  1  0  0  0  0
  8  3  2  0  0  0  0
  9 10  2  0  0  0  0
 10  8  1  0  0  0  0
 11 16  2  0  0  0  0
 12  1  1  0  0  0  0
 13  7  1  0  0  0  0
 13  6  2  0  0  0  0
 14 12  1  0  0  0  0
 14  5  1  0  0  0  0
 15  4  2  0  0  0  0
 16 10  1  0  0  0  0
 16 15  1  0  0  0  0
 17  2  1  0  0  0  0
 18 11  1  0  0  0  0
 19 20  2  0  0  0  0
 21 23  1  0  0  0  0
 21 19  1  0  0  0  0
 22 21  1  0  0  0  0
 24 11  1  0  0  0  0
 25 31  1  6  0  0  0
 25 30  1  0  0  0  0
 26 29  1  6  0  0  0
 27 26  1  0  0  0  0
 28 25  1  0  0  0  0
 28 27  1  0  0  0  0
 30 26  1  0  0  0  0
 30 24  1  1  0  0  0
 32 31  1  0  0  0  0
M  END
>  <MODEL>
5

>  <REMARK>
 VINA RESULT:      -6.0      2.203      3.221
  Name = 
  5 active torsions:
  status: ('A' for Active; 'I' for Inactive)
    1  A    between atoms: C_1  and  C_10
    2  A    between atoms: C_2  and  C_24
    3  A    between atoms: C_6  and  C_7
    4  A    between atoms: C_16  and  C_27
    5  A    between atoms: C_27  and  C_32
                            x       y       z     vdW  Elec       q    Type
                         _______ _______ _______ _____ _____    ______ ____

>  <TORSDO>
F 5

$$$$
=
 OpenBabel11062410453D

 32 36  0  0  1  0  0  0  0  0999 V2000
  161.3800  214.2940  145.6480 C   0  0  1  0  0  3  0  0  0  0  0  0
  161.8940  211.2730  149.7820 C   0  0  0  0  0  0  0  0  0  0  0  0
  158.4120  212.6620  152.8770 C   0  0  0  0  0  3  0  0  0  0  0  0
  158.7910  211.6340  153.7440 C   0  0  0  0  0  3  0  0  0  0  0  0
  162.2690  212.4350  147.6850 C   0  0  0  0  0  0  0  0  0  0  0  0
  160.4980  213.1670  149.1790 C   0  0  0  0  0  3  0  0  0  0  0  0
  160.8400  214.4530  147.0720 C   0  0  0  0  0  2  0  0  0  0  0  0
  159.0830  212.8380  151.6660 C   0  0  0  0  0  3  0  0  0  0  0  0
  160.8330  212.1530  150.0900 C   0  0  0  0  0  0  0  0  0  0  0  0
  160.1440  211.9880  151.3060 C   0  0  0  0  0  0  0  0  0  0  0  0
  161.5880  210.0950  151.8270 C   0  0  0  0  0  0  0  0  0  0  0  0
  162.8410  213.8480  145.6780 C   0  0  0  0  0  2  0  0  0  0  0  0
  161.1960  213.3060  147.9760 C   0  0  0  0  0  0  0  0  0  0  0  0
  163.0010  212.4970  146.3760 C   0  0  0  0  0  2  0  0  0  0  0  0
  159.8410  210.7820  153.4020 C   0  0  0  0  0  3  0  0  0  0  0  0
  160.5270  210.9470  152.1870 C   0  0  0  0  0  0  0  0  0  0  0  0
  162.5980  211.4170  148.5840 C   0  0  0  0  0  3  0  0  0  0  0  0
  162.2370  210.2860  150.6480 N   0  0  0  0  0  0  0  0  0  0  0  0
  160.7600  213.1930  143.5310 C   0  0  0  0  0  3  0  0  0  0  0  0
  160.5390  213.3560  144.8350 C   0  0  0  0  0  3  0  0  0  0  0  0
  159.9160  212.2620  142.7260 C   0  0  0  0  0  3  0  0  0  0  0  0
  159.0030  213.0210  141.8880 N   0  0  0  0  0  1  0  0  0  0  0  0
  160.7700  211.4420  141.8870 N   0  0  0  0  0  1  0  0  0  0  0  0
  162.0610  209.0020  152.7350 C   0  0  0  0  0  2  0  0  0  0  0  0
  161.2330  206.9820  153.9800 C   0  0  1  0  0  3  0  0  0  0  0  0
  161.3970  206.9090  151.5700 C   0  0  1  0  0  3  0  0  0  0  0  0
  161.0230  205.5220  152.0400 C   0  0  0  0  0  2  0  0  0  0  0  0
  161.2130  205.5230  153.5450 C   0  0  0  0  0  2  0  0  0  0  0  0
  160.6280  207.2580  150.4600 O   0  0  0  0  0  1  0  0  0  0  0  0
  161.0860  207.8320  152.7260 C   0  0  2  0  0  3  0  0  0  0  0  0
  160.1510  207.2850  155.0160 C   0  0  0  0  0  2  0  0  0  0  0  0
  160.6400  208.2060  156.1250 C   0  0  0  0  0  1  0  0  0  0  0  0
  1 20  1  6  0  0  0
  1 12  1  0  0  0  0
  1  7  1  0  0  0  0
  2  9  1  0  0  0  0
  2 18  1  0  0  0  0
  3  4  1  0  0  0  0
  5 13  2  0  0  0  0
  5 17  1  0  0  0  0
  6  9  2  0  0  0  0
  7 13  1  0  0  0  0
  8  3  2  0  0  0  0
  9 10  1  0  0  0  0
 10  8  1  0  0  0  0
 10 16  2  0  0  0  0
 11 16  1  0  0  0  0
 11 24  1  0  0  0  0
 12 14  1  0  0  0  0
 13  6  1  0  0  0  0
 14  5  1  0  0  0  0
 15  4  2  0  0  0  0
 16 15  1  0  0  0  0
 17  2  2  0  0  0  0
 18 11  2  0  0  0  0
 19 20  2  0  0  0  0
 21 19  1  0  0  0  0
 22 21  1  0  0  0  0
 23 21  1  0  0  0  0
 25 31  1  1  0  0  0
 26 29  1  6  0  0  0
 26 27  1  0  0  0  0
 26 30  1  0  0  0  0
 27 28  1  0  0  0  0
 28 25  1  0  0  0  0
 30 24  1  1  0  0  0
 30 25  1  0  0  0  0
 31 32  1  0  0  0  0
M  END
>  <MODEL>
6

>  <REMARK>
 VINA RESULT:      -5.7      3.480      5.504
  Name = 
  5 active torsions:
  status: ('A' for Active; 'I' for Inactive)
    1  A    between atoms: C_1  and  C_10
    2  A    between atoms: C_2  and  C_24
    3  A    between atoms: C_6  and  C_7
    4  A    between atoms: C_16  and  C_27
    5  A    between atoms: C_27  and  C_32
                            x       y       z     vdW  Elec       q    Type
                         _______ _______ _______ _____ _____    ______ ____

>  <TORSDO>
F 5

$$$$
=
 OpenBabel11062410453D

 32 36  0  0  1  0  0  0  0  0999 V2000
  161.7720  213.8520  147.1460 C   0  0  1  0  0  3  0  0  0  0  0  0
  160.4600  211.5680  151.5660 C   0  0  0  0  0  0  0  0  0  0  0  0
  157.1220  214.4520  153.6070 C   0  0  0  0  0  3  0  0  0  0  0  0
  156.9650  213.5220  154.6370 C   0  0  0  0  0  3  0  0  0  0  0  0
  161.5890  212.1870  149.5100 C   0  0  0  0  0  0  0  0  0  0  0  0
  159.9150  213.6640  150.4680 C   0  0  0  0  0  3  0  0  0  0  0  0
  161.0570  214.4080  148.3810 C   0  0  0  0  0  2  0  0  0  0  0  0
  158.0280  214.2080  152.5750 C   0  0  0  0  0  3  0  0  0  0  0  0
  159.7140  212.7670  151.5280 C   0  0  0  0  0  0  0  0  0  0  0  0
  158.7930  213.0280  152.5590 C   0  0  0  0  0  0  0  0  0  0  0  0
  159.3990  210.9040  153.5900 C   0  0  0  0  0  0  0  0  0  0  0  0
  162.9680  212.9970  147.5620 C   0  0  0  0  0  2  0  0  0  0  0  0
  160.8330  213.3780  149.4530 C   0  0  0  0  0  0  0  0  0  0  0  0
  162.5330  211.8000  148.4090 C   0  0  0  0  0  2  0  0  0  0  0  0
  157.7170  212.3460  154.6360 C   0  0  0  0  0  3  0  0  0  0  0  0
  158.6340  212.0870  153.6050 C   0  0  0  0  0  0  0  0  0  0  0  0
  161.3840  211.2860  150.5580 C   0  0  0  0  0  3  0  0  0  0  0  0
  160.2840  210.6860  152.5820 N   0  0  0  0  0  0  0  0  0  0  0  0
  160.5670  213.5130  145.0220 C   0  0  0  0  0  3  0  0  0  0  0  0
  160.8350  213.0900  146.2570 C   0  0  0  0  0  3  0  0  0  0  0  0
  159.6300  212.7530  144.1440 C   0  0  0  0  0  3  0  0  0  0  0  0
  158.7040  213.6680  143.4990 N   0  0  0  0  0  1  0  0  0  0  0  0
  160.3890  212.0430  143.1310 N   0  0  0  0  0  1  0  0  0  0  0  0
  159.3000  209.8910  154.6880 C   0  0  0  0  0  2  0  0  0  0  0  0
  160.4810  207.8110  155.4600 C   0  0  1  0  0  3  0  0  0  0  0  0
  161.3940  209.9760  156.0240 C   0  0  1  0  0  3  0  0  0  0  0  0
  162.2210  208.9350  156.7430 C   0  0  0  0  0  2  0  0  0  0  0  0
  161.4600  207.6290  156.6120 C   0  0  0  0  0  2  0  0  0  0  0  0
  162.2300  210.9370  155.4560 O   0  0  0  0  0  1  0  0  0  0  0  0
  160.6490  209.2320  154.9390 C   0  0  2  0  0  3  0  0  0  0  0  0
  160.6860  206.7640  154.3640 C   0  0  0  0  0  2  0  0  0  0  0  0
  161.3190  207.3440  153.1070 C   0  0  0  0  0  1  0  0  0  0  0  0
  1 20  1  1  0  0  0
  1 12  1  0  0  0  0
  1  7  1  0  0  0  0
  2 18  1  0  0  0  0
  3  4  1  0  0  0  0
  5 17  1  0  0  0  0
  6  9  2  0  0  0  0
  7 13  1  0  0  0  0
  8  3  2  0  0  0  0
  9  2  1  0  0  0  0
  9 10  1  0  0  0  0
 10  8  1  0  0  0  0
 10 16  2  0  0  0  0
 11 16  1  0  0  0  0
 11 24  1  0  0  0  0
 12 14  1  0  0  0  0
 13  5  2  0  0  0  0
 13  6  1  0  0  0  0
 14  5  1  0  0  0  0
 15  4  2  0  0  0  0
 16 15  1  0  0  0  0
 17  2  2  0  0  0  0
 18 11  2  0  0  0  0
 19 20  2  0  0  0  0
 21 19  1  0  0  0  0
 22 21  1  0  0  0  0
 23 21  1  0  0  0  0
 25 31  1  6  0  0  0
 25 28  1  0  0  0  0
 26 29  1  6  0  0  0
 26 27  1  0  0  0  0
 28 27  1  0  0  0  0
 30 24  1  1  0  0  0
 30 25  1  0  0  0  0
 30 26  1  0  0  0  0
 32 31  1  0  0  0  0
M  END
>  <MODEL>
7

>  <REMARK>
 VINA RESULT:      -5.5      4.477      6.800
  Name = 
  5 active torsions:
  status: ('A' for Active; 'I' for Inactive)
    1  A    between atoms: C_1  and  C_10
    2  A    between atoms: C_2  and  C_24
    3  A    between atoms: C_6  and  C_7
    4  A    between atoms: C_16  and  C_27
    5  A    between atoms: C_27  and  C_32
                            x       y       z     vdW  Elec       q    Type
                         _______ _______ _______ _____ _____    ______ ____

>  <TORSDO>
F 5

$$$$
=
 OpenBabel11062410453D

 32 36  0  0  1  0  0  0  0  0999 V2000
  161.6860  209.9030  152.6080 C   0  0  1  0  0  3  0  0  0  0  0  0
  161.1960  205.9870  149.3060 C   0  0  0  0  0  0  0  0  0  0  0  0
  161.0490  201.9660  152.0340 C   0  0  0  0  0  3  0  0  0  0  0  0
  160.8330  201.2070  150.8820 C   0  0  0  0  0  3  0  0  0  0  0  0
  161.5730  208.1740  150.2850 C   0  0  0  0  0  0  0  0  0  0  0  0
  161.4900  206.2060  151.7070 C   0  0  0  0  0  3  0  0  0  0  0  0
  161.9320  208.4030  152.7970 C   0  0  0  0  0  2  0  0  0  0  0  0
  161.1940  203.3510  151.9430 C   0  0  0  0  0  3  0  0  0  0  0  0
  161.2700  205.3910  150.5850 C   0  0  0  0  0  0  0  0  0  0  0  0
  161.1240  203.9960  150.6950 C   0  0  0  0  0  0  0  0  0  0  0  0
  160.8340  203.8710  148.2790 C   0  0  0  0  0  0  0  0  0  0  0  0
  162.2800  210.3780  151.2830 C   0  0  0  0  0  2  0  0  0  0  0  0
  161.6270  207.5900  151.5700 C   0  0  0  0  0  0  0  0  0  0  0  0
  161.6410  209.6610  150.0930 C   0  0  0  0  0  2  0  0  0  0  0  0
  160.7610  201.8320  149.6360 C   0  0  0  0  0  3  0  0  0  0  0  0
  160.9050  203.2250  149.5280 C   0  0  0  0  0  0  0  0  0  0  0  0
  161.3430  207.3680  149.1670 C   0  0  0  0  0  3  0  0  0  0  0  0
  160.9850  205.2190  148.2070 N   0  0  0  0  0  0  0  0  0  0  0  0
  159.8360  211.4820  153.0100 C   0  0  0  0  0  3  0  0  0  0  0  0
  160.2290  210.2450  152.7090 C   0  0  0  0  0  3  0  0  0  0  0  0
  158.3860  211.8150  153.1140 C   0  0  0  0  0  3  0  0  0  0  0  0
  158.0350  212.0730  154.5000 N   0  0  0  0  0  1  0  0  0  0  0  0
  158.1050  212.9970  152.3190 N   0  0  0  0  0  1  0  0  0  0  0  0
  160.6410  203.1030  147.0070 C   0  0  0  0  0  2  0  0  0  0  0  0
  162.3180  204.8500  146.3350 C   0  0  1  0  0  3  0  0  0  0  0  0
  160.3090  204.5630  145.0230 C   0  0  1  0  0  3  0  0  0  0  0  0
  161.0380  205.7690  144.4760 C   0  0  0  0  0  2  0  0  0  0  0  0
  162.1220  206.0980  145.4860 C   0  0  0  0  0  2  0  0  0  0  0  0
  159.8530  203.7670  143.9730 O   0  0  0  0  0  1  0  0  0  0  0  0
  161.3280  203.8040  145.8430 C   0  0  2  0  0  3  0  0  0  0  0  0
  163.7620  204.3480  146.2910 C   0  0  0  0  0  2  0  0  0  0  0  0
  164.2040  203.9530  144.8890 C   0  0  0  0  0  1  0  0  0  0  0  0
  1 20  1  6  0  0  0
  1  7  1  0  0  0  0
  2  9  1  0  0  0  0
  4  3  2  0  0  0  0
  5 13  2  0  0  0  0
  8  3  1  0  0  0  0
  9 10  1  0  0  0  0
  9  6  2  0  0  0  0
 10  8  2  0  0  0  0
 11 16  1  0  0  0  0
 12  1  1  0  0  0  0
 13  6  1  0  0  0  0
 13  7  1  0  0  0  0
 14  5  1  0  0  0  0
 14 12  1  0  0  0  0
 15  4  1  0  0  0  0
 16 15  2  0  0  0  0
 16 10  1  0  0  0  0
 17  2  2  0  0  0  0
 17  5  1  0  0  0  0
 18 11  2  0  0  0  0
 18  2  1  0  0  0  0
 19 21  1  0  0  0  0
 20 19  2  0  0  0  0
 21 22  1  0  0  0  0
 23 21  1  0  0  0  0
 24 11  1  0  0  0  0
 25 31  1  6  0  0  0
 26 29  1  6  0  0  0
 26 30  1  0  0  0  0
 27 26  1  0  0  0  0
 27 28  1  0  0  0  0
 28 25  1  0  0  0  0
 30 25  1  0  0  0  0
 30 24  1  1  0  0  0
 32 31  1  0  0  0  0
M  END
>  <MODEL>
8

>  <REMARK>
 VINA RESULT:      -4.8      2.575      4.227
  Name = 
  5 active torsions:
  status: ('A' for Active; 'I' for Inactive)
    1  A    between atoms: C_1  and  C_10
    2  A    between atoms: C_2  and  C_24
    3  A    between atoms: C_6  and  C_7
    4  A    between atoms: C_16  and  C_27
    5  A    between atoms: C_27  and  C_32
                            x       y       z     vdW  Elec       q    Type
                         _______ _______ _______ _____ _____    ______ ____

>  <TORSDO>
F 5

$$$$
=
 OpenBabel11062410453D

 32 36  0  0  1  0  0  0  0  0999 V2000
  161.3730  213.6170  141.7550 C   0  0  1  0  0  3  0  0  0  0  0  0
  161.1350  213.3300  146.8870 C   0  0  0  0  0  0  0  0  0  0  0  0
  156.4700  214.0620  148.0390 C   0  0  0  0  0  3  0  0  0  0  0  0
  156.7780  213.8300  149.3820 C   0  0  0  0  0  3  0  0  0  0  0  0
  161.9210  213.4960  144.5980 C   0  0  0  0  0  0  0  0  0  0  0  0
  159.5720  213.8540  145.1040 C   0  0  0  0  0  3  0  0  0  0  0  0
  160.2940  214.0940  142.7320 C   0  0  0  0  0  2  0  0  0  0  0  0
  157.4720  213.9960  147.0700 C   0  0  0  0  0  3  0  0  0  0  0  0
  159.8200  213.6290  146.4680 C   0  0  0  0  0  0  0  0  0  0  0  0
  158.7970  213.6970  147.4310 C   0  0  0  0  0  0  0  0  0  0  0  0
  160.4350  213.1620  149.1550 C   0  0  0  0  0  0  0  0  0  0  0  0
  162.7620  213.9870  142.2740 C   0  0  0  0  0  2  0  0  0  0  0  0
  160.6050  213.7750  144.1670 C   0  0  0  0  0  0  0  0  0  0  0  0
  163.0500  213.3290  143.6230 C   0  0  0  0  0  2  0  0  0  0  0  0
  158.0880  213.5320  149.7570 C   0  0  0  0  0  3  0  0  0  0  0  0
  159.1080  213.4620  148.7930 C   0  0  0  0  0  0  0  0  0  0  0  0
  162.1700  213.2610  145.9530 C   0  0  0  0  0  3  0  0  0  0  0  0
  161.4000  213.1100  148.2000 N   0  0  0  0  0  0  0  0  0  0  0  0
  161.0640  211.6950  140.2430 C   0  0  0  0  0  3  0  0  0  0  0  0
  161.2650  212.1470  141.4810 C   0  0  0  0  0  3  0  0  0  0  0  0
  160.9530  210.2310  139.9770 C   0  0  0  0  0  3  0  0  0  0  0  0
  160.5600  210.0080  138.5960 N   0  0  0  0  0  1  0  0  0  0  0  0
  162.2350  209.5970  140.2210 N   0  0  0  0  0  1  0  0  0  0  0  0
  160.8280  212.9410  150.5840 C   0  0  0  0  0  2  0  0  0  0  0  0
  160.4360  211.3100  152.4550 C   0  0  1  0  0  3  0  0  0  0  0  0
  161.9830  210.7430  150.6870 C   0  0  1  0  0  3  0  0  0  0  0  0
  162.0710  209.6530  151.7310 C   0  0  0  0  0  2  0  0  0  0  0  0
  161.3230  210.1740  152.9450 C   0  0  0  0  0  2  0  0  0  0  0  0
  161.9510  210.1780  149.4120 O   0  0  0  0  0  1  0  0  0  0  0  0
  160.6890  211.4730  150.9620 C   0  0  2  0  0  3  0  0  0  0  0  0
  158.9610  211.0610  152.7700 C   0  0  0  0  0  2  0  0  0  0  0  0
  158.2540  212.3020  153.2950 C   0  0  0  0  0  1  0  0  0  0  0  0
  1 20  1  1  0  0  0
  1 12  1  0  0  0  0
  1  7  1  0  0  0  0
  2 18  1  0  0  0  0
  3  4  1  0  0  0  0
  4 15  2  0  0  0  0
  5 17  1  0  0  0  0
  6  9  2  0  0  0  0
  7 13  1  0  0  0  0
  8 10  1  0  0  0  0
  8  3  2  0  0  0  0
  9  2  1  0  0  0  0
  9 10  1  0  0  0  0
 10 16  2  0  0  0  0
 11 24  1  0  0  0  0
 12 14  1  0  0  0  0
 13  5  2  0  0  0  0
 13  6  1  0  0  0  0
 14  5  1  0  0  0  0
 16 11  1  0  0  0  0
 16 15  1  0  0  0  0
 17  2  2  0  0  0  0
 18 11  2  0  0  0  0
 19 20  2  0  0  0  0
 21 23  1  0  0  0  0
 21 19  1  0  0  0  0
 22 21  1  0  0  0  0
 25 31  1  6  0  0  0
 25 28  1  0  0  0  0
 26 29  1  6  0  0  0
 26 30  1  0  0  0  0
 26 27  1  0  0  0  0
 27 28  1  0  0  0  0
 30 24  1  1  0  0  0
 30 25  1  0  0  0  0
 31 32  1  0  0  0  0
M  END
>  <MODEL>
9

>  <REMARK>
 VINA RESULT:      -4.8      4.419      8.106
  Name = 
  5 active torsions:
  status: ('A' for Active; 'I' for Inactive)
    1  A    between atoms: C_1  and  C_10
    2  A    between atoms: C_2  and  C_24
    3  A    between atoms: C_6  and  C_7
    4  A    between atoms: C_16  and  C_27
    5  A    between atoms: C_27  and  C_32
                            x       y       z     vdW  Elec       q    Type
                         _______ _______ _______ _____ _____    ______ ____

>  <TORSDO>
F 5

$$$$
