=
 OpenBabel11052422543D

 28 32  0  0  1  0  0  0  0  0999 V2000
  161.7770  209.7550  150.9450 C   0  0  0  0  0  0  0  0  0  0  0  0
  161.4160  205.4900  148.3710 C   0  0  0  0  0  2  0  0  0  0  0  0
  160.8720  206.4950  154.5590 C   0  0  0  0  0  1  0  0  0  0  0  0
  160.6880  203.9400  150.1510 C   0  0  1  0  0  3  0  0  0  0  0  0
  161.6060  206.1720  150.7970 C   0  0  0  0  0  0  0  0  0  0  0  0
  161.1360  203.0040  147.8930 C   0  0  0  0  0  0  0  0  0  0  0  0
  161.6960  205.0430  149.8030 C   0  0  2  0  0  3  0  0  0  0  0  0
  160.7880  204.5300  152.5180 N   0  0  0  0  0  0  0  0  0  0  0  0
  160.7470  202.8160  149.1590 C   0  0  0  0  0  3  0  0  0  0  0  0
  161.8230  208.1770  152.8450 C   0  0  2  0  0  3  0  0  0  0  0  0
  161.8790  207.3920  150.4360 N   0  0  0  0  0  0  0  0  0  0  0  0
  160.9290  203.4320  151.5660 C   0  0  0  0  0  2  0  0  0  0  0  0
  161.2450  210.5490  153.1860 C   0  0  0  0  0  3  0  0  0  0  0  0
  161.2460  206.8170  153.1480 C   0  0  1  0  0  3  0  0  0  0  0  0
  161.1830  209.2130  153.5980 O   0  0  0  0  0  0  0  0  0  0  0  0
  161.1160  201.9280  147.0170 O   0  0  0  0  0  1  0  0  0  0  0  0
  161.6680  204.3310  147.4030 C   0  0  0  0  0  2  0  0  0  0  0  0
  161.2240  205.8600  152.2030 C   0  0  0  0  0  0  0  0  0  0  0  0
  161.5510  210.8410  151.9200 C   0  0  0  0  0  3  0  0  0  0  0  0
  161.8140  208.4790  151.3650 C   0  0  0  0  0  0  0  0  0  0  0  0
  161.8310  210.1000  149.4840 C   0  0  0  0  0  2  0  0  0  0  0  0
  161.9790  211.6040  149.2380 C   0  0  2  0  0  3  0  0  0  0  0  0
  161.3700  212.9650  147.4850 C   0  0  1  0  0  3  0  0  0  0  0  0
  160.8280  212.2920  149.6620 O   0  0  0  0  0  0  0  0  0  0  0  0
  163.6100  212.3800  147.7470 C   0  0  0  0  0  1  0  0  0  0  0  0
  162.2490  211.8730  147.8290 N   0  0  0  0  0  0  0  0  0  0  0  0
  160.3530  212.4900  146.4640 C   0  0  0  0  0  1  0  0  0  0  0  0
  160.6630  213.3440  148.7570 C   0  0  0  0  0  2  0  0  0  0  0  0
  1 20  2  0  0  0  0
  1 19  1  0  0  0  0
  4  9  1  6  0  0  0
  4 12  1  0  0  0  0
  5 18  1  0  0  0  0
  6  9  2  0  0  0  0
  7  2  1  6  0  0  0
  7  4  1  0  0  0  0
  7  5  1  0  0  0  0
 10 20  1  6  0  0  0
 10 14  1  0  0  0  0
 10 15  1  0  0  0  0
 11  5  2  0  0  0  0
 11 20  1  0  0  0  0
 12  8  1  0  0  0  0
 13 15  1  0  0  0  0
 14  3  1  1  0  0  0
 16  6  1  0  0  0  0
 17  6  1  0  0  0  0
 17  2  1  0  0  0  0
 18  8  2  0  0  0  0
 18 14  1  0  0  0  0
 19 13  2  0  0  0  0
 21  1  1  0  0  0  0
 22 21  1  6  0  0  0
 22 24  1  0  0  0  0
 23 27  1  6  0  0  0
 23 26  1  0  0  0  0
 23 28  1  0  0  0  0
 25 26  1  0  0  0  0
 26 22  1  0  0  0  0
 28 24  1  0  0  0  0
M  END
>  <MODEL>
1

>  <REMARK>
 VINA RESULT:      -9.0      0.000      0.000
  Name = 
  2 active torsions:
  status: ('A' for Active; 'I' for Inactive)
    1  A    between atoms: C_1  and  C_2
    2  A    between atoms: C_2  and  C_3
                            x       y       z     vdW  Elec       q    Type
                         _______ _______ _______ _____ _____    ______ ____

>  <TORSDO>
F 2

$$$$
=
 OpenBabel11052422543D

 28 32  0  0  1  0  0  0  0  0999 V2000
  161.8520  210.5070  149.7310 C   0  0  0  0  0  0  0  0  0  0  0  0
  161.7500  206.3160  147.0150 C   0  0  0  0  0  2  0  0  0  0  0  0
  160.8550  207.1110  153.1930 C   0  0  0  0  0  1  0  0  0  0  0  0
  160.9760  204.6920  148.7080 C   0  0  1  0  0  3  0  0  0  0  0  0
  161.7940  206.9260  149.4670 C   0  0  0  0  0  0  0  0  0  0  0  0
  161.5680  203.8390  146.4490 C   0  0  0  0  0  0  0  0  0  0  0  0
  161.9670  205.8320  148.4470 C   0  0  2  0  0  3  0  0  0  0  0  0
  160.9350  205.2090  151.0930 N   0  0  0  0  0  0  0  0  0  0  0  0
  161.1180  203.6010  147.6870 C   0  0  0  0  0  3  0  0  0  0  0  0
  161.8450  208.8720  151.5830 C   0  0  2  0  0  3  0  0  0  0  0  0
  162.0500  208.1640  149.1580 N   0  0  0  0  0  0  0  0  0  0  0  0
  161.1570  204.1460  150.1170 C   0  0  0  0  0  2  0  0  0  0  0  0
  161.1810  211.2150  151.9630 C   0  0  0  0  0  3  0  0  0  0  0  0
  161.2920  207.4880  151.8140 C   0  0  1  0  0  3  0  0  0  0  0  0
  161.1370  209.8650  152.3310 O   0  0  0  0  0  0  0  0  0  0  0  0
  161.6250  202.7910  145.5420 O   0  0  0  0  0  1  0  0  0  0  0  0
  162.0860  205.1940  146.0280 C   0  0  0  0  0  2  0  0  0  0  0  0
  161.3480  206.5600  150.8410 C   0  0  0  0  0  0  0  0  0  0  0  0
  161.5440  211.5550  150.7240 C   0  0  0  0  0  3  0  0  0  0  0  0
  161.9040  209.2200  150.1140 C   0  0  0  0  0  0  0  0  0  0  0  0
  161.9720  210.8980  148.2860 C   0  0  0  0  0  2  0  0  0  0  0  0
  161.3390  212.2600  147.9880 C   0  0  2  0  0  3  0  0  0  0  0  0
  161.5010  213.7000  146.2000 C   0  0  1  0  0  3  0  0  0  0  0  0
  160.1490  212.1040  147.2550 O   0  0  0  0  0  0  0  0  0  0  0  0
  162.6290  214.2050  148.1750 C   0  0  0  0  0  1  0  0  0  0  0  0
  162.2740  213.1210  147.2730 N   0  0  0  0  0  0  0  0  0  0  0  0
  162.0410  213.2100  144.8700 C   0  0  0  0  0  1  0  0  0  0  0  0
  160.0960  213.1980  146.3860 C   0  0  0  0  0  2  0  0  0  0  0  0
  1 20  2  0  0  0  0
  1 19  1  0  0  0  0
  4  9  1  6  0  0  0
  4 12  1  0  0  0  0
  5 18  1  0  0  0  0
  6  9  2  0  0  0  0
  7  2  1  6  0  0  0
  7  4  1  0  0  0  0
  7  5  1  0  0  0  0
 10 20  1  6  0  0  0
 10 14  1  0  0  0  0
 10 15  1  0  0  0  0
 11  5  2  0  0  0  0
 11 20  1  0  0  0  0
 12  8  1  0  0  0  0
 13 15  1  0  0  0  0
 14  3  1  1  0  0  0
 16  6  1  0  0  0  0
 17  6  1  0  0  0  0
 17  2  1  0  0  0  0
 18  8  2  0  0  0  0
 18 14  1  0  0  0  0
 19 13  2  0  0  0  0
 21  1  1  0  0  0  0
 22 21  1  6  0  0  0
 23 27  1  6  0  0  0
 23 28  1  0  0  0  0
 23 26  1  0  0  0  0
 24 22  1  0  0  0  0
 26 22  1  0  0  0  0
 26 25  1  0  0  0  0
 28 24  1  0  0  0  0
M  END
>  <MODEL>
2

>  <REMARK>
 VINA RESULT:      -8.8      1.325      1.688
  Name = 
  2 active torsions:
  status: ('A' for Active; 'I' for Inactive)
    1  A    between atoms: C_1  and  C_2
    2  A    between atoms: C_2  and  C_3
                            x       y       z     vdW  Elec       q    Type
                         _______ _______ _______ _____ _____    ______ ____

>  <TORSDO>
F 2

$$$$
=
 OpenBabel11052422543D

 28 32  0  0  1  0  0  0  0  0999 V2000
  161.3770  208.1150  152.9210 C   0  0  0  0  0  0  0  0  0  0  0  0
  160.9390  203.7110  150.6050 C   0  0  0  0  0  2  0  0  0  0  0  0
  162.3190  209.3700  148.2260 C   0  0  0  0  0  1  0  0  0  0  0  0
  161.6870  204.3130  148.3290 C   0  0  1  0  0  3  0  0  0  0  0  0
  161.1150  206.1400  149.9330 C   0  0  0  0  0  0  0  0  0  0  0  0
  160.8730  201.9980  148.7210 C   0  0  0  0  0  0  0  0  0  0  0  0
  160.7800  204.7400  149.4890 C   0  0  2  0  0  3  0  0  0  0  0  0
  161.9350  206.6310  147.6060 N   0  0  0  0  0  0  0  0  0  0  0  0
  161.3840  202.9120  147.8880 C   0  0  0  0  0  3  0  0  0  0  0  0
  161.3730  208.9270  150.5880 C   0  0  2  0  0  3  0  0  0  0  0  0
  160.9440  206.4990  151.1720 N   0  0  0  0  0  0  0  0  0  0  0  0
  161.5580  205.2900  147.1690 C   0  0  0  0  0  2  0  0  0  0  0  0
  162.2560  210.3290  152.4140 C   0  0  0  0  0  3  0  0  0  0  0  0
  161.8210  208.4000  149.2480 C   0  0  1  0  0  3  0  0  0  0  0  0
  162.2120  209.9880  151.0560 O   0  0  0  0  0  0  0  0  0  0  0  0
  160.6650  200.7060  148.2580 O   0  0  0  0  0  1  0  0  0  0  0  0
  160.4430  202.3430  150.1280 C   0  0  0  0  0  2  0  0  0  0  0  0
  161.6210  207.1100  148.9210 C   0  0  0  0  0  0  0  0  0  0  0  0
  161.8400  209.4550  153.3320 C   0  0  0  0  0  3  0  0  0  0  0  0
  161.2430  207.8280  151.6150 C   0  0  0  0  0  0  0  0  0  0  0  0
  161.1920  207.0620  153.9760 C   0  0  0  0  0  2  0  0  0  0  0  0
  160.3260  207.5430  155.1430 C   0  0  2  0  0  3  0  0  0  0  0  0
  160.7630  208.8840  156.9620 C   0  0  1  0  0  3  0  0  0  0  0  0
  159.7500  208.7930  154.8520 O   0  0  0  0  0  0  0  0  0  0  0  0
  160.5940  206.5800  157.2610 C   0  0  0  0  0  1  0  0  0  0  0  0
  161.1070  207.6120  156.3740 N   0  0  0  0  0  0  0  0  0  0  0  0
  161.9880  209.7800  156.9760 C   0  0  0  0  0  1  0  0  0  0  0  0
  159.7140  209.4830  156.0670 C   0  0  0  0  0  2  0  0  0  0  0  0
  1 19  1  0  0  0  0
  1 21  1  0  0  0  0
  4 12  1  6  0  0  0
  4  7  1  0  0  0  0
  5 11  2  0  0  0  0
  6 17  1  0  0  0  0
  7  5  1  0  0  0  0
  7  2  1  1  0  0  0
  8 18  2  0  0  0  0
  9  4  1  0  0  0  0
  9  6  2  0  0  0  0
 10 15  1  1  0  0  0
 10 20  1  0  0  0  0
 11 20  1  0  0  0  0
 12  8  1  0  0  0  0
 13 19  2  0  0  0  0
 14  3  1  6  0  0  0
 14 10  1  0  0  0  0
 15 13  1  0  0  0  0
 16  6  1  0  0  0  0
 17  2  1  0  0  0  0
 18 14  1  0  0  0  0
 18  5  1  0  0  0  0
 20  1  2  0  0  0  0
 22 21  1  6  0  0  0
 22 26  1  0  0  0  0
 23 27  1  6  0  0  0
 24 22  1  0  0  0  0
 24 28  1  0  0  0  0
 26 23  1  0  0  0  0
 26 25  1  0  0  0  0
 28 23  1  0  0  0  0
M  END
>  <MODEL>
3

>  <REMARK>
 VINA RESULT:      -8.8      2.220      5.493
  Name = 
  2 active torsions:
  status: ('A' for Active; 'I' for Inactive)
    1  A    between atoms: C_1  and  C_2
    2  A    between atoms: C_2  and  C_3
                            x       y       z     vdW  Elec       q    Type
                         _______ _______ _______ _____ _____    ______ ____

>  <TORSDO>
F 2

$$$$
=
 OpenBabel11052422543D

 28 32  0  0  1  0  0  0  0  0999 V2000
  160.5670  210.8620  152.6130 C   0  0  0  0  0  0  0  0  0  0  0  0
  161.0140  207.0740  149.3880 C   0  0  0  0  0  2  0  0  0  0  0  0
  160.7190  206.9740  155.6730 C   0  0  0  0  0  1  0  0  0  0  0  0
  160.8030  205.1450  150.9160 C   0  0  1  0  0  3  0  0  0  0  0  0
  161.2230  207.4080  151.8840 C   0  0  0  0  0  0  0  0  0  0  0  0
  161.2850  204.6950  148.5190 C   0  0  0  0  0  0  0  0  0  0  0  0
  161.4980  206.4970  150.7160 C   0  0  2  0  0  3  0  0  0  0  0  0
  160.9410  205.3770  153.3420 N   0  0  0  0  0  0  0  0  0  0  0  0
  161.0460  204.2310  149.7510 C   0  0  0  0  0  3  0  0  0  0  0  0
  161.1220  209.0740  154.2250 C   0  0  2  0  0  3  0  0  0  0  0  0
  161.1770  208.6980  151.7190 N   0  0  0  0  0  0  0  0  0  0  0  0
  161.2610  204.5020  152.2180 C   0  0  0  0  0  2  0  0  0  0  0  0
  160.0360  211.1570  154.9720 C   0  0  0  0  0  3  0  0  0  0  0  0
  160.9010  207.5850  154.3210 C   0  0  1  0  0  3  0  0  0  0  0  0
  160.3170  209.7990  155.1610 O   0  0  0  0  0  0  0  0  0  0  0  0
  161.4490  203.7910  147.4790 O   0  0  0  0  0  1  0  0  0  0  0  0
  161.4560  206.1700  148.2340 C   0  0  0  0  0  2  0  0  0  0  0  0
  161.0310  206.8050  153.2330 C   0  0  0  0  0  0  0  0  0  0  0  0
  160.1690  211.7010  153.7610 C   0  0  0  0  0  3  0  0  0  0  0  0
  160.9310  209.5840  152.8170 C   0  0  0  0  0  0  0  0  0  0  0  0
  160.4300  211.4260  151.2280 C   0  0  0  0  0  2  0  0  0  0  0  0
  159.7710  212.8070  151.2160 C   0  0  2  0  0  3  0  0  0  0  0  0
  158.3100  213.8270  149.7580 C   0  0  1  0  0  3  0  0  0  0  0  0
  158.5080  212.7610  151.8340 O   0  0  0  0  0  0  0  0  0  0  0  0
  160.5540  214.4530  149.7450 C   0  0  0  0  0  1  0  0  0  0  0  0
  159.6560  213.3150  149.8520 N   0  0  0  0  0  0  0  0  0  0  0  0
  157.5260  213.0000  148.7570 C   0  0  0  0  0  1  0  0  0  0  0  0
  157.7090  213.6620  151.1260 C   0  0  0  0  0  2  0  0  0  0  0  0
  1 20  2  0  0  0  0
  1 19  1  0  0  0  0
  4  9  1  6  0  0  0
  4 12  1  0  0  0  0
  5 18  1  0  0  0  0
  6  9  2  0  0  0  0
  7  2  1  6  0  0  0
  7  4  1  0  0  0  0
  7  5  1  0  0  0  0
 10 20  1  6  0  0  0
 10 14  1  0  0  0  0
 10 15  1  0  0  0  0
 11  5  2  0  0  0  0
 11 20  1  0  0  0  0
 12  8  1  0  0  0  0
 13 15  1  0  0  0  0
 14  3  1  1  0  0  0
 16  6  1  0  0  0  0
 17  6  1  0  0  0  0
 17  2  1  0  0  0  0
 18  8  2  0  0  0  0
 18 14  1  0  0  0  0
 19 13  2  0  0  0  0
 21  1  1  0  0  0  0
 22 21  1  6  0  0  0
 22 24  1  0  0  0  0
 23 27  1  6  0  0  0
 23 26  1  0  0  0  0
 23 28  1  0  0  0  0
 25 26  1  0  0  0  0
 26 22  1  0  0  0  0
 28 24  1  0  0  0  0
M  END
>  <MODEL>
4

>  <REMARK>
 VINA RESULT:      -8.3      2.024      2.436
  Name = 
  2 active torsions:
  status: ('A' for Active; 'I' for Inactive)
    1  A    between atoms: C_1  and  C_2
    2  A    between atoms: C_2  and  C_3
                            x       y       z     vdW  Elec       q    Type
                         _______ _______ _______ _____ _____    ______ ____

>  <TORSDO>
F 2

$$$$
=
 OpenBabel11052422543D

 28 32  0  0  1  0  0  0  0  0999 V2000
  161.0290  207.7390  152.2470 C   0  0  0  0  0  0  0  0  0  0  0  0
  161.0690  206.6070  147.3820 C   0  0  0  0  0  2  0  0  0  0  0  0
  161.1540  202.7920  152.3860 C   0  0  0  0  0  1  0  0  0  0  0  0
  160.8460  204.1500  147.4810 C   0  0  1  0  0  3  0  0  0  0  0  0
  161.4490  205.3900  149.5640 C   0  0  0  0  0  0  0  0  0  0  0  0
  161.1550  205.2100  145.2550 C   0  0  0  0  0  0  0  0  0  0  0  0
  161.6010  205.3500  148.0660 C   0  0  2  0  0  3  0  0  0  0  0  0
  161.1450  202.8930  149.5530 N   0  0  0  0  0  0  0  0  0  0  0  0
  160.9670  204.1050  145.9870 C   0  0  0  0  0  3  0  0  0  0  0  0
  161.5820  205.3390  152.4350 C   0  0  2  0  0  3  0  0  0  0  0  0
  161.4640  206.5260  150.1990 N   0  0  0  0  0  0  0  0  0  0  0  0
  161.3460  202.8550  148.1080 C   0  0  0  0  0  2  0  0  0  0  0  0
  160.6600  206.5780  154.3560 C   0  0  0  0  0  3  0  0  0  0  0  0
  161.2860  204.0860  151.6490 C   0  0  1  0  0  3  0  0  0  0  0  0
  160.8770  205.3720  153.6800 O   0  0  0  0  0  0  0  0  0  0  0  0
  161.2060  205.1000  143.8720 O   0  0  0  0  0  1  0  0  0  0  0  0
  161.3890  206.5630  145.8850 C   0  0  0  0  0  2  0  0  0  0  0  0
  161.3060  204.1050  150.3040 C   0  0  0  0  0  0  0  0  0  0  0  0
  160.7490  207.7350  153.6960 C   0  0  0  0  0  3  0  0  0  0  0  0
  161.3340  206.5880  151.6240 C   0  0  0  0  0  0  0  0  0  0  0  0
  160.8390  209.0170  151.4810 C   0  0  0  0  0  2  0  0  0  0  0  0
  161.2550  210.2530  152.2830 C   0  0  2  0  0  3  0  0  0  0  0  0
  160.3450  211.3030  154.1180 C   0  0  1  0  0  3  0  0  0  0  0  0
  162.0580  209.8880  153.3780 O   0  0  0  0  0  0  0  0  0  0  0  0
  160.0810  212.2610  152.0110 C   0  0  0  0  0  1  0  0  0  0  0  0
  160.0830  210.9980  152.7310 N   0  0  0  0  0  0  0  0  0  0  0  0
  159.3360  210.5800  154.9910 C   0  0  0  0  0  1  0  0  0  0  0  0
  161.7240  210.7760  154.4040 C   0  0  0  0  0  2  0  0  0  0  0  0
  1 19  1  0  0  0  0
  4  9  1  6  0  0  0
  4  7  1  0  0  0  0
  4 12  1  0  0  0  0
  5 11  2  0  0  0  0
  5 18  1  0  0  0  0
  6 17  1  0  0  0  0
  6  9  2  0  0  0  0
  7  2  1  6  0  0  0
  7  5  1  0  0  0  0
  8 18  2  0  0  0  0
 10 20  1  6  0  0  0
 10 15  1  0  0  0  0
 11 20  1  0  0  0  0
 12  8  1  0  0  0  0
 14  3  1  1  0  0  0
 14 10  1  0  0  0  0
 15 13  1  0  0  0  0
 16  6  1  0  0  0  0
 17  2  1  0  0  0  0
 18 14  1  0  0  0  0
 19 13  2  0  0  0  0
 20  1  2  0  0  0  0
 21  1  1  0  0  0  0
 22 21  1  1  0  0  0
 22 26  1  0  0  0  0
 22 24  1  0  0  0  0
 23 28  1  0  0  0  0
 23 27  1  1  0  0  0
 24 28  1  0  0  0  0
 25 26  1  0  0  0  0
 26 23  1  0  0  0  0
M  END
>  <MODEL>
5

>  <REMARK>
 VINA RESULT:      -8.1      2.731      4.026
  Name = 
  2 active torsions:
  status: ('A' for Active; 'I' for Inactive)
    1  A    between atoms: C_1  and  C_2
    2  A    between atoms: C_2  and  C_3
                            x       y       z     vdW  Elec       q    Type
                         _______ _______ _______ _____ _____    ______ ____

>  <TORSDO>
F 2

$$$$
=
 OpenBabel11052422543D

 28 32  0  0  1  0  0  0  0  0999 V2000
  160.9310  205.7380  148.9410 C   0  0  0  0  0  0  0  0  0  0  0  0
  160.3880  206.9560  153.7550 C   0  0  0  0  0  2  0  0  0  0  0  0
  162.3160  210.4910  148.9190 C   0  0  0  0  0  1  0  0  0  0  0  0
  160.8100  209.3880  153.6630 C   0  0  1  0  0  3  0  0  0  0  0  0
  161.4420  207.9800  151.6990 C   0  0  0  0  0  0  0  0  0  0  0  0
  160.4420  208.3450  155.8890 C   0  0  0  0  0  0  0  0  0  0  0  0
  161.3300  208.0220  153.2010 C   0  0  2  0  0  3  0  0  0  0  0  0
  161.7780  210.4730  151.7020 N   0  0  0  0  0  2  0  0  0  0  0  0
  160.6700  209.4410  155.1550 C   0  0  0  0  0  3  0  0  0  0  0  0
  162.0930  207.9180  148.9000 C   0  0  2  0  0  3  0  0  0  0  0  0
  161.2850  206.8590  151.0560 N   0  0  0  0  0  0  0  0  0  0  0  0
  161.7220  210.4980  153.1600 C   0  0  0  0  0  2  0  0  0  0  0  0
  161.2470  206.8970  146.8220 C   0  0  0  0  0  3  0  0  0  0  0  0
  161.9860  209.2260  149.6430 C   0  0  0  0  0  0  0  0  0  0  0  0
  161.6360  208.0290  147.5480 O   0  0  0  0  0  0  0  0  0  0  0  0
  160.2720  208.4770  157.2600 O   0  0  0  0  0  1  0  0  0  0  0  0
  160.4370  206.9600  155.2850 C   0  0  0  0  0  2  0  0  0  0  0  0
  161.7610  209.2390  150.9690 C   0  0  0  0  0  0  0  0  0  0  0  0
  160.9230  205.7730  147.4650 C   0  0  0  0  0  3  0  0  0  0  0  0
  161.3990  206.7930  149.6300 C   0  0  0  0  0  0  0  0  0  0  0  0
  160.2930  204.5700  149.6360 C   0  0  0  0  0  2  0  0  0  0  0  0
  161.1740  203.3190  149.6180 C   0  0  2  0  0  3  0  0  0  0  0  0
  160.7420  201.0980  150.0440 C   0  0  1  0  0  3  0  0  0  0  0  0
  161.1140  202.6870  148.3630 O   0  0  0  0  0  0  0  0  0  0  0  0
  161.8750  202.3640  151.6390 C   0  0  0  0  0  1  0  0  0  0  0  0
  160.7840  202.3950  150.6780 N   0  0  0  0  0  0  0  0  0  0  0  0
  159.3150  200.5830  150.0450 C   0  0  0  0  0  1  0  0  0  0  0  0
  161.1950  201.3170  148.6270 C   0  0  0  0  0  2  0  0  0  0  0  0
  1 20  2  0  0  0  0
  1 21  1  0  0  0  0
  2 17  1  0  0  0  0
  3 14  1  0  0  0  0
  4 12  1  1  0  0  0
  4  9  1  0  0  0  0
  5  7  1  0  0  0  0
  6 16  1  0  0  0  0
  7  4  1  0  0  0  0
  7  2  1  6  0  0  0
  8 12  1  0  0  0  0
  9  6  2  0  0  0  0
 10 15  1  6  0  0  0
 10 20  1  0  0  0  0
 10 14  1  0  0  0  0
 11  5  2  0  0  0  0
 13 19  2  0  0  0  0
 13 15  1  0  0  0  0
 14 18  2  0  0  0  0
 17  6  1  0  0  0  0
 18  5  1  0  0  0  0
 18  8  1  0  0  0  0
 19  1  1  0  0  0  0
 20 11  1  0  0  0  0
 22 21  1  6  0  0  0
 22 26  1  0  0  0  0
 23 27  1  6  0  0  0
 23 26  1  0  0  0  0
 24 28  1  0  0  0  0
 24 22  1  0  0  0  0
 26 25  1  0  0  0  0
 28 23  1  0  0  0  0
M  END
>  <MODEL>
6

>  <REMARK>
 VINA RESULT:      -7.9      2.171      7.809
  Name = 
  2 active torsions:
  status: ('A' for Active; 'I' for Inactive)
    1  A    between atoms: C_1  and  C_2
    2  A    between atoms: C_2  and  C_3
                            x       y       z     vdW  Elec       q    Type
                         _______ _______ _______ _____ _____    ______ ____

>  <TORSDO>
F 2

$$$$
=
 OpenBabel11052422543D

 28 32  0  0  1  0  0  0  0  0999 V2000
  161.4570  202.9620  148.0480 C   0  0  0  0  0  0  0  0  0  0  0  0
  162.0770  207.8670  148.7610 C   0  0  0  0  0  2  0  0  0  0  0  0
  160.6690  203.3580  152.9190 C   0  0  0  0  0  1  0  0  0  0  0  0
  161.9590  207.9900  151.2250 C   0  0  1  0  0  3  0  0  0  0  0  0
  161.1860  205.9070  150.0840 C   0  0  0  0  0  0  0  0  0  0  0  0
  162.1640  210.1160  149.9530 C   0  0  0  0  0  0  0  0  0  0  0  0
  161.2810  207.4070  149.9800 C   0  0  2  0  0  3  0  0  0  0  0  0
  161.1610  206.1300  152.5900 N   0  0  0  0  0  2  0  0  0  0  0  0
  162.0830  209.4820  151.1290 C   0  0  0  0  0  3  0  0  0  0  0  0
  160.5730  203.1110  150.3500 C   0  0  2  0  0  3  0  0  0  0  0  0
  161.2140  205.1670  149.0130 N   0  0  0  0  0  0  0  0  0  0  0  0
  161.1990  207.5850  152.4790 C   0  0  0  0  0  2  0  0  0  0  0  0
  161.3170  200.9530  149.4180 C   0  0  0  0  0  3  0  0  0  0  0  0
  160.8300  203.9680  151.5630 C   0  0  0  0  0  0  0  0  0  0  0  0
  161.0600  201.7760  150.5210 O   0  0  0  0  0  0  0  0  0  0  0  0
  162.3290  211.4930  149.9410 O   0  0  0  0  0  1  0  0  0  0  0  0
  162.0060  209.3910  148.6360 C   0  0  0  0  0  2  0  0  0  0  0  0
  161.0360  205.2910  151.4330 C   0  0  0  0  0  0  0  0  0  0  0  0
  161.4900  201.4950  148.2110 C   0  0  0  0  0  3  0  0  0  0  0  0
  161.1120  203.7410  149.0870 C   0  0  0  0  0  0  0  0  0  0  0  0
  161.9360  203.5530  146.7520 C   0  0  0  0  0  2  0  0  0  0  0  0
  160.8150  204.2380  145.9660 C   0  0  2  0  0  3  0  0  0  0  0  0
  160.8190  205.6090  144.1170 C   0  0  1  0  0  3  0  0  0  0  0  0
  160.4050  203.4360  144.8850 O   0  0  0  0  0  0  0  0  0  0  0  0
  160.4550  206.5370  146.2230 C   0  0  0  0  0  1  0  0  0  0  0  0
  161.2400  205.5520  145.4970 N   0  0  0  0  0  0  0  0  0  0  0  0
  162.0400  205.6820  143.2200 C   0  0  0  0  0  1  0  0  0  0  0  0
  160.0810  204.3250  143.8580 C   0  0  0  0  0  2  0  0  0  0  0  0
  1 19  1  0  0  0  0
  1 20  2  0  0  0  0
  4  9  1  6  0  0  0
  4 12  1  0  0  0  0
  5 18  1  0  0  0  0
  6  9  2  0  0  0  0
  7  2  1  6  0  0  0
  7  5  1  0  0  0  0
  7  4  1  0  0  0  0
 10 20  1  6  0  0  0
 10 15  1  0  0  0  0
 10 14  1  0  0  0  0
 11 20  1  0  0  0  0
 11  5  2  0  0  0  0
 12  8  1  0  0  0  0
 13 15  1  0  0  0  0
 14  3  1  0  0  0  0
 16  6  1  0  0  0  0
 17  2  1  0  0  0  0
 17  6  1  0  0  0  0
 18 14  2  0  0  0  0
 18  8  1  0  0  0  0
 19 13  2  0  0  0  0
 21  1  1  0  0  0  0
 22 21  1  6  0  0  0
 23 27  1  6  0  0  0
 23 26  1  0  0  0  0
 24 22  1  0  0  0  0
 26 22  1  0  0  0  0
 26 25  1  0  0  0  0
 28 23  1  0  0  0  0
 28 24  1  0  0  0  0
M  END
>  <MODEL>
7

>  <REMARK>
 VINA RESULT:      -7.7      2.485      6.681
  Name = 
  2 active torsions:
  status: ('A' for Active; 'I' for Inactive)
    1  A    between atoms: C_1  and  C_2
    2  A    between atoms: C_2  and  C_3
                            x       y       z     vdW  Elec       q    Type
                         _______ _______ _______ _____ _____    ______ ____

>  <TORSDO>
F 2

$$$$
=
 OpenBabel11052422543D

 28 32  0  0  1  0  0  0  0  0999 V2000
  161.9650  208.7350  148.8480 C   0  0  0  0  0  0  0  0  0  0  0  0
  161.5650  210.4220  153.5330 C   0  0  0  0  0  2  0  0  0  0  0  0
  160.8860  204.5760  151.3070 C   0  0  0  0  0  1  0  0  0  0  0  0
  161.3090  208.2970  154.7650 C   0  0  1  0  0  3  0  0  0  0  0  0
  161.0200  208.2940  152.2840 C   0  0  0  0  0  0  0  0  0  0  0  0
  161.1480  210.4220  156.0450 C   0  0  0  0  0  0  0  0  0  0  0  0
  160.8190  209.0900  153.5470 C   0  0  2  0  0  3  0  0  0  0  0  0
  160.8320  206.1840  153.6410 N   0  0  0  0  0  2  0  0  0  0  0  0
  161.1390  209.0840  156.0310 C   0  0  0  0  0  3  0  0  0  0  0  0
  160.9620  206.7250  149.8760 C   0  0  2  0  0  3  0  0  0  0  0  0
  161.2440  208.8970  151.1520 N   0  0  0  0  0  0  0  0  0  0  0  0
  160.5850  206.9610  154.8510 C   0  0  0  0  0  2  0  0  0  0  0  0
  162.1620  206.5820  147.7280 C   0  0  0  0  0  3  0  0  0  0  0  0
  160.9860  206.0660  151.2320 C   0  0  0  0  0  0  0  0  0  0  0  0
  161.6950  205.9770  148.9010 O   0  0  0  0  0  0  0  0  0  0  0  0
  161.0360  211.0830  157.2600 O   0  0  0  0  0  1  0  0  0  0  0  0
  161.1990  211.2390  154.7750 C   0  0  0  0  0  2  0  0  0  0  0  0
  160.9310  206.8080  152.3520 C   0  0  0  0  0  0  0  0  0  0  0  0
  162.2810  207.9100  147.6660 C   0  0  0  0  0  3  0  0  0  0  0  0
  161.4240  208.1620  149.9370 C   0  0  0  0  0  0  0  0  0  0  0  0
  162.3780  210.1790  148.8480 C   0  0  0  0  0  2  0  0  0  0  0  0
  161.2150  211.1260  148.5400 C   0  0  2  0  0  3  0  0  0  0  0  0
  161.1130  213.3840  148.1060 C   0  0  1  0  0  3  0  0  0  0  0  0
  161.0260  211.2460  147.1520 O   0  0  0  0  0  0  0  0  0  0  0  0
  160.4460  212.5950  150.1940 C   0  0  0  0  0  1  0  0  0  0  0  0
  161.4390  212.4350  149.1440 N   0  0  0  0  0  0  0  0  0  0  0  0
  162.3640  214.1440  147.7060 C   0  0  0  0  0  1  0  0  0  0  0  0
  160.6270  212.5680  146.9390 C   0  0  0  0  0  2  0  0  0  0  0  0
  1 20  2  0  0  0  0
  2 17  1  0  0  0  0
  4 12  1  1  0  0  0
  4  9  1  0  0  0  0
  5 18  1  0  0  0  0
  5  7  1  0  0  0  0
  6 16  1  0  0  0  0
  7  2  1  6  0  0  0
  7  4  1  0  0  0  0
  8 12  1  0  0  0  0
  9  6  2  0  0  0  0
 10 15  1  6  0  0  0
 10 20  1  0  0  0  0
 10 14  1  0  0  0  0
 11  5  2  0  0  0  0
 13 15  1  0  0  0  0
 14  3  1  0  0  0  0
 14 18  2  0  0  0  0
 17  6  1  0  0  0  0
 18  8  1  0  0  0  0
 19 13  2  0  0  0  0
 19  1  1  0  0  0  0
 20 11  1  0  0  0  0
 21  1  1  0  0  0  0
 22 21  1  6  0  0  0
 22 26  1  0  0  0  0
 23 27  1  6  0  0  0
 23 26  1  0  0  0  0
 24 22  1  0  0  0  0
 26 25  1  0  0  0  0
 28 24  1  0  0  0  0
 28 23  1  0  0  0  0
M  END
>  <MODEL>
8

>  <REMARK>
 VINA RESULT:      -7.6      1.983      5.497
  Name = 
  2 active torsions:
  status: ('A' for Active; 'I' for Inactive)
    1  A    between atoms: C_1  and  C_2
    2  A    between atoms: C_2  and  C_3
                            x       y       z     vdW  Elec       q    Type
                         _______ _______ _______ _____ _____    ______ ____

>  <TORSDO>
F 2

$$$$
=
 OpenBabel11052422543D

 28 32  0  0  1  0  0  0  0  0999 V2000
  160.1690  209.5200  155.2470 C   0  0  0  0  0  0  0  0  0  0  0  0
  161.2210  211.3970  150.7390 C   0  0  0  0  0  2  0  0  0  0  0  0
  161.5000  205.4470  152.7680 C   0  0  0  0  0  1  0  0  0  0  0  0
  161.6050  209.3210  149.4560 C   0  0  1  0  0  3  0  0  0  0  0  0
  161.5590  209.2060  151.9510 C   0  0  0  0  0  0  0  0  0  0  0  0
  161.9710  211.4940  148.3070 C   0  0  0  0  0  0  0  0  0  0  0  0
  161.9400  210.0500  150.7630 C   0  0  2  0  0  3  0  0  0  0  0  0
  161.8920  207.1510  150.5370 N   0  0  0  0  0  0  0  0  0  0  0  0
  161.9560  210.1560  148.2610 C   0  0  0  0  0  3  0  0  0  0  0  0
  161.2680  207.5340  154.2720 C   0  0  2  0  0  3  0  0  0  0  0  0
  161.1950  209.7640  153.0690 N   0  0  0  0  0  0  0  0  0  0  0  0
  162.3120  207.9740  149.4070 C   0  0  0  0  0  2  0  0  0  0  0  0
  159.7880  207.3260  156.2330 C   0  0  0  0  0  3  0  0  0  0  0  0
  161.4150  206.9340  152.8960 C   0  0  1  0  0  3  0  0  0  0  0  0
  160.3990  206.7620  155.1060 O   0  0  0  0  0  0  0  0  0  0  0  0
  162.2550  212.2030  147.1480 O   0  0  0  0  0  1  0  0  0  0  0  0
  161.7630  212.2570  149.5940 C   0  0  0  0  0  2  0  0  0  0  0  0
  161.6320  207.7220  151.8280 C   0  0  0  0  0  0  0  0  0  0  0  0
  159.6840  208.6520  156.3380 C   0  0  0  0  0  3  0  0  0  0  0  0
  160.8410  208.9820  154.2150 C   0  0  0  0  0  0  0  0  0  0  0  0
  159.7840  210.9720  155.2570 C   0  0  0  0  0  2  0  0  0  0  0  0
  158.5070  211.2490  154.4600 C   0  0  2  0  0  3  0  0  0  0  0  0
  156.8820  212.8710  154.6300 C   0  0  1  0  0  3  0  0  0  0  0  0
  158.7580  212.1630  153.4210 O   0  0  0  0  0  0  0  0  0  0  0  0
  156.4230  210.7150  155.3860 C   0  0  0  0  0  1  0  0  0  0  0  0
  157.4480  211.7450  155.3340 N   0  0  0  0  0  0  0  0  0  0  0  0
  157.1470  214.1410  155.4160 C   0  0  0  0  0  1  0  0  0  0  0  0
  157.6010  212.9370  153.3110 C   0  0  0  0  0  2  0  0  0  0  0  0
  1 21  1  0  0  0  0
  1 19  1  0  0  0  0
  4  9  1  6  0  0  0
  4  7  1  0  0  0  0
  5 11  2  0  0  0  0
  6 17  1  0  0  0  0
  7  2  1  1  0  0  0
  7  5  1  0  0  0  0
  8 18  2  0  0  0  0
  9  6  2  0  0  0  0
 10 20  1  6  0  0  0
 10 15  1  0  0  0  0
 11 20  1  0  0  0  0
 12  4  1  0  0  0  0
 12  8  1  0  0  0  0
 13 19  2  0  0  0  0
 14  3  1  1  0  0  0
 14 10  1  0  0  0  0
 15 13  1  0  0  0  0
 16  6  1  0  0  0  0
 17  2  1  0  0  0  0
 18  5  1  0  0  0  0
 18 14  1  0  0  0  0
 20  1  2  0  0  0  0
 22 21  1  1  0  0  0
 22 26  1  0  0  0  0
 23 26  1  0  0  0  0
 23 27  1  1  0  0  0
 24 22  1  0  0  0  0
 26 25  1  0  0  0  0
 28 24  1  0  0  0  0
 28 23  1  0  0  0  0
M  END
>  <MODEL>
9

>  <REMARK>
 VINA RESULT:      -6.6      3.156      6.114
  Name = 
  2 active torsions:
  status: ('A' for Active; 'I' for Inactive)
    1  A    between atoms: C_1  and  C_2
    2  A    between atoms: C_2  and  C_3
                            x       y       z     vdW  Elec       q    Type
                         _______ _______ _______ _____ _____    ______ ____

>  <TORSDO>
F 2

$$$$
