=
 OpenBabel11052423183D

 27 31  0  0  0  0  0  0  0  0999 V2000
  161.4060  209.3880  153.3170 N   0  0  0  0  0  0  0  0  0  0  0  0
  161.4450  208.6110  152.1810 C   0  0  0  0  0  0  0  0  0  0  0  0
  160.9010  206.6300  153.4960 C   0  0  0  0  0  0  0  0  0  0  0  0
  161.5040  206.1330  148.8870 N   0  0  0  0  0  0  0  0  0  0  0  0
  161.0570  203.6720  148.9290 C   0  0  0  0  0  1  0  0  0  0  0  0
  161.7450  209.1860  150.9130 C   0  0  0  0  0  3  0  0  0  0  0  0
  161.0360  205.2000  150.8720 O   0  0  0  0  0  0  0  0  0  0  0  0
  160.6240  207.6050  157.0540 C   0  0  0  0  0  3  0  0  0  0  0  0
  160.6590  205.3930  153.5780 O   0  0  0  0  0  0  0  0  0  0  0  0
  160.9060  208.9640  156.9870 C   0  0  0  0  0  3  0  0  0  0  0  0
  161.2360  206.4780  151.0660 C   0  0  0  0  0  0  0  0  0  0  0  0
  161.1980  205.0040  149.5760 C   0  0  0  0  0  0  0  0  0  0  0  0
  161.5210  207.0550  149.8660 C   0  0  0  0  0  0  0  0  0  0  0  0
  161.1630  208.8200  154.5550 C   0  0  0  0  0  0  0  0  0  0  0  0
  161.1890  207.2140  152.2590 C   0  0  0  0  0  0  0  0  0  0  0  0
  160.6210  206.8400  155.8920 C   0  0  0  0  0  3  0  0  0  0  0  0
  161.7840  208.4120  149.7420 C   0  0  0  0  0  3  0  0  0  0  0  0
  161.4750  210.8980  155.7900 F   0  0  0  0  0  0  0  0  0  0  0  0
  161.1790  209.5760  155.7620 C   0  0  0  0  0  0  0  0  0  0  0  0
  160.8920  207.4260  154.6480 C   0  0  0  0  0  0  0  0  0  0  0  0
  161.5940  210.8390  153.1800 C   0  0  0  0  0  2  0  0  0  0  0  0
  157.9380  212.7810  152.1330 C   0  0  0  0  0  3  0  0  0  0  0  0
  160.3060  211.5140  152.8290 C   0  0  0  0  0  0  0  0  0  0  0  0
  160.2530  212.4090  151.7570 C   0  0  0  0  0  3  0  0  0  0  0  0
  159.0810  213.0190  151.4340 N   0  0  0  0  0  0  0  0  0  0  0  0
  157.9480  211.8930  153.2110 C   0  0  0  0  0  3  0  0  0  0  0  0
  159.1410  211.2580  153.5590 C   0  0  0  0  0  3  0  0  0  0  0  0
  1 14  1  0  0  0  0
  2 15  1  0  0  0  0
  2  1  1  0  0  0  0
  3  9  2  0  0  0  0
  3 20  1  0  0  0  0
  4 12  2  0  0  0  0
  4 13  1  0  0  0  0
  5 12  1  0  0  0  0
  6  2  2  0  0  0  0
  7 11  1  0  0  0  0
 10  8  1  0  0  0  0
 11 15  2  0  0  0  0
 12  7  1  0  0  0  0
 13 11  1  0  0  0  0
 14 20  2  0  0  0  0
 14 19  1  0  0  0  0
 15  3  1  0  0  0  0
 16  8  2  0  0  0  0
 17 13  2  0  0  0  0
 17  6  1  0  0  0  0
 19 18  1  0  0  0  0
 19 10  2  0  0  0  0
 20 16  1  0  0  0  0
 21  1  1  0  0  0  0
 22 26  1  0  0  0  0
 23 21  1  0  0  0  0
 23 27  1  0  0  0  0
 24 23  2  0  0  0  0
 25 24  1  0  0  0  0
 25 22  2  0  0  0  0
 26 27  2  0  0  0  0
M  END
>  <MODEL>
1

>  <REMARK>
 VINA RESULT:      -7.7      0.000      0.000
  Name = 
  2 active torsions:
  status: ('A' for Active; 'I' for Inactive)
    1  A    between atoms: N_1  and  C_15
    2  A    between atoms: C_9  and  C_15
                            x       y       z     vdW  Elec       q    Type
                         _______ _______ _______ _____ _____    ______ ____

>  <TORSDO>
F 2

$$$$
=
 OpenBabel11052423183D

 27 31  0  0  0  0  0  0  0  0999 V2000
  162.0350  205.2540  149.0130 N   0  0  0  0  0  0  0  0  0  0  0  0
  161.8920  206.1740  150.0270 C   0  0  0  0  0  0  0  0  0  0  0  0
  160.8130  204.4910  151.4250 C   0  0  0  0  0  0  0  0  0  0  0  0
  161.3940  208.7860  153.1780 N   0  0  0  0  0  0  0  0  0  0  0  0
  160.3350  208.2120  155.3700 C   0  0  0  0  0  1  0  0  0  0  0  0
  162.3520  207.5130  149.8700 C   0  0  0  0  0  3  0  0  0  0  0  0
  160.6560  206.6870  153.4510 O   0  0  0  0  0  0  0  0  0  0  0  0
  160.5530  201.3410  149.5040 C   0  0  0  0  0  3  0  0  0  0  0  0
  160.2760  204.1410  152.5140 O   0  0  0  0  0  0  0  0  0  0  0  0
  161.1240  201.7130  148.2920 C   0  0  0  0  0  3  0  0  0  0  0  0
  161.1690  206.7780  152.2520 C   0  0  0  0  0  0  0  0  0  0  0  0
  160.7930  207.8830  153.9940 C   0  0  0  0  0  0  0  0  0  0  0  0
  161.6210  208.0510  152.0750 C   0  0  0  0  0  0  0  0  0  0  0  0
  161.5440  203.9680  149.1500 C   0  0  0  0  0  0  0  0  0  0  0  0
  161.2780  205.7990  151.2540 C   0  0  0  0  0  0  0  0  0  0  0  0
  160.4580  202.2670  150.5380 C   0  0  0  0  0  3  0  0  0  0  0  0
  162.2210  208.4640  150.8940 C   0  0  0  0  0  3  0  0  0  0  0  0
  162.1240  203.2930  146.8800 F   0  0  0  0  0  0  0  0  0  0  0  0
  161.6130  203.0070  148.1020 C   0  0  0  0  0  0  0  0  0  0  0  0
  160.9380  203.5740  150.3760 C   0  0  0  0  0  0  0  0  0  0  0  0
  162.7500  205.6610  147.7950 C   0  0  0  0  0  2  0  0  0  0  0  0
  160.0440  205.9540  144.5040 C   0  0  0  0  0  3  0  0  0  0  0  0
  161.8140  205.7540  146.6320 C   0  0  0  0  0  0  0  0  0  0  0  0
  160.5050  206.2020  146.8210 C   0  0  0  0  0  3  0  0  0  0  0  0
  159.6540  206.2930  145.7630 N   0  0  0  0  0  0  0  0  0  0  0  0
  161.3450  205.5020  144.2730 C   0  0  0  0  0  3  0  0  0  0  0  0
  162.2320  205.4010  145.3450 C   0  0  0  0  0  3  0  0  0  0  0  0
  1 14  1  0  0  0  0
  1  2  1  0  0  0  0
  2 15  1  0  0  0  0
  3  9  2  0  0  0  0
  4 12  2  0  0  0  0
  6  2  2  0  0  0  0
  6 17  1  0  0  0  0
  7 12  1  0  0  0  0
  8 16  1  0  0  0  0
 10  8  2  0  0  0  0
 11  7  1  0  0  0  0
 12  5  1  0  0  0  0
 13 11  1  0  0  0  0
 13  4  1  0  0  0  0
 14 20  1  0  0  0  0
 15  3  1  0  0  0  0
 15 11  2  0  0  0  0
 17 13  2  0  0  0  0
 18 19  1  0  0  0  0
 19 10  1  0  0  0  0
 19 14  2  0  0  0  0
 20 16  2  0  0  0  0
 20  3  1  0  0  0  0
 21  1  1  0  0  0  0
 22 25  1  0  0  0  0
 23 24  1  0  0  0  0
 23 21  1  0  0  0  0
 25 24  2  0  0  0  0
 26 22  2  0  0  0  0
 26 27  1  0  0  0  0
 27 23  2  0  0  0  0
M  END
>  <MODEL>
2

>  <REMARK>
 VINA RESULT:      -6.8      3.385      7.262
  Name = 
  2 active torsions:
  status: ('A' for Active; 'I' for Inactive)
    1  A    between atoms: N_1  and  C_15
    2  A    between atoms: C_9  and  C_15
                            x       y       z     vdW  Elec       q    Type
                         _______ _______ _______ _____ _____    ______ ____

>  <TORSDO>
F 2

$$$$
=
 OpenBabel11052423183D

 27 31  0  0  0  0  0  0  0  0999 V2000
  161.6990  208.6290  152.0840 N   0  0  0  0  0  0  0  0  0  0  0  0
  161.4840  207.2720  152.1740 C   0  0  0  0  0  0  0  0  0  0  0  0
  161.5650  207.0810  149.7430 C   0  0  0  0  0  0  0  0  0  0  0  0
  160.8640  203.1970  152.2500 N   0  0  0  0  0  0  0  0  0  0  0  0
  160.7420  201.7220  150.2340 C   0  0  0  0  0  1  0  0  0  0  0  0
  161.3220  206.6400  153.4400 C   0  0  0  0  0  3  0  0  0  0  0  0
  161.1080  204.1670  150.2430 O   0  0  0  0  0  0  0  0  0  0  0  0
  162.0550  210.4520  148.3020 C   0  0  0  0  0  3  0  0  0  0  0  0
  161.5200  206.3850  148.6900 O   0  0  0  0  0  0  0  0  0  0  0  0
  162.0890  211.2360  149.4490 C   0  0  0  0  0  3  0  0  0  0  0  0
  161.2040  205.1000  151.1530 C   0  0  0  0  0  0  0  0  0  0  0  0
  160.9060  203.0400  150.9020 C   0  0  0  0  0  0  0  0  0  0  0  0
  161.0570  204.5210  152.3780 C   0  0  0  0  0  0  0  0  0  0  0  0
  161.8060  209.2480  150.8510 C   0  0  0  0  0  0  0  0  0  0  0  0
  161.4170  206.4770  150.9960 C   0  0  0  0  0  0  0  0  0  0  0  0
  161.8850  209.0760  148.4090 C   0  0  0  0  0  3  0  0  0  0  0  0
  161.1090  205.2570  153.5530 C   0  0  0  0  0  3  0  0  0  0  0  0
  161.9740  211.4980  151.7750 F   0  0  0  0  0  0  0  0  0  0  0  0
  161.9630  210.6570  150.7130 C   0  0  0  0  0  0  0  0  0  0  0  0
  161.7540  208.4650  149.6640 C   0  0  0  0  0  0  0  0  0  0  0  0
  161.8450  209.3990  153.3280 C   0  0  0  0  0  2  0  0  0  0  0  0
  158.0760  210.8420  154.7240 C   0  0  0  0  0  3  0  0  0  0  0  0
  160.5190  209.9070  153.7990 C   0  0  0  0  0  0  0  0  0  0  0  0
  160.1300  209.7200  155.1280 C   0  0  0  0  0  3  0  0  0  0  0  0
  158.9270  210.1870  155.5600 N   0  0  0  0  0  0  0  0  0  0  0  0
  158.4280  211.0510  153.3890 C   0  0  0  0  0  3  0  0  0  0  0  0
  159.6570  210.5780  152.9260 C   0  0  0  0  0  3  0  0  0  0  0  0
  1  2  1  0  0  0  0
  1 21  1  0  0  0  0
  2  6  1  0  0  0  0
  3 15  1  0  0  0  0
  4 13  1  0  0  0  0
  5 12  1  0  0  0  0
  6 17  2  0  0  0  0
  7 12  1  0  0  0  0
  7 11  1  0  0  0  0
  8 16  2  0  0  0  0
  8 10  1  0  0  0  0
  9  3  2  0  0  0  0
 10 19  2  0  0  0  0
 11 13  2  0  0  0  0
 12  4  2  0  0  0  0
 13 17  1  0  0  0  0
 14  1  1  0  0  0  0
 15 11  1  0  0  0  0
 15  2  2  0  0  0  0
 16 20  1  0  0  0  0
 19 14  1  0  0  0  0
 19 18  1  0  0  0  0
 20  3  1  0  0  0  0
 20 14  2  0  0  0  0
 21 23  1  0  0  0  0
 22 25  1  0  0  0  0
 23 24  1  0  0  0  0
 24 25  2  0  0  0  0
 26 22  2  0  0  0  0
 27 26  1  0  0  0  0
 27 23  2  0  0  0  0
M  END
>  <MODEL>
3

>  <REMARK>
 VINA RESULT:      -6.8      2.145      4.269
  Name = 
  2 active torsions:
  status: ('A' for Active; 'I' for Inactive)
    1  A    between atoms: N_1  and  C_15
    2  A    between atoms: C_9  and  C_15
                            x       y       z     vdW  Elec       q    Type
                         _______ _______ _______ _____ _____    ______ ____

>  <TORSDO>
F 2

$$$$
=
 OpenBabel11052423183D

 27 31  0  0  0  0  0  0  0  0999 V2000
  161.9450  207.5100  151.9810 N   0  0  0  0  0  0  0  0  0  0  0  0
  161.6130  206.1990  151.7230 C   0  0  0  0  0  0  0  0  0  0  0  0
  161.3410  206.7180  149.3550 C   0  0  0  0  0  0  0  0  0  0  0  0
  160.6150  202.3180  150.7580 N   0  0  0  0  0  0  0  0  0  0  0  0
  160.0740  201.5000  148.4560 C   0  0  0  0  0  1  0  0  0  0  0  0
  161.5650  205.2370  152.7710 C   0  0  0  0  0  3  0  0  0  0  0  0
  160.6750  203.8130  149.0880 O   0  0  0  0  0  0  0  0  0  0  0  0
  161.9560  210.3300  148.8510 C   0  0  0  0  0  3  0  0  0  0  0  0
  161.0840  206.3610  148.1700 O   0  0  0  0  0  0  0  0  0  0  0  0
  162.2230  210.7450  150.1510 C   0  0  0  0  0  3  0  0  0  0  0  0
  160.9850  204.4360  150.1950 C   0  0  0  0  0  0  0  0  0  0  0  0
  160.4560  202.5570  149.4300 C   0  0  0  0  0  0  0  0  0  0  0  0
  160.9520  203.5350  151.2170 C   0  0  0  0  0  0  0  0  0  0  0  0
  161.9420  208.4530  150.9700 C   0  0  0  0  0  0  0  0  0  0  0  0
  161.3080  205.7860  150.3960 C   0  0  0  0  0  0  0  0  0  0  0  0
  161.6690  208.9940  148.5960 C   0  0  0  0  0  3  0  0  0  0  0  0
  161.2350  203.8940  152.5270 C   0  0  0  0  0  3  0  0  0  0  0  0
  162.4540  210.3260  152.4450 F   0  0  0  0  0  0  0  0  0  0  0  0
  162.2150  209.8310  151.2060 C   0  0  0  0  0  0  0  0  0  0  0  0
  161.6520  208.0530  149.6350 C   0  0  0  0  0  0  0  0  0  0  0  0
  162.3340  207.8770  153.3510 C   0  0  0  0  0  2  0  0  0  0  0  0
  158.8830  208.6010  155.7590 C   0  0  0  0  0  3  0  0  0  0  0  0
  161.1280  208.1150  154.2030 C   0  0  0  0  0  0  0  0  0  0  0  0
  160.5240  209.3740  154.2260 C   0  0  0  0  0  3  0  0  0  0  0  0
  159.4240  209.5910  154.9970 N   0  0  0  0  0  0  0  0  0  0  0  0
  159.4560  207.3280  155.7630 C   0  0  0  0  0  3  0  0  0  0  0  0
  160.5860  207.0870  154.9810 C   0  0  0  0  0  3  0  0  0  0  0  0
  1 21  1  0  0  0  0
  2  1  1  0  0  0  0
  2  6  1  0  0  0  0
  3 20  1  0  0  0  0
  3 15  1  0  0  0  0
  4 13  1  0  0  0  0
  5 12  1  0  0  0  0
  7 12  1  0  0  0  0
  7 11  1  0  0  0  0
  8 10  1  0  0  0  0
  9  3  2  0  0  0  0
 10 19  2  0  0  0  0
 11 15  1  0  0  0  0
 11 13  2  0  0  0  0
 12  4  2  0  0  0  0
 13 17  1  0  0  0  0
 14 19  1  0  0  0  0
 14  1  1  0  0  0  0
 15  2  2  0  0  0  0
 16  8  2  0  0  0  0
 16 20  1  0  0  0  0
 17  6  2  0  0  0  0
 19 18  1  0  0  0  0
 20 14  2  0  0  0  0
 21 23  1  0  0  0  0
 22 26  1  0  0  0  0
 23 24  2  0  0  0  0
 23 27  1  0  0  0  0
 24 25  1  0  0  0  0
 25 22  2  0  0  0  0
 27 26  2  0  0  0  0
M  END
>  <MODEL>
4

>  <REMARK>
 VINA RESULT:      -6.6      2.499      4.618
  Name = 
  2 active torsions:
  status: ('A' for Active; 'I' for Inactive)
    1  A    between atoms: N_1  and  C_15
    2  A    between atoms: C_9  and  C_15
                            x       y       z     vdW  Elec       q    Type
                         _______ _______ _______ _____ _____    ______ ____

>  <TORSDO>
F 2

$$$$
=
 OpenBabel11052423183D

 27 31  0  0  0  0  0  0  0  0999 V2000
  162.0100  205.7070  148.8150 N   0  0  0  0  0  0  0  0  0  0  0  0
  161.9320  206.9880  149.3140 C   0  0  0  0  0  0  0  0  0  0  0  0
  160.9740  206.1390  151.3900 C   0  0  0  0  0  0  0  0  0  0  0  0
  161.6370  210.7480  150.9770 N   0  0  0  0  0  0  0  0  0  0  0  0
  160.7460  211.2460  153.2610 C   0  0  0  0  0  1  0  0  0  0  0  0
  162.3650  208.1020  148.5390 C   0  0  0  0  0  3  0  0  0  0  0  0
  160.9420  209.0140  152.2170 O   0  0  0  0  0  0  0  0  0  0  0  0
  160.6070  202.4680  151.1160 C   0  0  0  0  0  3  0  0  0  0  0  0
  160.5220  206.3290  152.5540 O   0  0  0  0  0  0  0  0  0  0  0  0
  161.0850  202.2420  149.8310 C   0  0  0  0  0  3  0  0  0  0  0  0
  161.3650  208.5450  151.0730 C   0  0  0  0  0  0  0  0  0  0  0  0
  161.1060  210.3230  152.1520 C   0  0  0  0  0  0  0  0  0  0  0  0
  161.7910  209.5910  150.3110 C   0  0  0  0  0  0  0  0  0  0  0  0
  161.5440  204.6320  149.5500 C   0  0  0  0  0  0  0  0  0  0  0  0
  161.4120  207.2190  150.6170 C   0  0  0  0  0  0  0  0  0  0  0  0
  160.5780  203.7620  151.6260 C   0  0  0  0  0  3  0  0  0  0  0  0
  162.2990  209.4150  149.0320 C   0  0  0  0  0  3  0  0  0  0  0  0
  161.9640  202.9950  147.7920 F   0  0  0  0  0  0  0  0  0  0  0  0
  161.5460  203.3000  149.0450 C   0  0  0  0  0  0  0  0  0  0  0  0
  161.0320  204.8450  150.8610 C   0  0  0  0  0  0  0  0  0  0  0  0
  162.6310  205.5050  147.4980 C   0  0  0  0  0  2  0  0  0  0  0  0
  159.6410  205.0500  144.4830 C   0  0  0  0  0  3  0  0  0  0  0  0
  161.5900  205.3290  146.4380 C   0  0  0  0  0  0  0  0  0  0  0  0
  160.5200  206.2230  146.3520 C   0  0  0  0  0  3  0  0  0  0  0  0
  159.5760  206.0680  145.3850 N   0  0  0  0  0  0  0  0  0  0  0  0
  160.6950  204.1350  144.5350 C   0  0  0  0  0  3  0  0  0  0  0  0
  161.6730  204.2770  145.5200 C   0  0  0  0  0  3  0  0  0  0  0  0
  1  2  1  0  0  0  0
  1 14  1  0  0  0  0
  2 15  1  0  0  0  0
  3  9  2  0  0  0  0
  4 12  2  0  0  0  0
  6 17  1  0  0  0  0
  6  2  2  0  0  0  0
  8 16  1  0  0  0  0
 10  8  2  0  0  0  0
 11  7  1  0  0  0  0
 12  7  1  0  0  0  0
 12  5  1  0  0  0  0
 13  4  1  0  0  0  0
 13 11  1  0  0  0  0
 14 20  1  0  0  0  0
 15 11  2  0  0  0  0
 15  3  1  0  0  0  0
 17 13  2  0  0  0  0
 18 19  1  0  0  0  0
 19 14  2  0  0  0  0
 19 10  1  0  0  0  0
 20  3  1  0  0  0  0
 20 16  2  0  0  0  0
 21  1  1  0  0  0  0
 22 26  2  0  0  0  0
 22 25  1  0  0  0  0
 23 21  1  0  0  0  0
 24 23  1  0  0  0  0
 25 24  2  0  0  0  0
 26 27  1  0  0  0  0
 27 23  2  0  0  0  0
M  END
>  <MODEL>
5

>  <REMARK>
 VINA RESULT:      -6.4      3.270      7.118
  Name = 
  2 active torsions:
  status: ('A' for Active; 'I' for Inactive)
    1  A    between atoms: N_1  and  C_15
    2  A    between atoms: C_9  and  C_15
                            x       y       z     vdW  Elec       q    Type
                         _______ _______ _______ _____ _____    ______ ____

>  <TORSDO>
F 2

$$$$
=
 OpenBabel11052423183D

 27 31  0  0  0  0  0  0  0  0999 V2000
  160.4610  209.4130  153.0830 N   0  0  0  0  0  0  0  0  0  0  0  0
  160.6300  210.4230  152.1620 C   0  0  0  0  0  0  0  0  0  0  0  0
  161.7650  208.8800  150.6520 C   0  0  0  0  0  0  0  0  0  0  0  0
  161.2080  213.3140  149.2820 N   0  0  0  0  0  0  0  0  0  0  0  0
  162.3410  212.9480  147.0810 C   0  0  0  0  0  1  0  0  0  0  0  0
  160.1560  211.7400  152.4270 C   0  0  0  0  0  3  0  0  0  0  0  0
  161.9710  211.2520  148.8410 O   0  0  0  0  0  0  0  0  0  0  0  0
  161.9870  205.5670  152.2840 C   0  0  0  0  0  3  0  0  0  0  0  0
  162.3380  208.6330  149.5540 O   0  0  0  0  0  0  0  0  0  0  0  0
  161.3750  205.8240  153.5060 C   0  0  0  0  0  3  0  0  0  0  0  0
  161.4190  211.2310  150.0260 C   0  0  0  0  0  0  0  0  0  0  0  0
  161.8420  212.4920  148.4060 C   0  0  0  0  0  0  0  0  0  0  0  0
  160.9520  212.4800  150.3040 C   0  0  0  0  0  0  0  0  0  0  0  0
  160.9650  208.1470  152.8450 C   0  0  0  0  0  0  0  0  0  0  0  0
  161.2850  210.1640  150.9270 C   0  0  0  0  0  0  0  0  0  0  0  0
  162.1080  206.5840  151.3430 C   0  0  0  0  0  3  0  0  0  0  0  0
  160.3120  212.7810  151.4980 C   0  0  0  0  0  3  0  0  0  0  0  0
  160.3190  207.2650  155.0240 F   0  0  0  0  0  0  0  0  0  0  0  0
  160.8710  207.0930  153.7980 C   0  0  0  0  0  0  0  0  0  0  0  0
  161.6130  207.8690  151.6080 C   0  0  0  0  0  0  0  0  0  0  0  0
  159.7050  209.7030  154.3090 C   0  0  0  0  0  2  0  0  0  0  0  0
  162.1550  211.5790  157.2610 C   0  0  0  0  0  3  0  0  0  0  0  0
  160.5780  210.3550  155.3340 C   0  0  0  0  0  0  0  0  0  0  0  0
  160.0250  211.2320  156.2700 C   0  0  0  0  0  3  0  0  0  0  0  0
  160.8170  211.8210  157.2060 N   0  0  0  0  0  0  0  0  0  0  0  0
  162.7470  210.7090  156.3430 C   0  0  0  0  0  3  0  0  0  0  0  0
  161.9510  210.0950  155.3750 C   0  0  0  0  0  3  0  0  0  0  0  0
  1 21  1  0  0  0  0
  2  6  1  0  0  0  0
  2  1  1  0  0  0  0
  3 15  1  0  0  0  0
  3 20  1  0  0  0  0
  4 13  1  0  0  0  0
  5 12  1  0  0  0  0
  7 11  1  0  0  0  0
  8 10  1  0  0  0  0
  9  3  2  0  0  0  0
 10 19  2  0  0  0  0
 11 13  2  0  0  0  0
 11 15  1  0  0  0  0
 12  7  1  0  0  0  0
 12  4  2  0  0  0  0
 13 17  1  0  0  0  0
 14  1  1  0  0  0  0
 14 19  1  0  0  0  0
 15  2  2  0  0  0  0
 16 20  1  0  0  0  0
 16  8  2  0  0  0  0
 17  6  2  0  0  0  0
 19 18  1  0  0  0  0
 20 14  2  0  0  0  0
 21 23  1  0  0  0  0
 23 27  2  0  0  0  0
 23 24  1  0  0  0  0
 24 25  2  0  0  0  0
 25 22  1  0  0  0  0
 26 22  2  0  0  0  0
 27 26  1  0  0  0  0
M  END
>  <MODEL>
6

>  <REMARK>
 VINA RESULT:      -6.1      2.600      4.977
  Name = 
  2 active torsions:
  status: ('A' for Active; 'I' for Inactive)
    1  A    between atoms: N_1  and  C_15
    2  A    between atoms: C_9  and  C_15
                            x       y       z     vdW  Elec       q    Type
                         _______ _______ _______ _____ _____    ______ ____

>  <TORSDO>
F 2

$$$$
=
 OpenBabel11052423183D

 27 31  0  0  0  0  0  0  0  0999 V2000
  161.9050  207.5180  152.1640 N   0  0  0  0  0  0  0  0  0  0  0  0
  161.9920  208.4160  151.1240 C   0  0  0  0  0  0  0  0  0  0  0  0
  160.8300  210.0970  152.4550 C   0  0  0  0  0  0  0  0  0  0  0  0
  162.1750  211.2400  148.1270 N   0  0  0  0  0  0  0  0  0  0  0  0
  161.2660  213.5650  148.2830 C   0  0  0  0  0  1  0  0  0  0  0  0
  162.6170  208.0540  149.8960 C   0  0  0  0  0  3  0  0  0  0  0  0
  161.1800  211.8350  150.0460 O   0  0  0  0  0  0  0  0  0  0  0  0
  159.9440  208.6160  155.7280 C   0  0  0  0  0  3  0  0  0  0  0  0
  160.3580  211.2610  152.5950 O   0  0  0  0  0  0  0  0  0  0  0  0
  160.4400  207.3260  155.5860 C   0  0  0  0  0  3  0  0  0  0  0  0
  161.5810  210.5970  150.1690 C   0  0  0  0  0  0  0  0  0  0  0  0
  161.5360  212.2100  148.8310 C   0  0  0  0  0  0  0  0  0  0  0  0
  162.1880  210.2250  149.0080 C   0  0  0  0  0  0  0  0  0  0  0  0
  161.2550  207.8550  153.3370 C   0  0  0  0  0  0  0  0  0  0  0  0
  161.4540  209.7250  151.2610 C   0  0  0  0  0  0  0  0  0  0  0  0
  160.0810  209.5290  154.6870 C   0  0  0  0  0  3  0  0  0  0  0  0
  162.7210  208.9570  148.8260 C   0  0  0  0  0  3  0  0  0  0  0  0
  161.5090  205.6490  154.3450 F   0  0  0  0  0  0  0  0  0  0  0  0
  161.0850  206.9340  154.4110 C   0  0  0  0  0  0  0  0  0  0  0  0
  160.7220  209.1650  153.4940 C   0  0  0  0  0  0  0  0  0  0  0  0
  162.5470  206.2040  152.0110 C   0  0  0  0  0  2  0  0  0  0  0  0
  160.0810  203.5340  149.7690 C   0  0  0  0  0  3  0  0  0  0  0  0
  161.6870  205.2790  151.2100 C   0  0  0  0  0  0  0  0  0  0  0  0
  161.2890  204.0520  151.7480 C   0  0  0  0  0  3  0  0  0  0  0  0
  160.5020  203.2120  151.0230 N   0  0  0  0  0  0  0  0  0  0  0  0
  160.4560  204.7510  149.1970 C   0  0  0  0  0  3  0  0  0  0  0  0
  161.2650  205.6260  149.9230 C   0  0  0  0  0  3  0  0  0  0  0  0
  1 14  1  0  0  0  0
  2 15  1  0  0  0  0
  2  1  1  0  0  0  0
  3  9  2  0  0  0  0
  3 20  1  0  0  0  0
  4 12  2  0  0  0  0
  4 13  1  0  0  0  0
  5 12  1  0  0  0  0
  6  2  2  0  0  0  0
  7 11  1  0  0  0  0
 10  8  1  0  0  0  0
 11 15  2  0  0  0  0
 12  7  1  0  0  0  0
 13 11  1  0  0  0  0
 14 20  2  0  0  0  0
 14 19  1  0  0  0  0
 15  3  1  0  0  0  0
 16  8  2  0  0  0  0
 17 13  2  0  0  0  0
 17  6  1  0  0  0  0
 18 19  1  0  0  0  0
 19 10  2  0  0  0  0
 20 16  1  0  0  0  0
 21  1  1  0  0  0  0
 22 25  1  0  0  0  0
 23 24  1  0  0  0  0
 23 21  1  0  0  0  0
 25 24  2  0  0  0  0
 26 22  2  0  0  0  0
 26 27  1  0  0  0  0
 27 23  2  0  0  0  0
M  END
>  <MODEL>
7

>  <REMARK>
 VINA RESULT:      -5.9      2.793      5.567
  Name = 
  2 active torsions:
  status: ('A' for Active; 'I' for Inactive)
    1  A    between atoms: N_1  and  C_15
    2  A    between atoms: C_9  and  C_15
                            x       y       z     vdW  Elec       q    Type
                         _______ _______ _______ _____ _____    ______ ____

>  <TORSDO>
F 2

$$$$
=
 OpenBabel11052423183D

 27 31  0  0  0  0  0  0  0  0999 V2000
  161.4740  210.7270  151.1610 N   0  0  0  0  0  0  0  0  0  0  0  0
  160.8670  210.5970  152.3890 C   0  0  0  0  0  0  0  0  0  0  0  0
  159.4320  212.5080  151.9000 C   0  0  0  0  0  0  0  0  0  0  0  0
  158.9250  210.3510  156.0170 N   0  0  0  0  0  0  0  0  0  0  0  0
  157.0870  211.8720  156.7720 C   0  0  0  0  0  1  0  0  0  0  0  0
  161.2640  209.5730  153.2960 C   0  0  0  0  0  3  0  0  0  0  0  0
  158.2840  211.9780  154.6120 O   0  0  0  0  0  0  0  0  0  0  0  0
  160.3300  213.8480  148.5710 C   0  0  0  0  0  3  0  0  0  0  0  0
  158.5040  213.3020  152.2240 O   0  0  0  0  0  0  0  0  0  0  0  0
  161.3660  212.9960  148.2050 C   0  0  0  0  0  3  0  0  0  0  0  0
  159.2440  211.3030  154.0340 C   0  0  0  0  0  0  0  0  0  0  0  0
  158.1010  211.4070  155.7880 C   0  0  0  0  0  0  0  0  0  0  0  0
  159.6410  210.3120  154.8800 C   0  0  0  0  0  0  0  0  0  0  0  0
  161.1220  211.7520  150.3010 C   0  0  0  0  0  0  0  0  0  0  0  0
  159.8300  211.4910  152.7740 C   0  0  0  0  0  0  0  0  0  0  0  0
  159.6930  213.6760  149.7950 C   0  0  0  0  0  3  0  0  0  0  0  0
  160.6520  209.4210  154.5510 C   0  0  0  0  0  3  0  0  0  0  0  0
  162.8080  211.1980  148.6300 F   0  0  0  0  0  0  0  0  0  0  0  0
  161.7700  211.9610  149.0510 C   0  0  0  0  0  0  0  0  0  0  0  0
  160.0770  212.6470  150.6660 C   0  0  0  0  0  0  0  0  0  0  0  0
  162.4830  209.7310  150.7690 C   0  0  0  0  0  2  0  0  0  0  0  0
  160.6580  206.3170  148.9660 C   0  0  0  0  0  3  0  0  0  0  0  0
  161.8370  208.5300  150.1540 C   0  0  0  0  0  0  0  0  0  0  0  0
  161.7440  208.4200  148.7640 C   0  0  0  0  0  3  0  0  0  0  0  0
  161.1620  207.3250  148.2030 N   0  0  0  0  0  0  0  0  0  0  0  0
  160.7310  206.3890  150.3590 C   0  0  0  0  0  3  0  0  0  0  0  0
  161.3240  207.5040  150.9530 C   0  0  0  0  0  3  0  0  0  0  0  0
  1  2  1  0  0  0  0
  2 15  2  0  0  0  0
  2  6  1  0  0  0  0
  3  9  2  0  0  0  0
  3 15  1  0  0  0  0
  6 17  2  0  0  0  0
  7 12  1  0  0  0  0
  8 16  1  0  0  0  0
 10  8  2  0  0  0  0
 10 19  1  0  0  0  0
 11  7  1  0  0  0  0
 11 13  2  0  0  0  0
 12  4  2  0  0  0  0
 12  5  1  0  0  0  0
 13  4  1  0  0  0  0
 14 20  1  0  0  0  0
 14  1  1  0  0  0  0
 15 11  1  0  0  0  0
 16 20  2  0  0  0  0
 17 13  1  0  0  0  0
 18 19  1  0  0  0  0
 19 14  2  0  0  0  0
 20  3  1  0  0  0  0
 21  1  1  0  0  0  0
 22 26  1  0  0  0  0
 23 21  1  0  0  0  0
 23 27  1  0  0  0  0
 24 23  2  0  0  0  0
 25 24  1  0  0  0  0
 25 22  2  0  0  0  0
 26 27  2  0  0  0  0
M  END
>  <MODEL>
8

>  <REMARK>
 VINA RESULT:      -5.8      3.190      6.988
  Name = 
  2 active torsions:
  status: ('A' for Active; 'I' for Inactive)
    1  A    between atoms: N_1  and  C_15
    2  A    between atoms: C_9  and  C_15
                            x       y       z     vdW  Elec       q    Type
                         _______ _______ _______ _____ _____    ______ ____

>  <TORSDO>
F 2

$$$$
=
 OpenBabel11052423183D

 27 31  0  0  0  0  0  0  0  0999 V2000
  162.0800  209.1570  150.7260 N   0  0  0  0  0  0  0  0  0  0  0  0
  161.8230  209.1350  152.0780 C   0  0  0  0  0  0  0  0  0  0  0  0
  160.9890  206.8490  151.8990 C   0  0  0  0  0  0  0  0  0  0  0  0
  161.0050  208.8780  156.1100 N   0  0  0  0  0  0  0  0  0  0  0  0
  160.0490  206.8730  157.2610 C   0  0  0  0  0  1  0  0  0  0  0  0
  162.0990  210.2700  152.8930 C   0  0  0  0  0  3  0  0  0  0  0  0
  160.5560  207.0790  154.8500 O   0  0  0  0  0  0  0  0  0  0  0  0
  161.1370  205.8050  148.3530 C   0  0  0  0  0  3  0  0  0  0  0  0
  160.5130  205.8050  152.4260 O   0  0  0  0  0  0  0  0  0  0  0  0
  161.6440  206.9520  147.7530 C   0  0  0  0  0  3  0  0  0  0  0  0
  161.0430  208.0060  154.0670 C   0  0  0  0  0  0  0  0  0  0  0  0
  160.5360  207.6050  156.0610 C   0  0  0  0  0  0  0  0  0  0  0  0
  161.3190  209.1040  154.8230 C   0  0  0  0  0  0  0  0  0  0  0  0
  161.7670  208.0720  149.9280 C   0  0  0  0  0  0  0  0  0  0  0  0
  161.2740  207.9710  152.6840 C   0  0  0  0  0  0  0  0  0  0  0  0
  160.9270  205.7790  149.7280 C   0  0  0  0  0  3  0  0  0  0  0  0
  161.8500  210.2640  154.2750 C   0  0  0  0  0  3  0  0  0  0  0  0
  162.4140  209.1640  147.8460 F   0  0  0  0  0  0  0  0  0  0  0  0
  161.9550  208.0790  148.5160 C   0  0  0  0  0  0  0  0  0  0  0  0
  161.2280  206.8960  150.5210 C   0  0  0  0  0  0  0  0  0  0  0  0
  162.7250  210.3490  150.1550 C   0  0  0  0  0  2  0  0  0  0  0  0
  159.8340  213.3820  149.3340 C   0  0  0  0  0  3  0  0  0  0  0  0
  161.7150  211.4090  149.8500 C   0  0  0  0  0  0  0  0  0  0  0  0
  160.8730  211.8850  150.8570 C   0  0  0  0  0  3  0  0  0  0  0  0
  159.9570  212.8530  150.5820 N   0  0  0  0  0  0  0  0  0  0  0  0
  160.6570  212.9330  148.2990 C   0  0  0  0  0  3  0  0  0  0  0  0
  161.6010  211.9400  148.5610 C   0  0  0  0  0  3  0  0  0  0  0  0
  1  2  1  0  0  0  0
  2 15  2  0  0  0  0
  2  6  1  0  0  0  0
  3  9  2  0  0  0  0
  3 15  1  0  0  0  0
  6 17  2  0  0  0  0
  7 12  1  0  0  0  0
  8 16  1  0  0  0  0
 10  8  2  0  0  0  0
 10 19  1  0  0  0  0
 11 13  2  0  0  0  0
 11  7  1  0  0  0  0
 12  4  2  0  0  0  0
 12  5  1  0  0  0  0
 13  4  1  0  0  0  0
 14 20  1  0  0  0  0
 14  1  1  0  0  0  0
 15 11  1  0  0  0  0
 16 20  2  0  0  0  0
 17 13  1  0  0  0  0
 18 19  1  0  0  0  0
 19 14  2  0  0  0  0
 20  3  1  0  0  0  0
 21  1  1  0  0  0  0
 22 25  1  0  0  0  0
 23 21  1  0  0  0  0
 23 24  1  0  0  0  0
 25 24  2  0  0  0  0
 26 27  1  0  0  0  0
 26 22  2  0  0  0  0
 27 23  2  0  0  0  0
M  END
>  <MODEL>
9

>  <REMARK>
 VINA RESULT:      -5.5      2.365      5.313
  Name = 
  2 active torsions:
  status: ('A' for Active; 'I' for Inactive)
    1  A    between atoms: N_1  and  C_15
    2  A    between atoms: C_9  and  C_15
                            x       y       z     vdW  Elec       q    Type
                         _______ _______ _______ _____ _____    ______ ____

>  <TORSDO>
F 2

$$$$
