=
 OpenBabel11052422013D

 30 30  0  0  1  0  0  0  0  0999 V2000
  161.7640  206.5720  149.8740 C   0  0  2  0  0  3  0  0  0  0  0  0
  161.7410  205.7090  151.1030 C   0  0  0  0  0  0  0  0  0  0  0  0
  162.6830  205.8080  151.9370 O   0  0  0  0  0  0  0  0  0  0  0  0
  160.6900  204.8160  151.3220 O   0  0  0  0  0  0  0  0  0  0  0  0
  160.7600  203.7990  152.3120 C   0  0  0  0  0  2  0  0  0  0  0  0
  161.3330  202.5420  151.6970 C   0  0  0  0  0  1  0  0  0  0  0  0
  162.0220  208.0760  150.0650 C   0  0  1  0  0  3  0  0  0  0  0  0
  161.9890  208.7620  148.8480 O   0  0  0  0  0  1  0  0  0  0  0  0
  161.0280  208.7120  151.0510 C   0  0  0  0  0  2  0  0  0  0  0  0
  161.5380  208.9490  152.4830 C   0  0  1  0  0  3  0  0  0  0  0  0
  161.9760  210.3900  152.7090 C   0  0  0  0  0  2  0  0  0  0  0  0
  159.9620  211.6270  152.4450 O   0  0  0  0  0  0  0  0  0  0  0  0
  160.7890  211.5360  154.5810 O   0  0  0  0  0  1  0  0  0  0  0  0
  160.8500  211.2100  153.2330 C   0  0  0  0  0  0  0  0  0  0  0  0
  160.5780  208.5510  153.4560 O   0  0  0  0  0  0  0  0  0  0  0  0
  161.7300  208.4600  155.4580 O   0  0  0  0  0  1  0  0  0  0  0  0
  160.4310  206.6460  154.9270 O   0  0  0  0  0  0  0  0  0  0  0  0
  160.9400  207.9100  154.6450 C   0  0  0  0  0  0  0  0  0  0  0  0
  160.4640  206.1360  148.6470 S   0  0  0  0  0  0  0  0  0  0  0  0
  161.3810  205.1180  147.3610 C   0  0  1  0  0  0  0  0  0  0  0  0
  161.6300  203.6720  147.8460 C   0  0  2  0  0  3  0  0  0  0  0  0
  160.5220  202.7640  147.4490 C   0  0  2  0  0  3  0  0  0  0  0  0
  160.6750  203.2090  148.7730 O   0  0  0  0  0  0  0  0  0  0  0  0
  161.0270  201.3660  147.3030 C   0  0  0  0  0  0  0  0  0  0  0  0
  161.5430  200.6650  148.3900 O   0  0  0  0  0  1  0  0  0  0  0  0
  160.9870  200.8160  146.1720 O   0  0  0  0  0  0  0  0  0  0  0  0
  160.6360  204.9970  146.1520 O   0  0  0  0  0  0  0  0  0  0  0  0
  160.4310  206.2450  145.5450 C   0  0  0  0  0  1  0  0  0  0  0  0
  162.7830  205.6700  147.0560 C   0  0  0  0  0  2  0  0  0  0  0  0
  163.5280  204.8110  146.2460 O   0  0  0  0  0  1  0  0  0  0  0  0
  1 19  1  1  0  0  0
  1  7  1  0  0  0  0
  1  2  1  0  0  0  0
  2  4  1  0  0  0  0
  2  3  2  0  0  0  0
  4  5  1  0  0  0  0
  6  5  1  0  0  0  0
  7  8  1  6  0  0  0
  7  9  1  0  0  0  0
 10  9  1  6  0  0  0
 10 11  1  0  0  0  0
 10 15  1  0  0  0  0
 11 14  1  0  0  0  0
 12 14  2  0  0  0  0
 14 13  1  0  0  0  0
 15 18  1  0  0  0  0
 18 17  2  0  0  0  0
 18 16  1  0  0  0  0
 20 29  1  6  0  0  0
 20 19  1  0  0  0  0
 21 20  1  6  0  0  0
 21 23  1  0  0  0  0
 22 24  1  1  0  0  0
 22 21  1  0  0  0  0
 22 23  1  0  0  0  0
 24 25  1  0  0  0  0
 26 24  2  0  0  0  0
 27 20  1  0  0  0  0
 28 27  1  0  0  0  0
 30 29  1  0  0  0  0
M  END
>  <MODEL>
1

>  <REMARK>
 VINA RESULT:      -5.4      0.000      0.000
  Name = 
  16 active torsions:
  status: ('A' for Active; 'I' for Inactive)
    1  A    between atoms: C_1  and  C_4
    2  A    between atoms: C_1  and  C_22
    3  A    between atoms: C_2  and  O_20
    4  A    between atoms: C_2  and  C_22
    5  A    between atoms: C_3  and  C_23
    6  A    between atoms: C_4  and  C_12
    7  A    between atoms: C_7  and  C_23
    8  A    between atoms: O_8  and  C_12
    9  A    between atoms: O_8  and  C_30
   10  A    between atoms: C_9  and  C_12
   11  A    between atoms: C_9  and  C_21
   12  A    between atoms: C_10  and  C_15
   13  A    between atoms: O_11  and  C_23
   14  A    between atoms: C_14  and  O_20
   15  A    between atoms: C_22  and  S_29
   16  A    between atoms: C_23  and  S_29
                            x       y       z     vdW  Elec       q    Type
                         _______ _______ _______ _____ _____    ______ ____

>  <TORSDO>
F 16

$$$$
=
 OpenBabel11052422013D

 30 30  0  0  1  0  0  0  0  0999 V2000
  161.2640  207.5250  150.5810 C   0  0  2  0  0  3  0  0  0  0  0  0
  161.6310  206.3230  151.4040 C   0  0  0  0  0  0  0  0  0  0  0  0
  162.7240  206.3250  152.0350 O   0  0  0  0  0  0  0  0  0  0  0  0
  160.7730  205.2230  151.4750 O   0  0  0  0  0  0  0  0  0  0  0  0
  160.9850  204.1610  152.3940 C   0  0  0  0  0  2  0  0  0  0  0  0
  161.4070  202.9220  151.6360 C   0  0  0  0  0  1  0  0  0  0  0  0
  161.2530  207.3650  149.0520 C   0  0  1  0  0  3  0  0  0  0  0  0
  161.5210  208.5750  148.4070 O   0  0  0  0  0  1  0  0  0  0  0  0
  162.2430  206.2890  148.5770 C   0  0  0  0  0  2  0  0  0  0  0  0
  161.7510  205.3470  147.4650 C   0  0  1  0  0  3  0  0  0  0  0  0
  162.2680  205.7550  146.0910 C   0  0  0  0  0  2  0  0  0  0  0  0
  160.0450  206.3010  145.4490 O   0  0  0  0  0  1  0  0  0  0  0  0
  161.3340  205.3410  143.8150 O   0  0  0  0  0  0  0  0  0  0  0  0
  161.1560  205.8230  145.1050 C   0  0  0  0  0  0  0  0  0  0  0  0
  162.0730  203.9880  147.7450 O   0  0  0  0  0  0  0  0  0  0  0  0
  161.0530  202.5520  146.2490 O   0  0  0  0  0  0  0  0  0  0  0  0
  160.4920  202.3140  148.4600 O   0  0  0  0  0  1  0  0  0  0  0  0
  161.2050  202.9360  147.4390 C   0  0  0  0  0  0  0  0  0  0  0  0
  161.9850  209.0950  151.2140 S   0  0  0  0  0  0  0  0  0  0  0  0
  160.9660  209.4750  152.7460 C   0  0  1  0  0  0  0  0  0  0  0  0
  159.8130  210.4580  152.4380 C   0  0  2  0  0  3  0  0  0  0  0  0
  160.1300  211.8340  152.9040 C   0  0  2  0  0  3  0  0  0  0  0  0
  159.2160  211.0140  153.5870 O   0  0  0  0  0  0  0  0  0  0  0  0
  159.4100  212.8410  152.0680 C   0  0  0  0  0  0  0  0  0  0  0  0
  159.8310  213.1410  150.7750 O   0  0  0  0  0  0  0  0  0  0  0  0
  158.4070  213.4300  152.5470 O   0  0  0  0  0  1  0  0  0  0  0  0
  160.3460  208.3060  153.2740 O   0  0  0  0  0  0  0  0  0  0  0  0
  160.8450  207.9880  154.5470 C   0  0  0  0  0  1  0  0  0  0  0  0
  161.7840  210.1730  153.8460 C   0  0  0  0  0  2  0  0  0  0  0  0
  163.1010  210.4190  153.4530 O   0  0  0  0  0  1  0  0  0  0  0  0
  1 19  1  6  0  0  0
  1  2  1  0  0  0  0
  2  4  1  0  0  0  0
  2  3  2  0  0  0  0
  4  5  1  0  0  0  0
  6  5  1  0  0  0  0
  7  8  1  6  0  0  0
  7  1  1  0  0  0  0
  9  7  1  0  0  0  0
 10 11  1  6  0  0  0
 10 15  1  0  0  0  0
 10  9  1  0  0  0  0
 13 14  2  0  0  0  0
 14 12  1  0  0  0  0
 14 11  1  0  0  0  0
 16 18  2  0  0  0  0
 18 15  1  0  0  0  0
 18 17  1  0  0  0  0
 19 20  1  0  0  0  0
 20 27  1  0  0  0  0
 20 29  1  1  0  0  0
 21 20  1  1  0  0  0
 21 22  1  0  0  0  0
 21 23  1  0  0  0  0
 22 24  1  6  0  0  0
 22 23  1  0  0  0  0
 24 26  1  0  0  0  0
 25 24  2  0  0  0  0
 27 28  1  0  0  0  0
 30 29  1  0  0  0  0
M  END
>  <MODEL>
2

>  <REMARK>
 VINA RESULT:      -5.3      1.587      8.004
  Name = 
  16 active torsions:
  status: ('A' for Active; 'I' for Inactive)
    1  A    between atoms: C_1  and  C_4
    2  A    between atoms: C_1  and  C_22
    3  A    between atoms: C_2  and  O_20
    4  A    between atoms: C_2  and  C_22
    5  A    between atoms: C_3  and  C_23
    6  A    between atoms: C_4  and  C_12
    7  A    between atoms: C_7  and  C_23
    8  A    between atoms: O_8  and  C_12
    9  A    between atoms: O_8  and  C_30
   10  A    between atoms: C_9  and  C_12
   11  A    between atoms: C_9  and  C_21
   12  A    between atoms: C_10  and  C_15
   13  A    between atoms: O_11  and  C_23
   14  A    between atoms: C_14  and  O_20
   15  A    between atoms: C_22  and  S_29
   16  A    between atoms: C_23  and  S_29
                            x       y       z     vdW  Elec       q    Type
                         _______ _______ _______ _____ _____    ______ ____

>  <TORSDO>
F 16

$$$$
=
 OpenBabel11052422013D

 30 30  0  0  1  0  0  0  0  0999 V2000
  161.8440  209.5290  151.3750 C   0  0  2  0  0  3  0  0  0  0  0  0
  161.7280  210.8280  150.6310 C   0  0  0  0  0  0  0  0  0  0  0  0
  160.9020  211.6920  151.0350 O   0  0  0  0  0  0  0  0  0  0  0  0
  162.5280  211.0800  149.5140 O   0  0  0  0  0  0  0  0  0  0  0  0
  162.0000  211.6390  148.3200 C   0  0  0  0  0  2  0  0  0  0  0  0
  162.8530  212.8150  147.8990 C   0  0  0  0  0  1  0  0  0  0  0  0
  162.3710  208.3100  150.6000 C   0  0  1  0  0  3  0  0  0  0  0  0
  162.4720  207.1840  151.4210 O   0  0  0  0  0  1  0  0  0  0  0  0
  161.5040  207.9860  149.3730 C   0  0  0  0  0  2  0  0  0  0  0  0
  161.7920  206.6530  148.6620 C   0  0  1  0  0  3  0  0  0  0  0  0
  160.5960  205.7110  148.6890 C   0  0  0  0  0  2  0  0  0  0  0  0
  161.3340  203.4600  148.8900 O   0  0  0  0  0  0  0  0  0  0  0  0
  160.6930  204.4630  150.8480 O   0  0  0  0  0  1  0  0  0  0  0  0
  160.9030  204.4850  149.4750 C   0  0  0  0  0  0  0  0  0  0  0  0
  162.2480  206.8560  147.3270 O   0  0  0  0  0  0  0  0  0  0  0  0
  161.4090  205.8030  145.4490 O   0  0  0  0  0  0  0  0  0  0  0  0
  163.2160  204.8240  146.4650 O   0  0  0  0  0  1  0  0  0  0  0  0
  162.2600  205.8310  146.3770 C   0  0  0  0  0  0  0  0  0  0  0  0
  160.4310  209.2030  152.5080 S   0  0  0  0  0  0  0  0  0  0  0  0
  161.0670  209.7500  154.1900 C   0  0  1  0  0  0  0  0  0  0  0  0
  160.1540  210.8230  154.8270 C   0  0  2  0  0  3  0  0  0  0  0  0
  159.0420  211.2030  153.9160 C   0  0  2  0  0  3  0  0  0  0  0  0
  160.1430  212.0480  154.1310 O   0  0  0  0  0  0  0  0  0  0  0  0
  157.8620  211.6660  154.7060 C   0  0  0  0  0  0  0  0  0  0  0  0
  157.1260  210.7820  155.4930 O   0  0  0  0  0  1  0  0  0  0  0  0
  157.5280  212.8780  154.6550 O   0  0  0  0  0  0  0  0  0  0  0  0
  161.1010  208.6710  155.1200 O   0  0  0  0  0  0  0  0  0  0  0  0
  160.8850  207.4370  154.4870 C   0  0  0  0  0  1  0  0  0  0  0  0
  162.4510  210.4160  154.1140 C   0  0  0  0  0  2  0  0  0  0  0  0
  162.9410  210.7670  155.3730 O   0  0  0  0  0  1  0  0  0  0  0  0
  1  2  1  6  0  0  0
  1 19  1  0  0  0  0
  2  3  2  0  0  0  0
  4  2  1  0  0  0  0
  5  4  1  0  0  0  0
  6  5  1  0  0  0  0
  7  1  1  0  0  0  0
  7  8  1  1  0  0  0
  9  7  1  0  0  0  0
 10 11  1  6  0  0  0
 10  9  1  0  0  0  0
 11 14  1  0  0  0  0
 12 14  2  0  0  0  0
 14 13  1  0  0  0  0
 15 10  1  0  0  0  0
 16 18  2  0  0  0  0
 18 17  1  0  0  0  0
 18 15  1  0  0  0  0
 19 20  1  0  0  0  0
 20 29  1  6  0  0  0
 20 27  1  0  0  0  0
 21 20  1  6  0  0  0
 22 23  1  0  0  0  0
 22 24  1  1  0  0  0
 22 21  1  0  0  0  0
 23 21  1  0  0  0  0
 24 25  1  0  0  0  0
 26 24  2  0  0  0  0
 28 27  1  0  0  0  0
 29 30  1  0  0  0  0
M  END
>  <MODEL>
3

>  <REMARK>
 VINA RESULT:      -5.2      2.325      8.690
  Name = 
  16 active torsions:
  status: ('A' for Active; 'I' for Inactive)
    1  A    between atoms: C_1  and  C_4
    2  A    between atoms: C_1  and  C_22
    3  A    between atoms: C_2  and  O_20
    4  A    between atoms: C_2  and  C_22
    5  A    between atoms: C_3  and  C_23
    6  A    between atoms: C_4  and  C_12
    7  A    between atoms: C_7  and  C_23
    8  A    between atoms: O_8  and  C_12
    9  A    between atoms: O_8  and  C_30
   10  A    between atoms: C_9  and  C_12
   11  A    between atoms: C_9  and  C_21
   12  A    between atoms: C_10  and  C_15
   13  A    between atoms: O_11  and  C_23
   14  A    between atoms: C_14  and  O_20
   15  A    between atoms: C_22  and  S_29
   16  A    between atoms: C_23  and  S_29
                            x       y       z     vdW  Elec       q    Type
                         _______ _______ _______ _____ _____    ______ ____

>  <TORSDO>
F 16

$$$$
=
 OpenBabel11052422013D

 30 30  0  0  1  0  0  0  0  0999 V2000
  161.8650  208.4520  151.3510 C   0  0  2  0  0  3  0  0  0  0  0  0
  162.0320  209.2360  150.0810 C   0  0  0  0  0  0  0  0  0  0  0  0
  162.1080  208.6160  148.9850 O   0  0  0  0  0  0  0  0  0  0  0  0
  162.0940  210.6320  150.1120 O   0  0  0  0  0  0  0  0  0  0  0  0
  162.2130  211.4070  148.9280 C   0  0  0  0  0  2  0  0  0  0  0  0
  161.2640  212.5830  149.0030 C   0  0  0  0  0  1  0  0  0  0  0  0
  162.1280  206.9390  151.2930 C   0  0  1  0  0  3  0  0  0  0  0  0
  162.5300  206.4390  152.5340 O   0  0  0  0  0  1  0  0  0  0  0  0
  160.9040  206.1580  150.7870 C   0  0  0  0  0  2  0  0  0  0  0  0
  161.1860  204.9740  149.8450 C   0  0  1  0  0  3  0  0  0  0  0  0
  160.5000  203.6940  150.3050 C   0  0  0  0  0  2  0  0  0  0  0  0
  161.9530  202.2910  151.5590 O   0  0  0  0  0  0  0  0  0  0  0  0
  160.6730  203.7360  152.7930 O   0  0  0  0  0  1  0  0  0  0  0  0
  161.0900  203.2050  151.5800 C   0  0  0  0  0  0  0  0  0  0  0  0
  160.8410  205.2800  148.4980 O   0  0  0  0  0  0  0  0  0  0  0  0
  161.7600  203.7980  146.9810 O   0  0  0  0  0  1  0  0  0  0  0  0
  162.4490  205.9810  146.8440 O   0  0  0  0  0  0  0  0  0  0  0  0
  161.6820  204.9750  147.4230 C   0  0  0  0  0  0  0  0  0  0  0  0
  160.4060  208.9700  152.3460 S   0  0  0  0  0  0  0  0  0  0  0  0
  161.1130  210.2090  153.5710 C   0  0  1  0  0  0  0  0  0  0  0  0
  160.8400  209.7880  155.0330 C   0  0  2  0  0  3  0  0  0  0  0  0
  160.3910  208.3730  155.1190 C   0  0  2  0  0  3  0  0  0  0  0  0
  159.4980  209.4440  155.2870 O   0  0  0  0  0  0  0  0  0  0  0  0
  160.7680  207.7910  156.4420 C   0  0  0  0  0  0  0  0  0  0  0  0
  162.0030  208.0620  157.0250 O   0  0  0  0  0  0  0  0  0  0  0  0
  159.9530  207.0390  157.0350 O   0  0  0  0  0  1  0  0  0  0  0  0
  162.5290  210.3170  153.4570 O   0  0  0  0  0  0  0  0  0  0  0  0
  163.1260  210.5880  154.6980 C   0  0  0  0  0  1  0  0  0  0  0  0
  160.4710  211.6010  153.4440 C   0  0  0  0  0  2  0  0  0  0  0  0
  159.8790  211.8010  152.1960 O   0  0  0  0  0  1  0  0  0  0  0  0
  1  2  1  6  0  0  0
  1 19  1  0  0  0  0
  2  4  1  0  0  0  0
  3  2  2  0  0  0  0
  5  6  1  0  0  0  0
  5  4  1  0  0  0  0
  7  1  1  0  0  0  0
  7  8  1  1  0  0  0
  9  7  1  0  0  0  0
 10 11  1  1  0  0  0
 10  9  1  0  0  0  0
 11 14  1  0  0  0  0
 12 14  2  0  0  0  0
 14 13  1  0  0  0  0
 15 10  1  0  0  0  0
 16 18  1  0  0  0  0
 17 18  2  0  0  0  0
 18 15  1  0  0  0  0
 19 20  1  0  0  0  0
 20 29  1  6  0  0  0
 21 20  1  6  0  0  0
 21 22  1  0  0  0  0
 21 23  1  0  0  0  0
 22 23  1  0  0  0  0
 22 24  1  1  0  0  0
 24 25  2  0  0  0  0
 24 26  1  0  0  0  0
 27 20  1  0  0  0  0
 27 28  1  0  0  0  0
 30 29  1  0  0  0  0
M  END
>  <MODEL>
4

>  <REMARK>
 VINA RESULT:      -5.2      2.052      8.115
  Name = 
  16 active torsions:
  status: ('A' for Active; 'I' for Inactive)
    1  A    between atoms: C_1  and  C_4
    2  A    between atoms: C_1  and  C_22
    3  A    between atoms: C_2  and  O_20
    4  A    between atoms: C_2  and  C_22
    5  A    between atoms: C_3  and  C_23
    6  A    between atoms: C_4  and  C_12
    7  A    between atoms: C_7  and  C_23
    8  A    between atoms: O_8  and  C_12
    9  A    between atoms: O_8  and  C_30
   10  A    between atoms: C_9  and  C_12
   11  A    between atoms: C_9  and  C_21
   12  A    between atoms: C_10  and  C_15
   13  A    between atoms: O_11  and  C_23
   14  A    between atoms: C_14  and  O_20
   15  A    between atoms: C_22  and  S_29
   16  A    between atoms: C_23  and  S_29
                            x       y       z     vdW  Elec       q    Type
                         _______ _______ _______ _____ _____    ______ ____

>  <TORSDO>
F 16

$$$$
=
 OpenBabel11052422013D

 30 30  0  0  1  0  0  0  0  0999 V2000
  161.9220  208.4340  151.1790 C   0  0  2  0  0  3  0  0  0  0  0  0
  162.1120  209.2900  149.9590 C   0  0  0  0  0  0  0  0  0  0  0  0
  162.3970  208.7360  148.8620 O   0  0  0  0  0  0  0  0  0  0  0  0
  161.9680  210.6770  150.0370 O   0  0  0  0  0  0  0  0  0  0  0  0
  162.0940  211.5120  148.8960 C   0  0  0  0  0  2  0  0  0  0  0  0
  161.2600  212.7590  149.0940 C   0  0  0  0  0  1  0  0  0  0  0  0
  162.2100  206.9290  151.0440 C   0  0  1  0  0  3  0  0  0  0  0  0
  162.7880  206.4110  152.2060 O   0  0  0  0  0  1  0  0  0  0  0  0
  160.9470  206.1290  150.6870 C   0  0  0  0  0  2  0  0  0  0  0  0
  161.1160  205.0090  149.6460 C   0  0  1  0  0  3  0  0  0  0  0  0
  160.6740  203.6520  150.1780 C   0  0  0  0  0  2  0  0  0  0  0  0
  159.7350  201.7820  149.0510 O   0  0  0  0  0  1  0  0  0  0  0  0
  161.6650  202.6140  148.1380 O   0  0  0  0  0  0  0  0  0  0  0  0
  160.6560  202.6360  149.0920 C   0  0  0  0  0  0  0  0  0  0  0  0
  160.4470  205.3190  148.4270 O   0  0  0  0  0  0  0  0  0  0  0  0
  162.3760  205.8230  147.2590 O   0  0  0  0  0  1  0  0  0  0  0  0
  160.3880  206.3960  146.2710 O   0  0  0  0  0  0  0  0  0  0  0  0
  161.1180  205.8410  147.3170 C   0  0  0  0  0  0  0  0  0  0  0  0
  160.4290  208.8750  152.1590 S   0  0  0  0  0  0  0  0  0  0  0  0
  161.1070  209.9150  153.5700 C   0  0  1  0  0  0  0  0  0  0  0  0
  160.4630  211.3200  153.6070 C   0  0  2  0  0  3  0  0  0  0  0  0
  159.0170  211.2670  153.2670 C   0  0  2  0  0  3  0  0  0  0  0  0
  159.9730  211.7560  152.3610 O   0  0  0  0  0  0  0  0  0  0  0  0
  158.2900  212.3950  153.9230 C   0  0  0  0  0  0  0  0  0  0  0  0
  158.1340  212.4470  155.3060 O   0  0  0  0  0  1  0  0  0  0  0  0
  157.8080  213.3110  153.2090 O   0  0  0  0  0  0  0  0  0  0  0  0
  160.8320  209.3300  154.8400 O   0  0  0  0  0  0  0  0  0  0  0  0
  160.8670  207.9280  154.7800 C   0  0  0  0  0  1  0  0  0  0  0  0
  162.6160  210.1850  153.4370 C   0  0  0  0  0  2  0  0  0  0  0  0
  163.1730  210.6780  154.6190 O   0  0  0  0  0  1  0  0  0  0  0  0
  1  2  1  6  0  0  0
  1 19  1  0  0  0  0
  2  4  1  0  0  0  0
  3  2  2  0  0  0  0
  5  6  1  0  0  0  0
  5  4  1  0  0  0  0
  7  1  1  0  0  0  0
  7  8  1  1  0  0  0
  9  7  1  0  0  0  0
 10 11  1  1  0  0  0
 10  9  1  0  0  0  0
 12 14  1  0  0  0  0
 13 14  2  0  0  0  0
 14 11  1  0  0  0  0
 15 10  1  0  0  0  0
 16 18  1  0  0  0  0
 17 18  2  0  0  0  0
 18 15  1  0  0  0  0
 19 20  1  0  0  0  0
 20 29  1  6  0  0  0
 20 27  1  0  0  0  0
 21 20  1  6  0  0  0
 22 21  1  0  0  0  0
 22 24  1  1  0  0  0
 23 22  1  0  0  0  0
 23 21  1  0  0  0  0
 24 25  1  0  0  0  0
 26 24  2  0  0  0  0
 28 27  1  0  0  0  0
 29 30  1  0  0  0  0
M  END
>  <MODEL>
5

>  <REMARK>
 VINA RESULT:      -5.1      2.063      8.626
  Name = 
  16 active torsions:
  status: ('A' for Active; 'I' for Inactive)
    1  A    between atoms: C_1  and  C_4
    2  A    between atoms: C_1  and  C_22
    3  A    between atoms: C_2  and  O_20
    4  A    between atoms: C_2  and  C_22
    5  A    between atoms: C_3  and  C_23
    6  A    between atoms: C_4  and  C_12
    7  A    between atoms: C_7  and  C_23
    8  A    between atoms: O_8  and  C_12
    9  A    between atoms: O_8  and  C_30
   10  A    between atoms: C_9  and  C_12
   11  A    between atoms: C_9  and  C_21
   12  A    between atoms: C_10  and  C_15
   13  A    between atoms: O_11  and  C_23
   14  A    between atoms: C_14  and  O_20
   15  A    between atoms: C_22  and  S_29
   16  A    between atoms: C_23  and  S_29
                            x       y       z     vdW  Elec       q    Type
                         _______ _______ _______ _____ _____    ______ ____

>  <TORSDO>
F 16

$$$$
=
 OpenBabel11052422013D

 30 30  0  0  1  0  0  0  0  0999 V2000
  161.8820  208.5130  151.0580 C   0  0  2  0  0  3  0  0  0  0  0  0
  162.0470  209.4600  149.9040 C   0  0  0  0  0  0  0  0  0  0  0  0
  162.2880  208.9920  148.7580 O   0  0  0  0  0  0  0  0  0  0  0  0
  161.9260  210.8390  150.0960 O   0  0  0  0  0  0  0  0  0  0  0  0
  161.9970  211.7580  149.0150 C   0  0  0  0  0  2  0  0  0  0  0  0
  161.0230  212.8900  149.2580 C   0  0  0  0  0  1  0  0  0  0  0  0
  162.1770  207.0260  150.8060 C   0  0  1  0  0  3  0  0  0  0  0  0
  162.8260  206.4390  151.8950 O   0  0  0  0  0  1  0  0  0  0  0  0
  160.9040  206.2330  150.4670 C   0  0  0  0  0  2  0  0  0  0  0  0
  160.9780  205.3080  149.2400 C   0  0  1  0  0  3  0  0  0  0  0  0
  161.7050  205.9570  148.0690 C   0  0  0  0  0  2  0  0  0  0  0  0
  160.4410  206.2600  146.0780 O   0  0  0  0  0  0  0  0  0  0  0  0
  161.3890  204.1890  146.3380 O   0  0  0  0  0  1  0  0  0  0  0  0
  161.1490  205.4860  146.7720 C   0  0  0  0  0  0  0  0  0  0  0  0
  161.5600  204.0490  149.5640 O   0  0  0  0  0  0  0  0  0  0  0  0
  160.8370  202.7870  151.3600 O   0  0  0  0  0  1  0  0  0  0  0  0
  160.0590  202.1830  149.2890 O   0  0  0  0  0  0  0  0  0  0  0  0
  160.8180  203.0030  150.1190 C   0  0  0  0  0  0  0  0  0  0  0  0
  160.4010  208.8680  152.0920 S   0  0  0  0  0  0  0  0  0  0  0  0
  161.1060  209.7260  153.6090 C   0  0  1  0  0  0  0  0  0  0  0  0
  160.3770  211.0560  153.9050 C   0  0  2  0  0  3  0  0  0  0  0  0
  159.1720  211.2210  153.0490 C   0  0  2  0  0  3  0  0  0  0  0  0
  160.3510  211.9470  152.8140 O   0  0  0  0  0  0  0  0  0  0  0  0
  158.1590  212.0720  153.7420 C   0  0  0  0  0  0  0  0  0  0  0  0
  158.2820  213.4590  153.7770 O   0  0  0  0  0  0  0  0  0  0  0  0
  157.1800  211.5210  154.3080 O   0  0  0  0  0  1  0  0  0  0  0  0
  160.9560  208.9330  154.7830 O   0  0  0  0  0  0  0  0  0  0  0  0
  160.7750  207.5770  154.4710 C   0  0  0  0  0  1  0  0  0  0  0  0
  162.5810  210.1240  153.4340 C   0  0  0  0  0  2  0  0  0  0  0  0
  163.1300  210.6520  154.6040 O   0  0  0  0  0  1  0  0  0  0  0  0
  1  2  1  6  0  0  0
  1 19  1  0  0  0  0
  2  4  1  0  0  0  0
  3  2  2  0  0  0  0
  5  6  1  0  0  0  0
  5  4  1  0  0  0  0
  7  1  1  0  0  0  0
  7  8  1  1  0  0  0
  9  7  1  0  0  0  0
 10 11  1  6  0  0  0
 10 15  1  0  0  0  0
 10  9  1  0  0  0  0
 12 14  2  0  0  0  0
 13 14  1  0  0  0  0
 14 11  1  0  0  0  0
 15 18  1  0  0  0  0
 17 18  2  0  0  0  0
 18 16  1  0  0  0  0
 19 20  1  0  0  0  0
 20 29  1  6  0  0  0
 20 27  1  0  0  0  0
 21 20  1  6  0  0  0
 22 24  1  1  0  0  0
 22 21  1  0  0  0  0
 23 22  1  0  0  0  0
 23 21  1  0  0  0  0
 24 25  2  0  0  0  0
 24 26  1  0  0  0  0
 28 27  1  0  0  0  0
 29 30  1  0  0  0  0
M  END
>  <MODEL>
6

>  <REMARK>
 VINA RESULT:      -5.0      2.035      8.320
  Name = 
  16 active torsions:
  status: ('A' for Active; 'I' for Inactive)
    1  A    between atoms: C_1  and  C_4
    2  A    between atoms: C_1  and  C_22
    3  A    between atoms: C_2  and  O_20
    4  A    between atoms: C_2  and  C_22
    5  A    between atoms: C_3  and  C_23
    6  A    between atoms: C_4  and  C_12
    7  A    between atoms: C_7  and  C_23
    8  A    between atoms: O_8  and  C_12
    9  A    between atoms: O_8  and  C_30
   10  A    between atoms: C_9  and  C_12
   11  A    between atoms: C_9  and  C_21
   12  A    between atoms: C_10  and  C_15
   13  A    between atoms: O_11  and  C_23
   14  A    between atoms: C_14  and  O_20
   15  A    between atoms: C_22  and  S_29
   16  A    between atoms: C_23  and  S_29
                            x       y       z     vdW  Elec       q    Type
                         _______ _______ _______ _____ _____    ______ ____

>  <TORSDO>
F 16

$$$$
=
 OpenBabel11052422013D

 30 30  0  0  1  0  0  0  0  0999 V2000
  161.8090  206.2340  149.5170 C   0  0  2  0  0  3  0  0  0  0  0  0
  161.3520  205.6340  150.8160 C   0  0  0  0  0  0  0  0  0  0  0  0
  160.2870  204.9580  150.8360 O   0  0  0  0  0  0  0  0  0  0  0  0
  162.1000  205.8150  151.9820 O   0  0  0  0  0  0  0  0  0  0  0  0
  161.5590  205.5600  153.2700 C   0  0  0  0  0  2  0  0  0  0  0  0
  160.9090  206.8200  153.7980 C   0  0  0  0  0  1  0  0  0  0  0  0
  162.4610  207.6250  149.5660 C   0  0  1  0  0  3  0  0  0  0  0  0
  162.7090  208.1220  148.2840 O   0  0  0  0  0  1  0  0  0  0  0  0
  161.6150  208.6320  150.3620 C   0  0  0  0  0  2  0  0  0  0  0  0
  162.3220  209.9290  150.7970 C   0  0  1  0  0  3  0  0  0  0  0  0
  161.5830  211.1750  150.3270 C   0  0  0  0  0  2  0  0  0  0  0  0
  162.8520  212.3260  148.6780 O   0  0  0  0  0  1  0  0  0  0  0  0
  161.2390  210.9130  147.8690 O   0  0  0  0  0  0  0  0  0  0  0  0
  161.9350  211.5000  148.9180 C   0  0  0  0  0  0  0  0  0  0  0  0
  162.5350  209.9650  152.2050 O   0  0  0  0  0  0  0  0  0  0  0  0
  160.3060  210.2450  152.7500 O   0  0  0  0  0  0  0  0  0  0  0  0
  161.8360  210.6340  154.4130 O   0  0  0  0  0  1  0  0  0  0  0  0
  161.5140  210.2760  153.1070 C   0  0  0  0  0  0  0  0  0  0  0  0
  160.6360  205.9520  148.1260 S   0  0  0  0  0  0  0  0  0  0  0  0
  161.5160  204.6920  147.0440 C   0  0  1  0  0  0  0  0  0  0  0  0
  161.6630  203.3280  147.7570 C   0  0  2  0  0  3  0  0  0  0  0  0
  160.6470  202.3520  147.2820 C   0  0  2  0  0  3  0  0  0  0  0  0
  160.5470  202.9700  148.5390 O   0  0  0  0  0  0  0  0  0  0  0  0
  161.1650  200.9580  147.4210 C   0  0  0  0  0  0  0  0  0  0  0  0
  161.5880  200.4630  148.6530 O   0  0  0  0  0  1  0  0  0  0  0  0
  161.2230  200.2210  146.4030 O   0  0  0  0  0  0  0  0  0  0  0  0
  160.7920  204.4260  145.8460 O   0  0  0  0  0  0  0  0  0  0  0  0
  160.3170  205.6080  145.2570 C   0  0  0  0  0  1  0  0  0  0  0  0
  162.9570  205.1060  146.7010 C   0  0  0  0  0  2  0  0  0  0  0  0
  163.4540  204.4260  145.5880 O   0  0  0  0  0  1  0  0  0  0  0  0
  1 19  1  6  0  0  0
  1  7  1  0  0  0  0
  1  2  1  0  0  0  0
  2  3  2  0  0  0  0
  2  4  1  0  0  0  0
  4  5  1  0  0  0  0
  5  6  1  0  0  0  0
  7  8  1  6  0  0  0
  7  9  1  0  0  0  0
  9 10  1  0  0  0  0
 10 11  1  1  0  0  0
 10 15  1  0  0  0  0
 12 14  1  0  0  0  0
 13 14  2  0  0  0  0
 14 11  1  0  0  0  0
 15 18  1  0  0  0  0
 16 18  2  0  0  0  0
 18 17  1  0  0  0  0
 20 29  1  6  0  0  0
 20 19  1  0  0  0  0
 21 20  1  6  0  0  0
 21 23  1  0  0  0  0
 22 24  1  1  0  0  0
 22 21  1  0  0  0  0
 22 23  1  0  0  0  0
 24 25  1  0  0  0  0
 26 24  2  0  0  0  0
 27 20  1  0  0  0  0
 28 27  1  0  0  0  0
 30 29  1  0  0  0  0
M  END
>  <MODEL>
7

>  <REMARK>
 VINA RESULT:      -4.9      1.509      2.527
  Name = 
  16 active torsions:
  status: ('A' for Active; 'I' for Inactive)
    1  A    between atoms: C_1  and  C_4
    2  A    between atoms: C_1  and  C_22
    3  A    between atoms: C_2  and  O_20
    4  A    between atoms: C_2  and  C_22
    5  A    between atoms: C_3  and  C_23
    6  A    between atoms: C_4  and  C_12
    7  A    between atoms: C_7  and  C_23
    8  A    between atoms: O_8  and  C_12
    9  A    between atoms: O_8  and  C_30
   10  A    between atoms: C_9  and  C_12
   11  A    between atoms: C_9  and  C_21
   12  A    between atoms: C_10  and  C_15
   13  A    between atoms: O_11  and  C_23
   14  A    between atoms: C_14  and  O_20
   15  A    between atoms: C_22  and  S_29
   16  A    between atoms: C_23  and  S_29
                            x       y       z     vdW  Elec       q    Type
                         _______ _______ _______ _____ _____    ______ ____

>  <TORSDO>
F 16

$$$$
=
 OpenBabel11052422013D

 30 30  0  0  1  0  0  0  0  0999 V2000
  161.6010  205.4210  150.8090 C   0  0  2  0  0  3  0  0  0  0  0  0
  161.2900  204.0930  151.4390 C   0  0  0  0  0  0  0  0  0  0  0  0
  160.8340  204.0670  152.6150 O   0  0  0  0  0  0  0  0  0  0  0  0
  161.4960  202.9070  150.7300 O   0  0  0  0  0  0  0  0  0  0  0  0
  160.4250  202.0370  150.3930 C   0  0  0  0  0  2  0  0  0  0  0  0
  160.9320  200.9590  149.4610 C   0  0  0  0  0  1  0  0  0  0  0  0
  162.0090  206.5730  151.7410 C   0  0  1  0  0  3  0  0  0  0  0  0
  163.0780  207.3050  151.2170 O   0  0  0  0  0  1  0  0  0  0  0  0
  160.8310  207.5140  152.0460 C   0  0  0  0  0  2  0  0  0  0  0  0
  160.8100  208.1550  153.4450 C   0  0  1  0  0  3  0  0  0  0  0  0
  161.2100  207.1720  154.5370 C   0  0  0  0  0  2  0  0  0  0  0  0
  159.3270  207.3700  155.9750 O   0  0  0  0  0  0  0  0  0  0  0  0
  161.3250  208.0480  156.8700 O   0  0  0  0  0  1  0  0  0  0  0  0
  160.5670  207.5260  155.8310 C   0  0  0  0  0  0  0  0  0  0  0  0
  161.6140  209.3290  153.4980 O   0  0  0  0  0  0  0  0  0  0  0  0
  161.4620  210.9790  155.1090 O   0  0  0  0  0  1  0  0  0  0  0  0
  160.2480  211.2910  153.1890 O   0  0  0  0  0  0  0  0  0  0  0  0
  161.1260  210.5490  153.9740 C   0  0  0  0  0  0  0  0  0  0  0  0
  160.4550  205.8700  149.4400 S   0  0  0  0  0  0  0  0  0  0  0  0
  161.5510  205.8580  147.9130 C   0  0  1  0  0  0  0  0  0  0  0  0
  160.7280  205.6600  146.6200 C   0  0  2  0  0  3  0  0  0  0  0  0
  161.5640  205.8560  145.4060 C   0  0  2  0  0  3  0  0  0  0  0  0
  160.6300  206.8180  145.8230 O   0  0  0  0  0  0  0  0  0  0  0  0
  161.0200  205.0530  144.2690 C   0  0  0  0  0  0  0  0  0  0  0  0
  160.3170  203.8710  144.4900 O   0  0  0  0  0  1  0  0  0  0  0  0
  161.2070  205.4540  143.0920 O   0  0  0  0  0  0  0  0  0  0  0  0
  162.2400  207.0940  147.7470 O   0  0  0  0  0  0  0  0  0  0  0  0
  161.5840  208.1440  148.4060 C   0  0  0  0  0  1  0  0  0  0  0  0
  162.5570  204.6950  147.9130 C   0  0  0  0  0  2  0  0  0  0  0  0
  161.9710  203.4860  147.5380 O   0  0  0  0  0  1  0  0  0  0  0  0
  1 19  1  1  0  0  0
  1  2  1  0  0  0  0
  1  7  1  0  0  0  0
  2  3  2  0  0  0  0
  4  2  1  0  0  0  0
  5  4  1  0  0  0  0
  6  5  1  0  0  0  0
  7  8  1  6  0  0  0
  7  9  1  0  0  0  0
 10  9  1  6  0  0  0
 10 15  1  0  0  0  0
 10 11  1  0  0  0  0
 11 14  1  0  0  0  0
 14 12  2  0  0  0  0
 14 13  1  0  0  0  0
 15 18  1  0  0  0  0
 17 18  2  0  0  0  0
 18 16  1  0  0  0  0
 20 29  1  1  0  0  0
 20 19  1  0  0  0  0
 21 20  1  1  0  0  0
 22 24  1  6  0  0  0
 22 23  1  0  0  0  0
 22 21  1  0  0  0  0
 23 21  1  0  0  0  0
 24 25  1  0  0  0  0
 26 24  2  0  0  0  0
 27 20  1  0  0  0  0
 27 28  1  0  0  0  0
 30 29  1  0  0  0  0
M  END
>  <MODEL>
8

>  <REMARK>
 VINA RESULT:      -4.9      1.691      3.311
  Name = 
  16 active torsions:
  status: ('A' for Active; 'I' for Inactive)
    1  A    between atoms: C_1  and  C_4
    2  A    between atoms: C_1  and  C_22
    3  A    between atoms: C_2  and  O_20
    4  A    between atoms: C_2  and  C_22
    5  A    between atoms: C_3  and  C_23
    6  A    between atoms: C_4  and  C_12
    7  A    between atoms: C_7  and  C_23
    8  A    between atoms: O_8  and  C_12
    9  A    between atoms: O_8  and  C_30
   10  A    between atoms: C_9  and  C_12
   11  A    between atoms: C_9  and  C_21
   12  A    between atoms: C_10  and  C_15
   13  A    between atoms: O_11  and  C_23
   14  A    between atoms: C_14  and  O_20
   15  A    between atoms: C_22  and  S_29
   16  A    between atoms: C_23  and  S_29
                            x       y       z     vdW  Elec       q    Type
                         _______ _______ _______ _____ _____    ______ ____

>  <TORSDO>
F 16

$$$$
=
 OpenBabel11052422013D

 30 30  0  0  1  0  0  0  0  0999 V2000
  161.9640  206.7870  149.6110 C   0  0  2  0  0  3  0  0  0  0  0  0
  162.0070  206.3000  151.0310 C   0  0  0  0  0  0  0  0  0  0  0  0
  163.1140  206.2730  151.6350 O   0  0  0  0  0  0  0  0  0  0  0  0
  160.8360  205.8910  151.6760 O   0  0  0  0  0  0  0  0  0  0  0  0
  160.8550  204.9660  152.7540 C   0  0  0  0  0  2  0  0  0  0  0  0
  160.8360  203.5570  152.2030 C   0  0  0  0  0  1  0  0  0  0  0  0
  162.3240  208.2590  149.3520 C   0  0  1  0  0  3  0  0  0  0  0  0
  161.5980  208.7850  148.2810 O   0  0  0  0  0  1  0  0  0  0  0  0
  162.1190  209.1320  150.6010 C   0  0  0  0  0  2  0  0  0  0  0  0
  161.5130  210.5280  150.3710 C   0  0  1  0  0  3  0  0  0  0  0  0
  160.9290  211.1220  151.6450 C   0  0  0  0  0  2  0  0  0  0  0  0
  161.9810  210.3440  153.6300 O   0  0  0  0  0  1  0  0  0  0  0  0
  160.2040  209.0930  152.9030 O   0  0  0  0  0  0  0  0  0  0  0  0
  161.0670  210.1750  152.7840 C   0  0  0  0  0  0  0  0  0  0  0  0
  162.4540  211.4190  149.7800 O   0  0  0  0  0  0  0  0  0  0  0  0
  163.0650  212.5460  147.8570 O   0  0  0  0  0  0  0  0  0  0  0  0
  160.8350  212.5450  148.3930 O   0  0  0  0  0  1  0  0  0  0  0  0
  162.1540  212.1790  148.6460 C   0  0  0  0  0  0  0  0  0  0  0  0
  160.5310  206.1370  148.6560 S   0  0  0  0  0  0  0  0  0  0  0  0
  161.3250  205.2440  147.2050 C   0  0  1  0  0  0  0  0  0  0  0  0
  161.7690  203.8130  147.5860 C   0  0  2  0  0  3  0  0  0  0  0  0
  160.6110  202.9730  147.9940 C   0  0  2  0  0  3  0  0  0  0  0  0
  161.5240  203.4810  148.9330 O   0  0  0  0  0  0  0  0  0  0  0  0
  160.8930  201.5340  147.7110 C   0  0  0  0  0  0  0  0  0  0  0  0
  160.8300  201.0250  146.4160 O   0  0  0  0  0  0  0  0  0  0  0  0
  161.1890  200.7690  148.6650 O   0  0  0  0  0  1  0  0  0  0  0  0
  160.4180  205.0900  146.1170 O   0  0  0  0  0  0  0  0  0  0  0  0
  160.4470  206.2010  145.2600 C   0  0  0  0  0  1  0  0  0  0  0  0
  162.6120  205.9300  146.7170 C   0  0  0  0  0  2  0  0  0  0  0  0
  163.5490  205.0170  146.2320 O   0  0  0  0  0  1  0  0  0  0  0  0
  1 19  1  1  0  0  0
  1  2  1  0  0  0  0
  2  3  2  0  0  0  0
  2  4  1  0  0  0  0
  4  5  1  0  0  0  0
  6  5  1  0  0  0  0
  7  8  1  6  0  0  0
  7  1  1  0  0  0  0
  7  9  1  0  0  0  0
 10  9  1  1  0  0  0
 10 11  1  0  0  0  0
 11 14  1  0  0  0  0
 14 13  2  0  0  0  0
 14 12  1  0  0  0  0
 15 10  1  0  0  0  0
 16 18  2  0  0  0  0
 17 18  1  0  0  0  0
 18 15  1  0  0  0  0
 20 29  1  6  0  0  0
 20 19  1  0  0  0  0
 21 20  1  1  0  0  0
 21 22  1  0  0  0  0
 21 23  1  0  0  0  0
 22 24  1  6  0  0  0
 22 23  1  0  0  0  0
 24 26  1  0  0  0  0
 25 24  2  0  0  0  0
 27 20  1  0  0  0  0
 28 27  1  0  0  0  0
 30 29  1  0  0  0  0
M  END
>  <MODEL>
9

>  <REMARK>
 VINA RESULT:      -4.8      1.633      3.072
  Name = 
  16 active torsions:
  status: ('A' for Active; 'I' for Inactive)
    1  A    between atoms: C_1  and  C_4
    2  A    between atoms: C_1  and  C_22
    3  A    between atoms: C_2  and  O_20
    4  A    between atoms: C_2  and  C_22
    5  A    between atoms: C_3  and  C_23
    6  A    between atoms: C_4  and  C_12
    7  A    between atoms: C_7  and  C_23
    8  A    between atoms: O_8  and  C_12
    9  A    between atoms: O_8  and  C_30
   10  A    between atoms: C_9  and  C_12
   11  A    between atoms: C_9  and  C_21
   12  A    between atoms: C_10  and  C_15
   13  A    between atoms: O_11  and  C_23
   14  A    between atoms: C_14  and  O_20
   15  A    between atoms: C_22  and  S_29
   16  A    between atoms: C_23  and  S_29
                            x       y       z     vdW  Elec       q    Type
                         _______ _______ _______ _____ _____    ______ ____

>  <TORSDO>
F 16

$$$$
