=
 OpenBabel11062410523D

 32 37  0  0  1  0  0  0  0  0999 V2000
  161.2990  202.5230  147.6780 C   0  0  1  0  0  3  0  0  0  0  0  0
  161.3330  206.3840  151.1210 C   0  0  0  0  0  0  0  0  0  0  0  0
  162.1770  210.3710  148.4530 C   0  0  0  0  0  3  0  0  0  0  0  0
  162.0740  211.1630  149.5970 C   0  0  0  0  0  3  0  0  0  0  0  0
  160.9150  206.6220  153.5750 C   0  0  0  0  0  0  0  0  0  0  0  0
  160.8140  207.4900  154.6660 C   0  0  0  0  0  0  0  0  0  0  0  0
  161.6730  204.1730  150.0750 C   0  0  2  0  0  3  0  0  0  0  0  0
  161.6450  206.1730  148.6980 N   0  0  0  0  0  2  0  0  0  0  0  0
  160.8460  209.6410  155.7580 C   0  0  1  0  0  3  0  0  0  0  0  0
  161.7580  203.9840  147.5860 C   0  0  0  0  0  2  0  0  0  0  0  0
  162.0130  208.9880  148.5450 C   0  0  0  0  0  3  0  0  0  0  0  0
  161.5770  206.9950  149.8730 C   0  0  0  0  0  0  0  0  0  0  0  0
  161.7460  208.3820  149.7820 C   0  0  0  0  0  0  0  0  0  0  0  0
  161.3600  208.5880  152.1850 C   0  0  0  0  0  0  0  0  0  0  0  0
  160.4340  208.4540  157.1010 S   0  0  0  0  0  0  0  0  0  0  0  0
  161.6680  201.9090  149.0360 C   0  0  0  0  0  2  0  0  0  0  0  0
  161.2050  204.7860  148.7590 C   0  0  1  0  0  3  0  0  0  0  0  0
  160.5240  207.0820  155.9890 N   0  0  0  0  0  2  0  0  0  0  0  0
  161.1430  202.7530  150.2000 C   0  0  0  0  0  2  0  0  0  0  0  0
  161.8050  210.5740  150.8340 C   0  0  0  0  0  3  0  0  0  0  0  0
  161.6380  209.1820  150.9420 C   0  0  0  0  0  0  0  0  0  0  0  0
  161.2480  209.3730  153.2960 N   0  0  0  0  0  0  0  0  0  0  0  0
  161.2320  204.9840  151.1620 O   0  0  0  0  0  0  0  0  0  0  0  0
  160.6660  204.9010  153.8810 Cl  0  0  0  0  0  0  0  0  0  0  0  0
  162.1570  210.3290  156.0860 C   0  0  0  0  0  1  0  0  0  0  0  0
  161.1980  207.1720  152.2910 C   0  0  0  0  0  0  0  0  0  0  0  0
  160.9870  208.8390  154.5120 C   0  0  0  0  0  0  0  0  0  0  0  0
  159.9200  202.4350  147.4650 O   0  0  0  0  0  0  0  0  0  0  0  0
  159.7400  201.2400  146.7650 C   0  0  0  0  0  2  0  0  0  0  0  0
  160.0140  201.4640  145.3210 C   0  0  0  0  0  0  0  0  0  0  0  0
  160.1540  202.7560  144.8320 O   0  0  0  0  0  1  0  0  0  0  0  0
  160.1590  200.4810  144.5480 O   0  0  0  0  0  0  0  0  0  0  0  0
  1 28  1  1  0  0  0
  1 16  1  0  0  0  0
  2 23  1  0  0  0  0
  2 26  1  0  0  0  0
  3 11  2  0  0  0  0
  3  4  1  0  0  0  0
  4 20  2  0  0  0  0
  5 24  1  0  0  0  0
  5  6  1  0  0  0  0
  6 18  1  0  0  0  0
  7 19  1  1  0  0  0
  7 23  1  0  0  0  0
  8 17  1  0  0  0  0
  8 12  1  0  0  0  0
  9 25  1  1  0  0  0
  9 15  1  0  0  0  0
 10  1  1  0  0  0  0
 11 13  1  0  0  0  0
 12  2  2  0  0  0  0
 13 12  1  0  0  0  0
 13 21  2  0  0  0  0
 14 26  1  0  0  0  0
 14 22  2  0  0  0  0
 16 19  1  0  0  0  0
 17 10  1  6  0  0  0
 17  7  1  0  0  0  0
 18 15  1  0  0  0  0
 20 21  1  0  0  0  0
 21 14  1  0  0  0  0
 22 27  1  0  0  0  0
 26  5  2  0  0  0  0
 27  6  2  0  0  0  0
 27  9  1  0  0  0  0
 29 28  1  0  0  0  0
 30 29  1  0  0  0  0
 31 30  1  0  0  0  0
 32 30  2  0  0  0  0
M  END
>  <MODEL>
1

>  <REMARK>
 VINA RESULT:      -7.2      0.000      0.000
  Name = 
  3 active torsions:
  status: ('A' for Active; 'I' for Inactive)
    1  A    between atoms: C_1  and  C_10
    2  A    between atoms: C_2  and  O_24
    3  A    between atoms: C_10  and  O_24
                            x       y       z     vdW  Elec       q    Type
                         _______ _______ _______ _____ _____    ______ ____

>  <TORSDO>
F 3

$$$$
=
 OpenBabel11062410523D

 32 37  0  0  1  0  0  0  0  0999 V2000
  161.6380  213.1610  148.6630 C   0  0  1  0  0  3  0  0  0  0  0  0
  161.3510  208.2680  150.3200 C   0  0  0  0  0  0  0  0  0  0  0  0
  160.9810  208.6550  155.1610 C   0  0  0  0  0  3  0  0  0  0  0  0
  160.8750  207.2680  155.2680 C   0  0  0  0  0  3  0  0  0  0  0  0
  161.2350  206.0050  149.2620 C   0  0  0  0  0  0  0  0  0  0  0  0
  161.1100  204.6270  149.4590 C   0  0  0  0  0  0  0  0  0  0  0  0
  161.9910  210.2700  149.0240 C   0  0  2  0  0  3  0  0  0  0  0  0
  161.3620  210.4890  151.3590 N   0  0  0  0  0  2  0  0  0  0  0  0
  160.8490  202.6220  150.7740 C   0  0  1  0  0  3  0  0  0  0  0  0
  161.7690  212.5330  150.0570 C   0  0  0  0  0  2  0  0  0  0  0  0
  161.1190  209.2500  153.9060 C   0  0  0  0  0  3  0  0  0  0  0  0
  161.2900  209.0610  151.4850 C   0  0  0  0  0  0  0  0  0  0  0  0
  161.1550  208.4640  152.7450 C   0  0  0  0  0  0  0  0  0  0  0  0
  161.0700  206.2610  151.6920 C   0  0  0  0  0  0  0  0  0  0  0  0
  160.8790  202.0250  149.0350 S   0  0  0  0  0  0  0  0  0  0  0  0
  162.3090  212.2850  147.5950 C   0  0  0  0  0  2  0  0  0  0  0  0
  161.2300  211.1070  150.0470 C   0  0  1  0  0  3  0  0  0  0  0  0
  161.0950  203.6680  148.4190 N   0  0  0  0  0  2  0  0  0  0  0  0
  161.7870  210.8480  147.6310 C   0  0  0  0  0  2  0  0  0  0  0  0
  160.9060  206.4740  154.1200 C   0  0  0  0  0  3  0  0  0  0  0  0
  161.0460  207.0590  152.8490 C   0  0  0  0  0  0  0  0  0  0  0  0
  160.9530  204.9060  151.8060 N   0  0  0  0  0  0  0  0  0  0  0  0
  161.5470  208.9170  149.0900 O   0  0  0  0  0  0  0  0  0  0  0  0
  161.3910  206.5780  147.6000 Cl  0  0  0  0  0  0  0  0  0  0  0  0
  162.0220  202.0240  151.5270 C   0  0  0  0  0  1  0  0  0  0  0  0
  161.2190  206.8600  150.4030 C   0  0  0  0  0  0  0  0  0  0  0  0
  160.9790  204.1030  150.7170 C   0  0  0  0  0  0  0  0  0  0  0  0
  160.2900  213.3610  148.3480 O   0  0  0  0  0  0  0  0  0  0  0  0
  160.3050  214.0530  147.1340 C   0  0  0  0  0  2  0  0  0  0  0  0
  159.2090  213.5530  146.2630 C   0  0  0  0  0  0  0  0  0  0  0  0
  159.4280  212.4670  145.4260 O   0  0  0  0  0  0  0  0  0  0  0  0
  158.0720  214.0890  146.3120 O   0  0  0  0  0  1  0  0  0  0  0  0
  1 28  1  6  0  0  0
  1 10  1  0  0  0  0
  2 26  2  0  0  0  0
  2 12  1  0  0  0  0
  3  4  1  0  0  0  0
  5  6  2  0  0  0  0
  5 26  1  0  0  0  0
  6 27  1  0  0  0  0
  7 19  1  6  0  0  0
  7 23  1  0  0  0  0
  7 17  1  0  0  0  0
  8 12  1  0  0  0  0
  9 25  1  1  0  0  0
 11  3  2  0  0  0  0
 12 13  2  0  0  0  0
 13 21  1  0  0  0  0
 13 11  1  0  0  0  0
 14 22  1  0  0  0  0
 14 21  2  0  0  0  0
 15  9  1  0  0  0  0
 16 19  1  0  0  0  0
 16  1  1  0  0  0  0
 17 10  1  1  0  0  0
 17  8  1  0  0  0  0
 18 15  1  0  0  0  0
 18  6  1  0  0  0  0
 20  4  2  0  0  0  0
 21 20  1  0  0  0  0
 23  2  1  0  0  0  0
 24  5  1  0  0  0  0
 26 14  1  0  0  0  0
 27  9  1  0  0  0  0
 27 22  2  0  0  0  0
 29 28  1  0  0  0  0
 30 32  1  0  0  0  0
 30 29  1  0  0  0  0
 31 30  2  0  0  0  0
M  END
>  <MODEL>
2

>  <REMARK>
 VINA RESULT:      -7.2      4.131      7.731
  Name = 
  3 active torsions:
  status: ('A' for Active; 'I' for Inactive)
    1  A    between atoms: C_1  and  C_10
    2  A    between atoms: C_2  and  O_24
    3  A    between atoms: C_10  and  O_24
                            x       y       z     vdW  Elec       q    Type
                         _______ _______ _______ _____ _____    ______ ____

>  <TORSDO>
F 3

$$$$
=
 OpenBabel11062410523D

 32 37  0  0  1  0  0  0  0  0999 V2000
  161.9160  212.2680  149.4070 C   0  0  1  0  0  3  0  0  0  0  0  0
  161.4520  207.1180  149.2430 C   0  0  0  0  0  0  0  0  0  0  0  0
  161.1150  205.7900  153.9180 C   0  0  0  0  0  3  0  0  0  0  0  0
  160.9580  204.4580  153.5320 C   0  0  0  0  0  3  0  0  0  0  0  0
  161.2480  205.3770  147.4600 C   0  0  0  0  0  0  0  0  0  0  0  0
  161.0710  204.0230  147.1620 C   0  0  0  0  0  0  0  0  0  0  0  0
  162.1620  209.4250  148.7230 C   0  0  2  0  0  3  0  0  0  0  0  0
  161.5500  208.8300  150.9970 N   0  0  0  0  0  2  0  0  0  0  0  0
  160.7400  201.6930  147.6930 C   0  0  1  0  0  3  0  0  0  0  0  0
  162.0290  211.1860  150.4890 C   0  0  0  0  0  2  0  0  0  0  0  0
  161.2710  206.7830  152.9490 C   0  0  0  0  0  3  0  0  0  0  0  0
  161.4250  207.4520  150.6140 C   0  0  0  0  0  0  0  0  0  0  0  0
  161.2730  206.4550  151.5850 C   0  0  0  0  0  0  0  0  0  0  0  0
  161.1020  204.7670  149.8270 C   0  0  0  0  0  0  0  0  0  0  0  0
  160.7410  201.7460  145.8550 S   0  0  0  0  0  0  0  0  0  0  0  0
  162.5500  211.8020  148.0880 C   0  0  0  0  0  2  0  0  0  0  0  0
  161.4370  209.8740  149.9880 C   0  0  1  0  0  3  0  0  0  0  0  0
  161.0170  203.4930  145.8520 N   0  0  0  0  0  2  0  0  0  0  0  0
  161.9740  210.4620  147.6260 C   0  0  0  0  0  2  0  0  0  0  0  0
  160.9550  204.1180  152.1770 C   0  0  0  0  0  3  0  0  0  0  0  0
  161.1110  205.1070  151.1910 C   0  0  0  0  0  0  0  0  0  0  0  0
  160.9340  203.4640  149.4600 N   0  0  0  0  0  0  0  0  0  0  0  0
  161.6680  208.1510  148.3170 O   0  0  0  0  0  0  0  0  0  0  0  0
  161.4180  206.4920  146.1020 Cl  0  0  0  0  0  0  0  0  0  0  0  0
  161.8930  200.8300  148.1680 C   0  0  0  0  0  1  0  0  0  0  0  0
  161.2680  205.7760  148.8280 C   0  0  0  0  0  0  0  0  0  0  0  0
  160.9250  203.0940  148.1580 C   0  0  0  0  0  0  0  0  0  0  0  0
  160.5760  212.6120  149.2050 O   0  0  0  0  0  0  0  0  0  0  0  0
  160.6120  213.6960  148.3250 C   0  0  0  0  0  2  0  0  0  0  0  0
  159.4730  213.6050  147.3740 C   0  0  0  0  0  0  0  0  0  0  0  0
  158.3100  214.3260  147.6120 O   0  0  0  0  0  1  0  0  0  0  0  0
  159.5760  212.9050  146.3330 O   0  0  0  0  0  0  0  0  0  0  0  0
  1 28  1  6  0  0  0
  1 10  1  0  0  0  0
  2 12  1  0  0  0  0
  4  3  1  0  0  0  0
  5 26  1  0  0  0  0
  6  5  2  0  0  0  0
  6 27  1  0  0  0  0
  7 19  1  6  0  0  0
  7 17  1  0  0  0  0
  9 27  1  0  0  0  0
  9 25  1  6  0  0  0
 11  3  2  0  0  0  0
 12  8  1  0  0  0  0
 12 13  2  0  0  0  0
 13 11  1  0  0  0  0
 14 21  2  0  0  0  0
 15  9  1  0  0  0  0
 16  1  1  0  0  0  0
 17 10  1  1  0  0  0
 17  8  1  0  0  0  0
 18 15  1  0  0  0  0
 18  6  1  0  0  0  0
 19 16  1  0  0  0  0
 20  4  2  0  0  0  0
 21 13  1  0  0  0  0
 21 20  1  0  0  0  0
 22 14  1  0  0  0  0
 23  7  1  0  0  0  0
 23  2  1  0  0  0  0
 24  5  1  0  0  0  0
 26  2  2  0  0  0  0
 26 14  1  0  0  0  0
 27 22  2  0  0  0  0
 29 28  1  0  0  0  0
 30 31  1  0  0  0  0
 30 29  1  0  0  0  0
 32 30  2  0  0  0  0
M  END
>  <MODEL>
3

>  <REMARK>
 VINA RESULT:      -7.0      4.328      8.370
  Name = 
  3 active torsions:
  status: ('A' for Active; 'I' for Inactive)
    1  A    between atoms: C_1  and  C_10
    2  A    between atoms: C_2  and  O_24
    3  A    between atoms: C_10  and  O_24
                            x       y       z     vdW  Elec       q    Type
                         _______ _______ _______ _____ _____    ______ ____

>  <TORSDO>
F 3

$$$$
=
 OpenBabel11062410523D

 32 37  0  0  1  0  0  0  0  0999 V2000
  160.6270  209.1070  156.1430 C   0  0  1  0  0  3  0  0  0  0  0  0
  161.2020  208.0220  151.1180 C   0  0  0  0  0  0  0  0  0  0  0  0
  161.8250  212.3690  149.0100 C   0  0  0  0  0  3  0  0  0  0  0  0
  161.9920  211.7490  147.7710 C   0  0  0  0  0  3  0  0  0  0  0  0
  161.3490  205.9540  149.7190 C   0  0  0  0  0  0  0  0  0  0  0  0
  161.5410  205.4150  148.4440 C   0  0  0  0  0  0  0  0  0  0  0  0
  160.4110  207.9500  153.4560 C   0  0  2  0  0  3  0  0  0  0  0  0
  161.1590  210.0510  152.4950 N   0  0  0  0  0  2  0  0  0  0  0  0
  161.9550  205.5130  146.0700 C   0  0  1  0  0  3  0  0  0  0  0  0
  160.5990  209.9870  154.8870 C   0  0  0  0  0  2  0  0  0  0  0  0
  161.5930  211.5980  150.1510 C   0  0  0  0  0  3  0  0  0  0  0  0
  161.2960  209.4270  151.2090 C   0  0  0  0  0  0  0  0  0  0  0  0
  161.5240  210.2000  150.0640 C   0  0  0  0  0  0  0  0  0  0  0  0
  161.6390  208.1670  148.7140 C   0  0  0  0  0  0  0  0  0  0  0  0
  161.8520  203.7150  146.4400 S   0  0  0  0  0  0  0  0  0  0  0  0
  159.9330  207.7600  155.8930 C   0  0  0  0  0  2  0  0  0  0  0  0
  161.1930  209.2360  153.7010 C   0  0  1  0  0  3  0  0  0  0  0  0
  161.5360  204.0310  148.1520 N   0  0  0  0  0  2  0  0  0  0  0  0
  160.5140  207.0430  154.6730 C   0  0  0  0  0  2  0  0  0  0  0  0
  161.9290  210.3580  147.6710 C   0  0  0  0  0  3  0  0  0  0  0  0
  161.6950  209.5690  148.8110 C   0  0  0  0  0  0  0  0  0  0  0  0
  161.8160  207.5700  147.5000 N   0  0  0  0  0  0  0  0  0  0  0  0
  160.9120  207.3020  152.2880 O   0  0  0  0  0  0  0  0  0  0  0  0
  161.0780  204.8220  151.0480 Cl  0  0  0  0  0  0  0  0  0  0  0  0
  160.8500  205.8870  145.1000 C   0  0  0  0  0  1  0  0  0  0  0  0
  161.3950  207.3700  149.8740 C   0  0  0  0  0  0  0  0  0  0  0  0
  161.7630  206.2240  147.3620 C   0  0  0  0  0  0  0  0  0  0  0  0
  161.9460  208.9020  156.5610 O   0  0  0  0  0  0  0  0  0  0  0  0
  162.2890  210.0670  157.2510 C   0  0  0  0  0  2  0  0  0  0  0  0
  163.4380  210.7260  156.5760 C   0  0  0  0  0  0  0  0  0  0  0  0
  163.4810  210.7980  155.1900 O   0  0  0  0  0  0  0  0  0  0  0  0
  164.3530  211.2530  157.2610 O   0  0  0  0  0  1  0  0  0  0  0  0
  1 28  1  6  0  0  0
  2 12  1  0  0  0  0
  2 23  1  0  0  0  0
  3 11  2  0  0  0  0
  4  3  1  0  0  0  0
  5 26  1  0  0  0  0
  5 24  1  0  0  0  0
  6  5  2  0  0  0  0
  7 17  1  0  0  0  0
  7 19  1  1  0  0  0
  8 17  1  0  0  0  0
  9 25  1  6  0  0  0
  9 15  1  0  0  0  0
  9 27  1  0  0  0  0
 10  1  1  0  0  0  0
 12  8  1  0  0  0  0
 13 11  1  0  0  0  0
 13 12  2  0  0  0  0
 14 21  2  0  0  0  0
 14 26  1  0  0  0  0
 15 18  1  0  0  0  0
 16  1  1  0  0  0  0
 17 10  1  1  0  0  0
 18  6  1  0  0  0  0
 19 16  1  0  0  0  0
 20  4  2  0  0  0  0
 20 21  1  0  0  0  0
 21 13  1  0  0  0  0
 22 14  1  0  0  0  0
 23  7  1  0  0  0  0
 26  2  2  0  0  0  0
 27 22  2  0  0  0  0
 27  6  1  0  0  0  0
 28 29  1  0  0  0  0
 30 29  1  0  0  0  0
 30 32  1  0  0  0  0
 31 30  2  0  0  0  0
M  END
>  <MODEL>
4

>  <REMARK>
 VINA RESULT:      -6.7      3.985      8.205
  Name = 
  3 active torsions:
  status: ('A' for Active; 'I' for Inactive)
    1  A    between atoms: C_1  and  C_10
    2  A    between atoms: C_2  and  O_24
    3  A    between atoms: C_10  and  O_24
                            x       y       z     vdW  Elec       q    Type
                         _______ _______ _______ _____ _____    ______ ____

>  <TORSDO>
F 3

$$$$
=
 OpenBabel11062410523D

 32 37  0  0  1  0  0  0  0  0999 V2000
  161.8500  204.1000  146.2020 C   0  0  1  0  0  3  0  0  0  0  0  0
  161.4910  207.2350  150.3020 C   0  0  0  0  0  0  0  0  0  0  0  0
  162.0000  211.7090  148.4460 C   0  0  0  0  0  3  0  0  0  0  0  0
  161.8110  212.2610  149.7140 C   0  0  0  0  0  3  0  0  0  0  0  0
  161.0230  206.9710  152.7450 C   0  0  0  0  0  0  0  0  0  0  0  0
  160.8310  207.6060  153.9740 C   0  0  0  0  0  0  0  0  0  0  0  0
  162.0430  205.2980  148.8740 C   0  0  2  0  0  3  0  0  0  0  0  0
  161.8490  207.5100  147.8920 N   0  0  0  0  0  2  0  0  0  0  0  0
  160.6540  209.5090  155.4470 C   0  0  1  0  0  3  0  0  0  0  0  0
  162.1750  205.5870  146.3970 C   0  0  0  0  0  2  0  0  0  0  0  0
  161.9620  210.3240  148.2750 C   0  0  0  0  0  3  0  0  0  0  0  0
  161.6930  208.0880  149.1970 C   0  0  0  0  0  0  0  0  0  0  0  0
  161.7360  209.4770  149.3700 C   0  0  0  0  0  0  0  0  0  0  0  0
  161.3040  209.1930  151.7580 C   0  0  0  0  0  0  0  0  0  0  0  0
  160.3360  208.0600  156.5340 S   0  0  0  0  0  0  0  0  0  0  0  0
  162.2570  203.2770  147.4330 C   0  0  0  0  0  2  0  0  0  0  0  0
  161.5370  206.1030  147.6820 C   0  0  1  0  0  3  0  0  0  0  0  0
  160.5640  206.9340  155.1900 N   0  0  0  0  0  2  0  0  0  0  0  0
  161.6430  203.8380  148.7170 C   0  0  0  0  0  2  0  0  0  0  0  0
  161.5820  211.4290  150.8120 C   0  0  0  0  0  3  0  0  0  0  0  0
  161.5410  210.0320  150.6540 C   0  0  0  0  0  0  0  0  0  0  0  0
  161.1080  209.7440  152.9910 N   0  0  0  0  0  0  0  0  0  0  0  0
  161.5170  205.8490  150.0800 O   0  0  0  0  0  0  0  0  0  0  0  0
  160.9290  205.2080  152.7180 Cl  0  0  0  0  0  0  0  0  0  0  0  0
  161.8920  210.2360  155.9350 C   0  0  0  0  0  1  0  0  0  0  0  0
  161.2700  207.7750  151.5940 C   0  0  0  0  0  0  0  0  0  0  0  0
  160.8820  208.9710  154.0790 C   0  0  0  0  0  0  0  0  0  0  0  0
  160.4870  203.9330  145.9380 O   0  0  0  0  0  0  0  0  0  0  0  0
  160.4370  203.0780  144.8350 C   0  0  0  0  0  2  0  0  0  0  0  0
  160.1490  201.6930  145.2910 C   0  0  0  0  0  0  0  0  0  0  0  0
  160.1740  201.3890  146.6460 O   0  0  0  0  0  1  0  0  0  0  0  0
  159.8440  200.8040  144.4540 O   0  0  0  0  0  0  0  0  0  0  0  0
  1 28  1  1  0  0  0
  1 10  1  0  0  0  0
  1 16  1  0  0  0  0
  2 26  1  0  0  0  0
  3  4  1  0  0  0  0
  4 20  2  0  0  0  0
  5  6  1  0  0  0  0
  6 27  2  0  0  0  0
  6 18  1  0  0  0  0
  7 19  1  6  0  0  0
  7 23  1  0  0  0  0
  8 12  1  0  0  0  0
  9 25  1  1  0  0  0
  9 15  1  0  0  0  0
 11  3  2  0  0  0  0
 11 13  1  0  0  0  0
 12 13  1  0  0  0  0
 12  2  2  0  0  0  0
 13 21  2  0  0  0  0
 14 22  2  0  0  0  0
 16 19  1  0  0  0  0
 17 10  1  6  0  0  0
 17  8  1  0  0  0  0
 17  7  1  0  0  0  0
 18 15  1  0  0  0  0
 21 20  1  0  0  0  0
 21 14  1  0  0  0  0
 22 27  1  0  0  0  0
 23  2  1  0  0  0  0
 24  5  1  0  0  0  0
 26 14  1  0  0  0  0
 26  5  2  0  0  0  0
 27  9  1  0  0  0  0
 29 30  1  0  0  0  0
 29 28  1  0  0  0  0
 30 31  1  0  0  0  0
 32 30  2  0  0  0  0
M  END
>  <MODEL>
5

>  <REMARK>
 VINA RESULT:      -6.5      1.056      1.402
  Name = 
  3 active torsions:
  status: ('A' for Active; 'I' for Inactive)
    1  A    between atoms: C_1  and  C_10
    2  A    between atoms: C_2  and  O_24
    3  A    between atoms: C_10  and  O_24
                            x       y       z     vdW  Elec       q    Type
                         _______ _______ _______ _____ _____    ______ ____

>  <TORSDO>
F 3

$$$$
=
 OpenBabel11062410523D

 32 37  0  0  1  0  0  0  0  0999 V2000
  160.8220  208.8820  156.1140 C   0  0  1  0  0  3  0  0  0  0  0  0
  161.0820  206.1550  151.7260 C   0  0  0  0  0  0  0  0  0  0  0  0
  161.8980  209.4960  148.2760 C   0  0  0  0  0  3  0  0  0  0  0  0
  161.9640  208.4900  147.3120 C   0  0  0  0  0  3  0  0  0  0  0  0
  161.0220  203.7360  151.0940 C   0  0  0  0  0  0  0  0  0  0  0  0
  161.1150  202.7920  150.0670 C   0  0  0  0  0  0  0  0  0  0  0  0
  160.4000  206.9230  153.9710 C   0  0  2  0  0  3  0  0  0  0  0  0
  161.2430  208.5210  152.3490 N   0  0  0  0  0  2  0  0  0  0  0  0
  161.4220  202.0660  147.7870 C   0  0  1  0  0  3  0  0  0  0  0  0
  160.7940  209.2970  154.6370 C   0  0  0  0  0  2  0  0  0  0  0  0
  161.6690  209.1670  149.6140 C   0  0  0  0  0  3  0  0  0  0  0  0
  161.2760  207.4980  151.3410 C   0  0  0  0  0  0  0  0  0  0  0  0
  161.5010  207.8280  149.9990 C   0  0  0  0  0  0  0  0  0  0  0  0
  161.4130  205.4610  149.4020 C   0  0  0  0  0  0  0  0  0  0  0  0
  161.2150  200.5060  148.7380 S   0  0  0  0  0  0  0  0  0  0  0  0
  160.0270  207.5880  156.3420 C   0  0  0  0  0  2  0  0  0  0  0  0
  161.2790  208.1500  153.7560 C   0  0  1  0  0  3  0  0  0  0  0  0
  161.0030  201.3940  150.2520 N   0  0  0  0  0  2  0  0  0  0  0  0
  160.4990  206.4630  155.4180 C   0  0  0  0  0  2  0  0  0  0  0  0
  161.8010  207.1530  147.6830 C   0  0  0  0  0  3  0  0  0  0  0  0
  161.5690  206.8070  149.0250 C   0  0  0  0  0  0  0  0  0  0  0  0
  161.4910  204.4840  148.4520 N   0  0  0  0  0  0  0  0  0  0  0  0
  160.8000  205.8880  153.0750 O   0  0  0  0  0  0  0  0  0  0  0  0
  160.7380  203.1320  152.7280 Cl  0  0  0  0  0  0  0  0  0  0  0  0
  160.3000  202.1850  146.7730 C   0  0  0  0  0  1  0  0  0  0  0  0
  161.1710  205.1150  150.7660 C   0  0  0  0  0  0  0  0  0  0  0  0
  161.3400  203.1780  148.7720 C   0  0  0  0  0  0  0  0  0  0  0  0
  162.1420  208.7220  156.5460 O   0  0  0  0  0  0  0  0  0  0  0  0
  162.4300  209.8870  157.2600 C   0  0  0  0  0  2  0  0  0  0  0  0
  163.4410  210.6880  156.5200 C   0  0  0  0  0  0  0  0  0  0  0  0
  164.5700  211.1580  157.1770 O   0  0  0  0  0  1  0  0  0  0  0  0
  163.2930  210.9060  155.2890 O   0  0  0  0  0  0  0  0  0  0  0  0
  1 16  1  0  0  0  0
  1 28  1  6  0  0  0
  2 23  1  0  0  0  0
  3 11  2  0  0  0  0
  4 20  2  0  0  0  0
  4  3  1  0  0  0  0
  5 24  1  0  0  0  0
  6 18  1  0  0  0  0
  6  5  2  0  0  0  0
  7 19  1  1  0  0  0
  8 17  1  0  0  0  0
  9 25  1  6  0  0  0
  9 15  1  0  0  0  0
  9 27  1  0  0  0  0
 10  1  1  0  0  0  0
 11 13  1  0  0  0  0
 12  2  1  0  0  0  0
 12  8  1  0  0  0  0
 13 12  2  0  0  0  0
 14 26  1  0  0  0  0
 15 18  1  0  0  0  0
 17  7  1  0  0  0  0
 17 10  1  1  0  0  0
 19 16  1  0  0  0  0
 20 21  1  0  0  0  0
 21 14  2  0  0  0  0
 21 13  1  0  0  0  0
 22 27  2  0  0  0  0
 22 14  1  0  0  0  0
 23  7  1  0  0  0  0
 26  5  1  0  0  0  0
 26  2  2  0  0  0  0
 27  6  1  0  0  0  0
 28 29  1  0  0  0  0
 30 31  1  0  0  0  0
 30 29  1  0  0  0  0
 32 30  2  0  0  0  0
M  END
>  <MODEL>
6

>  <REMARK>
 VINA RESULT:      -6.1      3.613      8.191
  Name = 
  3 active torsions:
  status: ('A' for Active; 'I' for Inactive)
    1  A    between atoms: C_1  and  C_10
    2  A    between atoms: C_2  and  O_24
    3  A    between atoms: C_10  and  O_24
                            x       y       z     vdW  Elec       q    Type
                         _______ _______ _______ _____ _____    ______ ____

>  <TORSDO>
F 3

$$$$
=
 OpenBabel11062410523D

 32 37  0  0  1  0  0  0  0  0999 V2000
  161.5690  203.2700  150.1280 C   0  0  1  0  0  3  0  0  0  0  0  0
  160.8550  207.9100  152.3030 C   0  0  0  0  0  0  0  0  0  0  0  0
  161.9940  211.0780  148.7820 C   0  0  0  0  0  3  0  0  0  0  0  0
  161.6620  212.1400  149.6250 C   0  0  0  0  0  3  0  0  0  0  0  0
  160.0080  208.7690  154.4930 C   0  0  0  0  0  0  0  0  0  0  0  0
  159.6860  209.8890  155.2650 C   0  0  0  0  0  0  0  0  0  0  0  0
  161.4560  205.5360  151.9890 C   0  0  2  0  0  3  0  0  0  0  0  0
  161.5900  207.0760  150.1170 N   0  0  0  0  0  2  0  0  0  0  0  0
  159.4440  212.2500  155.6960 C   0  0  1  0  0  3  0  0  0  0  0  0
  161.9800  204.6850  149.7010 C   0  0  0  0  0  2  0  0  0  0  0  0
  161.8700  209.7630  149.2350 C   0  0  0  0  0  3  0  0  0  0  0  0
  161.2880  208.1770  150.9870 C   0  0  0  0  0  0  0  0  0  0  0  0
  161.4160  209.4960  150.5350 C   0  0  0  0  0  0  0  0  0  0  0  0
  160.6110  210.3140  152.6920 C   0  0  0  0  0  0  0  0  0  0  0  0
  158.8520  211.4430  157.2380 S   0  0  0  0  0  0  0  0  0  0  0  0
  161.7200  203.0830  151.6450 C   0  0  0  0  0  2  0  0  0  0  0  0
  161.2010  205.7250  150.4980 C   0  0  1  0  0  3  0  0  0  0  0  0
  159.1860  209.8330  156.5870 N   0  0  0  0  0  2  0  0  0  0  0  0
  160.9680  204.1620  152.4260 C   0  0  0  0  0  2  0  0  0  0  0  0
  161.2060  211.8880  150.9210 C   0  0  0  0  0  3  0  0  0  0  0  0
  161.0770  210.5690  151.3900 C   0  0  0  0  0  0  0  0  0  0  0  0
  160.2770  211.3590  153.5040 N   0  0  0  0  0  0  0  0  0  0  0  0
  160.8020  206.5700  152.7210 O   0  0  0  0  0  0  0  0  0  0  0  0
  159.7770  207.1810  155.2300 Cl  0  0  0  0  0  0  0  0  0  0  0  0
  160.6500  213.1120  156.0160 C   0  0  0  0  0  1  0  0  0  0  0  0
  160.4880  208.9720  153.1660 C   0  0  0  0  0  0  0  0  0  0  0  0
  159.8300  211.1560  154.7650 C   0  0  0  0  0  0  0  0  0  0  0  0
  160.2520  203.0090  149.7370 O   0  0  0  0  0  0  0  0  0  0  0  0
  160.1930  201.6230  149.5770 C   0  0  0  0  0  2  0  0  0  0  0  0
  160.8600  201.2400  148.3050 C   0  0  0  0  0  0  0  0  0  0  0  0
  160.9690  202.1620  147.2730 O   0  0  0  0  0  0  0  0  0  0  0  0
  161.3620  200.0930  148.1790 O   0  0  0  0  0  1  0  0  0  0  0  0
  1 28  1  1  0  0  0
  1 16  1  0  0  0  0
  2 23  1  0  0  0  0
  2 26  1  0  0  0  0
  3 11  2  0  0  0  0
  3  4  1  0  0  0  0
  4 20  2  0  0  0  0
  5 24  1  0  0  0  0
  5  6  1  0  0  0  0
  6 18  1  0  0  0  0
  7 19  1  1  0  0  0
  7 23  1  0  0  0  0
  8 17  1  0  0  0  0
  8 12  1  0  0  0  0
  9 25  1  1  0  0  0
  9 15  1  0  0  0  0
 10  1  1  0  0  0  0
 11 13  1  0  0  0  0
 12  2  2  0  0  0  0
 13 12  1  0  0  0  0
 13 21  2  0  0  0  0
 14 26  1  0  0  0  0
 14 22  2  0  0  0  0
 16 19  1  0  0  0  0
 17 10  1  6  0  0  0
 17  7  1  0  0  0  0
 18 15  1  0  0  0  0
 20 21  1  0  0  0  0
 21 14  1  0  0  0  0
 22 27  1  0  0  0  0
 26  5  2  0  0  0  0
 27  6  2  0  0  0  0
 27  9  1  0  0  0  0
 29 28  1  0  0  0  0
 30 29  1  0  0  0  0
 31 30  2  0  0  0  0
 32 30  1  0  0  0  0
M  END
>  <MODEL>
7

>  <REMARK>
 VINA RESULT:      -5.6      1.871      2.417
  Name = 
  3 active torsions:
  status: ('A' for Active; 'I' for Inactive)
    1  A    between atoms: C_1  and  C_10
    2  A    between atoms: C_2  and  O_24
    3  A    between atoms: C_10  and  O_24
                            x       y       z     vdW  Elec       q    Type
                         _______ _______ _______ _____ _____    ______ ____

>  <TORSDO>
F 3

$$$$
=
 OpenBabel11062410523D

 32 37  0  0  1  0  0  0  0  0999 V2000
  161.2950  202.7070  148.1630 C   0  0  1  0  0  3  0  0  0  0  0  0
  161.3630  206.7570  151.3820 C   0  0  0  0  0  0  0  0  0  0  0  0
  162.0620  210.5990  148.4710 C   0  0  0  0  0  3  0  0  0  0  0  0
  161.9780  211.4530  149.5710 C   0  0  0  0  0  3  0  0  0  0  0  0
  161.0120  207.1270  153.8300 C   0  0  0  0  0  0  0  0  0  0  0  0
  160.9280  208.0530  154.8730 C   0  0  0  0  0  0  0  0  0  0  0  0
  161.7100  204.4960  150.4520 C   0  0  2  0  0  3  0  0  0  0  0  0
  161.6080  206.4140  148.9660 N   0  0  0  0  0  2  0  0  0  0  0  0
  160.9550  210.2620  155.8420 C   0  0  1  0  0  3  0  0  0  0  0  0
  161.7270  204.1680  147.9760 C   0  0  0  0  0  2  0  0  0  0  0  0
  161.9250  209.2210  148.6450 C   0  0  0  0  0  3  0  0  0  0  0  0
  161.5610  207.3000  150.0950 C   0  0  0  0  0  0  0  0  0  0  0  0
  161.7030  208.6820  149.9210 C   0  0  0  0  0  0  0  0  0  0  0  0
  161.3830  209.0170  152.3200 C   0  0  0  0  0  0  0  0  0  0  0  0
  160.6020  209.1470  157.2610 S   0  0  0  0  0  0  0  0  0  0  0  0
  161.7140  202.1770  149.5420 C   0  0  0  0  0  2  0  0  0  0  0  0
  161.1940  205.0270  149.1180 C   0  0  1  0  0  3  0  0  0  0  0  0
  160.6830  207.7160  156.2250 N   0  0  0  0  0  2  0  0  0  0  0  0
  161.2080  203.0770  150.6720 C   0  0  0  0  0  2  0  0  0  0  0  0
  161.7550  210.9300  150.8470 C   0  0  0  0  0  3  0  0  0  0  0  0
  161.6150  209.5450  151.0370 C   0  0  0  0  0  0  0  0  0  0  0  0
  161.2900  209.8620  153.3880 N   0  0  0  0  0  0  0  0  0  0  0  0
  161.2870  205.3600  151.5050 O   0  0  0  0  0  0  0  0  0  0  0  0
  160.8020  205.4220  154.2390 Cl  0  0  0  0  0  0  0  0  0  0  0  0
  162.2630  210.9890  156.0910 C   0  0  0  0  0  1  0  0  0  0  0  0
  161.2480  207.6080  152.5090 C   0  0  0  0  0  0  0  0  0  0  0  0
  161.0740  209.3940  154.6390 C   0  0  0  0  0  0  0  0  0  0  0  0
  159.9120  202.5860  147.9970 O   0  0  0  0  0  0  0  0  0  0  0  0
  159.6530  201.2200  148.1300 C   0  0  0  0  0  2  0  0  0  0  0  0
  158.5870  201.0120  149.1450 C   0  0  0  0  0  0  0  0  0  0  0  0
  158.9150  200.5490  150.4120 O   0  0  0  0  0  1  0  0  0  0  0  0
  157.3910  201.2930  148.8690 O   0  0  0  0  0  0  0  0  0  0  0  0
  1 28  1  1  0  0  0
  1 16  1  0  0  0  0
  2 23  1  0  0  0  0
  2 26  1  0  0  0  0
  3 11  2  0  0  0  0
  3  4  1  0  0  0  0
  4 20  2  0  0  0  0
  5 24  1  0  0  0  0
  5  6  1  0  0  0  0
  6 18  1  0  0  0  0
  7 19  1  1  0  0  0
  7 23  1  0  0  0  0
  8 17  1  0  0  0  0
  8 12  1  0  0  0  0
  9 25  1  1  0  0  0
  9 15  1  0  0  0  0
 10  1  1  0  0  0  0
 11 13  1  0  0  0  0
 12  2  2  0  0  0  0
 13 12  1  0  0  0  0
 13 21  2  0  0  0  0
 14 26  1  0  0  0  0
 14 22  2  0  0  0  0
 16 19  1  0  0  0  0
 17 10  1  6  0  0  0
 17  7  1  0  0  0  0
 18 15  1  0  0  0  0
 20 21  1  0  0  0  0
 21 14  1  0  0  0  0
 22 27  1  0  0  0  0
 26  5  2  0  0  0  0
 27  6  2  0  0  0  0
 27  9  1  0  0  0  0
 28 29  1  0  0  0  0
 29 30  1  0  0  0  0
 30 31  1  0  0  0  0
 32 30  2  0  0  0  0
M  END
>  <MODEL>
8

>  <REMARK>
 VINA RESULT:      -4.8      1.168      1.682
  Name = 
  3 active torsions:
  status: ('A' for Active; 'I' for Inactive)
    1  A    between atoms: C_1  and  C_10
    2  A    between atoms: C_2  and  O_24
    3  A    between atoms: C_10  and  O_24
                            x       y       z     vdW  Elec       q    Type
                         _______ _______ _______ _____ _____    ______ ____

>  <TORSDO>
F 3

$$$$
=
 OpenBabel11062410523D

 32 37  0  0  1  0  0  0  0  0999 V2000
  161.8990  213.3310  147.1810 C   0  0  1  0  0  3  0  0  0  0  0  0
  159.6910  213.2510  142.5030 C   0  0  0  0  0  0  0  0  0  0  0  0
  163.0620  211.2450  139.6140 C   0  0  0  0  0  3  0  0  0  0  0  0
  162.1840  211.3190  138.5320 C   0  0  0  0  0  3  0  0  0  0  0  0
  157.4540  213.8320  141.5490 C   0  0  0  0  0  0  0  0  0  0  0  0
  156.6360  213.8570  140.4160 C   0  0  0  0  0  0  0  0  0  0  0  0
  160.3600  213.9750  144.7670 C   0  0  2  0  0  3  0  0  0  0  0  0
  161.8520  212.5830  143.4500 N   0  0  0  0  0  2  0  0  0  0  0  0
  156.1070  213.4800  138.0930 C   0  0  1  0  0  3  0  0  0  0  0  0
  162.4650  213.0870  145.7760 C   0  0  0  0  0  2  0  0  0  0  0  0
  162.6590  211.7000  140.8710 C   0  0  0  0  0  3  0  0  0  0  0  0
  160.9720  212.6890  142.3200 C   0  0  0  0  0  0  0  0  0  0  0  0
  161.3760  212.2360  141.0580 C   0  0  0  0  0  0  0  0  0  0  0  0
  159.1930  212.8360  140.1430 C   0  0  0  0  0  0  0  0  0  0  0  0
  154.5600  214.1730  138.8050 S   0  0  0  0  0  0  0  0  0  0  0  0
  160.8380  214.4420  147.1660 C   0  0  0  0  0  2  0  0  0  0  0  0
  161.3350  212.8020  144.7930 C   0  0  1  0  0  3  0  0  0  0  0  0
  155.3030  214.3320  140.4020 N   0  0  0  0  0  2  0  0  0  0  0  0
  159.7370  214.1590  146.1420 C   0  0  0  0  0  2  0  0  0  0  0  0
  160.9030  211.8480  138.7050 C   0  0  0  0  0  3  0  0  0  0  0  0
  160.4850  212.3110  139.9650 C   0  0  0  0  0  0  0  0  0  0  0  0
  158.3380  212.8930  139.0810 N   0  0  0  0  0  0  0  0  0  0  0  0
  159.3610  213.7430  143.7760 O   0  0  0  0  0  0  0  0  0  0  0  0
  156.7700  214.4420  143.0590 Cl  0  0  0  0  0  0  0  0  0  0  0  0
  156.6220  214.4140  137.0150 C   0  0  0  0  0  1  0  0  0  0  0  0
  158.7740  213.3110  141.4240 C   0  0  0  0  0  0  0  0  0  0  0  0
  157.0880  213.3980  139.2090 C   0  0  0  0  0  0  0  0  0  0  0  0
  161.3560  212.1500  147.6960 O   0  0  0  0  0  0  0  0  0  0  0  0
  161.7080  212.1530  149.0480 C   0  0  0  0  0  2  0  0  0  0  0  0
  162.0310  210.7690  149.4820 C   0  0  0  0  0  0  0  0  0  0  0  0
  162.0380  210.4490  150.8340 O   0  0  0  0  0  1  0  0  0  0  0  0
  162.2590  209.8770  148.6240 O   0  0  0  0  0  0  0  0  0  0  0  0
  1 28  1  6  0  0  0
  2 23  1  0  0  0  0
  3 11  2  0  0  0  0
  4 20  2  0  0  0  0
  4  3  1  0  0  0  0
  5 24  1  0  0  0  0
  6  5  2  0  0  0  0
  7 17  1  0  0  0  0
  7 19  1  1  0  0  0
  8 17  1  0  0  0  0
  9 25  1  6  0  0  0
  9 15  1  0  0  0  0
  9 27  1  0  0  0  0
 10  1  1  0  0  0  0
 11 13  1  0  0  0  0
 12  2  1  0  0  0  0
 12  8  1  0  0  0  0
 13 12  2  0  0  0  0
 14 26  1  0  0  0  0
 15 18  1  0  0  0  0
 16  1  1  0  0  0  0
 17 10  1  1  0  0  0
 18  6  1  0  0  0  0
 19 16  1  0  0  0  0
 20 21  1  0  0  0  0
 21 14  2  0  0  0  0
 21 13  1  0  0  0  0
 22 27  2  0  0  0  0
 22 14  1  0  0  0  0
 23  7  1  0  0  0  0
 26  5  1  0  0  0  0
 26  2  2  0  0  0  0
 27  6  1  0  0  0  0
 28 29  1  0  0  0  0
 29 30  1  0  0  0  0
 30 31  1  0  0  0  0
 32 30  2  0  0  0  0
M  END
>  <MODEL>
9

>  <REMARK>
 VINA RESULT:      -4.3      9.272     12.893
  Name = 
  3 active torsions:
  status: ('A' for Active; 'I' for Inactive)
    1  A    between atoms: C_1  and  C_10
    2  A    between atoms: C_2  and  O_24
    3  A    between atoms: C_10  and  O_24
                            x       y       z     vdW  Elec       q    Type
                         _______ _______ _______ _____ _____    ______ ____

>  <TORSDO>
F 3

$$$$
