=
 OpenBabel11062408173D

 32 38  0  0  1  0  0  0  0  0999 V2000
  160.5800  208.9800  154.1690 C   0  0  1  0  0  3  0  0  0  0  0  0
  156.4730  210.8940  154.7910 C   0  0  0  0  0  3  0  0  0  0  0  0
  160.9760  210.4450  154.4840 C   0  0  1  0  0  3  0  0  0  0  0  0
  161.1290  209.1810  151.7290 C   0  0  2  0  0  3  0  0  0  0  0  0
  158.5560  213.8680  154.4200 C   0  0  0  0  0  2  0  0  0  0  0  0
  161.2500  211.3460  153.2340 C   0  0  1  0  0  3  0  0  0  0  0  0
  158.0080  212.9510  152.0790 C   0  0  0  0  0  2  0  0  0  0  0  0
  159.0190  211.8630  152.4710 C   0  0  2  0  0  0  0  0  0  0  0  0
  161.0480  210.7020  151.8410 C   0  0  2  0  0  3  0  0  0  0  0  0
  156.7290  211.0090  157.1820 C   0  0  0  0  0  3  0  0  0  0  0  0
  158.7230  210.9380  155.7570 C   0  0  0  0  0  0  0  0  0  0  0  0
  159.6990  211.2100  151.2870 C   0  0  0  0  0  2  0  0  0  0  0  0
  161.4470  208.4440  153.0240 C   0  0  2  0  0  3  0  0  0  0  0  0
  155.9020  210.9660  156.0620 C   0  0  0  0  0  0  0  0  0  0  0  0
  158.1140  211.0130  157.0260 C   0  0  0  0  0  3  0  0  0  0  0  0
  157.8610  210.9000  154.6180 C   0  0  0  0  0  0  0  0  0  0  0  0
  158.3260  210.7010  153.2120 C   0  0  0  0  0  2  0  0  0  0  0  0
  160.4570  212.6880  155.6500 C   0  0  0  0  0  2  0  0  0  0  0  0
  162.0610  208.8440  150.7450 O   0  0  0  0  0  1  0  0  0  0  0  0
  160.2450  211.1640  155.6880 C   0  0  2  0  0  0  0  0  0  0  0  0
  160.2360  212.4570  153.1480 C   0  0  1  0  0  3  0  0  0  0  0  0
  161.2020  206.9590  152.7840 C   0  0  0  0  0  1  0  0  0  0  0  0
  158.0270  214.1830  153.0130 C   0  0  0  0  0  2  0  0  0  0  0  0
  159.9990  213.3500  154.3590 C   0  0  1  0  0  3  0  0  0  0  0  0
  154.0740  210.0330  157.2610 O   0  0  0  0  0  0  0  0  0  0  0  0
  153.8890  209.5710  155.9470 C   0  0  0  0  0  2  0  0  0  0  0  0
  154.4160  210.9280  156.2270 C   0  0  2  0  0  3  0  0  0  0  0  0
  160.7060  207.8890  155.6320 S   0  0  0  0  0  0  0  0  0  0  0  0
  158.9590  207.4130  155.5160 C   0  0  0  0  0  1  0  0  0  0  0  0
  161.0570  210.6280  157.2610 S   0  0  0  0  0  0  0  0  0  0  0  0
  162.4780  211.7650  157.1730 C   0  0  0  0  0  2  0  0  0  0  0  0
  163.7540  210.9670  157.0150 C   0  0  0  0  0  1  0  0  0  0  0  0
  1  3  1  0  0  0  0
  1 28  1  1  0  0  0
  2 14  1  0  0  0  0
  3 20  1  0  0  0  0
  4  9  1  0  0  0  0
  4 13  1  0  0  0  0
  6  3  1  0  0  0  0
  7  8  1  0  0  0  0
  7 23  1  0  0  0  0
  8 21  1  0  0  0  0
  8 17  1  0  0  0  0
  9  6  1  0  0  0  0
 11 15  2  0  0  0  0
 12  9  1  0  0  0  0
 12  8  1  0  0  0  0
 13  1  1  0  0  0  0
 14 27  1  0  0  0  0
 14 10  2  0  0  0  0
 15 10  1  0  0  0  0
 16  2  2  0  0  0  0
 16 11  1  0  0  0  0
 17 16  1  0  0  0  0
 18 20  1  0  0  0  0
 19  4  1  0  0  0  0
 20 11  1  0  0  0  0
 20 30  1  0  0  0  0
 21  6  1  0  0  0  0
 21 24  1  0  0  0  0
 22 13  1  0  0  0  0
 23  5  1  0  0  0  0
 24  5  1  0  0  0  0
 24 18  1  0  0  0  0
 26 27  1  0  0  0  0
 26 25  1  0  0  0  0
 27 25  1  0  0  0  0
 29 28  1  0  0  0  0
 31 30  1  0  0  0  0
 32 31  1  0  0  0  0
M  END
>  <MODEL>
1

>  <REMARK>
 VINA RESULT:       0.9      0.000      0.000
  Name = 
  4 active torsions:
  status: ('A' for Active; 'I' for Inactive)
    1  A    between atoms: S_1  and  C_4
    2  A    between atoms: S_1  and  C_27
    3  A    between atoms: C_2  and  S_14
    4  A    between atoms: C_19  and  C_26
                            x       y       z     vdW  Elec       q    Type
                         _______ _______ _______ _____ _____    ______ ____

>  <TORSDO>
F 4

$$$$
=
 OpenBabel11062408173D

 32 38  0  0  1  0  0  0  0  0999 V2000
  160.8310  208.4990  154.6780 C   0  0  1  0  0  3  0  0  0  0  0  0
  156.9780  210.9460  154.9800 C   0  0  0  0  0  3  0  0  0  0  0  0
  161.3870  209.9450  154.6150 C   0  0  1  0  0  3  0  0  0  0  0  0
  161.2390  208.0580  152.2430 C   0  0  2  0  0  3  0  0  0  0  0  0
  159.3140  213.5010  153.8220 C   0  0  0  0  0  2  0  0  0  0  0  0
  161.6670  210.4900  153.1760 C   0  0  1  0  0  3  0  0  0  0  0  0
  158.5300  212.1240  151.7940 C   0  0  0  0  0  2  0  0  0  0  0  0
  159.4520  211.0550  152.3970 C   0  0  2  0  0  0  0  0  0  0  0  0
  161.3140  209.5620  151.9870 C   0  0  2  0  0  3  0  0  0  0  0  0
  157.3970  211.5920  157.2610 C   0  0  0  0  0  3  0  0  0  0  0  0
  159.2790  210.9680  155.8180 C   0  0  0  0  0  0  0  0  0  0  0  0
  159.9880  210.0700  151.3800 C   0  0  0  0  0  2  0  0  0  0  0  0
  161.5660  207.6170  153.6630 C   0  0  2  0  0  3  0  0  0  0  0  0
  156.4990  211.3780  156.2180 C   0  0  0  0  0  0  0  0  0  0  0  0
  158.7630  211.4060  157.0550 C   0  0  0  0  0  3  0  0  0  0  0  0
  158.3460  210.7580  154.7570 C   0  0  0  0  0  0  0  0  0  0  0  0
  158.6980  210.1830  153.4230 C   0  0  0  0  0  2  0  0  0  0  0  0
  161.1650  212.4420  155.2260 C   0  0  0  0  0  2  0  0  0  0  0  0
  162.0680  207.3980  151.3330 O   0  0  0  0  0  1  0  0  0  0  0  0
  160.8090  211.0030  155.6380 C   0  0  2  0  0  0  0  0  0  0  0  0
  160.7630  211.6540  152.8630 C   0  0  1  0  0  3  0  0  0  0  0  0
  161.1620  206.1530  153.7980 C   0  0  0  0  0  1  0  0  0  0  0  0
  158.7290  213.5310  152.4020 C   0  0  0  0  0  2  0  0  0  0  0  0
  160.6920  212.8270  153.8310 C   0  0  1  0  0  3  0  0  0  0  0  0
  154.5630  212.6700  155.7390 O   0  0  0  0  0  0  0  0  0  0  0  0
  154.7420  212.8290  157.1240 C   0  0  0  0  0  2  0  0  0  0  0  0
  155.0300  211.5430  156.4450 C   0  0  2  0  0  3  0  0  0  0  0  0
  160.9430  207.7770  156.3560 S   0  0  0  0  0  0  0  0  0  0  0  0
  159.2200  207.2100  156.3040 C   0  0  0  0  0  1  0  0  0  0  0  0
  161.6630  210.7660  157.2610 S   0  0  0  0  0  0  0  0  0  0  0  0
  163.3550  210.6210  156.5990 C   0  0  0  0  0  2  0  0  0  0  0  0
  164.2340  211.6820  157.2260 C   0  0  0  0  0  1  0  0  0  0  0  0
  1 28  1  1  0  0  0
  2 14  1  0  0  0  0
  3  1  1  0  0  0  0
  3 20  1  0  0  0  0
  4 13  1  0  0  0  0
  5 24  1  0  0  0  0
  6  3  1  0  0  0  0
  7  8  1  0  0  0  0
  7 23  1  0  0  0  0
  8 21  1  0  0  0  0
  8 17  1  0  0  0  0
  9  4  1  0  0  0  0
  9  6  1  0  0  0  0
 11 15  2  0  0  0  0
 12  9  1  0  0  0  0
 12  8  1  0  0  0  0
 13 22  1  0  0  0  0
 13  1  1  0  0  0  0
 14 27  1  0  0  0  0
 14 10  2  0  0  0  0
 15 10  1  0  0  0  0
 16  2  2  0  0  0  0
 16 11  1  0  0  0  0
 17 16  1  0  0  0  0
 18 20  1  0  0  0  0
 19  4  1  0  0  0  0
 20 11  1  0  0  0  0
 20 30  1  0  0  0  0
 21  6  1  0  0  0  0
 21 24  1  0  0  0  0
 23  5  1  0  0  0  0
 24 18  1  0  0  0  0
 25 27  1  0  0  0  0
 25 26  1  0  0  0  0
 27 26  1  0  0  0  0
 29 28  1  0  0  0  0
 31 32  1  0  0  0  0
 31 30  1  0  0  0  0
M  END
>  <MODEL>
2

>  <REMARK>
 VINA RESULT:       2.2      1.109      1.250
  Name = 
  4 active torsions:
  status: ('A' for Active; 'I' for Inactive)
    1  A    between atoms: S_1  and  C_4
    2  A    between atoms: S_1  and  C_27
    3  A    between atoms: C_2  and  S_14
    4  A    between atoms: C_19  and  C_26
                            x       y       z     vdW  Elec       q    Type
                         _______ _______ _______ _____ _____    ______ ____

>  <TORSDO>
F 4

$$$$
=
 OpenBabel11062408173D

 32 38  0  0  1  0  0  0  0  0999 V2000
  158.2680  211.3400  153.7170 C   0  0  1  0  0  3  0  0  0  0  0  0
  160.2480  207.2210  153.9060 C   0  0  0  0  0  3  0  0  0  0  0  0
  159.7290  211.7250  154.0640 C   0  0  1  0  0  3  0  0  0  0  0  0
  157.4100  211.8560  156.0170 C   0  0  2  0  0  3  0  0  0  0  0  0
  162.7870  209.2680  155.5450 C   0  0  0  0  0  2  0  0  0  0  0  0
  160.0120  211.9730  155.5830 C   0  0  1  0  0  3  0  0  0  0  0  0
  160.9550  208.7000  157.2610 C   0  0  0  0  0  2  0  0  0  0  0  0
  160.1430  209.7270  156.4590 C   0  0  2  0  0  0  0  0  0  0  0  0
  158.8330  211.7600  156.5650 C   0  0  2  0  0  3  0  0  0  0  0  0
  161.3730  207.5060  151.7980 C   0  0  0  0  0  3  0  0  0  0  0  0
  160.7090  209.4830  153.0880 C   0  0  0  0  0  0  0  0  0  0  0  0
  159.0500  210.3990  157.2610 C   0  0  0  0  0  2  0  0  0  0  0  0
  157.2990  212.1990  154.5380 C   0  0  2  0  0  3  0  0  0  0  0  0
  160.8530  206.6650  152.7780 C   0  0  0  0  0  0  0  0  0  0  0  0
  161.3160  208.8890  151.9620 C   0  0  0  0  0  3  0  0  0  0  0  0
  160.1850  208.6070  154.0870 C   0  0  0  0  0  0  0  0  0  0  0  0
  159.4060  209.0560  155.2810 C   0  0  0  0  0  2  0  0  0  0  0  0
  162.2530  211.1960  153.9590 C   0  0  0  0  0  2  0  0  0  0  0  0
  156.6900  212.7790  156.7790 O   0  0  0  0  0  1  0  0  0  0  0  0
  160.8900  211.0020  153.2710 C   0  0  2  0  0  0  0  0  0  0  0  0
  160.9750  210.9460  156.1190 C   0  0  1  0  0  3  0  0  0  0  0  0
  155.8520  211.9660  154.1170 C   0  0  0  0  0  1  0  0  0  0  0  0
  162.4680  208.7180  156.9430 C   0  0  0  0  0  2  0  0  0  0  0  0
  162.2980  210.7150  155.4020 C   0  0  1  0  0  3  0  0  0  0  0  0
  161.9700  204.8280  151.7670 O   0  0  0  0  0  0  0  0  0  0  0  0
  160.7030  204.8280  151.1610 C   0  0  0  0  0  2  0  0  0  0  0  0
  160.8830  205.1820  152.5890 C   0  0  2  0  0  3  0  0  0  0  0  0
  157.9070  211.4960  151.9300 S   0  0  0  0  0  0  0  0  0  0  0  0
  157.9080  213.3070  152.0150 C   0  0  0  0  0  1  0  0  0  0  0  0
  161.0810  211.8390  151.6330 S   0  0  0  0  0  0  0  0  0  0  0  0
  162.3820  210.7440  150.9770 C   0  0  0  0  0  2  0  0  0  0  0  0
  162.2800  210.6880  149.4690 C   0  0  0  0  0  1  0  0  0  0  0  0
  1 28  1  6  0  0  0
  1  3  1  0  0  0  0
  1 13  1  0  0  0  0
  2 16  1  0  0  0  0
  3  6  1  0  0  0  0
  4  9  1  0  0  0  0
  4 19  1  0  0  0  0
  5 23  1  0  0  0  0
  6 21  1  0  0  0  0
  6  9  1  0  0  0  0
  8 12  1  0  0  0  0
  8  7  1  0  0  0  0
  9 12  1  0  0  0  0
 10 15  2  0  0  0  0
 10 14  1  0  0  0  0
 11 20  1  0  0  0  0
 11 16  2  0  0  0  0
 13  4  1  0  0  0  0
 14  2  2  0  0  0  0
 15 11  1  0  0  0  0
 16 17  1  0  0  0  0
 17  8  1  0  0  0  0
 18 24  1  0  0  0  0
 20 18  1  0  0  0  0
 20  3  1  0  0  0  0
 21  8  1  0  0  0  0
 22 13  1  0  0  0  0
 23  7  1  0  0  0  0
 24  5  1  0  0  0  0
 24 21  1  0  0  0  0
 25 27  1  0  0  0  0
 26 25  1  0  0  0  0
 26 27  1  0  0  0  0
 27 14  1  0  0  0  0
 28 29  1  0  0  0  0
 30 20  1  0  0  0  0
 31 30  1  0  0  0  0
 32 31  1  0  0  0  0
M  END
>  <MODEL>
3

>  <REMARK>
 VINA RESULT:       2.7      2.290      6.246
  Name = 
  4 active torsions:
  status: ('A' for Active; 'I' for Inactive)
    1  A    between atoms: S_1  and  C_4
    2  A    between atoms: S_1  and  C_27
    3  A    between atoms: C_2  and  S_14
    4  A    between atoms: C_19  and  C_26
                            x       y       z     vdW  Elec       q    Type
                         _______ _______ _______ _____ _____    ______ ____

>  <TORSDO>
F 4

$$$$
=
 OpenBabel11062408173D

 32 38  0  0  1  0  0  0  0  0999 V2000
  160.0830  208.5790  155.2920 C   0  0  1  0  0  3  0  0  0  0  0  0
  158.7900  211.4960  152.0150 C   0  0  0  0  0  3  0  0  0  0  0  0
  161.4550  209.1230  154.8170 C   0  0  1  0  0  3  0  0  0  0  0  0
  160.4060  206.3400  154.2070 C   0  0  2  0  0  3  0  0  0  0  0  0
  162.3520  211.1850  151.2780 C   0  0  0  0  0  2  0  0  0  0  0  0
  162.2040  208.2260  153.7760 C   0  0  1  0  0  3  0  0  0  0  0  0
  161.1220  209.1670  150.2600 C   0  0  0  0  0  2  0  0  0  0  0  0
  161.0290  208.7190  151.7260 C   0  0  2  0  0  0  0  0  0  0  0  0
  161.4830  206.9390  153.3030 C   0  0  2  0  0  3  0  0  0  0  0  0
  159.2360  213.4370  153.3670 C   0  0  0  0  0  3  0  0  0  0  0  0
  160.4080  211.3370  153.8470 C   0  0  0  0  0  0  0  0  0  0  0  0
  160.9090  207.2200  151.8980 C   0  0  0  0  0  2  0  0  0  0  0  0
  160.1790  207.0670  155.5260 C   0  0  2  0  0  3  0  0  0  0  0  0
  158.5610  212.8420  152.3040 C   0  0  0  0  0  0  0  0  0  0  0  0
  160.1550  212.6990  154.1110 C   0  0  0  0  0  3  0  0  0  0  0  0
  159.7120  210.7420  152.7500 C   0  0  0  0  0  0  0  0  0  0  0  0
  159.7650  209.2900  152.4020 C   0  0  0  0  0  2  0  0  0  0  0  0
  162.8530  211.0260  153.7770 C   0  0  0  0  0  2  0  0  0  0  0  0
  160.7050  204.9970  154.4440 O   0  0  0  0  0  1  0  0  0  0  0  0
  161.5900  210.6810  154.5860 C   0  0  2  0  0  0  0  0  0  0  0  0
  162.3370  208.9400  152.4560 C   0  0  1  0  0  3  0  0  0  0  0  0
  158.9000  206.5140  156.1440 C   0  0  0  0  0  1  0  0  0  0  0  0
  162.1180  210.3260  150.0270 C   0  0  0  0  0  2  0  0  0  0  0  0
  162.9320  210.3410  152.4210 C   0  0  1  0  0  3  0  0  0  0  0  0
  157.5110  213.1570  150.1960 O   0  0  0  0  0  0  0  0  0  0  0  0
  158.1940  214.3640  150.4180 C   0  0  0  0  0  2  0  0  0  0  0  0
  157.5490  213.6210  151.5260 C   0  0  2  0  0  3  0  0  0  0  0  0
  159.4780  209.4230  156.7990 S   0  0  0  0  0  0  0  0  0  0  0  0
  158.1230  210.2200  155.8940 C   0  0  0  0  0  1  0  0  0  0  0  0
  161.8630  211.4870  156.2270 S   0  0  0  0  0  0  0  0  0  0  0  0
  163.2930  210.4770  156.7330 C   0  0  0  0  0  2  0  0  0  0  0  0
  164.3870  211.3790  157.2600 C   0  0  0  0  0  1  0  0  0  0  0  0
  1 13  1  0  0  0  0
  1 28  1  1  0  0  0
  2 14  2  0  0  0  0
  2 16  1  0  0  0  0
  3  1  1  0  0  0  0
  4 19  1  0  0  0  0
  4 13  1  0  0  0  0
  5 24  1  0  0  0  0
  6  3  1  0  0  0  0
  7  8  1  0  0  0  0
  8 12  1  0  0  0  0
  8 17  1  0  0  0  0
  8 21  1  0  0  0  0
  9  6  1  0  0  0  0
  9  4  1  0  0  0  0
 10 15  2  0  0  0  0
 11 15  1  0  0  0  0
 11 20  1  0  0  0  0
 12  9  1  0  0  0  0
 13 22  1  0  0  0  0
 14 10  1  0  0  0  0
 16 11  2  0  0  0  0
 17 16  1  0  0  0  0
 18 20  1  0  0  0  0
 20  3  1  0  0  0  0
 20 30  1  0  0  0  0
 21  6  1  0  0  0  0
 23  7  1  0  0  0  0
 23  5  1  0  0  0  0
 24 21  1  0  0  0  0
 24 18  1  0  0  0  0
 25 26  1  0  0  0  0
 25 27  1  0  0  0  0
 26 27  1  0  0  0  0
 27 14  1  0  0  0  0
 29 28  1  0  0  0  0
 30 31  1  0  0  0  0
 31 32  1  0  0  0  0
M  END
>  <MODEL>
4

>  <REMARK>
 VINA RESULT:       3.6      2.422      4.291
  Name = 
  4 active torsions:
  status: ('A' for Active; 'I' for Inactive)
    1  A    between atoms: S_1  and  C_4
    2  A    between atoms: S_1  and  C_27
    3  A    between atoms: C_2  and  S_14
    4  A    between atoms: C_19  and  C_26
                            x       y       z     vdW  Elec       q    Type
                         _______ _______ _______ _____ _____    ______ ____

>  <TORSDO>
F 4

$$$$
