=
 OpenBabel11062408363D

 55 60  0  0  1  0  0  0  0  0999 V2000
  160.3590  209.3760  152.6130 C   0  0  0  0  0  3  0  0  0  0  0  0
  161.1540  205.8180  149.5680 C   0  0  0  0  0  2  0  0  0  0  0  0
  160.8030  207.4210  146.3400 C   0  0  0  0  0  1  0  0  0  0  0  0
  162.4230  211.8880  148.5750 C   0  0  1  0  0  0  0  0  0  0  0  0
  163.4440  212.7650  147.9700 C   0  0  0  0  0  2  0  0  0  0  0  0
  161.0420  208.6120  148.4280 C   0  0  0  0  0  0  0  0  0  0  0  0
  162.2940  212.3620  147.2580 O   0  0  0  0  0  0  0  0  0  0  0  0
  160.5280  208.7520  155.0000 C   0  0  0  0  0  3  0  0  0  0  0  0
  162.6710  210.3850  148.6060 C   0  0  2  0  0  3  0  0  0  0  0  0
  160.8080  206.0370  154.3440 C   0  0  0  0  0  0  0  0  0  0  0  0
  160.8140  209.1830  151.3760 C   0  0  0  0  0  3  0  0  0  0  0  0
  160.6390  206.9990  153.3370 C   0  0  0  0  0  3  0  0  0  0  0  0
  161.0960  211.6090  150.6920 C   0  0  2  0  0  3  0  0  0  0  0  0
  160.4960  204.7830  150.4560 C   0  0  0  0  0  2  0  0  0  0  0  0
  161.3850  212.5210  149.4950 C   0  0  0  0  0  2  0  0  0  0  0  0
  160.1250  206.3670  148.5920 C   0  0  0  0  0  2  0  0  0  0  0  0
  160.6850  207.5150  147.8180 C   0  0  0  0  0  0  0  0  0  0  0  0
  160.7120  207.8010  156.0080 C   0  0  0  0  0  3  0  0  0  0  0  0
  161.3700  204.5000  151.6620 C   0  0  1  0  0  3  0  0  0  0  0  0
  160.5070  208.3570  153.6590 C   0  0  0  0  0  0  0  0  0  0  0  0
  161.4240  209.6890  149.0610 C   0  0  0  0  0  0  0  0  0  0  0  0
  160.6540  210.1830  150.2650 C   0  0  1  0  0  3  0  0  0  0  0  0
  160.4670  204.1060  152.8200 C   0  0  0  0  0  2  0  0  0  0  0  0
  160.9150  204.6740  154.0480 O   0  0  0  0  0  0  0  0  0  0  0  0
  160.8600  206.4480  155.6800 C   0  0  0  0  0  3  0  0  0  0  0  0
  159.0510  213.0130  151.0100 C   0  0  0  0  0  3  0  0  0  0  0  0
  158.1590  213.4950  153.2160 C   0  0  0  0  0  0  0  0  0  0  0  0
  160.1560  212.1350  152.9770 C   0  0  0  0  0  3  0  0  0  0  0  0
  159.1950  212.7450  153.7880 C   0  0  0  0  0  3  0  0  0  0  0  0
  158.0930  213.6240  151.8230 C   0  0  0  0  0  3  0  0  0  0  0  0
  160.0890  212.2710  151.5840 C   0  0  0  0  0  0  0  0  0  0  0  0
  157.1420  214.1350  154.0660 C   0  0  0  0  0  0  0  0  0  0  0  0
  155.9980  214.3980  153.6060 O   0  0  0  0  0  0  0  0  0  0  0  0
  157.4340  214.4530  155.3880 O   0  0  0  0  0  1  0  0  0  0  0  0
  163.7110  210.0990  149.4930 O   0  0  0  0  0  0  0  0  0  0  0  0
  163.1880  209.2510  150.3530 O   0  0  0  0  0  1  0  0  0  0  0  0
  162.3420  203.3770  151.3430 C   0  0  0  0  0  2  0  0  0  0  0  0
  161.6140  202.1940  150.7190 C   0  0  0  0  0  2  0  0  0  0  0  0
  162.7520  203.0550  148.8250 F   0  0  0  0  0  0  0  0  0  0  0  0
  162.0650  201.9410  149.2760 C   0  0  0  0  0  0  0  0  0  0  0  0
  162.9240  200.8520  149.2650 F   0  0  0  0  0  0  0  0  0  0  0  0
  160.8440  201.6810  148.3510 C   0  0  2  0  0  0  0  0  0  0  0  0
  160.7900  200.3210  148.0790 F   0  0  0  0  0  0  0  0  0  0  0  0
  160.0210  203.5400  146.7720 C   0  0  0  0  0  2  0  0  0  0  0  0
  161.1090  201.6040  145.8440 O   0  0  0  0  0  1  0  0  0  0  0  0
  160.9950  202.4030  146.9880 C   0  0  2  0  0  0  0  0  0  0  0  0
  161.5140  203.8390  146.9040 C   0  0  1  0  0  3  0  0  0  0  0  0
  162.1140  204.1780  145.5680 C   0  0  0  0  0  0  0  0  0  0  0  0
  163.3260  204.2750  145.4470 O   0  0  0  0  0  0  0  0  0  0  0  0
  161.2320  204.4470  144.3940 C   0  0  0  0  0  2  0  0  0  0  0  0
  161.8060  205.4270  143.5830 O   0  0  0  0  0  1  0  0  0  0  0  0
  159.6040  202.0080  149.0030 O   0  0  0  0  0  0  0  0  0  0  0  0
  158.6640  201.1130  149.5370 C   0  0  0  0  0  0  0  0  0  0  0  0
  158.9610  200.3210  150.4690 O   0  0  0  0  0  1  0  0  0  0  0  0
  157.3740  201.1040  149.0270 O   0  0  0  0  0  0  0  0  0  0  0  0
  1 20  1  0  0  0  0
  2 14  1  0  0  0  0
  3 17  1  0  0  0  0
  4  5  1  1  0  0  0
  4  9  1  0  0  0  0
  4 15  1  0  0  0  0
  6 21  2  0  0  0  0
  7  5  1  0  0  0  0
  7  4  1  0  0  0  0
  8 18  1  0  0  0  0
  9 21  1  0  0  0  0
  9 35  1  1  0  0  0
 10 25  1  0  0  0  0
 11  1  2  0  0  0  0
 12 20  1  0  0  0  0
 12 10  2  0  0  0  0
 13 31  1  6  0  0  0
 14 19  1  0  0  0  0
 15 13  1  0  0  0  0
 16  2  1  0  0  0  0
 17  6  2  0  0  0  0
 17 16  1  0  0  0  0
 19 37  1  6  0  0  0
 19 23  1  0  0  0  0
 20  8  2  0  0  0  0
 21 22  1  0  0  0  0
 22 13  1  0  0  0  0
 22 11  1  1  0  0  0
 23 24  1  0  0  0  0
 24 10  1  0  0  0  0
 25 18  2  0  0  0  0
 26 31  2  0  0  0  0
 26 30  1  0  0  0  0
 27 29  1  0  0  0  0
 27 32  1  0  0  0  0
 28 29  2  0  0  0  0
 30 27  2  0  0  0  0
 31 28  1  0  0  0  0
 32 34  1  0  0  0  0
 33 32  2  0  0  0  0
 35 36  1  0  0  0  0
 38 37  1  0  0  0  0
 39 40  1  0  0  0  0
 40 38  1  0  0  0  0
 41 40  1  0  0  0  0
 42 43  1  6  0  0  0
 42 52  1  0  0  0  0
 42 40  1  0  0  0  0
 44 47  1  0  0  0  0
 44 46  1  0  0  0  0
 46 45  1  6  0  0  0
 46 42  1  0  0  0  0
 47 48  1  6  0  0  0
 47 46  1  0  0  0  0
 49 48  2  0  0  0  0
 50 48  1  0  0  0  0
 51 50  1  0  0  0  0
 52 53  1  0  0  0  0
 53 54  1  0  0  0  0
 55 53  2  0  0  0  0
M  END
>  <MODEL>
1

>  <REMARK>
 VINA RESULT:       5.4      0.000      0.000
  Name = 
  12 active torsions:
  status: ('A' for Active; 'I' for Inactive)
    1  A    between atoms: C_1  and  O_53
    2  A    between atoms: C_6  and  C_14
    3  A    between atoms: C_6  and  C_20
    4  A    between atoms: C_6  and  O_53
    5  A    between atoms: C_8  and  C_22
    6  A    between atoms: C_8  and  C_43
    7  A    between atoms: O_9  and  C_26
    8  A    between atoms: C_10  and  C_32
    9  A    between atoms: C_11  and  C_29
   10  A    between atoms: C_20  and  C_22
   11  A    between atoms: C_29  and  C_38
   12  A    between atoms: C_33  and  C_52
                            x       y       z     vdW  Elec       q    Type
                         _______ _______ _______ _____ _____    ______ ____

>  <TORSDO>
F 12

$$$$
=
 OpenBabel11062408363D

 55 60  0  0  1  0  0  0  0  0999 V2000
  160.5240  209.2360  152.5680 C   0  0  0  0  0  3  0  0  0  0  0  0
  161.0060  205.6470  149.4950 C   0  0  0  0  0  2  0  0  0  0  0  0
  160.5180  207.2550  146.2870 C   0  0  0  0  0  1  0  0  0  0  0  0
  162.4280  211.6650  148.4030 C   0  0  1  0  0  0  0  0  0  0  0  0
  163.4410  212.5040  147.7340 C   0  0  0  0  0  2  0  0  0  0  0  0
  160.9250  208.4410  148.3530 C   0  0  0  0  0  0  0  0  0  0  0  0
  162.2370  212.1410  147.0940 O   0  0  0  0  0  0  0  0  0  0  0  0
  160.8150  208.6110  154.9430 C   0  0  0  0  0  3  0  0  0  0  0  0
  162.6240  210.1540  148.4250 C   0  0  2  0  0  3  0  0  0  0  0  0
  160.9570  205.8870  154.2830 C   0  0  0  0  0  0  0  0  0  0  0  0
  160.8960  209.0250  151.3070 C   0  0  0  0  0  3  0  0  0  0  0  0
  160.7620  206.8520  153.2830 C   0  0  0  0  0  3  0  0  0  0  0  0
  161.2230  211.4380  150.5970 C   0  0  2  0  0  3  0  0  0  0  0  0
  160.3670  204.6370  150.4250 C   0  0  0  0  0  2  0  0  0  0  0  0
  161.4710  212.3370  149.3820 C   0  0  0  0  0  2  0  0  0  0  0  0
  159.9410  206.2290  148.5810 C   0  0  0  0  0  2  0  0  0  0  0  0
  160.4930  207.3550  147.7700 C   0  0  0  0  0  0  0  0  0  0  0  0
  161.0250  207.6560  155.9420 C   0  0  0  0  0  3  0  0  0  0  0  0
  161.3010  204.3260  151.5770 C   0  0  1  0  0  3  0  0  0  0  0  0
  160.6990  208.2150  153.6070 C   0  0  0  0  0  0  0  0  0  0  0  0
  161.3830  209.5040  148.9570 C   0  0  0  0  0  0  0  0  0  0  0  0
  160.7050  210.0280  150.2030 C   0  0  1  0  0  3  0  0  0  0  0  0
  160.4560  203.9660  152.7890 C   0  0  0  0  0  2  0  0  0  0  0  0
  160.9980  204.5200  153.9860 O   0  0  0  0  0  0  0  0  0  0  0  0
  161.1050  206.2980  155.6110 C   0  0  0  0  0  3  0  0  0  0  0  0
  159.2640  212.9300  151.0330 C   0  0  0  0  0  3  0  0  0  0  0  0
  158.5130  213.4340  153.2860 C   0  0  0  0  0  0  0  0  0  0  0  0
  160.4300  211.9870  152.9320 C   0  0  0  0  0  3  0  0  0  0  0  0
  159.5430  212.6330  153.7970 C   0  0  0  0  0  3  0  0  0  0  0  0
  158.3790  213.5770  151.8990 C   0  0  0  0  0  3  0  0  0  0  0  0
  160.2960  212.1370  151.5460 C   0  0  0  0  0  0  0  0  0  0  0  0
  157.5720  214.1120  154.1930 C   0  0  0  0  0  0  0  0  0  0  0  0
  157.9210  214.4140  155.3650 O   0  0  0  0  0  1  0  0  0  0  0  0
  156.2890  214.4270  153.7610 O   0  0  0  0  0  0  0  0  0  0  0  0
  163.7050  209.8330  149.2490 O   0  0  0  0  0  0  0  0  0  0  0  0
  163.7250  208.5170  149.2700 O   0  0  0  0  0  1  0  0  0  0  0  0
  162.2120  203.1680  151.2050 C   0  0  0  0  0  2  0  0  0  0  0  0
  161.4530  201.8480  151.2520 C   0  0  0  0  0  2  0  0  0  0  0  0
  159.8800  200.4610  150.1460 F   0  0  0  0  0  0  0  0  0  0  0  0
  160.6160  201.6230  149.9890 C   0  0  0  0  0  0  0  0  0  0  0  0
  159.7410  202.6890  149.8410 F   0  0  0  0  0  0  0  0  0  0  0  0
  161.5260  201.4880  148.7360 C   0  0  2  0  0  0  0  0  0  0  0  0
  162.8390  201.7070  149.1310 F   0  0  0  0  0  0  0  0  0  0  0  0
  161.8860  203.8910  147.8870 C   0  0  0  0  0  2  0  0  0  0  0  0
  159.8490  202.7370  147.3260 O   0  0  0  0  0  1  0  0  0  0  0  0
  161.1950  202.5630  147.6700 C   0  0  2  0  0  0  0  0  0  0  0  0
  162.2500  203.0400  146.6700 C   0  0  1  0  0  3  0  0  0  0  0  0
  161.6600  203.6180  145.4140 C   0  0  0  0  0  0  0  0  0  0  0  0
  160.6370  203.1460  144.9440 O   0  0  0  0  0  0  0  0  0  0  0  0
  162.3490  204.7390  144.7060 C   0  0  0  0  0  2  0  0  0  0  0  0
  161.4500  205.3890  143.8590 O   0  0  0  0  0  1  0  0  0  0  0  0
  161.4880  200.1560  148.1940 O   0  0  0  0  0  0  0  0  0  0  0  0
  161.2430  199.7890  146.8620 C   0  0  0  0  0  0  0  0  0  0  0  0
  161.9520  198.9320  146.2720 O   0  0  0  0  0  1  0  0  0  0  0  0
  160.1900  200.3820  146.1800 O   0  0  0  0  0  0  0  0  0  0  0  0
  1 20  1  0  0  0  0
  2 14  1  0  0  0  0
  3 17  1  0  0  0  0
  4  5  1  1  0  0  0
  4  9  1  0  0  0  0
  4 15  1  0  0  0  0
  6 21  2  0  0  0  0
  7  5  1  0  0  0  0
  7  4  1  0  0  0  0
  8 18  1  0  0  0  0
  9 21  1  0  0  0  0
  9 35  1  1  0  0  0
 10 25  1  0  0  0  0
 11  1  2  0  0  0  0
 12 20  1  0  0  0  0
 12 10  2  0  0  0  0
 13 31  1  1  0  0  0
 14 19  1  0  0  0  0
 15 13  1  0  0  0  0
 16  2  1  0  0  0  0
 17  6  2  0  0  0  0
 17 16  1  0  0  0  0
 19 37  1  6  0  0  0
 19 23  1  0  0  0  0
 20  8  2  0  0  0  0
 21 22  1  0  0  0  0
 22 13  1  0  0  0  0
 22 11  1  1  0  0  0
 23 24  1  0  0  0  0
 24 10  1  0  0  0  0
 25 18  2  0  0  0  0
 26 31  2  0  0  0  0
 26 30  1  0  0  0  0
 27 29  1  0  0  0  0
 27 32  1  0  0  0  0
 28 29  2  0  0  0  0
 30 27  2  0  0  0  0
 31 28  1  0  0  0  0
 32 33  1  0  0  0  0
 34 32  2  0  0  0  0
 35 36  1  0  0  0  0
 37 38  1  0  0  0  0
 40 39  1  0  0  0  0
 40 38  1  0  0  0  0
 41 40  1  0  0  0  0
 42 43  1  1  0  0  0
 42 40  1  0  0  0  0
 46 45  1  6  0  0  0
 46 44  1  0  0  0  0
 46 42  1  0  0  0  0
 47 48  1  6  0  0  0
 47 46  1  0  0  0  0
 47 44  1  0  0  0  0
 49 48  2  0  0  0  0
 50 48  1  0  0  0  0
 51 50  1  0  0  0  0
 52 42  1  0  0  0  0
 53 52  1  0  0  0  0
 54 53  1  0  0  0  0
 55 53  2  0  0  0  0
M  END
>  <MODEL>
2

>  <REMARK>
 VINA RESULT:       6.6      1.062      1.639
  Name = 
  12 active torsions:
  status: ('A' for Active; 'I' for Inactive)
    1  A    between atoms: C_1  and  O_53
    2  A    between atoms: C_6  and  C_14
    3  A    between atoms: C_6  and  C_20
    4  A    between atoms: C_6  and  O_53
    5  A    between atoms: C_8  and  C_22
    6  A    between atoms: C_8  and  C_43
    7  A    between atoms: O_9  and  C_26
    8  A    between atoms: C_10  and  C_32
    9  A    between atoms: C_11  and  C_29
   10  A    between atoms: C_20  and  C_22
   11  A    between atoms: C_29  and  C_38
   12  A    between atoms: C_33  and  C_52
                            x       y       z     vdW  Elec       q    Type
                         _______ _______ _______ _____ _____    ______ ____

>  <TORSDO>
F 12

$$$$
=
 OpenBabel11062408363D

 55 60  0  0  1  0  0  0  0  0999 V2000
  161.2090  209.9980  149.0080 C   0  0  0  0  0  3  0  0  0  0  0  0
  161.6730  207.7650  153.1740 C   0  0  0  0  0  2  0  0  0  0  0  0
  161.9860  210.4990  155.5290 C   0  0  0  0  0  1  0  0  0  0  0  0
  159.0680  213.4080  152.2740 C   0  0  1  0  0  0  0  0  0  0  0  0
  157.9380  214.2400  152.7330 C   0  0  0  0  0  2  0  0  0  0  0  0
  161.2220  210.7500  153.2500 C   0  0  0  0  0  0  0  0  0  0  0  0
  159.2260  214.3570  153.2980 O   0  0  0  0  0  0  0  0  0  0  0  0
  160.9260  208.5030  147.0590 C   0  0  0  0  0  3  0  0  0  0  0  0
  159.1970  211.9860  152.8050 C   0  0  2  0  0  3  0  0  0  0  0  0
  161.4020  206.2330  148.6400 C   0  0  0  0  0  0  0  0  0  0  0  0
  160.9610  210.2030  150.3000 C   0  0  0  0  0  3  0  0  0  0  0  0
  161.4430  207.5170  149.2060 C   0  0  0  0  0  3  0  0  0  0  0  0
  160.1690  212.6080  150.1600 C   0  0  2  0  0  3  0  0  0  0  0  0
  162.4590  206.6160  152.5800 C   0  0  0  0  0  2  0  0  0  0  0  0
  159.8040  213.8310  151.0080 C   0  0  0  0  0  2  0  0  0  0  0  0
  162.6390  208.8230  153.6820 C   0  0  0  0  0  2  0  0  0  0  0  0
  161.9070  210.0500  154.1140 C   0  0  0  0  0  0  0  0  0  0  0  0
  160.8670  207.2260  146.4910 C   0  0  0  0  0  3  0  0  0  0  0  0
  161.5500  205.7420  151.7400 C   0  0  1  0  0  3  0  0  0  0  0  0
  161.1980  208.6530  148.4220 C   0  0  0  0  0  0  0  0  0  0  0  0
  160.5150  211.4170  152.3780 C   0  0  0  0  0  0  0  0  0  0  0  0
  160.9960  211.5580  150.9500 C   0  0  1  0  0  3  0  0  0  0  0  0
  162.3820  205.1180  150.6310 C   0  0  0  0  0  2  0  0  0  0  0  0
  161.6700  205.0870  149.3970 O   0  0  0  0  0  0  0  0  0  0  0  0
  161.0970  206.0950  147.2820 C   0  0  0  0  0  3  0  0  0  0  0  0
  162.1080  212.4980  148.5860 C   0  0  0  0  0  3  0  0  0  0  0  0
  162.2070  213.8570  146.5770 C   0  0  0  0  0  0  0  0  0  0  0  0
  160.3000  214.0210  148.0700 C   0  0  0  0  0  3  0  0  0  0  0  0
  160.9650  214.4160  146.9070 C   0  0  0  0  0  3  0  0  0  0  0  0
  162.7740  212.8950  147.4230 C   0  0  0  0  0  3  0  0  0  0  0  0
  160.8720  213.0620  148.9170 C   0  0  0  0  0  0  0  0  0  0  0  0
  162.9090  214.2660  145.3490 C   0  0  0  0  0  0  0  0  0  0  0  0
  164.1560  214.4490  145.3560 O   0  0  0  0  0  1  0  0  0  0  0  0
  162.2000  214.4510  144.1670 O   0  0  0  0  0  0  0  0  0  0  0  0
  158.1650  211.1970  152.2920 O   0  0  0  0  0  0  0  0  0  0  0  0
  157.4720  210.8290  153.3490 O   0  0  0  0  0  1  0  0  0  0  0  0
  160.9280  204.6600  152.6070 C   0  0  0  0  0  2  0  0  0  0  0  0
  160.1900  203.6400  151.7500 C   0  0  0  0  0  2  0  0  0  0  0  0
  162.2470  203.1300  150.6860 F   0  0  0  0  0  0  0  0  0  0  0  0
  161.1240  202.5380  151.2400 C   0  0  0  0  0  0  0  0  0  0  0  0
  161.5160  201.7560  152.3160 F   0  0  0  0  0  0  0  0  0  0  0  0
  160.4190  201.6680  150.1620 C   0  0  2  0  0  0  0  0  0  0  0  0
  160.7200  200.3380  150.4160 F   0  0  0  0  0  0  0  0  0  0  0  0
  162.1280  201.1410  148.3110 C   0  0  0  0  0  2  0  0  0  0  0  0
  161.1260  203.3280  148.4000 O   0  0  0  0  0  1  0  0  0  0  0  0
  160.9450  201.9810  148.7390 C   0  0  2  0  0  0  0  0  0  0  0  0
  160.7870  200.9780  147.5950 C   0  0  1  0  0  3  0  0  0  0  0  0
  160.8240  201.6170  146.2350 C   0  0  0  0  0  0  0  0  0  0  0  0
  160.1220  201.1820  145.3350 O   0  0  0  0  0  0  0  0  0  0  0  0
  161.7550  202.7520  145.9610 C   0  0  0  0  0  2  0  0  0  0  0  0
  161.1300  203.6920  145.1390 O   0  0  0  0  0  1  0  0  0  0  0  0
  158.9870  201.7770  150.2460 O   0  0  0  0  0  0  0  0  0  0  0  0
  158.0350  200.9620  149.6140 C   0  0  0  0  0  0  0  0  0  0  0  0
  157.8570  199.7650  149.9600 O   0  0  0  0  0  1  0  0  0  0  0  0
  157.2680  201.4920  148.5860 O   0  0  0  0  0  0  0  0  0  0  0  0
  1 11  2  0  0  0  0
  2 16  1  0  0  0  0
  4 15  1  6  0  0  0
  4  5  1  0  0  0  0
  4  9  1  0  0  0  0
  4  7  1  0  0  0  0
  5  7  1  0  0  0  0
  6 17  2  0  0  0  0
  8 20  1  0  0  0  0
  9 35  1  6  0  0  0
 10 12  1  0  0  0  0
 10 24  1  0  0  0  0
 13 31  1  6  0  0  0
 13 22  1  0  0  0  0
 13 15  1  0  0  0  0
 14  2  1  0  0  0  0
 16 17  1  0  0  0  0
 17  3  1  0  0  0  0
 18  8  2  0  0  0  0
 18 25  1  0  0  0  0
 19 14  1  0  0  0  0
 19 37  1  1  0  0  0
 20  1  1  0  0  0  0
 20 12  2  0  0  0  0
 21  9  1  0  0  0  0
 21  6  2  0  0  0  0
 22 11  1  6  0  0  0
 22 21  1  0  0  0  0
 23 19  1  0  0  0  0
 24 23  1  0  0  0  0
 25 10  2  0  0  0  0
 26 31  1  0  0  0  0
 27 29  2  0  0  0  0
 27 30  1  0  0  0  0
 28 31  2  0  0  0  0
 29 28  1  0  0  0  0
 30 26  2  0  0  0  0
 32 33  1  0  0  0  0
 32 27  1  0  0  0  0
 34 32  2  0  0  0  0
 35 36  1  0  0  0  0
 38 37  1  0  0  0  0
 39 40  1  0  0  0  0
 40 38  1  0  0  0  0
 40 41  1  0  0  0  0
 42 52  1  0  0  0  0
 42 43  1  1  0  0  0
 42 40  1  0  0  0  0
 44 46  1  0  0  0  0
 46 45  1  6  0  0  0
 46 42  1  0  0  0  0
 47 48  1  6  0  0  0
 47 44  1  0  0  0  0
 47 46  1  0  0  0  0
 49 48  2  0  0  0  0
 50 48  1  0  0  0  0
 51 50  1  0  0  0  0
 53 54  1  0  0  0  0
 53 52  1  0  0  0  0
 55 53  2  0  0  0  0
M  END
>  <MODEL>
3

>  <REMARK>
 VINA RESULT:       7.0      1.974      5.368
  Name = 
  12 active torsions:
  status: ('A' for Active; 'I' for Inactive)
    1  A    between atoms: C_1  and  O_53
    2  A    between atoms: C_6  and  C_14
    3  A    between atoms: C_6  and  C_20
    4  A    between atoms: C_6  and  O_53
    5  A    between atoms: C_8  and  C_22
    6  A    between atoms: C_8  and  C_43
    7  A    between atoms: O_9  and  C_26
    8  A    between atoms: C_10  and  C_32
    9  A    between atoms: C_11  and  C_29
   10  A    between atoms: C_20  and  C_22
   11  A    between atoms: C_29  and  C_38
   12  A    between atoms: C_33  and  C_52
                            x       y       z     vdW  Elec       q    Type
                         _______ _______ _______ _____ _____    ______ ____

>  <TORSDO>
F 12

$$$$
=
 OpenBabel11062408363D

 55 60  0  0  1  0  0  0  0  0999 V2000
  159.8470  210.2810  152.9040 C   0  0  0  0  0  3  0  0  0  0  0  0
  161.7330  206.8340  150.2360 C   0  0  0  0  0  2  0  0  0  0  0  0
  161.4130  208.1440  146.8750 C   0  0  0  0  0  1  0  0  0  0  0  0
  161.7640  212.9730  148.9090 C   0  0  1  0  0  0  0  0  0  0  0  0
  162.6330  214.0220  148.3420 C   0  0  0  0  0  2  0  0  0  0  0  0
  161.1500  209.4680  148.8790 C   0  0  0  0  0  0  0  0  0  0  0  0
  161.6860  213.3350  147.5530 O   0  0  0  0  0  0  0  0  0  0  0  0
  159.8760  209.8390  155.3370 C   0  0  0  0  0  3  0  0  0  0  0  0
  162.3260  211.5670  149.0790 C   0  0  2  0  0  3  0  0  0  0  0  0
  160.8080  207.2240  154.9230 C   0  0  0  0  0  0  0  0  0  0  0  0
  160.4710  210.1300  151.7370 C   0  0  0  0  0  3  0  0  0  0  0  0
  160.5510  208.0690  153.8330 C   0  0  0  0  0  3  0  0  0  0  0  0
  160.2980  212.5180  150.8990 C   0  0  2  0  0  3  0  0  0  0  0  0
  161.2180  205.7270  151.1310 C   0  0  0  0  0  2  0  0  0  0  0  0
  160.5160  213.4060  149.6700 C   0  0  0  0  0  2  0  0  0  0  0  0
  160.7280  207.0860  149.1240 C   0  0  0  0  0  2  0  0  0  0  0  0
  161.1100  208.2870  148.3230 C   0  0  0  0  0  0  0  0  0  0  0  0
  160.1450  209.0080  156.4290 C   0  0  0  0  0  3  0  0  0  0  0  0
  161.9890  205.7110  152.4360 C   0  0  1  0  0  3  0  0  0  0  0  0
  160.0930  209.3790  154.0350 C   0  0  0  0  0  0  0  0  0  0  0  0
  161.2160  210.6350  149.4610 C   0  0  0  0  0  0  0  0  0  0  0  0
  160.2250  211.0080  150.5420 C   0  0  1  0  0  3  0  0  0  0  0  0
  161.0680  205.1880  153.5260 C   0  0  0  0  0  2  0  0  0  0  0  0
  161.2400  205.9060  154.7450 O   0  0  0  0  0  0  0  0  0  0  0  0
  160.6180  207.7080  156.2220 C   0  0  0  0  0  3  0  0  0  0  0  0
  157.8940  213.2080  150.9210 C   0  0  0  0  0  3  0  0  0  0  0  0
  156.7560  213.8230  152.9750 C   0  0  0  0  0  0  0  0  0  0  0  0
  159.0940  213.1730  153.0220 C   0  0  0  0  0  3  0  0  0  0  0  0
  157.9400  213.5910  153.6880 C   0  0  0  0  0  3  0  0  0  0  0  0
  156.7410  213.6280  151.5880 C   0  0  0  0  0  3  0  0  0  0  0  0
  159.0770  212.9840  151.6340 C   0  0  0  0  0  0  0  0  0  0  0  0
  155.5350  214.2570  153.6730 C   0  0  0  0  0  0  0  0  0  0  0  0
  154.4680  214.4530  153.0330 O   0  0  0  0  0  0  0  0  0  0  0  0
  155.5490  214.4530  155.0500 O   0  0  0  0  0  1  0  0  0  0  0  0
  163.2950  211.5680  150.0850 O   0  0  0  0  0  0  0  0  0  0  0  0
  164.4230  211.8290  149.4570 O   0  0  0  0  0  1  0  0  0  0  0  0
  163.2120  204.8180  152.3020 C   0  0  0  0  0  2  0  0  0  0  0  0
  163.1170  203.9590  151.0480 C   0  0  0  0  0  2  0  0  0  0  0  0
  162.5890  201.6540  151.2180 F   0  0  0  0  0  0  0  0  0  0  0  0
  162.0070  202.9090  151.1550 C   0  0  0  0  0  0  0  0  0  0  0  0
  161.2990  203.1310  152.3270 F   0  0  0  0  0  0  0  0  0  0  0  0
  161.0590  202.9750  149.9260 C   0  0  2  0  0  0  0  0  0  0  0  0
  159.7580  203.1090  150.3900 F   0  0  0  0  0  0  0  0  0  0  0  0
  159.8810  200.7910  149.2420 C   0  0  0  0  0  2  0  0  0  0  0  0
  162.2830  200.9110  149.1500 O   0  0  0  0  0  1  0  0  0  0  0  0
  161.1060  201.6670  149.0970 C   0  0  2  0  0  0  0  0  0  0  0  0
  160.1810  201.4540  147.8970 C   0  0  1  0  0  3  0  0  0  0  0  0
  160.7080  200.4500  146.9100 C   0  0  0  0  0  0  0  0  0  0  0  0
  161.5630  199.6470  147.2500 O   0  0  0  0  0  0  0  0  0  0  0  0
  160.2280  200.4620  145.4960 C   0  0  0  0  0  2  0  0  0  0  0  0
  160.2720  201.7630  144.9900 O   0  0  0  0  0  1  0  0  0  0  0  0
  161.3170  204.1380  149.1190 O   0  0  0  0  0  0  0  0  0  0  0  0
  161.6900  204.1660  147.7660 C   0  0  0  0  0  0  0  0  0  0  0  0
  162.6290  203.4530  147.3250 O   0  0  0  0  0  1  0  0  0  0  0  0
  161.0040  204.9980  146.8930 O   0  0  0  0  0  0  0  0  0  0  0  0
  1 20  1  0  0  0  0
  2 14  1  0  0  0  0
  3 17  1  0  0  0  0
  4  5  1  1  0  0  0
  4  9  1  0  0  0  0
  4 15  1  0  0  0  0
  6 21  2  0  0  0  0
  7  5  1  0  0  0  0
  7  4  1  0  0  0  0
  8 18  1  0  0  0  0
  9 21  1  0  0  0  0
  9 35  1  1  0  0  0
 10 25  1  0  0  0  0
 11  1  2  0  0  0  0
 12 20  1  0  0  0  0
 12 10  2  0  0  0  0
 13 31  1  6  0  0  0
 14 19  1  0  0  0  0
 15 13  1  0  0  0  0
 16  2  1  0  0  0  0
 17  6  2  0  0  0  0
 17 16  1  0  0  0  0
 19 37  1  6  0  0  0
 19 23  1  0  0  0  0
 20  8  2  0  0  0  0
 21 22  1  0  0  0  0
 22 13  1  0  0  0  0
 22 11  1  1  0  0  0
 23 24  1  0  0  0  0
 24 10  1  0  0  0  0
 25 18  2  0  0  0  0
 26 30  2  0  0  0  0
 26 31  1  0  0  0  0
 27 32  1  0  0  0  0
 27 29  2  0  0  0  0
 28 29  1  0  0  0  0
 30 27  1  0  0  0  0
 31 28  2  0  0  0  0
 32 34  1  0  0  0  0
 33 32  2  0  0  0  0
 36 35  1  0  0  0  0
 38 40  1  0  0  0  0
 38 37  1  0  0  0  0
 40 39  1  0  0  0  0
 40 41  1  0  0  0  0
 42 43  1  1  0  0  0
 42 40  1  0  0  0  0
 46 45  1  6  0  0  0
 46 44  1  0  0  0  0
 46 42  1  0  0  0  0
 47 48  1  6  0  0  0
 47 46  1  0  0  0  0
 47 44  1  0  0  0  0
 48 49  2  0  0  0  0
 50 48  1  0  0  0  0
 51 50  1  0  0  0  0
 52 42  1  0  0  0  0
 53 52  1  0  0  0  0
 54 53  1  0  0  0  0
 55 53  2  0  0  0  0
M  END
>  <MODEL>
4

>  <REMARK>
 VINA RESULT:       7.2      1.742      2.504
  Name = 
  12 active torsions:
  status: ('A' for Active; 'I' for Inactive)
    1  A    between atoms: C_1  and  O_53
    2  A    between atoms: C_6  and  C_14
    3  A    between atoms: C_6  and  C_20
    4  A    between atoms: C_6  and  O_53
    5  A    between atoms: C_8  and  C_22
    6  A    between atoms: C_8  and  C_43
    7  A    between atoms: O_9  and  C_26
    8  A    between atoms: C_10  and  C_32
    9  A    between atoms: C_11  and  C_29
   10  A    between atoms: C_20  and  C_22
   11  A    between atoms: C_29  and  C_38
   12  A    between atoms: C_33  and  C_52
                            x       y       z     vdW  Elec       q    Type
                         _______ _______ _______ _____ _____    ______ ____

>  <TORSDO>
F 12

$$$$
