=
 OpenBabel11062410333D

 43 48  0  0  1  0  0  0  0  0999 V2000
  162.1600  204.1020  146.0660 C   0  0  0  0  0  2  0  0  0  0  0  0
  161.3450  207.3300  149.3590 C   0  0  1  0  0  3  0  0  0  0  0  0
  161.8420  209.2760  147.7980 C   0  0  0  0  0  2  0  0  0  0  0  0
  162.5930  206.4810  146.8060 C   0  0  2  0  0  3  0  0  0  0  0  0
  159.9260  205.2910  145.5680 C   0  0  0  0  0  2  0  0  0  0  0  0
  160.7560  204.0110  145.4640 C   0  0  0  0  0  2  0  0  0  0  0  0
  161.1530  207.0450  146.8520 C   0  0  1  0  0  3  0  0  0  0  0  0
  162.8600  205.4180  145.7380 C   0  0  0  0  0  2  0  0  0  0  0  0
  160.0690  205.9690  146.9210 C   0  0  0  0  0  2  0  0  0  0  0  0
  161.7240  210.2280  148.9840 C   0  0  1  0  0  3  0  0  0  0  0  0
  160.9940  208.0190  148.0250 C   0  0  1  0  0  3  0  0  0  0  0  0
  162.6450  206.5550  149.3030 C   0  0  0  0  0  3  0  0  0  0  0  0
  161.2710  208.3200  150.5320 C   0  0  2  0  0  3  0  0  0  0  0  0
  162.1570  209.5390  150.2800 C   0  0  0  0  0  2  0  0  0  0  0  0
  163.1780  206.1240  148.1510 C   0  0  0  0  0  3  0  0  0  0  0  0
  162.5110  211.4760  148.7220 C   0  0  0  0  0  0  0  0  0  0  0  0
  161.8770  212.7570  148.7680 N   0  0  0  0  0  2  0  0  0  0  0  0
  163.7270  211.4010  148.4000 O   0  0  0  0  0  0  0  0  0  0  0  0
  159.7420  213.5920  147.9510 C   0  0  0  0  0  2  0  0  0  0  0  0
  158.3500  213.1630  147.9260 N   0  0  0  0  0  2  0  0  0  0  0  0
  157.3070  213.5270  150.0970 C   0  0  0  0  0  2  0  0  0  0  0  0
  160.4720  212.9230  149.1070 C   0  0  2  0  0  3  0  0  0  0  0  0
  157.5540  214.1000  148.7060 C   0  0  2  0  0  3  0  0  0  0  0  0
  160.3610  213.7130  150.2560 O   0  0  0  0  0  0  0  0  0  0  0  0
  159.3150  213.1530  150.9980 C   0  0  2  0  0  3  0  0  0  0  0  0
  158.2310  214.0380  151.0150 O   0  0  0  0  0  0  0  0  0  0  0  0
  156.2200  214.3000  148.0160 C   0  0  0  0  0  1  0  0  0  0  0  0
  159.7770  212.8440  152.4240 C   0  0  0  0  0  2  0  0  0  0  0  0
  158.6380  212.7690  153.3880 C   0  0  0  0  0  0  0  0  0  0  0  0
  156.9210  211.4770  154.5080 C   0  0  0  0  0  3  0  0  0  0  0  0
  157.1050  213.8580  154.9190 C   0  0  0  0  0  3  0  0  0  0  0  0
  156.4730  212.6320  155.1540 C   0  0  0  0  0  3  0  0  0  0  0  0
  158.1880  213.9260  154.0390 C   0  0  0  0  0  3  0  0  0  0  0  0
  158.0000  211.5450  153.6230 C   0  0  0  0  0  3  0  0  0  0  0  0
  161.6130  207.6500  151.8590 C   0  0  0  0  0  2  0  0  0  0  0  0
  161.6220  210.6810  154.1280 C   0  0  0  0  0  3  0  0  0  0  0  0
  160.8310  210.2410  155.1940 C   0  0  0  0  0  0  0  0  0  0  0  0
  160.5290  208.1100  154.0700 C   0  0  0  0  0  3  0  0  0  0  0  0
  161.8700  209.8420  153.0370 C   0  0  0  0  0  3  0  0  0  0  0  0
  161.3250  208.5550  153.0080 C   0  0  0  0  0  0  0  0  0  0  0  0
  160.2810  208.9490  155.1580 C   0  0  0  0  0  3  0  0  0  0  0  0
  159.6140  210.8490  157.2600 C   0  0  0  0  0  1  0  0  0  0  0  0
  160.5960  211.1070  156.2660 O   0  0  0  0  0  0  0  0  0  0  0  0
  2 12  1  6  0  0  0
  2 13  1  0  0  0  0
  3 10  1  0  0  0  0
  4  8  1  6  0  0  0
  4  7  1  0  0  0  0
  4 15  1  0  0  0  0
  5  9  1  0  0  0  0
  6  5  1  0  0  0  0
  6  1  1  0  0  0  0
  7  9  1  1  0  0  0
  7 11  1  0  0  0  0
  8  1  1  0  0  0  0
 10 16  1  6  0  0  0
 10 14  1  0  0  0  0
 11  3  1  6  0  0  0
 11  2  1  0  0  0  0
 13 35  1  1  0  0  0
 14 13  1  0  0  0  0
 15 12  2  0  0  0  0
 16 17  1  0  0  0  0
 18 16  2  0  0  0  0
 19 22  1  0  0  0  0
 20 19  1  0  0  0  0
 20 23  1  0  0  0  0
 21 26  1  0  0  0  0
 22 17  1  6  0  0  0
 22 24  1  0  0  0  0
 23 27  1  6  0  0  0
 23 21  1  0  0  0  0
 24 25  1  0  0  0  0
 25 26  1  0  0  0  0
 25 28  1  1  0  0  0
 28 29  1  0  0  0  0
 29 34  2  0  0  0  0
 29 33  1  0  0  0  0
 30 32  2  0  0  0  0
 31 32  1  0  0  0  0
 33 31  2  0  0  0  0
 34 30  1  0  0  0  0
 35 40  1  0  0  0  0
 36 37  1  0  0  0  0
 37 43  1  0  0  0  0
 38 41  1  0  0  0  0
 39 36  2  0  0  0  0
 40 39  1  0  0  0  0
 40 38  2  0  0  0  0
 41 37  2  0  0  0  0
 43 42  1  0  0  0  0
M  END
>  <MODEL>
1

>  <REMARK>
 VINA RESULT:      -3.6      0.000      0.000
  Name = 
  7 active torsions:
  status: ('A' for Active; 'I' for Inactive)
    1  A    between atoms: C_1  and  C_34
    2  A    between atoms: C_1  and  C_35
    3  A    between atoms: C_2  and  C_27
    4  A    between atoms: N_6  and  C_12
    5  A    between atoms: C_11  and  C_14
    6  A    between atoms: C_14  and  C_22
    7  A    between atoms: C_19  and  O_37
                            x       y       z     vdW  Elec       q    Type
                         _______ _______ _______ _____ _____    ______ ____

>  <TORSDO>
F 7

$$$$
=
 OpenBabel11062410333D

 43 48  0  0  1  0  0  0  0  0999 V2000
  162.0480  204.2850  145.8330 C   0  0  0  0  0  2  0  0  0  0  0  0
  160.9720  206.8110  149.6260 C   0  0  1  0  0  3  0  0  0  0  0  0
  161.9350  208.9590  148.6620 C   0  0  0  0  0  2  0  0  0  0  0  0
  162.5740  206.3660  147.1700 C   0  0  2  0  0  3  0  0  0  0  0  0
  160.0720  205.8490  145.2890 C   0  0  0  0  0  2  0  0  0  0  0  0
  160.7750  204.5190  145.0170 C   0  0  0  0  0  2  0  0  0  0  0  0
  161.2120  207.1000  147.1230 C   0  0  1  0  0  3  0  0  0  0  0  0
  162.9230  205.5300  145.9350 C   0  0  0  0  0  2  0  0  0  0  0  0
  160.0330  206.1940  146.7690 C   0  0  0  0  0  2  0  0  0  0  0  0
  161.6980  209.6410  150.0060 C   0  0  1  0  0  3  0  0  0  0  0  0
  160.9400  207.8120  148.4530 C   0  0  1  0  0  3  0  0  0  0  0  0
  162.1780  205.8940  149.5910 C   0  0  0  0  0  3  0  0  0  0  0  0
  160.7850  207.5270  150.9730 C   0  0  2  0  0  3  0  0  0  0  0  0
  161.8190  208.6380  151.1540 C   0  0  0  0  0  2  0  0  0  0  0  0
  162.8660  205.6520  148.4670 C   0  0  0  0  0  3  0  0  0  0  0  0
  162.6400  210.7950  150.1690 C   0  0  0  0  0  0  0  0  0  0  0  0
  162.3290  212.0710  149.6020 N   0  0  0  0  0  2  0  0  0  0  0  0
  163.7420  210.6350  150.7570 O   0  0  0  0  0  0  0  0  0  0  0  0
  161.2900  212.0660  147.4010 C   0  0  0  0  0  2  0  0  0  0  0  0
  160.0370  211.6350  146.7980 N   0  0  0  0  0  2  0  0  0  0  0  0
  158.2610  213.2300  147.2890 C   0  0  0  0  0  2  0  0  0  0  0  0
  161.0890  212.3290  148.8870 C   0  0  2  0  0  3  0  0  0  0  0  0
  159.3310  212.8030  146.2890 C   0  0  2  0  0  3  0  0  0  0  0  0
  160.7070  213.6600  149.0840 O   0  0  0  0  0  0  0  0  0  0  0  0
  159.3130  213.6360  149.2150 C   0  0  2  0  0  3  0  0  0  0  0  0
  158.7310  214.2620  148.1080 O   0  0  0  0  0  0  0  0  0  0  0  0
  158.6610  212.4380  144.9810 C   0  0  0  0  0  1  0  0  0  0  0  0
  158.8860  214.3300  150.5100 C   0  0  0  0  0  2  0  0  0  0  0  0
  158.5870  213.3600  151.6060 C   0  0  0  0  0  0  0  0  0  0  0  0
  157.2750  212.7230  153.5400 C   0  0  0  0  0  3  0  0  0  0  0  0
  159.1030  211.3150  152.8010 C   0  0  0  0  0  3  0  0  0  0  0  0
  158.0550  211.5730  153.6920 C   0  0  0  0  0  3  0  0  0  0  0  0
  159.3670  212.2050  151.7580 C   0  0  0  0  0  3  0  0  0  0  0  0
  157.5430  213.6180  152.5020 C   0  0  0  0  0  3  0  0  0  0  0  0
  160.8110  206.5480  152.1410 C   0  0  0  0  0  2  0  0  0  0  0  0
  161.1820  209.2780  154.7370 C   0  0  0  0  0  3  0  0  0  0  0  0
  160.8150  208.6090  155.9090 C   0  0  0  0  0  0  0  0  0  0  0  0
  160.4220  206.5920  154.6150 C   0  0  0  0  0  3  0  0  0  0  0  0
  161.1720  208.6110  153.5090 C   0  0  0  0  0  3  0  0  0  0  0  0
  160.7940  207.2660  153.4460 C   0  0  0  0  0  0  0  0  0  0  0  0
  160.4300  207.2600  155.8410 C   0  0  0  0  0  3  0  0  0  0  0  0
  161.3040  210.6400  157.2330 C   0  0  0  0  0  1  0  0  0  0  0  0
  160.8280  209.3060  157.1200 O   0  0  0  0  0  0  0  0  0  0  0  0
  1  8  1  0  0  0  0
  2 12  1  1  0  0  0
  2 13  1  0  0  0  0
  3 10  1  0  0  0  0
  4  8  1  6  0  0  0
  4 15  1  0  0  0  0
  5  9  1  0  0  0  0
  6  5  1  0  0  0  0
  6  1  1  0  0  0  0
  7  9  1  1  0  0  0
  7  4  1  0  0  0  0
  7 11  1  0  0  0  0
 10 16  1  1  0  0  0
 10 14  1  0  0  0  0
 11  3  1  1  0  0  0
 11  2  1  0  0  0  0
 13 14  1  0  0  0  0
 13 35  1  1  0  0  0
 15 12  2  0  0  0  0
 16 18  2  0  0  0  0
 17 16  1  0  0  0  0
 19 22  1  0  0  0  0
 20 19  1  0  0  0  0
 21 26  1  0  0  0  0
 22 24  1  0  0  0  0
 22 17  1  1  0  0  0
 23 27  1  6  0  0  0
 23 20  1  0  0  0  0
 23 21  1  0  0  0  0
 24 25  1  0  0  0  0
 25 28  1  1  0  0  0
 26 25  1  0  0  0  0
 28 29  1  0  0  0  0
 29 33  2  0  0  0  0
 29 34  1  0  0  0  0
 30 32  1  0  0  0  0
 31 32  2  0  0  0  0
 33 31  1  0  0  0  0
 34 30  2  0  0  0  0
 35 40  1  0  0  0  0
 36 37  1  0  0  0  0
 37 43  1  0  0  0  0
 38 41  1  0  0  0  0
 39 36  2  0  0  0  0
 40 39  1  0  0  0  0
 40 38  2  0  0  0  0
 41 37  2  0  0  0  0
 43 42  1  0  0  0  0
M  END
>  <MODEL>
2

>  <REMARK>
 VINA RESULT:      -3.6      1.393      1.905
  Name = 
  7 active torsions:
  status: ('A' for Active; 'I' for Inactive)
    1  A    between atoms: C_1  and  C_34
    2  A    between atoms: C_1  and  C_35
    3  A    between atoms: C_2  and  C_27
    4  A    between atoms: N_6  and  C_12
    5  A    between atoms: C_11  and  C_14
    6  A    between atoms: C_14  and  C_22
    7  A    between atoms: C_19  and  O_37
                            x       y       z     vdW  Elec       q    Type
                         _______ _______ _______ _____ _____    ______ ____

>  <TORSDO>
F 7

$$$$
=
 OpenBabel11062410333D

 43 48  0  0  1  0  0  0  0  0999 V2000
  161.2050  208.7580  157.2610 C   0  0  0  0  0  2  0  0  0  0  0  0
  159.7310  211.0670  153.4630 C   0  0  1  0  0  3  0  0  0  0  0  0
  161.2830  209.7990  151.8970 C   0  0  0  0  0  2  0  0  0  0  0  0
  161.7690  209.4600  154.8970 C   0  0  2  0  0  3  0  0  0  0  0  0
  159.7480  207.1940  155.8180 C   0  0  0  0  0  2  0  0  0  0  0  0
  160.2350  207.5750  157.2160 C   0  0  0  0  0  2  0  0  0  0  0  0
  160.6220  208.7870  154.1060 C   0  0  1  0  0  3  0  0  0  0  0  0
  162.2460  208.7120  156.1460 C   0  0  0  0  0  2  0  0  0  0  0  0
  159.4160  208.4090  154.9670 C   0  0  0  0  0  2  0  0  0  0  0  0
  160.8590  210.7270  150.7620 C   0  0  1  0  0  3  0  0  0  0  0  0
  160.1720  209.6830  152.9460 C   0  0  1  0  0  3  0  0  0  0  0  0
  160.7160  211.6780  154.4390 C   0  0  0  0  0  3  0  0  0  0  0  0
  159.3590  212.0020  152.3010 C   0  0  2  0  0  3  0  0  0  0  0  0
  160.5070  212.1160  151.2980 C   0  0  0  0  0  2  0  0  0  0  0  0
  161.5990  210.9420  155.1270 C   0  0  0  0  0  3  0  0  0  0  0  0
  161.9310  210.7850  149.7170 C   0  0  0  0  0  0  0  0  0  0  0  0
  162.3870  209.5900  149.0780 N   0  0  0  0  0  2  0  0  0  0  0  0
  162.4820  211.8820  149.4350 O   0  0  0  0  0  0  0  0  0  0  0  0
  162.2370  207.8390  150.7630 C   0  0  0  0  0  2  0  0  0  0  0  0
  161.2140  206.9770  151.3390 N   0  0  0  0  0  2  0  0  0  0  0  0
  160.7020  205.1350  149.8290 C   0  0  0  0  0  2  0  0  0  0  0  0
  161.8190  208.2820  149.3670 C   0  0  2  0  0  3  0  0  0  0  0  0
  161.5330  205.5910  151.0230 C   0  0  2  0  0  3  0  0  0  0  0  0
  162.2740  207.3570  148.4220 O   0  0  0  0  0  0  0  0  0  0  0  0
  161.1800  206.5270  148.1500 C   0  0  2  0  0  3  0  0  0  0  0  0
  161.4380  205.2430  148.6430 O   0  0  0  0  0  0  0  0  0  0  0  0
  161.1880  204.7260  152.2180 C   0  0  0  0  0  1  0  0  0  0  0  0
  160.9060  206.4790  146.6460 C   0  0  0  0  0  2  0  0  0  0  0  0
  160.8580  205.0820  146.1200 C   0  0  0  0  0  0  0  0  0  0  0  0
  161.6580  202.7950  146.1690 C   0  0  0  0  0  3  0  0  0  0  0  0
  159.9850  203.4570  144.5450 C   0  0  0  0  0  3  0  0  0  0  0  0
  160.8100  202.4750  145.1050 C   0  0  0  0  0  3  0  0  0  0  0  0
  160.0070  204.7580  145.0540 C   0  0  0  0  0  3  0  0  0  0  0  0
  161.6850  204.0970  146.6740 C   0  0  0  0  0  3  0  0  0  0  0  0
  158.9180  213.3730  152.7990 C   0  0  0  0  0  2  0  0  0  0  0  0
  157.2670  213.7070  156.1900 C   0  0  0  0  0  3  0  0  0  0  0  0
  156.0870  212.9790  156.0050 C   0  0  0  0  0  0  0  0  0  0  0  0
  156.7450  212.5250  153.7120 C   0  0  0  0  0  3  0  0  0  0  0  0
  158.1850  213.8440  155.1440 C   0  0  0  0  0  3  0  0  0  0  0  0
  157.9260  213.2510  153.9050 C   0  0  0  0  0  0  0  0  0  0  0  0
  155.8280  212.3900  154.7570 C   0  0  0  0  0  3  0  0  0  0  0  0
  154.1010  213.7650  157.2520 C   0  0  0  0  0  1  0  0  0  0  0  0
  155.1860  212.8670  157.0680 O   0  0  0  0  0  0  0  0  0  0  0  0
  2 12  1  6  0  0  0
  4 15  1  1  0  0  0
  4  8  1  0  0  0  0
  5  6  1  0  0  0  0
  6  1  1  0  0  0  0
  7  4  1  0  0  0  0
  7  9  1  1  0  0  0
  8  1  1  0  0  0  0
  9  5  1  0  0  0  0
 10 16  1  6  0  0  0
 10 14  1  0  0  0  0
 10  3  1  0  0  0  0
 11  3  1  6  0  0  0
 11  2  1  0  0  0  0
 11  7  1  0  0  0  0
 12 15  2  0  0  0  0
 13 35  1  1  0  0  0
 13  2  1  0  0  0  0
 14 13  1  0  0  0  0
 17 16  1  0  0  0  0
 18 16  2  0  0  0  0
 19 20  1  0  0  0  0
 21 23  1  0  0  0  0
 22 17  1  6  0  0  0
 22 19  1  0  0  0  0
 23 20  1  0  0  0  0
 23 27  1  1  0  0  0
 24 22  1  0  0  0  0
 25 28  1  6  0  0  0
 25 24  1  0  0  0  0
 25 26  1  0  0  0  0
 26 21  1  0  0  0  0
 29 28  1  0  0  0  0
 29 34  1  0  0  0  0
 30 34  2  0  0  0  0
 31 33  1  0  0  0  0
 31 32  2  0  0  0  0
 32 30  1  0  0  0  0
 33 29  2  0  0  0  0
 35 40  1  0  0  0  0
 37 36  1  0  0  0  0
 37 43  1  0  0  0  0
 38 40  2  0  0  0  0
 38 41  1  0  0  0  0
 39 36  2  0  0  0  0
 40 39  1  0  0  0  0
 41 37  2  0  0  0  0
 43 42  1  0  0  0  0
M  END
>  <MODEL>
3

>  <REMARK>
 VINA RESULT:      -3.5      2.399      8.387
  Name = 
  7 active torsions:
  status: ('A' for Active; 'I' for Inactive)
    1  A    between atoms: C_1  and  C_34
    2  A    between atoms: C_1  and  C_35
    3  A    between atoms: C_2  and  C_27
    4  A    between atoms: N_6  and  C_12
    5  A    between atoms: C_11  and  C_14
    6  A    between atoms: C_14  and  C_22
    7  A    between atoms: C_19  and  O_37
                            x       y       z     vdW  Elec       q    Type
                         _______ _______ _______ _____ _____    ______ ____

>  <TORSDO>
F 7

$$$$
=
 OpenBabel11062410333D

 43 48  0  0  1  0  0  0  0  0999 V2000
  161.9620  214.1250  145.9250 C   0  0  0  0  0  2  0  0  0  0  0  0
  161.5580  210.3240  148.6290 C   0  0  1  0  0  3  0  0  0  0  0  0
  161.5510  211.6680  150.7880 C   0  0  0  0  0  2  0  0  0  0  0  0
  162.3270  213.1600  148.2340 C   0  0  2  0  0  3  0  0  0  0  0  0
  159.5780  214.0170  146.9020 C   0  0  0  0  0  2  0  0  0  0  0  0
  160.4790  214.4530  145.7460 C   0  0  0  0  0  2  0  0  0  0  0  0
  160.8820  212.7630  148.6210 C   0  0  1  0  0  3  0  0  0  0  0  0
  162.4620  214.3970  147.3410 C   0  0  0  0  0  2  0  0  0  0  0  0
  159.9350  212.6360  147.4270 C   0  0  0  0  0  2  0  0  0  0  0  0
  161.5940  210.3610  151.5750 C   0  0  1  0  0  3  0  0  0  0  0  0
  160.8810  211.4580  149.4260 C   0  0  1  0  0  3  0  0  0  0  0  0
  162.8820  210.7340  148.0190 C   0  0  0  0  0  3  0  0  0  0  0  0
  161.6380  209.0330  149.4590 C   0  0  2  0  0  3  0  0  0  0  0  0
  162.3430  209.2800  150.7930 C   0  0  0  0  0  2  0  0  0  0  0  0
  163.2040  212.0150  147.7900 C   0  0  0  0  0  3  0  0  0  0  0  0
  162.1980  210.5940  152.9260 C   0  0  0  0  0  0  0  0  0  0  0  0
  161.4130  211.1480  153.9860 N   0  0  0  0  0  2  0  0  0  0  0  0
  163.4200  210.3600  153.1230 O   0  0  0  0  0  0  0  0  0  0  0  0
  159.8560  212.7530  153.0240 C   0  0  0  0  0  2  0  0  0  0  0  0
  158.6040  212.7330  152.2800 N   0  0  0  0  0  2  0  0  0  0  0  0
  156.7320  212.2820  153.7730 C   0  0  0  0  0  2  0  0  0  0  0  0
  160.0030  211.4690  153.8300 C   0  0  2  0  0  3  0  0  0  0  0  0
  157.5650  213.3590  153.0870 C   0  0  2  0  0  3  0  0  0  0  0  0
  159.4210  211.6330  155.0910 O   0  0  0  0  0  0  0  0  0  0  0  0
  158.1470  211.0610  154.9950 C   0  0  2  0  0  3  0  0  0  0  0  0
  157.1780  212.0680  155.0820 O   0  0  0  0  0  0  0  0  0  0  0  0
  156.6650  214.1700  152.1800 C   0  0  0  0  0  1  0  0  0  0  0  0
  157.9420  210.0240  156.1000 C   0  0  0  0  0  2  0  0  0  0  0  0
  159.1770  209.2270  156.3690 C   0  0  0  0  0  0  0  0  0  0  0  0
  161.4260  209.0830  157.2590 C   0  0  0  0  0  3  0  0  0  0  0  0
  160.4320  207.1620  156.1680 C   0  0  0  0  0  3  0  0  0  0  0  0
  161.5120  207.7560  156.8290 C   0  0  0  0  0  3  0  0  0  0  0  0
  159.2650  207.8950  155.9410 C   0  0  0  0  0  3  0  0  0  0  0  0
  160.2620  209.8200  157.0260 C   0  0  0  0  0  3  0  0  0  0  0  0
  162.3020  207.9020  148.6820 C   0  0  0  0  0  2  0  0  0  0  0  0
  161.0110  205.0880  150.8620 C   0  0  0  0  0  3  0  0  0  0  0  0
  160.8400  204.0610  149.9280 C   0  0  0  0  0  0  0  0  0  0  0  0
  161.6030  205.5510  148.1700 C   0  0  0  0  0  3  0  0  0  0  0  0
  161.4780  206.3420  150.4560 C   0  0  0  0  0  3  0  0  0  0  0  0
  161.7770  206.5740  149.1100 C   0  0  0  0  0  0  0  0  0  0  0  0
  161.1350  204.3000  148.5770 C   0  0  0  0  0  3  0  0  0  0  0  0
  160.4250  201.6490  149.5640 C   0  0  0  0  0  1  0  0  0  0  0  0
  160.3640  202.8210  150.3650 O   0  0  0  0  0  0  0  0  0  0  0  0
  1  8  1  0  0  0  0
  2 12  1  1  0  0  0
  2 11  1  0  0  0  0
  2 13  1  0  0  0  0
  3 10  1  0  0  0  0
  4  8  1  6  0  0  0
  4  7  1  0  0  0  0
  5  9  1  0  0  0  0
  6  1  1  0  0  0  0
  6  5  1  0  0  0  0
  7  9  1  6  0  0  0
  7 11  1  0  0  0  0
 10 16  1  1  0  0  0
 11  3  1  1  0  0  0
 13 35  1  6  0  0  0
 13 14  1  0  0  0  0
 14 10  1  0  0  0  0
 15 12  2  0  0  0  0
 15  4  1  0  0  0  0
 16 18  2  0  0  0  0
 16 17  1  0  0  0  0
 19 22  1  0  0  0  0
 20 19  1  0  0  0  0
 20 23  1  0  0  0  0
 21 26  1  0  0  0  0
 22 17  1  1  0  0  0
 22 24  1  0  0  0  0
 23 27  1  6  0  0  0
 23 21  1  0  0  0  0
 25 26  1  0  0  0  0
 25 24  1  0  0  0  0
 25 28  1  1  0  0  0
 28 29  1  0  0  0  0
 29 34  1  0  0  0  0
 31 32  2  0  0  0  0
 32 30  1  0  0  0  0
 33 31  1  0  0  0  0
 33 29  2  0  0  0  0
 34 30  2  0  0  0  0
 35 40  1  0  0  0  0
 37 43  1  0  0  0  0
 37 36  2  0  0  0  0
 38 41  2  0  0  0  0
 38 40  1  0  0  0  0
 39 36  1  0  0  0  0
 40 39  2  0  0  0  0
 41 37  1  0  0  0  0
 42 43  1  0  0  0  0
M  END
>  <MODEL>
4

>  <REMARK>
 VINA RESULT:      -3.2      2.696      6.157
  Name = 
  7 active torsions:
  status: ('A' for Active; 'I' for Inactive)
    1  A    between atoms: C_1  and  C_34
    2  A    between atoms: C_1  and  C_35
    3  A    between atoms: C_2  and  C_27
    4  A    between atoms: N_6  and  C_12
    5  A    between atoms: C_11  and  C_14
    6  A    between atoms: C_14  and  C_22
    7  A    between atoms: C_19  and  O_37
                            x       y       z     vdW  Elec       q    Type
                         _______ _______ _______ _____ _____    ______ ____

>  <TORSDO>
F 7

$$$$
=
 OpenBabel11062410333D

 43 48  0  0  1  0  0  0  0  0999 V2000
  162.2070  204.5730  145.5710 C   0  0  0  0  0  2  0  0  0  0  0  0
  160.9910  206.4030  149.7050 C   0  0  1  0  0  3  0  0  0  0  0  0
  161.8460  208.7230  149.1070 C   0  0  0  0  0  2  0  0  0  0  0  0
  162.6200  206.4370  147.2280 C   0  0  2  0  0  3  0  0  0  0  0  0
  160.1540  206.1030  145.2610 C   0  0  0  0  0  2  0  0  0  0  0  0
  160.9260  204.8710  144.7880 C   0  0  0  0  0  2  0  0  0  0  0  0
  161.2240  207.1010  147.2840 C   0  0  1  0  0  3  0  0  0  0  0  0
  163.0170  205.8280  145.8800 C   0  0  0  0  0  2  0  0  0  0  0  0
  160.0930  206.2050  146.7760 C   0  0  0  0  0  2  0  0  0  0  0  0
  161.5700  209.1690  150.5400 C   0  0  1  0  0  3  0  0  0  0  0  0
  160.9110  207.5760  148.7070 C   0  0  1  0  0  3  0  0  0  0  0  0
  162.2420  205.5650  149.5380 C   0  0  0  0  0  3  0  0  0  0  0  0
  160.7630  206.8840  151.1470 C   0  0  2  0  0  3  0  0  0  0  0  0
  161.7380  208.0020  151.5150 C   0  0  0  0  0  2  0  0  0  0  0  0
  162.9450  205.5400  148.3980 C   0  0  0  0  0  3  0  0  0  0  0  0
  162.4510  210.3280  150.8960 C   0  0  0  0  0  0  0  0  0  0  0  0
  162.2000  211.6250  150.3490 N   0  0  0  0  0  2  0  0  0  0  0  0
  163.4560  210.1550  151.6350 O   0  0  0  0  0  0  0  0  0  0  0  0
  161.5530  211.9400  148.0230 C   0  0  0  0  0  2  0  0  0  0  0  0
  160.4810  211.5180  147.1320 N   0  0  0  0  0  2  0  0  0  0  0  0
  158.4650  212.8240  147.5440 C   0  0  0  0  0  2  0  0  0  0  0  0
  161.0740  211.8990  149.4680 C   0  0  2  0  0  3  0  0  0  0  0  0
  159.7320  212.6920  146.7050 C   0  0  2  0  0  3  0  0  0  0  0  0
  160.5040  213.1290  149.8120 O   0  0  0  0  0  0  0  0  0  0  0  0
  159.1210  212.9530  149.6740 C   0  0  2  0  0  3  0  0  0  0  0  0
  158.6610  213.7220  148.5990 O   0  0  0  0  0  0  0  0  0  0  0  0
  159.3410  212.5200  145.2520 C   0  0  0  0  0  1  0  0  0  0  0  0
  158.4020  213.3500  150.9640 C   0  0  0  0  0  2  0  0  0  0  0  0
  158.9010  212.5930  152.1510 C   0  0  0  0  0  0  0  0  0  0  0  0
  159.7830  212.5790  154.4080 C   0  0  0  0  0  3  0  0  0  0  0  0
  159.4980  210.4940  153.2070 C   0  0  0  0  0  3  0  0  0  0  0  0
  159.8860  211.1860  154.3590 C   0  0  0  0  0  3  0  0  0  0  0  0
  159.0040  211.1960  152.1060 C   0  0  0  0  0  3  0  0  0  0  0  0
  159.2950  213.2830  153.3040 C   0  0  0  0  0  3  0  0  0  0  0  0
  160.8360  205.7330  152.1440 C   0  0  0  0  0  2  0  0  0  0  0  0
  160.0690  202.9830  149.6570 C   0  0  0  0  0  3  0  0  0  0  0  0
  160.8320  201.9240  150.1600 C   0  0  0  0  0  0  0  0  0  0  0  0
  161.6180  203.3610  151.9530 C   0  0  0  0  0  3  0  0  0  0  0  0
  160.0770  204.2270  150.2970 C   0  0  0  0  0  3  0  0  0  0  0  0
  160.8500  204.4160  151.4460 C   0  0  0  0  0  0  0  0  0  0  0  0
  161.6110  202.1210  151.3120 C   0  0  0  0  0  3  0  0  0  0  0  0
  161.2090  200.5500  148.1380 C   0  0  0  0  0  1  0  0  0  0  0  0
  160.8080  200.6960  149.4930 O   0  0  0  0  0  0  0  0  0  0  0  0
  1  8  1  0  0  0  0
  2 12  1  1  0  0  0
  2 13  1  0  0  0  0
  3 10  1  0  0  0  0
  4  8  1  6  0  0  0
  4  7  1  0  0  0  0
  4 15  1  0  0  0  0
  5  9  1  0  0  0  0
  6  5  1  0  0  0  0
  6  1  1  0  0  0  0
  7  9  1  1  0  0  0
  7 11  1  0  0  0  0
 10 16  1  1  0  0  0
 10 14  1  0  0  0  0
 11  3  1  1  0  0  0
 11  2  1  0  0  0  0
 13 14  1  0  0  0  0
 13 35  1  1  0  0  0
 15 12  2  0  0  0  0
 16 18  2  0  0  0  0
 17 16  1  0  0  0  0
 19 22  1  0  0  0  0
 20 19  1  0  0  0  0
 21 26  1  0  0  0  0
 22 24  1  0  0  0  0
 22 17  1  1  0  0  0
 23 27  1  6  0  0  0
 23 20  1  0  0  0  0
 23 21  1  0  0  0  0
 25 24  1  0  0  0  0
 25 28  1  1  0  0  0
 26 25  1  0  0  0  0
 28 29  1  0  0  0  0
 29 34  1  0  0  0  0
 31 32  2  0  0  0  0
 32 30  1  0  0  0  0
 33 29  2  0  0  0  0
 33 31  1  0  0  0  0
 34 30  2  0  0  0  0
 36 37  2  0  0  0  0
 36 39  1  0  0  0  0
 37 41  1  0  0  0  0
 39 40  2  0  0  0  0
 40 38  1  0  0  0  0
 40 35  1  0  0  0  0
 41 38  2  0  0  0  0
 42 43  1  0  0  0  0
 43 37  1  0  0  0  0
M  END
>  <MODEL>
5

>  <REMARK>
 VINA RESULT:      -2.9      2.753      4.449
  Name = 
  7 active torsions:
  status: ('A' for Active; 'I' for Inactive)
    1  A    between atoms: C_1  and  C_34
    2  A    between atoms: C_1  and  C_35
    3  A    between atoms: C_2  and  C_27
    4  A    between atoms: N_6  and  C_12
    5  A    between atoms: C_11  and  C_14
    6  A    between atoms: C_14  and  C_22
    7  A    between atoms: C_19  and  O_37
                            x       y       z     vdW  Elec       q    Type
                         _______ _______ _______ _____ _____    ______ ____

>  <TORSDO>
F 7

$$$$
=
 OpenBabel11062410333D

 43 48  0  0  1  0  0  0  0  0999 V2000
  162.1710  204.0760  145.6740 C   0  0  0  0  0  2  0  0  0  0  0  0
  161.2500  207.1150  149.1150 C   0  0  1  0  0  3  0  0  0  0  0  0
  161.9060  209.1370  147.7170 C   0  0  0  0  0  2  0  0  0  0  0  0
  162.6310  206.3860  146.5940 C   0  0  2  0  0  3  0  0  0  0  0  0
  160.0120  205.3720  145.1180 C   0  0  0  0  0  2  0  0  0  0  0  0
  160.8060  204.0720  144.9820 C   0  0  0  0  0  2  0  0  0  0  0  0
  161.2090  206.9970  146.5870 C   0  0  1  0  0  3  0  0  0  0  0  0
  162.9320  205.3840  145.4760 C   0  0  0  0  0  2  0  0  0  0  0  0
  160.0900  205.9570  146.5190 C   0  0  0  0  0  2  0  0  0  0  0  0
  161.7420  210.0160  148.9540 C   0  0  1  0  0  3  0  0  0  0  0  0
  161.0060  207.9000  147.8090 C   0  0  1  0  0  3  0  0  0  0  0  0
  162.5260  206.3000  149.0880 C   0  0  0  0  0  3  0  0  0  0  0  0
  161.1320  208.0310  150.3430 C   0  0  2  0  0  3  0  0  0  0  0  0
  162.0700  209.2320  150.2260 C   0  0  0  0  0  2  0  0  0  0  0  0
  163.1180  205.9250  147.9460 C   0  0  0  0  0  3  0  0  0  0  0  0
  162.5830  211.2490  148.8230 C   0  0  0  0  0  0  0  0  0  0  0  0
  161.9740  212.5210  148.5830 N   0  0  0  0  0  2  0  0  0  0  0  0
  163.8400  211.1660  148.8630 O   0  0  0  0  0  0  0  0  0  0  0  0
  160.1050  212.7210  147.0360 C   0  0  0  0  0  2  0  0  0  0  0  0
  158.7500  212.2030  146.9050 N   0  0  0  0  0  2  0  0  0  0  0  0
  157.2350  213.3900  148.3990 C   0  0  0  0  0  2  0  0  0  0  0  0
  160.5320  212.6950  148.4980 C   0  0  2  0  0  3  0  0  0  0  0  0
  157.8110  213.3130  146.9890 C   0  0  2  0  0  3  0  0  0  0  0  0
  160.1710  213.8960  149.1170 O   0  0  0  0  0  0  0  0  0  0  0  0
  158.9700  213.6280  149.7840 C   0  0  2  0  0  3  0  0  0  0  0  0
  157.9290  214.3320  149.1670 O   0  0  0  0  0  0  0  0  0  0  0  0
  156.6800  213.0710  146.0120 C   0  0  0  0  0  1  0  0  0  0  0  0
  159.0800  214.0190  151.2590 C   0  0  0  0  0  2  0  0  0  0  0  0
  159.1820  212.8290  152.1580 C   0  0  0  0  0  0  0  0  0  0  0  0
  160.3450  210.8200  152.8500 C   0  0  0  0  0  3  0  0  0  0  0  0
  158.2700  211.4510  153.9320 C   0  0  0  0  0  3  0  0  0  0  0  0
  159.3510  210.5720  153.8010 C   0  0  0  0  0  3  0  0  0  0  0  0
  158.1870  212.5790  153.1130 C   0  0  0  0  0  3  0  0  0  0  0  0
  160.2590  211.9450  152.0270 C   0  0  0  0  0  3  0  0  0  0  0  0
  161.3670  207.2680  151.6410 C   0  0  0  0  0  2  0  0  0  0  0  0
  161.8950  203.5290  151.9220 C   0  0  0  0  0  3  0  0  0  0  0  0
  160.9440  203.0390  151.0220 C   0  0  0  0  0  0  0  0  0  0  0  0
  160.2490  205.3150  150.5390 C   0  0  0  0  0  3  0  0  0  0  0  0
  162.0270  204.9050  152.1320 C   0  0  0  0  0  3  0  0  0  0  0  0
  161.2060  205.8000  151.4390 C   0  0  0  0  0  0  0  0  0  0  0  0
  160.1170  203.9410  150.3330 C   0  0  0  0  0  3  0  0  0  0  0  0
  160.8000  201.0520  149.5560 C   0  0  0  0  0  1  0  0  0  0  0  0
  160.8310  201.6570  150.8400 O   0  0  0  0  0  0  0  0  0  0  0  0
  2 12  1  6  0  0  0
  2 13  1  0  0  0  0
  3 10  1  0  0  0  0
  4  8  1  6  0  0  0
  4 15  1  0  0  0  0
  5  9  1  0  0  0  0
  6  5  1  0  0  0  0
  6  1  1  0  0  0  0
  7  9  1  1  0  0  0
  7  4  1  0  0  0  0
  7 11  1  0  0  0  0
  8  1  1  0  0  0  0
 10 16  1  6  0  0  0
 10 14  1  0  0  0  0
 11  3  1  6  0  0  0
 11  2  1  0  0  0  0
 13 35  1  1  0  0  0
 14 13  1  0  0  0  0
 15 12  2  0  0  0  0
 16 18  2  0  0  0  0
 17 16  1  0  0  0  0
 19 22  1  0  0  0  0
 20 23  1  0  0  0  0
 20 19  1  0  0  0  0
 21 26  1  0  0  0  0
 22 17  1  6  0  0  0
 22 24  1  0  0  0  0
 23 27  1  6  0  0  0
 23 21  1  0  0  0  0
 24 25  1  0  0  0  0
 25 28  1  1  0  0  0
 26 25  1  0  0  0  0
 28 29  1  0  0  0  0
 29 33  1  0  0  0  0
 30 32  2  0  0  0  0
 32 31  1  0  0  0  0
 33 31  2  0  0  0  0
 34 29  2  0  0  0  0
 34 30  1  0  0  0  0
 36 39  1  0  0  0  0
 37 36  2  0  0  0  0
 38 40  1  0  0  0  0
 40 35  1  0  0  0  0
 40 39  2  0  0  0  0
 41 38  2  0  0  0  0
 41 37  1  0  0  0  0
 42 43  1  0  0  0  0
 43 37  1  0  0  0  0
M  END
>  <MODEL>
6

>  <REMARK>
 VINA RESULT:      -2.8      2.323      3.684
  Name = 
  7 active torsions:
  status: ('A' for Active; 'I' for Inactive)
    1  A    between atoms: C_1  and  C_34
    2  A    between atoms: C_1  and  C_35
    3  A    between atoms: C_2  and  C_27
    4  A    between atoms: N_6  and  C_12
    5  A    between atoms: C_11  and  C_14
    6  A    between atoms: C_14  and  C_22
    7  A    between atoms: C_19  and  O_37
                            x       y       z     vdW  Elec       q    Type
                         _______ _______ _______ _____ _____    ______ ____

>  <TORSDO>
F 7

$$$$
=
 OpenBabel11062410333D

 43 48  0  0  1  0  0  0  0  0999 V2000
  162.2140  204.3760  145.3910 C   0  0  0  0  0  2  0  0  0  0  0  0
  161.2520  206.7490  149.3110 C   0  0  1  0  0  3  0  0  0  0  0  0
  161.5280  209.0170  148.1930 C   0  0  0  0  0  2  0  0  0  0  0  0
  162.4740  206.5740  146.6150 C   0  0  2  0  0  3  0  0  0  0  0  0
  159.8720  205.4390  145.1970 C   0  0  0  0  0  2  0  0  0  0  0  0
  160.8020  204.2890  144.8080 C   0  0  0  0  0  2  0  0  0  0  0  0
  160.9940  206.9850  146.8040 C   0  0  1  0  0  3  0  0  0  0  0  0
  162.7900  205.7880  145.3390 C   0  0  0  0  0  2  0  0  0  0  0  0
  160.0070  205.8260  146.6610 C   0  0  0  0  0  2  0  0  0  0  0  0
  161.3730  209.6830  149.5570 C   0  0  1  0  0  3  0  0  0  0  0  0
  160.7960  207.6710  148.1610 C   0  0  1  0  0  3  0  0  0  0  0  0
  162.6090  206.1230  149.0680 C   0  0  0  0  0  3  0  0  0  0  0  0
  161.1370  207.4590  150.6690 C   0  0  2  0  0  3  0  0  0  0  0  0
  161.9090  208.7780  150.6680 C   0  0  0  0  0  2  0  0  0  0  0  0
  163.1350  205.9950  147.8420 C   0  0  0  0  0  3  0  0  0  0  0  0
  162.0440  211.0230  149.5540 C   0  0  0  0  0  0  0  0  0  0  0  0
  161.6560  212.0310  150.4910 N   0  0  0  0  0  2  0  0  0  0  0  0
  162.9150  211.2930  148.6840 O   0  0  0  0  0  0  0  0  0  0  0  0
  159.5430  212.8510  151.3790 C   0  0  0  0  0  2  0  0  0  0  0  0
  158.2740  212.3000  151.8330 N   0  0  0  0  0  2  0  0  0  0  0  0
  158.5000  211.3760  154.0770 C   0  0  0  0  0  2  0  0  0  0  0  0
  160.6410  211.8050  151.5090 C   0  0  2  0  0  3  0  0  0  0  0  0
  158.1110  212.5970  153.2500 C   0  0  2  0  0  3  0  0  0  0  0  0
  161.2270  211.8890  152.7760 O   0  0  0  0  0  0  0  0  0  0  0  0
  160.6120  210.8900  153.5420 C   0  0  2  0  0  3  0  0  0  0  0  0
  159.8190  211.4850  154.5300 O   0  0  0  0  0  0  0  0  0  0  0  0
  156.6560  212.9240  153.5160 C   0  0  0  0  0  1  0  0  0  0  0  0
  161.6640  209.9790  154.1750 C   0  0  0  0  0  2  0  0  0  0  0  0
  161.0590  208.9320  155.0520 C   0  0  0  0  0  0  0  0  0  0  0  0
  160.4360  208.1520  157.2610 C   0  0  0  0  0  3  0  0  0  0  0  0
  160.0520  206.7430  155.3270 C   0  0  0  0  0  3  0  0  0  0  0  0
  159.9730  206.9550  156.7070 C   0  0  0  0  0  3  0  0  0  0  0  0
  160.5920  207.7320  154.5000 C   0  0  0  0  0  3  0  0  0  0  0  0
  160.9820  209.1380  156.4350 C   0  0  0  0  0  3  0  0  0  0  0  0
  161.5810  206.5570  151.8160 C   0  0  0  0  0  2  0  0  0  0  0  0
  162.1620  202.8190  151.6620 C   0  0  0  0  0  3  0  0  0  0  0  0
  161.1810  202.4160  150.7500 C   0  0  0  0  0  0  0  0  0  0  0  0
  160.4420  204.7210  150.5490 C   0  0  0  0  0  3  0  0  0  0  0  0
  162.2870  204.1660  152.0170 C   0  0  0  0  0  3  0  0  0  0  0  0
  161.4290  205.1180  151.4590 C   0  0  0  0  0  0  0  0  0  0  0  0
  160.3170  203.3750  150.1970 C   0  0  0  0  0  3  0  0  0  0  0  0
  160.8350  200.6090  149.0970 C   0  0  0  0  0  1  0  0  0  0  0  0
  161.0760  201.0610  150.4220 O   0  0  0  0  0  0  0  0  0  0  0  0
  2 12  1  6  0  0  0
  2 13  1  0  0  0  0
  3 10  1  0  0  0  0
  4  8  1  6  0  0  0
  4  7  1  0  0  0  0
  4 15  1  0  0  0  0
  5  9  1  0  0  0  0
  6  5  1  0  0  0  0
  6  1  1  0  0  0  0
  7  9  1  1  0  0  0
  7 11  1  0  0  0  0
  8  1  1  0  0  0  0
 10 16  1  6  0  0  0
 10 14  1  0  0  0  0
 11  3  1  6  0  0  0
 11  2  1  0  0  0  0
 13 35  1  1  0  0  0
 14 13  1  0  0  0  0
 15 12  2  0  0  0  0
 16 17  1  0  0  0  0
 18 16  2  0  0  0  0
 19 22  1  0  0  0  0
 19 20  1  0  0  0  0
 20 23  1  0  0  0  0
 21 26  1  0  0  0  0
 22 17  1  6  0  0  0
 22 24  1  0  0  0  0
 23 27  1  6  0  0  0
 23 21  1  0  0  0  0
 24 25  1  0  0  0  0
 25 28  1  1  0  0  0
 25 26  1  0  0  0  0
 28 29  1  0  0  0  0
 29 34  1  0  0  0  0
 31 32  2  0  0  0  0
 32 30  1  0  0  0  0
 33 29  2  0  0  0  0
 33 31  1  0  0  0  0
 34 30  2  0  0  0  0
 36 39  1  0  0  0  0
 37 36  2  0  0  0  0
 38 40  1  0  0  0  0
 40 35  1  0  0  0  0
 40 39  2  0  0  0  0
 41 38  2  0  0  0  0
 41 37  1  0  0  0  0
 42 43  1  0  0  0  0
 43 37  1  0  0  0  0
M  END
>  <MODEL>
7

>  <REMARK>
 VINA RESULT:      -2.7      2.622      4.815
  Name = 
  7 active torsions:
  status: ('A' for Active; 'I' for Inactive)
    1  A    between atoms: C_1  and  C_34
    2  A    between atoms: C_1  and  C_35
    3  A    between atoms: C_2  and  C_27
    4  A    between atoms: N_6  and  C_12
    5  A    between atoms: C_11  and  C_14
    6  A    between atoms: C_14  and  C_22
    7  A    between atoms: C_19  and  O_37
                            x       y       z     vdW  Elec       q    Type
                         _______ _______ _______ _____ _____    ______ ____

>  <TORSDO>
F 7

$$$$
=
 OpenBabel11062410333D

 43 48  0  0  1  0  0  0  0  0999 V2000
  162.0570  204.7030  151.8330 C   0  0  0  0  0  2  0  0  0  0  0  0
  160.7840  209.1940  151.4620 C   0  0  1  0  0  3  0  0  0  0  0  0
  162.0470  209.5350  149.2810 C   0  0  0  0  0  2  0  0  0  0  0  0
  162.6130  206.9510  150.8150 C   0  0  2  0  0  3  0  0  0  0  0  0
  160.3100  204.9470  149.9510 C   0  0  0  0  0  2  0  0  0  0  0  0
  160.9150  204.0620  151.0420 C   0  0  0  0  0  2  0  0  0  0  0  0
  161.3400  207.2200  149.9780 C   0  0  1  0  0  3  0  0  0  0  0  0
  163.0260  205.4820  150.9480 C   0  0  0  0  0  2  0  0  0  0  0  0
  160.1310  206.3870  150.4040 C   0  0  0  0  0  2  0  0  0  0  0  0
  161.7190  211.0230  149.3500 C   0  0  1  0  0  3  0  0  0  0  0  0
  160.9810  208.7100  150.0100 C   0  0  1  0  0  3  0  0  0  0  0  0
  161.8950  208.7520  152.3910 C   0  0  0  0  0  3  0  0  0  0  0  0
  160.5070  210.7050  151.5110 C   0  0  2  0  0  3  0  0  0  0  0  0
  161.6110  211.4900  150.8030 C   0  0  0  0  0  2  0  0  0  0  0  0
  162.6850  207.7030  152.1220 C   0  0  0  0  0  3  0  0  0  0  0  0
  162.7370  211.8110  148.5830 C   0  0  0  0  0  0  0  0  0  0  0  0
  162.3270  212.7860  147.6210 N   0  0  0  0  0  2  0  0  0  0  0  0
  163.9660  211.5770  148.7380 O   0  0  0  0  0  0  0  0  0  0  0  0
  160.2250  213.4050  148.6820 C   0  0  0  0  0  2  0  0  0  0  0  0
  159.1330  214.3410  148.4540 N   0  0  0  0  0  2  0  0  0  0  0  0
  157.6470  213.5090  146.7100 C   0  0  0  0  0  2  0  0  0  0  0  0
  160.9280  213.0950  147.3670 C   0  0  2  0  0  3  0  0  0  0  0  0
  157.9100  213.5880  148.2100 C   0  0  2  0  0  3  0  0  0  0  0  0
  160.3140  212.0000  146.7510 O   0  0  0  0  0  0  0  0  0  0  0  0
  159.4420  212.5440  145.7990 C   0  0  2  0  0  3  0  0  0  0  0  0
  158.1210  212.3000  146.1880 O   0  0  0  0  0  0  0  0  0  0  0  0
  156.7530  214.3090  148.8720 C   0  0  0  0  0  1  0  0  0  0  0  0
  159.7150  211.9420  144.4190 C   0  0  0  0  0  2  0  0  0  0  0  0
  160.6270  212.7930  143.5970 C   0  0  0  0  0  0  0  0  0  0  0  0
  162.8580  213.5920  143.0910 C   0  0  0  0  0  3  0  0  0  0  0  0
  160.9580  214.4420  141.8500 C   0  0  0  0  0  3  0  0  0  0  0  0
  162.3350  214.4230  142.0960 C   0  0  0  0  0  3  0  0  0  0  0  0
  160.1060  213.6260  142.5980 C   0  0  0  0  0  3  0  0  0  0  0  0
  162.0060  212.7810  143.8430 C   0  0  0  0  0  3  0  0  0  0  0  0
  160.3060  211.1950  152.9410 C   0  0  0  0  0  2  0  0  0  0  0  0
  156.9460  212.5490  154.0420 C   0  0  0  0  0  3  0  0  0  0  0  0
  156.8050  213.6670  153.2140 C   0  0  0  0  0  0  0  0  0  0  0  0
  158.9660  213.1850  152.2190 C   0  0  0  0  0  3  0  0  0  0  0  0
  158.0900  211.7490  153.9610 C   0  0  0  0  0  3  0  0  0  0  0  0
  159.1000  212.0640  153.0470 C   0  0  0  0  0  0  0  0  0  0  0  0
  157.8250  213.9840  152.3020 C   0  0  0  0  0  3  0  0  0  0  0  0
  154.6410  214.1960  154.2890 C   0  0  0  0  0  1  0  0  0  0  0  0
  155.6530  214.4510  153.3260 O   0  0  0  0  0  0  0  0  0  0  0  0
  2 13  1  0  0  0  0
  2 12  1  1  0  0  0
  3 10  1  0  0  0  0
  4  8  1  1  0  0  0
  4 15  1  0  0  0  0
  5  9  1  0  0  0  0
  5  6  1  0  0  0  0
  6  1  1  0  0  0  0
  7 11  1  0  0  0  0
  7  9  1  1  0  0  0
  7  4  1  0  0  0  0
  8  1  1  0  0  0  0
 10 16  1  1  0  0  0
 10 14  1  0  0  0  0
 11  3  1  1  0  0  0
 11  2  1  0  0  0  0
 13 35  1  1  0  0  0
 14 13  1  0  0  0  0
 15 12  2  0  0  0  0
 16 18  2  0  0  0  0
 17 16  1  0  0  0  0
 20 19  1  0  0  0  0
 21 23  1  0  0  0  0
 22 17  1  1  0  0  0
 22 19  1  0  0  0  0
 23 20  1  0  0  0  0
 23 27  1  1  0  0  0
 24 22  1  0  0  0  0
 25 28  1  6  0  0  0
 25 26  1  0  0  0  0
 25 24  1  0  0  0  0
 26 21  1  0  0  0  0
 29 34  1  0  0  0  0
 29 28  1  0  0  0  0
 30 34  2  0  0  0  0
 31 32  2  0  0  0  0
 31 33  1  0  0  0  0
 32 30  1  0  0  0  0
 33 29  2  0  0  0  0
 35 40  1  0  0  0  0
 37 43  1  0  0  0  0
 37 36  2  0  0  0  0
 38 41  2  0  0  0  0
 38 40  1  0  0  0  0
 39 36  1  0  0  0  0
 40 39  2  0  0  0  0
 41 37  1  0  0  0  0
 43 42  1  0  0  0  0
M  END
>  <MODEL>
8

>  <REMARK>
 VINA RESULT:      -2.5      2.822      5.998
  Name = 
  7 active torsions:
  status: ('A' for Active; 'I' for Inactive)
    1  A    between atoms: C_1  and  C_34
    2  A    between atoms: C_1  and  C_35
    3  A    between atoms: C_2  and  C_27
    4  A    between atoms: N_6  and  C_12
    5  A    between atoms: C_11  and  C_14
    6  A    between atoms: C_14  and  C_22
    7  A    between atoms: C_19  and  O_37
                            x       y       z     vdW  Elec       q    Type
                         _______ _______ _______ _____ _____    ______ ____

>  <TORSDO>
F 7

$$$$
=
 OpenBabel11062410333D

 43 48  0  0  1  0  0  0  0  0999 V2000
  162.2560  204.4050  146.1950 C   0  0  0  0  0  2  0  0  0  0  0  0
  161.3540  207.7470  149.3470 C   0  0  1  0  0  3  0  0  0  0  0  0
  161.8940  209.6360  147.7320 C   0  0  0  0  0  2  0  0  0  0  0  0
  162.6700  206.8090  146.8610 C   0  0  2  0  0  3  0  0  0  0  0  0
  160.0370  205.5740  145.5940 C   0  0  0  0  0  2  0  0  0  0  0  0
  160.8680  204.2910  145.5590 C   0  0  0  0  0  2  0  0  0  0  0  0
  161.2300  207.3730  146.8470 C   0  0  1  0  0  3  0  0  0  0  0  0
  162.9650  205.7070  145.8390 C   0  0  0  0  0  2  0  0  0  0  0  0
  160.1440  206.3000  146.9250 C   0  0  0  0  0  2  0  0  0  0  0  0
  161.7450  210.6300  148.8800 C   0  0  1  0  0  3  0  0  0  0  0  0
  161.0390  208.3880  147.9800 C   0  0  1  0  0  3  0  0  0  0  0  0
  162.6550  206.9710  149.3540 C   0  0  0  0  0  3  0  0  0  0  0  0
  161.2490  208.7780  150.4820 C   0  0  2  0  0  3  0  0  0  0  0  0
  162.1430  209.9880  150.2100 C   0  0  0  0  0  2  0  0  0  0  0  0
  163.2190  206.5000  148.2330 C   0  0  0  0  0  3  0  0  0  0  0  0
  162.5390  211.8680  148.5950 C   0  0  0  0  0  0  0  0  0  0  0  0
  161.9810  213.1610  148.8400 N   0  0  0  0  0  2  0  0  0  0  0  0
  163.6860  211.7800  148.0790 O   0  0  0  0  0  0  0  0  0  0  0  0
  160.6060  212.7340  150.8030 C   0  0  0  0  0  2  0  0  0  0  0  0
  159.6470  213.4540  151.6300 N   0  0  0  0  0  2  0  0  0  0  0  0
  157.4800  213.5670  150.5210 C   0  0  0  0  0  2  0  0  0  0  0  0
  160.6550  213.3470  149.4100 C   0  0  2  0  0  3  0  0  0  0  0  0
  158.3470  212.8060  151.5180 C   0  0  2  0  0  3  0  0  0  0  0  0
  159.7060  212.7300  148.5880 O   0  0  0  0  0  0  0  0  0  0  0  0
  158.5970  213.5840  148.5880 C   0  0  2  0  0  3  0  0  0  0  0  0
  157.5350  212.9670  149.2580 O   0  0  0  0  0  0  0  0  0  0  0  0
  157.6710  212.8320  152.8730 C   0  0  0  0  0  1  0  0  0  0  0  0
  158.1950  213.9360  147.1550 C   0  0  0  0  0  2  0  0  0  0  0  0
  159.2590  213.5930  146.1630 C   0  0  0  0  0  0  0  0  0  0  0  0
  160.1870  212.0610  144.5310 C   0  0  0  0  0  3  0  0  0  0  0  0
  161.3570  214.1150  145.0660 C   0  0  0  0  0  3  0  0  0  0  0  0
  161.2750  212.9200  144.3440 C   0  0  0  0  0  3  0  0  0  0  0  0
  160.3490  214.4530  145.9720 C   0  0  0  0  0  3  0  0  0  0  0  0
  159.1820  212.3950  145.4430 C   0  0  0  0  0  3  0  0  0  0  0  0
  161.5540  208.1570  151.8400 C   0  0  0  0  0  2  0  0  0  0  0  0
  160.4110  204.6240  151.0970 C   0  0  0  0  0  3  0  0  0  0  0  0
  161.4310  203.8660  151.6820 C   0  0  0  0  0  0  0  0  0  0  0  0
  162.5480  205.9150  152.3540 C   0  0  0  0  0  3  0  0  0  0  0  0
  160.4550  206.0210  151.1390 C   0  0  0  0  0  3  0  0  0  0  0  0
  161.5220  206.6680  151.7700 C   0  0  0  0  0  0  0  0  0  0  0  0
  162.5040  204.5200  152.3090 C   0  0  0  0  0  3  0  0  0  0  0  0
  160.8320  201.7820  150.4920 C   0  0  0  0  0  1  0  0  0  0  0  0
  161.3620  202.4720  151.6160 O   0  0  0  0  0  0  0  0  0  0  0  0
  2 12  1  6  0  0  0
  2 13  1  0  0  0  0
  3 10  1  0  0  0  0
  4  8  1  6  0  0  0
  4 15  1  0  0  0  0
  5  9  1  0  0  0  0
  6  5  1  0  0  0  0
  6  1  1  0  0  0  0
  7  4  1  0  0  0  0
  7  9  1  1  0  0  0
  7 11  1  0  0  0  0
  8  1  1  0  0  0  0
 10 16  1  6  0  0  0
 10 14  1  0  0  0  0
 11  3  1  6  0  0  0
 11  2  1  0  0  0  0
 13 35  1  1  0  0  0
 14 13  1  0  0  0  0
 15 12  2  0  0  0  0
 16 17  1  0  0  0  0
 18 16  2  0  0  0  0
 19 20  1  0  0  0  0
 21 23  1  0  0  0  0
 22 17  1  6  0  0  0
 22 19  1  0  0  0  0
 23 20  1  0  0  0  0
 23 27  1  1  0  0  0
 24 25  1  0  0  0  0
 24 22  1  0  0  0  0
 25 28  1  6  0  0  0
 25 26  1  0  0  0  0
 26 21  1  0  0  0  0
 29 28  1  0  0  0  0
 30 34  1  0  0  0  0
 31 33  2  0  0  0  0
 32 30  2  0  0  0  0
 32 31  1  0  0  0  0
 33 29  1  0  0  0  0
 34 29  2  0  0  0  0
 36 39  2  0  0  0  0
 36 37  1  0  0  0  0
 37 41  2  0  0  0  0
 39 40  1  0  0  0  0
 40 35  1  0  0  0  0
 40 38  2  0  0  0  0
 41 38  1  0  0  0  0
 42 43  1  0  0  0  0
 43 37  1  0  0  0  0
M  END
>  <MODEL>
9

>  <REMARK>
 VINA RESULT:      -0.7      2.463      4.985
  Name = 
  7 active torsions:
  status: ('A' for Active; 'I' for Inactive)
    1  A    between atoms: C_1  and  C_34
    2  A    between atoms: C_1  and  C_35
    3  A    between atoms: C_2  and  C_27
    4  A    between atoms: N_6  and  C_12
    5  A    between atoms: C_11  and  C_14
    6  A    between atoms: C_14  and  C_22
    7  A    between atoms: C_19  and  O_37
                            x       y       z     vdW  Elec       q    Type
                         _______ _______ _______ _____ _____    ______ ____

>  <TORSDO>
F 7

$$$$
