=
 OpenBabel11062409063D

 37 42  0  0  1  0  0  0  0  0999 V2000
  162.0100  210.8570  155.9920 C   0  0  0  0  0  0  0  0  0  0  0  0
  160.4060  208.5340  154.0150 C   0  0  2  0  0  3  0  0  0  0  0  0
  161.9150  208.2760  156.3870 C   0  0  0  0  0  2  0  0  0  0  0  0
  161.6650  208.8890  153.2010 C   0  0  0  0  0  2  0  0  0  0  0  0
  160.0880  209.5760  155.1150 C   0  0  2  0  0  3  0  0  0  0  0  0
  161.5840  208.4180  151.7440 C   0  0  1  0  0  3  0  0  0  0  0  0
  160.0010  206.9650  157.0010 O   0  0  0  0  0  1  0  0  0  0  0  0
  159.9630  211.0320  154.6730 C   0  0  1  0  0  3  0  0  0  0  0  0
  163.4420  210.5570  155.5730 C   0  0  0  0  0  1  0  0  0  0  0  0
  161.0870  206.0130  153.8020 C   0  0  0  0  0  2  0  0  0  0  0  0
  161.0350  207.0660  156.0690 C   0  0  1  0  0  3  0  0  0  0  0  0
  161.3370  211.6490  154.8790 C   0  0  0  0  0  2  0  0  0  0  0  0
  160.4510  207.1150  154.6460 C   0  0  1  0  0  3  0  0  0  0  0  0
  161.1470  209.6010  156.2180 C   0  0  2  0  0  3  0  0  0  0  0  0
  161.7570  206.9000  151.5990 C   0  0  1  0  0  3  0  0  0  0  0  0
  162.0260  211.6850  157.2610 C   0  0  0  0  0  1  0  0  0  0  0  0
  160.7000  206.0870  152.3360 C   0  0  0  0  0  2  0  0  0  0  0  0
  159.9500  212.5180  152.6610 C   0  0  0  0  0  2  0  0  0  0  0  0
  158.9320  213.6080  152.9980 C   0  0  1  0  0  0  0  0  0  0  0  0
  157.3430  213.9200  151.2050 C   0  0  2  0  0  3  0  0  0  0  0  0
  158.6350  214.4510  151.7610 C   0  0  0  0  0  2  0  0  0  0  0  0
  156.6700  213.2610  152.3870 C   0  0  0  0  0  2  0  0  0  0  0  0
  157.9110  211.4980  153.3200 C   0  0  0  0  0  2  0  0  0  0  0  0
  157.6840  212.9380  153.3860 N   0  0  1  0  0  0  0  0  0  0  0  0
  157.6180  212.9560  150.2350 O   0  0  0  0  0  1  0  0  0  0  0  0
  159.4030  211.2500  153.2630 C   0  0  2  0  0  3  0  0  0  0  0  0
  159.3630  214.4070  154.0870 O   0  0  0  0  0  0  0  0  0  0  0  0
  158.3640  214.4530  155.0780 C   0  0  0  0  0  1  0  0  0  0  0  0
  162.5200  207.3060  149.2160 C   0  0  0  0  0  3  0  0  0  0  0  0
  161.9290  206.4660  150.1730 C   0  0  0  0  0  0  0  0  0  0  0  0
  161.5200  205.1800  149.8030 C   0  0  0  0  0  3  0  0  0  0  0  0
  161.1700  203.1310  148.0310 Cl  0  0  0  0  0  0  0  0  0  0  0  0
  162.2710  205.5810  147.5360 C   0  0  0  0  0  3  0  0  0  0  0  0
  161.6870  204.7400  148.4870 C   0  0  0  0  0  0  0  0  0  0  0  0
  162.6880  206.8650  147.9010 C   0  0  0  0  0  3  0  0  0  0  0  0
  160.3520  208.9570  151.0220 C   0  0  0  0  0  2  0  0  0  0  0  0
  160.7330  210.1590  150.1820 C   0  0  0  0  0  1  0  0  0  0  0  0
  1 14  1  0  0  0  0
  1 16  1  0  0  0  0
  2  4  1  1  0  0  0
  2 13  1  0  0  0  0
  2  5  1  0  0  0  0
  5 14  1  0  0  0  0
  6  4  1  0  0  0  0
  8 12  1  0  0  0  0
  8  5  1  0  0  0  0
  9  1  1  0  0  0  0
 10 13  1  0  0  0  0
 11  3  1  0  0  0  0
 11  7  1  0  0  0  0
 12  1  1  0  0  0  0
 13 11  1  0  0  0  0
 14  3  1  0  0  0  0
 15  6  1  0  0  0  0
 15 17  1  0  0  0  0
 17 10  1  0  0  0  0
 18 19  1  0  0  0  0
 18 26  1  0  0  0  0
 19 24  1  0  0  0  0
 19 27  1  0  0  0  0
 20 21  1  0  0  0  0
 20 22  1  0  0  0  0
 21 19  1  0  0  0  0
 22 24  1  0  0  0  0
 23 24  1  0  0  0  0
 25 20  1  0  0  0  0
 26 23  1  0  0  0  0
 26  8  1  0  0  0  0
 27 28  1  0  0  0  0
 29 30  1  0  0  0  0
 30 15  1  0  0  0  0
 31 30  2  0  0  0  0
 32 34  1  0  0  0  0
 33 35  1  0  0  0  0
 33 34  2  0  0  0  0
 34 31  1  0  0  0  0
 35 29  2  0  0  0  0
 36  6  1  0  0  0  0
 37 36  1  0  0  0  0
M  END
>  <MODEL>
1

>  <REMARK>
 VINA RESULT:      -2.8      0.000      0.000
  Name = 
  4 active torsions:
  status: ('A' for Active; 'I' for Inactive)
    1  A    between atoms: C_5  and  O_12
    2  A    between atoms: C_6  and  C_31
    3  A    between atoms: C_7  and  C_14
    4  A    between atoms: C_20  and  C_36
                            x       y       z     vdW  Elec       q    Type
                         _______ _______ _______ _____ _____    ______ ____

>  <TORSDO>
F 4

$$$$
=
 OpenBabel11062409063D

 37 42  0  0  1  0  0  0  0  0999 V2000
  159.7410  212.4450  151.3870 C   0  0  0  0  0  0  0  0  0  0  0  0
  161.9570  209.9480  150.5330 C   0  0  2  0  0  3  0  0  0  0  0  0
  160.7980  212.0390  149.0330 C   0  0  0  0  0  2  0  0  0  0  0  0
  160.6070  209.2120  150.6300 C   0  0  0  0  0  2  0  0  0  0  0  0
  161.9390  211.3300  151.2320 C   0  0  2  0  0  3  0  0  0  0  0  0
  160.7640  207.6870  150.6890 C   0  0  1  0  0  3  0  0  0  0  0  0
  163.0930  212.3320  148.3950 O   0  0  0  0  0  1  0  0  0  0  0  0
  161.4960  211.3600  152.6920 C   0  0  1  0  0  3  0  0  0  0  0  0
  158.4940  211.8750  150.7240 C   0  0  0  0  0  1  0  0  0  0  0  0
  162.2340  208.9390  148.1310 C   0  0  0  0  0  2  0  0  0  0  0  0
  162.0380  211.4180  148.3880 C   0  0  1  0  0  3  0  0  0  0  0  0
  160.0060  211.6670  152.6680 C   0  0  0  0  0  2  0  0  0  0  0  0
  162.4730  210.1130  149.0770 C   0  0  1  0  0  3  0  0  0  0  0  0
  161.0160  212.3270  150.5310 C   0  0  2  0  0  3  0  0  0  0  0  0
  161.1490  207.0770  149.3340 C   0  0  1  0  0  3  0  0  0  0  0  0
  159.5010  213.9030  151.7240 C   0  0  0  0  0  1  0  0  0  0  0  0
  162.4750  207.5890  148.7830 C   0  0  0  0  0  2  0  0  0  0  0  0
  160.6400  209.6120  154.2630 C   0  0  0  0  0  2  0  0  0  0  0  0
  160.6980  210.2750  155.6400 C   0  0  1  0  0  0  0  0  0  0  0  0
  161.7920  208.8570  157.2610 C   0  0  2  0  0  3  0  0  0  0  0  0
  160.4380  209.2410  156.7330 C   0  0  0  0  0  2  0  0  0  0  0  0
  162.6750  210.0360  156.9210 C   0  0  0  0  0  2  0  0  0  0  0  0
  162.8230  210.4740  154.6180 C   0  0  0  0  0  2  0  0  0  0  0  0
  162.0640  210.7820  155.8260 N   0  0  1  0  0  0  0  0  0  0  0  0
  162.2500  207.7270  156.5810 O   0  0  0  0  0  1  0  0  0  0  0  0
  161.8480  210.1180  153.5170 C   0  0  2  0  0  3  0  0  0  0  0  0
  159.8030  211.3700  155.7300 O   0  0  0  0  0  0  0  0  0  0  0  0
  158.7930  211.0940  156.6710 C   0  0  0  0  0  1  0  0  0  0  0  0
  160.8130  204.8490  150.4960 C   0  0  0  0  0  3  0  0  0  0  0  0
  161.0600  205.5790  149.3220 C   0  0  0  0  0  0  0  0  0  0  0  0
  161.1930  204.9030  148.1050 C   0  0  0  0  0  3  0  0  0  0  0  0
  161.2640  202.6700  146.5320 Cl  0  0  0  0  0  0  0  0  0  0  0  0
  160.8530  202.7860  149.2300 C   0  0  0  0  0  3  0  0  0  0  0  0
  161.0930  203.5090  148.0590 C   0  0  0  0  0  0  0  0  0  0  0  0
  160.7120  203.4560  150.4490 C   0  0  0  0  0  3  0  0  0  0  0  0
  161.6660  207.2340  151.8330 C   0  0  0  0  0  2  0  0  0  0  0  0
  160.8260  206.6370  152.9450 C   0  0  0  0  0  1  0  0  0  0  0  0
  1 16  1  0  0  0  0
  1 12  1  0  0  0  0
  2  4  1  6  0  0  0
  2  5  1  0  0  0  0
  3 14  1  0  0  0  0
  4  6  1  0  0  0  0
  5  8  1  0  0  0  0
  6 36  1  0  0  0  0
  8 26  1  0  0  0  0
  9  1  1  0  0  0  0
 10 17  1  0  0  0  0
 10 13  1  0  0  0  0
 11  7  1  0  0  0  0
 11  3  1  0  0  0  0
 11 13  1  0  0  0  0
 12  8  1  0  0  0  0
 13  2  1  0  0  0  0
 14  5  1  0  0  0  0
 14  1  1  0  0  0  0
 15  6  1  0  0  0  0
 17 15  1  0  0  0  0
 18 19  1  0  0  0  0
 19 27  1  0  0  0  0
 19 24  1  0  0  0  0
 19 21  1  0  0  0  0
 21 20  1  0  0  0  0
 22 20  1  0  0  0  0
 23 24  1  0  0  0  0
 24 22  1  0  0  0  0
 25 20  1  0  0  0  0
 26 18  1  0  0  0  0
 26 23  1  0  0  0  0
 27 28  1  0  0  0  0
 30 15  1  0  0  0  0
 30 29  2  0  0  0  0
 31 30  1  0  0  0  0
 32 34  1  0  0  0  0
 33 35  2  0  0  0  0
 34 31  2  0  0  0  0
 34 33  1  0  0  0  0
 35 29  1  0  0  0  0
 36 37  1  0  0  0  0
M  END
>  <MODEL>
2

>  <REMARK>
 VINA RESULT:      -2.2      2.076      5.425
  Name = 
  4 active torsions:
  status: ('A' for Active; 'I' for Inactive)
    1  A    between atoms: C_5  and  O_12
    2  A    between atoms: C_6  and  C_31
    3  A    between atoms: C_7  and  C_14
    4  A    between atoms: C_20  and  C_36
                            x       y       z     vdW  Elec       q    Type
                         _______ _______ _______ _____ _____    ______ ____

>  <TORSDO>
F 4

$$$$
=
 OpenBabel11062409063D

 37 42  0  0  1  0  0  0  0  0999 V2000
  161.1250  207.1250  148.7160 C   0  0  0  0  0  0  0  0  0  0  0  0
  161.9780  208.4330  151.7870 C   0  0  2  0  0  3  0  0  0  0  0  0
  161.6090  205.7790  150.9010 C   0  0  0  0  0  2  0  0  0  0  0  0
  160.4690  208.7250  151.6800 C   0  0  0  0  0  2  0  0  0  0  0  0
  162.6240  208.0980  150.4200 C   0  0  2  0  0  3  0  0  0  0  0  0
  159.9860  209.7490  152.7140 C   0  0  1  0  0  3  0  0  0  0  0  0
  163.7170  205.5230  152.0190 O   0  0  0  0  0  1  0  0  0  0  0  0
  162.4230  209.1100  149.2950 C   0  0  1  0  0  3  0  0  0  0  0  0
  159.6810  206.7540  149.0230 C   0  0  0  0  0  1  0  0  0  0  0  0
  161.5030  207.2870  154.0950 C   0  0  0  0  0  2  0  0  0  0  0  0
  162.3860  205.8990  152.2130 C   0  0  1  0  0  3  0  0  0  0  0  0
  161.2050  208.6330  148.5190 C   0  0  0  0  0  2  0  0  0  0  0  0
  162.3260  207.3160  152.8090 C   0  0  1  0  0  3  0  0  0  0  0  0
  162.1150  206.7770  149.8420 C   0  0  2  0  0  3  0  0  0  0  0  0
  159.9080  209.1700  154.1330 C   0  0  1  0  0  3  0  0  0  0  0  0
  161.5560  206.4270  147.4410 C   0  0  0  0  0  1  0  0  0  0  0  0
  161.2440  208.6690  154.6680 C   0  0  0  0  0  2  0  0  0  0  0  0
  161.0230  211.1830  149.2920 C   0  0  0  0  0  2  0  0  0  0  0  0
  161.3030  211.8300  147.9350 C   0  0  1  0  0  0  0  0  0  0  0  0
  161.8490  214.1720  148.1680 C   0  0  2  0  0  3  0  0  0  0  0  0
  160.7070  213.2350  147.8900 C   0  0  0  0  0  2  0  0  0  0  0  0
  163.0810  213.3880  147.7780 C   0  0  0  0  0  2  0  0  0  0  0  0
  163.3690  211.4070  149.0090 C   0  0  0  0  0  2  0  0  0  0  0  0
  162.7600  211.9640  147.8050 N   0  0  1  0  0  0  0  0  0  0  0  0
  161.8950  214.4530  149.5330 O   0  0  0  0  0  1  0  0  0  0  0  0
  162.3310  210.5760  149.7310 C   0  0  2  0  0  3  0  0  0  0  0  0
  160.8350  211.0260  146.8660 O   0  0  0  0  0  0  0  0  0  0  0  0
  160.1090  211.8120  145.9520 C   0  0  0  0  0  1  0  0  0  0  0  0
  159.7850  210.4380  156.3240 C   0  0  0  0  0  3  0  0  0  0  0  0
  159.2050  210.0800  155.0970 C   0  0  0  0  0  0  0  0  0  0  0  0
  157.9570  210.6070  154.7450 C   0  0  0  0  0  3  0  0  0  0  0  0
  155.7270  212.1260  155.1670 Cl  0  0  0  0  0  0  0  0  0  0  0  0
  157.8670  211.8230  156.8370 C   0  0  0  0  0  3  0  0  0  0  0  0
  157.2880  211.4730  155.6140 C   0  0  0  0  0  0  0  0  0  0  0  0
  159.1170  211.3050  157.1920 C   0  0  0  0  0  3  0  0  0  0  0  0
  160.7570  211.0640  152.6400 C   0  0  0  0  0  2  0  0  0  0  0  0
  159.8020  212.2050  152.3560 C   0  0  0  0  0  1  0  0  0  0  0  0
  1  9  1  0  0  0  0
  1 14  1  0  0  0  0
  2  4  1  6  0  0  0
  2 13  1  0  0  0  0
  3 11  1  0  0  0  0
  4  6  1  0  0  0  0
  5  2  1  0  0  0  0
  6 15  1  0  0  0  0
  7 11  1  0  0  0  0
  8 26  1  0  0  0  0
  8  5  1  0  0  0  0
 10 17  1  0  0  0  0
 11 13  1  0  0  0  0
 12  1  1  0  0  0  0
 12  8  1  0  0  0  0
 13 10  1  0  0  0  0
 14  5  1  0  0  0  0
 14  3  1  0  0  0  0
 15 17  1  0  0  0  0
 15 30  1  0  0  0  0
 16  1  1  0  0  0  0
 18 26  1  0  0  0  0
 19 18  1  0  0  0  0
 20 25  1  0  0  0  0
 21 19  1  0  0  0  0
 21 20  1  0  0  0  0
 22 24  1  0  0  0  0
 22 20  1  0  0  0  0
 23 26  1  0  0  0  0
 24 19  1  0  0  0  0
 24 23  1  0  0  0  0
 27 19  1  0  0  0  0
 28 27  1  0  0  0  0
 29 35  1  0  0  0  0
 30 29  2  0  0  0  0
 31 30  1  0  0  0  0
 31 34  2  0  0  0  0
 32 34  1  0  0  0  0
 33 35  2  0  0  0  0
 34 33  1  0  0  0  0
 36  6  1  0  0  0  0
 37 36  1  0  0  0  0
M  END
>  <MODEL>
3

>  <REMARK>
 VINA RESULT:      -0.3      3.566      6.947
  Name = 
  4 active torsions:
  status: ('A' for Active; 'I' for Inactive)
    1  A    between atoms: C_5  and  O_12
    2  A    between atoms: C_6  and  C_31
    3  A    between atoms: C_7  and  C_14
    4  A    between atoms: C_20  and  C_36
                            x       y       z     vdW  Elec       q    Type
                         _______ _______ _______ _____ _____    ______ ____

>  <TORSDO>
F 4

$$$$
