=
 OpenBabel11062410263D

 43 47  0  0  1  0  0  0  0  0999 V2000
  160.8940  203.5480  150.0880 C   0  0  0  0  0  0  0  0  0  0  0  0
  160.9810  207.9040  152.1920 C   0  0  1  0  0  3  0  0  0  0  0  0
  161.8780  209.8940  150.3410 C   0  0  0  0  0  0  0  0  0  0  0  0
  161.8340  205.1100  151.8260 C   0  0  2  0  0  3  0  0  0  0  0  0
  160.7900  204.6160  149.0390 C   0  0  0  0  0  2  0  0  0  0  0  0
  160.9370  202.3740  149.7550 O   0  0  0  0  0  0  0  0  0  0  0  0
  161.9210  206.1480  150.6600 C   0  0  1  0  0  3  0  0  0  0  0  0
  160.9170  203.9100  151.5440 C   0  0  0  0  0  2  0  0  0  0  0  0
  160.7590  206.0060  149.6700 C   0  0  0  0  0  2  0  0  0  0  0  0
  162.1500  208.6080  150.0810 C   0  0  0  0  0  3  0  0  0  0  0  0
  162.0810  207.5820  151.1760 C   0  0  1  0  0  3  0  0  0  0  0  0
  161.1120  206.9660  153.3600 C   0  0  0  0  0  3  0  0  0  0  0  0
  161.0300  209.3650  152.5910 C   0  0  0  0  0  0  0  0  0  0  0  0
  161.3960  210.2860  151.6870 C   0  0  0  0  0  3  0  0  0  0  0  0
  161.4880  205.6910  153.1810 C   0  0  0  0  0  3  0  0  0  0  0  0
  162.0010  210.9030  149.2740 C   0  0  0  0  0  0  0  0  0  0  0  0
  161.1000  212.0110  149.2380 N   0  0  0  0  0  2  0  0  0  0  0  0
  162.9050  210.7950  148.4020 O   0  0  0  0  0  0  0  0  0  0  0  0
  161.1830  213.0600  148.2360 C   0  0  0  0  0  2  0  0  0  0  0  0
  158.8640  213.2190  147.4790 C   0  0  0  0  0  3  0  0  0  0  0  0
  160.5040  212.3160  145.8540 C   0  0  0  0  0  2  0  0  0  0  0  0
  158.7450  213.9680  144.3310 C   0  0  0  0  0  2  0  0  0  0  0  0
  160.1230  212.8450  147.2090 C   0  0  0  0  0  0  0  0  0  0  0  0
  157.7420  213.0940  146.4860 C   0  0  0  0  0  2  0  0  0  0  0  0
  161.0930  213.3670  145.0180 N   0  0  0  0  0  0  0  0  0  0  0  0
  160.1420  214.4530  144.7250 C   0  0  0  0  0  2  0  0  0  0  0  0
  157.7580  214.2270  145.4610 C   0  0  0  0  0  2  0  0  0  0  0  0
  161.5000  212.7570  143.7590 C   0  0  0  0  0  2  0  0  0  0  0  0
  162.5470  213.6230  143.0740 C   0  0  0  0  0  2  0  0  0  0  0  0
  162.6730  213.2790  141.5950 C   0  0  0  0  0  2  0  0  0  0  0  0
  163.2950  211.6030  139.3480 O   0  0  0  0  0  0  0  0  0  0  0  0
  161.9150  209.8000  140.0510 C   0  0  0  0  0  1  0  0  0  0  0  0
  162.4880  211.1640  140.2100 C   0  0  0  0  0  0  0  0  0  0  0  0
  162.1020  211.9660  141.3290 N   0  0  0  0  0  2  0  0  0  0  0  0
  160.4490  209.8290  153.8890 C   0  0  0  0  0  2  0  0  0  0  0  0
  159.4780  213.0360  155.4060 C   0  0  0  0  0  2  0  0  0  0  0  0
  158.0090  212.6040  155.4610 C   0  0  2  0  0  3  0  0  0  0  0  0
  158.6930  211.3330  153.3790 C   0  0  0  0  0  2  0  0  0  0  0  0
  160.3730  211.8310  155.1260 C   0  0  0  0  0  2  0  0  0  0  0  0
  160.1050  211.2420  153.8050 N   0  0  0  0  0  0  0  0  0  0  0  0
  157.7150  211.3960  154.5570 C   0  0  0  0  0  2  0  0  0  0  0  0
  155.5800  213.7430  156.0410 S   0  0  0  0  0  1  0  0  0  0  0  0
  157.1260  213.7830  155.0850 C   0  0  0  0  0  2  0  0  0  0  0  0
  1  8  1  0  0  0  0
  2 13  1  0  0  0  0
  2 12  1  1  0  0  0
  3 14  1  0  0  0  0
  4  8  1  6  0  0  0
  4 15  1  0  0  0  0
  5  9  1  0  0  0  0
  5  1  1  0  0  0  0
  6  1  2  0  0  0  0
  7  9  1  1  0  0  0
  7 11  1  0  0  0  0
  7  4  1  0  0  0  0
 10  3  2  0  0  0  0
 11 10  1  6  0  0  0
 11  2  1  0  0  0  0
 13 35  1  0  0  0  0
 14 13  2  0  0  0  0
 15 12  2  0  0  0  0
 16  3  1  0  0  0  0
 17 16  1  0  0  0  0
 18 16  2  0  0  0  0
 19 17  1  0  0  0  0
 21 23  1  0  0  0  0
 22 26  1  0  0  0  0
 22 27  1  0  0  0  0
 23 20  2  0  0  0  0
 23 19  1  0  0  0  0
 24 20  1  0  0  0  0
 25 21  1  0  0  0  0
 26 25  1  0  0  0  0
 27 24  1  0  0  0  0
 28 25  1  0  0  0  0
 29 28  1  0  0  0  0
 30 29  1  0  0  0  0
 31 33  2  0  0  0  0
 32 33  1  0  0  0  0
 33 34  1  0  0  0  0
 34 30  1  0  0  0  0
 36 37  1  0  0  0  0
 37 43  1  6  0  0  0
 38 40  1  0  0  0  0
 38 41  1  0  0  0  0
 39 36  1  0  0  0  0
 40 35  1  0  0  0  0
 40 39  1  0  0  0  0
 41 37  1  0  0  0  0
 43 42  1  0  0  0  0
M  END
>  <MODEL>
1

>  <REMARK>
 VINA RESULT:      -8.7      0.000      0.000
  Name = 
  10 active torsions:
  status: ('A' for Active; 'I' for Inactive)
    1  A    between atoms: C_1  and  C_34
    2  A    between atoms: C_1  and  N_35
    3  A    between atoms: C_2  and  C_13
    4  A    between atoms: N_6  and  C_17
    5  A    between atoms: C_11  and  C_14
    6  A    between atoms: C_11  and  C_36
    7  A    between atoms: C_12  and  C_17
    8  A    between atoms: C_14  and  N_22
    9  A    between atoms: C_19  and  C_37
   10  A    between atoms: C_36  and  N_40
                            x       y       z     vdW  Elec       q    Type
                         _______ _______ _______ _____ _____    ______ ____

>  <TORSDO>
F 10

$$$$
=
 OpenBabel11062410263D

 43 47  0  0  1  0  0  0  0  0999 V2000
  160.8270  204.7680  145.6090 C   0  0  0  0  0  0  0  0  0  0  0  0
  161.0750  207.0460  149.8710 C   0  0  1  0  0  3  0  0  0  0  0  0
  161.9200  209.7570  149.5100 C   0  0  0  0  0  0  0  0  0  0  0  0
  161.8670  205.0170  147.8900 C   0  0  2  0  0  3  0  0  0  0  0  0
  160.6940  206.2470  145.3980 C   0  0  0  0  0  2  0  0  0  0  0  0
  160.8380  204.0160  144.6470 O   0  0  0  0  0  0  0  0  0  0  0  0
  161.9190  206.5430  147.5580 C   0  0  1  0  0  3  0  0  0  0  0  0
  160.9200  204.2010  146.9960 C   0  0  0  0  0  2  0  0  0  0  0  0
  160.7130  206.9960  146.7270 C   0  0  0  0  0  2  0  0  0  0  0  0
  162.1600  208.8750  148.5300 C   0  0  0  0  0  3  0  0  0  0  0  0
  162.1240  207.4000  148.8120 C   0  0  1  0  0  3  0  0  0  0  0  0
  161.2430  205.6010  150.2530 C   0  0  0  0  0  3  0  0  0  0  0  0
  161.1640  207.9910  151.0510 C   0  0  0  0  0  0  0  0  0  0  0  0
  161.5030  209.2730  150.8480 C   0  0  0  0  0  3  0  0  0  0  0  0
  161.5900  204.6820  149.3410 C   0  0  0  0  0  3  0  0  0  0  0  0
  162.0110  211.2020  149.2390 C   0  0  0  0  0  0  0  0  0  0  0  0
  162.7060  211.6640  148.0790 N   0  0  0  0  0  2  0  0  0  0  0  0
  161.4690  212.0290  150.0220 O   0  0  0  0  0  0  0  0  0  0  0  0
  162.8090  213.0710  147.7320 C   0  0  0  0  0  2  0  0  0  0  0  0
  162.0890  212.8460  145.4060 C   0  0  0  0  0  3  0  0  0  0  0  0
  160.6210  214.1720  146.8990 C   0  0  0  0  0  2  0  0  0  0  0  0
  158.8610  212.6740  145.2250 C   0  0  0  0  0  2  0  0  0  0  0  0
  161.8640  213.3740  146.6170 C   0  0  0  0  0  0  0  0  0  0  0  0
  161.1640  213.0480  144.2390 C   0  0  0  0  0  2  0  0  0  0  0  0
  159.5920  213.3480  147.5410 N   0  0  0  0  0  0  0  0  0  0  0  0
  159.1260  212.2520  146.6730 C   0  0  0  0  0  2  0  0  0  0  0  0
  159.9470  212.1260  144.3090 C   0  0  0  0  0  2  0  0  0  0  0  0
  158.4580  214.2110  147.8450 C   0  0  0  0  0  2  0  0  0  0  0  0
  157.7160  213.6860  149.0650 C   0  0  0  0  0  2  0  0  0  0  0  0
  158.5830  213.7520  150.3160 C   0  0  0  0  0  2  0  0  0  0  0  0
  159.7150  212.7500  152.7570 O   0  0  0  0  0  0  0  0  0  0  0  0
  157.6250  212.4770  153.8550 C   0  0  0  0  0  1  0  0  0  0  0  0
  158.4620  212.8490  152.6820 C   0  0  0  0  0  0  0  0  0  0  0  0
  157.8330  213.2980  151.4790 N   0  0  0  0  0  2  0  0  0  0  0  0
  160.6480  207.5930  152.3970 C   0  0  0  0  0  2  0  0  0  0  0  0
  161.5290  208.1390  155.9270 C   0  0  0  0  0  2  0  0  0  0  0  0
  160.4320  209.1970  156.0720 C   0  0  2  0  0  3  0  0  0  0  0  0
  160.9970  209.5820  153.6330 C   0  0  0  0  0  2  0  0  0  0  0  0
  161.3300  207.3450  154.6370 C   0  0  0  0  0  2  0  0  0  0  0  0
  161.4650  208.1940  153.4420 N   0  0  0  0  0  0  0  0  0  0  0  0
  159.9190  209.7080  154.7160 C   0  0  0  0  0  2  0  0  0  0  0  0
  162.7730  210.3730  156.8930 S   0  0  0  0  0  1  0  0  0  0  0  0
  160.9540  210.3480  156.9170 C   0  0  0  0  0  2  0  0  0  0  0  0
  1  8  1  0  0  0  0
  2 12  1  1  0  0  0
  2 13  1  0  0  0  0
  3 14  1  0  0  0  0
  4  8  1  6  0  0  0
  4 15  1  0  0  0  0
  5  1  1  0  0  0  0
  5  9  1  0  0  0  0
  6  1  2  0  0  0  0
  7  9  1  1  0  0  0
  7  4  1  0  0  0  0
  7 11  1  0  0  0  0
 10  3  2  0  0  0  0
 11 10  1  6  0  0  0
 11  2  1  0  0  0  0
 13 35  1  0  0  0  0
 14 13  2  0  0  0  0
 15 12  2  0  0  0  0
 16  3  1  0  0  0  0
 16 18  2  0  0  0  0
 17 16  1  0  0  0  0
 19 17  1  0  0  0  0
 20 23  2  0  0  0  0
 21 25  1  0  0  0  0
 22 26  1  0  0  0  0
 23 21  1  0  0  0  0
 23 19  1  0  0  0  0
 24 27  1  0  0  0  0
 24 20  1  0  0  0  0
 25 28  1  0  0  0  0
 26 25  1  0  0  0  0
 27 22  1  0  0  0  0
 28 29  1  0  0  0  0
 29 30  1  0  0  0  0
 30 34  1  0  0  0  0
 33 31  2  0  0  0  0
 33 32  1  0  0  0  0
 34 33  1  0  0  0  0
 35 40  1  0  0  0  0
 36 37  1  0  0  0  0
 37 43  1  1  0  0  0
 38 41  1  0  0  0  0
 39 36  1  0  0  0  0
 40 38  1  0  0  0  0
 40 39  1  0  0  0  0
 41 37  1  0  0  0  0
 42 43  1  0  0  0  0
M  END
>  <MODEL>
2

>  <REMARK>
 VINA RESULT:      -7.9      3.014      5.579
  Name = 
  10 active torsions:
  status: ('A' for Active; 'I' for Inactive)
    1  A    between atoms: C_1  and  C_34
    2  A    between atoms: C_1  and  N_35
    3  A    between atoms: C_2  and  C_13
    4  A    between atoms: N_6  and  C_17
    5  A    between atoms: C_11  and  C_14
    6  A    between atoms: C_11  and  C_36
    7  A    between atoms: C_12  and  C_17
    8  A    between atoms: C_14  and  N_22
    9  A    between atoms: C_19  and  C_37
   10  A    between atoms: C_36  and  N_40
                            x       y       z     vdW  Elec       q    Type
                         _______ _______ _______ _____ _____    ______ ____

>  <TORSDO>
F 10

$$$$
=
 OpenBabel11062410263D

 43 47  0  0  1  0  0  0  0  0999 V2000
  161.1200  210.9770  156.3480 C   0  0  0  0  0  0  0  0  0  0  0  0
  161.2930  207.3080  153.1970 C   0  0  1  0  0  3  0  0  0  0  0  0
  161.4530  208.2960  150.5160 C   0  0  0  0  0  0  0  0  0  0  0  0
  160.0330  208.9750  155.2720 C   0  0  2  0  0  3  0  0  0  0  0  0
  161.7650  211.4360  155.0740 C   0  0  0  0  0  2  0  0  0  0  0  0
  160.9390  211.7710  157.2570 O   0  0  0  0  0  0  0  0  0  0  0  0
  160.5320  209.5900  153.9240 C   0  0  1  0  0  3  0  0  0  0  0  0
  160.7210  209.5410  156.5240 C   0  0  0  0  0  2  0  0  0  0  0  0
  161.8880  210.2900  154.0740 C   0  0  0  0  0  2  0  0  0  0  0  0
  161.0140  209.1200  151.4770 C   0  0  0  0  0  3  0  0  0  0  0  0
  160.5230  208.5660  152.7840 C   0  0  1  0  0  3  0  0  0  0  0  0
  160.6120  206.6940  154.3890 C   0  0  0  0  0  3  0  0  0  0  0  0
  161.4280  206.3530  152.0290 C   0  0  0  0  0  0  0  0  0  0  0  0
  161.5630  206.8430  150.7870 C   0  0  0  0  0  3  0  0  0  0  0  0
  160.0530  207.4620  155.3360 C   0  0  0  0  0  3  0  0  0  0  0  0
  161.8820  208.8430  149.2170 C   0  0  0  0  0  0  0  0  0  0  0  0
  161.8740  210.2560  149.0040 N   0  0  0  0  0  2  0  0  0  0  0  0
  162.2650  208.0680  148.2990 O   0  0  0  0  0  0  0  0  0  0  0  0
  162.3130  210.8670  147.7610 C   0  0  0  0  0  2  0  0  0  0  0  0
  161.5690  212.8320  146.5120 C   0  0  0  0  0  3  0  0  0  0  0  0
  161.5200  213.0040  148.9850 C   0  0  0  0  0  2  0  0  0  0  0  0
  159.1620  214.3300  148.0760 C   0  0  0  0  0  2  0  0  0  0  0  0
  161.8230  212.2750  147.7050 C   0  0  0  0  0  0  0  0  0  0  0  0
  161.0190  214.2230  146.3580 C   0  0  0  0  0  2  0  0  0  0  0  0
  160.2310  212.5840  149.5450 N   0  0  0  0  0  0  0  0  0  0  0  0
  159.0990  212.9180  148.6640 C   0  0  0  0  0  2  0  0  0  0  0  0
  159.5100  214.2700  146.5950 C   0  0  0  0  0  2  0  0  0  0  0  0
  160.0520  213.2780  150.8130 C   0  0  0  0  0  2  0  0  0  0  0  0
  159.1190  212.4830  151.7160 C   0  0  0  0  0  2  0  0  0  0  0  0
  158.7670  213.2620  152.9760 C   0  0  0  0  0  2  0  0  0  0  0  0
  156.1540  213.2220  154.1670 O   0  0  0  0  0  0  0  0  0  0  0  0
  156.5950  211.3510  155.5640 C   0  0  0  0  0  1  0  0  0  0  0  0
  156.9920  212.3620  154.5470 C   0  0  0  0  0  0  0  0  0  0  0  0
  158.3240  212.3560  154.0260 N   0  0  0  0  0  2  0  0  0  0  0  0
  161.6600  204.8930  152.2500 C   0  0  0  0  0  2  0  0  0  0  0  0
  160.8000  203.5050  148.9540 C   0  0  0  0  0  2  0  0  0  0  0  0
  160.3440  202.1880  149.5890 C   0  0  2  0  0  3  0  0  0  0  0  0
  162.1500  202.8000  151.2580 C   0  0  0  0  0  2  0  0  0  0  0  0
  160.9560  204.5830  150.0250 C   0  0  0  0  0  2  0  0  0  0  0  0
  162.0120  204.2470  150.9930 N   0  0  0  0  0  0  0  0  0  0  0  0
  160.8480  202.0230  151.0320 C   0  0  0  0  0  2  0  0  0  0  0  0
  160.9920  201.5640  146.9950 S   0  0  0  0  0  1  0  0  0  0  0  0
  160.8070  201.0270  148.7230 C   0  0  0  0  0  2  0  0  0  0  0  0
  1  8  1  0  0  0  0
  1  6  2  0  0  0  0
  2 12  1  1  0  0  0
  3 14  1  0  0  0  0
  3 10  2  0  0  0  0
  4 15  1  6  0  0  0
  4  8  1  0  0  0  0
  5  1  1  0  0  0  0
  7  9  1  1  0  0  0
  7  4  1  0  0  0  0
  9  5  1  0  0  0  0
 11 10  1  6  0  0  0
 11  2  1  0  0  0  0
 11  7  1  0  0  0  0
 12 15  2  0  0  0  0
 13 35  1  0  0  0  0
 13  2  1  0  0  0  0
 14 13  2  0  0  0  0
 16  3  1  0  0  0  0
 17 16  1  0  0  0  0
 18 16  2  0  0  0  0
 19 17  1  0  0  0  0
 20 23  2  0  0  0  0
 21 25  1  0  0  0  0
 22 26  1  0  0  0  0
 23 19  1  0  0  0  0
 23 21  1  0  0  0  0
 24 20  1  0  0  0  0
 24 27  1  0  0  0  0
 25 28  1  0  0  0  0
 26 25  1  0  0  0  0
 27 22  1  0  0  0  0
 28 29  1  0  0  0  0
 29 30  1  0  0  0  0
 30 34  1  0  0  0  0
 31 33  2  0  0  0  0
 33 32  1  0  0  0  0
 34 33  1  0  0  0  0
 36 37  1  0  0  0  0
 36 39  1  0  0  0  0
 37 43  1  6  0  0  0
 37 41  1  0  0  0  0
 39 40  1  0  0  0  0
 40 38  1  0  0  0  0
 40 35  1  0  0  0  0
 41 38  1  0  0  0  0
 42 43  1  0  0  0  0
M  END
>  <MODEL>
3

>  <REMARK>
 VINA RESULT:      -6.5      4.005      8.360
  Name = 
  10 active torsions:
  status: ('A' for Active; 'I' for Inactive)
    1  A    between atoms: C_1  and  C_34
    2  A    between atoms: C_1  and  N_35
    3  A    between atoms: C_2  and  C_13
    4  A    between atoms: N_6  and  C_17
    5  A    between atoms: C_11  and  C_14
    6  A    between atoms: C_11  and  C_36
    7  A    between atoms: C_12  and  C_17
    8  A    between atoms: C_14  and  N_22
    9  A    between atoms: C_19  and  C_37
   10  A    between atoms: C_36  and  N_40
                            x       y       z     vdW  Elec       q    Type
                         _______ _______ _______ _____ _____    ______ ____

>  <TORSDO>
F 10

$$$$
=
 OpenBabel11062410263D

 43 47  0  0  1  0  0  0  0  0999 V2000
  161.7470  212.5170  148.4750 C   0  0  0  0  0  0  0  0  0  0  0  0
  160.4950  212.0190  153.1230 C   0  0  1  0  0  3  0  0  0  0  0  0
  160.5640  209.2620  153.8890 C   0  0  0  0  0  0  0  0  0  0  0  0
  160.0230  212.7160  150.3010 C   0  0  2  0  0  3  0  0  0  0  0  0
  162.3190  211.2400  149.0170 C   0  0  0  0  0  2  0  0  0  0  0  0
  161.9110  212.8040  147.3000 O   0  0  0  0  0  0  0  0  0  0  0  0
  160.4880  211.2840  150.7190 C   0  0  1  0  0  3  0  0  0  0  0  0
  160.9980  213.4580  149.3730 C   0  0  0  0  0  2  0  0  0  0  0  0
  161.9910  211.0750  150.4980 C   0  0  0  0  0  2  0  0  0  0  0  0
  160.4960  209.5630  152.5850 C   0  0  0  0  0  3  0  0  0  0  0  0
  160.0500  210.9280  152.1440 C   0  0  1  0  0  3  0  0  0  0  0  0
  159.8360  213.3140  152.7350 C   0  0  0  0  0  3  0  0  0  0  0  0
  160.2090  211.6070  154.5520 C   0  0  0  0  0  0  0  0  0  0  0  0
  160.3070  210.3150  154.9000 C   0  0  0  0  0  3  0  0  0  0  0  0
  159.6380  213.6290  151.4470 C   0  0  0  0  0  3  0  0  0  0  0  0
  160.9490  207.9050  154.3120 C   0  0  0  0  0  0  0  0  0  0  0  0
  160.5240  206.7760  153.5480 N   0  0  0  0  0  2  0  0  0  0  0  0
  161.6620  207.7400  155.3400 O   0  0  0  0  0  0  0  0  0  0  0  0
  160.8930  205.4120  153.8870 C   0  0  0  0  0  2  0  0  0  0  0  0
  161.0310  203.4520  152.4330 C   0  0  0  0  0  3  0  0  0  0  0  0
  162.2160  205.4890  151.6660 C   0  0  0  0  0  2  0  0  0  0  0  0
  161.0620  204.3440  149.3210 C   0  0  0  0  0  2  0  0  0  0  0  0
  161.3980  204.7200  152.6660 C   0  0  0  0  0  0  0  0  0  0  0  0
  161.4420  202.6920  151.2030 C   0  0  0  0  0  2  0  0  0  0  0  0
  161.3690  206.3410  150.8260 N   0  0  0  0  0  0  0  0  0  0  0  0
  160.4310  205.5630  149.9990 C   0  0  0  0  0  2  0  0  0  0  0  0
  160.5870  203.0620  149.9910 C   0  0  0  0  0  2  0  0  0  0  0  0
  162.2420  207.1020  149.9430 C   0  0  0  0  0  2  0  0  0  0  0  0
  161.4740  207.5490  148.7070 C   0  0  0  0  0  2  0  0  0  0  0  0
  162.2720  207.2980  147.4340 C   0  0  0  0  0  2  0  0  0  0  0  0
  163.1740  204.8100  146.3200 O   0  0  0  0  0  0  0  0  0  0  0  0
  161.1470  204.3560  145.1660 C   0  0  0  0  0  1  0  0  0  0  0  0
  162.0110  205.2000  146.0340 C   0  0  0  0  0  0  0  0  0  0  0  0
  161.5180  206.4520  146.5200 N   0  0  0  0  0  2  0  0  0  0  0  0
  160.0610  212.6290  155.6330 C   0  0  0  0  0  2  0  0  0  0  0  0
  156.4570  212.1180  155.1010 C   0  0  0  0  0  2  0  0  0  0  0  0
  156.3530  213.4260  154.3110 C   0  0  2  0  0  3  0  0  0  0  0  0
  158.2180  214.0930  155.8910 C   0  0  0  0  0  2  0  0  0  0  0  0
  157.9210  211.7160  155.2700 C   0  0  0  0  0  2  0  0  0  0  0  0
  158.6720  212.6990  156.0670 N   0  0  0  0  0  0  0  0  0  0  0  0
  157.5680  214.3430  154.5250 C   0  0  0  0  0  2  0  0  0  0  0  0
  154.0550  214.4490  153.2120 S   0  0  0  0  0  1  0  0  0  0  0  0
  155.0670  214.1410  154.6910 C   0  0  0  0  0  2  0  0  0  0  0  0
  1  5  1  0  0  0  0
  1  8  1  0  0  0  0
  2 12  1  6  0  0  0
  2 13  1  0  0  0  0
  3 16  1  0  0  0  0
  3 14  1  0  0  0  0
  4  8  1  1  0  0  0
  4  7  1  0  0  0  0
  4 15  1  0  0  0  0
  5  9  1  0  0  0  0
  6  1  2  0  0  0  0
  7  9  1  1  0  0  0
  7 11  1  0  0  0  0
 10  3  2  0  0  0  0
 11 10  1  1  0  0  0
 11  2  1  0  0  0  0
 13 14  2  0  0  0  0
 13 35  1  0  0  0  0
 15 12  2  0  0  0  0
 16 18  2  0  0  0  0
 17 19  1  0  0  0  0
 17 16  1  0  0  0  0
 20 23  2  0  0  0  0
 21 23  1  0  0  0  0
 22 27  1  0  0  0  0
 22 26  1  0  0  0  0
 23 19  1  0  0  0  0
 24 20  1  0  0  0  0
 25 21  1  0  0  0  0
 26 25  1  0  0  0  0
 27 24  1  0  0  0  0
 28 25  1  0  0  0  0
 29 28  1  0  0  0  0
 30 29  1  0  0  0  0
 32 33  1  0  0  0  0
 33 31  2  0  0  0  0
 33 34  1  0  0  0  0
 34 30  1  0  0  0  0
 35 40  1  0  0  0  0
 36 39  1  0  0  0  0
 37 41  1  0  0  0  0
 37 43  1  1  0  0  0
 37 36  1  0  0  0  0
 38 40  1  0  0  0  0
 39 40  1  0  0  0  0
 41 38  1  0  0  0  0
 42 43  1  0  0  0  0
M  END
>  <MODEL>
4

>  <REMARK>
 VINA RESULT:      -6.3      3.813      7.422
  Name = 
  10 active torsions:
  status: ('A' for Active; 'I' for Inactive)
    1  A    between atoms: C_1  and  C_34
    2  A    between atoms: C_1  and  N_35
    3  A    between atoms: C_2  and  C_13
    4  A    between atoms: N_6  and  C_17
    5  A    between atoms: C_11  and  C_14
    6  A    between atoms: C_11  and  C_36
    7  A    between atoms: C_12  and  C_17
    8  A    between atoms: C_14  and  N_22
    9  A    between atoms: C_19  and  C_37
   10  A    between atoms: C_36  and  N_40
                            x       y       z     vdW  Elec       q    Type
                         _______ _______ _______ _____ _____    ______ ____

>  <TORSDO>
F 10

$$$$
=
 OpenBabel11062410263D

 43 47  0  0  1  0  0  0  0  0999 V2000
  161.1810  202.6150  146.7980 C   0  0  0  0  0  0  0  0  0  0  0  0
  161.8320  206.9330  148.8830 C   0  0  1  0  0  3  0  0  0  0  0  0
  161.2020  206.8040  151.6720 C   0  0  0  0  0  0  0  0  0  0  0  0
  160.5450  205.0410  147.0290 C   0  0  2  0  0  3  0  0  0  0  0  0
  161.4190  202.4340  148.2670 C   0  0  0  0  0  2  0  0  0  0  0  0
  160.9470  201.6430  146.0970 O   0  0  0  0  0  0  0  0  0  0  0  0
  160.5870  204.7730  148.5680 C   0  0  1  0  0  3  0  0  0  0  0  0
  161.2570  203.9790  146.1760 C   0  0  0  0  0  2  0  0  0  0  0  0
  161.6840  203.7720  148.9520 C   0  0  0  0  0  2  0  0  0  0  0  0
  160.7260  205.8470  150.8630 C   0  0  0  0  0  3  0  0  0  0  0  0
  160.6670  206.0710  149.3790 C   0  0  1  0  0  3  0  0  0  0  0  0
  161.5900  207.2900  147.4420 C   0  0  0  0  0  3  0  0  0  0  0  0
  162.0220  208.1420  149.7750 C   0  0  0  0  0  0  0  0  0  0  0  0
  161.7780  208.0400  151.0900 C   0  0  0  0  0  3  0  0  0  0  0  0
  161.0160  206.4170  146.6020 C   0  0  0  0  0  3  0  0  0  0  0  0
  161.2060  206.5990  153.1300 C   0  0  0  0  0  0  0  0  0  0  0  0
  160.2300  207.2540  153.9420 N   0  0  0  0  0  2  0  0  0  0  0  0
  162.0620  205.8400  153.6610 O   0  0  0  0  0  0  0  0  0  0  0  0
  160.1530  207.0730  155.3810 C   0  0  0  0  0  2  0  0  0  0  0  0
  161.8950  208.3450  156.5320 C   0  0  0  0  0  3  0  0  0  0  0  0
  159.7580  209.5250  156.1040 C   0  0  0  0  0  2  0  0  0  0  0  0
  161.8060  211.4570  155.6420 C   0  0  0  0  0  2  0  0  0  0  0  0
  160.6410  208.3090  156.0600 C   0  0  0  0  0  0  0  0  0  0  0  0
  162.4930  209.5640  157.1780 C   0  0  0  0  0  2  0  0  0  0  0  0
  159.7620  210.2340  154.8200 N   0  0  0  0  0  0  0  0  0  0  0  0
  161.0910  210.7690  154.4770 C   0  0  0  0  0  2  0  0  0  0  0  0
  162.9530  210.5910  156.1440 C   0  0  0  0  0  2  0  0  0  0  0  0
  158.8290  211.3480  154.9260 C   0  0  0  0  0  2  0  0  0  0  0  0
  158.2170  211.6470  153.5650 C   0  0  0  0  0  2  0  0  0  0  0  0
  157.6220  213.0480  153.5170 C   0  0  0  0  0  2  0  0  0  0  0  0
  159.2150  213.7580  151.2360 O   0  0  0  0  0  0  0  0  0  0  0  0
  157.3810  213.8560  149.7280 C   0  0  0  0  0  1  0  0  0  0  0  0
  157.9710  213.6470  151.0780 C   0  0  0  0  0  0  0  0  0  0  0  0
  157.1160  213.3400  152.1830 N   0  0  0  0  0  2  0  0  0  0  0  0
  162.7050  209.3730  149.2690 C   0  0  0  0  0  2  0  0  0  0  0  0
  160.7640  211.8170  147.3220 C   0  0  0  0  0  2  0  0  0  0  0  0
  161.9670  212.7620  147.2440 C   0  0  2  0  0  3  0  0  0  0  0  0
  162.4600  211.7160  149.4990 C   0  0  0  0  0  2  0  0  0  0  0  0
  161.2080  210.4330  147.7930 C   0  0  0  0  0  2  0  0  0  0  0  0
  161.7490  210.4660  149.1610 N   0  0  0  0  0  0  0  0  0  0  0  0
  163.0570  212.4160  148.2720 C   0  0  0  0  0  2  0  0  0  0  0  0
  159.7420  214.3440  146.9550 S   0  0  0  0  0  1  0  0  0  0  0  0
  161.4920  214.1940  147.4270 C   0  0  0  0  0  2  0  0  0  0  0  0
  1  5  1  0  0  0  0
  2 12  1  6  0  0  0
  2 11  1  0  0  0  0
  2 13  1  0  0  0  0
  3 16  1  0  0  0  0
  4  8  1  6  0  0  0
  4  7  1  0  0  0  0
  5  9  1  0  0  0  0
  6  1  2  0  0  0  0
  7  9  1  6  0  0  0
  7 11  1  0  0  0  0
  8  1  1  0  0  0  0
 10  3  2  0  0  0  0
 11 10  1  1  0  0  0
 13 14  2  0  0  0  0
 14  3  1  0  0  0  0
 15  4  1  0  0  0  0
 15 12  2  0  0  0  0
 16 18  2  0  0  0  0
 16 17  1  0  0  0  0
 17 19  1  0  0  0  0
 19 23  1  0  0  0  0
 20 24  1  0  0  0  0
 22 27  1  0  0  0  0
 23 21  1  0  0  0  0
 23 20  2  0  0  0  0
 25 28  1  0  0  0  0
 25 21  1  0  0  0  0
 26 25  1  0  0  0  0
 26 22  1  0  0  0  0
 27 24  1  0  0  0  0
 29 28  1  0  0  0  0
 30 29  1  0  0  0  0
 32 33  1  0  0  0  0
 33 31  2  0  0  0  0
 33 34  1  0  0  0  0
 34 30  1  0  0  0  0
 35 13  1  0  0  0  0
 36 39  1  0  0  0  0
 37 36  1  0  0  0  0
 37 43  1  1  0  0  0
 37 41  1  0  0  0  0
 39 40  1  0  0  0  0
 40 35  1  0  0  0  0
 40 38  1  0  0  0  0
 41 38  1  0  0  0  0
 42 43  1  0  0  0  0
M  END
>  <MODEL>
5

>  <REMARK>
 VINA RESULT:      -6.2      3.945      8.356
  Name = 
  10 active torsions:
  status: ('A' for Active; 'I' for Inactive)
    1  A    between atoms: C_1  and  C_34
    2  A    between atoms: C_1  and  N_35
    3  A    between atoms: C_2  and  C_13
    4  A    between atoms: N_6  and  C_17
    5  A    between atoms: C_11  and  C_14
    6  A    between atoms: C_11  and  C_36
    7  A    between atoms: C_12  and  C_17
    8  A    between atoms: C_14  and  N_22
    9  A    between atoms: C_19  and  C_37
   10  A    between atoms: C_36  and  N_40
                            x       y       z     vdW  Elec       q    Type
                         _______ _______ _______ _____ _____    ______ ____

>  <TORSDO>
F 10

$$$$
=
 OpenBabel11062410263D

 43 47  0  0  1  0  0  0  0  0999 V2000
  160.3700  207.3410  156.1910 C   0  0  0  0  0  0  0  0  0  0  0  0
  160.6120  210.7200  152.7360 C   0  0  1  0  0  3  0  0  0  0  0  0
  161.9330  209.6880  150.4160 C   0  0  0  0  0  0  0  0  0  0  0  0
  161.2260  209.5640  155.3740 C   0  0  2  0  0  3  0  0  0  0  0  0
  160.5090  206.6820  154.8510 C   0  0  0  0  0  2  0  0  0  0  0  0
  160.3400  206.6570  157.2020 O   0  0  0  0  0  0  0  0  0  0  0  0
  161.5660  208.8030  154.0520 C   0  0  1  0  0  3  0  0  0  0  0  0
  160.2400  208.8320  156.2970 C   0  0  0  0  0  2  0  0  0  0  0  0
  160.5330  207.7160  153.7290 C   0  0  0  0  0  2  0  0  0  0  0  0
  162.1080  209.0590  151.5860 C   0  0  0  0  0  3  0  0  0  0  0  0
  161.7970  209.7600  152.8780 C   0  0  1  0  0  3  0  0  0  0  0  0
  160.4980  211.5350  153.9950 C   0  0  0  0  0  3  0  0  0  0  0  0
  160.7520  211.5650  151.4870 C   0  0  0  0  0  0  0  0  0  0  0  0
  161.3210  211.0380  150.3920 C   0  0  0  0  0  3  0  0  0  0  0  0
  160.7660  210.9960  155.1930 C   0  0  0  0  0  3  0  0  0  0  0  0
  162.2920  209.0140  149.1570 C   0  0  0  0  0  0  0  0  0  0  0  0
  162.6860  207.6410  149.1740 N   0  0  0  0  0  2  0  0  0  0  0  0
  162.2410  209.6430  148.0640 O   0  0  0  0  0  0  0  0  0  0  0  0
  163.0230  206.9030  147.9680 C   0  0  0  0  0  2  0  0  0  0  0  0
  161.1970  206.8010  146.3450 C   0  0  0  0  0  3  0  0  0  0  0  0
  161.3010  204.9730  148.0170 C   0  0  0  0  0  2  0  0  0  0  0  0
  160.5400  203.7280  145.5640 C   0  0  0  0  0  2  0  0  0  0  0  0
  161.7900  206.2640  147.4210 C   0  0  0  0  0  0  0  0  0  0  0  0
  159.9870  206.1970  145.6900 C   0  0  0  0  0  2  0  0  0  0  0  0
  162.0940  203.8340  147.5450 N   0  0  0  0  0  0  0  0  0  0  0  0
  161.9740  203.6270  146.0910 C   0  0  0  0  0  2  0  0  0  0  0  0
  160.3540  205.0220  144.7840 C   0  0  0  0  0  2  0  0  0  0  0  0
  161.6050  202.6420  148.2230 C   0  0  0  0  0  2  0  0  0  0  0  0
  160.4160  202.9940  149.1060 C   0  0  0  0  0  2  0  0  0  0  0  0
  160.6820  202.6460  150.5640 C   0  0  0  0  0  2  0  0  0  0  0  0
  160.4830  205.3650  151.4620 O   0  0  0  0  0  0  0  0  0  0  0  0
  162.7520  205.5200  152.1520 C   0  0  0  0  0  1  0  0  0  0  0  0
  161.5990  204.7910  151.5580 C   0  0  0  0  0  0  0  0  0  0  0  0
  161.7760  203.4520  151.0880 N   0  0  0  0  0  2  0  0  0  0  0  0
  160.0570  212.8830  151.3660 C   0  0  0  0  0  2  0  0  0  0  0  0
  156.6220  214.1270  150.9360 C   0  0  0  0  0  2  0  0  0  0  0  0
  156.5020  214.4170  152.4340 C   0  0  2  0  0  3  0  0  0  0  0  0
  158.0660  212.4290  152.5650 C   0  0  0  0  0  2  0  0  0  0  0  0
  158.0810  213.8780  150.5600 C   0  0  0  0  0  2  0  0  0  0  0  0
  158.6220  212.6790  151.2190 N   0  0  0  0  0  0  0  0  0  0  0  0
  157.5860  213.7060  153.2620 C   0  0  0  0  0  2  0  0  0  0  0  0
  155.1480  213.6280  154.6880 S   0  0  0  0  0  1  0  0  0  0  0  0
  155.1150  214.0220  152.9130 C   0  0  0  0  0  2  0  0  0  0  0  0
  1  8  1  0  0  0  0
  1  6  2  0  0  0  0
  2 11  1  0  0  0  0
  2 12  1  1  0  0  0
  3 10  2  0  0  0  0
  4 15  1  6  0  0  0
  4  8  1  0  0  0  0
  5  1  1  0  0  0  0
  7  9  1  6  0  0  0
  7  4  1  0  0  0  0
  9  5  1  0  0  0  0
 11 10  1  6  0  0  0
 11  7  1  0  0  0  0
 12 15  2  0  0  0  0
 13  2  1  0  0  0  0
 14  3  1  0  0  0  0
 14 13  2  0  0  0  0
 16 17  1  0  0  0  0
 16  3  1  0  0  0  0
 18 16  2  0  0  0  0
 19 17  1  0  0  0  0
 20 23  2  0  0  0  0
 22 26  1  0  0  0  0
 23 19  1  0  0  0  0
 23 21  1  0  0  0  0
 24 20  1  0  0  0  0
 25 21  1  0  0  0  0
 25 28  1  0  0  0  0
 26 25  1  0  0  0  0
 27 22  1  0  0  0  0
 27 24  1  0  0  0  0
 28 29  1  0  0  0  0
 29 30  1  0  0  0  0
 30 34  1  0  0  0  0
 31 33  2  0  0  0  0
 33 32  1  0  0  0  0
 34 33  1  0  0  0  0
 35 13  1  0  0  0  0
 36 37  1  0  0  0  0
 37 43  1  1  0  0  0
 37 41  1  0  0  0  0
 38 41  1  0  0  0  0
 39 36  1  0  0  0  0
 39 40  1  0  0  0  0
 40 35  1  0  0  0  0
 40 38  1  0  0  0  0
 43 42  1  0  0  0  0
M  END
>  <MODEL>
6

>  <REMARK>
 VINA RESULT:      -6.0      4.166      7.397
  Name = 
  10 active torsions:
  status: ('A' for Active; 'I' for Inactive)
    1  A    between atoms: C_1  and  C_34
    2  A    between atoms: C_1  and  N_35
    3  A    between atoms: C_2  and  C_13
    4  A    between atoms: N_6  and  C_17
    5  A    between atoms: C_11  and  C_14
    6  A    between atoms: C_11  and  C_36
    7  A    between atoms: C_12  and  C_17
    8  A    between atoms: C_14  and  N_22
    9  A    between atoms: C_19  and  C_37
   10  A    between atoms: C_36  and  N_40
                            x       y       z     vdW  Elec       q    Type
                         _______ _______ _______ _____ _____    ______ ____

>  <TORSDO>
F 10

$$$$
=
 OpenBabel11062410263D

 43 47  0  0  1  0  0  0  0  0999 V2000
  155.3150  213.2980  156.1870 C   0  0  0  0  0  0  0  0  0  0  0  0
  158.6100  212.1980  152.8180 C   0  0  1  0  0  3  0  0  0  0  0  0
  160.5330  210.3530  153.8630 C   0  0  0  0  0  0  0  0  0  0  0  0
  157.1960  214.0020  154.6670 C   0  0  2  0  0  3  0  0  0  0  0  0
  155.9340  211.9690  156.5030 C   0  0  0  0  0  2  0  0  0  0  0  0
  154.4880  213.7780  156.9460 O   0  0  0  0  0  0  0  0  0  0  0  0
  157.9200  212.7150  155.1790 C   0  0  1  0  0  3  0  0  0  0  0  0
  155.6820  214.0290  154.9280 C   0  0  0  0  0  2  0  0  0  0  0  0
  156.9410  211.5620  155.4310 C   0  0  0  0  0  2  0  0  0  0  0  0
  159.7920  211.0630  154.7250 C   0  0  0  0  0  3  0  0  0  0  0  0
  159.0850  212.3080  154.2710 C   0  0  1  0  0  3  0  0  0  0  0  0
  158.1100  213.5430  152.3700 C   0  0  0  0  0  3  0  0  0  0  0  0
  159.7090  211.6440  151.9350 C   0  0  0  0  0  0  0  0  0  0  0  0
  160.5610  210.7350  152.4310 C   0  0  0  0  0  3  0  0  0  0  0  0
  157.4540  214.3520  153.2160 C   0  0  0  0  0  3  0  0  0  0  0  0
  161.2680  209.1650  154.3290 C   0  0  0  0  0  0  0  0  0  0  0  0
  160.7830  207.8600  154.0090 N   0  0  0  0  0  2  0  0  0  0  0  0
  162.3290  209.2970  154.9980 O   0  0  0  0  0  0  0  0  0  0  0  0
  161.4720  206.6440  154.4060 C   0  0  0  0  0  2  0  0  0  0  0  0
  160.9950  204.6130  153.1330 C   0  0  0  0  0  3  0  0  0  0  0  0
  162.5110  206.2590  152.0690 C   0  0  0  0  0  2  0  0  0  0  0  0
  160.8640  205.2600  149.9640 C   0  0  0  0  0  2  0  0  0  0  0  0
  161.6630  205.7720  153.2110 C   0  0  0  0  0  0  0  0  0  0  0  0
  161.0790  203.6970  151.9440 C   0  0  0  0  0  2  0  0  0  0  0  0
  161.7860  207.2280  151.2400 N   0  0  0  0  0  0  0  0  0  0  0  0
  160.6070  206.6360  150.5850 C   0  0  0  0  0  2  0  0  0  0  0  0
  160.1940  204.1730  150.7930 C   0  0  0  0  0  2  0  0  0  0  0  0
  162.6990  207.7010  150.2100 C   0  0  0  0  0  2  0  0  0  0  0  0
  162.0000  208.7210  149.3210 C   0  0  0  0  0  2  0  0  0  0  0  0
  161.4270  208.0690  148.0700 C   0  0  0  0  0  2  0  0  0  0  0  0
  160.8850  206.3100  145.8660 O   0  0  0  0  0  0  0  0  0  0  0  0
  162.8070  204.9540  146.2090 C   0  0  0  0  0  1  0  0  0  0  0  0
  161.9100  206.0870  146.5630 C   0  0  0  0  0  0  0  0  0  0  0  0
  162.2120  206.8980  147.7020 N   0  0  0  0  0  2  0  0  0  0  0  0
  159.7160  211.9020  150.4620 C   0  0  0  0  0  2  0  0  0  0  0  0
  161.5600  214.4510  148.5570 C   0  0  0  0  0  2  0  0  0  0  0  0
  161.5890  213.5530  147.3170 C   0  0  2  0  0  3  0  0  0  0  0  0
  161.6380  211.7430  149.0890 C   0  0  0  0  0  2  0  0  0  0  0  0
  160.5570  213.9150  149.5750 C   0  0  0  0  0  2  0  0  0  0  0  0
  160.9430  212.5880  150.0810 N   0  0  0  0  0  0  0  0  0  0  0  0
  161.2630  212.0860  147.6420 C   0  0  0  0  0  2  0  0  0  0  0  0
  162.7550  213.9010  144.8560 S   0  0  0  0  0  1  0  0  0  0  0  0
  162.9500  213.6650  146.6480 C   0  0  0  0  0  2  0  0  0  0  0  0
  1  5  1  0  0  0  0
  1  6  2  0  0  0  0
  2 12  1  6  0  0  0
  2 11  1  0  0  0  0
  3 16  1  0  0  0  0
  3 10  2  0  0  0  0
  4 15  1  6  0  0  0
  4  8  1  0  0  0  0
  4  7  1  0  0  0  0
  7  9  1  6  0  0  0
  8  1  1  0  0  0  0
  9  5  1  0  0  0  0
 11 10  1  1  0  0  0
 11  7  1  0  0  0  0
 12 15  2  0  0  0  0
 13 14  2  0  0  0  0
 13  2  1  0  0  0  0
 14  3  1  0  0  0  0
 16 18  2  0  0  0  0
 17 16  1  0  0  0  0
 17 19  1  0  0  0  0
 20 23  2  0  0  0  0
 21 23  1  0  0  0  0
 22 26  1  0  0  0  0
 22 27  1  0  0  0  0
 23 19  1  0  0  0  0
 24 20  1  0  0  0  0
 25 21  1  0  0  0  0
 26 25  1  0  0  0  0
 27 24  1  0  0  0  0
 28 25  1  0  0  0  0
 29 28  1  0  0  0  0
 30 29  1  0  0  0  0
 31 33  2  0  0  0  0
 32 33  1  0  0  0  0
 33 34  1  0  0  0  0
 34 30  1  0  0  0  0
 35 13  1  0  0  0  0
 36 39  1  0  0  0  0
 37 43  1  1  0  0  0
 37 41  1  0  0  0  0
 37 36  1  0  0  0  0
 38 40  1  0  0  0  0
 39 40  1  0  0  0  0
 40 35  1  0  0  0  0
 41 38  1  0  0  0  0
 42 43  1  0  0  0  0
M  END
>  <MODEL>
7

>  <REMARK>
 VINA RESULT:      -5.9      3.966      8.710
  Name = 
  10 active torsions:
  status: ('A' for Active; 'I' for Inactive)
    1  A    between atoms: C_1  and  C_34
    2  A    between atoms: C_1  and  N_35
    3  A    between atoms: C_2  and  C_13
    4  A    between atoms: N_6  and  C_17
    5  A    between atoms: C_11  and  C_14
    6  A    between atoms: C_11  and  C_36
    7  A    between atoms: C_12  and  C_17
    8  A    between atoms: C_14  and  N_22
    9  A    between atoms: C_19  and  C_37
   10  A    between atoms: C_36  and  N_40
                            x       y       z     vdW  Elec       q    Type
                         _______ _______ _______ _____ _____    ______ ____

>  <TORSDO>
F 10

$$$$
