=
 OpenBabel11052423163D

 27 31  0  0  1  0  0  0  0  0999 V2000
  161.6240  206.7900  153.0230 N   0  0  0  0  0  2  0  0  0  0  0  0
  161.1380  207.7200  150.7400 C   0  0  1  0  0  3  0  0  0  0  0  0
  160.4860  209.4430  152.3840 N   0  0  0  0  0  2  0  0  0  0  0  0
  162.2800  210.7310  148.0490 C   0  0  0  0  0  3  0  0  0  0  0  0
  162.2610  213.0430  147.3640 O   0  0  0  0  0  1  0  0  0  0  0  0
  162.2390  207.3880  149.7310 C   0  0  0  0  0  2  0  0  0  0  0  0
  161.4270  211.4910  150.6050 C   0  0  0  0  0  3  0  0  0  0  0  0
  160.2090  209.3430  156.0890 C   0  0  0  0  0  0  0  0  0  0  0  0
  161.6370  212.4600  149.6190 C   0  0  0  0  0  3  0  0  0  0  0  0
  159.6970  210.1360  157.1060 O   0  0  0  0  0  1  0  0  0  0  0  0
  161.6210  210.1340  150.3120 C   0  0  0  0  0  0  0  0  0  0  0  0
  160.8720  206.6190  151.7840 C   0  0  1  0  0  3  0  0  0  0  0  0
  162.0580  212.0800  148.3420 C   0  0  0  0  0  0  0  0  0  0  0  0
  162.0750  209.7570  149.0320 C   0  0  0  0  0  0  0  0  0  0  0  0
  161.2140  207.7190  154.0330 C   0  0  0  0  0  0  0  0  0  0  0  0
  161.4680  209.0750  151.3730 C   0  0  2  0  0  3  0  0  0  0  0  0
  160.0440  209.7250  154.7550 C   0  0  0  0  0  3  0  0  0  0  0  0
  162.3000  208.4070  148.7300 O   0  0  0  0  0  0  0  0  0  0  0  0
  160.8990  208.1710  156.3980 C   0  0  0  0  0  3  0  0  0  0  0  0
  161.3970  207.3620  155.3730 C   0  0  0  0  0  3  0  0  0  0  0  0
  160.5550  208.9350  153.7210 C   0  0  0  0  0  0  0  0  0  0  0  0
  161.1110  202.5770  150.3280 C   0  0  0  0  0  3  0  0  0  0  0  0
  160.9690  205.2160  151.2580 C   0  0  0  0  0  0  0  0  0  0  0  0
  161.2290  204.1690  152.1490 C   0  0  0  0  0  3  0  0  0  0  0  0
  161.3030  202.8520  151.6850 C   0  0  0  0  0  3  0  0  0  0  0  0
  160.8440  203.6190  149.4350 C   0  0  0  0  0  3  0  0  0  0  0  0
  160.7710  204.9350  149.8980 C   0  0  0  0  0  3  0  0  0  0  0  0
  1 15  1  0  0  0  0
  2  6  1  6  0  0  0
  2 16  1  0  0  0  0
  2 12  1  0  0  0  0
  3 21  1  0  0  0  0
  4 13  2  0  0  0  0
  4 14  1  0  0  0  0
  5 13  1  0  0  0  0
  8 19  1  0  0  0  0
  8 10  1  0  0  0  0
  9  7  2  0  0  0  0
 11  7  1  0  0  0  0
 12 23  1  6  0  0  0
 12  1  1  0  0  0  0
 13  9  1  0  0  0  0
 14 11  2  0  0  0  0
 15 20  1  0  0  0  0
 16 11  1  6  0  0  0
 16  3  1  0  0  0  0
 17  8  2  0  0  0  0
 18 14  1  0  0  0  0
 18  6  1  0  0  0  0
 20 19  2  0  0  0  0
 21 15  2  0  0  0  0
 21 17  1  0  0  0  0
 22 25  1  0  0  0  0
 23 24  1  0  0  0  0
 25 24  2  0  0  0  0
 26 27  1  0  0  0  0
 26 22  2  0  0  0  0
 27 23  2  0  0  0  0
M  END
>  <MODEL>
1

>  <REMARK>
 VINA RESULT:      -8.3      0.000      0.000
  Name = 
  1 active torsions:
  status: ('A' for Active; 'I' for Inactive)
    1  A    between atoms: C_9  and  C_15
                            x       y       z     vdW  Elec       q    Type
                         _______ _______ _______ _____ _____    ______ ____

>  <TORSDO>
F 1

$$$$
=
 OpenBabel11052423163D

 27 31  0  0  1  0  0  0  0  0999 V2000
  162.0830  208.4330  152.3980 N   0  0  0  0  0  2  0  0  0  0  0  0
  160.8330  206.2580  152.2380 C   0  0  1  0  0  3  0  0  0  0  0  0
  160.8770  207.2430  149.9740 N   0  0  0  0  0  2  0  0  0  0  0  0
  161.0210  202.4160  150.5600 C   0  0  0  0  0  3  0  0  0  0  0  0
  160.8310  200.9530  148.6520 O   0  0  0  0  0  1  0  0  0  0  0  0
  161.4840  205.1520  153.0710 C   0  0  0  0  0  2  0  0  0  0  0  0
  161.1770  204.6210  148.8430 C   0  0  0  0  0  3  0  0  0  0  0  0
  161.9560  210.5840  148.7550 C   0  0  0  0  0  0  0  0  0  0  0  0
  161.0470  203.3320  148.3180 C   0  0  0  0  0  3  0  0  0  0  0  0
  161.8740  211.3330  147.5900 O   0  0  0  0  0  1  0  0  0  0  0  0
  161.2070  204.8170  150.2300 C   0  0  0  0  0  0  0  0  0  0  0  0
  160.9280  207.6660  152.8560 C   0  0  1  0  0  3  0  0  0  0  0  0
  160.9650  202.2320  149.1760 C   0  0  0  0  0  0  0  0  0  0  0  0
  161.1540  203.7030  151.0910 C   0  0  0  0  0  0  0  0  0  0  0  0
  162.0960  209.0900  151.1260 C   0  0  0  0  0  0  0  0  0  0  0  0
  161.4140  206.1880  150.8230 C   0  0  2  0  0  3  0  0  0  0  0  0
  161.3330  209.3370  148.8300 C   0  0  0  0  0  3  0  0  0  0  0  0
  161.2110  203.8790  152.4810 O   0  0  0  0  0  0  0  0  0  0  0  0
  162.6730  211.0720  149.8480 C   0  0  0  0  0  3  0  0  0  0  0  0
  162.7400  210.3280  151.0290 C   0  0  0  0  0  3  0  0  0  0  0  0
  161.4090  208.5730  149.9990 C   0  0  0  0  0  0  0  0  0  0  0  0
  160.5110  207.8570  157.1340 C   0  0  0  0  0  3  0  0  0  0  0  0
  160.7820  207.7090  154.3500 C   0  0  0  0  0  0  0  0  0  0  0  0
  161.5810  208.5890  155.0880 C   0  0  0  0  0  3  0  0  0  0  0  0
  161.4480  208.6610  156.4780 C   0  0  0  0  0  3  0  0  0  0  0  0
  159.7060  206.9810  156.4000 C   0  0  0  0  0  3  0  0  0  0  0  0
  159.8390  206.9080  155.0110 C   0  0  0  0  0  3  0  0  0  0  0  0
  1 12  1  0  0  0  0
  2 12  1  0  0  0  0
  2  6  1  1  0  0  0
  3 21  1  0  0  0  0
  4 14  1  0  0  0  0
  5 13  1  0  0  0  0
  7 11  1  0  0  0  0
  8 17  2  0  0  0  0
  8 19  1  0  0  0  0
  9  7  2  0  0  0  0
  9 13  1  0  0  0  0
 10  8  1  0  0  0  0
 11 16  1  0  0  0  0
 11 14  2  0  0  0  0
 12 23  1  1  0  0  0
 13  4  2  0  0  0  0
 14 18  1  0  0  0  0
 15  1  1  0  0  0  0
 16  3  1  6  0  0  0
 16  2  1  0  0  0  0
 17 21  1  0  0  0  0
 18  6  1  0  0  0  0
 19 20  2  0  0  0  0
 20 15  1  0  0  0  0
 21 15  2  0  0  0  0
 23 27  2  0  0  0  0
 23 24  1  0  0  0  0
 24 25  2  0  0  0  0
 25 22  1  0  0  0  0
 26 22  2  0  0  0  0
 27 26  1  0  0  0  0
M  END
>  <MODEL>
2

>  <REMARK>
 VINA RESULT:      -8.0      2.251      6.619
  Name = 
  1 active torsions:
  status: ('A' for Active; 'I' for Inactive)
    1  A    between atoms: C_9  and  C_15
                            x       y       z     vdW  Elec       q    Type
                         _______ _______ _______ _____ _____    ______ ____

>  <TORSDO>
F 1

$$$$
=
 OpenBabel11052423163D

 27 31  0  0  1  0  0  0  0  0999 V2000
  160.6950  210.2220  151.3330 N   0  0  0  0  0  2  0  0  0  0  0  0
  161.8390  208.6090  149.7830 C   0  0  1  0  0  3  0  0  0  0  0  0
  161.6750  207.5100  151.9880 N   0  0  0  0  0  2  0  0  0  0  0  0
  161.3740  204.8860  147.9030 C   0  0  0  0  0  3  0  0  0  0  0  0
  161.3670  202.4760  148.0040 O   0  0  0  0  0  1  0  0  0  0  0  0
  161.2040  208.5920  148.3910 C   0  0  0  0  0  2  0  0  0  0  0  0
  161.1880  204.9940  150.6940 C   0  0  0  0  0  3  0  0  0  0  0  0
  160.6500  208.8000  155.3200 C   0  0  0  0  0  0  0  0  0  0  0  0
  161.2260  203.7580  150.0420 C   0  0  0  0  0  3  0  0  0  0  0  0
  160.6810  208.3800  156.6420 O   0  0  0  0  0  1  0  0  0  0  0  0
  161.2640  206.1830  149.9560 C   0  0  0  0  0  0  0  0  0  0  0  0
  161.8470  209.9890  150.4670 C   0  0  1  0  0  3  0  0  0  0  0  0
  161.3240  203.7040  148.6490 C   0  0  0  0  0  0  0  0  0  0  0  0
  161.3320  206.1250  148.5500 C   0  0  0  0  0  0  0  0  0  0  0  0
  160.6180  209.6700  152.6530 C   0  0  0  0  0  0  0  0  0  0  0  0
  161.1560  207.5280  150.6270 C   0  0  2  0  0  3  0  0  0  0  0  0
  161.2250  208.0100  154.3220 C   0  0  0  0  0  3  0  0  0  0  0  0
  161.3820  207.3050  147.7950 O   0  0  0  0  0  0  0  0  0  0  0  0
  160.0330  210.0060  154.9840 C   0  0  0  0  0  3  0  0  0  0  0  0
  160.0200  210.4390  153.6570 C   0  0  0  0  0  3  0  0  0  0  0  0
  161.2010  208.4220  152.9860 C   0  0  0  0  0  0  0  0  0  0  0  0
  162.5590  213.3510  147.8780 C   0  0  0  0  0  3  0  0  0  0  0  0
  162.1000  211.1470  149.5460 C   0  0  0  0  0  0  0  0  0  0  0  0
  161.2130  212.2290  149.5500 C   0  0  0  0  0  3  0  0  0  0  0  0
  161.4400  213.3280  148.7160 C   0  0  0  0  0  3  0  0  0  0  0  0
  163.4520  212.2760  147.8760 C   0  0  0  0  0  3  0  0  0  0  0  0
  163.2250  211.1770  148.7080 C   0  0  0  0  0  3  0  0  0  0  0  0
  1 15  1  0  0  0  0
  2  6  1  6  0  0  0
  2 12  1  0  0  0  0
  2 16  1  0  0  0  0
  3 21  1  0  0  0  0
  4 14  2  0  0  0  0
  4 13  1  0  0  0  0
  5 13  1  0  0  0  0
  8 10  1  0  0  0  0
  9  7  1  0  0  0  0
 11  7  2  0  0  0  0
 12 23  1  6  0  0  0
 12  1  1  0  0  0  0
 13  9  2  0  0  0  0
 14 11  1  0  0  0  0
 15 21  2  0  0  0  0
 15 20  1  0  0  0  0
 16 11  1  6  0  0  0
 16  3  1  0  0  0  0
 17  8  2  0  0  0  0
 18  6  1  0  0  0  0
 18 14  1  0  0  0  0
 19  8  1  0  0  0  0
 20 19  2  0  0  0  0
 21 17  1  0  0  0  0
 22 25  1  0  0  0  0
 23 24  1  0  0  0  0
 25 24  2  0  0  0  0
 26 22  2  0  0  0  0
 26 27  1  0  0  0  0
 27 23  2  0  0  0  0
M  END
>  <MODEL>
3

>  <REMARK>
 VINA RESULT:      -7.8      1.702      5.888
  Name = 
  1 active torsions:
  status: ('A' for Active; 'I' for Inactive)
    1  A    between atoms: C_9  and  C_15
                            x       y       z     vdW  Elec       q    Type
                         _______ _______ _______ _____ _____    ______ ____

>  <TORSDO>
F 1

$$$$
=
 OpenBabel11052423163D

 27 31  0  0  1  0  0  0  0  0999 V2000
  162.5500  208.6780  148.8900 N   0  0  0  0  0  2  0  0  0  0  0  0
  161.4020  209.5220  150.9600 C   0  0  1  0  0  3  0  0  0  0  0  0
  160.7540  207.1560  150.6800 N   0  0  0  0  0  2  0  0  0  0  0  0
  161.2680  209.0540  155.1290 C   0  0  0  0  0  3  0  0  0  0  0  0
  160.6040  207.7930  157.0740 O   0  0  0  0  0  1  0  0  0  0  0  0
  162.3110  210.4190  151.8040 C   0  0  0  0  0  2  0  0  0  0  0  0
  160.8310  206.8000  153.5280 C   0  0  0  0  0  3  0  0  0  0  0  0
  161.2950  204.7620  147.8880 C   0  0  0  0  0  0  0  0  0  0  0  0
  160.6130  206.7330  154.9070 C   0  0  0  0  0  3  0  0  0  0  0  0
  160.8510  203.5040  147.5090 O   0  0  0  0  0  1  0  0  0  0  0  0
  161.2480  208.0010  152.9380 C   0  0  0  0  0  0  0  0  0  0  0  0
  161.6080  209.6500  149.4390 C   0  0  1  0  0  3  0  0  0  0  0  0
  160.8260  207.8600  155.7050 C   0  0  0  0  0  0  0  0  0  0  0  0
  161.4920  209.1270  153.7500 C   0  0  0  0  0  0  0  0  0  0  0  0
  162.1710  207.3210  148.6330 C   0  0  0  0  0  0  0  0  0  0  0  0
  161.5570  208.0840  151.4650 C   0  0  2  0  0  3  0  0  0  0  0  0
  160.7740  205.3710  149.0320 C   0  0  0  0  0  3  0  0  0  0  0  0
  161.9360  210.3280  153.1800 O   0  0  0  0  0  0  0  0  0  0  0  0
  162.2730  205.4130  147.1360 C   0  0  0  0  0  3  0  0  0  0  0  0
  162.7060  206.6880  147.5060 C   0  0  0  0  0  3  0  0  0  0  0  0
  161.2130  206.6390  149.4250 C   0  0  0  0  0  0  0  0  0  0  0  0
  162.4460  213.6160  147.9980 C   0  0  0  0  0  3  0  0  0  0  0  0
  161.8940  211.0420  148.9570 C   0  0  0  0  0  0  0  0  0  0  0  0
  163.0810  211.2930  148.2610 C   0  0  0  0  0  3  0  0  0  0  0  0
  163.3590  212.5780  147.7840 C   0  0  0  0  0  3  0  0  0  0  0  0
  161.2560  213.3680  148.6870 C   0  0  0  0  0  3  0  0  0  0  0  0
  160.9780  212.0850  149.1640 C   0  0  0  0  0  3  0  0  0  0  0  0
  1 12  1  0  0  0  0
  2 16  1  0  0  0  0
  2  6  1  1  0  0  0
  4 13  1  0  0  0  0
  6 18  1  0  0  0  0
  7  9  1  0  0  0  0
  8 17  1  0  0  0  0
  9 13  2  0  0  0  0
 10  8  1  0  0  0  0
 11  7  2  0  0  0  0
 11 14  1  0  0  0  0
 12 23  1  1  0  0  0
 12  2  1  0  0  0  0
 13  5  1  0  0  0  0
 14  4  2  0  0  0  0
 15  1  1  0  0  0  0
 15 21  1  0  0  0  0
 16  3  1  6  0  0  0
 16 11  1  0  0  0  0
 17 21  2  0  0  0  0
 18 14  1  0  0  0  0
 19 20  1  0  0  0  0
 19  8  2  0  0  0  0
 20 15  2  0  0  0  0
 21  3  1  0  0  0  0
 22 26  1  0  0  0  0
 23 27  1  0  0  0  0
 24 23  2  0  0  0  0
 25 22  2  0  0  0  0
 25 24  1  0  0  0  0
 26 27  2  0  0  0  0
M  END
>  <MODEL>
4

>  <REMARK>
 VINA RESULT:      -7.8      2.335      7.350
  Name = 
  1 active torsions:
  status: ('A' for Active; 'I' for Inactive)
    1  A    between atoms: C_9  and  C_15
                            x       y       z     vdW  Elec       q    Type
                         _______ _______ _______ _____ _____    ______ ____

>  <TORSDO>
F 1

$$$$
=
 OpenBabel11052423163D

 27 31  0  0  1  0  0  0  0  0999 V2000
  160.7790  210.9340  151.1810 N   0  0  0  0  0  2  0  0  0  0  0  0
  161.8590  208.9810  150.0240 C   0  0  1  0  0  3  0  0  0  0  0  0
  161.7710  208.4450  152.4330 N   0  0  0  0  0  2  0  0  0  0  0  0
  161.3090  204.9230  149.1100 C   0  0  0  0  0  3  0  0  0  0  0  0
  161.2950  202.6080  149.7850 O   0  0  0  0  0  1  0  0  0  0  0  0
  161.1730  208.6400  148.7000 C   0  0  0  0  0  2  0  0  0  0  0  0
  161.2260  205.6990  151.7980 C   0  0  0  0  0  3  0  0  0  0  0  0
  160.8760  210.5090  155.3910 C   0  0  0  0  0  0  0  0  0  0  0  0
  161.2350  204.3420  151.4600 C   0  0  0  0  0  3  0  0  0  0  0  0
  160.9520  210.4170  156.7740 O   0  0  0  0  0  1  0  0  0  0  0  0
  161.2800  206.6750  150.7940 C   0  0  0  0  0  0  0  0  0  0  0  0
  161.8980  210.4850  150.3570 C   0  0  1  0  0  3  0  0  0  0  0  0
  161.2810  203.9550  150.1180 C   0  0  0  0  0  0  0  0  0  0  0  0
  161.2960  206.2810  149.4410 C   0  0  0  0  0  0  0  0  0  0  0  0
  160.7490  210.7150  152.5970 C   0  0  0  0  0  0  0  0  0  0  0  0
  161.2030  208.1430  151.1260 C   0  0  2  0  0  3  0  0  0  0  0  0
  161.4100  209.4950  154.5930 C   0  0  0  0  0  3  0  0  0  0  0  0
  161.3230  207.2450  148.4240 O   0  0  0  0  0  0  0  0  0  0  0  0
  160.2520  211.6070  154.7980 C   0  0  0  0  0  3  0  0  0  0  0  0
  160.1920  211.7100  153.4070 C   0  0  0  0  0  3  0  0  0  0  0  0
  161.3390  209.5750  153.1990 C   0  0  0  0  0  0  0  0  0  0  0  0
  162.5030  213.1140  147.0050 C   0  0  0  0  0  3  0  0  0  0  0  0
  162.1220  211.3850  149.1770 C   0  0  0  0  0  0  0  0  0  0  0  0
  161.0400  212.0960  148.6460 C   0  0  0  0  0  3  0  0  0  0  0  0
  161.2290  212.9570  147.5600 C   0  0  0  0  0  3  0  0  0  0  0  0
  163.5880  212.4110  147.5370 C   0  0  0  0  0  3  0  0  0  0  0  0
  163.4000  211.5500  148.6210 C   0  0  0  0  0  3  0  0  0  0  0  0
  1 15  1  0  0  0  0
  2  6  1  6  0  0  0
  2 12  1  0  0  0  0
  2 16  1  0  0  0  0
  3 21  1  0  0  0  0
  4 14  2  0  0  0  0
  4 13  1  0  0  0  0
  5 13  1  0  0  0  0
  8 10  1  0  0  0  0
  9  7  1  0  0  0  0
 11  7  2  0  0  0  0
 12 23  1  6  0  0  0
 12  1  1  0  0  0  0
 13  9  2  0  0  0  0
 14 11  1  0  0  0  0
 15 21  2  0  0  0  0
 15 20  1  0  0  0  0
 16 11  1  6  0  0  0
 16  3  1  0  0  0  0
 17  8  2  0  0  0  0
 18  6  1  0  0  0  0
 18 14  1  0  0  0  0
 19  8  1  0  0  0  0
 20 19  2  0  0  0  0
 21 17  1  0  0  0  0
 22 26  2  0  0  0  0
 22 25  1  0  0  0  0
 24 23  1  0  0  0  0
 25 24  2  0  0  0  0
 26 27  1  0  0  0  0
 27 23  2  0  0  0  0
M  END
>  <MODEL>
5

>  <REMARK>
 VINA RESULT:      -7.1      1.805      5.972
  Name = 
  1 active torsions:
  status: ('A' for Active; 'I' for Inactive)
    1  A    between atoms: C_9  and  C_15
                            x       y       z     vdW  Elec       q    Type
                         _______ _______ _______ _____ _____    ______ ____

>  <TORSDO>
F 1

$$$$
=
 OpenBabel11052423163D

 27 31  0  0  1  0  0  0  0  0999 V2000
  162.2250  209.0120  151.1500 N   0  0  0  0  0  2  0  0  0  0  0  0
  161.0340  206.8530  150.6650 C   0  0  1  0  0  3  0  0  0  0  0  0
  161.0670  208.1550  148.5670 N   0  0  0  0  0  2  0  0  0  0  0  0
  161.3350  203.2990  148.4520 C   0  0  0  0  0  3  0  0  0  0  0  0
  161.1960  202.1230  146.3510 O   0  0  0  0  0  1  0  0  0  0  0  0
  161.7080  205.6540  151.3360 C   0  0  0  0  0  2  0  0  0  0  0  0
  161.4440  205.7330  147.0730 C   0  0  0  0  0  3  0  0  0  0  0  0
  162.0660  211.6630  147.8540 C   0  0  0  0  0  0  0  0  0  0  0  0
  161.3520  204.5300  146.3660 C   0  0  0  0  0  3  0  0  0  0  0  0
  161.9720  212.5700  146.8080 O   0  0  0  0  0  1  0  0  0  0  0  0
  161.4590  205.7270  148.4740 C   0  0  0  0  0  0  0  0  0  0  0  0
  161.0870  208.1580  151.4810 C   0  0  1  0  0  3  0  0  0  0  0  0
  161.2920  203.3160  147.0550 C   0  0  0  0  0  0  0  0  0  0  0  0
  161.4300  204.4990  149.1650 C   0  0  0  0  0  0  0  0  0  0  0  0
  162.2290  209.8460  149.9860 C   0  0  0  0  0  0  0  0  0  0  0  0
  161.6270  207.0020  149.2600 C   0  0  2  0  0  3  0  0  0  0  0  0
  161.4750  210.4030  147.7420 C   0  0  0  0  0  3  0  0  0  0  0  0
  161.4730  204.4740  150.5660 O   0  0  0  0  0  0  0  0  0  0  0  0
  162.7630  212.0060  149.0140 C   0  0  0  0  0  3  0  0  0  0  0  0
  162.8410  211.1010  150.0750 C   0  0  0  0  0  3  0  0  0  0  0  0
  161.5640  209.4800  148.7890 C   0  0  0  0  0  0  0  0  0  0  0  0
  160.5900  207.6980  155.7290 C   0  0  0  0  0  3  0  0  0  0  0  0
  160.9310  207.9810  152.9630 C   0  0  0  0  0  0  0  0  0  0  0  0
  160.8500  209.1130  153.7810 C   0  0  0  0  0  3  0  0  0  0  0  0
  160.6830  208.9720  155.1620 C   0  0  0  0  0  3  0  0  0  0  0  0
  160.6620  206.5640  154.9150 C   0  0  0  0  0  3  0  0  0  0  0  0
  160.8300  206.7040  153.5350 C   0  0  0  0  0  3  0  0  0  0  0  0
  1 12  1  0  0  0  0
  2  6  1  1  0  0  0
  2 12  1  0  0  0  0
  3 21  1  0  0  0  0
  3 16  1  0  0  0  0
  4 14  1  0  0  0  0
  5 13  1  0  0  0  0
  7 11  1  0  0  0  0
  8 19  1  0  0  0  0
  9 13  1  0  0  0  0
  9  7  2  0  0  0  0
 10  8  1  0  0  0  0
 11 14  2  0  0  0  0
 12 23  1  1  0  0  0
 13  4  2  0  0  0  0
 14 18  1  0  0  0  0
 15 20  1  0  0  0  0
 15  1  1  0  0  0  0
 16 11  1  6  0  0  0
 16  2  1  0  0  0  0
 17  8  2  0  0  0  0
 17 21  1  0  0  0  0
 18  6  1  0  0  0  0
 19 20  2  0  0  0  0
 21 15  2  0  0  0  0
 23 27  2  0  0  0  0
 23 24  1  0  0  0  0
 24 25  2  0  0  0  0
 25 22  1  0  0  0  0
 26 22  2  0  0  0  0
 27 26  1  0  0  0  0
M  END
>  <MODEL>
6

>  <REMARK>
 VINA RESULT:      -6.3      2.324      6.377
  Name = 
  1 active torsions:
  status: ('A' for Active; 'I' for Inactive)
    1  A    between atoms: C_9  and  C_15
                            x       y       z     vdW  Elec       q    Type
                         _______ _______ _______ _____ _____    ______ ____

>  <TORSDO>
F 1

$$$$
=
 OpenBabel11052423163D

 27 31  0  0  1  0  0  0  0  0999 V2000
  161.1730  208.6630  148.2610 N   0  0  0  0  0  2  0  0  0  0  0  0
  161.8460  207.4870  150.3780 C   0  0  1  0  0  3  0  0  0  0  0  0
  162.3600  209.8830  150.6790 N   0  0  0  0  0  2  0  0  0  0  0  0
  160.9290  207.1790  154.4610 C   0  0  0  0  0  3  0  0  0  0  0  0
  161.0030  208.0800  156.6970 O   0  0  0  0  0  1  0  0  0  0  0  0
  160.8310  206.4220  150.7980 C   0  0  0  0  0  2  0  0  0  0  0  0
  161.5680  209.7030  153.4330 C   0  0  0  0  0  3  0  0  0  0  0  0
  162.3310  212.7340  148.2950 C   0  0  0  0  0  0  0  0  0  0  0  0
  161.4390  209.5210  154.8130 C   0  0  0  0  0  3  0  0  0  0  0  0
  162.7570  214.0540  148.2610 O   0  0  0  0  0  1  0  0  0  0  0  0
  161.3990  208.6200  152.5600 C   0  0  0  0  0  0  0  0  0  0  0  0
  162.0250  207.6370  148.8550 C   0  0  1  0  0  3  0  0  0  0  0  0
  161.1250  208.2600  155.3260 C   0  0  0  0  0  0  0  0  0  0  0  0
  161.0520  207.3560  153.0800 C   0  0  0  0  0  0  0  0  0  0  0  0
  161.4990  210.0550  148.3440 C   0  0  0  0  0  0  0  0  0  0  0  0
  161.4640  208.8010  151.0650 C   0  0  2  0  0  3  0  0  0  0  0  0
  162.6040  211.9400  149.4110 C   0  0  0  0  0  3  0  0  0  0  0  0
  160.8530  206.2680  152.2190 O   0  0  0  0  0  0  0  0  0  0  0  0
  161.6170  212.2030  147.2190 C   0  0  0  0  0  3  0  0  0  0  0  0
  161.2060  210.8690  147.2440 C   0  0  0  0  0  3  0  0  0  0  0  0
  162.1800  210.6090  149.4570 C   0  0  0  0  0  0  0  0  0  0  0  0
  161.9340  203.9600  146.6230 C   0  0  0  0  0  3  0  0  0  0  0  0
  161.9720  206.3490  148.0850 C   0  0  0  0  0  0  0  0  0  0  0  0
  162.3310  206.3460  146.7330 C   0  0  0  0  0  3  0  0  0  0  0  0
  162.3100  205.1550  146.0020 C   0  0  0  0  0  3  0  0  0  0  0  0
  161.5810  203.9560  147.9750 C   0  0  0  0  0  3  0  0  0  0  0  0
  161.6020  205.1460  148.7070 C   0  0  0  0  0  3  0  0  0  0  0  0
  1 15  1  0  0  0  0
  1 12  1  0  0  0  0
  2  6  1  6  0  0  0
  2 16  1  0  0  0  0
  4 13  1  0  0  0  0
  6 18  1  0  0  0  0
  7  9  1  0  0  0  0
  8 17  1  0  0  0  0
  9 13  2  0  0  0  0
 10  8  1  0  0  0  0
 11 14  1  0  0  0  0
 11  7  2  0  0  0  0
 12 23  1  6  0  0  0
 12  2  1  0  0  0  0
 13  5  1  0  0  0  0
 14  4  2  0  0  0  0
 15 21  1  0  0  0  0
 16  3  1  1  0  0  0
 16 11  1  0  0  0  0
 17 21  2  0  0  0  0
 18 14  1  0  0  0  0
 19 20  1  0  0  0  0
 19  8  2  0  0  0  0
 20 15  2  0  0  0  0
 21  3  1  0  0  0  0
 22 26  1  0  0  0  0
 23 27  1  0  0  0  0
 24 23  2  0  0  0  0
 25 22  2  0  0  0  0
 25 24  1  0  0  0  0
 26 27  2  0  0  0  0
M  END
>  <MODEL>
7

>  <REMARK>
 VINA RESULT:      -5.9      2.049      5.921
  Name = 
  1 active torsions:
  status: ('A' for Active; 'I' for Inactive)
    1  A    between atoms: C_9  and  C_15
                            x       y       z     vdW  Elec       q    Type
                         _______ _______ _______ _____ _____    ______ ____

>  <TORSDO>
F 1

$$$$
=
 OpenBabel11052423163D

 27 31  0  0  1  0  0  0  0  0999 V2000
  160.5050  207.0510  151.7280 N   0  0  0  0  0  2  0  0  0  0  0  0
  161.5130  209.3540  151.7410 C   0  0  1  0  0  3  0  0  0  0  0  0
  162.1960  208.2700  149.6300 N   0  0  0  0  0  2  0  0  0  0  0  0
  161.3860  213.0650  149.7860 C   0  0  0  0  0  3  0  0  0  0  0  0
  161.9350  214.4530  147.8920 O   0  0  0  0  0  1  0  0  0  0  0  0
  160.5460  210.4070  152.2830 C   0  0  0  0  0  2  0  0  0  0  0  0
  161.9420  210.7820  148.2630 C   0  0  0  0  0  3  0  0  0  0  0  0
  161.8530  204.7710  148.4260 C   0  0  0  0  0  0  0  0  0  0  0  0
  162.0720  212.0530  147.6950 C   0  0  0  0  0  3  0  0  0  0  0  0
  162.3310  203.9870  147.3850 O   0  0  0  0  0  1  0  0  0  0  0  0
  161.5530  210.6460  149.6030 C   0  0  0  0  0  0  0  0  0  0  0  0
  161.4030  207.9740  152.4180 C   0  0  1  0  0  3  0  0  0  0  0  0
  161.8000  213.1930  148.4570 C   0  0  0  0  0  0  0  0  0  0  0  0
  161.2490  211.7960  150.3590 C   0  0  0  0  0  0  0  0  0  0  0  0
  160.9110  206.3410  150.5520 C   0  0  0  0  0  0  0  0  0  0  0  0
  161.3380  209.2890  150.2210 C   0  0  2  0  0  3  0  0  0  0  0  0
  162.2960  206.0880  148.5690 C   0  0  0  0  0  3  0  0  0  0  0  0
  160.8330  211.6770  151.6920 O   0  0  0  0  0  0  0  0  0  0  0  0
  160.9200  204.2480  149.3220 C   0  0  0  0  0  3  0  0  0  0  0  0
  160.4540  205.0300  150.3810 C   0  0  0  0  0  3  0  0  0  0  0  0
  161.8220  206.8880  149.6130 C   0  0  0  0  0  0  0  0  0  0  0  0
  160.6620  208.0290  156.6550 C   0  0  0  0  0  3  0  0  0  0  0  0
  161.1370  208.0160  153.8940 C   0  0  0  0  0  0  0  0  0  0  0  0
  160.4560  206.9520  154.4960 C   0  0  0  0  0  3  0  0  0  0  0  0
  160.2160  206.9600  155.8730 C   0  0  0  0  0  3  0  0  0  0  0  0
  161.3480  209.0910  156.0600 C   0  0  0  0  0  3  0  0  0  0  0  0
  161.5880  209.0850  154.6830 C   0  0  0  0  0  3  0  0  0  0  0  0
  1 12  1  0  0  0  0
  2  6  1  1  0  0  0
  2 12  1  0  0  0  0
  3 16  1  0  0  0  0
  4 14  1  0  0  0  0
  5 13  1  0  0  0  0
  7 11  1  0  0  0  0
  8 17  2  0  0  0  0
  8 19  1  0  0  0  0
  9  7  2  0  0  0  0
  9 13  1  0  0  0  0
 10  8  1  0  0  0  0
 11 14  2  0  0  0  0
 12 23  1  1  0  0  0
 13  4  2  0  0  0  0
 14 18  1  0  0  0  0
 15  1  1  0  0  0  0
 16 11  1  6  0  0  0
 16  2  1  0  0  0  0
 17 21  1  0  0  0  0
 18  6  1  0  0  0  0
 19 20  2  0  0  0  0
 20 15  1  0  0  0  0
 21  3  1  0  0  0  0
 21 15  2  0  0  0  0
 23 24  2  0  0  0  0
 23 27  1  0  0  0  0
 24 25  1  0  0  0  0
 25 22  2  0  0  0  0
 26 22  1  0  0  0  0
 27 26  2  0  0  0  0
M  END
>  <MODEL>
8

>  <REMARK>
 VINA RESULT:      -5.7      1.907      5.285
  Name = 
  1 active torsions:
  status: ('A' for Active; 'I' for Inactive)
    1  A    between atoms: C_9  and  C_15
                            x       y       z     vdW  Elec       q    Type
                         _______ _______ _______ _____ _____    ______ ____

>  <TORSDO>
F 1

$$$$
=
 OpenBabel11052423163D

 27 31  0  0  1  0  0  0  0  0999 V2000
  160.8440  213.3670  138.8800 N   0  0  0  0  0  2  0  0  0  0  0  0
  160.5060  212.2220  141.0920 C   0  0  1  0  0  3  0  0  0  0  0  0
  162.9120  212.7410  140.8990 N   0  0  0  0  0  2  0  0  0  0  0  0
  160.7140  212.8420  145.2370 C   0  0  0  0  0  3  0  0  0  0  0  0
  162.0120  213.0990  147.2530 O   0  0  0  0  0  1  0  0  0  0  0  0
  159.2360  212.6950  141.8020 C   0  0  0  0  0  2  0  0  0  0  0  0
  163.0070  213.3280  143.7080 C   0  0  0  0  0  3  0  0  0  0  0  0
  164.9460  214.0000  138.0550 C   0  0  0  0  0  0  0  0  0  0  0  0
  163.0800  213.3400  145.1040 C   0  0  0  0  0  3  0  0  0  0  0  0
  166.2880  214.1610  137.7380 O   0  0  0  0  0  1  0  0  0  0  0  0
  161.7910  213.0520  143.0680 C   0  0  0  0  0  0  0  0  0  0  0  0
  160.3940  212.1540  139.5570 C   0  0  1  0  0  3  0  0  0  0  0  0
  161.9360  213.0920  145.8670 C   0  0  0  0  0  0  0  0  0  0  0  0
  160.6330  212.8320  143.8410 C   0  0  0  0  0  0  0  0  0  0  0  0
  162.2340  213.6460  138.6750 C   0  0  0  0  0  0  0  0  0  0  0  0
  161.6680  213.1000  141.5670 C   0  0  2  0  0  3  0  0  0  0  0  0
  164.5810  213.3990  139.2610 C   0  0  0  0  0  3  0  0  0  0  0  0
  159.4030  212.5810  143.2170 O   0  0  0  0  0  0  0  0  0  0  0  0
  163.9630  214.4530  137.1750 C   0  0  0  0  0  3  0  0  0  0  0  0
  162.6120  214.2730  137.4830 C   0  0  0  0  0  3  0  0  0  0  0  0
  163.2330  213.2310  139.5920 C   0  0  0  0  0  0  0  0  0  0  0  0
  156.5950  210.8400  138.0240 C   0  0  0  0  0  3  0  0  0  0  0  0
  159.0640  211.6850  139.0430 C   0  0  0  0  0  0  0  0  0  0  0  0
  158.2560  212.5760  138.3290 C   0  0  0  0  0  3  0  0  0  0  0  0
  157.0220  212.1550  137.8220 C   0  0  0  0  0  3  0  0  0  0  0  0
  157.4020  209.9440  138.7310 C   0  0  0  0  0  3  0  0  0  0  0  0
  158.6350  210.3630  139.2380 C   0  0  0  0  0  3  0  0  0  0  0  0
  1 12  1  0  0  0  0
  2 16  1  0  0  0  0
  2  6  1  1  0  0  0
  4 13  1  0  0  0  0
  6 18  1  0  0  0  0
  7  9  1  0  0  0  0
  8 17  1  0  0  0  0
  9 13  2  0  0  0  0
 10  8  1  0  0  0  0
 11  7  2  0  0  0  0
 11 14  1  0  0  0  0
 12 23  1  1  0  0  0
 12  2  1  0  0  0  0
 13  5  1  0  0  0  0
 14  4  2  0  0  0  0
 15  1  1  0  0  0  0
 15 21  1  0  0  0  0
 16  3  1  6  0  0  0
 16 11  1  0  0  0  0
 17 21  2  0  0  0  0
 18 14  1  0  0  0  0
 19 20  1  0  0  0  0
 19  8  2  0  0  0  0
 20 15  2  0  0  0  0
 21  3  1  0  0  0  0
 22 26  1  0  0  0  0
 23 27  1  0  0  0  0
 24 23  2  0  0  0  0
 25 22  2  0  0  0  0
 25 24  1  0  0  0  0
 26 27  2  0  0  0  0
M  END
>  <MODEL>
9

>  <REMARK>
 VINA RESULT:      -5.6      8.892     13.379
  Name = 
  1 active torsions:
  status: ('A' for Active; 'I' for Inactive)
    1  A    between atoms: C_9  and  C_15
                            x       y       z     vdW  Elec       q    Type
                         _______ _______ _______ _____ _____    ______ ____

>  <TORSDO>
F 1

$$$$
