=
 OpenBabel11062410013D

 43 48  0  0  1  0  0  0  0  0999 V2000
  160.8360  201.3790  146.3270 C   0  0  0  0  0  0  0  0  0  0  0  0
  161.6360  206.1340  147.8710 C   0  0  0  0  0  0  0  0  0  0  0  0
  161.2230  206.1840  150.6280 C   0  0  0  0  0  0  0  0  0  0  0  0
  161.3630  203.7430  146.4210 C   0  0  0  0  0  0  0  0  0  0  0  0
  160.6310  201.3640  147.7100 C   0  0  0  0  0  3  0  0  0  0  0  0
  160.6800  200.1310  145.5430 C   0  0  0  0  0  1  0  0  0  0  0  0
  161.1360  203.7410  147.8220 C   0  0  0  0  0  0  0  0  0  0  0  0
  161.2080  202.5640  145.6840 C   0  0  0  0  0  3  0  0  0  0  0  0
  160.7770  202.5380  148.4540 C   0  0  0  0  0  3  0  0  0  0  0  0
  161.0610  204.9820  149.9340 C   0  0  0  0  0  3  0  0  0  0  0  0
  161.2710  204.9430  148.5480 C   0  0  0  0  0  0  0  0  0  0  0  0
  161.8590  206.1090  146.4800 C   0  0  0  0  0  3  0  0  0  0  0  0
  161.7680  207.3270  148.6080 C   0  0  0  0  0  0  0  0  0  0  0  0
  161.5790  207.3120  149.9520 N   0  0  0  0  0  0  0  0  0  0  0  0
  161.7220  204.9220  145.7610 C   0  0  0  0  0  3  0  0  0  0  0  0
  161.0950  206.2370  152.1220 C   0  0  1  0  0  3  0  0  0  0  0  0
  161.5130  204.9210  152.7460 C   0  0  0  0  0  1  0  0  0  0  0  0
  161.8920  207.3870  152.7390 C   0  0  0  0  0  2  0  0  0  0  0  0
  160.6200  208.7110  154.5050 N   0  0  0  0  0  0  0  0  0  0  0  0
  160.2220  210.0160  154.9580 C   0  0  0  0  0  3  0  0  0  0  0  0
  160.0310  209.1460  157.2610 C   0  0  0  0  0  2  0  0  0  0  0  0
  160.9990  208.5250  153.1320 C   0  0  0  0  0  0  0  0  0  0  0  0
  160.7520  207.6000  155.4560 C   0  0  0  0  0  2  0  0  0  0  0  0
  160.6440  209.3580  152.2550 O   0  0  0  0  0  0  0  0  0  0  0  0
  159.9150  210.2450  156.2430 C   0  0  0  0  0  0  0  0  0  0  0  0
  159.7950  207.7780  156.6260 C   0  0  0  0  0  2  0  0  0  0  0  0
  159.4530  211.5980  156.7010 C   0  0  1  0  0  3  0  0  0  0  0  0
  160.6200  212.5240  157.0310 C   0  0  0  0  0  1  0  0  0  0  0  0
  158.4740  212.2210  155.7490 C   0  0  0  0  0  0  0  0  0  0  0  0
  157.9500  213.7510  153.9390 C   0  0  0  0  0  3  0  0  0  0  0  0
  156.2140  212.3520  154.8830 C   0  0  0  0  0  3  0  0  0  0  0  0
  156.6160  213.3300  153.9700 C   0  0  0  0  0  3  0  0  0  0  0  0
  157.1400  211.8010  155.7730 C   0  0  0  0  0  3  0  0  0  0  0  0
  158.8770  213.1950  154.8220 C   0  0  0  0  0  3  0  0  0  0  0  0
  162.1630  208.6110  147.9540 C   0  0  0  0  0  2  0  0  0  0  0  0
  162.0820  209.7550  148.9500 C   0  0  0  0  0  2  0  0  0  0  0  0
  160.6930  211.3400  147.1030 S   0  0  0  0  0  0  0  0  0  0  0  0
  161.2490  212.8760  146.7070 C   0  0  0  0  0  0  0  0  0  0  0  0
  162.7780  212.1150  148.2790 C   0  0  0  0  0  3  0  0  0  0  0  0
  161.9040  211.0350  148.2230 C   0  0  0  0  0  0  0  0  0  0  0  0
  162.4060  213.1590  147.4170 C   0  0  0  0  0  3  0  0  0  0  0  0
  160.1920  214.4530  144.8620 C   0  0  0  0  0  3  0  0  0  0  0  0
  160.6720  213.7330  145.7090 C   0  0  0  0  0  0  0  0  0  0  0  0
  1  5  1  0  0  0  0
  2 11  1  0  0  0  0
  2 13  1  0  0  0  0
  3 16  1  0  0  0  0
  4  7  1  0  0  0  0
  5  9  2  0  0  0  0
  6  1  1  0  0  0  0
  7  9  1  0  0  0  0
  7 11  2  0  0  0  0
  8  1  2  0  0  0  0
  8  4  1  0  0  0  0
 10  3  2  0  0  0  0
 11 10  1  0  0  0  0
 12  2  2  0  0  0  0
 13 14  2  0  0  0  0
 14  3  1  0  0  0  0
 15  4  2  0  0  0  0
 15 12  1  0  0  0  0
 16 18  1  0  0  0  0
 16 17  1  1  0  0  0
 18 22  1  0  0  0  0
 19 20  1  0  0  0  0
 19 23  1  0  0  0  0
 20 25  2  0  0  0  0
 22 19  1  0  0  0  0
 23 26  1  0  0  0  0
 24 22  2  0  0  0  0
 25 27  1  0  0  0  0
 25 21  1  0  0  0  0
 26 21  1  0  0  0  0
 27 28  1  6  0  0  0
 29 33  1  0  0  0  0
 29 27  1  0  0  0  0
 30 32  2  0  0  0  0
 30 34  1  0  0  0  0
 31 33  2  0  0  0  0
 32 31  1  0  0  0  0
 34 29  2  0  0  0  0
 35 13  1  0  0  0  0
 35 36  1  0  0  0  0
 37 40  1  0  0  0  0
 38 37  1  0  0  0  0
 38 41  2  0  0  0  0
 40 39  2  0  0  0  0
 40 36  1  0  0  0  0
 41 39  1  0  0  0  0
 42 43  3  0  0  0  0
 43 38  1  0  0  0  0
M  END
>  <MODEL>
1

>  <REMARK>
 VINA RESULT:      -9.0      0.000      0.000
  Name = 
  9 active torsions:
  status: ('A' for Active; 'I' for Inactive)
    1  A    between atoms: C_1  and  C_34
    2  A    between atoms: C_1  and  C_35
    3  A    between atoms: C_2  and  C_6
    4  A    between atoms: C_2  and  C_13
    5  A    between atoms: C_6  and  C_12
    6  A    between atoms: C_11  and  C_14
    7  A    between atoms: C_14  and  C_22
    8  A    between atoms: C_19  and  C_37
    9  A    between atoms: C_32  and  C_35
                            x       y       z     vdW  Elec       q    Type
                         _______ _______ _______ _____ _____    ______ ____

>  <TORSDO>
F 9

$$$$
=
 OpenBabel11062410013D

 43 48  0  0  1  0  0  0  0  0999 V2000
  155.6460  212.9140  156.1840 C   0  0  0  0  0  0  0  0  0  0  0  0
  158.4690  213.2390  151.9930 C   0  0  0  0  0  0  0  0  0  0  0  0
  160.3980  211.2290  152.1430 C   0  0  0  0  0  0  0  0  0  0  0  0
  156.5670  213.5590  154.0370 C   0  0  0  0  0  0  0  0  0  0  0  0
  156.5920  211.8890  156.2880 C   0  0  0  0  0  3  0  0  0  0  0  0
  154.6460  213.1090  157.2600 C   0  0  0  0  0  1  0  0  0  0  0  0
  157.5430  212.5340  154.1440 C   0  0  0  0  0  0  0  0  0  0  0  0
  155.6300  213.7430  155.0570 C   0  0  0  0  0  3  0  0  0  0  0  0
  157.5370  211.7010  155.2760 C   0  0  0  0  0  3  0  0  0  0  0  0
  159.4770  211.3730  153.1850 C   0  0  0  0  0  3  0  0  0  0  0  0
  158.4990  212.3760  153.1190 C   0  0  0  0  0  0  0  0  0  0  0  0
  157.4880  214.2450  151.9080 C   0  0  0  0  0  3  0  0  0  0  0  0
  159.4290  213.0690  150.9770 C   0  0  0  0  0  0  0  0  0  0  0  0
  160.3420  212.0690  151.0720 N   0  0  0  0  0  0  0  0  0  0  0  0
  156.5450  214.4040  152.9230 C   0  0  0  0  0  3  0  0  0  0  0  0
  161.3950  210.1080  152.1430 C   0  0  1  0  0  3  0  0  0  0  0  0
  162.2830  210.1760  153.3680 C   0  0  0  0  0  1  0  0  0  0  0  0
  160.7320  208.7340  152.0500 C   0  0  0  0  0  2  0  0  0  0  0  0
  161.2440  206.4410  151.0620 N   0  0  0  0  0  0  0  0  0  0  0  0
  161.4280  205.6780  149.8580 C   0  0  0  0  0  3  0  0  0  0  0  0
  160.7680  203.6300  151.0710 C   0  0  0  0  0  2  0  0  0  0  0  0
  161.4010  207.8690  151.0240 C   0  0  0  0  0  0  0  0  0  0  0  0
  160.7850  205.7910  152.2950 C   0  0  0  0  0  2  0  0  0  0  0  0
  162.0430  208.4140  150.0860 O   0  0  0  0  0  0  0  0  0  0  0  0
  161.2360  204.3510  149.8380 C   0  0  0  0  0  0  0  0  0  0  0  0
  161.2400  204.3380  152.3370 C   0  0  0  0  0  2  0  0  0  0  0  0
  161.4780  203.5510  148.5910 C   0  0  1  0  0  3  0  0  0  0  0  0
  160.6870  202.2460  148.5810 C   0  0  0  0  0  1  0  0  0  0  0  0
  161.2700  204.3590  147.3430 C   0  0  0  0  0  0  0  0  0  0  0  0
  160.6740  206.4310  146.2270 C   0  0  0  0  0  3  0  0  0  0  0  0
  161.3570  204.5070  144.9250 C   0  0  0  0  0  3  0  0  0  0  0  0
  160.9260  205.8350  144.9870 C   0  0  0  0  0  3  0  0  0  0  0  0
  161.5250  203.7690  146.1000 C   0  0  0  0  0  3  0  0  0  0  0  0
  160.8500  205.6970  147.4020 C   0  0  0  0  0  3  0  0  0  0  0  0
  159.4410  213.9370  149.7600 C   0  0  0  0  0  2  0  0  0  0  0  0
  160.8390  213.9960  149.1690 C   0  0  0  0  0  2  0  0  0  0  0  0
  162.1320  213.4910  146.7350 S   0  0  0  0  0  0  0  0  0  0  0  0
  161.2470  213.0630  145.3710 C   0  0  0  0  0  0  0  0  0  0  0  0
  159.6400  213.3000  147.0280 C   0  0  0  0  0  3  0  0  0  0  0  0
  160.7970  213.5730  147.7490 C   0  0  0  0  0  0  0  0  0  0  0  0
  159.8960  213.0120  145.6790 C   0  0  0  0  0  3  0  0  0  0  0  0
  162.2480  212.7210  142.9450 C   0  0  0  0  0  3  0  0  0  0  0  0
  161.7940  212.8760  144.0560 C   0  0  0  0  0  0  0  0  0  0  0  0
  1  5  1  0  0  0  0
  1  6  1  0  0  0  0
  2 11  1  0  0  0  0
  3 10  1  0  0  0  0
  4  7  2  0  0  0  0
  4  8  1  0  0  0  0
  7  9  1  0  0  0  0
  8  1  2  0  0  0  0
  9  5  2  0  0  0  0
 11 10  2  0  0  0  0
 11  7  1  0  0  0  0
 12  2  1  0  0  0  0
 12 15  2  0  0  0  0
 13 14  1  0  0  0  0
 13  2  2  0  0  0  0
 14  3  2  0  0  0  0
 15  4  1  0  0  0  0
 16  3  1  0  0  0  0
 16 17  1  1  0  0  0
 18 16  1  0  0  0  0
 19 23  1  0  0  0  0
 20 19  1  0  0  0  0
 21 26  1  0  0  0  0
 22 19  1  0  0  0  0
 22 18  1  0  0  0  0
 23 26  1  0  0  0  0
 24 22  2  0  0  0  0
 25 20  2  0  0  0  0
 25 21  1  0  0  0  0
 27 28  1  6  0  0  0
 27 25  1  0  0  0  0
 29 34  1  0  0  0  0
 29 27  1  0  0  0  0
 30 34  2  0  0  0  0
 31 32  2  0  0  0  0
 31 33  1  0  0  0  0
 32 30  1  0  0  0  0
 33 29  2  0  0  0  0
 35 13  1  0  0  0  0
 36 35  1  0  0  0  0
 37 40  1  0  0  0  0
 38 41  2  0  0  0  0
 38 37  1  0  0  0  0
 39 40  2  0  0  0  0
 40 36  1  0  0  0  0
 41 39  1  0  0  0  0
 42 43  3  0  0  0  0
 43 38  1  0  0  0  0
M  END
>  <MODEL>
2

>  <REMARK>
 VINA RESULT:      -8.8      2.204      9.307
  Name = 
  9 active torsions:
  status: ('A' for Active; 'I' for Inactive)
    1  A    between atoms: C_1  and  C_34
    2  A    between atoms: C_1  and  C_35
    3  A    between atoms: C_2  and  C_6
    4  A    between atoms: C_2  and  C_13
    5  A    between atoms: C_6  and  C_12
    6  A    between atoms: C_11  and  C_14
    7  A    between atoms: C_14  and  C_22
    8  A    between atoms: C_19  and  C_37
    9  A    between atoms: C_32  and  C_35
                            x       y       z     vdW  Elec       q    Type
                         _______ _______ _______ _____ _____    ______ ____

>  <TORSDO>
F 9

$$$$
=
 OpenBabel11062410013D

 43 48  0  0  1  0  0  0  0  0999 V2000
  160.4120  207.8890  155.6780 C   0  0  0  0  0  0  0  0  0  0  0  0
  161.8370  208.0860  150.8230 C   0  0  0  0  0  0  0  0  0  0  0  0
  161.3650  210.6870  149.9330 C   0  0  0  0  0  0  0  0  0  0  0  0
  161.2650  207.3500  153.4740 C   0  0  0  0  0  0  0  0  0  0  0  0
  160.1720  209.2040  155.2700 C   0  0  0  0  0  3  0  0  0  0  0  0
  160.1010  207.4770  157.0680 C   0  0  0  0  0  1  0  0  0  0  0  0
  161.0060  208.6780  153.0450 C   0  0  0  0  0  0  0  0  0  0  0  0
  160.9640  206.9650  154.7840 C   0  0  0  0  0  3  0  0  0  0  0  0
  160.4640  209.5970  153.9610 C   0  0  0  0  0  3  0  0  0  0  0  0
  161.0530  210.3480  151.2520 C   0  0  0  0  0  3  0  0  0  0  0  0
  161.2910  209.0450  151.7140 C   0  0  0  0  0  0  0  0  0  0  0  0
  162.0890  206.7760  151.2740 C   0  0  0  0  0  3  0  0  0  0  0  0
  162.1170  208.4670  149.4970 C   0  0  0  0  0  0  0  0  0  0  0  0
  161.8940  209.7460  149.1010 N   0  0  0  0  0  0  0  0  0  0  0  0
  161.8040  206.4110  152.5890 C   0  0  0  0  0  3  0  0  0  0  0  0
  161.2090  212.0950  149.4390 C   0  0  1  0  0  3  0  0  0  0  0  0
  160.5590  212.9670  150.4930 C   0  0  0  0  0  1  0  0  0  0  0  0
  162.5350  212.7110  148.9930 C   0  0  0  0  0  2  0  0  0  0  0  0
  161.8460  213.0760  146.5670 N   0  0  0  0  0  0  0  0  0  0  0  0
  162.2970  213.3420  145.2280 C   0  0  0  0  0  3  0  0  0  0  0  0
  160.1010  214.3410  144.7010 C   0  0  0  0  0  2  0  0  0  0  0  0
  162.7630  212.5190  147.5240 C   0  0  0  0  0  0  0  0  0  0  0  0
  160.4990  213.4740  146.9940 C   0  0  0  0  0  2  0  0  0  0  0  0
  163.8050  211.9260  147.1350 O   0  0  0  0  0  0  0  0  0  0  0  0
  161.4900  213.9130  144.3220 C   0  0  0  0  0  0  0  0  0  0  0  0
  159.5370  213.4620  145.8140 C   0  0  0  0  0  2  0  0  0  0  0  0
  161.9490  214.1440  142.9110 C   0  0  1  0  0  3  0  0  0  0  0  0
  163.4570  214.3690  142.8260 C   0  0  0  0  0  1  0  0  0  0  0  0
  161.4730  213.0740  141.9720 C   0  0  0  0  0  0  0  0  0  0  0  0
  159.7780  212.1220  140.5180 C   0  0  0  0  0  3  0  0  0  0  0  0
  161.9220  211.0230  140.7600 C   0  0  0  0  0  3  0  0  0  0  0  0
  160.6430  211.0700  140.2000 C   0  0  0  0  0  3  0  0  0  0  0  0
  162.3360  212.0210  141.6470 C   0  0  0  0  0  3  0  0  0  0  0  0
  160.1930  213.1240  141.3970 C   0  0  0  0  0  3  0  0  0  0  0  0
  162.7060  207.5060  148.5150 C   0  0  0  0  0  2  0  0  0  0  0  0
  161.6550  207.0690  147.5110 C   0  0  0  0  0  2  0  0  0  0  0  0
  161.0600  204.7490  148.9650 S   0  0  0  0  0  0  0  0  0  0  0  0
  161.1810  203.2350  148.2450 C   0  0  0  0  0  0  0  0  0  0  0  0
  161.7540  204.7100  146.5470 C   0  0  0  0  0  3  0  0  0  0  0  0
  161.4810  205.5990  147.5810 C   0  0  0  0  0  0  0  0  0  0  0  0
  161.5850  203.3690  146.9250 C   0  0  0  0  0  3  0  0  0  0  0  0
  160.8300  200.9280  149.4940 C   0  0  0  0  0  3  0  0  0  0  0  0
  160.9930  201.9810  148.9200 C   0  0  0  0  0  0  0  0  0  0  0  0
  1  6  1  0  0  0  0
  2 12  1  0  0  0  0
  2 11  1  0  0  0  0
  3 10  1  0  0  0  0
  4  8  1  0  0  0  0
  5  1  1  0  0  0  0
  7  4  2  0  0  0  0
  7  9  1  0  0  0  0
  8  1  2  0  0  0  0
  9  5  2  0  0  0  0
 10 11  2  0  0  0  0
 11  7  1  0  0  0  0
 12 15  2  0  0  0  0
 13  2  2  0  0  0  0
 14 13  1  0  0  0  0
 14  3  2  0  0  0  0
 15  4  1  0  0  0  0
 16  3  1  0  0  0  0
 16 17  1  1  0  0  0
 18 16  1  0  0  0  0
 19 23  1  0  0  0  0
 19 22  1  0  0  0  0
 20 19  1  0  0  0  0
 21 26  1  0  0  0  0
 22 18  1  0  0  0  0
 24 22  2  0  0  0  0
 25 21  1  0  0  0  0
 25 20  2  0  0  0  0
 26 23  1  0  0  0  0
 27 28  1  1  0  0  0
 27 25  1  0  0  0  0
 29 27  1  0  0  0  0
 30 34  1  0  0  0  0
 31 33  2  0  0  0  0
 32 30  2  0  0  0  0
 32 31  1  0  0  0  0
 33 29  1  0  0  0  0
 34 29  2  0  0  0  0
 35 13  1  0  0  0  0
 36 40  1  0  0  0  0
 36 35  1  0  0  0  0
 38 43  1  0  0  0  0
 38 37  1  0  0  0  0
 39 41  1  0  0  0  0
 39 40  2  0  0  0  0
 40 37  1  0  0  0  0
 41 38  2  0  0  0  0
 43 42  3  0  0  0  0
M  END
>  <MODEL>
3

>  <REMARK>
 VINA RESULT:      -8.1      2.869      9.992
  Name = 
  9 active torsions:
  status: ('A' for Active; 'I' for Inactive)
    1  A    between atoms: C_1  and  C_34
    2  A    between atoms: C_1  and  C_35
    3  A    between atoms: C_2  and  C_6
    4  A    between atoms: C_2  and  C_13
    5  A    between atoms: C_6  and  C_12
    6  A    between atoms: C_11  and  C_14
    7  A    between atoms: C_14  and  C_22
    8  A    between atoms: C_19  and  C_37
    9  A    between atoms: C_32  and  C_35
                            x       y       z     vdW  Elec       q    Type
                         _______ _______ _______ _____ _____    ______ ____

>  <TORSDO>
F 9

$$$$
=
 OpenBabel11062410013D

 43 48  0  0  1  0  0  0  0  0999 V2000
  160.8260  202.4420  146.7300 C   0  0  0  0  0  0  0  0  0  0  0  0
  161.3630  204.9710  151.0840 C   0  0  0  0  0  0  0  0  0  0  0  0
  161.9840  207.6100  150.4310 C   0  0  0  0  0  0  0  0  0  0  0  0
  160.9170  203.0610  149.0720 C   0  0  0  0  0  0  0  0  0  0  0  0
  161.1260  203.7590  146.3650 C   0  0  0  0  0  3  0  0  0  0  0  0
  160.6050  201.4170  145.6830 C   0  0  0  0  0  1  0  0  0  0  0  0
  161.2420  204.3940  148.7110 C   0  0  0  0  0  0  0  0  0  0  0  0
  160.7160  202.0950  148.0800 C   0  0  0  0  0  3  0  0  0  0  0  0
  161.3350  204.7290  147.3480 C   0  0  0  0  0  3  0  0  0  0  0  0
  161.7860  206.6810  149.4060 C   0  0  0  0  0  3  0  0  0  0  0  0
  161.4680  205.3510  149.7220 C   0  0  0  0  0  0  0  0  0  0  0  0
  161.0350  203.6420  151.4160 C   0  0  0  0  0  3  0  0  0  0  0  0
  161.5900  205.9360  152.0830 C   0  0  0  0  0  0  0  0  0  0  0  0
  161.8710  207.2170  151.7300 N   0  0  0  0  0  0  0  0  0  0  0  0
  160.8160  202.6940  150.4170 C   0  0  0  0  0  3  0  0  0  0  0  0
  162.2340  209.0570  150.1230 C   0  0  1  0  0  3  0  0  0  0  0  0
  162.6130  209.2420  148.6690 C   0  0  0  0  0  1  0  0  0  0  0  0
  161.0380  209.9450  150.4710 C   0  0  0  0  0  2  0  0  0  0  0  0
  160.2870  211.6050  152.2520 N   0  0  0  0  0  0  0  0  0  0  0  0
  160.1230  211.8490  153.6590 C   0  0  0  0  0  3  0  0  0  0  0  0
  158.3460  213.4880  153.1540 C   0  0  0  0  0  2  0  0  0  0  0  0
  161.2060  210.5910  151.8130 C   0  0  0  0  0  0  0  0  0  0  0  0
  159.4440  212.3000  151.2710 C   0  0  0  0  0  2  0  0  0  0  0  0
  162.1180  210.1840  152.5820 O   0  0  0  0  0  0  0  0  0  0  0  0
  159.2350  212.7460  154.1120 C   0  0  0  0  0  0  0  0  0  0  0  0
  159.0200  213.6640  151.7970 C   0  0  0  0  0  2  0  0  0  0  0  0
  159.1020  213.0330  155.5790 C   0  0  1  0  0  3  0  0  0  0  0  0
  159.7080  214.3800  155.9610 C   0  0  0  0  0  1  0  0  0  0  0  0
  157.6910  212.8780  156.0660 C   0  0  0  0  0  0  0  0  0  0  0  0
  155.6970  211.5370  156.4170 C   0  0  0  0  0  3  0  0  0  0  0  0
  155.7510  213.8430  157.1550 C   0  0  0  0  0  3  0  0  0  0  0  0
  155.0690  212.6310  157.0210 C   0  0  0  0  0  3  0  0  0  0  0  0
  157.0580  213.9670  156.6760 C   0  0  0  0  0  3  0  0  0  0  0  0
  157.0060  211.6580  155.9450 C   0  0  0  0  0  3  0  0  0  0  0  0
  161.4810  205.6010  153.5350 C   0  0  0  0  0  2  0  0  0  0  0  0
  160.1970  206.1700  154.1120 C   0  0  0  0  0  2  0  0  0  0  0  0
  160.7370  208.8220  154.8370 S   0  0  0  0  0  0  0  0  0  0  0  0
  161.1560  209.2060  156.4200 C   0  0  0  0  0  0  0  0  0  0  0  0
  160.8060  206.9120  156.4740 C   0  0  0  0  0  3  0  0  0  0  0  0
  160.5210  207.1860  155.1410 C   0  0  0  0  0  0  0  0  0  0  0  0
  161.1670  208.0590  157.1990 C   0  0  0  0  0  3  0  0  0  0  0  0
  161.8660  211.6130  157.2610 C   0  0  0  0  0  3  0  0  0  0  0  0
  161.5440  210.5100  156.8790 C   0  0  0  0  0  0  0  0  0  0  0  0
  1  8  1  0  0  0  0
  2 12  1  0  0  0  0
  2 13  1  0  0  0  0
  3 14  1  0  0  0  0
  4 15  1  0  0  0  0
  5  1  2  0  0  0  0
  5  9  1  0  0  0  0
  6  1  1  0  0  0  0
  7  4  1  0  0  0  0
  7 11  1  0  0  0  0
  8  4  2  0  0  0  0
  9  7  2  0  0  0  0
 10 11  1  0  0  0  0
 10  3  2  0  0  0  0
 11  2  2  0  0  0  0
 13 35  1  0  0  0  0
 14 13  2  0  0  0  0
 15 12  2  0  0  0  0
 16 17  1  6  0  0  0
 16  3  1  0  0  0  0
 16 18  1  0  0  0  0
 18 22  1  0  0  0  0
 19 20  1  0  0  0  0
 20 25  2  0  0  0  0
 21 25  1  0  0  0  0
 22 19  1  0  0  0  0
 22 24  2  0  0  0  0
 23 26  1  0  0  0  0
 23 19  1  0  0  0  0
 25 27  1  0  0  0  0
 26 21  1  0  0  0  0
 27 28  1  6  0  0  0
 27 29  1  0  0  0  0
 29 33  1  0  0  0  0
 30 32  2  0  0  0  0
 32 31  1  0  0  0  0
 33 31  2  0  0  0  0
 34 29  2  0  0  0  0
 34 30  1  0  0  0  0
 35 36  1  0  0  0  0
 36 40  1  0  0  0  0
 37 40  1  0  0  0  0
 37 38  1  0  0  0  0
 38 43  1  0  0  0  0
 38 41  2  0  0  0  0
 39 41  1  0  0  0  0
 40 39  2  0  0  0  0
 43 42  3  0  0  0  0
M  END
>  <MODEL>
4

>  <REMARK>
 VINA RESULT:      -7.7      2.478      5.435
  Name = 
  9 active torsions:
  status: ('A' for Active; 'I' for Inactive)
    1  A    between atoms: C_1  and  C_34
    2  A    between atoms: C_1  and  C_35
    3  A    between atoms: C_2  and  C_6
    4  A    between atoms: C_2  and  C_13
    5  A    between atoms: C_6  and  C_12
    6  A    between atoms: C_11  and  C_14
    7  A    between atoms: C_14  and  C_22
    8  A    between atoms: C_19  and  C_37
    9  A    between atoms: C_32  and  C_35
                            x       y       z     vdW  Elec       q    Type
                         _______ _______ _______ _____ _____    ______ ____

>  <TORSDO>
F 9

$$$$
=
 OpenBabel11062410013D

 43 48  0  0  1  0  0  0  0  0999 V2000
  157.8140  212.8490  155.3690 C   0  0  0  0  0  0  0  0  0  0  0  0
  160.7940  210.6620  151.9080 C   0  0  0  0  0  0  0  0  0  0  0  0
  160.8690  212.3600  149.6970 C   0  0  0  0  0  0  0  0  0  0  0  0
  159.3070  211.3450  154.1930 C   0  0  0  0  0  0  0  0  0  0  0  0
  157.8370  213.7290  154.2830 C   0  0  0  0  0  3  0  0  0  0  0  0
  157.0220  213.1830  156.5770 C   0  0  0  0  0  1  0  0  0  0  0  0
  159.3190  212.2230  153.0780 C   0  0  0  0  0  0  0  0  0  0  0  0
  158.5540  211.6620  155.3270 C   0  0  0  0  0  3  0  0  0  0  0  0
  158.5820  213.4180  153.1430 C   0  0  0  0  0  3  0  0  0  0  0  0
  160.1050  212.7210  150.8100 C   0  0  0  0  0  3  0  0  0  0  0  0
  160.0640  211.8780  151.9310 C   0  0  0  0  0  0  0  0  0  0  0  0
  160.7690  209.8100  153.0280 C   0  0  0  0  0  3  0  0  0  0  0  0
  161.5330  210.3300  150.7560 C   0  0  0  0  0  0  0  0  0  0  0  0
  161.5640  211.1890  149.7050 N   0  0  0  0  0  0  0  0  0  0  0  0
  160.0300  210.1480  154.1610 C   0  0  0  0  0  3  0  0  0  0  0  0
  161.0050  213.2840  148.5230 C   0  0  1  0  0  3  0  0  0  0  0  0
  161.9260  214.4410  148.8510 C   0  0  0  0  0  1  0  0  0  0  0  0
  161.4940  212.5650  147.2650 C   0  0  0  0  0  2  0  0  0  0  0  0
  161.0300  212.9640  144.7910 N   0  0  0  0  0  0  0  0  0  0  0  0
  160.1970  212.6320  143.6670 C   0  0  0  0  0  3  0  0  0  0  0  0
  162.0440  213.2250  142.1400 C   0  0  0  0  0  2  0  0  0  0  0  0
  160.5380  212.7450  146.1240 C   0  0  0  0  0  0  0  0  0  0  0  0
  162.4120  213.4130  144.5880 C   0  0  0  0  0  2  0  0  0  0  0  0
  159.3010  212.6290  146.3340 O   0  0  0  0  0  0  0  0  0  0  0  0
  160.6380  212.7690  142.4080 C   0  0  0  0  0  0  0  0  0  0  0  0
  162.5530  214.1340  143.2550 C   0  0  0  0  0  2  0  0  0  0  0  0
  159.7480  212.4680  141.2380 C   0  0  1  0  0  3  0  0  0  0  0  0
  159.4980  213.7000  140.3730 C   0  0  0  0  0  1  0  0  0  0  0  0
  160.2320  211.2930  140.4380 C   0  0  0  0  0  0  0  0  0  0  0  0
  159.9850  209.7240  138.6020 C   0  0  0  0  0  3  0  0  0  0  0  0
  161.9250  209.6030  140.0460 C   0  0  0  0  0  3  0  0  0  0  0  0
  161.1940  209.1180  138.9580 C   0  0  0  0  0  3  0  0  0  0  0  0
  161.4440  210.6860  140.7860 C   0  0  0  0  0  3  0  0  0  0  0  0
  159.5080  210.8120  139.3370 C   0  0  0  0  0  3  0  0  0  0  0  0
  162.3330  209.0710  150.6760 C   0  0  0  0  0  2  0  0  0  0  0  0
  161.9660  208.2920  149.4260 C   0  0  0  0  0  2  0  0  0  0  0  0
  161.5990  205.6130  148.6910 S   0  0  0  0  0  0  0  0  0  0  0  0
  161.1390  204.4690  149.8340 C   0  0  0  0  0  0  0  0  0  0  0  0
  161.3080  206.4390  151.0500 C   0  0  0  0  0  3  0  0  0  0  0  0
  161.6740  206.8840  149.7840 C   0  0  0  0  0  0  0  0  0  0  0  0
  161.0030  205.0700  151.0770 C   0  0  0  0  0  3  0  0  0  0  0  0
  160.5710  201.9360  149.3210 C   0  0  0  0  0  3  0  0  0  0  0  0
  160.8320  203.0950  149.5520 C   0  0  0  0  0  0  0  0  0  0  0  0
  1  6  1  0  0  0  0
  2 11  1  0  0  0  0
  2 12  1  0  0  0  0
  3 14  2  0  0  0  0
  3 10  1  0  0  0  0
  4  8  2  0  0  0  0
  5  1  2  0  0  0  0
  7  9  2  0  0  0  0
  7  4  1  0  0  0  0
  8  1  1  0  0  0  0
  9  5  1  0  0  0  0
 10 11  2  0  0  0  0
 11  7  1  0  0  0  0
 12 15  2  0  0  0  0
 13  2  2  0  0  0  0
 14 13  1  0  0  0  0
 15  4  1  0  0  0  0
 16 17  1  1  0  0  0
 16  3  1  0  0  0  0
 18 16  1  0  0  0  0
 19 22  1  0  0  0  0
 20 19  1  0  0  0  0
 21 25  1  0  0  0  0
 21 26  1  0  0  0  0
 22 24  2  0  0  0  0
 22 18  1  0  0  0  0
 23 19  1  0  0  0  0
 25 20  2  0  0  0  0
 26 23  1  0  0  0  0
 27 28  1  6  0  0  0
 27 25  1  0  0  0  0
 29 33  1  0  0  0  0
 29 27  1  0  0  0  0
 30 32  2  0  0  0  0
 30 34  1  0  0  0  0
 31 33  2  0  0  0  0
 32 31  1  0  0  0  0
 34 29  2  0  0  0  0
 35 13  1  0  0  0  0
 36 40  1  0  0  0  0
 36 35  1  0  0  0  0
 37 40  1  0  0  0  0
 37 38  1  0  0  0  0
 38 41  2  0  0  0  0
 39 41  1  0  0  0  0
 40 39  2  0  0  0  0
 42 43  3  0  0  0  0
 43 38  1  0  0  0  0
M  END
>  <MODEL>
5

>  <REMARK>
 VINA RESULT:      -7.4      3.706     11.504
  Name = 
  9 active torsions:
  status: ('A' for Active; 'I' for Inactive)
    1  A    between atoms: C_1  and  C_34
    2  A    between atoms: C_1  and  C_35
    3  A    between atoms: C_2  and  C_6
    4  A    between atoms: C_2  and  C_13
    5  A    between atoms: C_6  and  C_12
    6  A    between atoms: C_11  and  C_14
    7  A    between atoms: C_14  and  C_22
    8  A    between atoms: C_19  and  C_37
    9  A    between atoms: C_32  and  C_35
                            x       y       z     vdW  Elec       q    Type
                         _______ _______ _______ _____ _____    ______ ____

>  <TORSDO>
F 9

$$$$
=
 OpenBabel11062410013D

 43 48  0  0  1  0  0  0  0  0999 V2000
  161.4620  212.1840  149.0510 C   0  0  0  0  0  0  0  0  0  0  0  0
  161.9930  207.5290  150.9730 C   0  0  0  0  0  0  0  0  0  0  0  0
  161.1230  207.6280  153.6200 C   0  0  0  0  0  0  0  0  0  0  0  0
  161.9200  209.8220  149.3500 C   0  0  0  0  0  0  0  0  0  0  0  0
  161.0080  212.2690  150.3710 C   0  0  0  0  0  3  0  0  0  0  0  0
  161.4470  213.3870  148.1850 C   0  0  0  0  0  1  0  0  0  0  0  0
  161.4810  209.9040  150.6970 C   0  0  0  0  0  0  0  0  0  0  0  0
  161.9110  210.9620  148.5390 C   0  0  0  0  0  3  0  0  0  0  0  0
  161.0200  211.1370  151.1910 C   0  0  0  0  0  3  0  0  0  0  0  0
  161.0910  208.7910  152.8460 C   0  0  0  0  0  3  0  0  0  0  0  0
  161.5210  208.7530  151.5110 C   0  0  0  0  0  0  0  0  0  0  0  0
  162.4190  207.4730  149.6310 C   0  0  0  0  0  3  0  0  0  0  0  0
  162.0260  206.3870  151.7960 C   0  0  0  0  0  0  0  0  0  0  0  0
  161.5770  206.4660  153.0750 N   0  0  0  0  0  0  0  0  0  0  0  0
  162.3850  208.6110  148.8270 C   0  0  0  0  0  3  0  0  0  0  0  0
  160.5840  207.6180  155.0210 C   0  0  1  0  0  3  0  0  0  0  0  0
  161.3180  206.6050  155.8740 C   0  0  0  0  0  1  0  0  0  0  0  0
  160.6380  208.9970  155.6800 C   0  0  0  0  0  2  0  0  0  0  0  0
  159.0520  210.9850  155.8330 N   0  0  0  0  0  0  0  0  0  0  0  0
  157.7450  211.4930  155.5140 C   0  0  0  0  0  3  0  0  0  0  0  0
  158.6430  213.7930  155.5650 C   0  0  0  0  0  2  0  0  0  0  0  0
  159.2650  209.5640  155.8790 C   0  0  0  0  0  0  0  0  0  0  0  0
  160.1880  211.8990  155.9980 C   0  0  0  0  0  2  0  0  0  0  0  0
  158.2890  208.7780  156.0140 O   0  0  0  0  0  0  0  0  0  0  0  0
  157.5170  212.8100  155.4060 C   0  0  0  0  0  0  0  0  0  0  0  0
  159.7180  213.2550  156.5050 C   0  0  0  0  0  2  0  0  0  0  0  0
  156.1420  213.3380  155.1210 C   0  0  1  0  0  3  0  0  0  0  0  0
  155.7420  214.4530  156.0840 C   0  0  0  0  0  1  0  0  0  0  0  0
  155.9650  213.7300  153.6830 C   0  0  0  0  0  0  0  0  0  0  0  0
  156.8770  214.4010  151.5350 C   0  0  0  0  0  3  0  0  0  0  0  0
  154.4890  214.0910  151.7940 C   0  0  0  0  0  3  0  0  0  0  0  0
  155.5870  214.4220  150.9950 C   0  0  0  0  0  3  0  0  0  0  0  0
  154.6770  213.7480  153.1360 C   0  0  0  0  0  3  0  0  0  0  0  0
  157.0660  214.0510  152.8740 C   0  0  0  0  0  3  0  0  0  0  0  0
  162.5000  205.0660  151.2830 C   0  0  0  0  0  2  0  0  0  0  0  0
  161.4280  204.0090  151.4810 C   0  0  0  0  0  2  0  0  0  0  0  0
  161.2680  203.9100  148.6850 S   0  0  0  0  0  0  0  0  0  0  0  0
  160.8980  202.4700  147.9020 C   0  0  0  0  0  0  0  0  0  0  0  0
  160.9160  201.8950  150.1500 C   0  0  0  0  0  3  0  0  0  0  0  0
  161.2460  203.2440  150.2250 C   0  0  0  0  0  0  0  0  0  0  0  0
  160.7180  201.4570  148.8320 C   0  0  0  0  0  3  0  0  0  0  0  0
  160.5210  202.2040  145.2950 C   0  0  0  0  0  3  0  0  0  0  0  0
  160.6980  202.3260  146.4870 C   0  0  0  0  0  0  0  0  0  0  0  0
  1  5  1  0  0  0  0
  2 11  1  0  0  0  0
  2 13  1  0  0  0  0
  3 16  1  0  0  0  0
  4  7  1  0  0  0  0
  5  9  2  0  0  0  0
  6  1  1  0  0  0  0
  7  9  1  0  0  0  0
  7 11  2  0  0  0  0
  8  1  2  0  0  0  0
  8  4  1  0  0  0  0
 10  3  2  0  0  0  0
 11 10  1  0  0  0  0
 12  2  2  0  0  0  0
 13 14  2  0  0  0  0
 14  3  1  0  0  0  0
 15  4  2  0  0  0  0
 15 12  1  0  0  0  0
 16 18  1  0  0  0  0
 16 17  1  1  0  0  0
 18 22  1  0  0  0  0
 19 22  1  0  0  0  0
 19 23  1  0  0  0  0
 20 19  1  0  0  0  0
 21 26  1  0  0  0  0
 22 24  2  0  0  0  0
 23 26  1  0  0  0  0
 25 20  2  0  0  0  0
 25 21  1  0  0  0  0
 27 25  1  0  0  0  0
 27 28  1  1  0  0  0
 29 27  1  0  0  0  0
 30 34  1  0  0  0  0
 31 33  2  0  0  0  0
 32 30  2  0  0  0  0
 32 31  1  0  0  0  0
 33 29  1  0  0  0  0
 34 29  2  0  0  0  0
 35 36  1  0  0  0  0
 35 13  1  0  0  0  0
 37 40  1  0  0  0  0
 38 37  1  0  0  0  0
 38 41  2  0  0  0  0
 39 40  2  0  0  0  0
 40 36  1  0  0  0  0
 41 39  1  0  0  0  0
 42 43  3  0  0  0  0
 43 38  1  0  0  0  0
M  END
>  <MODEL>
6

>  <REMARK>
 VINA RESULT:      -6.6      2.142      6.707
  Name = 
  9 active torsions:
  status: ('A' for Active; 'I' for Inactive)
    1  A    between atoms: C_1  and  C_34
    2  A    between atoms: C_1  and  C_35
    3  A    between atoms: C_2  and  C_6
    4  A    between atoms: C_2  and  C_13
    5  A    between atoms: C_6  and  C_12
    6  A    between atoms: C_11  and  C_14
    7  A    between atoms: C_14  and  C_22
    8  A    between atoms: C_19  and  C_37
    9  A    between atoms: C_32  and  C_35
                            x       y       z     vdW  Elec       q    Type
                         _______ _______ _______ _____ _____    ______ ____

>  <TORSDO>
F 9

$$$$
=
 OpenBabel11062410013D

 43 48  0  0  1  0  0  0  0  0999 V2000
  161.3270  199.8660  146.4860 C   0  0  0  0  0  0  0  0  0  0  0  0
  160.9640  204.7260  147.8590 C   0  0  0  0  0  0  0  0  0  0  0  0
  160.7350  204.7810  150.6380 C   0  0  0  0  0  0  0  0  0  0  0  0
  161.2270  202.2880  146.4870 C   0  0  0  0  0  0  0  0  0  0  0  0
  161.2240  199.8550  147.8800 C   0  0  0  0  0  3  0  0  0  0  0  0
  161.4490  198.5890  145.7430 C   0  0  0  0  0  1  0  0  0  0  0  0
  161.1020  202.2850  147.9010 C   0  0  0  0  0  0  0  0  0  0  0  0
  161.3350  201.0800  145.7910 C   0  0  0  0  0  3  0  0  0  0  0  0
  161.1090  201.0570  148.5850 C   0  0  0  0  0  3  0  0  0  0  0  0
  160.8460  203.5500  149.9850 C   0  0  0  0  0  3  0  0  0  0  0  0
  160.9670  203.5100  148.5880 C   0  0  0  0  0  0  0  0  0  0  0  0
  161.0950  204.7030  146.4570 C   0  0  0  0  0  3  0  0  0  0  0  0
  160.8300  205.9420  148.5580 C   0  0  0  0  0  0  0  0  0  0  0  0
  160.7400  205.9340  149.9120 N   0  0  0  0  0  0  0  0  0  0  0  0
  161.2230  203.4920  145.7770 C   0  0  0  0  0  3  0  0  0  0  0  0
  160.6970  204.8590  152.1360 C   0  0  1  0  0  3  0  0  0  0  0  0
  161.0840  203.5330  152.7560 C   0  0  0  0  0  1  0  0  0  0  0  0
  161.5850  205.9750  152.6870 C   0  0  0  0  0  2  0  0  0  0  0  0
  160.6250  207.4880  154.4990 N   0  0  0  0  0  0  0  0  0  0  0  0
  160.3130  208.8380  154.8820 C   0  0  0  0  0  3  0  0  0  0  0  0
  160.4940  208.1920  157.2590 C   0  0  0  0  0  2  0  0  0  0  0  0
  160.7740  207.1640  153.1070 C   0  0  0  0  0  0  0  0  0  0  0  0
  160.9030  206.4690  155.5180 C   0  0  0  0  0  2  0  0  0  0  0  0
  160.2860  207.9190  152.2230 O   0  0  0  0  0  0  0  0  0  0  0  0
  160.2210  209.1930  156.1720 C   0  0  0  0  0  0  0  0  0  0  0  0
  160.1490  206.7770  156.8050 C   0  0  0  0  0  2  0  0  0  0  0  0
  159.8470  210.5930  156.5660 C   0  0  1  0  0  3  0  0  0  0  0  0
  161.0600  211.4120  157.0000 C   0  0  0  0  0  1  0  0  0  0  0  0
  159.0320  211.2850  155.5130 C   0  0  0  0  0  0  0  0  0  0  0  0
  158.8600  212.6810  153.5340 C   0  0  0  0  0  3  0  0  0  0  0  0
  156.8610  211.7560  154.5420 C   0  0  0  0  0  3  0  0  0  0  0  0
  157.4690  212.5320  153.5510 C   0  0  0  0  0  3  0  0  0  0  0  0
  157.6410  211.1370  155.5230 C   0  0  0  0  0  3  0  0  0  0  0  0
  159.6400  212.0560  154.5090 C   0  0  0  0  0  3  0  0  0  0  0  0
  160.8340  207.2570  147.8480 C   0  0  0  0  0  2  0  0  0  0  0  0
  162.2180  207.8790  147.9000 C   0  0  0  0  0  2  0  0  0  0  0  0
  162.6910  208.4250  150.6080 S   0  0  0  0  0  0  0  0  0  0  0  0
  162.4450  209.9710  151.2230 C   0  0  0  0  0  0  0  0  0  0  0  0
  161.9270  210.1760  148.9700 C   0  0  0  0  0  3  0  0  0  0  0  0
  162.2910  208.8350  149.0300 C   0  0  0  0  0  0  0  0  0  0  0  0
  162.0130  210.8190  150.2140 C   0  0  0  0  0  3  0  0  0  0  0  0
  162.6560  210.6510  153.7720 C   0  0  0  0  0  3  0  0  0  0  0  0
  162.5630  210.3380  152.6060 C   0  0  0  0  0  0  0  0  0  0  0  0
  1  5  1  0  0  0  0
  2 13  2  0  0  0  0
  2 11  1  0  0  0  0
  3 16  1  0  0  0  0
  4  7  2  0  0  0  0
  5  9  2  0  0  0  0
  6  1  1  0  0  0  0
  7  9  1  0  0  0  0
  7 11  1  0  0  0  0
  8  1  2  0  0  0  0
  8  4  1  0  0  0  0
 10  3  1  0  0  0  0
 11 10  2  0  0  0  0
 12  2  1  0  0  0  0
 13 14  1  0  0  0  0
 14  3  2  0  0  0  0
 15 12  2  0  0  0  0
 15  4  1  0  0  0  0
 16 18  1  0  0  0  0
 16 17  1  1  0  0  0
 18 22  1  0  0  0  0
 19 20  1  0  0  0  0
 19 23  1  0  0  0  0
 20 25  2  0  0  0  0
 22 19  1  0  0  0  0
 23 26  1  0  0  0  0
 24 22  2  0  0  0  0
 25 27  1  0  0  0  0
 25 21  1  0  0  0  0
 26 21  1  0  0  0  0
 27 28  1  6  0  0  0
 29 33  1  0  0  0  0
 29 27  1  0  0  0  0
 30 32  2  0  0  0  0
 30 34  1  0  0  0  0
 31 33  2  0  0  0  0
 32 31  1  0  0  0  0
 34 29  2  0  0  0  0
 35 36  1  0  0  0  0
 35 13  1  0  0  0  0
 36 40  1  0  0  0  0
 37 38  1  0  0  0  0
 38 43  1  0  0  0  0
 39 40  2  0  0  0  0
 39 41  1  0  0  0  0
 40 37  1  0  0  0  0
 41 38  2  0  0  0  0
 43 42  3  0  0  0  0
M  END
>  <MODEL>
7

>  <REMARK>
 VINA RESULT:      -6.6      1.935      2.708
  Name = 
  9 active torsions:
  status: ('A' for Active; 'I' for Inactive)
    1  A    between atoms: C_1  and  C_34
    2  A    between atoms: C_1  and  C_35
    3  A    between atoms: C_2  and  C_6
    4  A    between atoms: C_2  and  C_13
    5  A    between atoms: C_6  and  C_12
    6  A    between atoms: C_11  and  C_14
    7  A    between atoms: C_14  and  C_22
    8  A    between atoms: C_19  and  C_37
    9  A    between atoms: C_32  and  C_35
                            x       y       z     vdW  Elec       q    Type
                         _______ _______ _______ _____ _____    ______ ____

>  <TORSDO>
F 9

$$$$
