=
 OpenBabel11062410423D

 32 37  0  0  1  0  0  0  0  0999 V2000
  160.6380  202.3940  151.3430 C   0  0  0  0  0  3  0  0  0  0  0  0
  161.4400  207.3360  152.2030 C   0  0  0  0  0  0  0  0  0  0  0  0
  160.2810  207.5600  157.0860 C   0  0  0  0  0  2  0  0  0  0  0  0
  160.8660  208.9620  157.0800 C   0  0  0  0  0  2  0  0  0  0  0  0
  161.6610  209.3750  150.8870 C   0  0  0  0  0  0  0  0  0  0  0  0
  161.7200  208.5740  149.7260 C   0  0  0  0  0  0  0  0  0  0  0  0
  161.3770  205.1290  151.0810 C   0  0  0  0  0  0  0  0  0  0  0  0
  160.9580  205.2340  153.4500 N   0  0  0  0  0  0  0  0  0  0  0  0
  161.9330  211.3980  149.3820 C   0  0  0  0  0  0  0  0  0  0  0  0
  160.5370  203.1620  152.3870 N   0  0  0  0  0  0  0  0  0  0  0  0
  160.9170  206.7430  155.9710 C   0  0  0  0  0  2  0  0  0  0  0  0
  161.4400  206.6200  153.5390 C   0  0  2  0  0  3  0  0  0  0  0  0
  160.6540  207.3880  154.6060 C   0  0  2  0  0  3  0  0  0  0  0  0
  161.4560  209.4850  153.4330 C   0  0  0  0  0  0  0  0  0  0  0  0
  161.9770  210.4920  148.2300 C   0  0  0  0  0  3  0  0  0  0  0  0
  160.9960  204.5180  152.3660 C   0  0  0  0  0  0  0  0  0  0  0  0
  161.8720  209.1760  148.3920 C   0  0  0  0  0  3  0  0  0  0  0  0
  161.4610  204.3600  149.9920 C   0  0  0  0  0  3  0  0  0  0  0  0
  161.3150  202.8610  150.0770 C   0  0  2  0  0  3  0  0  0  0  0  0
  160.5600  209.6360  155.7490 C   0  0  0  0  0  2  0  0  0  0  0  0
  161.0300  208.8130  154.6330 N   0  0  0  0  0  0  0  0  0  0  0  0
  161.7770  210.7040  153.4900 O   0  0  0  0  0  0  0  0  0  0  0  0
  161.5050  206.5920  151.0150 C   0  0  0  0  0  0  0  0  0  0  0  0
  161.6400  207.2230  149.8210 N   0  0  0  0  0  0  0  0  0  0  0  0
  162.0830  212.6330  149.1990 O   0  0  0  0  0  0  0  0  0  0  0  0
  161.5300  208.7390  152.1480 C   0  0  0  0  0  0  0  0  0  0  0  0
  161.6860  210.8850  150.7710 C   0  0  0  0  0  2  0  0  0  0  0  0
  160.6400  202.2940  148.8350 C   0  0  0  0  0  2  0  0  0  0  0  0
  161.5710  202.2520  147.7070 N   0  0  0  0  0  2  0  0  0  0  0  0
  161.0850  203.0950  146.6130 C   0  0  1  0  0  3  0  0  0  0  0  0
  162.0490  204.2330  146.3160 C   0  0  0  0  0  1  0  0  0  0  0  0
  160.8500  202.3370  145.4630 O   0  0  0  0  0  1  0  0  0  0  0  0
  1 10  2  0  0  0  0
  4  3  1  0  0  0  0
  5 26  2  0  0  0  0
  6 24  2  0  0  0  0
  6  5  1  0  0  0  0
  7 16  1  0  0  0  0
  8 12  1  0  0  0  0
  9 27  1  0  0  0  0
 11  3  1  0  0  0  0
 12  2  1  6  0  0  0
 12 13  1  0  0  0  0
 13 21  1  0  0  0  0
 13 11  1  1  0  0  0
 14 22  2  0  0  0  0
 14 21  1  0  0  0  0
 15 17  2  0  0  0  0
 15  9  1  0  0  0  0
 16 10  1  0  0  0  0
 16  8  2  0  0  0  0
 17  6  1  0  0  0  0
 18 19  1  0  0  0  0
 18  7  2  0  0  0  0
 19 28  1  6  0  0  0
 19  1  1  0  0  0  0
 20  4  1  0  0  0  0
 21 20  1  0  0  0  0
 23  7  1  0  0  0  0
 23  2  2  0  0  0  0
 24 23  1  0  0  0  0
 25  9  2  0  0  0  0
 26  2  1  0  0  0  0
 26 14  1  0  0  0  0
 27  5  1  0  0  0  0
 29 28  1  0  0  0  0
 30 31  1  6  0  0  0
 30 29  1  0  0  0  0
 32 30  1  0  0  0  0
M  END
>  <MODEL>
1

>  <REMARK>
 VINA RESULT:      -8.5      0.000      0.000
  Name = 
  3 active torsions:
  status: ('A' for Active; 'I' for Inactive)
    1  A    between atoms: C_1  and  N_10
    2  A    between atoms: N_10  and  C_19
    3  A    between atoms: C_19  and  C_24
                            x       y       z     vdW  Elec       q    Type
                         _______ _______ _______ _____ _____    ______ ____

>  <TORSDO>
F 3

$$$$
=
 OpenBabel11062410423D

 32 37  0  0  1  0  0  0  0  0999 V2000
  161.6440  211.8430  147.7740 C   0  0  0  0  0  3  0  0  0  0  0  0
  161.4480  208.0010  151.0920 C   0  0  0  0  0  0  0  0  0  0  0  0
  161.1680  204.1260  147.9060 C   0  0  0  0  0  2  0  0  0  0  0  0
  161.4090  203.2250  149.1050 C   0  0  0  0  0  2  0  0  0  0  0  0
  160.9600  207.6960  153.4590 C   0  0  0  0  0  0  0  0  0  0  0  0
  160.9890  209.1010  153.6070 C   0  0  0  0  0  0  0  0  0  0  0  0
  161.6850  210.2800  150.1500 C   0  0  0  0  0  0  0  0  0  0  0  0
  161.6870  208.4010  148.6440 N   0  0  0  0  0  0  0  0  0  0  0  0
  160.4920  207.5470  155.9480 C   0  0  0  0  0  0  0  0  0  0  0  0
  161.5620  210.5500  147.6630 N   0  0  0  0  0  0  0  0  0  0  0  0
  161.7600  205.5000  148.1810 C   0  0  0  0  0  2  0  0  0  0  0  0
  161.8500  207.4380  149.7430 C   0  0  2  0  0  3  0  0  0  0  0  0
  161.1170  206.1340  149.4190 C   0  0  2  0  0  3  0  0  0  0  0  0
  161.1980  205.6770  151.9090 C   0  0  0  0  0  0  0  0  0  0  0  0
  160.5310  209.0110  156.0080 C   0  0  0  0  0  3  0  0  0  0  0  0
  161.6900  209.6920  148.8010 C   0  0  0  0  0  0  0  0  0  0  0  0
  160.7580  209.7330  154.9150 C   0  0  0  0  0  3  0  0  0  0  0  0
  161.7430  211.6070  150.2840 C   0  0  0  0  0  3  0  0  0  0  0  0
  161.9590  212.5080  149.0930 C   0  0  2  0  0  3  0  0  0  0  0  0
  160.7240  203.8130  150.3310 C   0  0  0  0  0  2  0  0  0  0  0  0
  161.1590  205.1940  150.5540 N   0  0  0  0  0  0  0  0  0  0  0  0
  161.2400  204.8480  152.8590 O   0  0  0  0  0  0  0  0  0  0  0  0
  161.4650  209.3890  151.2990 C   0  0  0  0  0  0  0  0  0  0  0  0
  161.2360  209.8960  152.5370 N   0  0  0  0  0  0  0  0  0  0  0  0
  160.3230  206.8910  157.0070 O   0  0  0  0  0  0  0  0  0  0  0  0
  161.2070  207.1400  152.1780 C   0  0  0  0  0  0  0  0  0  0  0  0
  160.6210  206.8150  154.6430 C   0  0  0  0  0  2  0  0  0  0  0  0
  161.2160  213.8280  149.2490 C   0  0  0  0  0  2  0  0  0  0  0  0
  159.8230  213.6980  148.8230 N   0  0  0  0  0  2  0  0  0  0  0  0
  158.9240  214.2290  149.8480 C   0  0  1  0  0  3  0  0  0  0  0  0
  157.6830  213.3650  150.0040 C   0  0  0  0  0  1  0  0  0  0  0  0
  159.5840  214.3670  151.0730 O   0  0  0  0  0  1  0  0  0  0  0  0
  1 19  1  0  0  0  0
  2 23  2  0  0  0  0
  2 26  1  0  0  0  0
  3 11  1  0  0  0  0
  3  4  1  0  0  0  0
  4 20  1  0  0  0  0
  5  6  1  0  0  0  0
  5 27  1  0  0  0  0
  6 17  1  0  0  0  0
  7 18  2  0  0  0  0
  7 23  1  0  0  0  0
  8 16  2  0  0  0  0
  9 15  1  0  0  0  0
  9 25  2  0  0  0  0
 10  1  2  0  0  0  0
 10 16  1  0  0  0  0
 12  8  1  6  0  0  0
 12  2  1  0  0  0  0
 13 11  1  6  0  0  0
 13 12  1  0  0  0  0
 13 21  1  0  0  0  0
 14 26  1  0  0  0  0
 14 22  2  0  0  0  0
 16  7  1  0  0  0  0
 17 15  2  0  0  0  0
 19 28  1  1  0  0  0
 19 18  1  0  0  0  0
 20 21  1  0  0  0  0
 21 14  1  0  0  0  0
 23 24  1  0  0  0  0
 24  6  2  0  0  0  0
 26  5  2  0  0  0  0
 27  9  1  0  0  0  0
 29 28  1  0  0  0  0
 29 30  1  0  0  0  0
 30 31  1  1  0  0  0
 30 32  1  0  0  0  0
M  END
>  <MODEL>
2

>  <REMARK>
 VINA RESULT:      -8.3      2.647      7.762
  Name = 
  3 active torsions:
  status: ('A' for Active; 'I' for Inactive)
    1  A    between atoms: C_1  and  N_10
    2  A    between atoms: N_10  and  C_19
    3  A    between atoms: C_19  and  C_24
                            x       y       z     vdW  Elec       q    Type
                         _______ _______ _______ _____ _____    ______ ____

>  <TORSDO>
F 3

$$$$
=
 OpenBabel11062410423D

 32 37  0  0  1  0  0  0  0  0999 V2000
  161.1950  203.6550  148.6760 C   0  0  0  0  0  3  0  0  0  0  0  0
  161.4730  208.2480  150.8290 C   0  0  0  0  0  0  0  0  0  0  0  0
  160.3230  207.0460  155.5700 C   0  0  0  0  0  2  0  0  0  0  0  0
  160.7560  208.4530  155.9480 C   0  0  0  0  0  2  0  0  0  0  0  0
  161.4690  210.5740  150.1050 C   0  0  0  0  0  0  0  0  0  0  0  0
  161.6060  210.1200  148.7740 C   0  0  0  0  0  0  0  0  0  0  0  0
  161.6380  206.4230  149.1630 C   0  0  0  0  0  0  0  0  0  0  0  0
  161.2230  205.8510  151.4650 N   0  0  0  0  0  0  0  0  0  0  0  0
  161.5170  212.9410  149.1940 C   0  0  0  0  0  0  0  0  0  0  0  0
  161.0190  204.1040  149.8830 N   0  0  0  0  0  0  0  0  0  0  0  0
  161.0360  206.6250  154.2930 C   0  0  0  0  0  2  0  0  0  0  0  0
  161.5560  207.2070  151.9280 C   0  0  2  0  0  3  0  0  0  0  0  0
  160.6990  207.5780  153.1420 C   0  0  2  0  0  3  0  0  0  0  0  0
  161.2680  209.9820  152.5840 C   0  0  0  0  0  0  0  0  0  0  0  0
  161.6510  212.3820  147.8450 C   0  0  0  0  0  3  0  0  0  0  0  0
  161.3310  205.4570  150.2310 C   0  0  0  0  0  0  0  0  0  0  0  0
  161.6870  211.0670  147.6520 C   0  0  0  0  0  3  0  0  0  0  0  0
  161.7970  205.9830  147.9120 C   0  0  0  0  0  3  0  0  0  0  0  0
  161.8120  204.5090  147.5930 C   0  0  2  0  0  3  0  0  0  0  0  0
  160.3730  209.4200  154.8360 C   0  0  0  0  0  2  0  0  0  0  0  0
  160.9220  208.9760  153.5530 N   0  0  0  0  0  0  0  0  0  0  0  0
  161.4580  211.1690  152.9680 O   0  0  0  0  0  0  0  0  0  0  0  0
  161.6100  207.8560  149.4890 C   0  0  0  0  0  0  0  0  0  0  0  0
  161.6710  208.7920  148.5070 N   0  0  0  0  0  0  0  0  0  0  0  0
  161.5350  214.1890  149.3480 O   0  0  0  0  0  0  0  0  0  0  0  0
  161.4140  209.6160  151.1500 C   0  0  0  0  0  0  0  0  0  0  0  0
  161.3330  212.0550  150.3920 C   0  0  0  0  0  2  0  0  0  0  0  0
  161.1940  204.2250  146.2310 C   0  0  0  0  0  2  0  0  0  0  0  0
  161.5950  202.9060  145.7400 N   0  0  0  0  0  2  0  0  0  0  0  0
  160.5640  201.9130  146.0460 C   0  0  1  0  0  3  0  0  0  0  0  0
  159.8000  201.5000  144.7980 C   0  0  0  0  0  1  0  0  0  0  0  0
  161.1160  200.7950  146.6770 O   0  0  0  0  0  1  0  0  0  0  0  0
  1 10  2  0  0  0  0
  2 26  1  0  0  0  0
  3  4  1  0  0  0  0
  5 27  1  0  0  0  0
  5 26  2  0  0  0  0
  6  5  1  0  0  0  0
  7 23  1  0  0  0  0
  7 16  1  0  0  0  0
  8 12  1  0  0  0  0
  9 25  2  0  0  0  0
  9 27  1  0  0  0  0
 10 16  1  0  0  0  0
 11  3  1  0  0  0  0
 12  2  1  6  0  0  0
 12 13  1  0  0  0  0
 13 21  1  0  0  0  0
 13 11  1  1  0  0  0
 14 22  2  0  0  0  0
 14 21  1  0  0  0  0
 15  9  1  0  0  0  0
 16  8  2  0  0  0  0
 17 15  2  0  0  0  0
 17  6  1  0  0  0  0
 18  7  2  0  0  0  0
 19 28  1  6  0  0  0
 19 18  1  0  0  0  0
 19  1  1  0  0  0  0
 20  4  1  0  0  0  0
 21 20  1  0  0  0  0
 23  2  2  0  0  0  0
 24  6  2  0  0  0  0
 24 23  1  0  0  0  0
 26 14  1  0  0  0  0
 29 30  1  0  0  0  0
 29 28  1  0  0  0  0
 30 31  1  6  0  0  0
 30 32  1  0  0  0  0
M  END
>  <MODEL>
3

>  <REMARK>
 VINA RESULT:      -7.6      1.488      2.036
  Name = 
  3 active torsions:
  status: ('A' for Active; 'I' for Inactive)
    1  A    between atoms: C_1  and  N_10
    2  A    between atoms: N_10  and  C_19
    3  A    between atoms: C_19  and  C_24
                            x       y       z     vdW  Elec       q    Type
                         _______ _______ _______ _____ _____    ______ ____

>  <TORSDO>
F 3

$$$$
=
 OpenBabel11062410423D

 32 37  0  0  1  0  0  0  0  0999 V2000
  161.8350  211.0810  147.7390 C   0  0  0  0  0  3  0  0  0  0  0  0
  161.3600  207.4890  151.3000 C   0  0  0  0  0  0  0  0  0  0  0  0
  160.8610  203.4370  148.3720 C   0  0  0  0  0  2  0  0  0  0  0  0
  161.0320  202.6030  149.6310 C   0  0  0  0  0  2  0  0  0  0  0  0
  160.8300  207.3740  153.6750 C   0  0  0  0  0  0  0  0  0  0  0  0
  160.9480  208.7810  153.7300 C   0  0  0  0  0  0  0  0  0  0  0  0
  161.7520  209.6800  150.2140 C   0  0  0  0  0  0  0  0  0  0  0  0
  161.6480  207.7100  148.8340 N   0  0  0  0  0  0  0  0  0  0  0  0
  160.3290  207.4210  156.1610 C   0  0  0  0  0  0  0  0  0  0  0  0
  161.6710  209.7920  147.7120 N   0  0  0  0  0  0  0  0  0  0  0  0
  161.5380  204.7850  148.5640 C   0  0  0  0  0  2  0  0  0  0  0  0
  161.7380  206.8130  149.9970 C   0  0  2  0  0  3  0  0  0  0  0  0
  160.9250  205.5390  149.7490 C   0  0  2  0  0  3  0  0  0  0  0  0
  160.9530  205.2450  152.2640 C   0  0  0  0  0  0  0  0  0  0  0  0
  160.4620  208.8800  156.1250 C   0  0  0  0  0  3  0  0  0  0  0  0
  161.7330  209.0040  148.9060 C   0  0  0  0  0  0  0  0  0  0  0  0
  160.7460  209.5120  154.9900 C   0  0  0  0  0  3  0  0  0  0  0  0
  161.8940  211.0070  150.2600 C   0  0  0  0  0  3  0  0  0  0  0  0
  162.1790  211.8110  149.0160 C   0  0  2  0  0  3  0  0  0  0  0  0
  160.3740  203.3140  150.8060 C   0  0  0  0  0  2  0  0  0  0  0  0
  160.8960  204.6760  150.9430 N   0  0  0  0  0  0  0  0  0  0  0  0
  160.9310  204.4800  153.2670 O   0  0  0  0  0  0  0  0  0  0  0  0
  161.4630  208.8830  151.4150 C   0  0  0  0  0  0  0  0  0  0  0  0
  161.2560  209.4860  152.6140 N   0  0  0  0  0  0  0  0  0  0  0  0
  160.1080  206.8490  157.2590 O   0  0  0  0  0  0  0  0  0  0  0  0
  161.0530  206.7200  152.4360 C   0  0  0  0  0  0  0  0  0  0  0  0
  160.4240  206.5970  154.9100 C   0  0  0  0  0  2  0  0  0  0  0  0
  161.5220  213.1830  149.0740 C   0  0  0  0  0  2  0  0  0  0  0  0
  160.1510  213.1290  148.5650 N   0  0  0  0  0  2  0  0  0  0  0  0
  160.1250  213.4470  147.1370 C   0  0  1  0  0  3  0  0  0  0  0  0
  158.7300  213.8440  146.6800 C   0  0  0  0  0  1  0  0  0  0  0  0
  161.0460  214.4520  146.8300 O   0  0  0  0  0  1  0  0  0  0  0  0
  1 19  1  0  0  0  0
  2 23  2  0  0  0  0
  2 26  1  0  0  0  0
  3 11  1  0  0  0  0
  3  4  1  0  0  0  0
  4 20  1  0  0  0  0
  5  6  1  0  0  0  0
  5 27  1  0  0  0  0
  6 17  1  0  0  0  0
  7 18  2  0  0  0  0
  7 23  1  0  0  0  0
  8 16  2  0  0  0  0
  9 25  2  0  0  0  0
 10  1  2  0  0  0  0
 10 16  1  0  0  0  0
 12  8  1  6  0  0  0
 12  2  1  0  0  0  0
 13 11  1  6  0  0  0
 13 12  1  0  0  0  0
 13 21  1  0  0  0  0
 14 26  1  0  0  0  0
 14 22  2  0  0  0  0
 15  9  1  0  0  0  0
 16  7  1  0  0  0  0
 17 15  2  0  0  0  0
 19 28  1  1  0  0  0
 19 18  1  0  0  0  0
 20 21  1  0  0  0  0
 21 14  1  0  0  0  0
 23 24  1  0  0  0  0
 24  6  2  0  0  0  0
 26  5  2  0  0  0  0
 27  9  1  0  0  0  0
 29 28  1  0  0  0  0
 30 31  1  1  0  0  0
 30 29  1  0  0  0  0
 32 30  1  0  0  0  0
M  END
>  <MODEL>
4

>  <REMARK>
 VINA RESULT:      -7.3      2.490      7.453
  Name = 
  3 active torsions:
  status: ('A' for Active; 'I' for Inactive)
    1  A    between atoms: C_1  and  N_10
    2  A    between atoms: N_10  and  C_19
    3  A    between atoms: C_19  and  C_24
                            x       y       z     vdW  Elec       q    Type
                         _______ _______ _______ _____ _____    ______ ____

>  <TORSDO>
F 3

$$$$
=
 OpenBabel11062410423D

 32 37  0  0  1  0  0  0  0  0999 V2000
  162.3030  212.7770  148.9210 C   0  0  0  0  0  3  0  0  0  0  0  0
  161.3260  207.8960  149.9400 C   0  0  0  0  0  0  0  0  0  0  0  0
  161.2530  208.0630  154.9610 C   0  0  0  0  0  2  0  0  0  0  0  0
  160.6900  206.6520  154.9210 C   0  0  0  0  0  2  0  0  0  0  0  0
  161.4390  205.7610  148.7720 C   0  0  0  0  0  0  0  0  0  0  0  0
  161.6650  206.4720  147.5730 C   0  0  0  0  0  0  0  0  0  0  0  0
  161.6580  210.0150  148.7000 C   0  0  0  0  0  0  0  0  0  0  0  0
  161.4830  210.0960  151.1000 N   0  0  0  0  0  0  0  0  0  0  0  0
  161.5490  203.6260  147.4080 C   0  0  0  0  0  0  0  0  0  0  0  0
  162.1460  212.0910  150.0150 N   0  0  0  0  0  0  0  0  0  0  0  0
  160.9080  208.7800  153.6640 C   0  0  0  0  0  2  0  0  0  0  0  0
  160.9970  208.7100  151.1760 C   0  0  2  0  0  3  0  0  0  0  0  0
  161.4990  208.0420  152.4590 C   0  0  2  0  0  3  0  0  0  0  0  0
  161.0140  205.8460  151.2920 C   0  0  0  0  0  0  0  0  0  0  0  0
  161.7870  204.4430  146.2130 C   0  0  0  0  0  3  0  0  0  0  0  0
  161.7100  210.7280  149.9870 C   0  0  0  0  0  0  0  0  0  0  0  0
  161.8460  205.7690  146.2940 C   0  0  0  0  0  3  0  0  0  0  0  0
  161.8410  210.6990  147.5670 C   0  0  0  0  0  3  0  0  0  0  0  0
  161.9580  212.2020  147.5680 C   0  0  2  0  0  3  0  0  0  0  0  0
  161.3150  205.8870  153.7610 C   0  0  0  0  0  2  0  0  0  0  0  0
  161.1310  206.6150  152.5040 N   0  0  0  0  0  0  0  0  0  0  0  0
  160.6920  204.6280  151.3630 O   0  0  0  0  0  0  0  0  0  0  0  0
  161.5520  208.5490  148.7190 C   0  0  0  0  0  0  0  0  0  0  0  0
  161.7160  207.8270  147.5800 N   0  0  0  0  0  0  0  0  0  0  0  0
  161.4510  202.3780  147.2910 O   0  0  0  0  0  0  0  0  0  0  0  0
  161.2550  206.4920  149.9740 C   0  0  0  0  0  0  0  0  0  0  0  0
  161.4470  204.2470  148.7710 C   0  0  0  0  0  2  0  0  0  0  0  0
  162.9160  212.6890  146.4890 C   0  0  0  0  0  2  0  0  0  0  0  0
  162.1850  213.2930  145.3750 N   0  0  0  0  0  2  0  0  0  0  0  0
  162.8740  213.0310  144.1110 C   0  0  1  0  0  3  0  0  0  0  0  0
  161.9120  212.5340  143.0430 C   0  0  0  0  0  1  0  0  0  0  0  0
  163.5570  214.1670  143.6660 O   0  0  0  0  0  1  0  0  0  0  0  0
  1 10  2  0  0  0  0
  2 26  1  0  0  0  0
  4  3  1  0  0  0  0
  5 26  2  0  0  0  0
  6 24  2  0  0  0  0
  6  5  1  0  0  0  0
  7 23  1  0  0  0  0
  7 16  1  0  0  0  0
  8 12  1  0  0  0  0
  9 27  1  0  0  0  0
 11  3  1  0  0  0  0
 12  2  1  6  0  0  0
 12 13  1  0  0  0  0
 13 21  1  0  0  0  0
 13 11  1  1  0  0  0
 14 22  2  0  0  0  0
 14 21  1  0  0  0  0
 15 17  2  0  0  0  0
 15  9  1  0  0  0  0
 16 10  1  0  0  0  0
 16  8  2  0  0  0  0
 17  6  1  0  0  0  0
 18 19  1  0  0  0  0
 18  7  2  0  0  0  0
 19 28  1  6  0  0  0
 19  1  1  0  0  0  0
 20  4  1  0  0  0  0
 21 20  1  0  0  0  0
 23  2  2  0  0  0  0
 24 23  1  0  0  0  0
 25  9  2  0  0  0  0
 26 14  1  0  0  0  0
 27  5  1  0  0  0  0
 29 28  1  0  0  0  0
 30 31  1  6  0  0  0
 30 29  1  0  0  0  0
 32 30  1  0  0  0  0
M  END
>  <MODEL>
5

>  <REMARK>
 VINA RESULT:      -6.6      2.917      6.841
  Name = 
  3 active torsions:
  status: ('A' for Active; 'I' for Inactive)
    1  A    between atoms: C_1  and  N_10
    2  A    between atoms: N_10  and  C_19
    3  A    between atoms: C_19  and  C_24
                            x       y       z     vdW  Elec       q    Type
                         _______ _______ _______ _____ _____    ______ ____

>  <TORSDO>
F 3

$$$$
=
 OpenBabel11062410423D

 32 37  0  0  1  0  0  0  0  0999 V2000
  161.8630  212.2610  147.5720 C   0  0  0  0  0  3  0  0  0  0  0  0
  160.6790  210.6900  152.2560 C   0  0  0  0  0  0  0  0  0  0  0  0
  162.1820  205.9050  151.9640 C   0  0  0  0  0  2  0  0  0  0  0  0
  161.9840  205.8330  153.4690 C   0  0  0  0  0  2  0  0  0  0  0  0
  159.2670  211.4350  154.0970 C   0  0  0  0  0  0  0  0  0  0  0  0
  159.0840  212.6570  153.4120 C   0  0  0  0  0  0  0  0  0  0  0  0
  161.0540  212.1590  150.2980 C   0  0  0  0  0  0  0  0  0  0  0  0
  161.8910  209.9030  150.2260 N   0  0  0  0  0  0  0  0  0  0  0  0
  157.8050  212.3710  155.9460 C   0  0  0  0  0  0  0  0  0  0  0  0
  161.9710  211.1310  148.2050 N   0  0  0  0  0  0  0  0  0  0  0  0
  162.4550  207.3460  151.5590 C   0  0  0  0  0  2  0  0  0  0  0  0
  161.6710  209.7070  151.6670 C   0  0  2  0  0  3  0  0  0  0  0  0
  161.2850  208.2540  151.9520 C   0  0  2  0  0  3  0  0  0  0  0  0
  160.3490  209.1190  154.1410 C   0  0  0  0  0  0  0  0  0  0  0  0
  157.6630  213.6020  155.1630 C   0  0  0  0  0  3  0  0  0  0  0  0
  161.6930  211.0280  149.6060 C   0  0  0  0  0  0  0  0  0  0  0  0
  158.2560  213.7310  153.9800 C   0  0  0  0  0  3  0  0  0  0  0  0
  160.9120  213.3220  149.6550 C   0  0  0  0  0  3  0  0  0  0  0  0
  161.5170  213.5440  148.2910 C   0  0  2  0  0  3  0  0  0  0  0  0
  160.7860  206.6850  153.8660 C   0  0  0  0  0  2  0  0  0  0  0  0
  160.9390  208.0550  153.3720 N   0  0  0  0  0  0  0  0  0  0  0  0
  160.0700  208.9200  155.3550 O   0  0  0  0  0  0  0  0  0  0  0  0
  160.4610  211.9230  151.6220 C   0  0  0  0  0  0  0  0  0  0  0  0
  159.6770  212.8630  152.2090 N   0  0  0  0  0  0  0  0  0  0  0  0
  157.2720  212.2990  157.0830 O   0  0  0  0  0  0  0  0  0  0  0  0
  160.0900  210.4410  153.5090 C   0  0  0  0  0  0  0  0  0  0  0  0
  158.5520  211.1850  155.4080 C   0  0  0  0  0  2  0  0  0  0  0  0
  160.6460  214.4520  147.4340 C   0  0  0  0  0  2  0  0  0  0  0  0
  159.2280  214.2540  147.7380 N   0  0  0  0  0  2  0  0  0  0  0  0
  158.5790  213.4950  146.6680 C   0  0  1  0  0  3  0  0  0  0  0  0
  157.4830  212.5910  147.2110 C   0  0  0  0  0  1  0  0  0  0  0  0
  158.0690  214.3480  145.6850 O   0  0  0  0  0  1  0  0  0  0  0  0
  1 10  2  0  0  0  0
  1 19  1  0  0  0  0
  2 26  1  0  0  0  0
  3  4  1  0  0  0  0
  4 20  1  0  0  0  0
  5 27  1  0  0  0  0
  6 17  1  0  0  0  0
  6  5  1  0  0  0  0
  7 23  1  0  0  0  0
  9 25  2  0  0  0  0
 10 16  1  0  0  0  0
 11  3  1  0  0  0  0
 12  8  1  6  0  0  0
 12 13  1  0  0  0  0
 12  2  1  0  0  0  0
 13 11  1  1  0  0  0
 13 21  1  0  0  0  0
 14 22  2  0  0  0  0
 15  9  1  0  0  0  0
 16  8  2  0  0  0  0
 16  7  1  0  0  0  0
 17 15  2  0  0  0  0
 18  7  2  0  0  0  0
 19 28  1  6  0  0  0
 19 18  1  0  0  0  0
 21 20  1  0  0  0  0
 21 14  1  0  0  0  0
 23 24  1  0  0  0  0
 23  2  2  0  0  0  0
 24  6  2  0  0  0  0
 26  5  2  0  0  0  0
 26 14  1  0  0  0  0
 27  9  1  0  0  0  0
 28 29  1  0  0  0  0
 30 31  1  1  0  0  0
 30 29  1  0  0  0  0
 32 30  1  0  0  0  0
M  END
>  <MODEL>
6

>  <REMARK>
 VINA RESULT:      -6.4      3.863      7.454
  Name = 
  3 active torsions:
  status: ('A' for Active; 'I' for Inactive)
    1  A    between atoms: C_1  and  N_10
    2  A    between atoms: N_10  and  C_19
    3  A    between atoms: C_19  and  C_24
                            x       y       z     vdW  Elec       q    Type
                         _______ _______ _______ _____ _____    ______ ____

>  <TORSDO>
F 3

$$$$
=
 OpenBabel11062410423D

 32 37  0  0  1  0  0  0  0  0999 V2000
  162.4340  212.0240  149.5800 C   0  0  0  0  0  3  0  0  0  0  0  0
  161.3280  207.0680  149.4340 C   0  0  0  0  0  0  0  0  0  0  0  0
  161.3620  206.0340  154.3500 C   0  0  0  0  0  2  0  0  0  0  0  0
  160.7550  204.6880  153.9910 C   0  0  0  0  0  2  0  0  0  0  0  0
  161.3520  205.2710  147.7900 C   0  0  0  0  0  0  0  0  0  0  0  0
  161.5760  206.2410  146.7880 C   0  0  0  0  0  0  0  0  0  0  0  0
  161.7000  209.4120  148.7250 C   0  0  0  0  0  0  0  0  0  0  0  0
  161.5760  208.9230  151.0790 N   0  0  0  0  0  0  0  0  0  0  0  0
  161.3690  203.5210  145.9540 C   0  0  0  0  0  0  0  0  0  0  0  0
  162.2780  211.1020  150.4830 N   0  0  0  0  0  0  0  0  0  0  0  0
  161.0130  207.0480  153.2710 C   0  0  0  0  0  2  0  0  0  0  0  0
  161.0500  207.5710  150.8370 C   0  0  2  0  0  3  0  0  0  0  0  0
  161.5560  206.6040  151.9100 C   0  0  2  0  0  3  0  0  0  0  0  0
  160.9800  204.7630  150.2680 C   0  0  0  0  0  0  0  0  0  0  0  0
  161.6070  204.5930  144.9820 C   0  0  0  0  0  3  0  0  0  0  0  0
  161.8000  209.7960  150.1430 C   0  0  0  0  0  0  0  0  0  0  0  0
  161.7080  205.8590  145.3740 C   0  0  0  0  0  3  0  0  0  0  0  0
  161.8810  210.3420  147.7830 C   0  0  0  0  0  3  0  0  0  0  0  0
  162.0440  211.7980  148.1380 C   0  0  2  0  0  3  0  0  0  0  0  0
  161.3330  204.2070  152.6670 C   0  0  0  0  0  2  0  0  0  0  0  0
  161.1450  205.2170  151.6240 N   0  0  0  0  0  0  0  0  0  0  0  0
  160.6220  203.5720  150.0550 O   0  0  0  0  0  0  0  0  0  0  0  0
  161.5500  207.9870  148.3970 C   0  0  0  0  0  0  0  0  0  0  0  0
  161.6680  207.5540  147.1160 N   0  0  0  0  0  0  0  0  0  0  0  0
  161.2300  202.3390  145.5460 O   0  0  0  0  0  0  0  0  0  0  0  0
  161.2150  205.6990  149.1350 C   0  0  0  0  0  0  0  0  0  0  0  0
  161.3130  203.8010  147.4270 C   0  0  0  0  0  2  0  0  0  0  0  0
  162.9950  212.5040  147.1810 C   0  0  0  0  0  2  0  0  0  0  0  0
  162.6580  213.9230  147.0610 N   0  0  0  0  0  2  0  0  0  0  0  0
  162.1170  214.2080  145.7310 C   0  0  1  0  0  3  0  0  0  0  0  0
  162.7650  213.3370  144.6670 C   0  0  0  0  0  1  0  0  0  0  0  0
  160.7280  214.0560  145.7110 O   0  0  0  0  0  1  0  0  0  0  0  0
  1 10  2  0  0  0  0
  4  3  1  0  0  0  0
  5 26  2  0  0  0  0
  6 24  2  0  0  0  0
  6  5  1  0  0  0  0
  7 16  1  0  0  0  0
  9 27  1  0  0  0  0
 11  3  1  0  0  0  0
 12  2  1  6  0  0  0
 12  8  1  0  0  0  0
 12 13  1  0  0  0  0
 13 11  1  1  0  0  0
 14 21  1  0  0  0  0
 15 17  2  0  0  0  0
 15  9  1  0  0  0  0
 16 10  1  0  0  0  0
 16  8  2  0  0  0  0
 17  6  1  0  0  0  0
 18 19  1  0  0  0  0
 18  7  2  0  0  0  0
 19 28  1  6  0  0  0
 19  1  1  0  0  0  0
 20  4  1  0  0  0  0
 21 13  1  0  0  0  0
 21 20  1  0  0  0  0
 22 14  2  0  0  0  0
 23  7  1  0  0  0  0
 23  2  2  0  0  0  0
 24 23  1  0  0  0  0
 25  9  2  0  0  0  0
 26  2  1  0  0  0  0
 26 14  1  0  0  0  0
 27  5  1  0  0  0  0
 29 28  1  0  0  0  0
 30 31  1  6  0  0  0
 30 29  1  0  0  0  0
 32 30  1  0  0  0  0
M  END
>  <MODEL>
7

>  <REMARK>
 VINA RESULT:      -6.1      2.562      7.062
  Name = 
  3 active torsions:
  status: ('A' for Active; 'I' for Inactive)
    1  A    between atoms: C_1  and  N_10
    2  A    between atoms: N_10  and  C_19
    3  A    between atoms: C_19  and  C_24
                            x       y       z     vdW  Elec       q    Type
                         _______ _______ _______ _____ _____    ______ ____

>  <TORSDO>
F 3

$$$$
=
 OpenBabel11062410423D

 32 37  0  0  1  0  0  0  0  0999 V2000
  161.9290  204.5080  146.8800 C   0  0  0  0  0  3  0  0  0  0  0  0
  161.2400  208.1810  150.3220 C   0  0  0  0  0  0  0  0  0  0  0  0
  162.3440  212.2030  147.5210 C   0  0  0  0  0  2  0  0  0  0  0  0
  161.7940  213.0480  148.6580 C   0  0  0  0  0  2  0  0  0  0  0  0
  161.0870  208.3640  152.7470 C   0  0  0  0  0  0  0  0  0  0  0  0
  161.0220  206.9540  152.8110 C   0  0  0  0  0  0  0  0  0  0  0  0
  161.2620  205.9540  149.2380 C   0  0  0  0  0  0  0  0  0  0  0  0
  161.6540  207.9030  147.8800 N   0  0  0  0  0  0  0  0  0  0  0  0
  160.8830  208.3860  155.2750 C   0  0  0  0  0  0  0  0  0  0  0  0
  162.0360  205.8040  146.8600 N   0  0  0  0  0  0  0  0  0  0  0  0
  161.7010  210.8240  147.5610 C   0  0  0  0  0  2  0  0  0  0  0  0
  161.2060  208.8140  148.9450 C   0  0  2  0  0  3  0  0  0  0  0  0
  161.9970  210.1240  148.8910 C   0  0  2  0  0  3  0  0  0  0  0  0
  161.2620  210.4590  151.2920 C   0  0  0  0  0  0  0  0  0  0  0  0
  160.8310  206.9210  155.2480 C   0  0  0  0  0  3  0  0  0  0  0  0
  161.6110  206.6070  147.9660 C   0  0  0  0  0  0  0  0  0  0  0  0
  160.9010  206.2560  154.1000 C   0  0  0  0  0  3  0  0  0  0  0  0
  161.1720  204.6220  149.2850 C   0  0  0  0  0  3  0  0  0  0  0  0
  161.2800  203.7840  148.0350 C   0  0  2  0  0  3  0  0  0  0  0  0
  162.1330  212.3920  149.9900 C   0  0  0  0  0  2  0  0  0  0  0  0
  161.6560  211.0080  150.0200 N   0  0  0  0  0  0  0  0  0  0  0  0
  160.9710  211.2410  152.2380 O   0  0  0  0  0  0  0  0  0  0  0  0
  161.1710  206.7850  150.4470 C   0  0  0  0  0  0  0  0  0  0  0  0
  161.0670  206.2150  151.6750 N   0  0  0  0  0  0  0  0  0  0  0  0
  160.7660  208.9870  156.3730 O   0  0  0  0  0  0  0  0  0  0  0  0
  161.1860  208.9850  151.4750 C   0  0  0  0  0  0  0  0  0  0  0  0
  161.1000  209.1820  154.0210 C   0  0  0  0  0  2  0  0  0  0  0  0
  161.9560  202.4490  148.3140 C   0  0  0  0  0  2  0  0  0  0  0  0
  161.0410  201.3360  148.0590 N   0  0  0  0  0  2  0  0  0  0  0  0
  160.4000  200.9060  149.3020 C   0  0  1  0  0  3  0  0  0  0  0  0
  161.2060  201.3290  150.5200 C   0  0  0  0  0  1  0  0  0  0  0  0
  159.0920  201.3910  149.3860 O   0  0  0  0  0  1  0  0  0  0  0  0
  1 19  1  0  0  0  0
  2 23  2  0  0  0  0
  2 26  1  0  0  0  0
  3 11  1  0  0  0  0
  3  4  1  0  0  0  0
  4 20  1  0  0  0  0
  5  6  1  0  0  0  0
  5 27  1  0  0  0  0
  6 17  1  0  0  0  0
  7 18  2  0  0  0  0
  7 23  1  0  0  0  0
  8 16  2  0  0  0  0
  9 25  2  0  0  0  0
 10  1  2  0  0  0  0
 10 16  1  0  0  0  0
 12  8  1  6  0  0  0
 12  2  1  0  0  0  0
 13 11  1  6  0  0  0
 13 12  1  0  0  0  0
 13 21  1  0  0  0  0
 14 26  1  0  0  0  0
 14 22  2  0  0  0  0
 15  9  1  0  0  0  0
 16  7  1  0  0  0  0
 17 15  2  0  0  0  0
 19 28  1  1  0  0  0
 19 18  1  0  0  0  0
 20 21  1  0  0  0  0
 21 14  1  0  0  0  0
 23 24  1  0  0  0  0
 24  6  2  0  0  0  0
 26  5  2  0  0  0  0
 27  9  1  0  0  0  0
 29 28  1  0  0  0  0
 29 30  1  0  0  0  0
 30 32  1  0  0  0  0
 30 31  1  1  0  0  0
M  END
>  <MODEL>
8

>  <REMARK>
 VINA RESULT:      -6.0      1.836      5.297
  Name = 
  3 active torsions:
  status: ('A' for Active; 'I' for Inactive)
    1  A    between atoms: C_1  and  N_10
    2  A    between atoms: N_10  and  C_19
    3  A    between atoms: C_19  and  C_24
                            x       y       z     vdW  Elec       q    Type
                         _______ _______ _______ _____ _____    ______ ____

>  <TORSDO>
F 3

$$$$
