=
 OpenBabel11062407473D

 34 38  0  0  1  0  0  0  0  0999 V2000
  161.3320  213.1150  144.4620 C   0  0  0  0  0  0  0  0  0  0  0  0
  158.9310  212.7080  144.8730 C   0  0  0  0  0  0  0  0  0  0  0  0
  160.4810  213.0390  146.7540 C   0  0  0  0  0  0  0  0  0  0  0  0
  160.3030  214.4530  149.4140 C   0  0  0  0  0  2  0  0  0  0  0  0
  163.6710  213.4670  144.1360 F   0  0  0  0  0  0  0  0  0  0  0  0
  158.6570  212.5740  143.5160 O   0  0  0  0  0  1  0  0  0  0  0  0
  158.0870  212.7340  147.1280 C   0  0  0  0  0  3  0  0  0  0  0  0
  160.2410  212.9560  145.3460 C   0  0  0  0  0  0  0  0  0  0  0  0
  159.4820  213.3160  149.0370 N   0  0  0  0  0  0  0  0  0  0  0  0
  161.1730  213.0900  143.2110 O   0  0  0  0  0  0  0  0  0  0  0  0
  161.7840  213.1410  147.2100 N   0  0  0  0  0  0  0  0  0  0  0  0
  162.6120  213.3090  144.9690 C   0  0  0  0  0  0  0  0  0  0  0  0
  157.8760  212.5830  145.7670 C   0  0  0  0  0  3  0  0  0  0  0  0
  161.7620  214.0540  149.5580 C   0  0  0  0  0  2  0  0  0  0  0  0
  162.2040  212.9400  148.6040 C   0  0  1  0  0  3  0  0  0  0  0  0
  159.3640  212.9830  147.6420 C   0  0  0  0  0  0  0  0  0  0  0  0
  162.8180  213.2880  146.3400 C   0  0  0  0  0  3  0  0  0  0  0  0
  161.8690  209.1320  148.7600 C   0  0  0  0  0  0  0  0  0  0  0  0
  161.7010  208.9280  150.1310 C   0  0  0  0  0  3  0  0  0  0  0  0
  161.9890  211.5340  149.1220 C   0  0  0  0  0  0  0  0  0  0  0  0
  161.6920  210.0210  151.0020 C   0  0  0  0  0  3  0  0  0  0  0  0
  162.0210  210.4270  148.2580 C   0  0  0  0  0  3  0  0  0  0  0  0
  161.8430  211.3160  150.5010 C   0  0  0  0  0  3  0  0  0  0  0  0
  161.8920  208.0720  147.9150 F   0  0  0  0  0  0  0  0  0  0  0  0
  158.5100  212.8300  150.0080 C   0  0  0  0  0  2  0  0  0  0  0  0
  158.4810  213.7480  151.2160 C   0  0  0  0  0  2  0  0  0  0  0  0
  157.9200  213.0200  152.4260 C   0  0  0  0  0  2  0  0  0  0  0  0
  157.5950  212.4780  155.1710 O   0  0  0  0  0  1  0  0  0  0  0  0
  159.0040  212.5190  153.2620 N   0  0  0  0  0  0  0  0  0  0  0  0
  158.8020  212.9640  154.6520 C   0  0  2  0  0  3  0  0  0  0  0  0
  160.8250  211.4340  154.9010 C   0  0  0  0  0  2  0  0  0  0  0  0
  159.9520  210.4020  154.1920 C   0  0  0  0  0  2  0  0  0  0  0  0
  158.9940  211.0540  153.1790 C   0  0  0  0  0  2  0  0  0  0  0  0
  159.9640  212.5210  155.5490 C   0  0  0  0  0  2  0  0  0  0  0  0
  1 12  1  0  0  0  0
  1  8  1  0  0  0  0
  2  8  2  0  0  0  0
  2 13  1  0  0  0  0
  3 11  1  0  0  0  0
  3 16  2  0  0  0  0
  4 14  1  0  0  0  0
  5 12  1  0  0  0  0
  6  2  1  0  0  0  0
  7 16  1  0  0  0  0
  8  3  1  0  0  0  0
  9  4  1  0  0  0  0
  9 25  1  0  0  0  0
 10  1  2  0  0  0  0
 11 15  1  0  0  0  0
 12 17  2  0  0  0  0
 13  7  2  0  0  0  0
 15 20  1  1  0  0  0
 15 14  1  0  0  0  0
 16  9  1  0  0  0  0
 17 11  1  0  0  0  0
 18 19  1  0  0  0  0
 19 21  2  0  0  0  0
 20 23  2  0  0  0  0
 22 18  2  0  0  0  0
 22 20  1  0  0  0  0
 23 21  1  0  0  0  0
 24 18  1  0  0  0  0
 25 26  1  0  0  0  0
 26 27  1  0  0  0  0
 27 29  1  0  0  0  0
 29 30  1  0  0  0  0
 30 28  1  1  0  0  0
 30 34  1  0  0  0  0
 31 34  1  0  0  0  0
 32 31  1  0  0  0  0
 33 29  1  0  0  0  0
 33 32  1  0  0  0  0
M  END
>  <MODEL>
1

>  <REMARK>
 VINA RESULT:      -4.6      0.000      0.000
  Name = 
  5 active torsions:
  status: ('A' for Active; 'I' for Inactive)
    1  A    between atoms: C_3  and  N_13
    2  A    between atoms: C_3  and  C_17
    3  A    between atoms: C_12  and  C_28
    4  A    between atoms: C_17  and  C_29
    5  A    between atoms: N_18  and  C_29
                            x       y       z     vdW  Elec       q    Type
                         _______ _______ _______ _____ _____    ______ ____

>  <TORSDO>
F 5

$$$$
=
 OpenBabel11062407473D

 34 38  0  0  1  0  0  0  0  0999 V2000
  161.7980  210.0910  137.6380 C   0  0  0  0  0  0  0  0  0  0  0  0
  159.5970  208.9810  137.7820 C   0  0  0  0  0  0  0  0  0  0  0  0
  159.8830  211.2930  138.5730 C   0  0  0  0  0  0  0  0  0  0  0  0
  158.1890  213.7880  138.4650 C   0  0  0  0  0  2  0  0  0  0  0  0
  163.9080  211.2060  137.5690 F   0  0  0  0  0  0  0  0  0  0  0  0
  160.0920  207.7920  137.2580 O   0  0  0  0  0  1  0  0  0  0  0  0
  157.6970  210.2060  138.6120 C   0  0  0  0  0  3  0  0  0  0  0  0
  160.4290  210.1080  137.9870 C   0  0  0  0  0  0  0  0  0  0  0  0
  157.8120  212.5740  139.1680 N   0  0  0  0  0  0  0  0  0  0  0  0
  162.3230  209.0880  137.0840 O   0  0  0  0  0  0  0  0  0  0  0  0
  160.7340  212.3350  138.8980 N   0  0  0  0  0  0  0  0  0  0  0  0
  162.5930  211.2020  137.9010 C   0  0  0  0  0  0  0  0  0  0  0  0
  158.2490  209.0380  138.1120 C   0  0  0  0  0  3  0  0  0  0  0  0
  159.3870  214.4530  139.1210 C   0  0  0  0  0  2  0  0  0  0  0  0
  160.3780  213.4730  139.7590 C   0  0  1  0  0  3  0  0  0  0  0  0
  158.4800  211.3450  138.8290 C   0  0  0  0  0  0  0  0  0  0  0  0
  162.0490  212.2960  138.5560 C   0  0  0  0  0  3  0  0  0  0  0  0
  158.8790  213.4730  143.2780 C   0  0  0  0  0  0  0  0  0  0  0  0
  159.4290  212.3040  143.8090 C   0  0  0  0  0  3  0  0  0  0  0  0
  160.0700  213.0960  141.1910 C   0  0  0  0  0  0  0  0  0  0  0  0
  160.2870  211.5210  143.0320 C   0  0  0  0  0  3  0  0  0  0  0  0
  159.1900  213.8620  141.9740 C   0  0  0  0  0  3  0  0  0  0  0  0
  160.5990  211.9110  141.7270 C   0  0  0  0  0  3  0  0  0  0  0  0
  158.0370  214.2260  144.0260 F   0  0  0  0  0  0  0  0  0  0  0  0
  156.5320  212.5640  139.8640 C   0  0  0  0  0  2  0  0  0  0  0  0
  155.5870  213.5650  139.2250 C   0  0  0  0  0  2  0  0  0  0  0  0
  154.7800  212.9040  138.1200 C   0  0  0  0  0  2  0  0  0  0  0  0
  152.2360  211.7460  138.4760 O   0  0  0  0  0  1  0  0  0  0  0  0
  154.5940  211.4870  138.4080 N   0  0  0  0  0  0  0  0  0  0  0  0
  153.3580  211.2980  139.1860 C   0  0  2  0  0  3  0  0  0  0  0  0
  154.0610  208.8850  138.7640 C   0  0  0  0  0  2  0  0  0  0  0  0
  154.0990  209.3050  137.2960 C   0  0  0  0  0  2  0  0  0  0  0  0
  154.5140  210.7760  137.1260 C   0  0  0  0  0  2  0  0  0  0  0  0
  153.1670  209.8270  139.5750 C   0  0  0  0  0  2  0  0  0  0  0  0
  1 12  1  0  0  0  0
  1  8  1  0  0  0  0
  2  8  2  0  0  0  0
  2 13  1  0  0  0  0
  3 16  2  0  0  0  0
  3 11  1  0  0  0  0
  4 14  1  0  0  0  0
  4  9  1  0  0  0  0
  5 12  1  0  0  0  0
  6  2  1  0  0  0  0
  7 16  1  0  0  0  0
  8  3  1  0  0  0  0
  9 25  1  0  0  0  0
 10  1  2  0  0  0  0
 11 15  1  0  0  0  0
 12 17  2  0  0  0  0
 13  7  2  0  0  0  0
 14 15  1  0  0  0  0
 15 20  1  1  0  0  0
 16  9  1  0  0  0  0
 17 11  1  0  0  0  0
 18 19  1  0  0  0  0
 18 24  1  0  0  0  0
 20 23  2  0  0  0  0
 20 22  1  0  0  0  0
 21 19  2  0  0  0  0
 22 18  2  0  0  0  0
 23 21  1  0  0  0  0
 26 25  1  0  0  0  0
 27 29  1  0  0  0  0
 27 26  1  0  0  0  0
 29 30  1  0  0  0  0
 30 28  1  6  0  0  0
 30 34  1  0  0  0  0
 31 34  1  0  0  0  0
 32 31  1  0  0  0  0
 33 32  1  0  0  0  0
 33 29  1  0  0  0  0
M  END
>  <MODEL>
2

>  <REMARK>
 VINA RESULT:      -3.7      7.911     11.158
  Name = 
  5 active torsions:
  status: ('A' for Active; 'I' for Inactive)
    1  A    between atoms: C_3  and  N_13
    2  A    between atoms: C_3  and  C_17
    3  A    between atoms: C_12  and  C_28
    4  A    between atoms: C_17  and  C_29
    5  A    between atoms: N_18  and  C_29
                            x       y       z     vdW  Elec       q    Type
                         _______ _______ _______ _____ _____    ______ ____

>  <TORSDO>
F 5

$$$$
=
 OpenBabel11062407473D

 34 38  0  0  1  0  0  0  0  0999 V2000
  160.7000  207.2340  154.6960 C   0  0  0  0  0  0  0  0  0  0  0  0
  160.9320  208.2380  152.4520 C   0  0  0  0  0  0  0  0  0  0  0  0
  160.2250  209.6110  154.3660 C   0  0  0  0  0  0  0  0  0  0  0  0
  160.7980  212.4340  155.2670 C   0  0  0  0  0  2  0  0  0  0  0  0
  160.4120  206.3160  156.8810 F   0  0  0  0  0  0  0  0  0  0  0  0
  161.2850  207.0230  151.8750 O   0  0  0  0  0  1  0  0  0  0  0  0
  160.5590  210.5990  152.1580 C   0  0  0  0  0  3  0  0  0  0  0  0
  160.6280  208.3480  153.8300 C   0  0  0  0  0  0  0  0  0  0  0  0
  160.1190  212.0930  154.0290 N   0  0  0  0  0  0  0  0  0  0  0  0
  161.0860  206.1060  154.2850 O   0  0  0  0  0  0  0  0  0  0  0  0
  159.7950  209.6770  155.6810 N   0  0  0  0  0  0  0  0  0  0  0  0
  160.3460  207.3730  156.0340 C   0  0  0  0  0  0  0  0  0  0  0  0
  160.8770  209.3580  151.6310 C   0  0  0  0  0  3  0  0  0  0  0  0
  159.9550  212.0620  156.4760 C   0  0  0  0  0  2  0  0  0  0  0  0
  159.0840  210.8180  156.2750 C   0  0  1  0  0  3  0  0  0  0  0  0
  160.2540  210.7560  153.5140 C   0  0  0  0  0  0  0  0  0  0  0  0
  159.8700  208.5910  156.4950 C   0  0  0  0  0  3  0  0  0  0  0  0
  155.5060  210.3270  155.0130 C   0  0  0  0  0  0  0  0  0  0  0  0
  155.1600  211.6320  154.6590 C   0  0  0  0  0  3  0  0  0  0  0  0
  157.7220  211.0830  155.6730 C   0  0  0  0  0  0  0  0  0  0  0  0
  156.0840  212.6680  154.8230 C   0  0  0  0  0  3  0  0  0  0  0  0
  156.7770  210.0550  155.5260 C   0  0  0  0  0  3  0  0  0  0  0  0
  157.3550  212.3960  155.3350 C   0  0  0  0  0  3  0  0  0  0  0  0
  154.6070  209.3230  154.8670 F   0  0  0  0  0  0  0  0  0  0  0  0
  159.6880  213.1880  153.1690 C   0  0  0  0  0  2  0  0  0  0  0  0
  158.8350  212.6500  152.0350 C   0  0  0  0  0  2  0  0  0  0  0  0
  158.3860  213.7810  151.1250 C   0  0  0  0  0  2  0  0  0  0  0  0
  156.4070  214.3990  149.2160 O   0  0  0  0  0  1  0  0  0  0  0  0
  158.4860  213.3760  149.7270 N   0  0  0  0  0  0  0  0  0  0  0  0
  157.1360  213.2040  149.1640 C   0  0  2  0  0  3  0  0  0  0  0  0
  158.5910  212.8690  147.0980 C   0  0  0  0  0  2  0  0  0  0  0  0
  159.1980  214.2160  147.4840 C   0  0  0  0  0  2  0  0  0  0  0  0
  159.2190  214.4250  149.0080 C   0  0  0  0  0  2  0  0  0  0  0  0
  157.2000  212.7030  147.7160 C   0  0  0  0  0  2  0  0  0  0  0  0
  1 12  1  0  0  0  0
  2  8  1  0  0  0  0
  3 11  1  0  0  0  0
  4 14  1  0  0  0  0
  6  2  1  0  0  0  0
  7 16  2  0  0  0  0
  8  3  2  0  0  0  0
  8  1  1  0  0  0  0
  9  4  1  0  0  0  0
 10  1  2  0  0  0  0
 11 15  1  0  0  0  0
 11 17  1  0  0  0  0
 12 17  2  0  0  0  0
 12  5  1  0  0  0  0
 13  7  1  0  0  0  0
 13  2  2  0  0  0  0
 15 20  1  6  0  0  0
 15 14  1  0  0  0  0
 16  9  1  0  0  0  0
 16  3  1  0  0  0  0
 18 22  1  0  0  0  0
 19 21  1  0  0  0  0
 19 18  2  0  0  0  0
 21 23  2  0  0  0  0
 22 20  2  0  0  0  0
 23 20  1  0  0  0  0
 24 18  1  0  0  0  0
 25  9  1  0  0  0  0
 26 25  1  0  0  0  0
 27 26  1  0  0  0  0
 29 27  1  0  0  0  0
 30 28  1  6  0  0  0
 30 29  1  0  0  0  0
 31 32  1  0  0  0  0
 31 34  1  0  0  0  0
 32 33  1  0  0  0  0
 33 29  1  0  0  0  0
 34 30  1  0  0  0  0
M  END
>  <MODEL>
3

>  <REMARK>
 VINA RESULT:      -3.6      4.216      8.434
  Name = 
  5 active torsions:
  status: ('A' for Active; 'I' for Inactive)
    1  A    between atoms: C_3  and  N_13
    2  A    between atoms: C_3  and  C_17
    3  A    between atoms: C_12  and  C_28
    4  A    between atoms: C_17  and  C_29
    5  A    between atoms: N_18  and  C_29
                            x       y       z     vdW  Elec       q    Type
                         _______ _______ _______ _____ _____    ______ ____

>  <TORSDO>
F 5

$$$$
=
 OpenBabel11062407473D

 34 38  0  0  1  0  0  0  0  0999 V2000
  160.7210  213.1020  148.9840 C   0  0  0  0  0  0  0  0  0  0  0  0
  158.7830  212.9710  150.5080 C   0  0  0  0  0  0  0  0  0  0  0  0
  160.7540  211.5440  150.8690 C   0  0  0  0  0  0  0  0  0  0  0  0
  162.2510  210.5880  153.3090 C   0  0  0  0  0  2  0  0  0  0  0  0
  162.6080  213.1470  147.5210 F   0  0  0  0  0  0  0  0  0  0  0  0
  158.0670  213.9150  149.7810 O   0  0  0  0  0  1  0  0  0  0  0  0
  158.8670  211.5060  152.4180 C   0  0  0  0  0  3  0  0  0  0  0  0
  160.0770  212.5540  150.1150 C   0  0  0  0  0  0  0  0  0  0  0  0
  160.8680  210.2550  153.0170 N   0  0  0  0  0  0  0  0  0  0  0  0
  160.1870  214.0210  148.3050 O   0  0  0  0  0  0  0  0  0  0  0  0
  161.9560  211.0450  150.3970 N   0  0  0  0  0  0  0  0  0  0  0  0
  161.9730  212.6300  148.6030 C   0  0  0  0  0  0  0  0  0  0  0  0
  158.1880  212.4310  151.6410 C   0  0  0  0  0  3  0  0  0  0  0  0
  163.1940  209.9530  152.3010 C   0  0  0  0  0  2  0  0  0  0  0  0
  162.6100  209.8240  150.8900 C   0  0  1  0  0  3  0  0  0  0  0  0
  160.1490  211.0670  152.0710 C   0  0  0  0  0  0  0  0  0  0  0  0
  162.5550  211.5850  149.3040 C   0  0  0  0  0  3  0  0  0  0  0  0
  160.8000  206.9570  149.1180 C   0  0  0  0  0  0  0  0  0  0  0  0
  160.4720  206.1330  150.1970 C   0  0  0  0  0  3  0  0  0  0  0  0
  161.8260  208.5540  150.6390 C   0  0  0  0  0  0  0  0  0  0  0  0
  160.8310  206.5060  151.4940 C   0  0  0  0  0  3  0  0  0  0  0  0
  161.4810  208.1570  149.3360 C   0  0  0  0  0  3  0  0  0  0  0  0
  161.5120  207.7070  151.7130 C   0  0  0  0  0  3  0  0  0  0  0  0
  160.4640  206.5900  147.8570 F   0  0  0  0  0  0  0  0  0  0  0  0
  160.1600  209.4040  153.9660 C   0  0  0  0  0  2  0  0  0  0  0  0
  160.6550  209.6770  155.3740 C   0  0  0  0  0  2  0  0  0  0  0  0
  159.5490  210.2910  156.2170 C   0  0  0  0  0  2  0  0  0  0  0  0
  157.4320  211.8300  157.2610 O   0  0  0  0  0  1  0  0  0  0  0  0
  159.2780  211.6560  155.7790 N   0  0  0  0  0  0  0  0  0  0  0  0
  157.8410  211.9450  155.9260 C   0  0  2  0  0  3  0  0  0  0  0  0
  158.7450  214.2220  155.2240 C   0  0  0  0  0  2  0  0  0  0  0  0
  159.7110  214.0390  156.3930 C   0  0  0  0  0  2  0  0  0  0  0  0
  160.0770  212.5610  156.6130 C   0  0  0  0  0  2  0  0  0  0  0  0
  157.5030  213.3470  155.4030 C   0  0  0  0  0  2  0  0  0  0  0  0
  1  8  1  0  0  0  0
  2 13  1  0  0  0  0
  3 16  2  0  0  0  0
  5 12  1  0  0  0  0
  6  2  1  0  0  0  0
  8  2  2  0  0  0  0
  8  3  1  0  0  0  0
  9  4  1  0  0  0  0
  9 25  1  0  0  0  0
 10  1  2  0  0  0  0
 11  3  1  0  0  0  0
 11 15  1  0  0  0  0
 12  1  1  0  0  0  0
 12 17  2  0  0  0  0
 13  7  2  0  0  0  0
 14  4  1  0  0  0  0
 15 20  1  1  0  0  0
 15 14  1  0  0  0  0
 16  7  1  0  0  0  0
 16  9  1  0  0  0  0
 17 11  1  0  0  0  0
 18 22  2  0  0  0  0
 18 19  1  0  0  0  0
 19 21  2  0  0  0  0
 20 23  2  0  0  0  0
 21 23  1  0  0  0  0
 22 20  1  0  0  0  0
 24 18  1  0  0  0  0
 25 26  1  0  0  0  0
 26 27  1  0  0  0  0
 29 30  1  0  0  0  0
 29 27  1  0  0  0  0
 29 33  1  0  0  0  0
 30 28  1  1  0  0  0
 31 34  1  0  0  0  0
 31 32  1  0  0  0  0
 32 33  1  0  0  0  0
 34 30  1  0  0  0  0
M  END
>  <MODEL>
4

>  <REMARK>
 VINA RESULT:      -2.9      2.680      4.320
  Name = 
  5 active torsions:
  status: ('A' for Active; 'I' for Inactive)
    1  A    between atoms: C_3  and  N_13
    2  A    between atoms: C_3  and  C_17
    3  A    between atoms: C_12  and  C_28
    4  A    between atoms: C_17  and  C_29
    5  A    between atoms: N_18  and  C_29
                            x       y       z     vdW  Elec       q    Type
                         _______ _______ _______ _____ _____    ______ ____

>  <TORSDO>
F 5

$$$$
=
 OpenBabel11062407473D

 34 38  0  0  1  0  0  0  0  0999 V2000
  160.8270  207.2760  154.9490 C   0  0  0  0  0  0  0  0  0  0  0  0
  160.8980  207.9350  152.5710 C   0  0  0  0  0  0  0  0  0  0  0  0
  160.2680  209.5670  154.3010 C   0  0  0  0  0  0  0  0  0  0  0  0
  160.8140  212.5030  154.7340 C   0  0  0  0  0  2  0  0  0  0  0  0
  160.6960  206.6910  157.2610 F   0  0  0  0  0  0  0  0  0  0  0  0
  161.2490  206.6540  152.1600 O   0  0  0  0  0  1  0  0  0  0  0  0
  160.4420  210.2180  151.9540 C   0  0  0  0  0  3  0  0  0  0  0  0
  160.6730  208.2450  153.9330 C   0  0  0  0  0  0  0  0  0  0  0  0
  160.0730  211.9680  153.6060 N   0  0  0  0  0  0  0  0  0  0  0  0
  161.2190  206.1060  154.6870 O   0  0  0  0  0  0  0  0  0  0  0  0
  159.9160  209.8220  155.6150 N   0  0  0  0  0  0  0  0  0  0  0  0
  160.5500  207.6070  156.2710 C   0  0  0  0  0  0  0  0  0  0  0  0
  160.7630  208.9180  151.5980 C   0  0  0  0  0  3  0  0  0  0  0  0
  160.0560  212.3020  156.0360 C   0  0  0  0  0  2  0  0  0  0  0  0
  159.2100  211.0250  156.0770 C   0  0  1  0  0  3  0  0  0  0  0  0
  160.2140  210.5720  153.2880 C   0  0  0  0  0  0  0  0  0  0  0  0
  160.0690  208.8720  156.5750 C   0  0  0  0  0  3  0  0  0  0  0  0
  155.6450  210.2240  154.9420 C   0  0  0  0  0  0  0  0  0  0  0  0
  155.1690  211.4960  154.6180 C   0  0  0  0  0  3  0  0  0  0  0  0
  157.8070  211.1720  155.5290 C   0  0  0  0  0  0  0  0  0  0  0  0
  156.0010  212.6100  154.7620 C   0  0  0  0  0  3  0  0  0  0  0  0
  156.9540  210.0630  155.4030 C   0  0  0  0  0  3  0  0  0  0  0  0
  157.3110  212.4490  155.2240 C   0  0  0  0  0  3  0  0  0  0  0  0
  154.8360  209.1450  154.8150 F   0  0  0  0  0  0  0  0  0  0  0  0
  159.5610  212.9130  152.6220 C   0  0  0  0  0  2  0  0  0  0  0  0
  160.5330  213.0290  151.4620 C   0  0  0  0  0  2  0  0  0  0  0  0
  159.7920  213.3640  150.1780 C   0  0  0  0  0  2  0  0  0  0  0  0
  161.0800  211.5730  148.4240 O   0  0  0  0  0  1  0  0  0  0  0  0
  160.7310  213.8050  149.1530 N   0  0  0  0  0  0  0  0  0  0  0  0
  161.7100  212.7360  148.8860 C   0  0  2  0  0  3  0  0  0  0  0  0
  162.3380  214.4510  147.1080 C   0  0  0  0  0  2  0  0  0  0  0  0
  160.8620  214.3820  146.7250 C   0  0  0  0  0  2  0  0  0  0  0  0
  159.9600  214.1160  147.9440 C   0  0  0  0  0  2  0  0  0  0  0  0
  162.7620  213.1910  147.8680 C   0  0  0  0  0  2  0  0  0  0  0  0
  1 12  1  0  0  0  0
  2  8  1  0  0  0  0
  3 11  1  0  0  0  0
  4 14  1  0  0  0  0
  6  2  1  0  0  0  0
  7 16  2  0  0  0  0
  8  3  2  0  0  0  0
  8  1  1  0  0  0  0
  9  4  1  0  0  0  0
 10  1  2  0  0  0  0
 11 15  1  0  0  0  0
 11 17  1  0  0  0  0
 12 17  2  0  0  0  0
 12  5  1  0  0  0  0
 13  7  1  0  0  0  0
 13  2  2  0  0  0  0
 14 15  1  0  0  0  0
 15 20  1  6  0  0  0
 16  9  1  0  0  0  0
 16  3  1  0  0  0  0
 18 22  1  0  0  0  0
 19 21  1  0  0  0  0
 19 18  2  0  0  0  0
 21 23  2  0  0  0  0
 22 20  2  0  0  0  0
 23 20  1  0  0  0  0
 24 18  1  0  0  0  0
 25  9  1  0  0  0  0
 26 25  1  0  0  0  0
 27 26  1  0  0  0  0
 29 27  1  0  0  0  0
 30 28  1  6  0  0  0
 30 29  1  0  0  0  0
 31 34  1  0  0  0  0
 32 31  1  0  0  0  0
 32 33  1  0  0  0  0
 33 29  1  0  0  0  0
 34 30  1  0  0  0  0
M  END
>  <MODEL>
5

>  <REMARK>
 VINA RESULT:      -2.8      3.915      8.530
  Name = 
  5 active torsions:
  status: ('A' for Active; 'I' for Inactive)
    1  A    between atoms: C_3  and  N_13
    2  A    between atoms: C_3  and  C_17
    3  A    between atoms: C_12  and  C_28
    4  A    between atoms: C_17  and  C_29
    5  A    between atoms: N_18  and  C_29
                            x       y       z     vdW  Elec       q    Type
                         _______ _______ _______ _____ _____    ______ ____

>  <TORSDO>
F 5

$$$$
=
 OpenBabel11062407473D

 34 38  0  0  1  0  0  0  0  0999 V2000
  161.0700  205.6940  152.0120 C   0  0  0  0  0  0  0  0  0  0  0  0
  160.9120  206.4120  149.6550 C   0  0  0  0  0  0  0  0  0  0  0  0
  161.4520  208.0370  151.4210 C   0  0  0  0  0  0  0  0  0  0  0  0
  163.3150  210.4030  151.6170 C   0  0  0  0  0  2  0  0  0  0  0  0
  161.1930  205.0740  154.3140 F   0  0  0  0  0  0  0  0  0  0  0  0
  160.5650  205.1370  149.2230 O   0  0  0  0  0  1  0  0  0  0  0  0
  161.3880  208.7000  149.0720 C   0  0  0  0  0  3  0  0  0  0  0  0
  161.1450  206.6980  151.0210 C   0  0  0  0  0  0  0  0  0  0  0  0
  162.1910  210.3220  150.7000 N   0  0  0  0  0  0  0  0  0  0  0  0
  160.8400  204.4910  151.7120 O   0  0  0  0  0  0  0  0  0  0  0  0
  161.5390  208.3320  152.7710 N   0  0  0  0  0  0  0  0  0  0  0  0
  161.2570  206.0260  153.3490 C   0  0  0  0  0  0  0  0  0  0  0  0
  161.0190  207.4170  148.7010 C   0  0  0  0  0  3  0  0  0  0  0  0
  162.8440  210.4680  153.0600 C   0  0  0  0  0  2  0  0  0  0  0  0
  161.5530  209.6900  153.3340 C   0  0  1  0  0  3  0  0  0  0  0  0
  161.6310  209.0290  150.4100 C   0  0  0  0  0  0  0  0  0  0  0  0
  161.4600  207.3500  153.7070 C   0  0  0  0  0  3  0  0  0  0  0  0
  157.9880  211.0260  153.7110 C   0  0  0  0  0  0  0  0  0  0  0  0
  157.9630  212.0190  152.7300 C   0  0  0  0  0  3  0  0  0  0  0  0
  160.2770  210.4710  153.1050 C   0  0  0  0  0  0  0  0  0  0  0  0
  159.0960  212.2520  151.9450 C   0  0  0  0  0  3  0  0  0  0  0  0
  159.1410  210.2620  153.9050 C   0  0  0  0  0  3  0  0  0  0  0  0
  160.2490  211.4880  152.1370 C   0  0  0  0  0  3  0  0  0  0  0  0
  156.8950  210.8080  154.4830 F   0  0  0  0  0  0  0  0  0  0  0  0
  161.9510  211.4590  149.8200 C   0  0  0  0  0  2  0  0  0  0  0  0
  162.8920  211.4010  148.6320 C   0  0  0  0  0  2  0  0  0  0  0  0
  162.8460  212.7040  147.8520 C   0  0  0  0  0  2  0  0  0  0  0  0
  160.4220  214.1060  147.5460 O   0  0  0  0  0  1  0  0  0  0  0  0
  161.9980  212.5600  146.6750 N   0  0  0  0  0  0  0  0  0  0  0  0
  160.5930  212.8090  147.0450 C   0  0  2  0  0  3  0  0  0  0  0  0
  160.4110  212.5520  144.5160 C   0  0  0  0  0  2  0  0  0  0  0  0
  161.4940  213.6270  144.4730 C   0  0  0  0  0  2  0  0  0  0  0  0
  162.4510  213.5320  145.6740 C   0  0  0  0  0  2  0  0  0  0  0  0
  159.6590  212.5920  145.8490 C   0  0  0  0  0  2  0  0  0  0  0  0
  1 12  1  0  0  0  0
  2  8  1  0  0  0  0
  3 11  1  0  0  0  0
  4 14  1  0  0  0  0
  6  2  1  0  0  0  0
  7 16  2  0  0  0  0
  8  3  2  0  0  0  0
  8  1  1  0  0  0  0
  9  4  1  0  0  0  0
 10  1  2  0  0  0  0
 11 15  1  0  0  0  0
 11 17  1  0  0  0  0
 12 17  2  0  0  0  0
 12  5  1  0  0  0  0
 13  7  1  0  0  0  0
 13  2  2  0  0  0  0
 14 15  1  0  0  0  0
 15 20  1  6  0  0  0
 16  9  1  0  0  0  0
 16  3  1  0  0  0  0
 18 22  1  0  0  0  0
 18 24  1  0  0  0  0
 19 18  2  0  0  0  0
 20 22  2  0  0  0  0
 21 23  2  0  0  0  0
 21 19  1  0  0  0  0
 23 20  1  0  0  0  0
 25  9  1  0  0  0  0
 26 25  1  0  0  0  0
 27 26  1  0  0  0  0
 29 30  1  0  0  0  0
 29 27  1  0  0  0  0
 30 28  1  6  0  0  0
 31 34  1  0  0  0  0
 32 31  1  0  0  0  0
 32 33  1  0  0  0  0
 33 29  1  0  0  0  0
 34 30  1  0  0  0  0
M  END
>  <MODEL>
6

>  <REMARK>
 VINA RESULT:      -2.6      3.682      7.832
  Name = 
  5 active torsions:
  status: ('A' for Active; 'I' for Inactive)
    1  A    between atoms: C_3  and  N_13
    2  A    between atoms: C_3  and  C_17
    3  A    between atoms: C_12  and  C_28
    4  A    between atoms: C_17  and  C_29
    5  A    between atoms: N_18  and  C_29
                            x       y       z     vdW  Elec       q    Type
                         _______ _______ _______ _____ _____    ______ ____

>  <TORSDO>
F 5

$$$$
=
 OpenBabel11062407473D

 34 38  0  0  1  0  0  0  0  0999 V2000
  161.9170  208.8520  156.1400 C   0  0  0  0  0  0  0  0  0  0  0  0
  160.8120  206.9490  155.0200 C   0  0  0  0  0  0  0  0  0  0  0  0
  161.5260  208.9150  153.7250 C   0  0  0  0  0  0  0  0  0  0  0  0
  162.7470  209.3170  150.9950 C   0  0  0  0  0  2  0  0  0  0  0  0
  162.9480  210.7450  157.1670 F   0  0  0  0  0  0  0  0  0  0  0  0
  160.6440  206.2600  156.2160 O   0  0  0  0  0  1  0  0  0  0  0  0
  160.5230  206.9770  152.6290 C   0  0  0  0  0  3  0  0  0  0  0  0
  161.4190  208.2260  154.9750 C   0  0  0  0  0  0  0  0  0  0  0  0
  161.4300  208.7470  151.2260 N   0  0  0  0  0  0  0  0  0  0  0  0
  161.8830  208.2760  157.2610 O   0  0  0  0  0  0  0  0  0  0  0  0
  161.9920  210.2180  153.7140 N   0  0  0  0  0  0  0  0  0  0  0  0
  162.4620  210.1290  156.0600 C   0  0  0  0  0  0  0  0  0  0  0  0
  160.3570  206.3490  153.8530 C   0  0  0  0  0  3  0  0  0  0  0  0
  162.7880  210.7830  151.3910 C   0  0  0  0  0  2  0  0  0  0  0  0
  161.8810  211.1390  152.5730 C   0  0  1  0  0  3  0  0  0  0  0  0
  161.1200  208.2390  152.5350 C   0  0  0  0  0  0  0  0  0  0  0  0
  162.4620  210.8020  154.8480 C   0  0  0  0  0  3  0  0  0  0  0  0
  158.0880  211.6120  152.7300 C   0  0  0  0  0  0  0  0  0  0  0  0
  157.8470  212.2860  151.5310 C   0  0  0  0  0  3  0  0  0  0  0  0
  160.4600  211.4990  152.2010 C   0  0  0  0  0  0  0  0  0  0  0  0
  158.9090  212.5820  150.6720 C   0  0  0  0  0  3  0  0  0  0  0  0
  159.3880  211.2290  153.0680 C   0  0  0  0  0  3  0  0  0  0  0  0
  160.2090  212.1980  151.0100 C   0  0  0  0  0  3  0  0  0  0  0  0
  157.0620  211.3350  153.5710 F   0  0  0  0  0  0  0  0  0  0  0  0
  160.6520  208.3450  150.0610 C   0  0  0  0  0  2  0  0  0  0  0  0
  161.5810  207.9970  148.9130 C   0  0  0  0  0  2  0  0  0  0  0  0
  161.6240  206.4930  148.7000 C   0  0  0  0  0  2  0  0  0  0  0  0
  161.4320  203.8750  147.6780 O   0  0  0  0  0  1  0  0  0  0  0  0
  161.7930  206.1870  147.2850 N   0  0  0  0  0  0  0  0  0  0  0  0
  162.3140  204.8170  147.1340 C   0  0  2  0  0  3  0  0  0  0  0  0
  161.8980  205.4690  144.7050 C   0  0  0  0  0  2  0  0  0  0  0  0
  160.4890  205.8060  145.1880 C   0  0  0  0  0  2  0  0  0  0  0  0
  160.4820  206.3180  146.6390 C   0  0  0  0  0  2  0  0  0  0  0  0
  162.5780  204.4850  145.6600 C   0  0  0  0  0  2  0  0  0  0  0  0
  1 10  2  0  0  0  0
  2  6  1  0  0  0  0
  3  8  2  0  0  0  0
  4  9  1  0  0  0  0
  4 14  1  0  0  0  0
  7 13  1  0  0  0  0
  8  2  1  0  0  0  0
  8  1  1  0  0  0  0
  9 16  1  0  0  0  0
 11  3  1  0  0  0  0
 11 17  1  0  0  0  0
 12  1  1  0  0  0  0
 12  5  1  0  0  0  0
 13  2  2  0  0  0  0
 14 15  1  0  0  0  0
 15 20  1  6  0  0  0
 15 11  1  0  0  0  0
 16  7  2  0  0  0  0
 16  3  1  0  0  0  0
 17 12  2  0  0  0  0
 18 22  1  0  0  0  0
 18 24  1  0  0  0  0
 19 18  2  0  0  0  0
 20 22  2  0  0  0  0
 21 23  2  0  0  0  0
 21 19  1  0  0  0  0
 23 20  1  0  0  0  0
 25  9  1  0  0  0  0
 26 25  1  0  0  0  0
 27 26  1  0  0  0  0
 29 27  1  0  0  0  0
 30 29  1  0  0  0  0
 30 28  1  6  0  0  0
 31 32  1  0  0  0  0
 31 34  1  0  0  0  0
 32 33  1  0  0  0  0
 33 29  1  0  0  0  0
 34 30  1  0  0  0  0
M  END
>  <MODEL>
7

>  <REMARK>
 VINA RESULT:      -1.6      4.984      9.155
  Name = 
  5 active torsions:
  status: ('A' for Active; 'I' for Inactive)
    1  A    between atoms: C_3  and  N_13
    2  A    between atoms: C_3  and  C_17
    3  A    between atoms: C_12  and  C_28
    4  A    between atoms: C_17  and  C_29
    5  A    between atoms: N_18  and  C_29
                            x       y       z     vdW  Elec       q    Type
                         _______ _______ _______ _____ _____    ______ ____

>  <TORSDO>
F 5

$$$$
