=
 OpenBabel11052422163D

 25 28  0  0  0  0  0  0  0  0999 V2000
  161.3370  205.3250  149.4630 C   0  0  0  0  0  0  0  0  0  0  0  0
  161.3950  206.3220  150.4410 C   0  0  0  0  0  0  0  0  0  0  0  0
  161.7260  206.9010  147.6750 C   0  0  0  0  0  3  0  0  0  0  0  0
  161.1240  203.8940  149.5200 C   0  0  0  0  0  0  0  0  0  0  0  0
  161.1460  206.9370  154.2290 N   0  0  0  0  0  2  0  0  0  0  0  0
  160.7730  201.1490  148.9840 C   0  0  0  0  0  3  0  0  0  0  0  0
  161.7890  207.9270  148.6330 C   0  0  0  0  0  3  0  0  0  0  0  0
  161.1830  203.4540  148.1380 C   0  0  0  0  0  0  0  0  0  0  0  0
  161.0080  202.0150  147.7590 C   0  0  0  0  0  2  0  0  0  0  0  0
  161.6910  208.7090  151.0150 C   0  0  0  0  0  0  0  0  0  0  0  0
  161.8940  209.9030  150.6750 O   0  0  0  0  0  0  0  0  0  0  0  0
  161.2160  205.9900  151.8980 C   0  0  0  0  0  2  0  0  0  0  0  0
  160.7300  201.6310  150.2430 C   0  0  0  0  0  3  0  0  0  0  0  0
  161.4970  205.6020  148.1220 C   0  0  0  0  0  0  0  0  0  0  0  0
  161.3980  204.4280  147.3080 N   0  0  0  0  0  0  0  0  0  0  0  0
  161.5200  208.3850  152.3970 N   0  0  0  0  0  0  0  0  0  0  0  0
  160.9130  203.0690  150.5390 C   0  0  0  0  0  3  0  0  0  0  0  0
  161.3060  207.1750  152.8300 C   0  0  0  0  0  0  0  0  0  0  0  0
  161.6250  207.6440  150.0080 C   0  0  0  0  0  0  0  0  0  0  0  0
  161.2130  208.0040  155.2160 C   0  0  0  0  0  2  0  0  0  0  0  0
  159.8320  208.2470  155.7910 C   0  0  0  0  0  2  0  0  0  0  0  0
  159.5470  209.6720  155.8000 N   0  0  0  0  0  2  0  0  0  0  0  0
  160.7610  210.3530  155.3800 C   0  0  0  0  0  2  0  0  0  0  0  0
  159.2520  211.2200  153.2630 S   0  0  0  0  0  1  0  0  0  0  0  0
  160.4100  211.6110  154.6070 C   0  0  0  0  0  2  0  0  0  0  0  0
  1  4  1  0  0  0  0
  1  2  2  0  0  0  0
  2 12  1  0  0  0  0
  3 14  2  0  0  0  0
  3  7  1  0  0  0  0
  4 17  2  0  0  0  0
  5 20  1  0  0  0  0
  6 13  2  0  0  0  0
  7 19  2  0  0  0  0
  8  4  1  0  0  0  0
  9  8  1  0  0  0  0
  9  6  1  0  0  0  0
 10 16  1  0  0  0  0
 11 10  2  0  0  0  0
 12 18  1  0  0  0  0
 13 17  1  0  0  0  0
 14  1  1  0  0  0  0
 15 14  1  0  0  0  0
 15  8  2  0  0  0  0
 16 18  2  0  0  0  0
 18  5  1  0  0  0  0
 19  2  1  0  0  0  0
 19 10  1  0  0  0  0
 20 21  1  0  0  0  0
 21 22  1  0  0  0  0
 23 22  1  0  0  0  0
 24 25  1  0  0  0  0
 25 23  1  0  0  0  0
M  END
>  <MODEL>
1

>  <REMARK>
 VINA RESULT:      -9.2      0.000      0.000
  Name = 
  5 active torsions:
  status: ('A' for Active; 'I' for Inactive)
    1  A    between atoms: C_2  and  C_12
    2  A    between atoms: C_2  and  N_25
    3  A    between atoms: N_6  and  C_15
    4  A    between atoms: C_15  and  C_21
    5  A    between atoms: C_21  and  N_25
                            x       y       z     vdW  Elec       q    Type
                         _______ _______ _______ _____ _____    ______ ____

>  <TORSDO>
F 5

$$$$
=
 OpenBabel11052422163D

 25 28  0  0  0  0  0  0  0  0999 V2000
  161.1920  204.7000  149.5400 C   0  0  0  0  0  0  0  0  0  0  0  0
  161.3580  206.0210  149.9650 C   0  0  0  0  0  0  0  0  0  0  0  0
  160.8700  203.8970  151.7940 C   0  0  0  0  0  3  0  0  0  0  0  0
  161.2080  204.0710  148.2360 C   0  0  0  0  0  0  0  0  0  0  0  0
  162.0210  209.5970  148.7150 N   0  0  0  0  0  2  0  0  0  0  0  0
  161.1260  202.3030  146.0410 C   0  0  0  0  0  3  0  0  0  0  0  0
  161.0340  205.2150  152.2550 C   0  0  0  0  0  3  0  0  0  0  0  0
  160.9680  202.6630  148.4990 C   0  0  0  0  0  0  0  0  0  0  0  0
  160.9070  201.6510  147.3960 C   0  0  0  0  0  2  0  0  0  0  0  0
  161.4480  207.6510  151.8220 C   0  0  0  0  0  0  0  0  0  0  0  0
  161.3840  207.9240  153.0480 O   0  0  0  0  0  0  0  0  0  0  0  0
  161.6160  207.1270  148.9760 C   0  0  0  0  0  2  0  0  0  0  0  0
  161.3450  203.6230  145.8740 C   0  0  0  0  0  3  0  0  0  0  0  0
  160.9540  203.6690  150.4230 C   0  0  0  0  0  0  0  0  0  0  0  0
  160.8170  202.4060  149.7630 N   0  0  0  0  0  0  0  0  0  0  0  0
  161.6930  208.6960  150.8760 N   0  0  0  0  0  0  0  0  0  0  0  0
  161.3910  204.5620  147.0160 C   0  0  0  0  0  3  0  0  0  0  0  0
  161.7740  208.4970  149.5910 C   0  0  0  0  0  0  0  0  0  0  0  0
  161.2770  206.2720  151.3500 C   0  0  0  0  0  0  0  0  0  0  0  0
  162.1900  210.9580  149.1980 C   0  0  0  0  0  2  0  0  0  0  0  0
  162.2250  211.9120  148.0200 C   0  0  0  0  0  2  0  0  0  0  0  0
  160.8950  212.0390  147.4510 N   0  0  0  0  0  2  0  0  0  0  0  0
  161.0290  212.7880  146.2120 C   0  0  0  0  0  2  0  0  0  0  0  0
  162.9550  213.3320  144.3400 S   0  0  0  0  0  1  0  0  0  0  0  0
  162.4420  213.3280  146.0830 C   0  0  0  0  0  2  0  0  0  0  0  0
  1  2  2  0  0  0  0
  1 14  1  0  0  0  0
  2 19  1  0  0  0  0
  3  7  1  0  0  0  0
  4  8  1  0  0  0  0
  4  1  1  0  0  0  0
  5 20  1  0  0  0  0
  5 18  1  0  0  0  0
  6  9  1  0  0  0  0
  8 15  2  0  0  0  0
  9  8  1  0  0  0  0
 10 11  2  0  0  0  0
 12 18  1  0  0  0  0
 12  2  1  0  0  0  0
 13  6  2  0  0  0  0
 13 17  1  0  0  0  0
 14  3  2  0  0  0  0
 15 14  1  0  0  0  0
 16 10  1  0  0  0  0
 17  4  2  0  0  0  0
 18 16  2  0  0  0  0
 19 10  1  0  0  0  0
 19  7  2  0  0  0  0
 21 20  1  0  0  0  0
 22 21  1  0  0  0  0
 23 22  1  0  0  0  0
 24 25  1  0  0  0  0
 25 23  1  0  0  0  0
M  END
>  <MODEL>
2

>  <REMARK>
 VINA RESULT:      -9.2      3.375      5.170
  Name = 
  5 active torsions:
  status: ('A' for Active; 'I' for Inactive)
    1  A    between atoms: C_2  and  C_12
    2  A    between atoms: C_2  and  N_25
    3  A    between atoms: N_6  and  C_15
    4  A    between atoms: C_15  and  C_21
    5  A    between atoms: C_21  and  N_25
                            x       y       z     vdW  Elec       q    Type
                         _______ _______ _______ _____ _____    ______ ____

>  <TORSDO>
F 5

$$$$
=
 OpenBabel11052422163D

 25 28  0  0  0  0  0  0  0  0999 V2000
  161.2960  204.5360  149.2010 C   0  0  0  0  0  0  0  0  0  0  0  0
  161.4020  205.4540  150.2490 C   0  0  0  0  0  0  0  0  0  0  0  0
  160.8590  202.6980  150.7040 C   0  0  0  0  0  3  0  0  0  0  0  0
  161.4080  204.6600  147.7620 C   0  0  0  0  0  0  0  0  0  0  0  0
  162.0450  209.1610  151.0430 N   0  0  0  0  0  2  0  0  0  0  0  0
  161.5070  204.2600  144.9730 C   0  0  0  0  0  3  0  0  0  0  0  0
  160.9600  203.5940  151.7820 C   0  0  0  0  0  3  0  0  0  0  0  0
  161.1900  203.3170  147.2550 C   0  0  0  0  0  0  0  0  0  0  0  0
  161.2230  203.0110  145.7890 C   0  0  0  0  0  2  0  0  0  0  0  0
  161.3350  205.9070  152.6790 C   0  0  0  0  0  0  0  0  0  0  0  0
  161.1890  205.5160  153.8660 O   0  0  0  0  0  0  0  0  0  0  0  0
  161.6900  206.9070  149.9820 C   0  0  0  0  0  2  0  0  0  0  0  0
  161.7010  205.4790  145.5170 C   0  0  0  0  0  3  0  0  0  0  0  0
  161.0330  203.2000  149.4170 C   0  0  0  0  0  0  0  0  0  0  0  0
  160.9700  202.4530  148.1980 N   0  0  0  0  0  0  0  0  0  0  0  0
  161.6100  207.2860  152.4170 N   0  0  0  0  0  0  0  0  0  0  0  0
  161.6520  205.7030  146.9780 C   0  0  0  0  0  3  0  0  0  0  0  0
  161.7740  207.7700  151.2180 C   0  0  0  0  0  0  0  0  0  0  0  0
  161.2290  204.9640  151.5600 C   0  0  0  0  0  0  0  0  0  0  0  0
  162.1480  210.0840  152.1630 C   0  0  0  0  0  2  0  0  0  0  0  0
  160.7860  210.6830  152.4500 C   0  0  0  0  0  2  0  0  0  0  0  0
  160.4700  210.5320  153.8600 N   0  0  0  0  0  2  0  0  0  0  0  0
  161.7290  210.5530  154.5850 C   0  0  0  0  0  2  0  0  0  0  0  0
  160.2350  208.5480  155.7060 S   0  0  0  0  0  1  0  0  0  0  0  0
  161.6140  209.7220  155.8500 C   0  0  0  0  0  2  0  0  0  0  0  0
  1 14  1  0  0  0  0
  1  2  2  0  0  0  0
  2 19  1  0  0  0  0
  3  7  1  0  0  0  0
  4  1  1  0  0  0  0
  5 18  1  0  0  0  0
  5 20  1  0  0  0  0
  6 13  2  0  0  0  0
  6  9  1  0  0  0  0
  8  4  1  0  0  0  0
  8 15  2  0  0  0  0
  9  8  1  0  0  0  0
 10 11  2  0  0  0  0
 12  2  1  0  0  0  0
 12 18  1  0  0  0  0
 13 17  1  0  0  0  0
 14  3  2  0  0  0  0
 15 14  1  0  0  0  0
 16 10  1  0  0  0  0
 17  4  2  0  0  0  0
 18 16  2  0  0  0  0
 19  7  2  0  0  0  0
 19 10  1  0  0  0  0
 20 21  1  0  0  0  0
 21 22  1  0  0  0  0
 22 23  1  0  0  0  0
 23 25  1  0  0  0  0
 24 25  1  0  0  0  0
M  END
>  <MODEL>
3

>  <REMARK>
 VINA RESULT:      -9.1      2.027      3.468
  Name = 
  5 active torsions:
  status: ('A' for Active; 'I' for Inactive)
    1  A    between atoms: C_2  and  C_12
    2  A    between atoms: C_2  and  N_25
    3  A    between atoms: N_6  and  C_15
    4  A    between atoms: C_15  and  C_21
    5  A    between atoms: C_21  and  N_25
                            x       y       z     vdW  Elec       q    Type
                         _______ _______ _______ _____ _____    ______ ____

>  <TORSDO>
F 5

$$$$
=
 OpenBabel11052422163D

 25 28  0  0  0  0  0  0  0  0999 V2000
  161.2900  204.5370  149.2030 C   0  0  0  0  0  0  0  0  0  0  0  0
  161.3760  205.4480  150.2600 C   0  0  0  0  0  0  0  0  0  0  0  0
  160.8640  202.6820  150.6900 C   0  0  0  0  0  3  0  0  0  0  0  0
  161.4110  204.6730  147.7670 C   0  0  0  0  0  0  0  0  0  0  0  0
  161.9690  209.1570  151.0860 N   0  0  0  0  0  2  0  0  0  0  0  0
  161.5340  204.2950  144.9760 C   0  0  0  0  0  3  0  0  0  0  0  0
  160.9460  203.5710  151.7750 C   0  0  0  0  0  3  0  0  0  0  0  0
  161.2120  203.3310  147.2480 C   0  0  0  0  0  0  0  0  0  0  0  0
  161.2600  203.0360  145.7800 C   0  0  0  0  0  2  0  0  0  0  0  0
  161.2870  205.8810  152.6920 C   0  0  0  0  0  0  0  0  0  0  0  0
  161.1370  205.4800  153.8750 O   0  0  0  0  0  0  0  0  0  0  0  0
  161.6490  206.9060  150.0050 C   0  0  0  0  0  2  0  0  0  0  0  0
  161.7090  205.5120  145.5300 C   0  0  0  0  0  3  0  0  0  0  0  0
  161.0410  203.1960  149.4080 C   0  0  0  0  0  0  0  0  0  0  0  0
  160.9960  202.4570  148.1830 N   0  0  0  0  0  0  0  0  0  0  0  0
  161.5460  207.2650  152.4420 N   0  0  0  0  0  0  0  0  0  0  0  0
  161.6470  205.7250  146.9930 C   0  0  0  0  0  3  0  0  0  0  0  0
  161.7130  207.7610  151.2490 C   0  0  0  0  0  0  0  0  0  0  0  0
  161.2010  204.9460  151.5650 C   0  0  0  0  0  0  0  0  0  0  0  0
  162.0520  210.0720  152.2130 C   0  0  0  0  0  2  0  0  0  0  0  0
  160.8370  210.9780  152.2190 C   0  0  0  0  0  2  0  0  0  0  0  0
  159.7490  210.3360  152.9360 N   0  0  0  0  0  2  0  0  0  0  0  0
  160.1700  210.2010  154.3210 C   0  0  0  0  0  2  0  0  0  0  0  0
  157.8650  211.6310  154.7120 S   0  0  0  0  0  1  0  0  0  0  0  0
  159.6040  211.3410  155.1480 C   0  0  0  0  0  2  0  0  0  0  0  0
  1 14  1  0  0  0  0
  1  2  2  0  0  0  0
  2 19  1  0  0  0  0
  3  7  1  0  0  0  0
  4  1  1  0  0  0  0
  5 18  1  0  0  0  0
  5 20  1  0  0  0  0
  6 13  2  0  0  0  0
  6  9  1  0  0  0  0
  8  4  1  0  0  0  0
  8 15  2  0  0  0  0
  9  8  1  0  0  0  0
 10 11  2  0  0  0  0
 12  2  1  0  0  0  0
 12 18  1  0  0  0  0
 13 17  1  0  0  0  0
 14  3  2  0  0  0  0
 15 14  1  0  0  0  0
 16 10  1  0  0  0  0
 17  4  2  0  0  0  0
 18 16  2  0  0  0  0
 19  7  2  0  0  0  0
 19 10  1  0  0  0  0
 20 21  1  0  0  0  0
 21 22  1  0  0  0  0
 22 23  1  0  0  0  0
 23 25  1  0  0  0  0
 24 25  1  0  0  0  0
M  END
>  <MODEL>
4

>  <REMARK>
 VINA RESULT:      -8.8      1.951      3.417
  Name = 
  5 active torsions:
  status: ('A' for Active; 'I' for Inactive)
    1  A    between atoms: C_2  and  C_12
    2  A    between atoms: C_2  and  N_25
    3  A    between atoms: N_6  and  C_15
    4  A    between atoms: C_15  and  C_21
    5  A    between atoms: C_21  and  N_25
                            x       y       z     vdW  Elec       q    Type
                         _______ _______ _______ _____ _____    ______ ____

>  <TORSDO>
F 5

$$$$
=
 OpenBabel11052422163D

 25 28  0  0  1  0  0  0  0  0999 V2000
  161.0250  207.0520  152.2070 C   0  0  0  0  0  0  0  0  0  0  0  0
  161.0080  206.3560  150.9950 C   0  0  0  0  0  0  0  0  0  0  0  0
  161.1000  205.0170  153.5040 C   0  0  0  0  0  3  0  0  0  0  0  0
  161.0050  208.4620  152.5380 C   0  0  0  0  0  0  0  0  0  0  0  0
  160.9000  206.8200  147.1790 N   0  0  0  0  0  2  0  0  0  0  0  0
  160.9860  210.9840  153.7970 C   0  0  0  0  0  3  0  0  0  0  0  0
  161.0840  204.2860  152.3040 C   0  0  0  0  0  3  0  0  0  0  0  0
  161.0410  208.5030  153.9890 C   0  0  0  0  0  0  0  0  0  0  0  0
  161.0350  209.7970  154.7440 C   0  0  0  0  0  3  0  0  0  0  0  0
  161.0210  204.1930  149.7980 C   0  0  0  0  0  0  0  0  0  0  0  0
  161.0470  202.9350  149.8020 O   0  0  0  0  0  0  0  0  0  0  0  0
  160.9590  207.0880  149.6810 C   0  0  0  0  0  2  0  0  0  0  0  0
  160.9540  210.8680  152.4540 C   0  0  0  0  0  3  0  0  0  0  0  0
  161.0700  206.4080  153.4240 C   0  0  2  0  0  3  0  0  0  0  0  0
  161.0790  207.3220  154.5260 N   0  0  0  0  0  0  0  0  0  0  0  0
  160.9740  204.8960  148.5530 N   0  0  0  0  0  0  0  0  0  0  0  0
  160.9630  209.5510  151.7800 C   0  0  0  0  0  3  0  0  0  0  0  0
  160.9460  206.1950  148.4630 C   0  0  0  0  0  0  0  0  0  0  0  0
  161.0380  204.9480  151.0560 C   0  0  0  0  0  0  0  0  0  0  0  0
  160.8830  206.0570  145.9400 C   0  0  0  0  0  2  0  0  0  0  0  0
  162.3060  205.7510  145.5160 C   0  0  0  0  0  2  0  0  0  0  0  0
  162.4590  204.3220  145.3050 N   0  0  0  0  0  2  0  0  0  0  0  0
  161.1230  203.7640  145.1750 C   0  0  0  0  0  2  0  0  0  0  0  0
  159.9680  201.2830  145.0240 S   0  0  0  0  0  1  0  0  0  0  0  0
  161.0360  202.4460  145.9220 C   0  0  0  0  0  2  0  0  0  0  0  0
  1  4  2  0  0  0  0
  1 14  1  0  0  0  0
  2 19  2  0  0  0  0
  2  1  1  0  0  0  0
  4  8  1  0  0  0  0
  5 18  1  0  0  0  0
  6  9  2  0  0  0  0
  7  3  2  0  0  0  0
  8 15  2  0  0  0  0
  8  9  1  0  0  0  0
 10 11  2  0  0  0  0
 10 19  1  0  0  0  0
 12  2  1  0  0  0  0
 13  6  1  0  0  0  0
 14  3  1  1  0  0  0
 14 15  1  0  0  0  0
 16 10  1  0  0  0  0
 17 13  2  0  0  0  0
 17  4  1  0  0  0  0
 18 16  2  0  0  0  0
 18 12  1  0  0  0  0
 19  7  1  0  0  0  0
 20  5  1  0  0  0  0
 21 20  1  0  0  0  0
 22 21  1  0  0  0  0
 23 22  1  0  0  0  0
 23 25  1  0  0  0  0
 24 25  1  0  0  0  0
M  END
>  <MODEL>
5

>  <REMARK>
 VINA RESULT:      -8.7      3.348      8.081
  Name = 
  5 active torsions:
  status: ('A' for Active; 'I' for Inactive)
    1  A    between atoms: C_2  and  C_12
    2  A    between atoms: C_2  and  N_25
    3  A    between atoms: N_6  and  C_15
    4  A    between atoms: C_15  and  C_21
    5  A    between atoms: C_21  and  N_25
                            x       y       z     vdW  Elec       q    Type
                         _______ _______ _______ _____ _____    ______ ____

>  <TORSDO>
F 5

$$$$
=
 OpenBabel11052422163D

 25 28  0  0  0  0  0  0  0  0999 V2000
  161.2830  205.1650  149.3900 C   0  0  0  0  0  0  0  0  0  0  0  0
  161.4560  206.4900  149.7980 C   0  0  0  0  0  0  0  0  0  0  0  0
  160.9780  204.3880  151.6560 C   0  0  0  0  0  3  0  0  0  0  0  0
  161.2860  204.5200  148.0930 C   0  0  0  0  0  0  0  0  0  0  0  0
  162.1170  210.0500  148.5020 N   0  0  0  0  0  2  0  0  0  0  0  0
  161.1830  202.7280  145.9190 C   0  0  0  0  0  3  0  0  0  0  0  0
  161.1480  205.7100  152.1000 C   0  0  0  0  0  3  0  0  0  0  0  0
  161.0450  203.1160  148.3740 C   0  0  0  0  0  0  0  0  0  0  0  0
  160.9730  202.0920  147.2830 C   0  0  0  0  0  2  0  0  0  0  0  0
  161.5650  208.1400  151.6360 C   0  0  0  0  0  0  0  0  0  0  0  0
  161.5110  208.4270  152.8600 O   0  0  0  0  0  0  0  0  0  0  0  0
  161.7080  207.5830  148.7950 C   0  0  0  0  0  2  0  0  0  0  0  0
  161.4030  204.0450  145.7350 C   0  0  0  0  0  3  0  0  0  0  0  0
  161.0500  204.1430  150.2860 C   0  0  0  0  0  0  0  0  0  0  0  0
  160.9040  202.8740  149.6410 N   0  0  0  0  0  0  0  0  0  0  0  0
  161.8040  209.1730  150.6770 N   0  0  0  0  0  0  0  0  0  0  0  0
  161.4610  204.9970  146.8660 C   0  0  0  0  0  3  0  0  0  0  0  0
  161.8740  208.9600  149.3940 C   0  0  0  0  0  0  0  0  0  0  0  0
  161.3860  206.7570  151.1810 C   0  0  0  0  0  0  0  0  0  0  0  0
  162.2930  211.4160  148.9690 C   0  0  0  0  0  2  0  0  0  0  0  0
  161.3920  212.3410  148.1740 C   0  0  0  0  0  2  0  0  0  0  0  0
  161.1890  213.5780  148.9080 N   0  0  0  0  0  2  0  0  0  0  0  0
  159.7600  213.8460  148.9080 C   0  0  0  0  0  2  0  0  0  0  0  0
  159.5240  213.0630  151.5240 S   0  0  0  0  0  1  0  0  0  0  0  0
  159.3290  214.3620  150.2680 C   0  0  0  0  0  2  0  0  0  0  0  0
  1  2  2  0  0  0  0
  1 14  1  0  0  0  0
  2 19  1  0  0  0  0
  3  7  1  0  0  0  0
  4  8  1  0  0  0  0
  4  1  1  0  0  0  0
  5 20  1  0  0  0  0
  5 18  1  0  0  0  0
  6  9  1  0  0  0  0
  8 15  2  0  0  0  0
  9  8  1  0  0  0  0
 10 11  2  0  0  0  0
 12 18  1  0  0  0  0
 12  2  1  0  0  0  0
 13  6  2  0  0  0  0
 13 17  1  0  0  0  0
 14  3  2  0  0  0  0
 15 14  1  0  0  0  0
 16 10  1  0  0  0  0
 17  4  2  0  0  0  0
 18 16  2  0  0  0  0
 19 10  1  0  0  0  0
 19  7  2  0  0  0  0
 21 22  1  0  0  0  0
 21 20  1  0  0  0  0
 23 22  1  0  0  0  0
 23 25  1  0  0  0  0
 25 24  1  0  0  0  0
M  END
>  <MODEL>
6

>  <REMARK>
 VINA RESULT:      -8.6      2.811      4.396
  Name = 
  5 active torsions:
  status: ('A' for Active; 'I' for Inactive)
    1  A    between atoms: C_2  and  C_12
    2  A    between atoms: C_2  and  N_25
    3  A    between atoms: N_6  and  C_15
    4  A    between atoms: C_15  and  C_21
    5  A    between atoms: C_21  and  N_25
                            x       y       z     vdW  Elec       q    Type
                         _______ _______ _______ _____ _____    ______ ____

>  <TORSDO>
F 5

$$$$
=
 OpenBabel11052422163D

 25 28  0  0  0  0  0  0  0  0999 V2000
  161.4280  205.3210  149.0150 C   0  0  0  0  0  0  0  0  0  0  0  0
  161.5370  206.5920  149.5850 C   0  0  0  0  0  0  0  0  0  0  0  0
  161.8060  206.1650  146.7840 C   0  0  0  0  0  3  0  0  0  0  0  0
  161.1810  204.0060  149.5690 C   0  0  0  0  0  0  0  0  0  0  0  0
  161.4070  208.4880  152.9280 N   0  0  0  0  0  2  0  0  0  0  0  0
  160.7470  201.2570  150.0240 C   0  0  0  0  0  3  0  0  0  0  0  0
  161.9220  207.4580  147.3260 C   0  0  0  0  0  3  0  0  0  0  0  0
  161.1910  203.1120  148.4240 C   0  0  0  0  0  0  0  0  0  0  0  0
  160.9700  201.6380  148.5700 C   0  0  0  0  0  2  0  0  0  0  0  0
  161.9080  209.0180  149.2900 C   0  0  0  0  0  0  0  0  0  0  0  0
  162.1320  210.0140  148.5530 O   0  0  0  0  0  0  0  0  0  0  0  0
  161.3900  206.7910  151.0700 C   0  0  0  0  0  2  0  0  0  0  0  0
  160.7510  202.1470  151.0380 C   0  0  0  0  0  3  0  0  0  0  0  0
  161.5580  205.1100  147.6590 C   0  0  0  0  0  0  0  0  0  0  0  0
  161.4080  203.7310  147.3040 N   0  0  0  0  0  0  0  0  0  0  0  0
  161.7670  209.1990  150.7010 N   0  0  0  0  0  0  0  0  0  0  0  0
  160.9780  203.5920  150.8130 C   0  0  0  0  0  3  0  0  0  0  0  0
  161.5350  208.2220  151.5300 C   0  0  0  0  0  0  0  0  0  0  0  0
  161.7880  207.6730  148.7160 C   0  0  0  0  0  0  0  0  0  0  0  0
  161.5280  209.8280  153.4820 C   0  0  0  0  0  2  0  0  0  0  0  0
  160.1530  210.3430  153.8600 C   0  0  0  0  0  2  0  0  0  0  0  0
  160.1050  210.6120  155.2870 N   0  0  0  0  0  2  0  0  0  0  0  0
  159.5200  209.4430  155.9230 C   0  0  0  0  0  2  0  0  0  0  0  0
  160.3390  207.1910  157.2520 S   0  0  0  0  0  1  0  0  0  0  0  0
  160.3840  209.0000  157.0890 C   0  0  0  0  0  2  0  0  0  0  0  0
  1  4  1  0  0  0  0
  1  2  1  0  0  0  0
  2 12  1  0  0  0  0
  3  7  2  0  0  0  0
  3 14  1  0  0  0  0
  4 17  2  0  0  0  0
  5 20  1  0  0  0  0
  6 13  2  0  0  0  0
  7 19  1  0  0  0  0
  8  9  1  0  0  0  0
  8  4  1  0  0  0  0
  9  6  1  0  0  0  0
 10 16  1  0  0  0  0
 11 10  2  0  0  0  0
 12 18  1  0  0  0  0
 14  1  2  0  0  0  0
 15 14  1  0  0  0  0
 15  8  2  0  0  0  0
 16 18  2  0  0  0  0
 17 13  1  0  0  0  0
 18  5  1  0  0  0  0
 19 10  1  0  0  0  0
 19  2  2  0  0  0  0
 20 21  1  0  0  0  0
 21 22  1  0  0  0  0
 22 23  1  0  0  0  0
 23 25  1  0  0  0  0
 25 24  1  0  0  0  0
M  END
>  <MODEL>
7

>  <REMARK>
 VINA RESULT:      -8.3      1.622      1.950
  Name = 
  5 active torsions:
  status: ('A' for Active; 'I' for Inactive)
    1  A    between atoms: C_2  and  C_12
    2  A    between atoms: C_2  and  N_25
    3  A    between atoms: N_6  and  C_15
    4  A    between atoms: C_15  and  C_21
    5  A    between atoms: C_21  and  N_25
                            x       y       z     vdW  Elec       q    Type
                         _______ _______ _______ _____ _____    ______ ____

>  <TORSDO>
F 5

$$$$
=
 OpenBabel11052422163D

 25 28  0  0  0  0  0  0  0  0999 V2000
  161.4510  205.3390  149.1640 C   0  0  0  0  0  0  0  0  0  0  0  0
  161.5650  206.6060  149.7450 C   0  0  0  0  0  0  0  0  0  0  0  0
  161.8570  206.1980  146.9440 C   0  0  0  0  0  3  0  0  0  0  0  0
  161.1900  204.0220  149.7050 C   0  0  0  0  0  0  0  0  0  0  0  0
  161.4170  208.4780  153.1010 N   0  0  0  0  0  2  0  0  0  0  0  0
  160.7330  201.2740  150.1360 C   0  0  0  0  0  3  0  0  0  0  0  0
  161.9760  207.4850  147.4960 C   0  0  0  0  0  3  0  0  0  0  0  0
  161.2050  203.1370  148.5540 C   0  0  0  0  0  0  0  0  0  0  0  0
  160.9720  201.6630  148.6870 C   0  0  0  0  0  2  0  0  0  0  0  0
  161.9550  209.0310  149.4710 C   0  0  0  0  0  0  0  0  0  0  0  0
  162.1930  210.0310  148.7450 O   0  0  0  0  0  0  0  0  0  0  0  0
  161.4050  206.7940  151.2290 C   0  0  0  0  0  2  0  0  0  0  0  0
  160.7340  202.1550  151.1560 C   0  0  0  0  0  3  0  0  0  0  0  0
  161.5930  205.1380  147.8070 C   0  0  0  0  0  0  0  0  0  0  0  0
  161.4370  203.7630  147.4410 N   0  0  0  0  0  0  0  0  0  0  0  0
  161.8030  209.2030  150.8830 N   0  0  0  0  0  0  0  0  0  0  0  0
  160.9720  203.6000  150.9450 C   0  0  0  0  0  3  0  0  0  0  0  0
  161.5560  208.2210  151.7020 C   0  0  0  0  0  0  0  0  0  0  0  0
  161.8320  207.6920  148.8860 C   0  0  0  0  0  0  0  0  0  0  0  0
  161.5420  209.8120  153.6650 C   0  0  0  0  0  2  0  0  0  0  0  0
  160.1810  210.2940  154.1280 C   0  0  0  0  0  2  0  0  0  0  0  0
  159.4220  210.7880  152.9920 N   0  0  0  0  0  2  0  0  0  0  0  0
  159.2760  212.2230  153.1670 C   0  0  0  0  0  2  0  0  0  0  0  0
  158.2340  213.3780  150.9110 S   0  0  0  0  0  1  0  0  0  0  0  0
  159.6950  212.9460  151.9000 C   0  0  0  0  0  2  0  0  0  0  0  0
  1  4  1  0  0  0  0
  1  2  1  0  0  0  0
  2 12  1  0  0  0  0
  3  7  2  0  0  0  0
  3 14  1  0  0  0  0
  4 17  2  0  0  0  0
  5 20  1  0  0  0  0
  6 13  2  0  0  0  0
  7 19  1  0  0  0  0
  8  9  1  0  0  0  0
  8  4  1  0  0  0  0
  9  6  1  0  0  0  0
 10 16  1  0  0  0  0
 11 10  2  0  0  0  0
 12 18  1  0  0  0  0
 14  1  2  0  0  0  0
 15 14  1  0  0  0  0
 15  8  2  0  0  0  0
 16 18  2  0  0  0  0
 17 13  1  0  0  0  0
 18  5  1  0  0  0  0
 19 10  1  0  0  0  0
 19  2  2  0  0  0  0
 20 21  1  0  0  0  0
 22 23  1  0  0  0  0
 22 21  1  0  0  0  0
 24 25  1  0  0  0  0
 25 23  1  0  0  0  0
M  END
>  <MODEL>
8

>  <REMARK>
 VINA RESULT:      -8.2      1.495      1.786
  Name = 
  5 active torsions:
  status: ('A' for Active; 'I' for Inactive)
    1  A    between atoms: C_2  and  C_12
    2  A    between atoms: C_2  and  N_25
    3  A    between atoms: N_6  and  C_15
    4  A    between atoms: C_15  and  C_21
    5  A    between atoms: C_21  and  N_25
                            x       y       z     vdW  Elec       q    Type
                         _______ _______ _______ _____ _____    ______ ____

>  <TORSDO>
F 5

$$$$
=
 OpenBabel11052422163D

 25 28  0  0  0  0  0  0  0  0999 V2000
  161.1350  205.5540  150.4230 C   0  0  0  0  0  0  0  0  0  0  0  0
  161.0610  206.5140  151.4350 C   0  0  0  0  0  0  0  0  0  0  0  0
  161.1030  203.7260  152.0010 C   0  0  0  0  0  3  0  0  0  0  0  0
  161.2030  205.6400  148.9790 C   0  0  0  0  0  0  0  0  0  0  0  0
  160.9370  210.3040  152.0790 N   0  0  0  0  0  2  0  0  0  0  0  0
  161.3510  205.1580  146.2050 C   0  0  0  0  0  3  0  0  0  0  0  0
  161.0290  204.6670  153.0430 C   0  0  0  0  0  3  0  0  0  0  0  0
  161.2600  204.2620  148.5260 C   0  0  0  0  0  0  0  0  0  0  0  0
  161.3400  203.9100  147.0720 C   0  0  0  0  0  2  0  0  0  0  0  0
  160.9300  207.0410  153.8470 C   0  0  0  0  0  0  0  0  0  0  0  0
  160.8810  206.6760  155.0500 O   0  0  0  0  0  0  0  0  0  0  0  0
  161.0420  207.9840  151.1080 C   0  0  0  0  0  2  0  0  0  0  0  0
  161.2960  206.4110  146.7000 C   0  0  0  0  0  3  0  0  0  0  0  0
  161.1550  204.2020  150.6930 C   0  0  0  0  0  0  0  0  0  0  0  0
  161.2330  203.4090  149.5040 N   0  0  0  0  0  0  0  0  0  0  0  0
  160.9120  208.4350  153.5290 N   0  0  0  0  0  0  0  0  0  0  0  0
  161.2190  206.6790  148.1530 C   0  0  0  0  0  3  0  0  0  0  0  0
  160.9600  208.8940  152.3110 C   0  0  0  0  0  0  0  0  0  0  0  0
  161.0080  206.0520  152.7660 C   0  0  0  0  0  0  0  0  0  0  0  0
  160.8600  211.2720  153.1620 C   0  0  0  0  0  2  0  0  0  0  0  0
  159.7200  212.2350  152.8980 C   0  0  0  0  0  2  0  0  0  0  0  0
  158.7400  212.1400  153.9660 N   0  0  0  0  0  2  0  0  0  0  0  0
  157.5330  212.8040  153.5000 C   0  0  0  0  0  2  0  0  0  0  0  0
  156.0100  211.1460  155.0620 S   0  0  0  0  0  1  0  0  0  0  0  0
  156.4970  212.8370  154.6080 C   0  0  0  0  0  2  0  0  0  0  0  0
  1 14  1  0  0  0  0
  1  2  2  0  0  0  0
  2 19  1  0  0  0  0
  3  7  1  0  0  0  0
  4  1  1  0  0  0  0
  5 18  1  0  0  0  0
  5 20  1  0  0  0  0
  6 13  2  0  0  0  0
  6  9  1  0  0  0  0
  8  4  1  0  0  0  0
  8 15  2  0  0  0  0
  9  8  1  0  0  0  0
 10 11  2  0  0  0  0
 12  2  1  0  0  0  0
 12 18  1  0  0  0  0
 13 17  1  0  0  0  0
 14  3  2  0  0  0  0
 15 14  1  0  0  0  0
 16 10  1  0  0  0  0
 17  4  2  0  0  0  0
 18 16  2  0  0  0  0
 19  7  2  0  0  0  0
 19 10  1  0  0  0  0
 21 20  1  0  0  0  0
 21 22  1  0  0  0  0
 23 22  1  0  0  0  0
 23 25  1  0  0  0  0
 25 24  1  0  0  0  0
M  END
>  <MODEL>
9

>  <REMARK>
 VINA RESULT:      -8.1      2.207      3.697
  Name = 
  5 active torsions:
  status: ('A' for Active; 'I' for Inactive)
    1  A    between atoms: C_2  and  C_12
    2  A    between atoms: C_2  and  N_25
    3  A    between atoms: N_6  and  C_15
    4  A    between atoms: C_15  and  C_21
    5  A    between atoms: C_21  and  N_25
                            x       y       z     vdW  Elec       q    Type
                         _______ _______ _______ _____ _____    ______ ____

>  <TORSDO>
F 5

$$$$
