=
 OpenBabel11062409323D

 34 38  0  0  1  0  0  0  0  0999 V2000
  161.0130  208.5550  151.6420 C   0  0  2  0  0  3  0  0  0  0  0  0
  161.9010  204.7440  151.1360 C   0  0  0  0  0  2  0  0  0  0  0  0
  161.4250  204.1270  147.9590 C   0  0  0  0  0  0  0  0  0  0  0  0
  161.4360  206.0980  153.0980 O   0  0  0  0  0  0  0  0  0  0  0  0
  160.4020  209.5840  153.8550 C   0  0  0  0  0  3  0  0  0  0  0  0
  160.4480  208.2930  155.9050 C   0  0  0  0  0  3  0  0  0  0  0  0
  161.5850  204.6940  146.6610 N   0  0  0  0  0  1  0  0  0  0  0  0
  160.2210  209.5010  155.2390 C   0  0  0  0  0  3  0  0  0  0  0  0
  161.0450  207.2400  153.8060 C   0  0  0  0  0  0  0  0  0  0  0  0
  160.8110  208.4580  153.1320 C   0  0  0  0  0  0  0  0  0  0  0  0
  160.8570  207.1640  155.1890 C   0  0  0  0  0  3  0  0  0  0  0  0
  160.6700  204.3200  150.3460 C   0  0  0  0  0  2  0  0  0  0  0  0
  161.8750  202.9730  148.1860 O   0  0  0  0  0  0  0  0  0  0  0  0
  160.7560  204.8620  148.9950 N   0  0  0  0  0  0  0  0  0  0  0  0
  160.2920  206.2210  148.7480 C   0  0  0  0  0  2  0  0  0  0  0  0
  161.8090  206.1570  151.7220 C   0  0  2  0  0  3  0  0  0  0  0  0
  161.1730  207.2300  149.4700 C   0  0  0  0  0  2  0  0  0  0  0  0
  160.9170  207.1690  150.9730 C   0  0  2  0  0  3  0  0  0  0  0  0
  162.2840  209.3410  151.2790 C   0  0  0  0  0  2  0  0  0  0  0  0
  161.9810  210.7120  150.6850 C   0  0  0  0  0  2  0  0  0  0  0  0
  162.8110  210.9540  149.5860 O   0  0  0  0  0  0  0  0  0  0  0  0
  160.1710  213.3390  148.3760 C   0  0  0  0  0  2  0  0  0  0  0  0
  162.8360  212.1900  147.5130 C   0  0  0  0  0  2  0  0  0  0  0  0
  160.5270  214.3690  144.6610 C   0  0  1  0  0  3  0  0  0  0  0  0
  159.9380  214.3280  146.0790 C   0  0  0  0  0  2  0  0  0  0  0  0
  160.6110  213.2450  146.9100 C   0  0  1  0  0  3  0  0  0  0  0  0
  162.5000  213.3340  145.3030 C   0  0  0  0  0  2  0  0  0  0  0  0
  162.1330  213.3430  146.7820 C   0  0  2  0  0  3  0  0  0  0  0  0
  161.9420  214.4530  144.6440 O   0  0  0  0  0  0  0  0  0  0  0  0
  161.9940  211.6070  148.6580 C   0  0  2  0  0  3  0  0  0  0  0  0
  161.1680  212.6910  149.3490 C   0  0  0  0  0  2  0  0  0  0  0  0
  159.9790  213.3230  143.7320 C   0  0  0  0  0  0  0  0  0  0  0  0
  158.9980  212.6250  144.0970 O   0  0  0  0  0  0  0  0  0  0  0  0
  160.5390  213.1250  142.4380 N   0  0  0  0  0  1  0  0  0  0  0  0
  1 19  1  1  0  0  0
  1 10  1  0  0  0  0
  3 13  2  0  0  0  0
  3 14  1  0  0  0  0
  4  9  1  0  0  0  0
  5  8  1  0  0  0  0
  7  3  1  0  0  0  0
  8  6  2  0  0  0  0
  9 11  2  0  0  0  0
 10  9  1  0  0  0  0
 10  5  2  0  0  0  0
 11  6  1  0  0  0  0
 12  2  1  0  0  0  0
 14 12  1  0  0  0  0
 15 14  1  0  0  0  0
 15 17  1  0  0  0  0
 16  2  1  6  0  0  0
 16  4  1  0  0  0  0
 18 17  1  6  0  0  0
 18  1  1  0  0  0  0
 18 16  1  0  0  0  0
 20 19  1  0  0  0  0
 21 20  1  0  0  0  0
 22 31  1  0  0  0  0
 23 30  1  0  0  0  0
 24 32  1  6  0  0  0
 24 25  1  0  0  0  0
 26 25  1  6  0  0  0
 26 22  1  0  0  0  0
 28 27  1  6  0  0  0
 28 26  1  0  0  0  0
 28 23  1  0  0  0  0
 29 24  1  0  0  0  0
 29 27  1  0  0  0  0
 30 31  1  0  0  0  0
 30 21  1  1  0  0  0
 32 33  2  0  0  0  0
 34 32  1  0  0  0  0
M  END
>  <MODEL>
1

>  <REMARK>
 VINA RESULT:      -8.6      0.000      0.000
  Name = 
  5 active torsions:
  status: ('A' for Active; 'I' for Inactive)
    1  A    between atoms: C_1  and  C_9
    2  A    between atoms: C_7  and  C_11
    3  A    between atoms: C_8  and  C_9
    4  A    between atoms: C_8  and  O_18
    5  A    between atoms: O_18  and  C_30
                            x       y       z     vdW  Elec       q    Type
                         _______ _______ _______ _____ _____    ______ ____

>  <TORSDO>
F 5

$$$$
=
 OpenBabel11062409323D

 34 38  0  0  1  0  0  0  0  0999 V2000
  161.5160  210.2090  152.7750 C   0  0  2  0  0  3  0  0  0  0  0  0
  159.2790  212.9600  151.0420 C   0  0  0  0  0  2  0  0  0  0  0  0
  160.2130  213.0290  147.9080 C   0  0  0  0  0  0  0  0  0  0  0  0
  159.7730  212.4340  153.3610 O   0  0  0  0  0  0  0  0  0  0  0  0
  161.9410  210.0850  155.2520 C   0  0  0  0  0  3  0  0  0  0  0  0
  160.8680  211.6120  156.7960 C   0  0  0  0  0  3  0  0  0  0  0  0
  160.6230  212.1890  146.8320 N   0  0  0  0  0  1  0  0  0  0  0  0
  161.7290  210.5370  156.5570 C   0  0  0  0  0  3  0  0  0  0  0  0
  160.4170  211.7880  154.4220 C   0  0  0  0  0  0  0  0  0  0  0  0
  161.2910  210.7070  154.1790 C   0  0  0  0  0  0  0  0  0  0  0  0
  160.2150  212.2370  155.7310 C   0  0  0  0  0  3  0  0  0  0  0  0
  160.3750  213.7270  150.3140 C   0  0  0  0  0  2  0  0  0  0  0  0
  159.2840  213.8590  147.7210 O   0  0  0  0  0  0  0  0  0  0  0  0
  160.8530  212.9320  149.1890 N   0  0  0  0  0  0  0  0  0  0  0  0
  161.8830  211.9280  149.4200 C   0  0  0  0  0  2  0  0  0  0  0  0
  159.8040  211.9140  152.0330 C   0  0  2  0  0  3  0  0  0  0  0  0
  161.3540  210.8070  150.3020 C   0  0  0  0  0  2  0  0  0  0  0  0
  161.1880  211.3000  151.7360 C   0  0  2  0  0  3  0  0  0  0  0  0
  160.8150  208.8650  152.5160 C   0  0  0  0  0  2  0  0  0  0  0  0
  161.7910  207.7530  152.1420 C   0  0  0  0  0  2  0  0  0  0  0  0
  161.1820  206.5050  152.3030 O   0  0  0  0  0  0  0  0  0  0  0  0
  161.1220  203.6490  149.8620 C   0  0  0  0  0  2  0  0  0  0  0  0
  160.8400  206.6630  149.9190 C   0  0  0  0  0  2  0  0  0  0  0  0
  161.2680  204.7180  146.1440 C   0  0  1  0  0  3  0  0  0  0  0  0
  161.1830  203.7770  147.3540 C   0  0  0  0  0  2  0  0  0  0  0  0
  161.4080  204.5430  148.6500 C   0  0  1  0  0  3  0  0  0  0  0  0
  160.8090  206.6070  147.4090 C   0  0  0  0  0  2  0  0  0  0  0  0
  160.5450  205.8070  148.6790 C   0  0  2  0  0  3  0  0  0  0  0  0
  160.4400  205.8630  146.2660 O   0  0  0  0  0  0  0  0  0  0  0  0
  161.4000  205.8430  151.0920 C   0  0  2  0  0  3  0  0  0  0  0  0
  160.7880  204.4440  151.1340 C   0  0  0  0  0  2  0  0  0  0  0  0
  162.6680  205.0380  145.7050 C   0  0  0  0  0  0  0  0  0  0  0  0
  162.8530  205.9040  144.8120 O   0  0  0  0  0  0  0  0  0  0  0  0
  163.7890  204.3910  146.2990 N   0  0  0  0  0  1  0  0  0  0  0  0
  1 19  1  6  0  0  0
  1 10  1  0  0  0  0
  3 14  1  0  0  0  0
  4  9  1  0  0  0  0
  5  8  1  0  0  0  0
  7  3  1  0  0  0  0
  8  6  2  0  0  0  0
  9 11  2  0  0  0  0
 10  9  1  0  0  0  0
 10  5  2  0  0  0  0
 11  6  1  0  0  0  0
 12  2  1  0  0  0  0
 13  3  2  0  0  0  0
 14 15  1  0  0  0  0
 14 12  1  0  0  0  0
 15 17  1  0  0  0  0
 16  2  1  6  0  0  0
 16  4  1  0  0  0  0
 18 17  1  6  0  0  0
 18 16  1  0  0  0  0
 18  1  1  0  0  0  0
 20 21  1  0  0  0  0
 20 19  1  0  0  0  0
 22 31  1  0  0  0  0
 23 30  1  0  0  0  0
 24 32  1  1  0  0  0
 24 29  1  0  0  0  0
 24 25  1  0  0  0  0
 26 25  1  6  0  0  0
 26 28  1  0  0  0  0
 26 22  1  0  0  0  0
 28 27  1  6  0  0  0
 28 23  1  0  0  0  0
 29 27  1  0  0  0  0
 30 31  1  0  0  0  0
 30 21  1  1  0  0  0
 32 34  1  0  0  0  0
 33 32  2  0  0  0  0
M  END
>  <MODEL>
2

>  <REMARK>
 VINA RESULT:      -8.0      2.551      7.149
  Name = 
  5 active torsions:
  status: ('A' for Active; 'I' for Inactive)
    1  A    between atoms: C_1  and  C_9
    2  A    between atoms: C_7  and  C_11
    3  A    between atoms: C_8  and  C_9
    4  A    between atoms: C_8  and  O_18
    5  A    between atoms: O_18  and  C_30
                            x       y       z     vdW  Elec       q    Type
                         _______ _______ _______ _____ _____    ______ ____

>  <TORSDO>
F 5

$$$$
=
 OpenBabel11062409323D

 34 38  0  0  1  0  0  0  0  0999 V2000
  160.4810  211.2250  153.2230 C   0  0  2  0  0  3  0  0  0  0  0  0
  156.9730  212.7220  154.2350 C   0  0  0  0  0  2  0  0  0  0  0  0
  155.8430  214.2380  151.5650 C   0  0  0  0  0  0  0  0  0  0  0  0
  158.8470  211.8620  155.5170 O   0  0  0  0  0  0  0  0  0  0  0  0
  162.2780  210.5960  154.8680 C   0  0  0  0  0  3  0  0  0  0  0  0
  161.9140  210.7490  157.2580 C   0  0  0  0  0  3  0  0  0  0  0  0
  155.7740  214.1260  150.1460 N   0  0  0  0  0  1  0  0  0  0  0  0
  162.7430  210.4380  156.1770 C   0  0  0  0  0  3  0  0  0  0  0  0
  160.1420  211.3730  155.7290 C   0  0  0  0  0  0  0  0  0  0  0  0
  160.9800  211.0650  154.6360 C   0  0  0  0  0  0  0  0  0  0  0  0
  160.6160  211.2170  157.0340 C   0  0  0  0  0  3  0  0  0  0  0  0
  157.1600  214.1360  153.7000 C   0  0  0  0  0  2  0  0  0  0  0  0
  154.7860  214.4500  152.2170 O   0  0  0  0  0  0  0  0  0  0  0  0
  157.1010  214.1110  152.2430 N   0  0  0  0  0  0  0  0  0  0  0  0
  158.3120  213.8030  151.4930 C   0  0  0  0  0  2  0  0  0  0  0  0
  158.2520  211.8770  154.2210 C   0  0  2  0  0  3  0  0  0  0  0  0
  158.7480  212.3660  151.7420 C   0  0  0  0  0  2  0  0  0  0  0  0
  159.3110  212.2260  153.1540 C   0  0  2  0  0  3  0  0  0  0  0  0
  160.1900  209.8710  152.5540 C   0  0  0  0  0  2  0  0  0  0  0  0
  161.3150  209.4150  151.6310 C   0  0  0  0  0  2  0  0  0  0  0  0
  161.9770  208.3160  152.1860 O   0  0  0  0  0  0  0  0  0  0  0  0
  161.3530  204.9780  150.5770 C   0  0  0  0  0  2  0  0  0  0  0  0
  161.3730  207.9250  149.8820 C   0  0  0  0  0  2  0  0  0  0  0  0
  161.1610  205.0750  146.7110 C   0  0  1  0  0  3  0  0  0  0  0  0
  161.1290  204.4770  148.1260 C   0  0  0  0  0  2  0  0  0  0  0  0
  161.5790  205.5050  149.1560 C   0  0  1  0  0  3  0  0  0  0  0  0
  161.0400  207.2590  147.4840 C   0  0  0  0  0  2  0  0  0  0  0  0
  160.8520  206.8330  148.9360 C   0  0  2  0  0  3  0  0  0  0  0  0
  160.4690  206.3080  146.6090 O   0  0  0  0  0  0  0  0  0  0  0  0
  161.9850  207.3550  151.1710 C   0  0  2  0  0  3  0  0  0  0  0  0
  161.2500  206.0960  151.6260 C   0  0  0  0  0  2  0  0  0  0  0  0
  162.5240  205.1020  146.0810 C   0  0  0  0  0  0  0  0  0  0  0  0
  162.6980  205.7390  145.0110 O   0  0  0  0  0  0  0  0  0  0  0  0
  163.6270  204.4350  146.6880 N   0  0  0  0  0  1  0  0  0  0  0  0
  1 19  1  1  0  0  0
  1 10  1  0  0  0  0
  3 13  2  0  0  0  0
  3 14  1  0  0  0  0
  4  9  1  0  0  0  0
  5  8  1  0  0  0  0
  7  3  1  0  0  0  0
  8  6  2  0  0  0  0
  9 11  2  0  0  0  0
 10  5  2  0  0  0  0
 10  9  1  0  0  0  0
 11  6  1  0  0  0  0
 12  2  1  0  0  0  0
 14 12  1  0  0  0  0
 15 17  1  0  0  0  0
 15 14  1  0  0  0  0
 16  2  1  1  0  0  0
 16  4  1  0  0  0  0
 18 17  1  6  0  0  0
 18  1  1  0  0  0  0
 18 16  1  0  0  0  0
 20 21  1  0  0  0  0
 20 19  1  0  0  0  0
 22 31  1  0  0  0  0
 23 30  1  0  0  0  0
 24 32  1  1  0  0  0
 24 25  1  0  0  0  0
 26 25  1  6  0  0  0
 26 22  1  0  0  0  0
 28 27  1  6  0  0  0
 28 26  1  0  0  0  0
 28 23  1  0  0  0  0
 29 24  1  0  0  0  0
 29 27  1  0  0  0  0
 30 31  1  0  0  0  0
 30 21  1  1  0  0  0
 32 34  1  0  0  0  0
 33 32  2  0  0  0  0
M  END
>  <MODEL>
3

>  <REMARK>
 VINA RESULT:      -7.9      4.248      7.660
  Name = 
  5 active torsions:
  status: ('A' for Active; 'I' for Inactive)
    1  A    between atoms: C_1  and  C_9
    2  A    between atoms: C_7  and  C_11
    3  A    between atoms: C_8  and  C_9
    4  A    between atoms: C_8  and  O_18
    5  A    between atoms: O_18  and  C_30
                            x       y       z     vdW  Elec       q    Type
                         _______ _______ _______ _____ _____    ______ ____

>  <TORSDO>
F 5

$$$$
=
 OpenBabel11062409323D

 34 38  0  0  1  0  0  0  0  0999 V2000
  161.0870  208.1920  151.5460 C   0  0  2  0  0  3  0  0  0  0  0  0
  161.7430  204.3140  151.2320 C   0  0  0  0  0  2  0  0  0  0  0  0
  161.3680  203.5960  148.0630 C   0  0  0  0  0  0  0  0  0  0  0  0
  161.2810  205.7770  153.1150 O   0  0  0  0  0  0  0  0  0  0  0  0
  160.4480  209.3500  153.6870 C   0  0  0  0  0  3  0  0  0  0  0  0
  160.3170  208.1470  155.7850 C   0  0  0  0  0  3  0  0  0  0  0  0
  161.6220  204.0970  146.7530 N   0  0  0  0  0  1  0  0  0  0  0  0
  160.2010  209.3380  155.0620 C   0  0  0  0  0  3  0  0  0  0  0  0
  160.9360  206.9710  153.7590 C   0  0  0  0  0  0  0  0  0  0  0  0
  160.8130  208.1710  153.0280 C   0  0  0  0  0  0  0  0  0  0  0  0
  160.6820  206.9650  155.1340 C   0  0  0  0  0  3  0  0  0  0  0  0
  160.5220  203.9370  150.4020 C   0  0  0  0  0  2  0  0  0  0  0  0
  161.7310  202.4260  148.3560 O   0  0  0  0  0  0  0  0  0  0  0  0
  160.7040  204.4150  149.0360 N   0  0  0  0  0  0  0  0  0  0  0  0
  160.3420  205.7900  148.7150 C   0  0  0  0  0  2  0  0  0  0  0  0
  161.7180  205.7540  151.7570 C   0  0  2  0  0  3  0  0  0  0  0  0
  161.2550  206.7700  149.4380 C   0  0  0  0  0  2  0  0  0  0  0  0
  160.9290  206.7890  150.9280 C   0  0  2  0  0  3  0  0  0  0  0  0
  162.4220  208.8790  151.2130 C   0  0  0  0  0  2  0  0  0  0  0  0
  162.2610  210.3640  150.9020 C   0  0  0  0  0  2  0  0  0  0  0  0
  162.6320  210.6210  149.5790 O   0  0  0  0  0  0  0  0  0  0  0  0
  160.0640  213.3640  149.5250 C   0  0  0  0  0  2  0  0  0  0  0  0
  161.9460  211.9060  147.6550 C   0  0  0  0  0  2  0  0  0  0  0  0
  158.9590  214.4530  145.9780 C   0  0  1  0  0  3  0  0  0  0  0  0
  159.0200  214.4450  147.5130 C   0  0  0  0  0  2  0  0  0  0  0  0
  159.8320  213.2590  148.0140 C   0  0  1  0  0  3  0  0  0  0  0  0
  160.8660  213.1510  145.7600 C   0  0  0  0  0  2  0  0  0  0  0  0
  161.1580  213.1620  147.2560 C   0  0  2  0  0  3  0  0  0  0  0  0
  160.2350  214.3520  145.3670 O   0  0  0  0  0  0  0  0  0  0  0  0
  161.5940  211.4030  149.0630 C   0  0  2  0  0  3  0  0  0  0  0  0
  161.2840  212.5630  150.0070 C   0  0  0  0  0  2  0  0  0  0  0  0
  157.9410  213.5160  145.3940 C   0  0  0  0  0  0  0  0  0  0  0  0
  157.9110  213.3340  144.1500 O   0  0  0  0  0  0  0  0  0  0  0  0
  157.0250  212.8150  146.2290 N   0  0  0  0  0  1  0  0  0  0  0  0
  1 19  1  1  0  0  0
  1 10  1  0  0  0  0
  3 13  2  0  0  0  0
  3 14  1  0  0  0  0
  4  9  1  0  0  0  0
  5  8  1  0  0  0  0
  7  3  1  0  0  0  0
  8  6  2  0  0  0  0
  9 11  2  0  0  0  0
 10  5  2  0  0  0  0
 10  9  1  0  0  0  0
 11  6  1  0  0  0  0
 12  2  1  0  0  0  0
 14 12  1  0  0  0  0
 15 14  1  0  0  0  0
 15 17  1  0  0  0  0
 16  2  1  6  0  0  0
 16  4  1  0  0  0  0
 18 17  1  6  0  0  0
 18  1  1  0  0  0  0
 18 16  1  0  0  0  0
 20 19  1  0  0  0  0
 21 20  1  0  0  0  0
 22 31  1  0  0  0  0
 23 30  1  0  0  0  0
 24 32  1  6  0  0  0
 24 25  1  0  0  0  0
 26 25  1  6  0  0  0
 26 22  1  0  0  0  0
 28 27  1  6  0  0  0
 28 23  1  0  0  0  0
 28 26  1  0  0  0  0
 29 27  1  0  0  0  0
 29 24  1  0  0  0  0
 30 21  1  1  0  0  0
 30 31  1  0  0  0  0
 32 34  1  0  0  0  0
 33 32  2  0  0  0  0
M  END
>  <MODEL>
4

>  <REMARK>
 VINA RESULT:      -7.7      1.223      1.314
  Name = 
  5 active torsions:
  status: ('A' for Active; 'I' for Inactive)
    1  A    between atoms: C_1  and  C_9
    2  A    between atoms: C_7  and  C_11
    3  A    between atoms: C_8  and  C_9
    4  A    between atoms: C_8  and  O_18
    5  A    between atoms: O_18  and  C_30
                            x       y       z     vdW  Elec       q    Type
                         _______ _______ _______ _____ _____    ______ ____

>  <TORSDO>
F 5

$$$$
=
 OpenBabel11062409323D

 34 38  0  0  1  0  0  0  0  0999 V2000
  161.6740  206.5410  149.9700 C   0  0  2  0  0  3  0  0  0  0  0  0
  160.4870  206.0070  146.2460 C   0  0  0  0  0  2  0  0  0  0  0  0
  160.8310  202.8100  145.6460 C   0  0  0  0  0  0  0  0  0  0  0  0
  161.1050  207.9740  147.5290 O   0  0  0  0  0  0  0  0  0  0  0  0
  162.4190  208.7510  150.9140 C   0  0  0  0  0  3  0  0  0  0  0  0
  162.3310  210.7830  149.5990 C   0  0  0  0  0  3  0  0  0  0  0  0
  160.6790  201.5250  146.2440 N   0  0  0  0  0  1  0  0  0  0  0  0
  162.6300  210.1280  150.7970 C   0  0  0  0  0  3  0  0  0  0  0  0
  161.6000  208.6870  148.6270 C   0  0  0  0  0  0  0  0  0  0  0  0
  161.9080  208.0240  149.8340 C   0  0  0  0  0  0  0  0  0  0  0  0
  161.8190  210.0630  148.5150 C   0  0  0  0  0  3  0  0  0  0  0  0
  161.6610  205.1770  145.7430 C   0  0  0  0  0  2  0  0  0  0  0  0
  160.3000  203.0330  144.5260 O   0  0  0  0  0  0  0  0  0  0  0  0
  161.5810  203.8370  146.3110 N   0  0  0  0  0  0  0  0  0  0  0  0
  162.1400  203.5960  147.6360 C   0  0  0  0  0  2  0  0  0  0  0  0
  160.7010  206.6100  147.6390 C   0  0  2  0  0  3  0  0  0  0  0  0
  161.3570  204.3560  148.6960 C   0  0  0  0  0  2  0  0  0  0  0  0
  161.6470  205.8510  148.5920 C   0  0  2  0  0  3  0  0  0  0  0  0
  160.4570  206.2250  150.8550 C   0  0  0  0  0  2  0  0  0  0  0  0
  160.8310  205.4660  152.1250 C   0  0  0  0  0  2  0  0  0  0  0  0
  161.7520  206.2060  152.8730 O   0  0  0  0  0  0  0  0  0  0  0  0
  159.8580  207.4640  155.8650 C   0  0  0  0  0  2  0  0  0  0  0  0
  161.5820  208.5010  153.6030 C   0  0  0  0  0  2  0  0  0  0  0  0
  159.4240  211.3090  155.9850 C   0  0  1  0  0  3  0  0  0  0  0  0
  159.3060  209.8460  156.4380 C   0  0  0  0  0  2  0  0  0  0  0  0
  159.7820  208.9020  155.3420 C   0  0  1  0  0  3  0  0  0  0  0  0
  161.0180  210.8230  154.3720 C   0  0  0  0  0  2  0  0  0  0  0  0
  161.1340  209.3630  154.7920 C   0  0  2  0  0  3  0  0  0  0  0  0
  160.7090  211.6380  155.4840 O   0  0  0  0  0  0  0  0  0  0  0  0
  160.9720  207.0900  153.6240 C   0  0  2  0  0  3  0  0  0  0  0  0
  160.8140  206.5750  155.0540 C   0  0  0  0  0  2  0  0  0  0  0  0
  158.3010  211.7760  155.1030 C   0  0  0  0  0  0  0  0  0  0  0  0
  157.2590  211.0780  155.0090 O   0  0  0  0  0  0  0  0  0  0  0  0
  158.3890  213.0050  154.3910 N   0  0  0  0  0  1  0  0  0  0  0  0
  1 19  1  6  0  0  0
  3  7  1  0  0  0  0
  3 14  1  0  0  0  0
  4 16  1  0  0  0  0
  4  9  1  0  0  0  0
  6  8  2  0  0  0  0
  8  5  1  0  0  0  0
  9 10  1  0  0  0  0
 10  1  1  0  0  0  0
 10  5  2  0  0  0  0
 11  9  2  0  0  0  0
 11  6  1  0  0  0  0
 12  2  1  0  0  0  0
 12 14  1  0  0  0  0
 13  3  2  0  0  0  0
 14 15  1  0  0  0  0
 15 17  1  0  0  0  0
 16  2  1  6  0  0  0
 16 18  1  0  0  0  0
 18 17  1  1  0  0  0
 18  1  1  0  0  0  0
 19 20  1  0  0  0  0
 20 21  1  0  0  0  0
 23 30  1  0  0  0  0
 24 32  1  6  0  0  0
 24 25  1  0  0  0  0
 26 22  1  1  0  0  0
 26 25  1  0  0  0  0
 27 28  1  0  0  0  0
 27 29  1  0  0  0  0
 28 23  1  6  0  0  0
 28 26  1  0  0  0  0
 29 24  1  0  0  0  0
 30 21  1  6  0  0  0
 30 31  1  0  0  0  0
 31 22  1  0  0  0  0
 33 32  2  0  0  0  0
 34 32  1  0  0  0  0
M  END
>  <MODEL>
5

>  <REMARK>
 VINA RESULT:      -7.1      3.548      7.208
  Name = 
  5 active torsions:
  status: ('A' for Active; 'I' for Inactive)
    1  A    between atoms: C_1  and  C_9
    2  A    between atoms: C_7  and  C_11
    3  A    between atoms: C_8  and  C_9
    4  A    between atoms: C_8  and  O_18
    5  A    between atoms: O_18  and  C_30
                            x       y       z     vdW  Elec       q    Type
                         _______ _______ _______ _____ _____    ______ ____

>  <TORSDO>
F 5

$$$$
=
 OpenBabel11062409323D

 34 38  0  0  1  0  0  0  0  0999 V2000
  159.9220  211.4590  152.0450 C   0  0  2  0  0  3  0  0  0  0  0  0
  158.0090  214.3690  153.9010 C   0  0  0  0  0  2  0  0  0  0  0  0
  155.9600  212.9050  155.9890 C   0  0  0  0  0  0  0  0  0  0  0  0
  159.3480  214.2830  151.8770 O   0  0  0  0  0  0  0  0  0  0  0  0
  161.0740  211.7150  149.8230 C   0  0  0  0  0  3  0  0  0  0  0  0
  161.2020  213.8600  148.7050 C   0  0  0  0  0  3  0  0  0  0  0  0
  155.8560  211.7980  156.8820 N   0  0  0  0  0  1  0  0  0  0  0  0
  161.4930  212.4930  148.7400 C   0  0  0  0  0  3  0  0  0  0  0  0
  160.0750  213.6820  150.8420 C   0  0  0  0  0  0  0  0  0  0  0  0
  160.3630  212.3010  150.8760 C   0  0  0  0  0  0  0  0  0  0  0  0
  160.4930  214.4530  149.7540 C   0  0  0  0  0  3  0  0  0  0  0  0
  156.5860  213.8480  153.7480 C   0  0  0  0  0  2  0  0  0  0  0  0
  155.6660  214.0580  156.4010 O   0  0  0  0  0  0  0  0  0  0  0  0
  156.3940  212.7060  154.6350 N   0  0  0  0  0  0  0  0  0  0  0  0
  156.7940  211.3820  154.1790 C   0  0  0  0  0  2  0  0  0  0  0  0
  159.0490  213.5900  153.0870 C   0  0  2  0  0  3  0  0  0  0  0  0
  158.3040  211.3040  154.0090 C   0  0  0  0  0  2  0  0  0  0  0  0
  158.7360  212.1090  152.7870 C   0  0  2  0  0  3  0  0  0  0  0  0
  161.0980  211.0720  152.9580 C   0  0  0  0  0  2  0  0  0  0  0  0
  161.4630  209.5940  152.8550 C   0  0  0  0  0  2  0  0  0  0  0  0
  162.5710  209.4300  152.0170 O   0  0  0  0  0  0  0  0  0  0  0  0
  161.1870  205.9800  151.4690 C   0  0  0  0  0  2  0  0  0  0  0  0
  161.7860  208.5150  149.9260 C   0  0  0  0  0  2  0  0  0  0  0  0
  160.8290  204.9710  147.7480 C   0  0  1  0  0  3  0  0  0  0  0  0
  160.7430  204.8380  149.2760 C   0  0  0  0  0  2  0  0  0  0  0  0
  161.4480  206.0030  149.9590 C   0  0  1  0  0  3  0  0  0  0  0  0
  161.2040  207.2590  147.8320 C   0  0  0  0  0  2  0  0  0  0  0  0
  161.0030  207.3310  149.3410 C   0  0  2  0  0  3  0  0  0  0  0  0
  160.4040  206.2370  147.2720 O   0  0  0  0  0  0  0  0  0  0  0  0
  162.3290  208.2340  151.3360 C   0  0  2  0  0  3  0  0  0  0  0  0
  161.3700  207.3520  152.1350 C   0  0  0  0  0  2  0  0  0  0  0  0
  162.1350  204.5190  147.1600 C   0  0  0  0  0  0  0  0  0  0  0  0
  162.6200  203.4130  147.5110 O   0  0  0  0  0  0  0  0  0  0  0  0
  162.8200  205.3120  146.1970 N   0  0  0  0  0  1  0  0  0  0  0  0
  1 18  1  0  0  0  0
  1 19  1  1  0  0  0
  3 13  2  0  0  0  0
  3  7  1  0  0  0  0
  4 16  1  0  0  0  0
  5 10  1  0  0  0  0
  6  8  1  0  0  0  0
  6 11  2  0  0  0  0
  8  5  2  0  0  0  0
  9 10  2  0  0  0  0
  9  4  1  0  0  0  0
 10  1  1  0  0  0  0
 11  9  1  0  0  0  0
 12  2  1  0  0  0  0
 12 14  1  0  0  0  0
 14  3  1  0  0  0  0
 15 14  1  0  0  0  0
 16  2  1  6  0  0  0
 17 15  1  0  0  0  0
 18 16  1  0  0  0  0
 18 17  1  1  0  0  0
 20 19  1  0  0  0  0
 21 20  1  0  0  0  0
 22 31  1  0  0  0  0
 23 30  1  0  0  0  0
 24 32  1  1  0  0  0
 24 25  1  0  0  0  0
 26 25  1  6  0  0  0
 26 22  1  0  0  0  0
 28 27  1  6  0  0  0
 28 23  1  0  0  0  0
 28 26  1  0  0  0  0
 29 24  1  0  0  0  0
 29 27  1  0  0  0  0
 30 21  1  1  0  0  0
 30 31  1  0  0  0  0
 32 33  2  0  0  0  0
 34 32  1  0  0  0  0
M  END
>  <MODEL>
6

>  <REMARK>
 VINA RESULT:      -6.6      4.171      8.424
  Name = 
  5 active torsions:
  status: ('A' for Active; 'I' for Inactive)
    1  A    between atoms: C_1  and  C_9
    2  A    between atoms: C_7  and  C_11
    3  A    between atoms: C_8  and  C_9
    4  A    between atoms: C_8  and  O_18
    5  A    between atoms: O_18  and  C_30
                            x       y       z     vdW  Elec       q    Type
                         _______ _______ _______ _____ _____    ______ ____

>  <TORSDO>
F 5

$$$$
=
 OpenBabel11062409323D

 34 38  0  0  1  0  0  0  0  0999 V2000
  161.2060  207.4880  150.3830 C   0  0  2  0  0  3  0  0  0  0  0  0
  162.0640  204.1720  148.4250 C   0  0  0  0  0  2  0  0  0  0  0  0
  161.4450  204.8060  145.2760 C   0  0  0  0  0  0  0  0  0  0  0  0
  161.6890  204.6680  150.7720 O   0  0  0  0  0  0  0  0  0  0  0  0
  160.6960  207.5850  152.8460 C   0  0  0  0  0  3  0  0  0  0  0  0
  160.8310  205.6120  154.2430 C   0  0  0  0  0  3  0  0  0  0  0  0
  161.5480  205.8280  144.2870 N   0  0  0  0  0  1  0  0  0  0  0  0
  160.5770  206.9790  154.0990 C   0  0  0  0  0  3  0  0  0  0  0  0
  161.3320  205.4480  151.8790 C   0  0  0  0  0  0  0  0  0  0  0  0
  161.0700  206.8270  151.7310 C   0  0  0  0  0  0  0  0  0  0  0  0
  161.2060  204.8480  153.1350 C   0  0  0  0  0  3  0  0  0  0  0  0
  160.7980  204.0630  147.5850 C   0  0  0  0  0  2  0  0  0  0  0  0
  161.9040  203.6600  145.0260 O   0  0  0  0  0  0  0  0  0  0  0  0
  160.8240  205.0800  146.5410 N   0  0  0  0  0  0  0  0  0  0  0  0
  160.3520  206.4230  146.8510 C   0  0  0  0  0  2  0  0  0  0  0  0
  162.0010  205.2540  149.5090 C   0  0  2  0  0  3  0  0  0  0  0  0
  161.2660  207.0940  147.8660 C   0  0  0  0  0  2  0  0  0  0  0  0
  161.0770  206.4610  149.2410 C   0  0  2  0  0  3  0  0  0  0  0  0
  162.4610  208.3730  150.2950 C   0  0  0  0  0  2  0  0  0  0  0  0
  162.4640  209.4970  151.3250 C   0  0  0  0  0  2  0  0  0  0  0  0
  161.6630  210.5560  150.8840 O   0  0  0  0  0  0  0  0  0  0  0  0
  160.5190  210.8340  154.4530 C   0  0  0  0  0  2  0  0  0  0  0  0
  160.0810  212.1530  151.7630 C   0  0  0  0  0  2  0  0  0  0  0  0
  157.4410  213.1240  154.9720 C   0  0  1  0  0  3  0  0  0  0  0  0
  158.5960  212.1830  155.3430 C   0  0  0  0  0  2  0  0  0  0  0  0
  159.2450  211.6060  154.0920 C   0  0  1  0  0  3  0  0  0  0  0  0
  158.2560  213.5030  152.8340 C   0  0  0  0  0  2  0  0  0  0  0  0
  159.5380  212.7180  153.0830 C   0  0  2  0  0  3  0  0  0  0  0  0
  157.8070  214.1150  154.0260 O   0  0  0  0  0  0  0  0  0  0  0  0
  160.7730  210.7920  151.9350 C   0  0  2  0  0  3  0  0  0  0  0  0
  161.4990  210.7030  153.2760 C   0  0  0  0  0  2  0  0  0  0  0  0
  156.1560  212.4230  154.6360 C   0  0  0  0  0  0  0  0  0  0  0  0
  155.2660  213.0380  153.9940 O   0  0  0  0  0  0  0  0  0  0  0  0
  155.9380  211.0680  155.0140 N   0  0  0  0  0  1  0  0  0  0  0  0
  1 19  1  1  0  0  0
  1 10  1  0  0  0  0
  3 14  1  0  0  0  0
  4  9  1  0  0  0  0
  5  8  1  0  0  0  0
  7  3  1  0  0  0  0
  8  6  2  0  0  0  0
  9 11  2  0  0  0  0
 10  9  1  0  0  0  0
 10  5  2  0  0  0  0
 11  6  1  0  0  0  0
 12  2  1  0  0  0  0
 13  3  2  0  0  0  0
 14 15  1  0  0  0  0
 14 12  1  0  0  0  0
 15 17  1  0  0  0  0
 16  2  1  6  0  0  0
 16  4  1  0  0  0  0
 18 17  1  6  0  0  0
 18 16  1  0  0  0  0
 18  1  1  0  0  0  0
 19 20  1  0  0  0  0
 21 20  1  0  0  0  0
 23 30  1  0  0  0  0
 24 32  1  6  0  0  0
 24 25  1  0  0  0  0
 26 22  1  1  0  0  0
 26 25  1  0  0  0  0
 27 28  1  0  0  0  0
 27 29  1  0  0  0  0
 28 23  1  6  0  0  0
 28 26  1  0  0  0  0
 29 24  1  0  0  0  0
 30 21  1  6  0  0  0
 30 31  1  0  0  0  0
 31 22  1  0  0  0  0
 32 34  1  0  0  0  0
 33 32  2  0  0  0  0
M  END
>  <MODEL>
7

>  <REMARK>
 VINA RESULT:      -6.6      3.939      5.810
  Name = 
  5 active torsions:
  status: ('A' for Active; 'I' for Inactive)
    1  A    between atoms: C_1  and  C_9
    2  A    between atoms: C_7  and  C_11
    3  A    between atoms: C_8  and  C_9
    4  A    between atoms: C_8  and  O_18
    5  A    between atoms: O_18  and  C_30
                            x       y       z     vdW  Elec       q    Type
                         _______ _______ _______ _____ _____    ______ ____

>  <TORSDO>
F 5

$$$$
=
 OpenBabel11062409323D

 34 38  0  0  1  0  0  0  0  0999 V2000
  161.1810  208.1400  151.0920 C   0  0  2  0  0  3  0  0  0  0  0  0
  162.0380  204.5340  149.7380 C   0  0  0  0  0  2  0  0  0  0  0  0
  161.5570  204.6540  146.5050 C   0  0  0  0  0  0  0  0  0  0  0  0
  161.5840  205.4150  151.9550 O   0  0  0  0  0  0  0  0  0  0  0  0
  160.5790  208.6470  153.4820 C   0  0  0  0  0  3  0  0  0  0  0  0
  160.6140  206.9280  155.1870 C   0  0  0  0  0  3  0  0  0  0  0  0
  161.7210  205.4980  145.3680 N   0  0  0  0  0  1  0  0  0  0  0  0
  160.3970  208.2570  154.8110 C   0  0  0  0  0  3  0  0  0  0  0  0
  161.2020  206.3710  152.9040 C   0  0  0  0  0  0  0  0  0  0  0  0
  160.9780  207.7110  152.5220 C   0  0  0  0  0  0  0  0  0  0  0  0
  161.0140  205.9860  154.2350 C   0  0  0  0  0  3  0  0  0  0  0  0
  160.8040  204.3090  148.8750 C   0  0  0  0  0  2  0  0  0  0  0  0
  161.9980  203.4750  146.4650 O   0  0  0  0  0  0  0  0  0  0  0  0
  160.8940  205.1410  147.6810 N   0  0  0  0  0  0  0  0  0  0  0  0
  160.4410  206.5250  147.7480 C   0  0  0  0  0  2  0  0  0  0  0  0
  161.9580  205.7800  150.6280 C   0  0  2  0  0  3  0  0  0  0  0  0
  161.3300  207.3380  148.6770 C   0  0  0  0  0  2  0  0  0  0  0  0
  161.0730  206.9420  150.1280 C   0  0  2  0  0  3  0  0  0  0  0  0
  162.4590  208.9770  150.9130 C   0  0  0  0  0  2  0  0  0  0  0  0
  162.3040  210.4060  151.4240 C   0  0  0  0  0  2  0  0  0  0  0  0
  161.4860  211.1400  150.5580 O   0  0  0  0  0  0  0  0  0  0  0  0
  159.3860  214.1170  151.4800 C   0  0  0  0  0  2  0  0  0  0  0  0
  159.7240  211.1980  152.2080 C   0  0  0  0  0  2  0  0  0  0  0  0
  157.2850  213.6590  154.6990 C   0  0  1  0  0  3  0  0  0  0  0  0
  157.8400  214.3510  153.4460 C   0  0  0  0  0  2  0  0  0  0  0  0
  158.9720  213.5350  152.8360 C   0  0  1  0  0  3  0  0  0  0  0  0
  158.0770  211.5730  154.0650 C   0  0  0  0  0  2  0  0  0  0  0  0
  158.5610  212.0670  152.7060 C   0  0  2  0  0  3  0  0  0  0  0  0
  156.9400  212.3010  154.4820 O   0  0  0  0  0  0  0  0  0  0  0  0
  160.7570  211.9920  151.3930 C   0  0  2  0  0  3  0  0  0  0  0  0
  160.0890  213.0950  150.5730 C   0  0  0  0  0  2  0  0  0  0  0  0
  158.1030  213.8770  155.9400 C   0  0  0  0  0  0  0  0  0  0  0  0
  159.2170  214.4530  155.8520 O   0  0  0  0  0  0  0  0  0  0  0  0
  157.6260  213.4610  157.2160 N   0  0  0  0  0  1  0  0  0  0  0  0
  1 19  1  1  0  0  0
  1 10  1  0  0  0  0
  3 14  1  0  0  0  0
  4  9  1  0  0  0  0
  5  8  1  0  0  0  0
  7  3  1  0  0  0  0
  8  6  2  0  0  0  0
  9 11  2  0  0  0  0
 10  9  1  0  0  0  0
 10  5  2  0  0  0  0
 11  6  1  0  0  0  0
 12  2  1  0  0  0  0
 13  3  2  0  0  0  0
 14 15  1  0  0  0  0
 14 12  1  0  0  0  0
 15 17  1  0  0  0  0
 16  2  1  6  0  0  0
 16  4  1  0  0  0  0
 18 17  1  6  0  0  0
 18 16  1  0  0  0  0
 18  1  1  0  0  0  0
 19 20  1  0  0  0  0
 21 20  1  0  0  0  0
 24 32  1  1  0  0  0
 25 24  1  0  0  0  0
 26 22  1  6  0  0  0
 26 25  1  0  0  0  0
 27 29  1  0  0  0  0
 28 23  1  1  0  0  0
 28 26  1  0  0  0  0
 28 27  1  0  0  0  0
 29 24  1  0  0  0  0
 30 21  1  6  0  0  0
 30 23  1  0  0  0  0
 31 30  1  0  0  0  0
 31 22  1  0  0  0  0
 32 34  1  0  0  0  0
 33 32  2  0  0  0  0
M  END
>  <MODEL>
8

>  <REMARK>
 VINA RESULT:      -6.2      3.615      5.674
  Name = 
  5 active torsions:
  status: ('A' for Active; 'I' for Inactive)
    1  A    between atoms: C_1  and  C_9
    2  A    between atoms: C_7  and  C_11
    3  A    between atoms: C_8  and  C_9
    4  A    between atoms: C_8  and  O_18
    5  A    between atoms: O_18  and  C_30
                            x       y       z     vdW  Elec       q    Type
                         _______ _______ _______ _____ _____    ______ ____

>  <TORSDO>
F 5

$$$$
=
 OpenBabel11062409323D

 34 38  0  0  1  0  0  0  0  0999 V2000
  161.1300  207.4630  150.1980 C   0  0  2  0  0  3  0  0  0  0  0  0
  161.7990  203.7830  151.4530 C   0  0  0  0  0  2  0  0  0  0  0  0
  161.1320  201.8340  148.9120 C   0  0  0  0  0  0  0  0  0  0  0  0
  161.5030  205.9030  152.5990 O   0  0  0  0  0  0  0  0  0  0  0  0
  160.6850  209.4170  151.7190 C   0  0  0  0  0  3  0  0  0  0  0  0
  160.7700  209.1890  154.1280 C   0  0  0  0  0  3  0  0  0  0  0  0
  161.2540  201.7430  147.4940 N   0  0  0  0  0  1  0  0  0  0  0  0
  160.5710  209.9800  152.9930 C   0  0  0  0  0  3  0  0  0  0  0  0
  161.2060  207.2660  152.7210 C   0  0  0  0  0  0  0  0  0  0  0  0
  161.0000  208.0610  151.5750 C   0  0  0  0  0  0  0  0  0  0  0  0
  161.0850  207.8340  153.9930 C   0  0  0  0  0  3  0  0  0  0  0  0
  160.5100  203.1320  150.9690 C   0  0  0  0  0  2  0  0  0  0  0  0
  161.5350  200.8790  149.6260 O   0  0  0  0  0  0  0  0  0  0  0  0
  160.5540  203.0000  149.5170 N   0  0  0  0  0  0  0  0  0  0  0  0
  160.1460  204.1300  148.6920 C   0  0  0  0  0  2  0  0  0  0  0  0
  161.8080  205.3110  151.3370 C   0  0  2  0  0  3  0  0  0  0  0  0
  161.1130  205.2940  148.8590 C   0  0  0  0  0  2  0  0  0  0  0  0
  160.9310  205.9350  150.2310 C   0  0  2  0  0  3  0  0  0  0  0  0
  162.4190  207.9130  149.4900 C   0  0  0  0  0  2  0  0  0  0  0  0
  162.1490  208.8070  148.2840 C   0  0  0  0  0  2  0  0  0  0  0  0
  162.8460  210.0120  148.4130 O   0  0  0  0  0  0  0  0  0  0  0  0
  161.3290  213.3150  149.3660 C   0  0  0  0  0  2  0  0  0  0  0  0
  161.2160  211.2610  147.1450 C   0  0  0  0  0  2  0  0  0  0  0  0
  158.2660  214.3440  147.2330 C   0  0  1  0  0  3  0  0  0  0  0  0
  159.3530  214.4530  148.3130 C   0  0  0  0  0  2  0  0  0  0  0  0
  160.1190  213.1440  148.4400 C   0  0  1  0  0  3  0  0  0  0  0  0
  159.3170  212.5760  146.1610 C   0  0  0  0  0  2  0  0  0  0  0  0
  160.5460  212.6400  147.0600 C   0  0  2  0  0  3  0  0  0  0  0  0
  158.7560  213.8620  145.9920 O   0  0  0  0  0  0  0  0  0  0  0  0
  161.8530  210.9900  148.5170 C   0  0  2  0  0  3  0  0  0  0  0  0
  162.4270  212.2680  149.1250 C   0  0  0  0  0  2  0  0  0  0  0  0
  157.0090  213.6590  147.6860 C   0  0  0  0  0  0  0  0  0  0  0  0
  155.9630  213.7670  146.9960 O   0  0  0  0  0  0  0  0  0  0  0  0
  156.9890  212.8710  148.8720 N   0  0  0  0  0  1  0  0  0  0  0  0
  1 19  1  1  0  0  0
  1 18  1  0  0  0  0
  1 10  1  0  0  0  0
  3 14  1  0  0  0  0
  3 13  2  0  0  0  0
  4  9  1  0  0  0  0
  5  8  1  0  0  0  0
  7  3  1  0  0  0  0
  8  6  2  0  0  0  0
  9 11  2  0  0  0  0
 10  5  2  0  0  0  0
 10  9  1  0  0  0  0
 11  6  1  0  0  0  0
 12  2  1  0  0  0  0
 14 12  1  0  0  0  0
 15 17  1  0  0  0  0
 15 14  1  0  0  0  0
 16  2  1  1  0  0  0
 16  4  1  0  0  0  0
 18 17  1  6  0  0  0
 18 16  1  0  0  0  0
 20 21  1  0  0  0  0
 20 19  1  0  0  0  0
 23 30  1  0  0  0  0
 24 32  1  1  0  0  0
 24 25  1  0  0  0  0
 26 25  1  6  0  0  0
 26 22  1  0  0  0  0
 28 27  1  6  0  0  0
 28 23  1  0  0  0  0
 28 26  1  0  0  0  0
 29 27  1  0  0  0  0
 29 24  1  0  0  0  0
 30 21  1  6  0  0  0
 30 31  1  0  0  0  0
 31 22  1  0  0  0  0
 32 34  1  0  0  0  0
 33 32  2  0  0  0  0
M  END
>  <MODEL>
9

>  <REMARK>
 VINA RESULT:      -6.0      2.112      2.618
  Name = 
  5 active torsions:
  status: ('A' for Active; 'I' for Inactive)
    1  A    between atoms: C_1  and  C_9
    2  A    between atoms: C_7  and  C_11
    3  A    between atoms: C_8  and  C_9
    4  A    between atoms: C_8  and  O_18
    5  A    between atoms: O_18  and  C_30
                            x       y       z     vdW  Elec       q    Type
                         _______ _______ _______ _____ _____    ______ ____

>  <TORSDO>
F 5

$$$$
