=
 OpenBabel11062408493D

 55 60  0  0  1  0  0  0  0  0999 V2000
  160.8750  204.5030  152.2760 C   0  0  1  0  0  3  0  0  0  0  0  0
  160.6640  206.4540  148.8350 C   0  0  2  0  0  0  0  0  0  0  0  0
  160.7920  204.1150  150.0040 C   0  0  0  0  0  2  0  0  0  0  0  0
  161.9740  208.4020  149.1310 C   0  0  1  0  0  0  0  0  0  0  0  0
  162.3420  206.3350  151.4030 O   0  0  0  0  0  0  0  0  0  0  0  0
  160.9300  207.5650  149.8450 C   0  0  2  0  0  3  0  0  0  0  0  0
  161.4630  205.1410  149.0840 C   0  0  1  0  0  3  0  0  0  0  0  0
  160.1280  204.7090  151.0930 O   0  0  0  0  0  0  0  0  0  0  0  0
  161.1260  207.1130  147.5300 C   0  0  0  0  0  2  0  0  0  0  0  0
  161.1430  203.0370  152.6030 C   0  0  0  0  0  1  0  0  0  0  0  0
  161.7870  204.5020  147.8840 O   0  0  0  0  0  1  0  0  0  0  0  0
  162.1570  208.0380  147.7920 O   0  0  0  0  0  0  0  0  0  0  0  0
  159.2940  206.1970  148.7490 O   0  0  0  0  0  1  0  0  0  0  0  0
  161.2340  207.1950  151.3060 C   0  0  0  0  0  2  0  0  0  0  0  0
  162.1970  209.8660  149.4880 C   0  0  2  0  0  0  0  0  0  0  0  0
  162.1190  205.4110  152.4490 C   0  0  1  0  0  3  0  0  0  0  0  0
  163.2530  208.8170  149.8410 C   0  0  0  0  0  2  0  0  0  0  0  0
  159.9510  211.4610  152.8030 C   0  0  0  0  0  3  0  0  0  0  0  0
  161.3920  210.4190  150.6320 C   0  0  0  0  0  0  0  0  0  0  0  0
  161.4480  209.7940  151.8850 C   0  0  0  0  0  3  0  0  0  0  0  0
  159.8890  212.0870  151.5560 C   0  0  0  0  0  3  0  0  0  0  0  0
  160.7270  210.3130  152.9670 C   0  0  0  0  0  3  0  0  0  0  0  0
  160.6030  211.5670  150.4730 C   0  0  0  0  0  3  0  0  0  0  0  0
  162.1630  206.0850  153.8220 C   0  0  0  0  0  2  0  0  0  0  0  0
  160.8360  206.7430  154.1640 C   0  0  0  0  0  2  0  0  0  0  0  0
  160.6020  206.6810  155.5980 N   0  0  0  0  0  2  0  0  0  0  0  0
  160.1530  209.0170  156.0380 C   0  0  0  0  0  1  0  0  0  0  0  0
  159.5520  207.6350  155.8950 C   0  0  0  0  0  2  0  0  0  0  0  0
  162.5470  210.7800  148.3200 C   0  0  0  0  0  2  0  0  0  0  0  0
  162.2290  212.1090  148.6200 O   0  0  0  0  0  0  0  0  0  0  0  0
  162.8510  214.1310  147.7390 O   0  0  0  0  0  1  0  0  0  0  0  0
  162.4790  212.8180  147.4400 C   0  0  2  0  0  3  0  0  0  0  0  0
  160.7330  211.7750  146.2470 O   0  0  0  0  0  0  0  0  0  0  0  0
  161.2550  212.8290  146.5800 C   0  0  0  0  0  0  0  0  0  0  0  0
  160.6430  214.1590  146.1870 C   0  0  2  0  0  3  0  0  0  0  0  0
  158.1790  213.6230  146.2340 C   0  0  0  0  0  3  0  0  0  0  0  0
  157.1920  213.0680  146.9540 C   0  0  0  0  0  3  0  0  0  0  0  0
  159.3770  214.2470  148.3740 C   0  0  0  0  0  2  0  0  0  0  0  0
  157.9850  214.3000  148.9910 C   0  0  0  0  0  2  0  0  0  0  0  0
  157.1630  213.1290  148.4590 C   0  0  0  0  0  2  0  0  0  0  0  0
  159.2910  214.4440  146.8550 C   0  0  1  0  0  3  0  0  0  0  0  0
  162.0210  214.4430  144.3130 C   0  0  0  0  0  1  0  0  0  0  0  0
  160.6200  214.4120  144.7260 N   0  0  0  0  0  0  0  0  0  0  0  0
  159.9310  213.3830  144.0180 N   0  0  0  0  0  0  0  0  0  0  0  0
  158.7860  213.9330  143.5210 O   0  0  0  0  0  1  0  0  0  0  0  0
  159.1670  213.5880  141.1430 O   0  0  0  0  0  1  0  0  0  0  0  0
  160.5730  211.4470  142.5880 C   0  0  0  0  0  2  0  0  0  0  0  0
  161.0770  210.9960  141.2070 C   0  0  0  0  0  2  0  0  0  0  0  0
  160.4850  213.7660  141.5740 C   0  0  2  0  0  3  0  0  0  0  0  0
  161.4490  213.3850  140.4450 C   0  0  0  0  0  2  0  0  0  0  0  0
  162.0750  211.9900  140.6060 C   0  0  2  0  0  3  0  0  0  0  0  0
  160.7540  212.9550  142.8620 C   0  0  1  0  0  3  0  0  0  0  0  0
  162.6360  211.5120  139.3000 C   0  0  0  0  0  0  0  0  0  0  0  0
  162.1540  210.4410  138.7570 N   0  0  0  0  0  2  0  0  0  0  0  0
  163.8200  212.1000  138.7600 N   0  0  0  0  0  1  0  0  0  0  0  0
  1 16  1  0  0  0  0
  1 10  1  6  0  0  0
  2 13  1  6  0  0  0
  2  7  1  0  0  0  0
  2  6  1  0  0  0  0
  3  8  1  0  0  0  0
  4 15  1  0  0  0  0
  4 17  1  1  0  0  0
  4  6  1  0  0  0  0
  5 16  1  0  0  0  0
  6 14  1  1  0  0  0
  7 11  1  6  0  0  0
  7  3  1  0  0  0  0
  8  1  1  0  0  0  0
  9 12  1  0  0  0  0
  9  2  1  0  0  0  0
 12  4  1  0  0  0  0
 14  5  1  0  0  0  0
 15 29  1  6  0  0  0
 15 17  1  0  0  0  0
 15 19  1  0  0  0  0
 16 24  1  1  0  0  0
 18 22  1  0  0  0  0
 19 20  1  0  0  0  0
 20 22  2  0  0  0  0
 21 18  2  0  0  0  0
 23 19  2  0  0  0  0
 23 21  1  0  0  0  0
 24 25  1  0  0  0  0
 25 26  1  0  0  0  0
 26 28  1  0  0  0  0
 28 27  1  0  0  0  0
 29 30  1  0  0  0  0
 32 31  1  1  0  0  0
 32 30  1  0  0  0  0
 33 34  2  0  0  0  0
 34 32  1  0  0  0  0
 35 34  1  6  0  0  0
 36 41  1  0  0  0  0
 36 37  2  0  0  0  0
 37 40  1  0  0  0  0
 38 39  1  0  0  0  0
 40 39  1  0  0  0  0
 41 35  1  6  0  0  0
 41 38  1  0  0  0  0
 42 43  1  0  0  0  0
 43 35  1  0  0  0  0
 44 43  1  0  0  0  0
 45 44  1  0  0  0  0
 47 52  1  0  0  0  0
 48 47  1  0  0  0  0
 49 46  1  6  0  0  0
 49 52  1  0  0  0  0
 50 51  1  0  0  0  0
 50 49  1  0  0  0  0
 51 53  1  6  0  0  0
 51 48  1  0  0  0  0
 52 44  1  1  0  0  0
 54 53  2  0  0  0  0
 55 53  1  0  0  0  0
M  END
>  <MODEL>
1

>  <REMARK>
 VINA RESULT:      -4.0      0.000      0.000
  Name = 
  15 active torsions:
  status: ('A' for Active; 'I' for Inactive)
    1  A    between atoms: N_3  and  C_25
    2  A    between atoms: N_3  and  C_38
    3  A    between atoms: C_10  and  C_48
    4  A    between atoms: C_19  and  C_37
    5  A    between atoms: C_19  and  C_45
    6  A    between atoms: C_26  and  C_45
    7  A    between atoms: C_27  and  C_51
    8  A    between atoms: C_29  and  C_38
    9  A    between atoms: C_29  and  C_53
   10  A    between atoms: N_33  and  N_49
   11  A    between atoms: N_33  and  C_52
   12  A    between atoms: C_35  and  O_40
   13  A    between atoms: C_35  and  C_51
   14  A    between atoms: C_37  and  O_40
   15  A    between atoms: C_45  and  N_49
                            x       y       z     vdW  Elec       q    Type
                         _______ _______ _______ _____ _____    ______ ____

>  <TORSDO>
F 15

$$$$
=
 OpenBabel11062408493D

 55 60  0  0  1  0  0  0  0  0999 V2000
  156.7750  213.4700  153.8490 C   0  0  1  0  0  3  0  0  0  0  0  0
  159.9730  213.0520  151.5480 C   0  0  2  0  0  0  0  0  0  0  0  0
  157.6120  214.1530  151.8100 C   0  0  0  0  0  2  0  0  0  0  0  0
  160.6730  210.8110  151.8410 C   0  0  1  0  0  0  0  0  0  0  0  0
  157.8750  211.3740  153.0340 O   0  0  0  0  0  0  0  0  0  0  0  0
  160.1930  212.0080  152.6390 C   0  0  2  0  0  3  0  0  0  0  0  0
  158.5040  213.1690  151.0450 C   0  0  1  0  0  3  0  0  0  0  0  0
  157.8420  214.1330  153.1990 O   0  0  0  0  0  0  0  0  0  0  0  0
  160.8730  212.5170  150.4290 C   0  0  0  0  0  2  0  0  0  0  0  0
  155.4010  214.0820  153.5860 C   0  0  0  0  0  1  0  0  0  0  0  0
  158.4520  213.5000  149.6880 O   0  0  0  0  0  1  0  0  0  0  0  0
  160.9570  211.1110  150.5040 O   0  0  0  0  0  0  0  0  0  0  0  0
  160.4600  214.2930  151.9630 O   0  0  0  0  0  1  0  0  0  0  0  0
  159.0770  211.7450  153.6620 C   0  0  0  0  0  2  0  0  0  0  0  0
  161.4880  209.7000  152.4900 C   0  0  2  0  0  0  0  0  0  0  0  0
  156.7900  211.9240  153.7540 C   0  0  1  0  0  3  0  0  0  0  0  0
  160.0470  209.4400  152.0480 C   0  0  0  0  0  2  0  0  0  0  0  0
  162.1990  209.9380  156.7350 C   0  0  0  0  0  3  0  0  0  0  0  0
  161.7270  209.8070  153.9720 C   0  0  0  0  0  0  0  0  0  0  0  0
  161.0730  208.9280  154.8450 C   0  0  0  0  0  3  0  0  0  0  0  0
  162.8520  210.8190  155.8710 C   0  0  0  0  0  3  0  0  0  0  0  0
  161.3060  208.9950  156.2230 C   0  0  0  0  0  3  0  0  0  0  0  0
  162.6160  210.7570  154.4940 C   0  0  0  0  0  3  0  0  0  0  0  0
  156.6140  211.2540  155.1180 C   0  0  0  0  0  2  0  0  0  0  0  0
  155.9670  212.1940  156.1220 C   0  0  0  0  0  2  0  0  0  0  0  0
  156.8530  212.3990  157.2580 N   0  0  0  0  0  2  0  0  0  0  0  0
  159.1810  212.9730  156.9400 C   0  0  0  0  0  1  0  0  0  0  0  0
  158.1490  211.8670  156.8830 C   0  0  0  0  0  2  0  0  0  0  0  0
  162.5650  209.0770  151.6100 C   0  0  0  0  0  2  0  0  0  0  0  0
  162.2260  207.7630  151.2700 O   0  0  0  0  0  0  0  0  0  0  0  0
  160.3430  207.5210  149.9860 O   0  0  0  0  0  1  0  0  0  0  0  0
  161.7020  207.8470  149.9750 C   0  0  2  0  0  3  0  0  0  0  0  0
  163.3790  207.3140  148.4060 O   0  0  0  0  0  0  0  0  0  0  0  0
  162.4330  206.9100  149.0660 C   0  0  0  0  0  0  0  0  0  0  0  0
  162.0220  205.4520  149.0260 C   0  0  2  0  0  3  0  0  0  0  0  0
  160.5240  206.0630  147.0900 C   0  0  0  0  0  3  0  0  0  0  0  0
  160.4890  206.3520  145.7810 C   0  0  0  0  0  3  0  0  0  0  0  0
  162.5540  204.6020  146.7050 C   0  0  0  0  0  2  0  0  0  0  0  0
  161.9830  204.3920  145.3070 C   0  0  0  0  0  2  0  0  0  0  0  0
  161.4350  205.7210  144.7930 C   0  0  0  0  0  2  0  0  0  0  0  0
  161.4390  205.0060  147.6770 C   0  0  1  0  0  3  0  0  0  0  0  0
  159.8120  205.3200  149.7920 C   0  0  0  0  0  1  0  0  0  0  0  0
  161.1900  205.0200  150.1750 N   0  0  0  0  0  0  0  0  0  0  0  0
  161.3250  203.6240  150.4350 N   0  0  0  0  0  0  0  0  0  0  0  0
  160.2840  203.2610  151.2370 O   0  0  0  0  0  1  0  0  0  0  0  0
  159.4690  201.3470  149.9290 O   0  0  0  0  0  1  0  0  0  0  0  0
  162.2470  201.7630  149.0600 C   0  0  0  0  0  2  0  0  0  0  0  0
  161.9510  200.7130  147.9770 C   0  0  0  0  0  2  0  0  0  0  0  0
  159.7730  202.2880  148.9410 C   0  0  2  0  0  3  0  0  0  0  0  0
  159.6300  201.6440  147.5570 C   0  0  0  0  0  2  0  0  0  0  0  0
  160.9690  201.2330  146.9230 C   0  0  2  0  0  3  0  0  0  0  0  0
  161.1850  202.8770  149.1620 C   0  0  1  0  0  3  0  0  0  0  0  0
  160.7450  200.2450  145.8180 C   0  0  0  0  0  0  0  0  0  0  0  0
  159.9780  200.5670  144.8260 N   0  0  0  0  0  2  0  0  0  0  0  0
  161.1940  198.8950  145.9470 N   0  0  0  0  0  1  0  0  0  0  0  0
  1 10  1  6  0  0  0
  2 13  1  1  0  0  0
  2  6  1  0  0  0  0
  3  8  1  0  0  0  0
  4 17  1  6  0  0  0
  4 15  1  0  0  0  0
  4  6  1  0  0  0  0
  5 14  1  0  0  0  0
  5 16  1  0  0  0  0
  6 14  1  6  0  0  0
  7 11  1  6  0  0  0
  7  2  1  0  0  0  0
  7  3  1  0  0  0  0
  8  1  1  0  0  0  0
  9 12  1  0  0  0  0
  9  2  1  0  0  0  0
 12  4  1  0  0  0  0
 15 29  1  6  0  0  0
 15 19  1  0  0  0  0
 16  1  1  0  0  0  0
 16 24  1  1  0  0  0
 17 15  1  0  0  0  0
 19 23  2  0  0  0  0
 19 20  1  0  0  0  0
 20 22  2  0  0  0  0
 21 18  2  0  0  0  0
 22 18  1  0  0  0  0
 23 21  1  0  0  0  0
 24 25  1  0  0  0  0
 25 26  1  0  0  0  0
 28 27  1  0  0  0  0
 28 26  1  0  0  0  0
 30 29  1  0  0  0  0
 32 31  1  1  0  0  0
 32 30  1  0  0  0  0
 33 34  2  0  0  0  0
 34 32  1  0  0  0  0
 35 34  1  6  0  0  0
 35 43  1  0  0  0  0
 36 41  1  0  0  0  0
 37 36  2  0  0  0  0
 38 41  1  0  0  0  0
 39 38  1  0  0  0  0
 40 39  1  0  0  0  0
 40 37  1  0  0  0  0
 41 35  1  1  0  0  0
 42 43  1  0  0  0  0
 43 44  1  0  0  0  0
 44 45  1  0  0  0  0
 47 52  1  0  0  0  0
 48 47  1  0  0  0  0
 49 52  1  0  0  0  0
 49 46  1  1  0  0  0
 50 49  1  0  0  0  0
 51 53  1  6  0  0  0
 51 50  1  0  0  0  0
 51 48  1  0  0  0  0
 52 44  1  1  0  0  0
 53 55  1  0  0  0  0
 54 53  2  0  0  0  0
M  END
>  <MODEL>
2

>  <REMARK>
 VINA RESULT:      -2.3      5.095      9.012
  Name = 
  15 active torsions:
  status: ('A' for Active; 'I' for Inactive)
    1  A    between atoms: N_3  and  C_25
    2  A    between atoms: N_3  and  C_38
    3  A    between atoms: C_10  and  C_48
    4  A    between atoms: C_19  and  C_37
    5  A    between atoms: C_19  and  C_45
    6  A    between atoms: C_26  and  C_45
    7  A    between atoms: C_27  and  C_51
    8  A    between atoms: C_29  and  C_38
    9  A    between atoms: C_29  and  C_53
   10  A    between atoms: N_33  and  N_49
   11  A    between atoms: N_33  and  C_52
   12  A    between atoms: C_35  and  O_40
   13  A    between atoms: C_35  and  C_51
   14  A    between atoms: C_37  and  O_40
   15  A    between atoms: C_45  and  N_49
                            x       y       z     vdW  Elec       q    Type
                         _______ _______ _______ _____ _____    ______ ____

>  <TORSDO>
F 15

$$$$
=
 OpenBabel11062408493D

 55 60  0  0  1  0  0  0  0  0999 V2000
  160.5740  201.7610  146.5610 C   0  0  1  0  0  3  0  0  0  0  0  0
  160.3770  205.6500  145.8350 C   0  0  2  0  0  0  0  0  0  0  0  0
  160.2750  203.2400  144.8160 C   0  0  0  0  0  2  0  0  0  0  0  0
  161.9530  206.6460  147.2920 C   0  0  1  0  0  0  0  0  0  0  0  0
  162.2050  203.5660  147.1520 O   0  0  0  0  0  0  0  0  0  0  0  0
  160.8610  205.5930  147.2800 C   0  0  2  0  0  3  0  0  0  0  0  0
  161.0090  204.5840  144.8930 C   0  0  1  0  0  3  0  0  0  0  0  0
  159.7770  202.8180  146.0630 O   0  0  0  0  0  0  0  0  0  0  0  0
  160.8270  207.0550  145.4190 C   0  0  0  0  0  2  0  0  0  0  0  0
  160.6660  200.5530  145.6320 C   0  0  0  0  0  1  0  0  0  0  0  0
  161.1570  205.0730  143.5910 O   0  0  0  0  0  1  0  0  0  0  0  0
  161.9890  207.4230  146.1280 O   0  0  0  0  0  0  0  0  0  0  0  0
  158.9820  205.5930  145.7910 O   0  0  0  0  0  1  0  0  0  0  0  0
  161.2180  204.2320  147.8990 C   0  0  0  0  0  2  0  0  0  0  0  0
  162.3960  207.3160  148.5860 C   0  0  2  0  0  0  0  0  0  0  0  0
  161.9370  202.1780  147.1670 C   0  0  1  0  0  3  0  0  0  0  0  0
  163.3250  206.3340  147.8700 C   0  0  0  0  0  2  0  0  0  0  0  0
  160.5630  205.9910  152.2550 C   0  0  0  0  0  3  0  0  0  0  0  0
  161.7560  206.8300  149.8580 C   0  0  0  0  0  0  0  0  0  0  0  0
  162.4080  207.0300  151.0820 C   0  0  0  0  0  3  0  0  0  0  0  0
  159.9090  205.7860  151.0390 C   0  0  0  0  0  3  0  0  0  0  0  0
  161.8140  206.6100  152.2770 C   0  0  0  0  0  3  0  0  0  0  0  0
  160.5030  206.2000  149.8430 C   0  0  0  0  0  3  0  0  0  0  0  0
  162.1710  201.5690  148.5520 C   0  0  0  0  0  2  0  0  0  0  0  0
  160.9500  200.8050  149.0390 C   0  0  0  0  0  2  0  0  0  0  0  0
  160.3140  201.5250  150.1310 N   0  0  0  0  0  2  0  0  0  0  0  0
  161.5900  202.8630  151.6910 C   0  0  0  0  0  1  0  0  0  0  0  0
  161.2200  201.4600  151.2620 C   0  0  0  0  0  2  0  0  0  0  0  0
  162.7790  208.7860  148.4660 C   0  0  0  0  0  2  0  0  0  0  0  0
  161.6400  209.5810  148.2970 O   0  0  0  0  0  0  0  0  0  0  0  0
  162.6080  211.3540  149.3800 O   0  0  0  0  0  1  0  0  0  0  0  0
  162.1260  210.8850  148.1550 C   0  0  2  0  0  3  0  0  0  0  0  0
  160.0350  211.3120  147.1520 O   0  0  0  0  0  0  0  0  0  0  0  0
  161.0350  211.7870  147.6700 C   0  0  0  0  0  0  0  0  0  0  0  0
  161.1640  213.2820  147.8870 C   0  0  2  0  0  3  0  0  0  0  0  0
  158.7510  213.6890  148.5000 C   0  0  0  0  0  3  0  0  0  0  0  0
  157.7650  213.3560  149.3470 C   0  0  0  0  0  3  0  0  0  0  0  0
  160.4540  213.2180  150.3130 C   0  0  0  0  0  2  0  0  0  0  0  0
  159.3430  213.6030  151.2830 C   0  0  0  0  0  2  0  0  0  0  0  0
  158.0270  213.0060  150.7880 C   0  0  0  0  0  2  0  0  0  0  0  0
  160.1950  213.8440  148.9370 C   0  0  1  0  0  3  0  0  0  0  0  0
  162.5700  214.0970  146.1990 C   0  0  0  0  0  1  0  0  0  0  0  0
  161.1760  214.0820  146.6380 N   0  0  0  0  0  0  0  0  0  0  0  0
  160.3560  213.5010  145.6250 N   0  0  0  0  0  0  0  0  0  0  0  0
  159.1610  214.1570  145.6500 O   0  0  0  0  0  1  0  0  0  0  0  0
  159.1020  212.9670  142.9750 O   0  0  0  0  0  1  0  0  0  0  0  0
  161.8710  212.5700  143.8810 C   0  0  0  0  0  2  0  0  0  0  0  0
  162.2430  212.5650  142.3890 C   0  0  0  0  0  2  0  0  0  0  0  0
  159.9450  214.0610  143.1870 C   0  0  2  0  0  3  0  0  0  0  0  0
  160.6260  214.4470  141.8700 C   0  0  0  0  0  2  0  0  0  0  0  0
  162.0740  213.9450  141.7480 C   0  0  2  0  0  3  0  0  0  0  0  0
  160.9720  213.7520  144.3010 C   0  0  1  0  0  3  0  0  0  0  0  0
  162.5190  213.9660  140.3170 C   0  0  0  0  0  0  0  0  0  0  0  0
  161.6550  214.2260  139.3890 N   0  0  0  0  0  2  0  0  0  0  0  0
  163.8200  213.5030  139.9530 N   0  0  0  0  0  1  0  0  0  0  0  0
  1 10  1  6  0  0  0
  1 16  1  0  0  0  0
  2 13  1  6  0  0  0
  2  6  1  0  0  0  0
  3  7  1  0  0  0  0
  3  8  1  0  0  0  0
  4 17  1  6  0  0  0
  4 15  1  0  0  0  0
  5 16  1  0  0  0  0
  5 14  1  0  0  0  0
  6  4  1  0  0  0  0
  6 14  1  6  0  0  0
  7 11  1  6  0  0  0
  7  2  1  0  0  0  0
  8  1  1  0  0  0  0
  9  2  1  0  0  0  0
  9 12  1  0  0  0  0
 12  4  1  0  0  0  0
 15 29  1  6  0  0  0
 15 19  1  0  0  0  0
 16 24  1  1  0  0  0
 17 15  1  0  0  0  0
 18 22  1  0  0  0  0
 19 20  1  0  0  0  0
 20 22  2  0  0  0  0
 21 18  2  0  0  0  0
 23 19  2  0  0  0  0
 23 21  1  0  0  0  0
 24 25  1  0  0  0  0
 25 26  1  0  0  0  0
 26 28  1  0  0  0  0
 28 27  1  0  0  0  0
 30 29  1  0  0  0  0
 32 30  1  0  0  0  0
 32 31  1  1  0  0  0
 33 34  2  0  0  0  0
 34 32  1  0  0  0  0
 35 34  1  6  0  0  0
 36 41  1  0  0  0  0
 36 37  2  0  0  0  0
 37 40  1  0  0  0  0
 38 39  1  0  0  0  0
 40 39  1  0  0  0  0
 41 35  1  6  0  0  0
 41 38  1  0  0  0  0
 42 43  1  0  0  0  0
 43 35  1  0  0  0  0
 44 45  1  0  0  0  0
 44 43  1  0  0  0  0
 47 52  1  0  0  0  0
 48 47  1  0  0  0  0
 49 46  1  6  0  0  0
 49 52  1  0  0  0  0
 50 49  1  0  0  0  0
 51 53  1  6  0  0  0
 51 50  1  0  0  0  0
 51 48  1  0  0  0  0
 52 44  1  1  0  0  0
 54 53  2  0  0  0  0
 55 53  1  0  0  0  0
M  END
>  <MODEL>
3

>  <REMARK>
 VINA RESULT:      -1.7      2.436      4.045
  Name = 
  15 active torsions:
  status: ('A' for Active; 'I' for Inactive)
    1  A    between atoms: N_3  and  C_25
    2  A    between atoms: N_3  and  C_38
    3  A    between atoms: C_10  and  C_48
    4  A    between atoms: C_19  and  C_37
    5  A    between atoms: C_19  and  C_45
    6  A    between atoms: C_26  and  C_45
    7  A    between atoms: C_27  and  C_51
    8  A    between atoms: C_29  and  C_38
    9  A    between atoms: C_29  and  C_53
   10  A    between atoms: N_33  and  N_49
   11  A    between atoms: N_33  and  C_52
   12  A    between atoms: C_35  and  O_40
   13  A    between atoms: C_35  and  C_51
   14  A    between atoms: C_37  and  O_40
   15  A    between atoms: C_45  and  N_49
                            x       y       z     vdW  Elec       q    Type
                         _______ _______ _______ _____ _____    ______ ____

>  <TORSDO>
F 15

$$$$
=
 OpenBabel11062408493D

 55 60  0  0  1  0  0  0  0  0999 V2000
  160.6780  201.6100  146.5110 C   0  0  1  0  0  3  0  0  0  0  0  0
  160.3460  205.5090  145.8930 C   0  0  2  0  0  0  0  0  0  0  0  0
  160.3310  203.1270  144.8070 C   0  0  0  0  0  2  0  0  0  0  0  0
  161.8830  206.5180  147.3820 C   0  0  1  0  0  0  0  0  0  0  0  0
  162.2430  203.4540  147.1580 O   0  0  0  0  0  0  0  0  0  0  0  0
  160.8290  205.4290  147.3370 C   0  0  2  0  0  3  0  0  0  0  0  0
  161.0170  204.4930  144.9240 C   0  0  1  0  0  3  0  0  0  0  0  0
  159.8450  202.6520  146.0400 O   0  0  0  0  0  0  0  0  0  0  0  0
  160.7480  206.9400  145.5170 C   0  0  0  0  0  2  0  0  0  0  0  0
  160.8150  200.4330  145.5500 C   0  0  0  0  0  1  0  0  0  0  0  0
  161.1520  205.0220  143.6370 O   0  0  0  0  0  1  0  0  0  0  0  0
  161.8940  207.3290  146.2400 O   0  0  0  0  0  0  0  0  0  0  0  0
  158.9540  205.4050  145.8420 O   0  0  0  0  0  1  0  0  0  0  0  0
  161.2310  204.0640  147.9200 C   0  0  0  0  0  2  0  0  0  0  0  0
  162.2990  207.1680  148.6960 C   0  0  2  0  0  0  0  0  0  0  0  0
  162.0240  202.0580  147.1340 C   0  0  1  0  0  3  0  0  0  0  0  0
  163.2630  206.2380  147.9560 C   0  0  0  0  0  2  0  0  0  0  0  0
  160.4980  205.6780  152.3180 C   0  0  0  0  0  3  0  0  0  0  0  0
  161.6730  206.6240  149.9520 C   0  0  0  0  0  0  0  0  0  0  0  0
  162.2620  206.8970  151.1940 C   0  0  0  0  0  3  0  0  0  0  0  0
  159.9070  205.4010  151.0840 C   0  0  0  0  0  3  0  0  0  0  0  0
  161.6770  206.4230  152.3730 C   0  0  0  0  0  3  0  0  0  0  0  0
  160.4930  205.8680  149.9040 C   0  0  0  0  0  3  0  0  0  0  0  0
  162.2750  201.4190  148.5020 C   0  0  0  0  0  2  0  0  0  0  0  0
  160.9810  200.9420  149.1410 C   0  0  0  0  0  2  0  0  0  0  0  0
  160.3270  202.0450  149.8280 N   0  0  0  0  0  2  0  0  0  0  0  0
  161.8810  202.4300  151.6410 C   0  0  0  0  0  1  0  0  0  0  0  0
  160.5430  201.8430  151.2480 C   0  0  0  0  0  2  0  0  0  0  0  0
  162.6300  208.6520  148.6180 C   0  0  0  0  0  2  0  0  0  0  0  0
  161.4730  209.4260  148.7580 O   0  0  0  0  0  0  0  0  0  0  0  0
  163.1580  210.7180  147.8990 O   0  0  0  0  0  1  0  0  0  0  0  0
  161.8610  210.7260  148.4180 C   0  0  2  0  0  3  0  0  0  0  0  0
  162.7430  211.6080  150.4190 O   0  0  0  0  0  0  0  0  0  0  0  0
  161.8120  211.6070  149.6260 C   0  0  0  0  0  0  0  0  0  0  0  0
  160.6280  212.5340  149.8140 C   0  0  2  0  0  3  0  0  0  0  0  0
  161.9450  213.9890  148.2290 C   0  0  0  0  0  3  0  0  0  0  0  0
  162.1440  214.3050  146.9400 C   0  0  0  0  0  3  0  0  0  0  0  0
  159.5380  213.4080  147.7060 C   0  0  0  0  0  2  0  0  0  0  0  0
  159.6620  214.4380  146.5890 C   0  0  0  0  0  2  0  0  0  0  0  0
  161.0290  214.2850  145.9260 C   0  0  0  0  0  2  0  0  0  0  0  0
  160.5740  213.6880  148.8010 C   0  0  1  0  0  3  0  0  0  0  0  0
  160.4650  214.4530  151.1480 C   0  0  0  0  0  1  0  0  0  0  0  0
  160.4270  212.9940  151.2090 N   0  0  0  0  0  0  0  0  0  0  0  0
  159.1720  212.5650  151.7350 N   0  0  0  0  0  0  0  0  0  0  0  0
  158.4280  212.1150  150.6850 O   0  0  0  0  0  1  0  0  0  0  0  0
  159.8480  212.7230  154.6340 O   0  0  0  0  0  1  0  0  0  0  0  0
  160.8490  210.9120  152.5450 C   0  0  0  0  0  2  0  0  0  0  0  0
  161.2730  209.9900  153.7010 C   0  0  0  0  0  2  0  0  0  0  0  0
  159.0330  211.7110  154.1180 C   0  0  2  0  0  3  0  0  0  0  0  0
  159.1470  210.4620  154.9990 C   0  0  0  0  0  2  0  0  0  0  0  0
  160.0690  209.3760  154.4200 C   0  0  2  0  0  3  0  0  0  0  0  0
  159.3950  211.4160  152.6450 C   0  0  1  0  0  3  0  0  0  0  0  0
  160.4770  208.4090  155.4900 C   0  0  0  0  0  0  0  0  0  0  0  0
  159.5900  207.6150  155.9990 N   0  0  0  0  0  2  0  0  0  0  0  0
  161.7690  208.4960  156.0940 N   0  0  0  0  0  1  0  0  0  0  0  0
  1 10  1  6  0  0  0
  1 16  1  0  0  0  0
  2 13  1  6  0  0  0
  2  6  1  0  0  0  0
  3  7  1  0  0  0  0
  3  8  1  0  0  0  0
  4 17  1  6  0  0  0
  4 15  1  0  0  0  0
  5 14  1  0  0  0  0
  6  4  1  0  0  0  0
  6 14  1  6  0  0  0
  7 11  1  6  0  0  0
  7  2  1  0  0  0  0
  8  1  1  0  0  0  0
  9  2  1  0  0  0  0
  9 12  1  0  0  0  0
 12  4  1  0  0  0  0
 15 29  1  6  0  0  0
 15 19  1  0  0  0  0
 16  5  1  0  0  0  0
 16 24  1  1  0  0  0
 17 15  1  0  0  0  0
 18 22  1  0  0  0  0
 19 20  1  0  0  0  0
 20 22  2  0  0  0  0
 21 18  2  0  0  0  0
 23 19  2  0  0  0  0
 23 21  1  0  0  0  0
 24 25  1  0  0  0  0
 25 26  1  0  0  0  0
 26 28  1  0  0  0  0
 28 27  1  0  0  0  0
 29 30  1  0  0  0  0
 32 31  1  1  0  0  0
 32 30  1  0  0  0  0
 32 34  1  0  0  0  0
 34 33  2  0  0  0  0
 35 34  1  1  0  0  0
 35 43  1  0  0  0  0
 36 41  1  0  0  0  0
 37 36  2  0  0  0  0
 38 41  1  0  0  0  0
 39 38  1  0  0  0  0
 40 39  1  0  0  0  0
 40 37  1  0  0  0  0
 41 35  1  1  0  0  0
 42 43  1  0  0  0  0
 43 44  1  0  0  0  0
 45 44  1  0  0  0  0
 47 52  1  0  0  0  0
 47 48  1  0  0  0  0
 48 51  1  0  0  0  0
 49 46  1  1  0  0  0
 49 50  1  0  0  0  0
 51 50  1  0  0  0  0
 51 53  1  1  0  0  0
 52 44  1  6  0  0  0
 52 49  1  0  0  0  0
 53 54  2  0  0  0  0
 53 55  1  0  0  0  0
M  END
>  <MODEL>
4

>  <REMARK>
 VINA RESULT:      -1.1      4.040      7.612
  Name = 
  15 active torsions:
  status: ('A' for Active; 'I' for Inactive)
    1  A    between atoms: N_3  and  C_25
    2  A    between atoms: N_3  and  C_38
    3  A    between atoms: C_10  and  C_48
    4  A    between atoms: C_19  and  C_37
    5  A    between atoms: C_19  and  C_45
    6  A    between atoms: C_26  and  C_45
    7  A    between atoms: C_27  and  C_51
    8  A    between atoms: C_29  and  C_38
    9  A    between atoms: C_29  and  C_53
   10  A    between atoms: N_33  and  N_49
   11  A    between atoms: N_33  and  C_52
   12  A    between atoms: C_35  and  O_40
   13  A    between atoms: C_35  and  C_51
   14  A    between atoms: C_37  and  O_40
   15  A    between atoms: C_45  and  N_49
                            x       y       z     vdW  Elec       q    Type
                         _______ _______ _______ _____ _____    ______ ____

>  <TORSDO>
F 15

$$$$
