=
 OpenBabel11062408043D

 34 39  0  0  1  0  0  0  0  0999 V2000
  160.8670  208.1260  154.5230 C   0  0  0  0  0  0  0  0  0  0  0  0
  162.0710  210.0950  153.8440 C   0  0  0  0  0  0  0  0  0  0  0  0
  161.5760  208.2440  152.1760 C   0  0  0  0  0  0  0  0  0  0  0  0
  161.9760  208.2900  149.7750 C   0  0  0  0  0  0  0  0  0  0  0  0
  161.1120  209.9480  156.0030 C   0  0  0  0  0  3  0  0  0  0  0  0
  161.8270  210.6210  155.0710 N   0  0  0  0  0  2  0  0  0  0  0  0
  161.7740  210.4140  150.7250 C   0  0  0  0  0  2  0  0  0  0  0  0
  161.4960  208.8480  153.4760 C   0  0  0  0  0  0  0  0  0  0  0  0
  162.1670  209.1980  148.6260 C   0  0  0  0  0  2  0  0  0  0  0  0
  160.6620  208.7000  155.7350 N   0  0  0  0  0  0  0  0  0  0  0  0
  161.2860  206.8460  152.0500 C   0  0  0  0  0  0  0  0  0  0  0  0
  160.4930  206.8000  154.3440 C   0  0  0  0  0  3  0  0  0  0  0  0
  162.8790  210.6970  153.0930 O   0  0  0  0  0  0  0  0  0  0  0  0
  161.8100  206.9190  149.6730 C   0  0  0  0  0  3  0  0  0  0  0  0
  161.4720  206.1720  150.8080 C   0  0  0  0  0  0  0  0  0  0  0  0
  162.1630  210.5890  149.2570 C   0  0  1  0  0  3  0  0  0  0  0  0
  161.8490  208.9490  150.9740 C   0  0  0  0  0  0  0  0  0  0  0  0
  160.7280  206.1620  153.1360 C   0  0  0  0  0  3  0  0  0  0  0  0
  160.7410  202.7740  149.2650 C   0  0  0  0  0  0  0  0  0  0  0  0
  160.9000  201.9320  150.3680 C   0  0  0  0  0  3  0  0  0  0  0  0
  161.2960  204.7030  150.6420 C   0  0  0  0  0  0  0  0  0  0  0  0
  161.2500  202.4690  151.6090 C   0  0  0  0  0  3  0  0  0  0  0  0
  160.9320  204.1520  149.4030 C   0  0  0  0  0  3  0  0  0  0  0  0
  161.4430  203.8460  151.7470 C   0  0  0  0  0  3  0  0  0  0  0  0
  160.3940  202.2560  148.0620 F   0  0  0  0  0  0  0  0  0  0  0  0
  161.1890  211.4370  148.5910 N   0  0  0  0  0  2  0  0  0  0  0  0
  161.9090  212.3540  147.8150 N   0  0  0  0  0  2  0  0  0  0  0  0
  162.8550  213.2750  145.3680 O   0  0  0  0  0  0  0  0  0  0  0  0
  160.9800  212.9080  146.8410 C   0  0  1  0  0  3  0  0  0  0  0  0
  161.6340  212.9870  145.4840 C   0  0  0  0  0  0  0  0  0  0  0  0
  159.4770  212.4280  144.4440 C   0  0  0  0  0  2  0  0  0  0  0  0
  158.9450  212.6850  145.8550 C   0  0  0  0  0  2  0  0  0  0  0  0
  159.8220  212.1020  146.7880 O   0  0  0  0  0  0  0  0  0  0  0  0
  160.8360  212.8540  144.3450 O   0  0  0  0  0  0  0  0  0  0  0  0
  1 10  1  0  0  0  0
  2  6  1  0  0  0  0
  3  8  1  0  0  0  0
  4 17  1  0  0  0  0
  6  5  1  0  0  0  0
  7 17  1  0  0  0  0
  8  2  1  0  0  0  0
  8  1  2  0  0  0  0
  9 16  1  0  0  0  0
  9  4  1  0  0  0  0
 10  5  2  0  0  0  0
 11  3  1  0  0  0  0
 11 18  1  0  0  0  0
 12  1  1  0  0  0  0
 13  2  2  0  0  0  0
 14  4  2  0  0  0  0
 14 15  1  0  0  0  0
 15 11  2  0  0  0  0
 16 26  1  6  0  0  0
 16  7  1  0  0  0  0
 17  3  2  0  0  0  0
 18 12  2  0  0  0  0
 19 23  2  0  0  0  0
 19 20  1  0  0  0  0
 20 22  2  0  0  0  0
 21 15  1  0  0  0  0
 21 24  2  0  0  0  0
 22 24  1  0  0  0  0
 23 21  1  0  0  0  0
 25 19  1  0  0  0  0
 27 26  1  0  0  0  0
 28 30  2  0  0  0  0
 29 27  1  1  0  0  0
 30 29  1  0  0  0  0
 31 32  1  0  0  0  0
 32 33  1  0  0  0  0
 33 29  1  0  0  0  0
 34 31  1  0  0  0  0
 34 30  1  0  0  0  0
M  END
>  <MODEL>
1

>  <REMARK>
 VINA RESULT:      -9.9      0.000      0.000
  Name = 
  4 active torsions:
  status: ('A' for Active; 'I' for Inactive)
    1  A    between atoms: N_3  and  C_13
    2  A    between atoms: N_3  and  N_17
    3  A    between atoms: C_12  and  C_28
    4  A    between atoms: N_17  and  C_29
                            x       y       z     vdW  Elec       q    Type
                         _______ _______ _______ _____ _____    ______ ____

>  <TORSDO>
F 4

$$$$
=
 OpenBabel11062408043D

 34 39  0  0  1  0  0  0  0  0999 V2000
  160.9080  207.3520  153.6820 C   0  0  0  0  0  0  0  0  0  0  0  0
  162.0220  209.4840  153.6560 C   0  0  0  0  0  0  0  0  0  0  0  0
  161.5740  208.2340  151.4900 C   0  0  0  0  0  0  0  0  0  0  0  0
  161.9340  209.0510  149.2260 C   0  0  0  0  0  0  0  0  0  0  0  0
  161.1040  208.6230  155.6610 C   0  0  0  0  0  3  0  0  0  0  0  0
  161.7760  209.5860  154.9870 N   0  0  0  0  0  2  0  0  0  0  0  0
  161.6630  210.7570  150.7980 C   0  0  0  0  0  2  0  0  0  0  0  0
  161.4910  208.3930  152.9150 C   0  0  0  0  0  0  0  0  0  0  0  0
  162.0700  210.2830  148.4210 C   0  0  0  0  0  2  0  0  0  0  0  0
  160.6990  207.5050  155.0140 N   0  0  0  0  0  0  0  0  0  0  0  0
  161.3380  206.9360  150.9300 C   0  0  0  0  0  0  0  0  0  0  0  0
  160.5840  206.1360  153.0950 C   0  0  0  0  0  3  0  0  0  0  0  0
  162.7930  210.3260  153.1310 O   0  0  0  0  0  0  0  0  0  0  0  0
  161.8210  207.7770  148.6970 C   0  0  0  0  0  3  0  0  0  0  0  0
  161.5310  206.6960  149.5390 C   0  0  0  0  0  0  0  0  0  0  0  0
  162.0210  211.4030  149.4590 C   0  0  1  0  0  3  0  0  0  0  0  0
  161.8000  209.2930  150.5720 C   0  0  0  0  0  0  0  0  0  0  0  0
  160.8250  205.9220  151.7470 C   0  0  0  0  0  3  0  0  0  0  0  0
  160.8970  202.9750  149.0830 C   0  0  0  0  0  0  0  0  0  0  0  0
  161.2580  202.7970  147.7450 C   0  0  0  0  0  3  0  0  0  0  0  0
  161.4110  205.3480  148.9180 C   0  0  0  0  0  0  0  0  0  0  0  0
  161.7010  203.8870  146.9920 C   0  0  0  0  0  3  0  0  0  0  0  0
  160.9790  204.2410  149.6670 C   0  0  0  0  0  3  0  0  0  0  0  0
  161.7810  205.1540  147.5770 C   0  0  0  0  0  3  0  0  0  0  0  0
  160.4740  201.9170  149.8160 F   0  0  0  0  0  0  0  0  0  0  0  0
  161.0040  212.3740  149.0970 N   0  0  0  0  0  2  0  0  0  0  0  0
  161.6240  213.3320  148.2850 N   0  0  0  0  0  2  0  0  0  0  0  0
  162.6840  213.2770  145.7150 O   0  0  0  0  0  0  0  0  0  0  0  0
  160.7540  213.5450  147.1390 C   0  0  1  0  0  3  0  0  0  0  0  0
  161.4460  213.1060  145.8720 C   0  0  0  0  0  0  0  0  0  0  0  0
  159.2870  212.3120  145.0020 C   0  0  0  0  0  2  0  0  0  0  0  0
  158.7350  213.0780  146.2060 C   0  0  0  0  0  2  0  0  0  0  0  0
  159.5530  212.8270  147.3230 O   0  0  0  0  0  0  0  0  0  0  0  0
  160.6710  212.6120  144.8200 O   0  0  0  0  0  0  0  0  0  0  0  0
  1 10  1  0  0  0  0
  2  6  1  0  0  0  0
  3  8  1  0  0  0  0
  4 17  1  0  0  0  0
  6  5  1  0  0  0  0
  8  2  1  0  0  0  0
  8  1  2  0  0  0  0
  9  4  1  0  0  0  0
  9 16  1  0  0  0  0
 10  5  2  0  0  0  0
 11  3  1  0  0  0  0
 11 18  1  0  0  0  0
 12  1  1  0  0  0  0
 13  2  2  0  0  0  0
 14  4  2  0  0  0  0
 14 15  1  0  0  0  0
 15 11  2  0  0  0  0
 16 26  1  6  0  0  0
 16  7  1  0  0  0  0
 17  7  1  0  0  0  0
 17  3  2  0  0  0  0
 18 12  2  0  0  0  0
 19 23  1  0  0  0  0
 19 25  1  0  0  0  0
 20 19  2  0  0  0  0
 21 15  1  0  0  0  0
 21 23  2  0  0  0  0
 22 24  2  0  0  0  0
 22 20  1  0  0  0  0
 24 21  1  0  0  0  0
 27 26  1  0  0  0  0
 28 30  2  0  0  0  0
 29 33  1  0  0  0  0
 29 27  1  1  0  0  0
 30 29  1  0  0  0  0
 31 32  1  0  0  0  0
 32 33  1  0  0  0  0
 34 31  1  0  0  0  0
 34 30  1  0  0  0  0
M  END
>  <MODEL>
2

>  <REMARK>
 VINA RESULT:      -9.6      1.050      1.556
  Name = 
  4 active torsions:
  status: ('A' for Active; 'I' for Inactive)
    1  A    between atoms: N_3  and  C_13
    2  A    between atoms: N_3  and  N_17
    3  A    between atoms: C_12  and  C_28
    4  A    between atoms: N_17  and  C_29
                            x       y       z     vdW  Elec       q    Type
                         _______ _______ _______ _____ _____    ______ ____

>  <TORSDO>
F 4

$$$$
=
 OpenBabel11062408043D

 34 39  0  0  1  0  0  0  0  0999 V2000
  160.9010  207.4230  153.8850 C   0  0  0  0  0  0  0  0  0  0  0  0
  162.0140  209.5530  153.7760 C   0  0  0  0  0  0  0  0  0  0  0  0
  161.5700  208.2180  151.6610 C   0  0  0  0  0  0  0  0  0  0  0  0
  161.9320  208.9460  149.3670 C   0  0  0  0  0  0  0  0  0  0  0  0
  161.0940  208.7720  155.8120 C   0  0  0  0  0  3  0  0  0  0  0  0
  161.7670  209.7070  155.1030 N   0  0  0  0  0  2  0  0  0  0  0  0
  161.6590  210.7120  150.8700 C   0  0  0  0  0  2  0  0  0  0  0  0
  161.4840  208.4340  153.0790 C   0  0  0  0  0  0  0  0  0  0  0  0
  162.0680  210.1450  148.5140 C   0  0  0  0  0  2  0  0  0  0  0  0
  160.6900  207.6290  155.2100 N   0  0  0  0  0  0  0  0  0  0  0  0
  161.3330  206.8990  151.1520 C   0  0  0  0  0  0  0  0  0  0  0  0
  160.5770  206.1850  153.3470 C   0  0  0  0  0  3  0  0  0  0  0  0
  162.7860  210.3740  153.2200 O   0  0  0  0  0  0  0  0  0  0  0  0
  161.8190  207.6520  148.8880 C   0  0  0  0  0  3  0  0  0  0  0  0
  161.5290  206.6050  149.7720 C   0  0  0  0  0  0  0  0  0  0  0  0
  162.0180  211.3050  149.5070 C   0  0  1  0  0  3  0  0  0  0  0  0
  161.7960  209.2400  150.7020 C   0  0  0  0  0  0  0  0  0  0  0  0
  160.8190  205.9180  152.0080 C   0  0  0  0  0  3  0  0  0  0  0  0
  161.5380  203.6970  147.3210 C   0  0  0  0  0  0  0  0  0  0  0  0
  161.1090  202.6490  148.1380 C   0  0  0  0  0  3  0  0  0  0  0  0
  161.4090  205.2330  149.2050 C   0  0  0  0  0  0  0  0  0  0  0  0
  160.8230  202.8870  149.4850 C   0  0  0  0  0  3  0  0  0  0  0  0
  161.6810  204.9830  147.8500 C   0  0  0  0  0  3  0  0  0  0  0  0
  160.9680  204.1720  150.0140 C   0  0  0  0  0  3  0  0  0  0  0  0
  161.8100  203.4690  146.0130 F   0  0  0  0  0  0  0  0  0  0  0  0
  161.0010  212.2610  149.1060 N   0  0  0  0  0  2  0  0  0  0  0  0
  161.6360  213.2230  148.3090 N   0  0  0  0  0  2  0  0  0  0  0  0
  162.6970  213.2670  145.7400 O   0  0  0  0  0  0  0  0  0  0  0  0
  160.7650  213.4730  147.1710 C   0  0  1  0  0  3  0  0  0  0  0  0
  161.4590  213.0840  145.8890 C   0  0  0  0  0  0  0  0  0  0  0  0
  159.3040  212.3130  144.9900 C   0  0  0  0  0  2  0  0  0  0  0  0
  158.7490  213.0320  146.2210 C   0  0  0  0  0  2  0  0  0  0  0  0
  159.5670  212.7430  147.3280 O   0  0  0  0  0  0  0  0  0  0  0  0
  160.6870  212.6260  144.8190 O   0  0  0  0  0  0  0  0  0  0  0  0
  1 10  1  0  0  0  0
  2  6  1  0  0  0  0
  3  8  1  0  0  0  0
  4 17  1  0  0  0  0
  6  5  1  0  0  0  0
  8  2  1  0  0  0  0
  8  1  2  0  0  0  0
  9  4  1  0  0  0  0
  9 16  1  0  0  0  0
 10  5  2  0  0  0  0
 11  3  1  0  0  0  0
 11 18  1  0  0  0  0
 12  1  1  0  0  0  0
 13  2  2  0  0  0  0
 14  4  2  0  0  0  0
 14 15  1  0  0  0  0
 15 11  2  0  0  0  0
 16 26  1  6  0  0  0
 16  7  1  0  0  0  0
 17  7  1  0  0  0  0
 17  3  2  0  0  0  0
 18 12  2  0  0  0  0
 19 23  2  0  0  0  0
 19 20  1  0  0  0  0
 20 22  2  0  0  0  0
 21 15  1  0  0  0  0
 21 24  2  0  0  0  0
 22 24  1  0  0  0  0
 23 21  1  0  0  0  0
 25 19  1  0  0  0  0
 27 26  1  0  0  0  0
 28 30  2  0  0  0  0
 29 33  1  0  0  0  0
 29 27  1  1  0  0  0
 30 29  1  0  0  0  0
 31 32  1  0  0  0  0
 32 33  1  0  0  0  0
 34 31  1  0  0  0  0
 34 30  1  0  0  0  0
M  END
>  <MODEL>
3

>  <REMARK>
 VINA RESULT:      -9.5      1.015      1.228
  Name = 
  4 active torsions:
  status: ('A' for Active; 'I' for Inactive)
    1  A    between atoms: N_3  and  C_13
    2  A    between atoms: N_3  and  N_17
    3  A    between atoms: C_12  and  C_28
    4  A    between atoms: N_17  and  C_29
                            x       y       z     vdW  Elec       q    Type
                         _______ _______ _______ _____ _____    ______ ____

>  <TORSDO>
F 4

$$$$
=
 OpenBabel11062408043D

 34 39  0  0  1  0  0  0  0  0999 V2000
  162.1380  208.9380  149.2230 C   0  0  0  0  0  0  0  0  0  0  0  0
  161.1650  210.2130  151.0160 C   0  0  0  0  0  0  0  0  0  0  0  0
  161.3370  207.6840  151.1760 C   0  0  0  0  0  0  0  0  0  0  0  0
  160.8300  206.3010  153.1130 C   0  0  0  0  0  0  0  0  0  0  0  0
  162.2010  211.2970  149.1840 C   0  0  0  0  0  3  0  0  0  0  0  0
  161.5340  211.3440  150.3610 N   0  0  0  0  0  0  0  0  0  0  0  0
  161.3490  208.5120  153.6590 C   0  0  0  0  0  2  0  0  0  0  0  0
  161.5570  208.9420  150.5170 C   0  0  0  0  0  0  0  0  0  0  0  0
  160.7020  206.3290  154.5850 C   0  0  0  0  0  2  0  0  0  0  0  0
  162.4740  210.1010  148.6110 N   0  0  0  0  0  2  0  0  0  0  0  0
  161.4400  206.4800  150.4060 C   0  0  0  0  0  0  0  0  0  0  0  0
  162.3310  207.7470  148.5360 C   0  0  0  0  0  3  0  0  0  0  0  0
  160.4060  210.3280  152.0110 O   0  0  0  0  0  0  0  0  0  0  0  0
  160.8140  205.1490  152.3460 C   0  0  0  0  0  3  0  0  0  0  0  0
  161.1080  205.2180  150.9790 C   0  0  0  0  0  0  0  0  0  0  0  0
  160.9150  207.7990  154.9400 C   0  0  1  0  0  3  0  0  0  0  0  0
  161.0990  207.5330  152.5670 C   0  0  0  0  0  0  0  0  0  0  0  0
  161.9570  206.5400  149.1070 C   0  0  0  0  0  3  0  0  0  0  0  0
  161.1550  202.7590  148.0790 C   0  0  0  0  0  0  0  0  0  0  0  0
  160.9720  201.5450  148.7460 C   0  0  0  0  0  3  0  0  0  0  0  0
  161.0860  203.9480  150.2010 C   0  0  0  0  0  0  0  0  0  0  0  0
  160.8380  201.5270  150.1360 C   0  0  0  0  0  3  0  0  0  0  0  0
  161.2060  203.9530  148.8020 C   0  0  0  0  0  3  0  0  0  0  0  0
  160.8910  202.7220  150.8590 C   0  0  0  0  0  3  0  0  0  0  0  0
  161.2780  202.7780  146.7300 F   0  0  0  0  0  0  0  0  0  0  0  0
  161.9560  207.9240  155.9460 N   0  0  0  0  0  2  0  0  0  0  0  0
  161.3140  208.0650  157.1830 N   0  0  0  0  0  2  0  0  0  0  0  0
  163.1380  210.1630  157.1440 O   0  0  0  0  0  0  0  0  0  0  0  0
  160.8400  209.4380  157.2610 C   0  0  1  0  0  3  0  0  0  0  0  0
  161.9350  210.3910  156.8500 C   0  0  0  0  0  0  0  0  0  0  0  0
  160.2440  211.8370  155.8030 C   0  0  0  0  0  2  0  0  0  0  0  0
  159.2720  210.9230  156.5520 C   0  0  0  0  0  2  0  0  0  0  0  0
  159.7100  209.5920  156.4290 O   0  0  0  0  0  0  0  0  0  0  0  0
  161.5820  211.5970  156.2390 O   0  0  0  0  0  0  0  0  0  0  0  0
  1  8  1  0  0  0  0
  2 13  2  0  0  0  0
  3 17  1  0  0  0  0
  4  9  1  0  0  0  0
  5  6  2  0  0  0  0
  6  2  1  0  0  0  0
  7 16  1  0  0  0  0
  8  2  1  0  0  0  0
  8  3  2  0  0  0  0
  9 16  1  0  0  0  0
 10  5  1  0  0  0  0
 10  1  1  0  0  0  0
 11 15  1  0  0  0  0
 11  3  1  0  0  0  0
 12 18  1  0  0  0  0
 12  1  2  0  0  0  0
 14  4  1  0  0  0  0
 15 14  2  0  0  0  0
 16 26  1  1  0  0  0
 17  4  2  0  0  0  0
 17  7  1  0  0  0  0
 18 11  2  0  0  0  0
 19 20  2  0  0  0  0
 19 23  1  0  0  0  0
 20 22  1  0  0  0  0
 21 24  1  0  0  0  0
 21 15  1  0  0  0  0
 22 24  2  0  0  0  0
 23 21  2  0  0  0  0
 25 19  1  0  0  0  0
 26 27  1  0  0  0  0
 29 27  1  6  0  0  0
 30 28  2  0  0  0  0
 30 29  1  0  0  0  0
 31 34  1  0  0  0  0
 31 32  1  0  0  0  0
 33 32  1  0  0  0  0
 33 29  1  0  0  0  0
 34 30  1  0  0  0  0
M  END
>  <MODEL>
4

>  <REMARK>
 VINA RESULT:      -9.3      2.881      6.555
  Name = 
  4 active torsions:
  status: ('A' for Active; 'I' for Inactive)
    1  A    between atoms: N_3  and  C_13
    2  A    between atoms: N_3  and  N_17
    3  A    between atoms: C_12  and  C_28
    4  A    between atoms: N_17  and  C_29
                            x       y       z     vdW  Elec       q    Type
                         _______ _______ _______ _____ _____    ______ ____

>  <TORSDO>
F 4

$$$$
=
 OpenBabel11062408043D

 34 39  0  0  1  0  0  0  0  0999 V2000
  160.3930  212.7050  150.8980 C   0  0  0  0  0  0  0  0  0  0  0  0
  161.7700  212.1530  149.0050 C   0  0  0  0  0  0  0  0  0  0  0  0
  161.3850  210.4590  150.8580 C   0  0  0  0  0  0  0  0  0  0  0  0
  162.0730  208.1250  150.8750 C   0  0  0  0  0  0  0  0  0  0  0  0
  160.5520  214.1810  149.0640 C   0  0  0  0  0  3  0  0  0  0  0  0
  161.4080  213.3350  148.4440 N   0  0  0  0  0  2  0  0  0  0  0  0
  161.8680  209.0180  148.7270 C   0  0  0  0  0  2  0  0  0  0  0  0
  161.1800  211.7330  150.2270 C   0  0  0  0  0  0  0  0  0  0  0  0
  162.4470  206.9960  149.9990 C   0  0  0  0  0  2  0  0  0  0  0  0
  160.0730  213.8760  150.2930 N   0  0  0  0  0  0  0  0  0  0  0  0
  161.0390  210.3160  152.2420 C   0  0  0  0  0  0  0  0  0  0  0  0
  159.9740  212.4980  152.2060 C   0  0  0  0  0  3  0  0  0  0  0  0
  162.6930  211.4980  148.4570 O   0  0  0  0  0  0  0  0  0  0  0  0
  161.8490  208.0200  152.2380 C   0  0  0  0  0  3  0  0  0  0  0  0
  161.3390  209.1140  152.9470 C   0  0  0  0  0  0  0  0  0  0  0  0
  162.4400  207.6060  148.5980 C   0  0  1  0  0  3  0  0  0  0  0  0
  161.8370  209.2910  150.1890 C   0  0  0  0  0  0  0  0  0  0  0  0
  160.3190  211.3350  152.8770 C   0  0  0  0  0  3  0  0  0  0  0  0
  160.0840  207.7620  156.2720 C   0  0  0  0  0  0  0  0  0  0  0  0
  160.6260  208.6870  157.1660 C   0  0  0  0  0  3  0  0  0  0  0  0
  161.1070  208.9450  154.4080 C   0  0  0  0  0  0  0  0  0  0  0  0
  161.4030  209.7450  156.6890 C   0  0  0  0  0  3  0  0  0  0  0  0
  160.3180  207.8940  154.9000 C   0  0  0  0  0  3  0  0  0  0  0  0
  161.6390  209.8760  155.3170 C   0  0  0  0  0  3  0  0  0  0  0  0
  159.3240  206.7380  156.7330 F   0  0  0  0  0  0  0  0  0  0  0  0
  161.5980  206.8160  147.7150 N   0  0  0  0  0  2  0  0  0  0  0  0
  161.3330  205.6090  148.3750 N   0  0  0  0  0  2  0  0  0  0  0  0
  161.1480  202.9650  149.2120 O   0  0  0  0  0  0  0  0  0  0  0  0
  161.7620  204.5380  147.4890 C   0  0  1  0  0  3  0  0  0  0  0  0
  161.2330  203.2130  147.9800 C   0  0  0  0  0  0  0  0  0  0  0  0
  160.9380  202.4990  145.6450 C   0  0  0  0  0  2  0  0  0  0  0  0
  161.7590  203.7560  145.3550 C   0  0  0  0  0  2  0  0  0  0  0  0
  161.3040  204.8010  146.1790 O   0  0  0  0  0  0  0  0  0  0  0  0
  160.9490  202.2150  147.0450 O   0  0  0  0  0  0  0  0  0  0  0  0
  1 12  1  0  0  0  0
  2  8  1  0  0  0  0
  3 11  1  0  0  0  0
  4 14  2  0  0  0  0
  5 10  2  0  0  0  0
  6  2  1  0  0  0  0
  6  5  1  0  0  0  0
  7 17  1  0  0  0  0
  8  3  1  0  0  0  0
  8  1  2  0  0  0  0
  9  4  1  0  0  0  0
 10  1  1  0  0  0  0
 11 18  1  0  0  0  0
 11 15  2  0  0  0  0
 12 18  2  0  0  0  0
 13  2  2  0  0  0  0
 14 15  1  0  0  0  0
 15 21  1  0  0  0  0
 16 26  1  6  0  0  0
 16  7  1  0  0  0  0
 16  9  1  0  0  0  0
 17  3  2  0  0  0  0
 17  4  1  0  0  0  0
 19 25  1  0  0  0  0
 19 20  1  0  0  0  0
 21 23  1  0  0  0  0
 21 24  2  0  0  0  0
 22 20  2  0  0  0  0
 23 19  2  0  0  0  0
 24 22  1  0  0  0  0
 26 27  1  0  0  0  0
 29 30  1  0  0  0  0
 29 27  1  1  0  0  0
 30 28  2  0  0  0  0
 31 34  1  0  0  0  0
 32 31  1  0  0  0  0
 32 33  1  0  0  0  0
 33 29  1  0  0  0  0
 34 30  1  0  0  0  0
M  END
>  <MODEL>
5

>  <REMARK>
 VINA RESULT:      -9.1      3.824      6.872
  Name = 
  4 active torsions:
  status: ('A' for Active; 'I' for Inactive)
    1  A    between atoms: N_3  and  C_13
    2  A    between atoms: N_3  and  N_17
    3  A    between atoms: C_12  and  C_28
    4  A    between atoms: N_17  and  C_29
                            x       y       z     vdW  Elec       q    Type
                         _______ _______ _______ _____ _____    ______ ____

>  <TORSDO>
F 4

$$$$
=
 OpenBabel11062408043D

 34 39  0  0  1  0  0  0  0  0999 V2000
  161.4300  204.7720  150.6160 C   0  0  0  0  0  0  0  0  0  0  0  0
  160.8940  205.9410  148.5830 C   0  0  0  0  0  0  0  0  0  0  0  0
  161.3180  207.2210  150.7350 C   0  0  0  0  0  0  0  0  0  0  0  0
  161.4940  209.6360  150.9930 C   0  0  0  0  0  0  0  0  0  0  0  0
  161.2780  203.6050  148.5710 C   0  0  0  0  0  3  0  0  0  0  0  0
  160.9670  204.7540  147.9270 N   0  0  0  0  0  2  0  0  0  0  0  0
  161.9550  208.8950  148.8260 C   0  0  0  0  0  2  0  0  0  0  0  0
  161.2370  206.0150  149.9600 C   0  0  0  0  0  0  0  0  0  0  0  0
  161.7820  210.8850  150.2580 C   0  0  0  0  0  2  0  0  0  0  0  0
  161.4810  203.6150  149.9090 N   0  0  0  0  0  0  0  0  0  0  0  0
  161.3030  207.1210  152.1650 C   0  0  0  0  0  0  0  0  0  0  0  0
  161.5230  204.7080  152.0000 C   0  0  0  0  0  3  0  0  0  0  0  0
  160.4370  206.9320  147.9610 O   0  0  0  0  0  0  0  0  0  0  0  0
  161.3620  209.5460  152.3680 C   0  0  0  0  0  3  0  0  0  0  0  0
  161.2540  208.2910  152.9770 C   0  0  0  0  0  0  0  0  0  0  0  0
  161.9600  210.4240  148.8130 C   0  0  1  0  0  3  0  0  0  0  0  0
  161.4930  208.5200  150.1890 C   0  0  0  0  0  0  0  0  0  0  0  0
  161.4290  205.8620  152.7630 C   0  0  0  0  0  3  0  0  0  0  0  0
  160.0910  207.3560  156.4750 C   0  0  0  0  0  0  0  0  0  0  0  0
  160.8400  208.2380  157.2580 C   0  0  0  0  0  3  0  0  0  0  0  0
  161.1230  208.2500  154.4600 C   0  0  0  0  0  0  0  0  0  0  0  0
  161.7250  209.1310  156.6490 C   0  0  0  0  0  3  0  0  0  0  0  0
  160.2280  207.3660  155.0850 C   0  0  0  0  0  3  0  0  0  0  0  0
  161.8620  209.1390  155.2580 C   0  0  0  0  0  3  0  0  0  0  0  0
  159.2280  206.4940  157.0640 F   0  0  0  0  0  0  0  0  0  0  0  0
  163.2260  210.9050  148.2880 N   0  0  0  0  0  2  0  0  0  0  0  0
  163.1130  212.2950  148.1580 N   0  0  0  0  0  2  0  0  0  0  0  0
  160.8180  213.6830  148.8900 O   0  0  0  0  0  0  0  0  0  0  0  0
  162.0730  212.5450  147.1720 C   0  0  1  0  0  3  0  0  0  0  0  0
  161.1280  213.6100  147.6710 C   0  0  0  0  0  0  0  0  0  0  0  0
  160.9090  214.4530  145.3720 C   0  0  0  0  0  2  0  0  0  0  0  0
  161.6310  213.1500  145.0260 C   0  0  0  0  0  2  0  0  0  0  0  0
  162.6670  212.9410  145.9540 O   0  0  0  0  0  0  0  0  0  0  0  0
  160.5040  214.4440  146.7410 O   0  0  0  0  0  0  0  0  0  0  0  0
  1 12  1  0  0  0  0
  2  8  1  0  0  0  0
  3 11  1  0  0  0  0
  4 14  2  0  0  0  0
  5 10  2  0  0  0  0
  6  5  1  0  0  0  0
  6  2  1  0  0  0  0
  7 17  1  0  0  0  0
  8  1  2  0  0  0  0
  8  3  1  0  0  0  0
  9  4  1  0  0  0  0
 10  1  1  0  0  0  0
 11 18  1  0  0  0  0
 11 15  2  0  0  0  0
 12 18  2  0  0  0  0
 13  2  2  0  0  0  0
 14 15  1  0  0  0  0
 15 21  1  0  0  0  0
 16 26  1  1  0  0  0
 16  7  1  0  0  0  0
 16  9  1  0  0  0  0
 17  3  2  0  0  0  0
 17  4  1  0  0  0  0
 19 25  1  0  0  0  0
 19 20  1  0  0  0  0
 21 23  1  0  0  0  0
 21 24  2  0  0  0  0
 22 20  2  0  0  0  0
 23 19  2  0  0  0  0
 24 22  1  0  0  0  0
 27 26  1  0  0  0  0
 29 30  1  0  0  0  0
 29 27  1  1  0  0  0
 30 28  2  0  0  0  0
 31 34  1  0  0  0  0
 32 31  1  0  0  0  0
 32 33  1  0  0  0  0
 33 29  1  0  0  0  0
 34 30  1  0  0  0  0
M  END
>  <MODEL>
6

>  <REMARK>
 VINA RESULT:      -9.1      2.964      5.262
  Name = 
  4 active torsions:
  status: ('A' for Active; 'I' for Inactive)
    1  A    between atoms: N_3  and  C_13
    2  A    between atoms: N_3  and  N_17
    3  A    between atoms: C_12  and  C_28
    4  A    between atoms: N_17  and  C_29
                            x       y       z     vdW  Elec       q    Type
                         _______ _______ _______ _____ _____    ______ ____

>  <TORSDO>
F 4

$$$$
=
 OpenBabel11062408043D

 34 39  0  0  1  0  0  0  0  0999 V2000
  161.2970  206.0950  149.3620 C   0  0  0  0  0  0  0  0  0  0  0  0
  161.8100  205.5020  151.6360 C   0  0  0  0  0  0  0  0  0  0  0  0
  161.6480  207.9400  150.9420 C   0  0  0  0  0  0  0  0  0  0  0  0
  161.7170  209.8860  152.4020 C   0  0  0  0  0  0  0  0  0  0  0  0
  161.2060  203.8420  150.0600 C   0  0  0  0  0  3  0  0  0  0  0  0
  161.5830  204.2040  151.3090 N   0  0  0  0  0  0  0  0  0  0  0  0
  161.0510  207.9300  153.4910 C   0  0  0  0  0  2  0  0  0  0  0  0
  161.5640  206.5290  150.6850 C   0  0  0  0  0  0  0  0  0  0  0  0
  161.5030  210.3270  153.7960 C   0  0  0  0  0  2  0  0  0  0  0  0
  161.0910  204.7810  149.0920 N   0  0  0  0  0  2  0  0  0  0  0  0
  161.7450  208.8360  149.8270 C   0  0  0  0  0  0  0  0  0  0  0  0
  161.2870  206.9980  148.3070 C   0  0  0  0  0  3  0  0  0  0  0  0
  162.3180  205.7480  152.7590 O   0  0  0  0  0  0  0  0  0  0  0  0
  161.9290  210.7400  151.3330 C   0  0  0  0  0  3  0  0  0  0  0  0
  161.9560  210.2310  150.0290 C   0  0  0  0  0  0  0  0  0  0  0  0
  161.1900  209.0320  154.5430 C   0  0  1  0  0  3  0  0  0  0  0  0
  161.5620  208.5320  152.2300 C   0  0  0  0  0  0  0  0  0  0  0  0
  161.5390  208.3430  148.5340 C   0  0  0  0  0  3  0  0  0  0  0  0
  161.3200  212.5810  147.1080 C   0  0  0  0  0  0  0  0  0  0  0  0
  162.6220  212.9530  146.7680 C   0  0  0  0  0  3  0  0  0  0  0  0
  162.1770  211.1920  148.9140 C   0  0  0  0  0  0  0  0  0  0  0  0
  163.7040  212.4450  147.4910 C   0  0  0  0  0  3  0  0  0  0  0  0
  161.1000  211.7010  148.1710 C   0  0  0  0  0  3  0  0  0  0  0  0
  163.4830  211.5660  148.5550 C   0  0  0  0  0  3  0  0  0  0  0  0
  160.2700  213.0680  146.4040 F   0  0  0  0  0  0  0  0  0  0  0  0
  159.9440  209.1670  155.2770 N   0  0  0  0  0  2  0  0  0  0  0  0
  160.1660  210.1120  156.2870 N   0  0  0  0  0  2  0  0  0  0  0  0
  160.4560  212.8680  156.5070 O   0  0  0  0  0  0  0  0  0  0  0  0
  158.9860  210.9620  156.3400 C   0  0  1  0  0  3  0  0  0  0  0  0
  159.3670  212.3980  156.0800 C   0  0  0  0  0  0  0  0  0  0  0  0
  157.2460  212.7140  154.8770 C   0  0  0  0  0  2  0  0  0  0  0  0
  156.9160  211.3510  155.4870 C   0  0  0  0  0  2  0  0  0  0  0  0
  158.0450  210.5180  155.3860 O   0  0  0  0  0  0  0  0  0  0  0  0
  158.4400  213.2380  155.4600 O   0  0  0  0  0  0  0  0  0  0  0  0
  1  8  1  0  0  0  0
  2 13  2  0  0  0  0
  3 17  1  0  0  0  0
  4  9  1  0  0  0  0
  5  6  2  0  0  0  0
  6  2  1  0  0  0  0
  7 16  1  0  0  0  0
  8  3  2  0  0  0  0
  8  2  1  0  0  0  0
  9 16  1  0  0  0  0
 10  1  1  0  0  0  0
 10  5  1  0  0  0  0
 11 15  1  0  0  0  0
 11  3  1  0  0  0  0
 12 18  1  0  0  0  0
 12  1  2  0  0  0  0
 14  4  1  0  0  0  0
 15 14  2  0  0  0  0
 16 26  1  6  0  0  0
 17  4  2  0  0  0  0
 17  7  1  0  0  0  0
 18 11  2  0  0  0  0
 19 23  1  0  0  0  0
 20 19  2  0  0  0  0
 20 22  1  0  0  0  0
 21 15  1  0  0  0  0
 22 24  2  0  0  0  0
 23 21  2  0  0  0  0
 24 21  1  0  0  0  0
 25 19  1  0  0  0  0
 26 27  1  0  0  0  0
 29 27  1  6  0  0  0
 30 29  1  0  0  0  0
 30 28  2  0  0  0  0
 31 34  1  0  0  0  0
 31 32  1  0  0  0  0
 33 32  1  0  0  0  0
 33 29  1  0  0  0  0
 34 30  1  0  0  0  0
M  END
>  <MODEL>
7

>  <REMARK>
 VINA RESULT:      -8.3      4.264      7.736
  Name = 
  4 active torsions:
  status: ('A' for Active; 'I' for Inactive)
    1  A    between atoms: N_3  and  C_13
    2  A    between atoms: N_3  and  N_17
    3  A    between atoms: C_12  and  C_28
    4  A    between atoms: N_17  and  C_29
                            x       y       z     vdW  Elec       q    Type
                         _______ _______ _______ _____ _____    ______ ____

>  <TORSDO>
F 4

$$$$
=
 OpenBabel11062408043D

 34 39  0  0  1  0  0  0  0  0999 V2000
  160.5150  213.0140  149.7960 C   0  0  0  0  0  0  0  0  0  0  0  0
  162.0860  211.8220  148.4180 C   0  0  0  0  0  0  0  0  0  0  0  0
  161.2750  210.8270  150.6100 C   0  0  0  0  0  0  0  0  0  0  0  0
  161.7190  208.5880  151.4560 C   0  0  0  0  0  0  0  0  0  0  0  0
  161.0790  213.8220  147.6510 C   0  0  0  0  0  3  0  0  0  0  0  0
  161.9260  212.7810  147.4710 N   0  0  0  0  0  2  0  0  0  0  0  0
  161.9120  208.7610  149.1340 C   0  0  0  0  0  2  0  0  0  0  0  0
  161.2890  211.8430  149.5950 C   0  0  0  0  0  0  0  0  0  0  0  0
  162.1010  207.2220  151.0420 C   0  0  0  0  0  2  0  0  0  0  0  0
  160.4020  213.9470  148.8160 N   0  0  0  0  0  0  0  0  0  0  0  0
  160.7240  211.1480  151.8940 C   0  0  0  0  0  0  0  0  0  0  0  0
  159.8960  213.2550  151.0150 C   0  0  0  0  0  3  0  0  0  0  0  0
  163.0080  210.9830  148.2590 O   0  0  0  0  0  0  0  0  0  0  0  0
  161.2950  208.9330  152.7270 C   0  0  0  0  0  3  0  0  0  0  0  0
  160.8000  210.2190  152.9720 C   0  0  0  0  0  0  0  0  0  0  0  0
  162.3530  207.3540  149.5410 C   0  0  1  0  0  3  0  0  0  0  0  0
  161.7000  209.4860  150.4160 C   0  0  0  0  0  0  0  0  0  0  0  0
  160.0260  212.3500  152.0580 C   0  0  0  0  0  3  0  0  0  0  0  0
  158.5700  210.9770  155.9580 C   0  0  0  0  0  0  0  0  0  0  0  0
  159.5190  211.2030  156.9580 C   0  0  0  0  0  3  0  0  0  0  0  0
  160.3480  210.5360  154.3550 C   0  0  0  0  0  0  0  0  0  0  0  0
  160.8800  211.1040  156.6620 C   0  0  0  0  0  3  0  0  0  0  0  0
  158.9830  210.6510  154.6630 C   0  0  0  0  0  3  0  0  0  0  0  0
  161.2930  210.7760  155.3680 C   0  0  0  0  0  3  0  0  0  0  0  0
  157.2490  211.0790  156.2420 F   0  0  0  0  0  0  0  0  0  0  0  0
  161.5720  206.3680  148.8150 N   0  0  0  0  0  2  0  0  0  0  0  0
  160.8480  205.6390  149.7670 N   0  0  0  0  0  2  0  0  0  0  0  0
  160.8460  204.0090  152.0190 O   0  0  0  0  0  0  0  0  0  0  0  0
  161.2770  204.2530  149.6580 C   0  0  1  0  0  3  0  0  0  0  0  0
  160.8460  203.4760  150.8770 C   0  0  0  0  0  0  0  0  0  0  0  0
  160.4500  201.5130  149.4510 C   0  0  0  0  0  2  0  0  0  0  0  0
  161.1890  202.3560  148.4100 C   0  0  0  0  0  2  0  0  0  0  0  0
  160.7310  203.6840  148.4870 O   0  0  0  0  0  0  0  0  0  0  0  0
  160.5580  202.1170  150.7400 O   0  0  0  0  0  0  0  0  0  0  0  0
  1 12  1  0  0  0  0
  2  8  1  0  0  0  0
  3 11  1  0  0  0  0
  4 14  2  0  0  0  0
  5 10  2  0  0  0  0
  6  5  1  0  0  0  0
  6  2  1  0  0  0  0
  7 16  1  0  0  0  0
  7 17  1  0  0  0  0
  8  1  2  0  0  0  0
  8  3  1  0  0  0  0
  9  4  1  0  0  0  0
 10  1  1  0  0  0  0
 11 18  1  0  0  0  0
 11 15  2  0  0  0  0
 12 18  2  0  0  0  0
 13  2  2  0  0  0  0
 14 15  1  0  0  0  0
 15 21  1  0  0  0  0
 16 26  1  6  0  0  0
 16  9  1  0  0  0  0
 17  3  2  0  0  0  0
 17  4  1  0  0  0  0
 19 25  1  0  0  0  0
 19 20  1  0  0  0  0
 21 23  1  0  0  0  0
 21 24  2  0  0  0  0
 22 20  2  0  0  0  0
 23 19  2  0  0  0  0
 24 22  1  0  0  0  0
 26 27  1  0  0  0  0
 29 27  1  1  0  0  0
 29 30  1  0  0  0  0
 30 28  2  0  0  0  0
 31 34  1  0  0  0  0
 32 33  1  0  0  0  0
 32 31  1  0  0  0  0
 33 29  1  0  0  0  0
 34 30  1  0  0  0  0
M  END
>  <MODEL>
8

>  <REMARK>
 VINA RESULT:      -8.2      3.908      7.912
  Name = 
  4 active torsions:
  status: ('A' for Active; 'I' for Inactive)
    1  A    between atoms: N_3  and  C_13
    2  A    between atoms: N_3  and  N_17
    3  A    between atoms: C_12  and  C_28
    4  A    between atoms: N_17  and  C_29
                            x       y       z     vdW  Elec       q    Type
                         _______ _______ _______ _____ _____    ______ ____

>  <TORSDO>
F 4

$$$$
=
 OpenBabel11062408043D

 34 39  0  0  1  0  0  0  0  0999 V2000
  162.2960  209.9820  148.6760 C   0  0  0  0  0  0  0  0  0  0  0  0
  161.3680  211.6590  150.1300 C   0  0  0  0  0  0  0  0  0  0  0  0
  161.5490  209.2440  150.8950 C   0  0  0  0  0  0  0  0  0  0  0  0
  161.0960  208.3750  153.1240 C   0  0  0  0  0  0  0  0  0  0  0  0
  162.3530  212.2600  148.0630 C   0  0  0  0  0  3  0  0  0  0  0  0
  161.7180  212.5950  149.2110 N   0  0  0  0  0  0  0  0  0  0  0  0
  161.6250  210.6500  153.1020 C   0  0  0  0  0  2  0  0  0  0  0  0
  161.7490  210.3030  149.9460 C   0  0  0  0  0  0  0  0  0  0  0  0
  161.0070  208.7600  154.5470 C   0  0  0  0  0  2  0  0  0  0  0  0
  162.6130  210.9600  147.7910 N   0  0  0  0  0  2  0  0  0  0  0  0
  161.6330  207.8880  150.4380 C   0  0  0  0  0  0  0  0  0  0  0  0
  162.4720  208.6590  148.2940 C   0  0  0  0  0  3  0  0  0  0  0  0
  160.6360  212.0160  151.0870 O   0  0  0  0  0  0  0  0  0  0  0  0
  161.0610  207.0710  152.6600 C   0  0  0  0  0  3  0  0  0  0  0  0
  161.3190  206.8050  151.3100 C   0  0  0  0  0  0  0  0  0  0  0  0
  161.2270  210.2720  154.5290 C   0  0  1  0  0  3  0  0  0  0  0  0
  161.3480  209.4360  152.2870 C   0  0  0  0  0  0  0  0  0  0  0  0
  162.1160  207.6280  149.1510 C   0  0  0  0  0  3  0  0  0  0  0  0
  161.1220  203.7180  149.0970 C   0  0  0  0  0  0  0  0  0  0  0  0
  161.1320  202.6970  150.0500 C   0  0  0  0  0  3  0  0  0  0  0  0
  161.2780  205.3840  150.8640 C   0  0  0  0  0  0  0  0  0  0  0  0
  161.2090  203.0120  151.4080 C   0  0  0  0  0  3  0  0  0  0  0  0
  161.1880  205.0540  149.5030 C   0  0  0  0  0  3  0  0  0  0  0  0
  161.2770  204.3480  151.8140 C   0  0  0  0  0  3  0  0  0  0  0  0
  161.0410  203.4140  147.7790 F   0  0  0  0  0  0  0  0  0  0  0  0
  162.2940  210.6320  155.4460 N   0  0  0  0  0  2  0  0  0  0  0  0
  161.6850  211.1060  156.6160 N   0  0  0  0  0  2  0  0  0  0  0  0
  159.2410  209.9440  157.2530 O   0  0  0  0  0  0  0  0  0  0  0  0
  160.4480  211.7580  156.2160 C   0  0  1  0  0  3  0  0  0  0  0  0
  159.2820  211.1720  156.9730 C   0  0  0  0  0  0  0  0  0  0  0  0
  158.2450  213.4000  157.0460 C   0  0  0  0  0  2  0  0  0  0  0  0
  159.3440  213.7360  156.0360 C   0  0  0  0  0  2  0  0  0  0  0  0
  160.5490  213.1450  156.4570 O   0  0  0  0  0  0  0  0  0  0  0  0
  158.1860  211.9900  157.2580 O   0  0  0  0  0  0  0  0  0  0  0  0
  1  8  1  0  0  0  0
  2 13  2  0  0  0  0
  3 17  1  0  0  0  0
  4  9  1  0  0  0  0
  5  6  2  0  0  0  0
  6  2  1  0  0  0  0
  7 16  1  0  0  0  0
  8  2  1  0  0  0  0
  8  3  2  0  0  0  0
 10  5  1  0  0  0  0
 10  1  1  0  0  0  0
 11  3  1  0  0  0  0
 11 15  1  0  0  0  0
 12  1  2  0  0  0  0
 12 18  1  0  0  0  0
 14  4  1  0  0  0  0
 15 14  2  0  0  0  0
 16  9  1  0  0  0  0
 16 26  1  1  0  0  0
 17  7  1  0  0  0  0
 17  4  2  0  0  0  0
 18 11  2  0  0  0  0
 19 23  2  0  0  0  0
 19 20  1  0  0  0  0
 20 22  2  0  0  0  0
 21 15  1  0  0  0  0
 21 24  2  0  0  0  0
 22 24  1  0  0  0  0
 23 21  1  0  0  0  0
 25 19  1  0  0  0  0
 26 27  1  0  0  0  0
 29 33  1  0  0  0  0
 29 27  1  1  0  0  0
 29 30  1  0  0  0  0
 30 28  2  0  0  0  0
 30 34  1  0  0  0  0
 31 34  1  0  0  0  0
 32 33  1  0  0  0  0
 32 31  1  0  0  0  0
M  END
>  <MODEL>
9

>  <REMARK>
 VINA RESULT:      -7.8      2.396      6.627
  Name = 
  4 active torsions:
  status: ('A' for Active; 'I' for Inactive)
    1  A    between atoms: N_3  and  C_13
    2  A    between atoms: N_3  and  N_17
    3  A    between atoms: C_12  and  C_28
    4  A    between atoms: N_17  and  C_29
                            x       y       z     vdW  Elec       q    Type
                         _______ _______ _______ _____ _____    ______ ____

>  <TORSDO>
F 4

$$$$
