=
 OpenBabel11062408003D

 34 38  0  0  1  0  0  0  0  0999 V2000
  162.3450  208.4870  150.0700 C   0  0  2  0  0  3  0  0  0  0  0  0
  160.8010  206.6640  149.6720 C   0  0  0  0  0  0  0  0  0  0  0  0
  162.6860  208.0090  148.3450 S   0  0  0  0  0  0  0  0  0  0  0  0
  159.9170  205.8610  149.9290 O   0  0  0  0  0  0  0  0  0  0  0  0
  161.6830  206.4960  148.4850 C   0  0  2  0  0  3  0  0  0  0  0  0
  161.0260  207.8760  150.5090 C   0  0  1  0  0  3  0  0  0  0  0  0
  160.7830  208.2320  154.3020 C   0  0  0  0  0  0  0  0  0  0  0  0
  160.1530  209.7840  152.5400 C   0  0  0  0  0  3  0  0  0  0  0  0
  161.0680  207.5730  151.9830 C   0  0  0  0  0  0  0  0  0  0  0  0
  159.9070  210.4200  154.8640 C   0  0  0  0  0  3  0  0  0  0  0  0
  159.7810  210.7220  153.5060 C   0  0  0  0  0  3  0  0  0  0  0  0
  160.6610  208.5340  152.9270 C   0  0  0  0  0  0  0  0  0  0  0  0
  160.4040  209.1750  155.2620 C   0  0  0  0  0  3  0  0  0  0  0  0
  161.6970  206.0810  153.7330 C   0  0  0  0  0  3  0  0  0  0  0  0
  161.3010  207.0010  154.7020 C   0  0  0  0  0  3  0  0  0  0  0  0
  161.5820  206.3850  152.4130 N   0  0  0  0  0  0  0  0  0  0  0  0
  160.8730  206.3460  147.2860 N   0  0  0  0  0  2  0  0  0  0  0  0
  161.7370  205.7980  146.2540 C   0  0  0  0  0  2  0  0  0  0  0  0
  162.1150  204.3700  146.6180 C   0  0  2  0  0  3  0  0  0  0  0  0
  160.7100  203.8780  144.6870 O   0  0  0  0  0  1  0  0  0  0  0  0
  161.4960  203.3140  145.6980 C   0  0  2  0  0  3  0  0  0  0  0  0
  160.8750  203.6110  147.0490 C   0  0  1  0  0  3  0  0  0  0  0  0
  161.0060  201.2680  147.4560 O   0  0  0  0  0  1  0  0  0  0  0  0
  160.5230  202.6530  149.2020 O   0  0  0  0  0  1  0  0  0  0  0  0
  161.2630  202.5160  148.0250 C   0  0  0  0  0  3  0  0  0  0  0  0
  162.2670  209.9940  150.1910 C   0  0  0  0  0  2  0  0  0  0  0  0
  161.9220  210.5840  148.9010 N   0  0  0  0  0  2  0  0  0  0  0  0
  162.1560  213.4050  146.7760 N   0  0  0  0  0  0  0  0  0  0  0  0
  164.0070  212.1560  147.4430 O   0  0  0  0  0  0  0  0  0  0  0  0
  162.1250  212.0370  148.9310 C   0  0  1  0  0  3  0  0  0  0  0  0
  162.8300  212.5330  147.6910 C   0  0  0  0  0  0  0  0  0  0  0  0
  160.2990  213.6130  148.3120 C   0  0  0  0  0  3  0  0  0  0  0  0
  160.8300  212.7700  149.1990 C   0  0  0  0  0  3  0  0  0  0  0  0
  160.9850  213.9040  147.0400 C   0  0  0  0  0  3  0  0  0  0  0  0
  1 26  1  6  0  0  0
  1  6  1  0  0  0  0
  2  4  2  0  0  0  0
  2  6  1  0  0  0  0
  3  5  1  0  0  0  0
  3  1  1  0  0  0  0
  5 17  1  6  0  0  0
  5  2  1  0  0  0  0
  6  9  1  1  0  0  0
  7 15  1  0  0  0  0
  7 13  2  0  0  0  0
  8 12  2  0  0  0  0
  8 11  1  0  0  0  0
  9 16  2  0  0  0  0
  9 12  1  0  0  0  0
 10 13  1  0  0  0  0
 11 10  2  0  0  0  0
 12  7  1  0  0  0  0
 14 15  2  0  0  0  0
 16 14  1  0  0  0  0
 18 17  1  0  0  0  0
 19 18  1  6  0  0  0
 19 22  1  0  0  0  0
 21 20  1  6  0  0  0
 21 19  1  0  0  0  0
 21 22  1  0  0  0  0
 22 25  1  1  0  0  0
 23 25  1  0  0  0  0
 25 24  1  0  0  0  0
 27 26  1  0  0  0  0
 28 34  2  0  0  0  0
 28 31  1  0  0  0  0
 29 31  2  0  0  0  0
 30 27  1  6  0  0  0
 30 33  1  0  0  0  0
 31 30  1  0  0  0  0
 32 33  2  0  0  0  0
 34 32  1  0  0  0  0
M  END
>  <MODEL>
1

>  <REMARK>
 VINA RESULT:      -7.9      0.000      0.000
  Name = 
  8 active torsions:
  status: ('A' for Active; 'I' for Inactive)
    1  A    between atoms: C_3  and  C_13
    2  A    between atoms: C_3  and  N_17
    3  A    between atoms: C_4  and  C_31
    4  A    between atoms: C_5  and  C_26
    5  A    between atoms: C_12  and  N_28
    6  A    between atoms: N_17  and  C_29
    7  A    between atoms: C_20  and  C_34
    8  A    between atoms: C_26  and  N_28
                            x       y       z     vdW  Elec       q    Type
                         _______ _______ _______ _____ _____    ______ ____

>  <TORSDO>
F 8

$$$$
=
 OpenBabel11062408003D

 34 38  0  0  1  0  0  0  0  0999 V2000
  161.8340  209.7300  151.5630 C   0  0  2  0  0  3  0  0  0  0  0  0
  160.9900  207.8120  152.7760 C   0  0  0  0  0  0  0  0  0  0  0  0
  162.3100  208.3200  150.5120 S   0  0  0  0  0  0  0  0  0  0  0  0
  160.4280  207.2080  153.6770 O   0  0  0  0  0  0  0  0  0  0  0  0
  161.8720  207.1120  151.8030 C   0  0  2  0  0  3  0  0  0  0  0  0
  160.7980  209.2760  152.5760 C   0  0  1  0  0  3  0  0  0  0  0  0
  160.1910  211.7890  155.3850 C   0  0  0  0  0  0  0  0  0  0  0  0
  158.8180  211.2330  153.4570 C   0  0  0  0  0  3  0  0  0  0  0  0
  160.9450  210.0670  153.8480 C   0  0  0  0  0  0  0  0  0  0  0  0
  158.1080  212.9630  154.9960 C   0  0  0  0  0  3  0  0  0  0  0  0
  157.8900  212.2030  153.8440 C   0  0  0  0  0  3  0  0  0  0  0  0
  159.9770  211.0190  154.2190 C   0  0  0  0  0  0  0  0  0  0  0  0
  159.2550  212.7540  155.7680 C   0  0  0  0  0  3  0  0  0  0  0  0
  162.2810  210.6500  155.7360 C   0  0  0  0  0  3  0  0  0  0  0  0
  161.3450  211.6000  156.1430 C   0  0  0  0  0  3  0  0  0  0  0  0
  162.0680  209.9200  154.6080 N   0  0  0  0  0  0  0  0  0  0  0  0
  161.1550  206.0010  151.1980 N   0  0  0  0  0  2  0  0  0  0  0  0
  161.1940  206.2030  149.7590 C   0  0  0  0  0  2  0  0  0  0  0  0
  161.8060  204.9790  149.0940 C   0  0  2  0  0  3  0  0  0  0  0  0
  160.7780  205.9710  147.1180 O   0  0  0  0  0  1  0  0  0  0  0  0
  161.5320  204.8910  147.5900 C   0  0  2  0  0  3  0  0  0  0  0  0
  160.7030  204.0820  148.5680 C   0  0  1  0  0  3  0  0  0  0  0  0
  160.8470  202.0500  147.3340 O   0  0  0  0  0  1  0  0  0  0  0  0
  160.5790  201.9360  149.5950 O   0  0  0  0  0  1  0  0  0  0  0  0
  161.1810  202.6430  148.5520 C   0  0  0  0  0  3  0  0  0  0  0  0
  161.2550  210.8440  150.7150 C   0  0  0  0  0  2  0  0  0  0  0  0
  161.9890  210.9490  149.4570 N   0  0  0  0  0  2  0  0  0  0  0  0
  161.9290  212.8870  146.4960 N   0  0  0  0  0  0  0  0  0  0  0  0
  163.9020  212.1930  147.5250 O   0  0  0  0  0  0  0  0  0  0  0  0
  162.0030  212.3400  148.9890 C   0  0  1  0  0  3  0  0  0  0  0  0
  162.6790  212.4740  147.6450 C   0  0  0  0  0  0  0  0  0  0  0  0
  160.0120  213.3580  147.8930 C   0  0  0  0  0  3  0  0  0  0  0  0
  160.6170  212.9430  149.0070 C   0  0  0  0  0  3  0  0  0  0  0  0
  160.6960  213.2880  146.5890 C   0  0  0  0  0  3  0  0  0  0  0  0
  1 26  1  6  0  0  0
  1  6  1  0  0  0  0
  2  4  2  0  0  0  0
  3  1  1  0  0  0  0
  3  5  1  0  0  0  0
  5 17  1  6  0  0  0
  5  2  1  0  0  0  0
  6  2  1  0  0  0  0
  6  9  1  1  0  0  0
  7 13  1  0  0  0  0
  7 15  1  0  0  0  0
  8 11  2  0  0  0  0
  8 12  1  0  0  0  0
  9 12  1  0  0  0  0
  9 16  2  0  0  0  0
 10 13  2  0  0  0  0
 11 10  1  0  0  0  0
 12  7  2  0  0  0  0
 14 15  2  0  0  0  0
 16 14  1  0  0  0  0
 18 17  1  0  0  0  0
 19 18  1  1  0  0  0
 21 20  1  1  0  0  0
 21 22  1  0  0  0  0
 21 19  1  0  0  0  0
 22 25  1  6  0  0  0
 22 19  1  0  0  0  0
 23 25  1  0  0  0  0
 25 24  1  0  0  0  0
 27 26  1  0  0  0  0
 28 34  2  0  0  0  0
 28 31  1  0  0  0  0
 29 31  2  0  0  0  0
 30 33  1  0  0  0  0
 30 27  1  6  0  0  0
 31 30  1  0  0  0  0
 32 33  2  0  0  0  0
 34 32  1  0  0  0  0
M  END
>  <MODEL>
2

>  <REMARK>
 VINA RESULT:      -7.1      1.763      2.691
  Name = 
  8 active torsions:
  status: ('A' for Active; 'I' for Inactive)
    1  A    between atoms: C_3  and  C_13
    2  A    between atoms: C_3  and  N_17
    3  A    between atoms: C_4  and  C_31
    4  A    between atoms: C_5  and  C_26
    5  A    between atoms: C_12  and  N_28
    6  A    between atoms: N_17  and  C_29
    7  A    between atoms: C_20  and  C_34
    8  A    between atoms: C_26  and  N_28
                            x       y       z     vdW  Elec       q    Type
                         _______ _______ _______ _____ _____    ______ ____

>  <TORSDO>
F 8

$$$$
=
 OpenBabel11062408003D

 34 38  0  0  1  0  0  0  0  0999 V2000
  161.8570  206.9270  150.5500 C   0  0  2  0  0  3  0  0  0  0  0  0
  161.2570  207.6240  148.3100 C   0  0  0  0  0  0  0  0  0  0  0  0
  162.4130  208.6610  150.4810 S   0  0  0  0  0  0  0  0  0  0  0  0
  160.7970  207.5170  147.1830 O   0  0  0  0  0  0  0  0  0  0  0  0
  162.1530  208.7510  148.6800 C   0  0  2  0  0  3  0  0  0  0  0  0
  160.9180  206.6530  149.3890 C   0  0  1  0  0  3  0  0  0  0  0  0
  161.1540  202.8430  149.4420 C   0  0  0  0  0  0  0  0  0  0  0  0
  160.6800  204.4080  151.2410 C   0  0  0  0  0  3  0  0  0  0  0  0
  161.0500  205.2190  148.9520 C   0  0  0  0  0  0  0  0  0  0  0  0
  160.8170  202.0340  151.7010 C   0  0  0  0  0  3  0  0  0  0  0  0
  160.6160  203.3440  152.1440 C   0  0  0  0  0  3  0  0  0  0  0  0
  160.9540  204.1700  149.8850 C   0  0  0  0  0  0  0  0  0  0  0  0
  161.0820  201.7830  150.3510 C   0  0  0  0  0  3  0  0  0  0  0  0
  161.5330  203.6610  147.2120 C   0  0  0  0  0  3  0  0  0  0  0  0
  161.4420  202.5920  148.1020 C   0  0  0  0  0  3  0  0  0  0  0  0
  161.3470  204.9340  147.6510 N   0  0  0  0  0  0  0  0  0  0  0  0
  161.5160  210.0170  148.3510 N   0  0  0  0  0  2  0  0  0  0  0  0
  162.2210  211.0530  149.0880 C   0  0  0  0  0  2  0  0  0  0  0  0
  162.3620  212.2880  148.2120 C   0  0  2  0  0  3  0  0  0  0  0  0
  160.6670  213.1400  149.7440 O   0  0  0  0  0  1  0  0  0  0  0  0
  161.4480  213.4460  148.6240 C   0  0  2  0  0  3  0  0  0  0  0  0
  161.0620  212.5380  147.4720 C   0  0  1  0  0  3  0  0  0  0  0  0
  160.6490  212.6260  145.1290 O   0  0  0  0  0  1  0  0  0  0  0  0
  162.7190  213.1980  145.8930 O   0  0  0  0  0  1  0  0  0  0  0  0
  161.3500  213.2470  146.1630 C   0  0  0  0  0  3  0  0  0  0  0  0
  161.1350  206.6600  151.8550 C   0  0  0  0  0  2  0  0  0  0  0  0
  160.7380  207.9200  152.4760 N   0  0  0  0  0  2  0  0  0  0  0  0
  160.3610  209.7210  155.4990 N   0  0  0  0  0  0  0  0  0  0  0  0
  161.8600  210.3400  153.8260 O   0  0  0  0  0  0  0  0  0  0  0  0
  161.2750  208.0110  153.8380 C   0  0  1  0  0  3  0  0  0  0  0  0
  161.2020  209.4190  154.3790 C   0  0  0  0  0  0  0  0  0  0  0  0
  159.9050  207.3670  155.8160 C   0  0  0  0  0  3  0  0  0  0  0  0
  160.6270  206.9990  154.7560 C   0  0  0  0  0  3  0  0  0  0  0  0
  159.7470  208.7890  156.1670 C   0  0  0  0  0  3  0  0  0  0  0  0
  1 26  1  1  0  0  0
  2  5  1  0  0  0  0
  2  6  1  0  0  0  0
  3  1  1  0  0  0  0
  4  2  2  0  0  0  0
  5 17  1  1  0  0  0
  5  3  1  0  0  0  0
  6  9  1  6  0  0  0
  6  1  1  0  0  0  0
  7 12  1  0  0  0  0
  7 13  2  0  0  0  0
  8 11  1  0  0  0  0
  9 12  1  0  0  0  0
 10 11  2  0  0  0  0
 12  8  2  0  0  0  0
 13 10  1  0  0  0  0
 14 16  1  0  0  0  0
 14 15  2  0  0  0  0
 15  7  1  0  0  0  0
 16  9  2  0  0  0  0
 17 18  1  0  0  0  0
 19 21  1  0  0  0  0
 19 18  1  1  0  0  0
 21 20  1  1  0  0  0
 22 25  1  6  0  0  0
 22 19  1  0  0  0  0
 22 21  1  0  0  0  0
 23 25  1  0  0  0  0
 24 25  1  0  0  0  0
 26 27  1  0  0  0  0
 28 34  2  0  0  0  0
 29 31  2  0  0  0  0
 30 27  1  6  0  0  0
 30 31  1  0  0  0  0
 30 33  1  0  0  0  0
 31 28  1  0  0  0  0
 32 34  1  0  0  0  0
 33 32  2  0  0  0  0
M  END
>  <MODEL>
3

>  <REMARK>
 VINA RESULT:      -6.8      2.377      7.389
  Name = 
  8 active torsions:
  status: ('A' for Active; 'I' for Inactive)
    1  A    between atoms: C_3  and  C_13
    2  A    between atoms: C_3  and  N_17
    3  A    between atoms: C_4  and  C_31
    4  A    between atoms: C_5  and  C_26
    5  A    between atoms: C_12  and  N_28
    6  A    between atoms: N_17  and  C_29
    7  A    between atoms: C_20  and  C_34
    8  A    between atoms: C_26  and  N_28
                            x       y       z     vdW  Elec       q    Type
                         _______ _______ _______ _____ _____    ______ ____

>  <TORSDO>
F 8

$$$$
=
 OpenBabel11062408003D

 34 38  0  0  1  0  0  0  0  0999 V2000
  161.6680  209.3950  152.4810 C   0  0  2  0  0  3  0  0  0  0  0  0
  160.9330  207.5390  153.8510 C   0  0  0  0  0  0  0  0  0  0  0  0
  161.9620  207.9420  151.4220 S   0  0  0  0  0  0  0  0  0  0  0  0
  160.4740  206.9780  154.8350 O   0  0  0  0  0  0  0  0  0  0  0  0
  161.6610  206.7850  152.7950 C   0  0  2  0  0  3  0  0  0  0  0  0
  160.7590  209.0020  153.6320 C   0  0  1  0  0  3  0  0  0  0  0  0
  160.4720  211.3840  156.6020 C   0  0  0  0  0  0  0  0  0  0  0  0
  158.7590  210.5510  155.0910 C   0  0  0  0  0  3  0  0  0  0  0  0
  161.0930  209.8220  154.8500 C   0  0  0  0  0  0  0  0  0  0  0  0
  158.1780  212.1310  156.8330 C   0  0  0  0  0  3  0  0  0  0  0  0
  157.8050  211.3290  155.7510 C   0  0  0  0  0  3  0  0  0  0  0  0
  160.1000  210.5740  155.5050 C   0  0  0  0  0  0  0  0  0  0  0  0
  159.5100  212.1560  157.2600 C   0  0  0  0  0  3  0  0  0  0  0  0
  162.7540  210.6730  156.3330 C   0  0  0  0  0  3  0  0  0  0  0  0
  161.8020  211.4300  157.0150 C   0  0  0  0  0  3  0  0  0  0  0  0
  162.3870  209.9030  155.2750 N   0  0  0  0  0  0  0  0  0  0  0  0
  160.8390  205.6820  152.3210 N   0  0  0  0  0  2  0  0  0  0  0  0
  161.6270  204.9540  151.3400 C   0  0  0  0  0  2  0  0  0  0  0  0
  160.8010  204.7500  150.0790 C   0  0  2  0  0  3  0  0  0  0  0  0
  161.0570  202.4090  150.7100 O   0  0  0  0  0  1  0  0  0  0  0  0
  160.5110  203.2800  149.7610 C   0  0  2  0  0  3  0  0  0  0  0  0
  161.6280  204.0140  149.0440 C   0  0  1  0  0  3  0  0  0  0  0  0
  161.4790  203.3770  146.7540 O   0  0  0  0  0  1  0  0  0  0  0  0
  161.7790  205.5800  147.2550 O   0  0  0  0  0  1  0  0  0  0  0  0
  161.1580  204.3940  147.6530 C   0  0  0  0  0  3  0  0  0  0  0  0
  161.0170  210.5040  151.6810 C   0  0  0  0  0  2  0  0  0  0  0  0
  162.0090  211.1600  150.8340 N   0  0  0  0  0  2  0  0  0  0  0  0
  161.3940  214.0490  148.8840 N   0  0  0  0  0  0  0  0  0  0  0  0
  159.8830  213.2280  150.4570 O   0  0  0  0  0  0  0  0  0  0  0  0
  161.3990  211.5900  149.5710 C   0  0  1  0  0  3  0  0  0  0  0  0
  160.8330  212.9870  149.6650 C   0  0  0  0  0  0  0  0  0  0  0  0
  162.7850  212.4670  147.6960 C   0  0  0  0  0  3  0  0  0  0  0  0
  162.3560  211.4260  148.4120 C   0  0  0  0  0  3  0  0  0  0  0  0
  162.3010  213.8300  147.9790 C   0  0  0  0  0  3  0  0  0  0  0  0
  1 26  1  6  0  0  0
  1  6  1  0  0  0  0
  2  4  2  0  0  0  0
  3  1  1  0  0  0  0
  3  5  1  0  0  0  0
  5 17  1  6  0  0  0
  5  2  1  0  0  0  0
  6  2  1  0  0  0  0
  6  9  1  1  0  0  0
  7 15  1  0  0  0  0
  7 13  2  0  0  0  0
  8 12  2  0  0  0  0
  8 11  1  0  0  0  0
  9 16  2  0  0  0  0
  9 12  1  0  0  0  0
 10 13  1  0  0  0  0
 11 10  2  0  0  0  0
 12  7  1  0  0  0  0
 14 15  2  0  0  0  0
 16 14  1  0  0  0  0
 18 17  1  0  0  0  0
 19 18  1  1  0  0  0
 21 19  1  0  0  0  0
 21 20  1  1  0  0  0
 22 25  1  6  0  0  0
 22 21  1  0  0  0  0
 22 19  1  0  0  0  0
 23 25  1  0  0  0  0
 24 25  1  0  0  0  0
 27 26  1  0  0  0  0
 28 31  1  0  0  0  0
 30 31  1  0  0  0  0
 30 27  1  1  0  0  0
 31 29  2  0  0  0  0
 32 34  1  0  0  0  0
 32 33  2  0  0  0  0
 33 30  1  0  0  0  0
 34 28  2  0  0  0  0
M  END
>  <MODEL>
4

>  <REMARK>
 VINA RESULT:      -6.6      2.382      3.689
  Name = 
  8 active torsions:
  status: ('A' for Active; 'I' for Inactive)
    1  A    between atoms: C_3  and  C_13
    2  A    between atoms: C_3  and  N_17
    3  A    between atoms: C_4  and  C_31
    4  A    between atoms: C_5  and  C_26
    5  A    between atoms: C_12  and  N_28
    6  A    between atoms: N_17  and  C_29
    7  A    between atoms: C_20  and  C_34
    8  A    between atoms: C_26  and  N_28
                            x       y       z     vdW  Elec       q    Type
                         _______ _______ _______ _____ _____    ______ ____

>  <TORSDO>
F 8

$$$$
=
 OpenBabel11062408003D

 34 38  0  0  1  0  0  0  0  0999 V2000
  161.9580  210.1590  150.6160 C   0  0  2  0  0  3  0  0  0  0  0  0
  161.0360  208.0790  151.4440 C   0  0  0  0  0  0  0  0  0  0  0  0
  162.3490  208.9650  149.2970 S   0  0  0  0  0  0  0  0  0  0  0  0
  160.4560  207.3340  152.2210 O   0  0  0  0  0  0  0  0  0  0  0  0
  161.8700  207.5470  150.3330 C   0  0  2  0  0  3  0  0  0  0  0  0
  160.9140  209.5610  151.5420 C   0  0  1  0  0  3  0  0  0  0  0  0
  160.3970  211.3920  154.8520 C   0  0  0  0  0  0  0  0  0  0  0  0
  158.9160  211.1710  152.9370 C   0  0  0  0  0  3  0  0  0  0  0  0
  161.1160  210.0770  152.9410 C   0  0  0  0  0  0  0  0  0  0  0  0
  158.2410  212.4970  154.8480 C   0  0  0  0  0  3  0  0  0  0  0  0
  157.9760  211.9830  153.5760 C   0  0  0  0  0  3  0  0  0  0  0  0
  160.1350  210.8710  153.5650 C   0  0  0  0  0  0  0  0  0  0  0  0
  159.4490  212.1990  155.4860 C   0  0  0  0  0  3  0  0  0  0  0  0
  162.5560  210.3290  154.8250 C   0  0  0  0  0  3  0  0  0  0  0  0
  161.6100  211.1170  155.4810 C   0  0  0  0  0  3  0  0  0  0  0  0
  162.2960  209.8400  153.5840 N   0  0  0  0  0  0  0  0  0  0  0  0
  161.0910  206.6120  149.5360 N   0  0  0  0  0  2  0  0  0  0  0  0
  161.8580  206.3360  148.3330 C   0  0  0  0  0  2  0  0  0  0  0  0
  160.9290  205.8020  147.2530 C   0  0  2  0  0  3  0  0  0  0  0  0
  162.3320  203.8250  147.5140 O   0  0  0  0  0  1  0  0  0  0  0  0
  161.2470  204.3690  146.8170 C   0  0  2  0  0  3  0  0  0  0  0  0
  161.7180  205.5460  145.9840 C   0  0  1  0  0  3  0  0  0  0  0  0
  159.9890  204.5740  144.6670 O   0  0  0  0  0  1  0  0  0  0  0  0
  161.5800  205.8290  143.6230 O   0  0  0  0  0  1  0  0  0  0  0  0
  160.8090  205.6980  144.7800 C   0  0  0  0  0  3  0  0  0  0  0  0
  161.4230  211.4440  150.0180 C   0  0  0  0  0  2  0  0  0  0  0  0
  161.8420  211.5610  148.6240 N   0  0  0  0  0  2  0  0  0  0  0  0
  162.2390  213.8340  145.9410 N   0  0  0  0  0  0  0  0  0  0  0  0
  163.0770  214.2290  148.0790 O   0  0  0  0  0  0  0  0  0  0  0  0
  161.2070  212.7240  147.9950 C   0  0  1  0  0  3  0  0  0  0  0  0
  162.2220  213.6460  147.3610 C   0  0  0  0  0  0  0  0  0  0  0  0
  160.1860  212.5730  145.7280 C   0  0  0  0  0  3  0  0  0  0  0  0
  160.1180  212.3060  147.0330 C   0  0  0  0  0  3  0  0  0  0  0  0
  161.3160  213.3390  145.1710 C   0  0  0  0  0  3  0  0  0  0  0  0
  1 26  1  6  0  0  0
  1  6  1  0  0  0  0
  2  6  1  0  0  0  0
  2  4  2  0  0  0  0
  3  5  1  0  0  0  0
  3  1  1  0  0  0  0
  5 17  1  6  0  0  0
  5  2  1  0  0  0  0
  6  9  1  1  0  0  0
  7 15  1  0  0  0  0
  7 13  2  0  0  0  0
  8 12  2  0  0  0  0
  8 11  1  0  0  0  0
  9 12  1  0  0  0  0
  9 16  2  0  0  0  0
 10 13  1  0  0  0  0
 11 10  2  0  0  0  0
 12  7  1  0  0  0  0
 14 15  2  0  0  0  0
 16 14  1  0  0  0  0
 18 17  1  0  0  0  0
 19 18  1  1  0  0  0
 21 19  1  0  0  0  0
 21 20  1  1  0  0  0
 22 25  1  6  0  0  0
 22 21  1  0  0  0  0
 22 19  1  0  0  0  0
 23 25  1  0  0  0  0
 24 25  1  0  0  0  0
 27 26  1  0  0  0  0
 28 31  1  0  0  0  0
 30 27  1  6  0  0  0
 31 30  1  0  0  0  0
 31 29  2  0  0  0  0
 32 33  2  0  0  0  0
 33 30  1  0  0  0  0
 34 32  1  0  0  0  0
 34 28  2  0  0  0  0
M  END
>  <MODEL>
5

>  <REMARK>
 VINA RESULT:      -6.5      1.781      2.839
  Name = 
  8 active torsions:
  status: ('A' for Active; 'I' for Inactive)
    1  A    between atoms: C_3  and  C_13
    2  A    between atoms: C_3  and  N_17
    3  A    between atoms: C_4  and  C_31
    4  A    between atoms: C_5  and  C_26
    5  A    between atoms: C_12  and  N_28
    6  A    between atoms: N_17  and  C_29
    7  A    between atoms: C_20  and  C_34
    8  A    between atoms: C_26  and  N_28
                            x       y       z     vdW  Elec       q    Type
                         _______ _______ _______ _____ _____    ______ ____

>  <TORSDO>
F 8

$$$$
=
 OpenBabel11062408003D

 34 38  0  0  1  0  0  0  0  0999 V2000
  161.6610  210.5300  151.8000 C   0  0  2  0  0  3  0  0  0  0  0  0
  160.9200  208.3460  152.5370 C   0  0  0  0  0  0  0  0  0  0  0  0
  161.9630  209.4670  150.3510 S   0  0  0  0  0  0  0  0  0  0  0  0
  160.4560  207.5140  153.3020 O   0  0  0  0  0  0  0  0  0  0  0  0
  161.6540  207.9480  151.3060 C   0  0  2  0  0  3  0  0  0  0  0  0
  160.7460  209.8080  152.7720 C   0  0  1  0  0  3  0  0  0  0  0  0
  160.4120  211.0580  156.3640 C   0  0  0  0  0  0  0  0  0  0  0  0
  158.6990  210.5880  154.7040 C   0  0  0  0  0  3  0  0  0  0  0  0
  161.0720  210.2190  154.1830 C   0  0  0  0  0  0  0  0  0  0  0  0
  158.0770  211.4500  156.8800 C   0  0  0  0  0  3  0  0  0  0  0  0
  157.7170  211.0080  155.6030 C   0  0  0  0  0  3  0  0  0  0  0  0
  160.0540  210.6120  155.0720 C   0  0  0  0  0  0  0  0  0  0  0  0
  159.4220  211.4720  157.2610 C   0  0  0  0  0  3  0  0  0  0  0  0
  162.7300  210.7090  155.8250 C   0  0  0  0  0  3  0  0  0  0  0  0
  161.7530  211.1030  156.7390 C   0  0  0  0  0  3  0  0  0  0  0  0
  162.3750  210.2900  154.5820 N   0  0  0  0  0  0  0  0  0  0  0  0
  160.8360  207.0420  150.5150 N   0  0  0  0  0  2  0  0  0  0  0  0
  161.5710  205.7930  150.4030 C   0  0  0  0  0  2  0  0  0  0  0  0
  160.5880  204.6350  150.3200 C   0  0  2  0  0  3  0  0  0  0  0  0
  161.2590  204.3570  152.6470 O   0  0  0  0  0  1  0  0  0  0  0  0
  160.4530  203.8440  151.6240 C   0  0  2  0  0  3  0  0  0  0  0  0
  161.3290  203.3250  150.5010 C   0  0  1  0  0  3  0  0  0  0  0  0
  161.1910  200.9900  150.0530 O   0  0  0  0  0  1  0  0  0  0  0  0
  160.6430  202.4530  148.3920 O   0  0  0  0  0  1  0  0  0  0  0  0
  160.5940  202.2190  149.7680 C   0  0  0  0  0  3  0  0  0  0  0  0
  161.0140  211.8310  151.3700 C   0  0  0  0  0  2  0  0  0  0  0  0
  159.6520  211.9080  151.8900 N   0  0  0  0  0  2  0  0  0  0  0  0
  156.7300  213.8610  151.4740 N   0  0  0  0  0  0  0  0  0  0  0  0
  158.1690  213.3320  149.7190 O   0  0  0  0  0  0  0  0  0  0  0  0
  159.1850  213.2990  151.8950 C   0  0  1  0  0  3  0  0  0  0  0  0
  158.0180  213.5040  150.9580 C   0  0  0  0  0  0  0  0  0  0  0  0
  157.6730  214.1500  153.6820 C   0  0  0  0  0  3  0  0  0  0  0  0
  158.8950  213.7790  153.3000 C   0  0  0  0  0  3  0  0  0  0  0  0
  156.5500  214.1530  152.7280 C   0  0  0  0  0  3  0  0  0  0  0  0
  1 26  1  6  0  0  0
  1  6  1  0  0  0  0
  2  6  1  0  0  0  0
  2  4  2  0  0  0  0
  3  5  1  0  0  0  0
  3  1  1  0  0  0  0
  5 17  1  6  0  0  0
  5  2  1  0  0  0  0
  6  9  1  1  0  0  0
  7 15  1  0  0  0  0
  7 13  2  0  0  0  0
  8 12  2  0  0  0  0
  8 11  1  0  0  0  0
  9 16  2  0  0  0  0
  9 12  1  0  0  0  0
 10 13  1  0  0  0  0
 11 10  2  0  0  0  0
 12  7  1  0  0  0  0
 14 15  2  0  0  0  0
 16 14  1  0  0  0  0
 18 17  1  0  0  0  0
 19 18  1  1  0  0  0
 19 22  1  0  0  0  0
 19 21  1  0  0  0  0
 21 20  1  1  0  0  0
 22 25  1  6  0  0  0
 22 21  1  0  0  0  0
 24 25  1  0  0  0  0
 25 23  1  0  0  0  0
 26 27  1  0  0  0  0
 28 34  2  0  0  0  0
 29 31  2  0  0  0  0
 30 27  1  1  0  0  0
 30 33  1  0  0  0  0
 31 28  1  0  0  0  0
 31 30  1  0  0  0  0
 33 32  2  0  0  0  0
 34 32  1  0  0  0  0
M  END
>  <MODEL>
6

>  <REMARK>
 VINA RESULT:      -6.5      3.043      4.345
  Name = 
  8 active torsions:
  status: ('A' for Active; 'I' for Inactive)
    1  A    between atoms: C_3  and  C_13
    2  A    between atoms: C_3  and  N_17
    3  A    between atoms: C_4  and  C_31
    4  A    between atoms: C_5  and  C_26
    5  A    between atoms: C_12  and  N_28
    6  A    between atoms: N_17  and  C_29
    7  A    between atoms: C_20  and  C_34
    8  A    between atoms: C_26  and  N_28
                            x       y       z     vdW  Elec       q    Type
                         _______ _______ _______ _____ _____    ______ ____

>  <TORSDO>
F 8

$$$$
=
 OpenBabel11062408003D

 34 38  0  0  1  0  0  0  0  0999 V2000
  161.9090  209.1050  152.6050 C   0  0  2  0  0  3  0  0  0  0  0  0
  160.8310  207.4170  153.9660 C   0  0  0  0  0  0  0  0  0  0  0  0
  162.1720  207.5670  151.6630 S   0  0  0  0  0  0  0  0  0  0  0  0
  160.2060  206.9650  154.9140 O   0  0  0  0  0  0  0  0  0  0  0  0
  161.5950  206.5320  153.0460 C   0  0  2  0  0  3  0  0  0  0  0  0
  160.8370  208.8740  153.6550 C   0  0  1  0  0  3  0  0  0  0  0  0
  160.3750  211.2560  156.6030 C   0  0  0  0  0  0  0  0  0  0  0  0
  158.7260  210.2680  155.1140 C   0  0  0  0  0  3  0  0  0  0  0  0
  161.1100  209.7320  154.8620 C   0  0  0  0  0  0  0  0  0  0  0  0
  158.0290  211.8130  156.8440 C   0  0  0  0  0  3  0  0  0  0  0  0
  157.7160  210.9720  155.7730 C   0  0  0  0  0  3  0  0  0  0  0  0
  160.0640  210.4060  155.5180 C   0  0  0  0  0  0  0  0  0  0  0  0
  159.3570  211.9520  157.2610 C   0  0  0  0  0  3  0  0  0  0  0  0
  162.7070  210.7320  156.3240 C   0  0  0  0  0  3  0  0  0  0  0  0
  161.7000  211.4150  157.0050 C   0  0  0  0  0  3  0  0  0  0  0  0
  162.3960  209.9240  155.2760 N   0  0  0  0  0  0  0  0  0  0  0  0
  160.7240  205.4870  152.5310 N   0  0  0  0  0  2  0  0  0  0  0  0
  161.4770  204.7640  151.5190 C   0  0  0  0  0  2  0  0  0  0  0  0
  160.7470  204.8520  150.1870 C   0  0  2  0  0  3  0  0  0  0  0  0
  160.9090  202.4240  150.3360 O   0  0  0  0  0  1  0  0  0  0  0  0
  160.4550  203.4900  149.5520 C   0  0  2  0  0  3  0  0  0  0  0  0
  161.6370  204.3160  149.0840 C   0  0  1  0  0  3  0  0  0  0  0  0
  162.4480  205.4290  147.1410 O   0  0  0  0  0  1  0  0  0  0  0  0
  160.4460  206.0800  148.0150 O   0  0  0  0  0  1  0  0  0  0  0  0
  161.2830  204.9900  147.7720 C   0  0  0  0  0  3  0  0  0  0  0  0
  161.4740  210.2200  151.6770 C   0  0  0  0  0  2  0  0  0  0  0  0
  160.1900  210.7610  152.1120 N   0  0  0  0  0  2  0  0  0  0  0  0
  158.8230  213.5190  150.3650 N   0  0  0  0  0  0  0  0  0  0  0  0
  160.8350  212.5040  149.7690 O   0  0  0  0  0  0  0  0  0  0  0  0
  160.2130  212.2280  152.0730 C   0  0  1  0  0  3  0  0  0  0  0  0
  159.9960  212.7570  150.6750 C   0  0  0  0  0  0  0  0  0  0  0  0
  158.2140  213.5720  152.7040 C   0  0  0  0  0  3  0  0  0  0  0  0
  159.2520  212.8230  153.0770 C   0  0  0  0  0  3  0  0  0  0  0  0
  157.9850  213.8950  151.2850 C   0  0  0  0  0  3  0  0  0  0  0  0
  1 26  1  6  0  0  0
  1  6  1  0  0  0  0
  2  4  2  0  0  0  0
  3  1  1  0  0  0  0
  3  5  1  0  0  0  0
  5 17  1  6  0  0  0
  5  2  1  0  0  0  0
  6  2  1  0  0  0  0
  6  9  1  1  0  0  0
  7 15  1  0  0  0  0
  7 13  2  0  0  0  0
  8 12  2  0  0  0  0
  8 11  1  0  0  0  0
  9 16  2  0  0  0  0
  9 12  1  0  0  0  0
 10 13  1  0  0  0  0
 11 10  2  0  0  0  0
 12  7  1  0  0  0  0
 14 15  2  0  0  0  0
 16 14  1  0  0  0  0
 18 17  1  0  0  0  0
 19 18  1  1  0  0  0
 21 19  1  0  0  0  0
 21 20  1  1  0  0  0
 22 25  1  6  0  0  0
 22 21  1  0  0  0  0
 22 19  1  0  0  0  0
 23 25  1  0  0  0  0
 25 24  1  0  0  0  0
 26 27  1  0  0  0  0
 28 31  1  0  0  0  0
 28 34  2  0  0  0  0
 29 31  2  0  0  0  0
 30 27  1  6  0  0  0
 30 33  1  0  0  0  0
 31 30  1  0  0  0  0
 32 33  2  0  0  0  0
 34 32  1  0  0  0  0
M  END
>  <MODEL>
7

>  <REMARK>
 VINA RESULT:      -6.3      2.657      4.096
  Name = 
  8 active torsions:
  status: ('A' for Active; 'I' for Inactive)
    1  A    between atoms: C_3  and  C_13
    2  A    between atoms: C_3  and  N_17
    3  A    between atoms: C_4  and  C_31
    4  A    between atoms: C_5  and  C_26
    5  A    between atoms: C_12  and  N_28
    6  A    between atoms: N_17  and  C_29
    7  A    between atoms: C_20  and  C_34
    8  A    between atoms: C_26  and  N_28
                            x       y       z     vdW  Elec       q    Type
                         _______ _______ _______ _____ _____    ______ ____

>  <TORSDO>
F 8

$$$$
=
 OpenBabel11062408003D

 34 38  0  0  1  0  0  0  0  0999 V2000
  161.1570  209.6900  152.7210 C   0  0  2  0  0  3  0  0  0  0  0  0
  161.4970  208.8970  150.4580 C   0  0  0  0  0  0  0  0  0  0  0  0
  161.1950  207.8780  152.9070 S   0  0  0  0  0  0  0  0  0  0  0  0
  161.6640  208.9760  149.2510 O   0  0  0  0  0  0  0  0  0  0  0  0
  161.1090  207.6150  151.1070 C   0  0  2  0  0  3  0  0  0  0  0  0
  161.7060  210.0670  151.3570 C   0  0  1  0  0  3  0  0  0  0  0  0
  160.9030  213.2160  149.3530 C   0  0  0  0  0  0  0  0  0  0  0  0
  162.6310  211.5400  149.0110 C   0  0  0  0  0  3  0  0  0  0  0  0
  161.0300  211.3170  150.8610 C   0  0  0  0  0  0  0  0  0  0  0  0
  162.4930  213.4600  147.5410 C   0  0  0  0  0  3  0  0  0  0  0  0
  163.1120  212.2660  147.9190 C   0  0  0  0  0  3  0  0  0  0  0  0
  161.5270  212.0090  149.7400 C   0  0  0  0  0  0  0  0  0  0  0  0
  161.3870  213.9330  148.2550 C   0  0  0  0  0  3  0  0  0  0  0  0
  159.3590  212.9880  151.1830 C   0  0  0  0  0  3  0  0  0  0  0  0
  159.8160  213.7020  150.0760 C   0  0  0  0  0  3  0  0  0  0  0  0
  159.9720  211.8320  151.5520 N   0  0  0  0  0  0  0  0  0  0  0  0
  162.0460  206.5680  150.7300 N   0  0  0  0  0  2  0  0  0  0  0  0
  161.2570  205.4280  150.2930 C   0  0  0  0  0  2  0  0  0  0  0  0
  160.8090  205.6450  148.8560 C   0  0  2  0  0  3  0  0  0  0  0  0
  161.3760  203.2800  148.6900 O   0  0  0  0  0  1  0  0  0  0  0  0
  160.9050  204.3910  147.9820 C   0  0  2  0  0  3  0  0  0  0  0  0
  161.9870  205.4510  147.9210 C   0  0  1  0  0  3  0  0  0  0  0  0
  160.4370  206.3190  146.3360 O   0  0  0  0  0  1  0  0  0  0  0  0
  162.5220  205.7400  145.6180 O   0  0  0  0  0  1  0  0  0  0  0  0
  161.7910  206.2900  146.6730 C   0  0  0  0  0  3  0  0  0  0  0  0
  161.9950  210.3450  153.8000 C   0  0  0  0  0  2  0  0  0  0  0  0
  161.1880  211.3080  154.5450 N   0  0  0  0  0  2  0  0  0  0  0  0
  159.9410  208.5390  156.3620 N   0  0  0  0  0  0  0  0  0  0  0  0
  158.6180  210.3540  155.7390 O   0  0  0  0  0  0  0  0  0  0  0  0
  160.9650  210.8350  155.9160 C   0  0  1  0  0  3  0  0  0  0  0  0
  159.7690  209.9160  156.0060 C   0  0  0  0  0  0  0  0  0  0  0  0
  162.2740  208.9380  156.8600 C   0  0  0  0  0  3  0  0  0  0  0  0
  162.2170  210.2210  156.4990 C   0  0  0  0  0  3  0  0  0  0  0  0
  161.0890  208.0680  156.7490 C   0  0  0  0  0  3  0  0  0  0  0  0
  1  3  1  0  0  0  0
  1 26  1  1  0  0  0
  2  5  1  0  0  0  0
  2  6  1  0  0  0  0
  4  2  2  0  0  0  0
  5 17  1  6  0  0  0
  5  3  1  0  0  0  0
  6  9  1  6  0  0  0
  6  1  1  0  0  0  0
  7 12  2  0  0  0  0
  7 15  1  0  0  0  0
  8 12  1  0  0  0  0
  9 16  2  0  0  0  0
 10 11  1  0  0  0  0
 10 13  2  0  0  0  0
 11  8  2  0  0  0  0
 12  9  1  0  0  0  0
 13  7  1  0  0  0  0
 14 16  1  0  0  0  0
 15 14  2  0  0  0  0
 18 17  1  0  0  0  0
 19 18  1  1  0  0  0
 21 20  1  1  0  0  0
 21 19  1  0  0  0  0
 22 25  1  6  0  0  0
 22 21  1  0  0  0  0
 22 19  1  0  0  0  0
 23 25  1  0  0  0  0
 24 25  1  0  0  0  0
 26 27  1  0  0  0  0
 28 34  2  0  0  0  0
 29 31  2  0  0  0  0
 30 27  1  6  0  0  0
 30 31  1  0  0  0  0
 30 33  1  0  0  0  0
 31 28  1  0  0  0  0
 33 32  2  0  0  0  0
 34 32  1  0  0  0  0
M  END
>  <MODEL>
8

>  <REMARK>
 VINA RESULT:      -6.2      2.601      6.312
  Name = 
  8 active torsions:
  status: ('A' for Active; 'I' for Inactive)
    1  A    between atoms: C_3  and  C_13
    2  A    between atoms: C_3  and  N_17
    3  A    between atoms: C_4  and  C_31
    4  A    between atoms: C_5  and  C_26
    5  A    between atoms: C_12  and  N_28
    6  A    between atoms: N_17  and  C_29
    7  A    between atoms: C_20  and  C_34
    8  A    between atoms: C_26  and  N_28
                            x       y       z     vdW  Elec       q    Type
                         _______ _______ _______ _____ _____    ______ ____

>  <TORSDO>
F 8

$$$$
=
 OpenBabel11062408003D

 34 38  0  0  1  0  0  0  0  0999 V2000
  162.1650  210.1630  149.5190 C   0  0  2  0  0  3  0  0  0  0  0  0
  160.7850  211.8520  150.5710 C   0  0  0  0  0  0  0  0  0  0  0  0
  162.0260  209.5860  151.2420 S   0  0  0  0  0  0  0  0  0  0  0  0
  160.1120  212.8690  150.6480 O   0  0  0  0  0  0  0  0  0  0  0  0
  161.2840  211.1570  151.7880 C   0  0  2  0  0  3  0  0  0  0  0  0
  161.1130  211.2270  149.2590 C   0  0  1  0  0  3  0  0  0  0  0  0
  161.3640  213.5160  146.2140 C   0  0  0  0  0  0  0  0  0  0  0  0
  159.4900  212.2030  147.0360 C   0  0  0  0  0  3  0  0  0  0  0  0
  161.6270  212.2180  148.2490 C   0  0  0  0  0  0  0  0  0  0  0  0
  159.2700  213.4890  144.9960 C   0  0  0  0  0  3  0  0  0  0  0  0
  158.7230  212.6240  145.9470 C   0  0  0  0  0  3  0  0  0  0  0  0
  160.8170  212.6400  147.1780 C   0  0  0  0  0  0  0  0  0  0  0  0
  160.5880  213.9380  145.1310 C   0  0  0  0  0  3  0  0  0  0  0  0
  163.4530  213.4990  147.4060 C   0  0  0  0  0  3  0  0  0  0  0  0
  162.6840  213.9470  146.3330 C   0  0  0  0  0  3  0  0  0  0  0  0
  162.9190  212.6500  148.3230 N   0  0  0  0  0  0  0  0  0  0  0  0
  160.1750  210.8760  152.6860 N   0  0  0  0  0  2  0  0  0  0  0  0
  160.6890  210.9740  154.0420 C   0  0  0  0  0  2  0  0  0  0  0  0
  160.2590  209.7490  154.8350 C   0  0  2  0  0  3  0  0  0  0  0  0
  162.4200  210.1130  155.9020 O   0  0  0  0  0  1  0  0  0  0  0  0
  161.2860  209.2950  155.8770 C   0  0  2  0  0  3  0  0  0  0  0  0
  161.1950  208.5950  154.5340 C   0  0  1  0  0  3  0  0  0  0  0  0
  160.3960  206.9530  156.0630 O   0  0  0  0  0  1  0  0  0  0  0  0
  161.1240  206.2710  154.0140 O   0  0  0  0  0  1  0  0  0  0  0  0
  160.4560  207.2820  154.7080 C   0  0  0  0  0  3  0  0  0  0  0  0
  161.9600  209.0080  148.5620 C   0  0  0  0  0  2  0  0  0  0  0  0
  162.2050  207.7410  149.2440 N   0  0  0  0  0  2  0  0  0  0  0  0
  161.3040  204.5830  147.9260 N   0  0  0  0  0  0  0  0  0  0  0  0
  161.1610  206.5610  146.7030 O   0  0  0  0  0  0  0  0  0  0  0  0
  161.0550  206.8430  149.0860 C   0  0  1  0  0  3  0  0  0  0  0  0
  161.1640  206.0050  147.8340 C   0  0  0  0  0  0  0  0  0  0  0  0
  160.9230  204.6800  150.3130 C   0  0  0  0  0  3  0  0  0  0  0  0
  160.8290  206.0100  150.3270 C   0  0  0  0  0  3  0  0  0  0  0  0
  161.2060  203.9550  149.0610 C   0  0  0  0  0  3  0  0  0  0  0  0
  1 26  1  6  0  0  0
  1  3  1  0  0  0  0
  2  4  2  0  0  0  0
  2  5  1  0  0  0  0
  3  5  1  0  0  0  0
  5 17  1  1  0  0  0
  6  9  1  6  0  0  0
  6  1  1  0  0  0  0
  6  2  1  0  0  0  0
  7 15  2  0  0  0  0
  7 12  1  0  0  0  0
  8 12  1  0  0  0  0
  9 16  1  0  0  0  0
 10 13  2  0  0  0  0
 10 11  1  0  0  0  0
 11  8  2  0  0  0  0
 12  9  2  0  0  0  0
 13  7  1  0  0  0  0
 14 16  2  0  0  0  0
 15 14  1  0  0  0  0
 17 18  1  0  0  0  0
 19 18  1  6  0  0  0
 19 21  1  0  0  0  0
 21 20  1  6  0  0  0
 22 25  1  1  0  0  0
 22 19  1  0  0  0  0
 22 21  1  0  0  0  0
 24 25  1  0  0  0  0
 25 23  1  0  0  0  0
 26 27  1  0  0  0  0
 28 34  2  0  0  0  0
 29 31  2  0  0  0  0
 30 27  1  1  0  0  0
 30 33  1  0  0  0  0
 31 28  1  0  0  0  0
 31 30  1  0  0  0  0
 32 33  2  0  0  0  0
 34 32  1  0  0  0  0
M  END
>  <MODEL>
9

>  <REMARK>
 VINA RESULT:      -6.2      2.739      8.047
  Name = 
  8 active torsions:
  status: ('A' for Active; 'I' for Inactive)
    1  A    between atoms: C_3  and  C_13
    2  A    between atoms: C_3  and  N_17
    3  A    between atoms: C_4  and  C_31
    4  A    between atoms: C_5  and  C_26
    5  A    between atoms: C_12  and  N_28
    6  A    between atoms: N_17  and  C_29
    7  A    between atoms: C_20  and  C_34
    8  A    between atoms: C_26  and  N_28
                            x       y       z     vdW  Elec       q    Type
                         _______ _______ _______ _____ _____    ______ ____

>  <TORSDO>
F 8

$$$$
