=
 OpenBabel11052422143D

 25 29  0  0  1  0  0  0  0  0999 V2000
  161.6850  206.5840  149.1970 C   0  0  0  0  0  0  0  0  0  0  0  0
  162.2820  207.8890  149.6210 C   0  0  1  0  0  3  0  0  0  0  0  0
  160.9090  205.9870  151.4210 C   0  0  0  0  0  3  0  0  0  0  0  0
  161.8050  205.8750  148.0890 C   0  0  0  0  0  0  0  0  0  0  0  0
  161.8500  203.9880  146.0580 C   0  0  0  0  0  3  0  0  0  0  0  0
  161.2510  207.3630  151.8610 C   0  0  0  0  0  3  0  0  0  0  0  0
  161.2840  204.6050  148.3100 C   0  0  0  0  0  0  0  0  0  0  0  0
  161.2930  203.6420  147.3010 C   0  0  0  0  0  3  0  0  0  0  0  0
  162.0220  209.6610  151.4260 C   0  0  0  0  0  0  0  0  0  0  0  0
  162.0550  210.0330  152.8010 N   0  0  0  0  0  1  0  0  0  0  0  0
  162.0190  209.0140  148.6640 C   0  0  0  0  0  3  0  0  0  0  0  0
  162.3940  205.2720  145.8460 C   0  0  0  0  0  3  0  0  0  0  0  0
  161.1020  205.6670  150.1430 C   0  0  0  0  0  0  0  0  0  0  0  0
  160.8510  204.4110  149.5190 N   0  0  0  0  0  0  0  0  0  0  0  0
  162.0970  210.5790  150.5060 N   0  0  0  0  0  0  0  0  0  0  0  0
  162.3810  206.2330  146.8710 C   0  0  0  0  0  3  0  0  0  0  0  0
  162.0020  210.2870  149.0950 C   0  0  0  0  0  0  0  0  0  0  0  0
  161.8350  208.2560  151.0290 C   0  0  0  0  0  0  0  0  0  0  0  0
  162.0660  213.4190  146.5900 C   0  0  1  0  0  3  0  0  0  0  0  0
  161.8260  211.3940  148.1400 C   0  0  0  0  0  0  0  0  0  0  0  0
  163.1330  212.5840  147.8150 S   0  0  0  0  0  0  0  0  0  0  0  0
  162.7010  213.3080  145.2170 C   0  0  0  0  0  1  0  0  0  0  0  0
  160.7260  211.5640  147.4870 N   0  0  0  0  0  0  0  0  0  0  0  0
  160.7790  212.6790  146.6190 C   0  0  0  0  0  0  0  0  0  0  0  0
  159.7840  213.0240  145.9280 O   0  0  0  0  0  0  0  0  0  0  0  0
  1  2  1  0  0  0  0
  1 13  1  0  0  0  0
  2 11  1  6  0  0  0
  2 18  1  0  0  0  0
  3  6  1  0  0  0  0
  4  7  1  0  0  0  0
  4  1  2  0  0  0  0
  5  8  2  0  0  0  0
  7 14  2  0  0  0  0
  8  7  1  0  0  0  0
  9 10  1  0  0  0  0
 11 17  2  0  0  0  0
 12  5  1  0  0  0  0
 12 16  2  0  0  0  0
 13  3  2  0  0  0  0
 14 13  1  0  0  0  0
 15  9  2  0  0  0  0
 16  4  1  0  0  0  0
 17 15  1  0  0  0  0
 18  9  1  0  0  0  0
 18  6  2  0  0  0  0
 19 22  1  6  0  0  0
 19 24  1  0  0  0  0
 19 21  1  0  0  0  0
 20 17  1  0  0  0  0
 21 20  1  0  0  0  0
 23 20  2  0  0  0  0
 24 23  1  0  0  0  0
 25 24  2  0  0  0  0
M  END
>  <MODEL>
1

>  <REMARK>
 VINA RESULT:      -9.7      0.000      0.000
  Name = 
  1 active torsions:
  status: ('A' for Active; 'I' for Inactive)
    1  A    between atoms: C_6  and  C_23
                            x       y       z     vdW  Elec       q    Type
                         _______ _______ _______ _____ _____    ______ ____

>  <TORSDO>
F 1

$$$$
=
 OpenBabel11052422143D

 25 29  0  0  1  0  0  0  0  0999 V2000
  161.2070  206.4860  151.1270 C   0  0  0  0  0  0  0  0  0  0  0  0
  161.5150  207.5570  152.1260 C   0  0  1  0  0  3  0  0  0  0  0  0
  161.0720  204.7070  152.7770 C   0  0  0  0  0  3  0  0  0  0  0  0
  161.2850  206.4580  149.8090 C   0  0  0  0  0  0  0  0  0  0  0  0
  161.4160  205.8640  147.1040 C   0  0  0  0  0  3  0  0  0  0  0  0
  161.1230  205.7470  153.8360 C   0  0  0  0  0  3  0  0  0  0  0  0
  161.1680  205.1390  149.3810 C   0  0  0  0  0  0  0  0  0  0  0  0
  161.2270  204.8190  148.0250 C   0  0  0  0  0  3  0  0  0  0  0  0
  161.1650  208.0910  154.5870 C   0  0  0  0  0  0  0  0  0  0  0  0
  161.3730  207.7690  155.9590 N   0  0  0  0  0  1  0  0  0  0  0  0
  160.7820  208.8430  151.8790 C   0  0  0  0  0  3  0  0  0  0  0  0
  161.5530  207.1960  147.5460 C   0  0  0  0  0  3  0  0  0  0  0  0
  161.0830  205.1020  151.5060 C   0  0  0  0  0  0  0  0  0  0  0  0
  161.0500  204.2760  150.3450 N   0  0  0  0  0  0  0  0  0  0  0  0
  160.8140  209.2990  154.2540 N   0  0  0  0  0  0  0  0  0  0  0  0
  161.4940  207.5060  148.9150 C   0  0  0  0  0  3  0  0  0  0  0  0
  160.5190  209.6840  152.8940 C   0  0  0  0  0  0  0  0  0  0  0  0
  161.2760  207.0580  153.5450 C   0  0  0  0  0  0  0  0  0  0  0  0
  158.4070  213.0820  152.6020 C   0  0  1  0  0  3  0  0  0  0  0  0
  159.8750  210.9830  152.6350 C   0  0  0  0  0  0  0  0  0  0  0  0
  158.3700  211.4820  153.4810 S   0  0  0  0  0  0  0  0  0  0  0  0
  158.5860  214.2020  153.6090 C   0  0  0  0  0  1  0  0  0  0  0  0
  160.3580  211.8280  151.7870 N   0  0  0  0  0  0  0  0  0  0  0  0
  159.5880  213.0120  151.7040 C   0  0  0  0  0  0  0  0  0  0  0  0
  159.8860  213.9350  150.9010 O   0  0  0  0  0  0  0  0  0  0  0  0
  1 13  1  0  0  0  0
  1  2  1  0  0  0  0
  2 11  1  6  0  0  0
  2 18  1  0  0  0  0
  3  6  1  0  0  0  0
  4  1  2  0  0  0  0
  5 12  1  0  0  0  0
  5  8  2  0  0  0  0
  7  4  1  0  0  0  0
  7 14  2  0  0  0  0
  8  7  1  0  0  0  0
  9 10  1  0  0  0  0
 11 17  2  0  0  0  0
 12 16  2  0  0  0  0
 13  3  2  0  0  0  0
 14 13  1  0  0  0  0
 15  9  2  0  0  0  0
 16  4  1  0  0  0  0
 17 15  1  0  0  0  0
 18  6  2  0  0  0  0
 18  9  1  0  0  0  0
 19 21  1  0  0  0  0
 19 22  1  1  0  0  0
 20 17  1  0  0  0  0
 20 21  1  0  0  0  0
 23 20  2  0  0  0  0
 24 23  1  0  0  0  0
 24 19  1  0  0  0  0
 25 24  2  0  0  0  0
M  END
>  <MODEL>
2

>  <REMARK>
 VINA RESULT:      -9.4      3.232      4.109
  Name = 
  1 active torsions:
  status: ('A' for Active; 'I' for Inactive)
    1  A    between atoms: C_6  and  C_23
                            x       y       z     vdW  Elec       q    Type
                         _______ _______ _______ _____ _____    ______ ____

>  <TORSDO>
F 1

$$$$
=
 OpenBabel11052422143D

 25 29  0  0  1  0  0  0  0  0999 V2000
  161.1860  206.5370  151.1560 C   0  0  0  0  0  0  0  0  0  0  0  0
  161.4690  207.6120  152.1570 C   0  0  1  0  0  3  0  0  0  0  0  0
  161.1280  204.7460  152.7970 C   0  0  0  0  0  3  0  0  0  0  0  0
  161.2500  206.5170  149.8370 C   0  0  0  0  0  0  0  0  0  0  0  0
  161.3720  205.9420  147.1270 C   0  0  0  0  0  3  0  0  0  0  0  0
  161.1570  205.7810  153.8610 C   0  0  0  0  0  3  0  0  0  0  0  0
  161.1730  205.1980  149.4030 C   0  0  0  0  0  0  0  0  0  0  0  0
  161.2280  204.8870  148.0450 C   0  0  0  0  0  3  0  0  0  0  0  0
  161.1290  208.1220  154.6250 C   0  0  0  0  0  0  0  0  0  0  0  0
  161.3620  207.8000  155.9930 N   0  0  0  0  0  1  0  0  0  0  0  0
  160.6910  208.8740  151.9250 C   0  0  0  0  0  3  0  0  0  0  0  0
  161.4690  207.2760  147.5750 C   0  0  0  0  0  3  0  0  0  0  0  0
  161.1130  205.1470  151.5280 C   0  0  0  0  0  0  0  0  0  0  0  0
  161.0940  204.3270  150.3630 N   0  0  0  0  0  0  0  0  0  0  0  0
  160.7340  209.3190  154.3020 N   0  0  0  0  0  0  0  0  0  0  0  0
  161.4140  207.5770  148.9460 C   0  0  0  0  0  3  0  0  0  0  0  0
  160.4120  209.7010  152.9470 C   0  0  0  0  0  0  0  0  0  0  0  0
  161.2630  207.0980  153.5750 C   0  0  0  0  0  0  0  0  0  0  0  0
  158.9090  213.2610  151.8690 C   0  0  1  0  0  3  0  0  0  0  0  0
  159.7220  210.9790  152.7020 C   0  0  0  0  0  0  0  0  0  0  0  0
  160.3230  212.1670  151.4950 S   0  0  0  0  0  0  0  0  0  0  0  0
  158.0450  213.4010  150.6300 C   0  0  0  0  0  1  0  0  0  0  0  0
  158.6510  211.3100  153.3420 N   0  0  0  0  0  0  0  0  0  0  0  0
  158.1500  212.5710  152.9440 C   0  0  0  0  0  0  0  0  0  0  0  0
  157.1320  213.0770  153.4860 O   0  0  0  0  0  0  0  0  0  0  0  0
  1 13  1  0  0  0  0
  1  2  1  0  0  0  0
  2 11  1  6  0  0  0
  2 18  1  0  0  0  0
  3  6  1  0  0  0  0
  4  1  2  0  0  0  0
  5 12  1  0  0  0  0
  5  8  2  0  0  0  0
  7  4  1  0  0  0  0
  7 14  2  0  0  0  0
  8  7  1  0  0  0  0
  9 10  1  0  0  0  0
 11 17  2  0  0  0  0
 12 16  2  0  0  0  0
 13  3  2  0  0  0  0
 14 13  1  0  0  0  0
 15  9  2  0  0  0  0
 16  4  1  0  0  0  0
 17 15  1  0  0  0  0
 18  6  2  0  0  0  0
 18  9  1  0  0  0  0
 19 22  1  6  0  0  0
 19 24  1  0  0  0  0
 20 17  1  0  0  0  0
 20 23  2  0  0  0  0
 21 19  1  0  0  0  0
 21 20  1  0  0  0  0
 24 23  1  0  0  0  0
 24 25  2  0  0  0  0
M  END
>  <MODEL>
3

>  <REMARK>
 VINA RESULT:      -9.1      3.428      4.111
  Name = 
  1 active torsions:
  status: ('A' for Active; 'I' for Inactive)
    1  A    between atoms: C_6  and  C_23
                            x       y       z     vdW  Elec       q    Type
                         _______ _______ _______ _____ _____    ______ ____

>  <TORSDO>
F 1

$$$$
=
 OpenBabel11052422143D

 25 29  0  0  1  0  0  0  0  0999 V2000
  161.3160  205.1070  148.8890 C   0  0  0  0  0  0  0  0  0  0  0  0
  160.8860  206.4560  149.3730 C   0  0  0  0  0  0  0  0  0  0  0  0
  162.5240  205.9620  146.9620 C   0  0  0  0  0  3  0  0  0  0  0  0
  160.9270  203.8860  149.2110 C   0  0  0  0  0  0  0  0  0  0  0  0
  160.3580  201.1820  149.4300 C   0  0  0  0  0  3  0  0  0  0  0  0
  162.3490  207.3290  147.5160 C   0  0  0  0  0  3  0  0  0  0  0  0
  161.4250  202.9930  148.2680 C   0  0  0  0  0  0  0  0  0  0  0  0
  161.1530  201.6290  148.3610 C   0  0  0  0  0  3  0  0  0  0  0  0
  161.6100  208.8910  149.2710 C   0  0  0  0  0  0  0  0  0  0  0  0
  161.8920  210.0610  148.5090 N   0  0  0  0  0  1  0  0  0  0  0  0
  160.9880  206.6260  150.8610 C   0  0  0  0  0  3  0  0  0  0  0  0
  159.8410  202.0950  150.3730 C   0  0  0  0  0  3  0  0  0  0  0  0
  162.0460  204.9340  147.6590 C   0  0  0  0  0  0  0  0  0  0  0  0
  162.0990  203.5540  147.3090 N   0  0  0  0  0  0  0  0  0  0  0  0
  161.3820  208.9910  150.5480 N   0  0  0  0  0  0  0  0  0  0  0  0
  160.1200  203.4670  150.2670 C   0  0  0  0  0  3  0  0  0  0  0  0
  161.1570  207.8460  151.3980 C   0  0  0  0  0  0  0  0  0  0  0  0
  161.6430  207.5580  148.6460 C   0  0  2  0  0  3  0  0  0  0  0  0
  161.3170  208.8570  155.2770 C   0  0  1  0  0  3  0  0  0  0  0  0
  161.1730  208.0180  152.8610 C   0  0  0  0  0  0  0  0  0  0  0  0
  161.6230  209.5800  153.6280 S   0  0  0  0  0  0  0  0  0  0  0  0
  160.1690  209.5940  155.9400 C   0  0  0  0  0  1  0  0  0  0  0  0
  160.8660  207.0570  153.6650 N   0  0  0  0  0  0  0  0  0  0  0  0
  160.9380  207.4440  155.0230 C   0  0  0  0  0  0  0  0  0  0  0  0
  160.7080  206.6270  155.9540 O   0  0  0  0  0  0  0  0  0  0  0  0
  1  4  1  0  0  0  0
  1  2  2  0  0  0  0
  2 11  1  0  0  0  0
  3  6  2  0  0  0  0
  3 13  1  0  0  0  0
  4 16  1  0  0  0  0
  5 12  1  0  0  0  0
  7  8  1  0  0  0  0
  7  4  2  0  0  0  0
  8  5  2  0  0  0  0
  9 15  2  0  0  0  0
 10  9  1  0  0  0  0
 11 17  2  0  0  0  0
 13  1  1  0  0  0  0
 14 13  2  0  0  0  0
 14  7  1  0  0  0  0
 15 17  1  0  0  0  0
 16 12  2  0  0  0  0
 17 20  1  0  0  0  0
 18  6  1  1  0  0  0
 18  9  1  0  0  0  0
 18  2  1  0  0  0  0
 19 22  1  6  0  0  0
 20 21  1  0  0  0  0
 20 23  2  0  0  0  0
 21 19  1  0  0  0  0
 23 24  1  0  0  0  0
 24 19  1  0  0  0  0
 24 25  2  0  0  0  0
M  END
>  <MODEL>
4

>  <REMARK>
 VINA RESULT:      -8.9      3.600      5.752
  Name = 
  1 active torsions:
  status: ('A' for Active; 'I' for Inactive)
    1  A    between atoms: C_6  and  C_23
                            x       y       z     vdW  Elec       q    Type
                         _______ _______ _______ _____ _____    ______ ____

>  <TORSDO>
F 1

$$$$
=
 OpenBabel11052422143D

 25 29  0  0  1  0  0  0  0  0999 V2000
  161.6540  206.6060  149.1020 C   0  0  0  0  0  0  0  0  0  0  0  0
  162.2510  207.8840  149.6020 C   0  0  1  0  0  3  0  0  0  0  0  0
  160.8130  205.9150  151.2750 C   0  0  0  0  0  3  0  0  0  0  0  0
  161.7970  205.9480  147.9660 C   0  0  0  0  0  0  0  0  0  0  0  0
  161.8800  204.1560  145.8520 C   0  0  0  0  0  3  0  0  0  0  0  0
  161.1550  207.2670  151.7860 C   0  0  0  0  0  3  0  0  0  0  0  0
  161.2580  204.6740  148.1140 C   0  0  0  0  0  0  0  0  0  0  0  0
  161.2860  203.7580  147.0630 C   0  0  0  0  0  3  0  0  0  0  0  0
  161.9580  209.5740  151.4790 C   0  0  0  0  0  0  0  0  0  0  0  0
  161.9580  209.8820  152.8700 N   0  0  0  0  0  1  0  0  0  0  0  0
  162.0240  209.0550  148.6910 C   0  0  0  0  0  3  0  0  0  0  0  0
  162.4410  205.4420  145.7150 C   0  0  0  0  0  3  0  0  0  0  0  0
  161.0370  205.6530  149.9890 C   0  0  0  0  0  0  0  0  0  0  0  0
  160.7910  204.4300  149.3020 N   0  0  0  0  0  0  0  0  0  0  0  0
  162.0660  210.5320  150.6050 N   0  0  0  0  0  0  0  0  0  0  0  0
  162.4090  206.3550  146.7820 C   0  0  0  0  0  3  0  0  0  0  0  0
  162.0060  210.3060  149.1800 C   0  0  0  0  0  0  0  0  0  0  0  0
  161.7690  208.1900  151.0130 C   0  0  0  0  0  0  0  0  0  0  0  0
  161.1420  213.2050  146.5450 C   0  0  1  0  0  3  0  0  0  0  0  0
  161.8670  211.4570  148.2720 C   0  0  0  0  0  0  0  0  0  0  0  0
  160.5170  211.5780  147.0920 S   0  0  0  0  0  0  0  0  0  0  0  0
  160.1110  214.2700  146.8660 C   0  0  0  0  0  1  0  0  0  0  0  0
  162.7070  212.4370  148.2780 N   0  0  0  0  0  0  0  0  0  0  0  0
  162.3780  213.4380  147.3350 C   0  0  0  0  0  0  0  0  0  0  0  0
  163.1050  214.4530  147.1720 O   0  0  0  0  0  0  0  0  0  0  0  0
  1  2  1  0  0  0  0
  1 13  1  0  0  0  0
  2 11  1  6  0  0  0
  2 18  1  0  0  0  0
  3  6  1  0  0  0  0
  4  7  1  0  0  0  0
  4  1  2  0  0  0  0
  5  8  2  0  0  0  0
  7 14  2  0  0  0  0
  8  7  1  0  0  0  0
  9 10  1  0  0  0  0
 11 17  2  0  0  0  0
 12  5  1  0  0  0  0
 12 16  2  0  0  0  0
 13  3  2  0  0  0  0
 14 13  1  0  0  0  0
 15  9  2  0  0  0  0
 16  4  1  0  0  0  0
 17 15  1  0  0  0  0
 18  9  1  0  0  0  0
 18  6  2  0  0  0  0
 19 22  1  1  0  0  0
 19 21  1  0  0  0  0
 19 24  1  0  0  0  0
 20 23  2  0  0  0  0
 20 17  1  0  0  0  0
 21 20  1  0  0  0  0
 24 23  1  0  0  0  0
 25 24  2  0  0  0  0
M  END
>  <MODEL>
5

>  <REMARK>
 VINA RESULT:      -8.8      1.168      1.323
  Name = 
  1 active torsions:
  status: ('A' for Active; 'I' for Inactive)
    1  A    between atoms: C_6  and  C_23
                            x       y       z     vdW  Elec       q    Type
                         _______ _______ _______ _____ _____    ______ ____

>  <TORSDO>
F 1

$$$$
=
 OpenBabel11052422143D

 25 29  0  0  1  0  0  0  0  0999 V2000
  161.6090  206.8330  149.9490 C   0  0  0  0  0  0  0  0  0  0  0  0
  162.2110  208.1150  150.4320 C   0  0  1  0  0  3  0  0  0  0  0  0
  160.8430  206.1330  152.1460 C   0  0  0  0  0  3  0  0  0  0  0  0
  161.7210  206.1770  148.8080 C   0  0  0  0  0  0  0  0  0  0  0  0
  161.7510  204.3880  146.6900 C   0  0  0  0  0  3  0  0  0  0  0  0
  161.1910  207.4860  152.6490 C   0  0  0  0  0  3  0  0  0  0  0  0
  161.1980  204.8990  148.9710 C   0  0  0  0  0  0  0  0  0  0  0  0
  161.2000  203.9850  147.9180 C   0  0  0  0  0  3  0  0  0  0  0  0
  161.9650  209.8000  152.3190 C   0  0  0  0  0  0  0  0  0  0  0  0
  162.0070  210.1070  153.7100 N   0  0  0  0  0  1  0  0  0  0  0  0
  161.9460  209.2850  149.5300 C   0  0  0  0  0  3  0  0  0  0  0  0
  162.2970  205.6800  146.5360 C   0  0  0  0  0  3  0  0  0  0  0  0
  161.0290  205.8740  150.8540 C   0  0  0  0  0  0  0  0  0  0  0  0
  160.7710  204.6490  150.1730 N   0  0  0  0  0  0  0  0  0  0  0  0
  162.0370  210.7610  151.4440 N   0  0  0  0  0  0  0  0  0  0  0  0
  162.2920  206.5910  147.6050 C   0  0  0  0  0  3  0  0  0  0  0  0
  161.9340  210.5360  150.0210 C   0  0  0  0  0  0  0  0  0  0  0  0
  161.7720  208.4160  151.8580 C   0  0  0  0  0  0  0  0  0  0  0  0
  161.9210  213.4950  147.3130 C   0  0  1  0  0  3  0  0  0  0  0  0
  161.7560  211.6870  149.1200 C   0  0  0  0  0  0  0  0  0  0  0  0
  162.9730  212.1090  147.8670 S   0  0  0  0  0  0  0  0  0  0  0  0
  161.4760  213.2450  145.8850 C   0  0  0  0  0  1  0  0  0  0  0  0
  160.7180  212.4500  149.1840 N   0  0  0  0  0  0  0  0  0  0  0  0
  160.7460  213.4860  148.2220 C   0  0  0  0  0  0  0  0  0  0  0  0
  159.8350  214.3520  148.1590 O   0  0  0  0  0  0  0  0  0  0  0  0
  1  2  1  0  0  0  0
  1 13  1  0  0  0  0
  2 11  1  6  0  0  0
  2 18  1  0  0  0  0
  3  6  1  0  0  0  0
  4  7  1  0  0  0  0
  4  1  2  0  0  0  0
  5  8  2  0  0  0  0
  7 14  2  0  0  0  0
  8  7  1  0  0  0  0
  9 10  1  0  0  0  0
 11 17  2  0  0  0  0
 12  5  1  0  0  0  0
 12 16  2  0  0  0  0
 13  3  2  0  0  0  0
 14 13  1  0  0  0  0
 15  9  2  0  0  0  0
 16  4  1  0  0  0  0
 17 15  1  0  0  0  0
 18  9  1  0  0  0  0
 18  6  2  0  0  0  0
 19 22  1  6  0  0  0
 19 21  1  0  0  0  0
 19 24  1  0  0  0  0
 20 23  2  0  0  0  0
 20 17  1  0  0  0  0
 21 20  1  0  0  0  0
 24 23  1  0  0  0  0
 25 24  2  0  0  0  0
M  END
>  <MODEL>
6

>  <REMARK>
 VINA RESULT:      -8.6      1.051      1.088
  Name = 
  1 active torsions:
  status: ('A' for Active; 'I' for Inactive)
    1  A    between atoms: C_6  and  C_23
                            x       y       z     vdW  Elec       q    Type
                         _______ _______ _______ _____ _____    ______ ____

>  <TORSDO>
F 1

$$$$
=
 OpenBabel11052422143D

 25 29  0  0  1  0  0  0  0  0999 V2000
  161.5610  205.5970  149.4370 C   0  0  0  0  0  0  0  0  0  0  0  0
  162.0660  206.6730  150.3450 C   0  0  1  0  0  3  0  0  0  0  0  0
  160.6880  204.2140  151.2350 C   0  0  0  0  0  3  0  0  0  0  0  0
  161.7800  205.3410  148.1600 C   0  0  0  0  0  0  0  0  0  0  0  0
  162.0370  204.3210  145.5950 C   0  0  0  0  0  3  0  0  0  0  0  0
  160.9350  205.3460  152.1640 C   0  0  0  0  0  3  0  0  0  0  0  0
  161.3110  204.0640  147.8700 C   0  0  0  0  0  0  0  0  0  0  0  0
  161.4270  203.5330  146.5860 C   0  0  0  0  0  3  0  0  0  0  0  0
  161.6140  207.6630  152.6430 C   0  0  0  0  0  0  0  0  0  0  0  0
  161.5480  207.5130  154.0580 N   0  0  0  0  0  1  0  0  0  0  0  0
  161.8030  208.0620  149.8410 C   0  0  0  0  0  3  0  0  0  0  0  0
  162.5280  205.6080  145.9000 C   0  0  0  0  0  3  0  0  0  0  0  0
  160.9700  204.3850  149.9450 C   0  0  0  0  0  0  0  0  0  0  0  0
  160.8190  203.4350  148.8950 N   0  0  0  0  0  0  0  0  0  0  0  0
  161.6960  208.8540  152.1240 N   0  0  0  0  0  0  0  0  0  0  0  0
  162.4070  206.1310  147.1980 C   0  0  0  0  0  3  0  0  0  0  0  0
  161.6970  209.0910  150.6990 C   0  0  0  0  0  0  0  0  0  0  0  0
  161.5200  206.4930  151.7540 C   0  0  0  0  0  0  0  0  0  0  0  0
  161.4870  212.6520  148.8650 C   0  0  1  0  0  3  0  0  0  0  0  0
  161.5230  210.4640  150.1960 C   0  0  0  0  0  0  0  0  0  0  0  0
  162.2260  210.9990  148.6310 S   0  0  0  0  0  0  0  0  0  0  0  0
  160.4730  212.9060  147.7660 C   0  0  0  0  0  1  0  0  0  0  0  0
  160.8570  211.3530  150.8530 N   0  0  0  0  0  0  0  0  0  0  0  0
  160.8070  212.5970  150.1840 C   0  0  0  0  0  0  0  0  0  0  0  0
  160.2320  213.5960  150.6920 O   0  0  0  0  0  0  0  0  0  0  0  0
  1 13  1  0  0  0  0
  1  2  1  0  0  0  0
  2 11  1  6  0  0  0
  2 18  1  0  0  0  0
  3  6  1  0  0  0  0
  4  1  2  0  0  0  0
  5 12  1  0  0  0  0
  5  8  2  0  0  0  0
  7  4  1  0  0  0  0
  7 14  2  0  0  0  0
  8  7  1  0  0  0  0
  9 10  1  0  0  0  0
 11 17  2  0  0  0  0
 12 16  2  0  0  0  0
 13  3  2  0  0  0  0
 14 13  1  0  0  0  0
 15  9  2  0  0  0  0
 16  4  1  0  0  0  0
 17 15  1  0  0  0  0
 18  6  2  0  0  0  0
 18  9  1  0  0  0  0
 19 22  1  6  0  0  0
 19 24  1  0  0  0  0
 20 17  1  0  0  0  0
 20 23  2  0  0  0  0
 21 19  1  0  0  0  0
 21 20  1  0  0  0  0
 24 25  2  0  0  0  0
 24 23  1  0  0  0  0
M  END
>  <MODEL>
7

>  <REMARK>
 VINA RESULT:      -8.3      1.730      2.187
  Name = 
  1 active torsions:
  status: ('A' for Active; 'I' for Inactive)
    1  A    between atoms: C_6  and  C_23
                            x       y       z     vdW  Elec       q    Type
                         _______ _______ _______ _____ _____    ______ ____

>  <TORSDO>
F 1

$$$$
=
 OpenBabel11052422143D

 25 29  0  0  1  0  0  0  0  0999 V2000
  160.8800  209.4420  152.8260 C   0  0  0  0  0  0  0  0  0  0  0  0
  161.7090  209.2580  151.5940 C   0  0  0  0  0  0  0  0  0  0  0  0
  160.4690  211.8060  152.4380 C   0  0  0  0  0  3  0  0  0  0  0  0
  160.6960  208.6820  153.8910 C   0  0  0  0  0  0  0  0  0  0  0  0
  160.1140  207.5360  156.3470 C   0  0  0  0  0  3  0  0  0  0  0  0
  161.0620  211.6400  151.0860 C   0  0  0  0  0  3  0  0  0  0  0  0
  160.0680  209.4350  154.8770 C   0  0  0  0  0  0  0  0  0  0  0  0
  159.7620  208.8770  156.1180 C   0  0  0  0  0  3  0  0  0  0  0  0
  162.0240  210.2680  149.2820 C   0  0  0  0  0  0  0  0  0  0  0  0
  162.3640  211.3810  148.4600 N   0  0  0  0  0  1  0  0  0  0  0  0
  161.4150  207.9860  150.8530 C   0  0  0  0  0  3  0  0  0  0  0  0
  160.7680  206.7830  155.3500 C   0  0  0  0  0  3  0  0  0  0  0  0
  160.3740  210.7330  153.2200 C   0  0  0  0  0  0  0  0  0  0  0  0
  159.8500  210.6720  154.5430 N   0  0  0  0  0  0  0  0  0  0  0  0
  162.0400  209.0670  148.7820 N   0  0  0  0  0  0  0  0  0  0  0  0
  161.0720  207.3570  154.1040 C   0  0  0  0  0  3  0  0  0  0  0  0
  161.6430  207.8990  149.5320 C   0  0  0  0  0  0  0  0  0  0  0  0
  161.5860  210.4650  150.6740 C   0  0  2  0  0  3  0  0  0  0  0  0
  161.1150  204.7290  147.1300 C   0  0  1  0  0  3  0  0  0  0  0  0
  161.4330  206.6240  148.8240 C   0  0  0  0  0  0  0  0  0  0  0  0
  161.2740  206.5460  147.0350 S   0  0  0  0  0  0  0  0  0  0  0  0
  162.2880  204.0870  146.4150 C   0  0  0  0  0  1  0  0  0  0  0  0
  161.3530  205.4990  149.4520 N   0  0  0  0  0  0  0  0  0  0  0  0
  161.1610  204.4040  148.5780 C   0  0  0  0  0  0  0  0  0  0  0  0
  161.0220  203.2310  149.0140 O   0  0  0  0  0  0  0  0  0  0  0  0
  1 13  1  0  0  0  0
  1  4  1  0  0  0  0
  2  1  2  0  0  0  0
  3 13  1  0  0  0  0
  4 16  2  0  0  0  0
  4  7  1  0  0  0  0
  6  3  2  0  0  0  0
  7  8  2  0  0  0  0
  8  5  1  0  0  0  0
  9 18  1  0  0  0  0
 10  9  1  0  0  0  0
 11  2  1  0  0  0  0
 12  5  2  0  0  0  0
 13 14  2  0  0  0  0
 14  7  1  0  0  0  0
 15  9  2  0  0  0  0
 15 17  1  0  0  0  0
 16 12  1  0  0  0  0
 17 11  2  0  0  0  0
 18  6  1  6  0  0  0
 18  2  1  0  0  0  0
 19 22  1  6  0  0  0
 19 24  1  0  0  0  0
 20 23  2  0  0  0  0
 20 17  1  0  0  0  0
 21 19  1  0  0  0  0
 21 20  1  0  0  0  0
 24 25  2  0  0  0  0
 24 23  1  0  0  0  0
M  END
>  <MODEL>
8

>  <REMARK>
 VINA RESULT:      -8.0      3.327      6.839
  Name = 
  1 active torsions:
  status: ('A' for Active; 'I' for Inactive)
    1  A    between atoms: C_6  and  C_23
                            x       y       z     vdW  Elec       q    Type
                         _______ _______ _______ _____ _____    ______ ____

>  <TORSDO>
F 1

$$$$
=
 OpenBabel11052422143D

 25 29  0  0  1  0  0  0  0  0999 V2000
  160.6360  209.1120  153.9190 C   0  0  0  0  0  0  0  0  0  0  0  0
  160.6830  210.6050  153.8390 C   0  0  1  0  0  3  0  0  0  0  0  0
  160.0570  209.0560  156.2780 C   0  0  0  0  0  3  0  0  0  0  0  0
  161.0540  208.1680  153.0950 C   0  0  0  0  0  0  0  0  0  0  0  0
  161.8790  205.8650  151.7920 C   0  0  0  0  0  3  0  0  0  0  0  0
  159.8410  210.5240  156.2130 C   0  0  0  0  0  3  0  0  0  0  0  0
  161.0390  206.9490  153.7640 C   0  0  0  0  0  0  0  0  0  0  0  0
  161.4460  205.7780  153.1260 C   0  0  0  0  0  3  0  0  0  0  0  0
  159.7100  212.6550  154.9870 C   0  0  0  0  0  0  0  0  0  0  0  0
  159.5500  213.4520  156.1570 N   0  0  0  0  0  1  0  0  0  0  0  0
  160.0530  211.1650  152.5970 C   0  0  0  0  0  3  0  0  0  0  0  0
  161.9100  207.1070  151.1250 C   0  0  0  0  0  3  0  0  0  0  0  0
  160.4030  208.4210  155.1610 C   0  0  0  0  0  0  0  0  0  0  0  0
  160.6650  207.0290  155.0050 N   0  0  0  0  0  0  0  0  0  0  0  0
  159.4700  213.1710  153.8160 N   0  0  0  0  0  0  0  0  0  0  0  0
  161.4990  208.2800  151.7790 C   0  0  0  0  0  3  0  0  0  0  0  0
  159.5440  212.4080  152.5920 C   0  0  0  0  0  0  0  0  0  0  0  0
  160.0780  211.2330  155.0870 C   0  0  0  0  0  0  0  0  0  0  0  0
  158.6060  214.0690  149.0620 C   0  0  1  0  0  3  0  0  0  0  0  0
  159.0020  212.9850  151.3490 C   0  0  0  0  0  0  0  0  0  0  0  0
  160.0610  213.7570  150.1200 S   0  0  0  0  0  0  0  0  0  0  0  0
  158.7520  213.2890  147.7690 C   0  0  0  0  0  1  0  0  0  0  0  0
  157.7400  212.9640  151.0810 N   0  0  0  0  0  0  0  0  0  0  0  0
  157.4420  213.5620  149.8340 C   0  0  0  0  0  0  0  0  0  0  0  0
  156.2570  213.6670  149.4210 O   0  0  0  0  0  0  0  0  0  0  0  0
  1 13  1  0  0  0  0
  2 11  1  6  0  0  0
  2  1  1  0  0  0  0
  2 18  1  0  0  0  0
  4  7  1  0  0  0  0
  4  1  2  0  0  0  0
  5  8  2  0  0  0  0
  6  3  1  0  0  0  0
  7 14  2  0  0  0  0
  8  7  1  0  0  0  0
  9 18  1  0  0  0  0
  9 10  1  0  0  0  0
 12 16  2  0  0  0  0
 12  5  1  0  0  0  0
 13  3  2  0  0  0  0
 14 13  1  0  0  0  0
 15  9  2  0  0  0  0
 16  4  1  0  0  0  0
 17 11  2  0  0  0  0
 17 15  1  0  0  0  0
 18  6  2  0  0  0  0
 19 22  1  6  0  0  0
 19 24  1  0  0  0  0
 19 21  1  0  0  0  0
 20 17  1  0  0  0  0
 21 20  1  0  0  0  0
 23 20  2  0  0  0  0
 24 23  1  0  0  0  0
 25 24  2  0  0  0  0
M  END
>  <MODEL>
9

>  <REMARK>
 VINA RESULT:      -7.3      3.840      5.286
  Name = 
  1 active torsions:
  status: ('A' for Active; 'I' for Inactive)
    1  A    between atoms: C_6  and  C_23
                            x       y       z     vdW  Elec       q    Type
                         _______ _______ _______ _____ _____    ______ ____

>  <TORSDO>
F 1

$$$$
