=
 OpenBabel11062410283D

 43 48  0  0  1  0  0  0  0  0999 V2000
  161.1970  204.5520  145.1800 C   0  0  0  0  0  3  0  0  0  0  0  0
  161.1560  205.5670  150.5670 C   0  0  0  0  0  0  0  0  0  0  0  0
  161.9510  208.2960  150.6790 C   0  0  2  0  0  3  0  0  0  0  0  0
  161.4390  204.0370  148.2450 C   0  0  0  0  0  0  0  0  0  0  0  0
  162.2950  205.4490  145.6490 C   0  0  0  0  0  2  0  0  0  0  0  0
  160.8850  203.4580  145.8730 C   0  0  0  0  0  3  0  0  0  0  0  0
  161.6110  205.4500  148.1650 C   0  0  0  0  0  0  0  0  0  0  0  0
  161.6600  203.0910  147.1000 C   0  0  0  0  0  2  0  0  0  0  0  0
  161.8280  206.2250  146.8730 C   0  0  0  0  0  2  0  0  0  0  0  0
  161.5880  207.7140  149.3130 C   0  0  0  0  0  2  0  0  0  0  0  0
  161.4700  206.2070  149.3500 C   0  0  0  0  0  0  0  0  0  0  0  0
  161.0110  204.1810  150.5840 C   0  0  0  0  0  3  0  0  0  0  0  0
  161.0310  206.3330  151.7830 N   0  0  0  0  0  0  0  0  0  0  0  0
  160.9690  207.7890  151.7250 C   0  0  0  0  0  2  0  0  0  0  0  0
  161.1570  203.4620  149.4450 N   0  0  0  0  0  0  0  0  0  0  0  0
  161.9690  209.7550  150.6330 N   0  0  0  0  0  0  0  0  0  0  0  0
  161.9440  210.4160  149.3560 C   0  0  0  0  0  0  0  0  0  0  0  0
  162.1190  209.7540  148.2980 O   0  0  0  0  0  0  0  0  0  0  0  0
  161.8860  210.5200  151.8760 C   0  0  0  0  0  2  0  0  0  0  0  0
  160.4740  211.0400  152.0810 C   0  0  0  0  0  1  0  0  0  0  0  0
  161.6670  211.8820  149.2480 C   0  0  0  0  0  2  0  0  0  0  0  0
  161.8480  212.3520  147.8120 C   0  0  2  0  0  3  0  0  0  0  0  0
  161.2530  214.4530  146.6970 C   0  0  0  0  0  2  0  0  0  0  0  0
  163.0800  213.2240  147.6840 C   0  0  0  0  0  2  0  0  0  0  0  0
  160.6720  213.2300  147.3880 C   0  0  1  0  0  3  0  0  0  0  0  0
  162.7480  214.2250  146.6030 C   0  0  0  0  0  2  0  0  0  0  0  0
  159.7190  212.5400  146.5020 N   0  0  0  0  0  0  0  0  0  0  0  0
  158.4760  212.6390  147.0460 O   0  0  0  0  0  1  0  0  0  0  0  0
  159.7070  213.1940  145.1890 C   0  0  0  0  0  3  0  0  0  0  0  0
  158.7810  213.4450  142.4060 C   0  0  0  0  0  2  0  0  0  0  0  0
  160.1700  212.9080  142.7380 C   0  0  0  0  0  2  0  0  0  0  0  0
  158.3150  214.4100  143.4920 C   0  0  0  0  0  2  0  0  0  0  0  0
  160.1550  212.2150  144.0980 C   0  0  0  0  0  2  0  0  0  0  0  0
  158.3030  213.7100  144.8470 C   0  0  0  0  0  2  0  0  0  0  0  0
  161.1640  205.7000  153.0900 C   0  0  0  0  0  2  0  0  0  0  0  0
  159.6810  207.3930  156.1380 C   0  0  0  0  0  3  0  0  0  0  0  0
  160.3890  208.5990  156.1560 C   0  0  0  0  0  0  0  0  0  0  0  0
  161.6090  207.9120  154.1790 C   0  0  0  0  0  3  0  0  0  0  0  0
  159.9430  206.4420  155.1470 C   0  0  0  0  0  3  0  0  0  0  0  0
  160.9140  206.6970  154.1720 C   0  0  0  0  0  0  0  0  0  0  0  0
  161.3460  208.8620  155.1700 C   0  0  0  0  0  3  0  0  0  0  0  0
  161.0360  210.6280  157.1410 F   0  0  0  0  0  0  0  0  0  0  0  0
  160.0910  209.6220  157.1930 C   0  0  0  0  0  2  0  0  0  0  0  0
  1  5  1  0  0  0  0
  1  6  2  0  0  0  0
  2 12  1  0  0  0  0
  2 13  1  0  0  0  0
  3 16  1  6  0  0  0
  3 14  1  0  0  0  0
  4 15  1  0  0  0  0
  5  9  1  0  0  0  0
  6  8  1  0  0  0  0
  7  4  2  0  0  0  0
  7 11  1  0  0  0  0
  8  4  1  0  0  0  0
  9  7  1  0  0  0  0
 10 11  1  0  0  0  0
 10  3  1  0  0  0  0
 11  2  2  0  0  0  0
 13 35  1  0  0  0  0
 14 13  1  0  0  0  0
 15 12  2  0  0  0  0
 16 19  1  0  0  0  0
 17 16  1  0  0  0  0
 18 17  2  0  0  0  0
 19 20  1  0  0  0  0
 21 17  1  0  0  0  0
 22 21  1  1  0  0  0
 23 25  1  0  0  0  0
 24 22  1  0  0  0  0
 25 27  1  6  0  0  0
 25 22  1  0  0  0  0
 26 23  1  0  0  0  0
 26 24  1  0  0  0  0
 27 28  1  0  0  0  0
 29 27  1  0  0  0  0
 30 31  1  0  0  0  0
 30 32  1  0  0  0  0
 31 33  1  0  0  0  0
 32 34  1  0  0  0  0
 33 29  1  0  0  0  0
 34 29  1  0  0  0  0
 35 40  1  0  0  0  0
 36 37  1  0  0  0  0
 37 43  1  0  0  0  0
 38 41  1  0  0  0  0
 39 36  2  0  0  0  0
 40 38  2  0  0  0  0
 40 39  1  0  0  0  0
 41 37  2  0  0  0  0
 42 43  1  0  0  0  0
M  END
>  <MODEL>
1

>  <REMARK>
 VINA RESULT:      -9.1      0.000      0.000
  Name = 
  9 active torsions:
  status: ('A' for Active; 'I' for Inactive)
    1  A    between atoms: C_1  and  N_34
    2  A    between atoms: C_1  and  C_35
    3  A    between atoms: C_2  and  N_6
    4  A    between atoms: C_3  and  C_4
    5  A    between atoms: C_3  and  C_12
    6  A    between atoms: N_6  and  C_13
    7  A    between atoms: C_11  and  N_14
    8  A    between atoms: N_14  and  C_22
    9  A    between atoms: C_19  and  C_37
                            x       y       z     vdW  Elec       q    Type
                         _______ _______ _______ _____ _____    ______ ____

>  <TORSDO>
F 9

$$$$
=
 OpenBabel11062410283D

 43 48  0  0  1  0  0  0  0  0999 V2000
  160.1000  201.3840  148.5000 C   0  0  0  0  0  3  0  0  0  0  0  0
  161.2330  205.5520  151.8760 C   0  0  0  0  0  0  0  0  0  0  0  0
  161.8060  207.6660  150.0620 C   0  0  2  0  0  3  0  0  0  0  0  0
  161.0910  202.8870  151.0460 C   0  0  0  0  0  0  0  0  0  0  0  0
  161.2010  202.2780  148.0320 C   0  0  0  0  0  2  0  0  0  0  0  0
  160.0500  200.9980  149.7740 C   0  0  0  0  0  3  0  0  0  0  0  0
  161.1240  203.9160  150.0580 C   0  0  0  0  0  0  0  0  0  0  0  0
  161.1160  201.4170  150.7370 C   0  0  0  0  0  2  0  0  0  0  0  0
  160.9700  203.6870  148.5610 C   0  0  0  0  0  2  0  0  0  0  0  0
  161.1840  206.3900  149.4970 C   0  0  0  0  0  2  0  0  0  0  0  0
  161.2010  205.2570  150.4970 C   0  0  0  0  0  0  0  0  0  0  0  0
  161.2090  204.5020  152.7920 C   0  0  0  0  0  3  0  0  0  0  0  0
  161.3330  206.9180  152.3280 N   0  0  0  0  0  0  0  0  0  0  0  0
  161.1390  208.0150  151.3850 C   0  0  0  0  0  2  0  0  0  0  0  0
  161.1450  203.2190  152.3630 N   0  0  0  0  0  0  0  0  0  0  0  0
  161.6940  208.7660  149.1080 N   0  0  0  0  0  0  0  0  0  0  0  0
  162.1220  210.0810  149.5030 C   0  0  0  0  0  0  0  0  0  0  0  0
  162.3890  210.3240  150.7110 O   0  0  0  0  0  0  0  0  0  0  0  0
  161.2680  208.4950  147.7350 C   0  0  0  0  0  2  0  0  0  0  0  0
  161.9800  207.2670  147.1970 C   0  0  0  0  0  1  0  0  0  0  0  0
  162.3060  211.1710  148.4940 C   0  0  0  0  0  2  0  0  0  0  0  0
  161.7510  212.4840  149.0250 C   0  0  2  0  0  3  0  0  0  0  0  0
  159.6640  213.6820  148.5550 C   0  0  0  0  0  2  0  0  0  0  0  0
  160.7610  212.2350  150.1440 C   0  0  0  0  0  2  0  0  0  0  0  0
  160.9700  213.2120  147.9330 C   0  0  1  0  0  3  0  0  0  0  0  0
  159.7440  213.3470  150.0300 C   0  0  0  0  0  2  0  0  0  0  0  0
  161.7030  214.3480  147.3490 N   0  0  0  0  0  0  0  0  0  0  0  0
  162.9710  214.3400  147.8400 O   0  0  0  0  0  1  0  0  0  0  0  0
  161.7660  214.1950  145.8910 C   0  0  0  0  0  3  0  0  0  0  0  0
  161.8780  212.5700  143.4390 C   0  0  0  0  0  2  0  0  0  0  0  0
  163.1090  213.3010  143.9670 C   0  0  0  0  0  2  0  0  0  0  0  0
  160.6090  213.3100  143.8480 C   0  0  0  0  0  2  0  0  0  0  0  0
  163.0320  213.4320  145.4860 C   0  0  0  0  0  2  0  0  0  0  0  0
  160.5400  213.4370  145.3670 C   0  0  0  0  0  2  0  0  0  0  0  0
  161.8180  207.2370  153.6650 C   0  0  0  0  0  2  0  0  0  0  0  0
  160.2180  210.5690  154.4960 C   0  0  0  0  0  3  0  0  0  0  0  0
  159.3580  210.2100  155.5390 C   0  0  0  0  0  0  0  0  0  0  0  0
  160.0940  207.9100  155.3540 C   0  0  0  0  0  3  0  0  0  0  0  0
  161.0100  209.5980  153.8770 C   0  0  0  0  0  3  0  0  0  0  0  0
  160.9420  208.2650  154.2990 C   0  0  0  0  0  0  0  0  0  0  0  0
  159.3030  208.8820  155.9740 C   0  0  0  0  0  3  0  0  0  0  0  0
  157.2020  211.0600  155.9090 F   0  0  0  0  0  0  0  0  0  0  0  0
  158.5360  211.2480  156.2170 C   0  0  0  0  0  2  0  0  0  0  0  0
  1  6  2  0  0  0  0
  2 13  1  0  0  0  0
  2 12  1  0  0  0  0
  3 16  1  6  0  0  0
  3 14  1  0  0  0  0
  4 15  1  0  0  0  0
  5  1  1  0  0  0  0
  5  9  1  0  0  0  0
  6  8  1  0  0  0  0
  7 11  1  0  0  0  0
  7  4  2  0  0  0  0
  8  4  1  0  0  0  0
  9  7  1  0  0  0  0
 10  3  1  0  0  0  0
 10 11  1  0  0  0  0
 11  2  2  0  0  0  0
 13 35  1  0  0  0  0
 14 13  1  0  0  0  0
 15 12  2  0  0  0  0
 16 17  1  0  0  0  0
 17 18  2  0  0  0  0
 19 16  1  0  0  0  0
 20 19  1  0  0  0  0
 21 17  1  0  0  0  0
 22 21  1  6  0  0  0
 22 24  1  0  0  0  0
 23 26  1  0  0  0  0
 25 27  1  1  0  0  0
 25 23  1  0  0  0  0
 25 22  1  0  0  0  0
 26 24  1  0  0  0  0
 27 28  1  0  0  0  0
 29 27  1  0  0  0  0
 30 32  1  0  0  0  0
 30 31  1  0  0  0  0
 31 33  1  0  0  0  0
 32 34  1  0  0  0  0
 33 29  1  0  0  0  0
 34 29  1  0  0  0  0
 35 40  1  0  0  0  0
 36 37  1  0  0  0  0
 37 41  2  0  0  0  0
 37 43  1  0  0  0  0
 38 41  1  0  0  0  0
 39 40  1  0  0  0  0
 39 36  2  0  0  0  0
 40 38  2  0  0  0  0
 42 43  1  0  0  0  0
M  END
>  <MODEL>
2

>  <REMARK>
 VINA RESULT:      -8.2      1.898      3.008
  Name = 
  9 active torsions:
  status: ('A' for Active; 'I' for Inactive)
    1  A    between atoms: C_1  and  N_34
    2  A    between atoms: C_1  and  C_35
    3  A    between atoms: C_2  and  N_6
    4  A    between atoms: C_3  and  C_4
    5  A    between atoms: C_3  and  C_12
    6  A    between atoms: N_6  and  C_13
    7  A    between atoms: C_11  and  N_14
    8  A    between atoms: N_14  and  C_22
    9  A    between atoms: C_19  and  C_37
                            x       y       z     vdW  Elec       q    Type
                         _______ _______ _______ _____ _____    ______ ____

>  <TORSDO>
F 9

$$$$
=
 OpenBabel11062410283D

 43 48  0  0  1  0  0  0  0  0999 V2000
  155.6450  212.6140  156.1570 C   0  0  0  0  0  3  0  0  0  0  0  0
  159.4860  212.6020  152.2460 C   0  0  0  0  0  0  0  0  0  0  0  0
  160.6990  210.0530  152.5910 C   0  0  2  0  0  3  0  0  0  0  0  0
  157.7860  213.7050  154.1700 C   0  0  0  0  0  0  0  0  0  0  0  0
  156.9260  211.9540  156.5490 C   0  0  0  0  0  2  0  0  0  0  0  0
  155.6650  213.7720  155.4990 C   0  0  0  0  0  3  0  0  0  0  0  0
  158.1520  212.3310  154.2800 C   0  0  0  0  0  0  0  0  0  0  0  0
  156.9640  214.4450  155.1860 C   0  0  0  0  0  2  0  0  0  0  0  0
  157.5930  211.3640  155.3140 C   0  0  0  0  0  2  0  0  0  0  0  0
  159.3940  210.3290  153.3360 C   0  0  0  0  0  2  0  0  0  0  0  0
  159.0170  211.7920  153.3010 C   0  0  0  0  0  0  0  0  0  0  0  0
  159.1010  213.9410  152.1990 C   0  0  0  0  0  3  0  0  0  0  0  0
  160.3850  212.0620  151.2550 N   0  0  0  0  0  0  0  0  0  0  0  0
  160.6110  210.6220  151.1820 C   0  0  0  0  0  2  0  0  0  0  0  0
  158.2800  214.4520  153.1470 N   0  0  0  0  0  0  0  0  0  0  0  0
  160.9900  208.6220  152.5650 N   0  0  0  0  0  0  0  0  0  0  0  0
  161.8010  208.0920  151.5010 C   0  0  0  0  0  0  0  0  0  0  0  0
  162.0750  208.8060  150.4990 O   0  0  0  0  0  0  0  0  0  0  0  0
  160.5640  207.7750  153.6770 C   0  0  0  0  0  2  0  0  0  0  0  0
  161.5060  207.9400  154.8560 C   0  0  0  0  0  1  0  0  0  0  0  0
  162.3710  206.7110  151.5760 C   0  0  0  0  0  2  0  0  0  0  0  0
  161.2770  205.6730  151.3760 C   0  0  2  0  0  3  0  0  0  0  0  0
  161.3500  203.3630  150.5580 C   0  0  0  0  0  2  0  0  0  0  0  0
  161.2210  204.7190  152.5500 C   0  0  0  0  0  2  0  0  0  0  0  0
  161.5800  204.8100  150.1520 C   0  0  1  0  0  3  0  0  0  0  0  0
  160.7910  203.3940  151.9660 C   0  0  0  0  0  2  0  0  0  0  0  0
  160.7600  205.1550  148.9780 N   0  0  0  0  0  0  0  0  0  0  0  0
  160.4910  206.4870  149.0160 O   0  0  0  0  0  1  0  0  0  0  0  0
  161.5120  204.8640  147.7520 C   0  0  0  0  0  3  0  0  0  0  0  0
  161.6980  204.4200  144.8480 C   0  0  0  0  0  2  0  0  0  0  0  0
  161.7980  203.2640  145.8390 C   0  0  0  0  0  2  0  0  0  0  0  0
  162.1960  205.7110  145.4910 C   0  0  0  0  0  2  0  0  0  0  0  0
  160.9940  203.5780  147.0970 C   0  0  0  0  0  2  0  0  0  0  0  0
  161.3870  206.0170  146.7480 C   0  0  0  0  0  2  0  0  0  0  0  0
  161.2320  212.9330  150.4490 C   0  0  0  0  0  2  0  0  0  0  0  0
  160.9310  212.3690  146.7140 C   0  0  0  0  0  3  0  0  0  0  0  0
  159.8200  213.1600  146.4040 C   0  0  0  0  0  0  0  0  0  0  0  0
  159.6230  213.7960  148.7330 C   0  0  0  0  0  3  0  0  0  0  0  0
  161.3830  212.2850  148.0350 C   0  0  0  0  0  3  0  0  0  0  0  0
  160.7240  212.9910  149.0470 C   0  0  0  0  0  0  0  0  0  0  0  0
  159.1720  213.8810  147.4130 C   0  0  0  0  0  3  0  0  0  0  0  0
  159.4270  212.0360  144.3820 F   0  0  0  0  0  0  0  0  0  0  0  0
  159.3560  213.2730  144.9960 C   0  0  0  0  0  2  0  0  0  0  0  0
  1  5  1  0  0  0  0
  2 11  1  0  0  0  0
  3 16  1  6  0  0  0
  3 10  1  0  0  0  0
  4  7  1  0  0  0  0
  4  8  1  0  0  0  0
  6  1  2  0  0  0  0
  7  9  1  0  0  0  0
  8  6  1  0  0  0  0
  9  5  1  0  0  0  0
 11 10  1  0  0  0  0
 11  7  2  0  0  0  0
 12  2  2  0  0  0  0
 12 15  1  0  0  0  0
 13  2  1  0  0  0  0
 14 13  1  0  0  0  0
 14  3  1  0  0  0  0
 15  4  2  0  0  0  0
 16 19  1  0  0  0  0
 17 21  1  0  0  0  0
 17 16  1  0  0  0  0
 18 17  2  0  0  0  0
 19 20  1  0  0  0  0
 22 21  1  1  0  0  0
 22 24  1  0  0  0  0
 23 26  1  0  0  0  0
 25 27  1  6  0  0  0
 25 23  1  0  0  0  0
 25 22  1  0  0  0  0
 26 24  1  0  0  0  0
 27 28  1  0  0  0  0
 29 27  1  0  0  0  0
 30 32  1  0  0  0  0
 30 31  1  0  0  0  0
 31 33  1  0  0  0  0
 32 34  1  0  0  0  0
 33 29  1  0  0  0  0
 34 29  1  0  0  0  0
 35 13  1  0  0  0  0
 36 39  1  0  0  0  0
 37 36  2  0  0  0  0
 37 41  1  0  0  0  0
 38 40  1  0  0  0  0
 39 40  2  0  0  0  0
 40 35  1  0  0  0  0
 41 38  2  0  0  0  0
 42 43  1  0  0  0  0
 43 37  1  0  0  0  0
M  END
>  <MODEL>
3

>  <REMARK>
 VINA RESULT:      -8.2      3.273      9.418
  Name = 
  9 active torsions:
  status: ('A' for Active; 'I' for Inactive)
    1  A    between atoms: C_1  and  N_34
    2  A    between atoms: C_1  and  C_35
    3  A    between atoms: C_2  and  N_6
    4  A    between atoms: C_3  and  C_4
    5  A    between atoms: C_3  and  C_12
    6  A    between atoms: N_6  and  C_13
    7  A    between atoms: C_11  and  N_14
    8  A    between atoms: N_14  and  C_22
    9  A    between atoms: C_19  and  C_37
                            x       y       z     vdW  Elec       q    Type
                         _______ _______ _______ _____ _____    ______ ____

>  <TORSDO>
F 9

$$$$
=
 OpenBabel11062410283D

 43 48  0  0  1  0  0  0  0  0999 V2000
  155.7720  212.0990  156.9790 C   0  0  0  0  0  3  0  0  0  0  0  0
  159.0160  212.8620  152.6270 C   0  0  0  0  0  0  0  0  0  0  0  0
  160.6600  210.5420  152.6780 C   0  0  2  0  0  3  0  0  0  0  0  0
  157.4280  213.6000  154.8050 C   0  0  0  0  0  0  0  0  0  0  0  0
  157.1830  211.6500  157.1720 C   0  0  0  0  0  2  0  0  0  0  0  0
  155.5170  213.2650  156.3880 C   0  0  0  0  0  3  0  0  0  0  0  0
  158.0220  212.3030  154.7930 C   0  0  0  0  0  0  0  0  0  0  0  0
  156.6380  214.1570  155.9550 C   0  0  0  0  0  2  0  0  0  0  0  0
  157.7670  211.2220  155.8330 C   0  0  0  0  0  2  0  0  0  0  0  0
  159.4370  210.5700  153.5930 C   0  0  0  0  0  2  0  0  0  0  0  0
  158.8260  211.9500  153.6860 C   0  0  0  0  0  0  0  0  0  0  0  0
  158.4180  214.1190  152.7020 C   0  0  0  0  0  3  0  0  0  0  0  0
  159.8530  212.5140  151.5040 N   0  0  0  0  0  0  0  0  0  0  0  0
  160.2960  211.1360  151.3240 C   0  0  0  0  0  2  0  0  0  0  0  0
  157.6560  214.4520  153.7710 N   0  0  0  0  0  0  0  0  0  0  0  0
  161.1720  209.1810  152.5370 N   0  0  0  0  0  0  0  0  0  0  0  0
  161.9460  208.8420  151.3720 C   0  0  0  0  0  0  0  0  0  0  0  0
  162.0000  209.6370  150.3950 O   0  0  0  0  0  0  0  0  0  0  0  0
  161.0010  208.2250  153.6290 C   0  0  0  0  0  2  0  0  0  0  0  0
  161.3490  208.8750  154.9560 C   0  0  0  0  0  1  0  0  0  0  0  0
  162.7340  207.5720  151.3100 C   0  0  0  0  0  2  0  0  0  0  0  0
  162.3460  206.7660  150.0790 C   0  0  2  0  0  3  0  0  0  0  0  0
  160.1640  206.0450  149.2250 C   0  0  0  0  0  2  0  0  0  0  0  0
  161.9160  207.6820  148.9520 C   0  0  0  0  0  2  0  0  0  0  0  0
  161.1360  205.8840  150.3830 C   0  0  1  0  0  3  0  0  0  0  0  0
  160.8590  206.9120  148.1950 C   0  0  0  0  0  2  0  0  0  0  0  0
  161.4820  204.4650  150.5730 N   0  0  0  0  0  0  0  0  0  0  0  0
  160.9720  204.0530  151.7640 O   0  0  0  0  0  1  0  0  0  0  0  0
  160.8770  203.6640  149.5030 C   0  0  0  0  0  3  0  0  0  0  0  0
  160.8510  201.3770  147.6500 C   0  0  0  0  0  2  0  0  0  0  0  0
  161.1640  202.7900  147.1670 C   0  0  0  0  0  2  0  0  0  0  0  0
  159.9340  201.4270  148.8680 C   0  0  0  0  0  2  0  0  0  0  0  0
  161.8100  203.5980  148.2880 C   0  0  0  0  0  2  0  0  0  0  0  0
  160.5870  202.2370  149.9840 C   0  0  0  0  0  2  0  0  0  0  0  0
  160.4340  213.5420  150.6480 C   0  0  0  0  0  2  0  0  0  0  0  0
  158.0230  213.3500  147.7320 C   0  0  0  0  0  3  0  0  0  0  0  0
  158.8960  213.1030  146.6680 C   0  0  0  0  0  0  0  0  0  0  0  0
  160.7740  213.1510  148.1970 C   0  0  0  0  0  3  0  0  0  0  0  0
  158.5250  213.5070  149.0270 C   0  0  0  0  0  3  0  0  0  0  0  0
  159.9020  213.4170  149.2600 C   0  0  0  0  0  0  0  0  0  0  0  0
  160.2710  212.9940  146.9030 C   0  0  0  0  0  3  0  0  0  0  0  0
  159.0400  211.8810  144.6700 F   0  0  0  0  0  0  0  0  0  0  0  0
  158.3590  212.9090  145.2950 C   0  0  0  0  0  2  0  0  0  0  0  0
  1  5  1  0  0  0  0
  2 12  2  0  0  0  0
  2 11  1  0  0  0  0
  3 16  1  6  0  0  0
  3 10  1  0  0  0  0
  4  8  1  0  0  0  0
  6  1  2  0  0  0  0
  7  4  1  0  0  0  0
  7  9  1  0  0  0  0
  8  6  1  0  0  0  0
  9  5  1  0  0  0  0
 10 11  1  0  0  0  0
 11  7  2  0  0  0  0
 12 15  1  0  0  0  0
 13  2  1  0  0  0  0
 14 13  1  0  0  0  0
 14  3  1  0  0  0  0
 15  4  2  0  0  0  0
 16 19  1  0  0  0  0
 17 16  1  0  0  0  0
 18 17  2  0  0  0  0
 19 20  1  0  0  0  0
 21 17  1  0  0  0  0
 22 25  1  0  0  0  0
 22 21  1  1  0  0  0
 23 25  1  0  0  0  0
 24 22  1  0  0  0  0
 25 27  1  6  0  0  0
 26 24  1  0  0  0  0
 26 23  1  0  0  0  0
 27 28  1  0  0  0  0
 29 34  1  0  0  0  0
 29 27  1  0  0  0  0
 30 32  1  0  0  0  0
 31 30  1  0  0  0  0
 31 33  1  0  0  0  0
 32 34  1  0  0  0  0
 33 29  1  0  0  0  0
 35 13  1  0  0  0  0
 36 39  1  0  0  0  0
 37 41  1  0  0  0  0
 37 36  2  0  0  0  0
 38 40  1  0  0  0  0
 39 40  2  0  0  0  0
 40 35  1  0  0  0  0
 41 38  2  0  0  0  0
 42 43  1  0  0  0  0
 43 37  1  0  0  0  0
M  END
>  <MODEL>
4

>  <REMARK>
 VINA RESULT:      -7.9      3.493      9.696
  Name = 
  9 active torsions:
  status: ('A' for Active; 'I' for Inactive)
    1  A    between atoms: C_1  and  N_34
    2  A    between atoms: C_1  and  C_35
    3  A    between atoms: C_2  and  N_6
    4  A    between atoms: C_3  and  C_4
    5  A    between atoms: C_3  and  C_12
    6  A    between atoms: N_6  and  C_13
    7  A    between atoms: C_11  and  N_14
    8  A    between atoms: N_14  and  C_22
    9  A    between atoms: C_19  and  C_37
                            x       y       z     vdW  Elec       q    Type
                         _______ _______ _______ _____ _____    ______ ____

>  <TORSDO>
F 9

$$$$
=
 OpenBabel11062410283D

 43 48  0  0  1  0  0  0  0  0999 V2000
  160.8320  201.1750  149.1780 C   0  0  0  0  0  3  0  0  0  0  0  0
  162.0290  206.5080  148.7560 C   0  0  0  0  0  0  0  0  0  0  0  0
  161.2020  207.5190  151.2820 C   0  0  2  0  0  3  0  0  0  0  0  0
  161.2850  203.9660  147.8630 C   0  0  0  0  0  0  0  0  0  0  0  0
  159.8400  202.0850  149.8230 C   0  0  0  0  0  2  0  0  0  0  0  0
  161.3190  201.4640  147.9720 C   0  0  0  0  0  3  0  0  0  0  0  0
  161.0600  204.3110  149.2290 C   0  0  0  0  0  0  0  0  0  0  0  0
  160.8430  202.6760  147.2330 C   0  0  0  0  0  2  0  0  0  0  0  0
  160.5420  203.3520  150.2920 C   0  0  0  0  0  2  0  0  0  0  0  0
  161.2730  206.0030  151.1090 C   0  0  0  0  0  2  0  0  0  0  0  0
  161.4370  205.6020  149.6600 C   0  0  0  0  0  0  0  0  0  0  0  0
  162.2120  206.1160  147.4310 C   0  0  0  0  0  3  0  0  0  0  0  0
  162.3970  207.8350  149.1860 N   0  0  0  0  0  0  0  0  0  0  0  0
  162.4050  208.1640  150.6080 C   0  0  0  0  0  2  0  0  0  0  0  0
  161.8390  204.8800  147.0230 N   0  0  0  0  0  0  0  0  0  0  0  0
  161.1350  207.8790  152.6960 N   0  0  0  0  0  0  0  0  0  0  0  0
  160.4360  209.0750  153.0810 C   0  0  0  0  0  0  0  0  0  0  0  0
  160.0740  209.9070  152.2050 O   0  0  0  0  0  0  0  0  0  0  0  0
  161.6650  206.9610  153.7030 C   0  0  0  0  0  2  0  0  0  0  0  0
  160.5550  206.5020  154.6320 C   0  0  0  0  0  1  0  0  0  0  0  0
  160.0830  209.3400  154.5110 C   0  0  0  0  0  2  0  0  0  0  0  0
  160.9410  210.4640  155.0710 C   0  0  2  0  0  3  0  0  0  0  0  0
  160.8770  211.6520  157.2140 C   0  0  0  0  0  2  0  0  0  0  0  0
  162.0140  209.9140  155.9870 C   0  0  0  0  0  2  0  0  0  0  0  0
  160.0960  211.3990  155.9340 C   0  0  1  0  0  3  0  0  0  0  0  0
  162.2220  210.9780  157.0400 C   0  0  0  0  0  2  0  0  0  0  0  0
  159.7670  212.6700  155.2680 N   0  0  0  0  0  0  0  0  0  0  0  0
  160.0800  212.5590  153.9490 O   0  0  0  0  0  1  0  0  0  0  0  0
  158.3280  212.9290  155.3870 C   0  0  0  0  0  3  0  0  0  0  0  0
  155.6030  213.0820  154.2830 C   0  0  0  0  0  2  0  0  0  0  0  0
  156.4130  214.3400  154.5820 C   0  0  0  0  0  2  0  0  0  0  0  0
  156.0240  211.9500  155.2150 C   0  0  0  0  0  2  0  0  0  0  0  0
  157.9050  214.0530  154.4340 C   0  0  0  0  0  2  0  0  0  0  0  0
  157.5160  211.6700  155.0610 C   0  0  0  0  0  2  0  0  0  0  0  0
  162.5720  208.9180  148.2260 C   0  0  0  0  0  2  0  0  0  0  0  0
  160.7170  212.2190  148.3620 C   0  0  0  0  0  3  0  0  0  0  0  0
  160.8680  212.5650  149.7080 C   0  0  0  0  0  0  0  0  0  0  0  0
  162.1230  210.5290  150.0910 C   0  0  0  0  0  3  0  0  0  0  0  0
  161.2610  211.0240  147.8820 C   0  0  0  0  0  3  0  0  0  0  0  0
  161.9570  210.1730  148.7480 C   0  0  0  0  0  0  0  0  0  0  0  0
  161.5790  211.7240  150.5710 C   0  0  0  0  0  3  0  0  0  0  0  0
  159.6360  213.6310  151.3970 F   0  0  0  0  0  0  0  0  0  0  0  0
  160.3140  213.8500  150.2130 C   0  0  0  0  0  2  0  0  0  0  0  0
  1  5  1  0  0  0  0
  2 13  1  0  0  0  0
  2 11  1  0  0  0  0
  3 16  1  1  0  0  0
  4  7  1  0  0  0  0
  5  9  1  0  0  0  0
  6  1  2  0  0  0  0
  7 11  2  0  0  0  0
  7  9  1  0  0  0  0
  8  4  1  0  0  0  0
  8  6  1  0  0  0  0
 10  3  1  0  0  0  0
 11 10  1  0  0  0  0
 12  2  2  0  0  0  0
 13 14  1  0  0  0  0
 14  3  1  0  0  0  0
 15 12  1  0  0  0  0
 15  4  2  0  0  0  0
 16 17  1  0  0  0  0
 16 19  1  0  0  0  0
 17 21  1  0  0  0  0
 18 17  2  0  0  0  0
 19 20  1  0  0  0  0
 22 21  1  1  0  0  0
 22 25  1  0  0  0  0
 22 24  1  0  0  0  0
 24 26  1  0  0  0  0
 25 27  1  6  0  0  0
 25 23  1  0  0  0  0
 26 23  1  0  0  0  0
 27 29  1  0  0  0  0
 28 27  1  0  0  0  0
 30 31  1  0  0  0  0
 30 32  1  0  0  0  0
 33 31  1  0  0  0  0
 33 29  1  0  0  0  0
 34 32  1  0  0  0  0
 34 29  1  0  0  0  0
 35 40  1  0  0  0  0
 35 13  1  0  0  0  0
 36 37  1  0  0  0  0
 37 43  1  0  0  0  0
 37 41  2  0  0  0  0
 38 41  1  0  0  0  0
 39 36  2  0  0  0  0
 39 40  1  0  0  0  0
 40 38  2  0  0  0  0
 43 42  1  0  0  0  0
M  END
>  <MODEL>
5

>  <REMARK>
 VINA RESULT:      -7.6      3.004      6.989
  Name = 
  9 active torsions:
  status: ('A' for Active; 'I' for Inactive)
    1  A    between atoms: C_1  and  N_34
    2  A    between atoms: C_1  and  C_35
    3  A    between atoms: C_2  and  N_6
    4  A    between atoms: C_3  and  C_4
    5  A    between atoms: C_3  and  C_12
    6  A    between atoms: N_6  and  C_13
    7  A    between atoms: C_11  and  N_14
    8  A    between atoms: N_14  and  C_22
    9  A    between atoms: C_19  and  C_37
                            x       y       z     vdW  Elec       q    Type
                         _______ _______ _______ _____ _____    ______ ____

>  <TORSDO>
F 9

$$$$
=
 OpenBabel11062410283D

 43 48  0  0  1  0  0  0  0  0999 V2000
  160.9670  204.6460  144.9310 C   0  0  0  0  0  3  0  0  0  0  0  0
  161.1170  205.6090  150.3260 C   0  0  0  0  0  0  0  0  0  0  0  0
  161.9800  208.3160  150.4380 C   0  0  2  0  0  3  0  0  0  0  0  0
  161.2910  204.0950  147.9830 C   0  0  0  0  0  0  0  0  0  0  0  0
  162.1000  205.5120  145.3750 C   0  0  0  0  0  2  0  0  0  0  0  0
  160.6510  203.5530  145.6240 C   0  0  0  0  0  3  0  0  0  0  0  0
  161.4950  205.5050  147.9100 C   0  0  0  0  0  0  0  0  0  0  0  0
  161.4540  203.1550  146.8230 C   0  0  0  0  0  2  0  0  0  0  0  0
  161.6900  206.2870  146.6190 C   0  0  0  0  0  2  0  0  0  0  0  0
  161.5610  207.7570  149.0800 C   0  0  0  0  0  2  0  0  0  0  0  0
  161.4080  206.2530  149.1060 C   0  0  0  0  0  0  0  0  0  0  0  0
  160.9390  204.2260  150.3350 C   0  0  0  0  0  3  0  0  0  0  0  0
  161.0480  206.3650  151.5530 N   0  0  0  0  0  0  0  0  0  0  0  0
  161.0190  207.8230  151.5100 C   0  0  0  0  0  2  0  0  0  0  0  0
  161.0330  203.5160  149.1860 N   0  0  0  0  0  0  0  0  0  0  0  0
  162.0320  209.7760  150.4060 N   0  0  0  0  0  0  0  0  0  0  0  0
  162.3380  210.4370  149.1660 C   0  0  0  0  0  0  0  0  0  0  0  0
  162.7610  209.7730  148.1820 O   0  0  0  0  0  0  0  0  0  0  0  0
  161.6520  210.5410  151.5920 C   0  0  0  0  0  2  0  0  0  0  0  0
  160.3030  211.2030  151.3810 C   0  0  0  0  0  1  0  0  0  0  0  0
  162.1190  211.9080  148.9990 C   0  0  0  0  0  2  0  0  0  0  0  0
  162.0560  212.2710  147.5230 C   0  0  2  0  0  3  0  0  0  0  0  0
  162.0990  214.4360  146.3730 C   0  0  0  0  0  2  0  0  0  0  0  0
  163.4450  212.5250  146.9730 C   0  0  0  0  0  2  0  0  0  0  0  0
  161.2870  213.5770  147.3290 C   0  0  1  0  0  3  0  0  0  0  0  0
  163.2650  213.5840  145.9110 C   0  0  0  0  0  2  0  0  0  0  0  0
  159.9220  213.3780  146.8130 N   0  0  0  0  0  0  0  0  0  0  0  0
  159.9220  212.2860  146.0030 O   0  0  0  0  0  1  0  0  0  0  0  0
  159.0060  213.1290  147.9320 C   0  0  0  0  0  3  0  0  0  0  0  0
  156.4960  213.5860  149.4010 C   0  0  0  0  0  2  0  0  0  0  0  0
  157.8240  214.1530  149.8960 C   0  0  0  0  0  2  0  0  0  0  0  0
  156.7330  212.3060  148.6060 C   0  0  0  0  0  2  0  0  0  0  0  0
  158.7530  214.4220  148.7160 C   0  0  0  0  0  2  0  0  0  0  0  0
  157.6630  212.5840  147.4290 C   0  0  0  0  0  2  0  0  0  0  0  0
  161.2060  205.7170  152.8490 C   0  0  0  0  0  2  0  0  0  0  0  0
  161.5490  208.6410  155.2340 C   0  0  0  0  0  3  0  0  0  0  0  0
  160.4330  208.4590  156.0560 C   0  0  0  0  0  0  0  0  0  0  0  0
  159.8140  206.4940  154.7810 C   0  0  0  0  0  3  0  0  0  0  0  0
  161.7940  207.7550  154.1800 C   0  0  0  0  0  3  0  0  0  0  0  0
  160.9220  206.6860  153.9470 C   0  0  0  0  0  0  0  0  0  0  0  0
  159.5700  207.3800  155.8350 C   0  0  0  0  0  3  0  0  0  0  0  0
  160.2210  210.6910  156.7470 F   0  0  0  0  0  0  0  0  0  0  0  0
  160.1880  209.3850  157.1940 C   0  0  0  0  0  2  0  0  0  0  0  0
  1  5  1  0  0  0  0
  1  6  2  0  0  0  0
  2 12  1  0  0  0  0
  2 13  1  0  0  0  0
  3 16  1  6  0  0  0
  3 14  1  0  0  0  0
  4 15  1  0  0  0  0
  5  9  1  0  0  0  0
  6  8  1  0  0  0  0
  7  4  2  0  0  0  0
  7 11  1  0  0  0  0
  8  4  1  0  0  0  0
  9  7  1  0  0  0  0
 10 11  1  0  0  0  0
 10  3  1  0  0  0  0
 11  2  2  0  0  0  0
 13 35  1  0  0  0  0
 14 13  1  0  0  0  0
 15 12  2  0  0  0  0
 16 19  1  0  0  0  0
 17 16  1  0  0  0  0
 18 17  2  0  0  0  0
 20 19  1  0  0  0  0
 21 17  1  0  0  0  0
 22 21  1  1  0  0  0
 23 25  1  0  0  0  0
 24 22  1  0  0  0  0
 25 27  1  6  0  0  0
 25 22  1  0  0  0  0
 26 23  1  0  0  0  0
 26 24  1  0  0  0  0
 27 29  1  0  0  0  0
 28 27  1  0  0  0  0
 29 33  1  0  0  0  0
 30 31  1  0  0  0  0
 32 30  1  0  0  0  0
 33 31  1  0  0  0  0
 34 29  1  0  0  0  0
 34 32  1  0  0  0  0
 35 40  1  0  0  0  0
 36 37  1  0  0  0  0
 37 43  1  0  0  0  0
 38 41  1  0  0  0  0
 39 36  2  0  0  0  0
 40 39  1  0  0  0  0
 40 38  2  0  0  0  0
 41 37  2  0  0  0  0
 42 43  1  0  0  0  0
M  END
>  <MODEL>
6

>  <REMARK>
 VINA RESULT:      -7.6      1.573      2.288
  Name = 
  9 active torsions:
  status: ('A' for Active; 'I' for Inactive)
    1  A    between atoms: C_1  and  N_34
    2  A    between atoms: C_1  and  C_35
    3  A    between atoms: C_2  and  N_6
    4  A    between atoms: C_3  and  C_4
    5  A    between atoms: C_3  and  C_12
    6  A    between atoms: N_6  and  C_13
    7  A    between atoms: C_11  and  N_14
    8  A    between atoms: N_14  and  C_22
    9  A    between atoms: C_19  and  C_37
                            x       y       z     vdW  Elec       q    Type
                         _______ _______ _______ _____ _____    ______ ____

>  <TORSDO>
F 9

$$$$
=
 OpenBabel11062410283D

 43 48  0  0  1  0  0  0  0  0999 V2000
  162.0610  212.8860  146.7300 C   0  0  0  0  0  3  0  0  0  0  0  0
  160.3310  212.7020  151.9290 C   0  0  0  0  0  0  0  0  0  0  0  0
  160.5130  209.9280  152.5340 C   0  0  2  0  0  3  0  0  0  0  0  0
  160.4850  213.6590  149.3070 C   0  0  0  0  0  0  0  0  0  0  0  0
  161.2330  211.6890  147.0660 C   0  0  0  0  0  2  0  0  0  0  0  0
  161.6930  214.0930  147.1580 C   0  0  0  0  0  3  0  0  0  0  0  0
  160.8390  212.3010  149.5680 C   0  0  0  0  0  0  0  0  0  0  0  0
  160.4270  214.2690  147.9360 C   0  0  0  0  0  2  0  0  0  0  0  0
  161.4140  211.3420  148.5370 C   0  0  0  0  0  2  0  0  0  0  0  0
  161.1640  210.4210  151.2420 C   0  0  0  0  0  2  0  0  0  0  0  0
  160.7490  211.8340  150.8990 C   0  0  0  0  0  0  0  0  0  0  0  0
  159.9880  214.0140  151.6090 C   0  0  0  0  0  3  0  0  0  0  0  0
  160.2180  212.2240  153.2850 N   0  0  0  0  0  0  0  0  0  0  0  0
  160.7790  210.9270  153.6510 C   0  0  0  0  0  2  0  0  0  0  0  0
  160.0670  214.4510  150.3300 N   0  0  0  0  0  0  0  0  0  0  0  0
  161.0010  208.5980  152.8870 N   0  0  0  0  0  0  0  0  0  0  0  0
  161.0370  207.5750  151.8770 C   0  0  0  0  0  0  0  0  0  0  0  0
  160.4630  207.7590  150.7700 O   0  0  0  0  0  0  0  0  0  0  0  0
  161.5590  208.3600  154.2170 C   0  0  0  0  0  2  0  0  0  0  0  0
  160.5240  207.7010  155.1120 C   0  0  0  0  0  1  0  0  0  0  0  0
  161.7880  206.2990  152.0930 C   0  0  0  0  0  2  0  0  0  0  0  0
  160.9540  205.1090  151.6430 C   0  0  2  0  0  3  0  0  0  0  0  0
  161.5910  202.9090  150.7680 C   0  0  0  0  0  2  0  0  0  0  0  0
  160.8530  204.0770  152.7470 C   0  0  0  0  0  2  0  0  0  0  0  0
  161.6290  204.4000  150.4710 C   0  0  1  0  0  3  0  0  0  0  0  0
  160.7830  202.7440  152.0390 C   0  0  0  0  0  2  0  0  0  0  0  0
  160.9940  204.6850  149.1730 N   0  0  0  0  0  0  0  0  0  0  0  0
  161.4030  205.9120  148.7530 O   0  0  0  0  0  1  0  0  0  0  0  0
  161.4240  203.6870  148.1860 C   0  0  0  0  0  3  0  0  0  0  0  0
  160.9910  202.0260  145.7950 C   0  0  0  0  0  2  0  0  0  0  0  0
  160.9520  201.4280  147.1980 C   0  0  0  0  0  2  0  0  0  0  0  0
  161.9110  203.2420  145.7650 C   0  0  0  0  0  2  0  0  0  0  0  0
  160.4840  202.4750  148.2040 C   0  0  0  0  0  2  0  0  0  0  0  0
  161.4370  204.2840  146.7740 C   0  0  0  0  0  2  0  0  0  0  0  0
  159.3840  212.9130  154.2620 C   0  0  0  0  0  2  0  0  0  0  0  0
  155.8540  211.5420  154.3990 C   0  0  0  0  0  3  0  0  0  0  0  0
  155.9860  210.5350  155.3600 C   0  0  0  0  0  0  0  0  0  0  0  0
  158.3360  211.0710  155.5980 C   0  0  0  0  0  3  0  0  0  0  0  0
  156.9650  212.3090  154.0310 C   0  0  0  0  0  3  0  0  0  0  0  0
  158.2090  212.0680  154.6240 C   0  0  0  0  0  0  0  0  0  0  0  0
  157.2260  210.3060  155.9660 C   0  0  0  0  0  3  0  0  0  0  0  0
  154.3000  210.2280  156.9630 F   0  0  0  0  0  0  0  0  0  0  0  0
  154.8000  209.7380  155.7710 C   0  0  0  0  0  2  0  0  0  0  0  0
  1  5  1  0  0  0  0
  1  6  2  0  0  0  0
  2 13  1  0  0  0  0
  3 16  1  1  0  0  0
  3 14  1  0  0  0  0
  4  7  2  0  0  0  0
  4 15  1  0  0  0  0
  5  9  1  0  0  0  0
  6  8  1  0  0  0  0
  7 11  1  0  0  0  0
  8  4  1  0  0  0  0
  9  7  1  0  0  0  0
 10  3  1  0  0  0  0
 11 10  1  0  0  0  0
 11  2  2  0  0  0  0
 12  2  1  0  0  0  0
 13 14  1  0  0  0  0
 13 35  1  0  0  0  0
 15 12  2  0  0  0  0
 16 19  1  0  0  0  0
 17 21  1  0  0  0  0
 17 16  1  0  0  0  0
 18 17  2  0  0  0  0
 19 20  1  0  0  0  0
 22 21  1  1  0  0  0
 22 24  1  0  0  0  0
 23 26  1  0  0  0  0
 25 27  1  6  0  0  0
 25 23  1  0  0  0  0
 25 22  1  0  0  0  0
 26 24  1  0  0  0  0
 28 27  1  0  0  0  0
 29 33  1  0  0  0  0
 29 27  1  0  0  0  0
 30 31  1  0  0  0  0
 31 33  1  0  0  0  0
 32 30  1  0  0  0  0
 32 34  1  0  0  0  0
 34 29  1  0  0  0  0
 35 40  1  0  0  0  0
 36 37  1  0  0  0  0
 37 43  1  0  0  0  0
 37 41  2  0  0  0  0
 38 41  1  0  0  0  0
 39 36  2  0  0  0  0
 39 40  1  0  0  0  0
 40 38  2  0  0  0  0
 43 42  1  0  0  0  0
M  END
>  <MODEL>
7

>  <REMARK>
 VINA RESULT:      -7.1      2.673      8.071
  Name = 
  9 active torsions:
  status: ('A' for Active; 'I' for Inactive)
    1  A    between atoms: C_1  and  N_34
    2  A    between atoms: C_1  and  C_35
    3  A    between atoms: C_2  and  N_6
    4  A    between atoms: C_3  and  C_4
    5  A    between atoms: C_3  and  C_12
    6  A    between atoms: N_6  and  C_13
    7  A    between atoms: C_11  and  N_14
    8  A    between atoms: N_14  and  C_22
    9  A    between atoms: C_19  and  C_37
                            x       y       z     vdW  Elec       q    Type
                         _______ _______ _______ _____ _____    ______ ____

>  <TORSDO>
F 9

$$$$
=
 OpenBabel11062410283D

 43 48  0  0  1  0  0  0  0  0999 V2000
  159.8610  212.9450  156.2300 C   0  0  0  0  0  3  0  0  0  0  0  0
  160.8860  208.0810  153.9190 C   0  0  0  0  0  0  0  0  0  0  0  0
  161.2410  208.7700  151.1820 C   0  0  2  0  0  3  0  0  0  0  0  0
  159.7740  209.8640  155.7620 C   0  0  0  0  0  0  0  0  0  0  0  0
  159.2600  212.7650  154.8750 C   0  0  0  0  0  2  0  0  0  0  0  0
  159.7930  211.9630  157.1270 C   0  0  0  0  0  3  0  0  0  0  0  0
  160.1610  210.3510  154.4790 C   0  0  0  0  0  0  0  0  0  0  0  0
  159.0760  210.6890  156.8050 C   0  0  0  0  0  2  0  0  0  0  0  0
  160.1250  211.8140  154.0590 C   0  0  0  0  0  2  0  0  0  0  0  0
  161.1950  209.9050  152.2040 C   0  0  0  0  0  2  0  0  0  0  0  0
  160.7170  209.4340  153.5580 C   0  0  0  0  0  0  0  0  0  0  0  0
  160.4780  207.6630  155.1840 C   0  0  0  0  0  3  0  0  0  0  0  0
  161.4340  207.1370  152.9760 N   0  0  0  0  0  0  0  0  0  0  0  0
  162.0550  207.6130  151.7440 C   0  0  0  0  0  2  0  0  0  0  0  0
  159.9380  208.5470  156.0570 N   0  0  0  0  0  0  0  0  0  0  0  0
  161.7920  209.2350  149.9120 N   0  0  0  0  0  0  0  0  0  0  0  0
  161.7400  210.6380  149.5990 C   0  0  0  0  0  0  0  0  0  0  0  0
  161.0460  211.4190  150.3060 O   0  0  0  0  0  0  0  0  0  0  0  0
  162.4940  208.2960  149.0390 C   0  0  0  0  0  2  0  0  0  0  0  0
  161.5620  207.7870  147.9550 C   0  0  0  0  0  1  0  0  0  0  0  0
  162.5360  211.2090  148.4680 C   0  0  0  0  0  2  0  0  0  0  0  0
  162.1810  212.6730  148.2560 C   0  0  2  0  0  3  0  0  0  0  0  0
  160.2620  213.7440  147.1690 C   0  0  0  0  0  2  0  0  0  0  0  0
  161.2020  213.1460  149.3100 C   0  0  0  0  0  2  0  0  0  0  0  0
  161.4710  212.8580  146.9150 C   0  0  1  0  0  3  0  0  0  0  0  0
  160.3410  214.1780  148.6190 C   0  0  0  0  0  2  0  0  0  0  0  0
  162.3330  213.4450  145.8750 N   0  0  0  0  0  0  0  0  0  0  0  0
  163.5010  212.7500  145.8400 O   0  0  0  0  0  1  0  0  0  0  0  0
  161.6770  213.3240  144.5680 C   0  0  0  0  0  3  0  0  0  0  0  0
  160.9130  211.8090  142.1620 C   0  0  0  0  0  2  0  0  0  0  0  0
  162.0200  212.8590  142.1250 C   0  0  0  0  0  2  0  0  0  0  0  0
  159.8940  212.1550  143.2440 C   0  0  0  0  0  2  0  0  0  0  0  0
  162.7010  212.9550  143.4870 C   0  0  0  0  0  2  0  0  0  0  0  0
  160.5830  212.2500  144.6030 C   0  0  0  0  0  2  0  0  0  0  0  0
  161.2080  205.7040  153.1240 C   0  0  0  0  0  2  0  0  0  0  0  0
  160.5760  205.0880  149.4400 C   0  0  0  0  0  3  0  0  0  0  0  0
  161.0550  203.7830  149.2920 C   0  0  0  0  0  0  0  0  0  0  0  0
  161.6440  203.7330  151.6410 C   0  0  0  0  0  3  0  0  0  0  0  0
  160.6380  205.7190  150.6860 C   0  0  0  0  0  3  0  0  0  0  0  0
  161.1810  205.0460  151.7860 C   0  0  0  0  0  0  0  0  0  0  0  0
  161.5810  203.1020  150.3950 C   0  0  0  0  0  3  0  0  0  0  0  0
  161.1990  204.0120  146.9610 F   0  0  0  0  0  0  0  0  0  0  0  0
  160.9640  203.1010  147.9730 C   0  0  0  0  0  2  0  0  0  0  0  0
  1  6  2  0  0  0  0
  2 12  1  0  0  0  0
  3 16  1  6  0  0  0
  3 14  1  0  0  0  0
  3 10  1  0  0  0  0
  4 15  1  0  0  0  0
  4  8  1  0  0  0  0
  5  1  1  0  0  0  0
  7  4  2  0  0  0  0
  8  6  1  0  0  0  0
  9  7  1  0  0  0  0
  9  5  1  0  0  0  0
 10 11  1  0  0  0  0
 11  2  2  0  0  0  0
 11  7  1  0  0  0  0
 12 15  2  0  0  0  0
 13 35  1  0  0  0  0
 13  2  1  0  0  0  0
 14 13  1  0  0  0  0
 17 16  1  0  0  0  0
 17 18  2  0  0  0  0
 19 16  1  0  0  0  0
 20 19  1  0  0  0  0
 21 17  1  0  0  0  0
 22 21  1  1  0  0  0
 22 24  1  0  0  0  0
 23 26  1  0  0  0  0
 25 27  1  6  0  0  0
 25 23  1  0  0  0  0
 25 22  1  0  0  0  0
 26 24  1  0  0  0  0
 28 27  1  0  0  0  0
 29 34  1  0  0  0  0
 29 27  1  0  0  0  0
 30 32  1  0  0  0  0
 31 30  1  0  0  0  0
 31 33  1  0  0  0  0
 32 34  1  0  0  0  0
 33 29  1  0  0  0  0
 36 39  1  0  0  0  0
 37 36  2  0  0  0  0
 37 41  1  0  0  0  0
 38 40  1  0  0  0  0
 39 40  2  0  0  0  0
 40 35  1  0  0  0  0
 41 38  2  0  0  0  0
 42 43  1  0  0  0  0
 43 37  1  0  0  0  0
M  END
>  <MODEL>
8

>  <REMARK>
 VINA RESULT:      -7.1      2.640      6.409
  Name = 
  9 active torsions:
  status: ('A' for Active; 'I' for Inactive)
    1  A    between atoms: C_1  and  N_34
    2  A    between atoms: C_1  and  C_35
    3  A    between atoms: C_2  and  N_6
    4  A    between atoms: C_3  and  C_4
    5  A    between atoms: C_3  and  C_12
    6  A    between atoms: N_6  and  C_13
    7  A    between atoms: C_11  and  N_14
    8  A    between atoms: N_14  and  C_22
    9  A    between atoms: C_19  and  C_37
                            x       y       z     vdW  Elec       q    Type
                         _______ _______ _______ _____ _____    ______ ____

>  <TORSDO>
F 9

$$$$
=
 OpenBabel11062410283D

 43 48  0  0  1  0  0  0  0  0999 V2000
  160.5120  202.1990  147.3100 C   0  0  0  0  0  3  0  0  0  0  0  0
  160.9670  204.8770  152.0720 C   0  0  0  0  0  0  0  0  0  0  0  0
  161.6910  207.4960  151.2310 C   0  0  2  0  0  3  0  0  0  0  0  0
  161.0670  202.6860  150.3390 C   0  0  0  0  0  0  0  0  0  0  0  0
  161.6250  203.1940  147.3570 C   0  0  0  0  0  2  0  0  0  0  0  0
  160.3010  201.3840  148.3420 C   0  0  0  0  0  3  0  0  0  0  0  0
  161.1900  204.0000  149.7970 C   0  0  0  0  0  0  0  0  0  0  0  0
  161.2020  201.4240  149.5360 C   0  0  0  0  0  2  0  0  0  0  0  0
  161.2580  204.3220  148.3120 C   0  0  0  0  0  2  0  0  0  0  0  0
  161.2130  206.5110  150.1650 C   0  0  0  0  0  2  0  0  0  0  0  0
  161.1430  205.0940  150.6900 C   0  0  0  0  0  0  0  0  0  0  0  0
  160.8640  203.5690  152.5420 C   0  0  0  0  0  3  0  0  0  0  0  0
  160.9400  205.9900  152.9890 N   0  0  0  0  0  0  0  0  0  0  0  0
  160.8300  207.3530  152.4780 C   0  0  0  0  0  2  0  0  0  0  0  0
  160.9200  202.5240  151.6810 N   0  0  0  0  0  0  0  0  0  0  0  0
  161.6630  208.8650  150.7240 N   0  0  0  0  0  0  0  0  0  0  0  0
  161.0910  209.9020  151.5410 C   0  0  0  0  0  0  0  0  0  0  0  0
  160.4370  209.6030  152.5770 O   0  0  0  0  0  0  0  0  0  0  0  0
  162.3220  209.1830  149.4590 C   0  0  0  0  0  2  0  0  0  0  0  0
  161.6020  208.5080  148.3060 C   0  0  0  0  0  1  0  0  0  0  0  0
  161.2930  211.3470  151.2120 C   0  0  0  0  0  2  0  0  0  0  0  0
  160.4120  212.2200  152.0920 C   0  0  2  0  0  3  0  0  0  0  0  0
  157.9750  212.4130  152.2810 C   0  0  0  0  0  2  0  0  0  0  0  0
  159.9360  211.4500  153.3060 C   0  0  0  0  0  2  0  0  0  0  0  0
  159.1490  212.6320  151.3390 C   0  0  1  0  0  3  0  0  0  0  0  0
  158.5650  212.0030  153.6160 C   0  0  0  0  0  2  0  0  0  0  0  0
  159.1790  214.0260  150.8670 N   0  0  0  0  0  0  0  0  0  0  0  0
  160.4700  214.4530  150.8660 O   0  0  0  0  0  1  0  0  0  0  0  0
  158.6650  214.0910  149.4940 C   0  0  0  0  0  3  0  0  0  0  0  0
  157.6480  212.8500  147.0260 C   0  0  0  0  0  2  0  0  0  0  0  0
  159.0640  213.4150  147.1090 C   0  0  0  0  0  2  0  0  0  0  0  0
  156.7250  213.5990  147.9810 C   0  0  0  0  0  2  0  0  0  0  0  0
  159.5850  213.3200  148.5400 C   0  0  0  0  0  2  0  0  0  0  0  0
  157.2530  213.5000  149.4090 C   0  0  0  0  0  2  0  0  0  0  0  0
  161.2170  205.8060  154.4080 C   0  0  0  0  0  2  0  0  0  0  0  0
  159.2170  208.5280  156.1250 C   0  0  0  0  0  3  0  0  0  0  0  0
  160.2300  209.4120  156.5130 C   0  0  0  0  0  0  0  0  0  0  0  0
  161.8880  207.9400  155.5370 C   0  0  0  0  0  3  0  0  0  0  0  0
  159.5400  207.3460  155.4510 C   0  0  0  0  0  3  0  0  0  0  0  0
  160.8770  207.0460  155.1640 C   0  0  0  0  0  0  0  0  0  0  0  0
  161.5640  209.1210  156.2100 C   0  0  0  0  0  3  0  0  0  0  0  0
  158.6540  211.1320  156.7650 F   0  0  0  0  0  0  0  0  0  0  0  0
  159.8840  210.6820  157.2050 C   0  0  0  0  0  2  0  0  0  0  0  0
  1  5  1  0  0  0  0
  1  6  2  0  0  0  0
  2 12  1  0  0  0  0
  2 13  1  0  0  0  0
  3 16  1  6  0  0  0
  3 14  1  0  0  0  0
  4 15  1  0  0  0  0
  5  9  1  0  0  0  0
  6  8  1  0  0  0  0
  7  4  2  0  0  0  0
  7 11  1  0  0  0  0
  8  4  1  0  0  0  0
  9  7  1  0  0  0  0
 10 11  1  0  0  0  0
 10  3  1  0  0  0  0
 11  2  2  0  0  0  0
 13 35  1  0  0  0  0
 14 13  1  0  0  0  0
 15 12  2  0  0  0  0
 16 17  1  0  0  0  0
 17 18  2  0  0  0  0
 19 16  1  0  0  0  0
 20 19  1  0  0  0  0
 21 17  1  0  0  0  0
 22 21  1  6  0  0  0
 22 24  1  0  0  0  0
 23 26  1  0  0  0  0
 24 26  1  0  0  0  0
 25 27  1  1  0  0  0
 25 22  1  0  0  0  0
 25 23  1  0  0  0  0
 28 27  1  0  0  0  0
 29 27  1  0  0  0  0
 30 31  1  0  0  0  0
 30 32  1  0  0  0  0
 31 33  1  0  0  0  0
 32 34  1  0  0  0  0
 33 29  1  0  0  0  0
 34 29  1  0  0  0  0
 35 40  1  0  0  0  0
 36 37  1  0  0  0  0
 37 43  1  0  0  0  0
 38 41  1  0  0  0  0
 39 36  2  0  0  0  0
 40 39  1  0  0  0  0
 40 38  2  0  0  0  0
 41 37  2  0  0  0  0
 42 43  1  0  0  0  0
M  END
>  <MODEL>
9

>  <REMARK>
 VINA RESULT:      -6.6      2.405      3.515
  Name = 
  9 active torsions:
  status: ('A' for Active; 'I' for Inactive)
    1  A    between atoms: C_1  and  N_34
    2  A    between atoms: C_1  and  C_35
    3  A    between atoms: C_2  and  N_6
    4  A    between atoms: C_3  and  C_4
    5  A    between atoms: C_3  and  C_12
    6  A    between atoms: N_6  and  C_13
    7  A    between atoms: C_11  and  N_14
    8  A    between atoms: N_14  and  C_22
    9  A    between atoms: C_19  and  C_37
                            x       y       z     vdW  Elec       q    Type
                         _______ _______ _______ _____ _____    ______ ____

>  <TORSDO>
F 9

$$$$
