=
 OpenBabel11062410523D

 32 38  0  0  1  0  0  0  0  0999 V2000
  160.5540  201.3770  149.7380 C   0  0  1  0  0  3  0  0  0  0  0  0
  161.1980  206.5180  150.5020 C   0  0  0  0  0  0  0  0  0  0  0  0
  161.1740  207.1030  155.4340 C   0  0  0  0  0  2  0  0  0  0  0  0
  160.5760  208.4820  155.2250 C   0  0  0  0  0  2  0  0  0  0  0  0
  161.3850  208.6090  149.0250 C   0  0  0  0  0  0  0  0  0  0  0  0
  161.6760  209.9180  148.9570 C   0  0  0  0  0  0  0  0  0  0  0  0
  161.4820  204.1710  149.5800 C   0  0  1  0  0  3  0  0  0  0  0  0
  160.9850  204.4610  151.9960 C   0  0  0  0  0  2  0  0  0  0  0  0
  161.7050  212.7520  148.9140 C   0  0  0  0  0  3  0  0  0  0  0  0
  160.8170  202.1990  150.9980 C   0  0  0  0  0  2  0  0  0  0  0  0
  160.7410  206.1920  154.2930 C   0  0  0  0  0  2  0  0  0  0  0  0
  161.0270  205.9600  151.7950 C   0  0  0  0  0  0  0  0  0  0  0  0
  161.0000  206.7940  152.9290 C   0  0  0  0  0  0  0  0  0  0  0  0
  161.3110  208.7400  151.5040 C   0  0  0  0  0  0  0  0  0  0  0  0
  161.7030  211.9770  147.6550 C   0  0  0  0  0  3  0  0  0  0  0  0
  159.2160  201.4670  149.3860 F   0  0  0  0  0  0  0  0  0  0  0  0
  160.6090  203.6910  150.7390 C   0  0  2  0  0  3  0  0  0  0  0  0
  161.6750  210.6420  147.6710 C   0  0  0  0  0  3  0  0  0  0  0  0
  161.2140  203.3460  148.3240 C   0  0  0  0  0  2  0  0  0  0  0  0
  161.4550  201.8610  148.6000 C   0  0  2  0  0  3  0  0  0  0  0  0
  161.1840  209.1060  153.9760 C   0  0  0  0  0  2  0  0  0  0  0  0
  161.1200  208.1910  152.7770 C   0  0  0  0  0  0  0  0  0  0  0  0
  161.4890  210.1220  151.3660 O   0  0  0  0  0  0  0  0  0  0  0  0
  161.1530  205.6250  149.2850 C   0  0  0  0  0  2  0  0  0  0  0  0
  161.0940  207.9220  147.8480 O   0  0  0  0  0  1  0  0  0  0  0  0
  161.8410  212.1470  150.0990 C   0  0  0  0  0  3  0  0  0  0  0  0
  161.3140  207.9230  150.3550 C   0  0  0  0  0  0  0  0  0  0  0  0
  162.0960  210.6670  150.1990 C   0  0  2  0  0  3  0  0  0  0  0  0
  161.2190  201.0340  147.3460 C   0  0  0  0  0  2  0  0  0  0  0  0
  160.1570  201.6790  146.4740 C   0  0  0  0  0  3  0  0  0  0  0  0
  160.1370  200.9890  145.1250 C   0  0  0  0  0  2  0  0  0  0  0  0
  160.8280  202.3270  145.2810 C   0  0  0  0  0  2  0  0  0  0  0  0
  1 16  1  6  0  0  0
  1 10  1  0  0  0  0
  2 12  1  0  0  0  0
  4  3  1  0  0  0  0
  5 27  1  0  0  0  0
  6  5  2  0  0  0  0
  6 28  1  0  0  0  0
  7 19  1  6  0  0  0
  7 17  1  0  0  0  0
  9 26  2  0  0  0  0
 11  3  1  0  0  0  0
 12  8  1  0  0  0  0
 12 13  2  0  0  0  0
 13 11  1  0  0  0  0
 14 22  2  0  0  0  0
 15 18  2  0  0  0  0
 15  9  1  0  0  0  0
 17 10  1  1  0  0  0
 17  8  1  0  0  0  0
 18  6  1  0  0  0  0
 19 20  1  0  0  0  0
 20 29  1  6  0  0  0
 20  1  1  0  0  0  0
 21  4  1  0  0  0  0
 22 13  1  0  0  0  0
 22 21  1  0  0  0  0
 23 14  1  0  0  0  0
 24  7  1  0  0  0  0
 24  2  1  0  0  0  0
 25  5  1  0  0  0  0
 27  2  2  0  0  0  0
 27 14  1  0  0  0  0
 28 26  1  6  0  0  0
 28 23  1  0  0  0  0
 30 29  1  0  0  0  0
 31 32  1  0  0  0  0
 31 30  1  0  0  0  0
 32 30  1  0  0  0  0
M  END
>  <MODEL>
1

>  <REMARK>
 VINA RESULT:      -9.9      0.000      0.000
  Name = 
  2 active torsions:
  status: ('A' for Active; 'I' for Inactive)
    1  A    between atoms: C_1  and  C_10
    2  A    between atoms: C_10  and  C_24
                            x       y       z     vdW  Elec       q    Type
                         _______ _______ _______ _____ _____    ______ ____

>  <TORSDO>
F 2

$$$$
=
 OpenBabel11062410523D

 32 38  0  0  1  0  0  0  0  0999 V2000
  162.2730  213.2660  148.3550 C   0  0  1  0  0  3  0  0  0  0  0  0
  161.4380  208.3580  149.9810 C   0  0  0  0  0  0  0  0  0  0  0  0
  160.6650  208.7330  154.8730 C   0  0  0  0  0  2  0  0  0  0  0  0
  161.2670  207.3490  155.0310 C   0  0  0  0  0  2  0  0  0  0  0  0
  161.4580  206.0200  148.9230 C   0  0  0  0  0  0  0  0  0  0  0  0
  161.1620  204.7170  149.0620 C   0  0  0  0  0  0  0  0  0  0  0  0
  161.3400  210.4800  148.5920 C   0  0  1  0  0  3  0  0  0  0  0  0
  161.4410  210.6680  151.0660 C   0  0  0  0  0  2  0  0  0  0  0  0
  161.0970  201.9280  149.5600 C   0  0  0  0  0  3  0  0  0  0  0  0
  161.8000  212.6980  149.6910 C   0  0  0  0  0  2  0  0  0  0  0  0
  161.2880  209.4140  153.6620 C   0  0  0  0  0  2  0  0  0  0  0  0
  161.4080  209.1580  151.1530 C   0  0  0  0  0  0  0  0  0  0  0  0
  161.2420  208.5570  152.4160 C   0  0  0  0  0  0  0  0  0  0  0  0
  161.1320  206.3690  151.3600 C   0  0  0  0  0  0  0  0  0  0  0  0
  161.3110  202.4460  148.1940 C   0  0  0  0  0  3  0  0  0  0  0  0
  163.6490  213.1320  148.2450 F   0  0  0  0  0  0  0  0  0  0  0  0
  162.0240  211.1870  149.7610 C   0  0  2  0  0  3  0  0  0  0  0  0
  161.3560  203.7600  147.9560 C   0  0  0  0  0  3  0  0  0  0  0  0
  161.8170  211.0520  147.2600 C   0  0  0  0  0  2  0  0  0  0  0  0
  161.5580  212.5580  147.2030 C   0  0  2  0  0  3  0  0  0  0  0  0
  160.8570  206.4870  153.8450 C   0  0  0  0  0  2  0  0  0  0  0  0
  161.1260  207.1550  152.5180 C   0  0  0  0  0  0  0  0  0  0  0  0
  160.9580  204.9840  151.4640 O   0  0  0  0  0  0  0  0  0  0  0  0
  161.6900  209.0010  148.6380 C   0  0  0  0  0  2  0  0  0  0  0  0
  161.9430  206.4720  147.6980 O   0  0  0  0  0  1  0  0  0  0  0  0
  160.7830  202.7480  150.5710 C   0  0  0  0  0  3  0  0  0  0  0  0
  161.3250  206.9500  150.0900 C   0  0  0  0  0  0  0  0  0  0  0  0
  160.5370  204.2140  150.3420 C   0  0  2  0  0  3  0  0  0  0  0  0
  162.0040  213.1320  145.8670 C   0  0  0  0  0  2  0  0  0  0  0  0
  160.9270  212.9370  144.8170 C   0  0  0  0  0  3  0  0  0  0  0  0
  161.5830  212.6440  143.4820 C   0  0  0  0  0  2  0  0  0  0  0  0
  161.0510  214.0300  143.7760 C   0  0  0  0  0  2  0  0  0  0  0  0
  1 16  1  6  0  0  0
  1 10  1  0  0  0  0
  2 27  2  0  0  0  0
  2 12  1  0  0  0  0
  3  4  1  0  0  0  0
  5  6  2  0  0  0  0
  5 27  1  0  0  0  0
  6 28  1  0  0  0  0
  7 19  1  6  0  0  0
  7 24  1  0  0  0  0
  7 17  1  0  0  0  0
  8 12  1  0  0  0  0
  9 26  2  0  0  0  0
 11  3  1  0  0  0  0
 12 13  2  0  0  0  0
 13 22  1  0  0  0  0
 13 11  1  0  0  0  0
 14 23  1  0  0  0  0
 14 22  2  0  0  0  0
 15  9  1  0  0  0  0
 17 10  1  6  0  0  0
 17  8  1  0  0  0  0
 18 15  2  0  0  0  0
 18  6  1  0  0  0  0
 20 29  1  6  0  0  0
 20 19  1  0  0  0  0
 20  1  1  0  0  0  0
 21  4  1  0  0  0  0
 22 21  1  0  0  0  0
 24  2  1  0  0  0  0
 25  5  1  0  0  0  0
 27 14  1  0  0  0  0
 28 26  1  1  0  0  0
 28 23  1  0  0  0  0
 30 29  1  0  0  0  0
 31 32  1  0  0  0  0
 31 30  1  0  0  0  0
 32 30  1  0  0  0  0
M  END
>  <MODEL>
2

>  <REMARK>
 VINA RESULT:      -8.5      2.765      7.515
  Name = 
  2 active torsions:
  status: ('A' for Active; 'I' for Inactive)
    1  A    between atoms: C_1  and  C_10
    2  A    between atoms: C_10  and  C_24
                            x       y       z     vdW  Elec       q    Type
                         _______ _______ _______ _____ _____    ______ ____

>  <TORSDO>
F 2

$$$$
=
 OpenBabel11062410523D

 32 38  0  0  1  0  0  0  0  0999 V2000
  161.9880  203.9650  146.4690 C   0  0  1  0  0  3  0  0  0  0  0  0
  161.3520  207.3090  150.4490 C   0  0  0  0  0  0  0  0  0  0  0  0
  161.5590  211.8240  148.3870 C   0  0  0  0  0  2  0  0  0  0  0  0
  162.1420  212.3440  149.6880 C   0  0  0  0  0  2  0  0  0  0  0  0
  161.1000  207.1410  152.9980 C   0  0  0  0  0  0  0  0  0  0  0  0
  160.8010  207.7720  154.1450 C   0  0  0  0  0  0  0  0  0  0  0  0
  161.0430  205.3110  148.9150 C   0  0  1  0  0  3  0  0  0  0  0  0
  161.6300  207.5090  147.9200 C   0  0  0  0  0  2  0  0  0  0  0  0
  160.7570  209.2080  156.5870 C   0  0  0  0  0  3  0  0  0  0  0  0
  161.7690  205.4760  146.5100 C   0  0  0  0  0  2  0  0  0  0  0  0
  161.9520  210.3620  148.2120 C   0  0  0  0  0  2  0  0  0  0  0  0
  161.5730  208.1180  149.3040 C   0  0  0  0  0  0  0  0  0  0  0  0
  161.6400  209.5190  149.4290 C   0  0  0  0  0  0  0  0  0  0  0  0
  161.2660  209.3230  151.8230 C   0  0  0  0  0  0  0  0  0  0  0  0
  160.7150  207.7320  156.5790 C   0  0  0  0  0  3  0  0  0  0  0  0
  163.3120  203.6710  146.7590 F   0  0  0  0  0  0  0  0  0  0  0  0
  161.9620  206.0250  147.9240 C   0  0  2  0  0  3  0  0  0  0  0  0
  160.7500  207.0500  155.4310 C   0  0  0  0  0  3  0  0  0  0  0  0
  161.2670  203.8020  148.8690 C   0  0  0  0  0  2  0  0  0  0  0  0
  161.0430  203.2730  147.4520 C   0  0  2  0  0  3  0  0  0  0  0  0
  161.4840  211.6200  150.8560 C   0  0  0  0  0  2  0  0  0  0  0  0
  161.5080  210.1190  150.6990 C   0  0  0  0  0  0  0  0  0  0  0  0
  161.0780  209.9290  153.0720 O   0  0  0  0  0  0  0  0  0  0  0  0
  161.3550  205.8050  150.3190 C   0  0  0  0  0  2  0  0  0  0  0  0
  161.3490  205.7700  153.0280 O   0  0  0  0  0  1  0  0  0  0  0  0
  160.6700  209.9100  155.4510 C   0  0  0  0  0  3  0  0  0  0  0  0
  161.2240  207.9170  151.7220 C   0  0  0  0  0  0  0  0  0  0  0  0
  160.4250  209.2340  154.1300 C   0  0  2  0  0  3  0  0  0  0  0  0
  161.2360  201.7650  147.4020 C   0  0  0  0  0  2  0  0  0  0  0  0
  160.1050  201.1090  146.6310 C   0  0  0  0  0  3  0  0  0  0  0  0
  160.6910  200.1890  145.5790 C   0  0  0  0  0  2  0  0  0  0  0  0
  160.1710  201.5550  145.1850 C   0  0  0  0  0  2  0  0  0  0  0  0
  1 10  1  0  0  0  0
  1 16  1  1  0  0  0
  1 20  1  0  0  0  0
  2 27  1  0  0  0  0
  3  4  1  0  0  0  0
  4 21  1  0  0  0  0
  5 25  1  0  0  0  0
  5  6  2  0  0  0  0
  6 18  1  0  0  0  0
  7 19  1  1  0  0  0
  7 24  1  0  0  0  0
  8 17  1  0  0  0  0
  8 12  1  0  0  0  0
 11  3  1  0  0  0  0
 11 13  1  0  0  0  0
 12 13  1  0  0  0  0
 12  2  2  0  0  0  0
 13 22  2  0  0  0  0
 14 23  1  0  0  0  0
 15  9  1  0  0  0  0
 17 10  1  6  0  0  0
 17  7  1  0  0  0  0
 18 15  2  0  0  0  0
 20 29  1  1  0  0  0
 20 19  1  0  0  0  0
 22 21  1  0  0  0  0
 22 14  1  0  0  0  0
 23 28  1  0  0  0  0
 24  2  1  0  0  0  0
 26  9  2  0  0  0  0
 27 14  2  0  0  0  0
 27  5  1  0  0  0  0
 28  6  1  0  0  0  0
 28 26  1  1  0  0  0
 30 29  1  0  0  0  0
 31 30  1  0  0  0  0
 32 31  1  0  0  0  0
 32 30  1  0  0  0  0
M  END
>  <MODEL>
3

>  <REMARK>
 VINA RESULT:      -8.0      1.800      4.845
  Name = 
  2 active torsions:
  status: ('A' for Active; 'I' for Inactive)
    1  A    between atoms: C_1  and  C_10
    2  A    between atoms: C_10  and  C_24
                            x       y       z     vdW  Elec       q    Type
                         _______ _______ _______ _____ _____    ______ ____

>  <TORSDO>
F 2

$$$$
=
 OpenBabel11062410523D

 32 38  0  0  1  0  0  0  0  0999 V2000
  161.1910  209.1760  154.5530 C   0  0  1  0  0  3  0  0  0  0  0  0
  161.0220  206.1360  150.2920 C   0  0  0  0  0  0  0  0  0  0  0  0
  160.7420  201.4920  152.0310 C   0  0  0  0  0  2  0  0  0  0  0  0
  161.4920  201.0290  150.7950 C   0  0  0  0  0  2  0  0  0  0  0  0
  161.1600  206.4830  147.7530 C   0  0  0  0  0  0  0  0  0  0  0  0
  161.0100  205.9440  146.5320 C   0  0  0  0  0  0  0  0  0  0  0  0
  160.5680  208.0430  151.9040 C   0  0  1  0  0  3  0  0  0  0  0  0
  160.9130  205.7570  152.8130 C   0  0  0  0  0  2  0  0  0  0  0  0
  161.2740  204.6750  144.0120 C   0  0  0  0  0  3  0  0  0  0  0  0
  160.9210  207.6840  154.3710 C   0  0  0  0  0  2  0  0  0  0  0  0
  161.1620  202.9170  152.3660 C   0  0  0  0  0  2  0  0  0  0  0  0
  161.0390  205.2440  151.3960 C   0  0  0  0  0  0  0  0  0  0  0  0
  161.0680  203.8520  151.1810 C   0  0  0  0  0  0  0  0  0  0  0  0
  161.0630  204.2230  148.7780 C   0  0  0  0  0  0  0  0  0  0  0  0
  161.2900  206.1480  144.1200 C   0  0  0  0  0  3  0  0  0  0  0  0
  162.5530  209.4230  154.4800 F   0  0  0  0  0  0  0  0  0  0  0  0
  161.3000  207.2210  152.9650 C   0  0  2  0  0  3  0  0  0  0  0  0
  161.1800  206.7510  145.3070 C   0  0  0  0  0  3  0  0  0  0  0  0
  160.8410  209.5330  152.0910 C   0  0  0  0  0  2  0  0  0  0  0  0
  160.4300  209.9780  153.4950 C   0  0  2  0  0  3  0  0  0  0  0  0
  161.0440  201.8600  149.5990 C   0  0  0  0  0  2  0  0  0  0  0  0
  161.1030  203.3440  149.8660 C   0  0  0  0  0  0  0  0  0  0  0  0
  161.0390  203.7100  147.4750 O   0  0  0  0  0  0  0  0  0  0  0  0
  161.0650  207.6270  150.5290 C   0  0  0  0  0  2  0  0  0  0  0  0
  161.4650  207.8390  147.8570 O   0  0  0  0  0  1  0  0  0  0  0  0
  160.9910  203.9050  145.0690 C   0  0  0  0  0  3  0  0  0  0  0  0
  161.0620  205.6200  148.9730 C   0  0  0  0  0  0  0  0  0  0  0  0
  160.5790  204.5040  146.3860 C   0  0  2  0  0  3  0  0  0  0  0  0
  160.6720  211.4680  153.6810 C   0  0  0  0  0  2  0  0  0  0  0  0
  159.6380  212.2750  152.9180 C   0  0  0  0  0  3  0  0  0  0  0  0
  158.9100  213.1880  153.8850 C   0  0  0  0  0  2  0  0  0  0  0  0
  158.2580  211.9040  153.4190 C   0  0  0  0  0  2  0  0  0  0  0  0
  1 16  1  6  0  0  0
  2 24  1  0  0  0  0
  2 12  1  0  0  0  0
  3 11  1  0  0  0  0
  4  3  1  0  0  0  0
  5 25  1  0  0  0  0
  5 27  1  0  0  0  0
  6  5  2  0  0  0  0
  7 24  1  6  0  0  0
  7 19  1  0  0  0  0
  7 17  1  0  0  0  0
  9 15  1  0  0  0  0
  9 26  2  0  0  0  0
 10  1  1  0  0  0  0
 12  8  1  0  0  0  0
 13 12  2  0  0  0  0
 13 11  1  0  0  0  0
 14 27  1  0  0  0  0
 14 22  2  0  0  0  0
 15 18  2  0  0  0  0
 17  8  1  1  0  0  0
 17 10  1  0  0  0  0
 18  6  1  0  0  0  0
 19 20  1  0  0  0  0
 20 29  1  6  0  0  0
 20  1  1  0  0  0  0
 21 22  1  0  0  0  0
 21  4  1  0  0  0  0
 22 13  1  0  0  0  0
 23 14  1  0  0  0  0
 27  2  2  0  0  0  0
 28 26  1  6  0  0  0
 28  6  1  0  0  0  0
 28 23  1  0  0  0  0
 30 32  1  0  0  0  0
 30 29  1  0  0  0  0
 30 31  1  0  0  0  0
 32 31  1  0  0  0  0
M  END
>  <MODEL>
4

>  <REMARK>
 VINA RESULT:      -7.2      2.812      7.475
  Name = 
  2 active torsions:
  status: ('A' for Active; 'I' for Inactive)
    1  A    between atoms: C_1  and  C_10
    2  A    between atoms: C_10  and  C_24
                            x       y       z     vdW  Elec       q    Type
                         _______ _______ _______ _____ _____    ______ ____

>  <TORSDO>
F 2

$$$$
