=
 OpenBabel11052423053D

 28 30  0  0  1  0  0  0  0  0999 V2000
  160.1800  206.9410  156.7250 C   0  0  0  0  0  1  0  0  0  0  0  0
  160.6900  208.4440  153.2760 N   0  0  0  0  0  0  0  0  0  0  0  0
  161.6010  206.2910  154.1320 C   0  0  0  0  0  1  0  0  0  0  0  0
  159.7060  209.2180  155.8540 C   0  0  2  0  0  3  0  0  0  0  0  0
  159.8540  209.6320  153.4100 C   0  0  0  0  0  2  0  0  0  0  0  0
  159.8130  209.7650  157.1380 O   0  0  0  0  0  1  0  0  0  0  0  0
  160.6280  207.9950  155.7250 C   0  0  1  0  0  0  0  0  0  0  0  0
  161.9430  208.3690  156.0200 O   0  0  0  0  0  1  0  0  0  0  0  0
  160.5550  207.3960  154.3030 C   0  0  1  0  0  3  0  0  0  0  0  0
  160.0270  210.2740  154.7840 C   0  0  1  0  0  3  0  0  0  0  0  0
  159.1490  211.5330  154.9560 C   0  0  2  0  0  3  0  0  0  0  0  0
  158.1770  211.7880  153.7670 C   0  0  2  0  0  3  0  0  0  0  0  0
  158.2920  214.3890  153.8320 C   0  0  0  0  0  2  0  0  0  0  0  0
  158.0010  214.1050  155.1750 O   0  0  0  0  0  0  0  0  0  0  0  0
  159.2310  213.9390  155.8370 C   0  0  0  0  0  2  0  0  0  0  0  0
  159.5960  213.0840  152.1280 C   0  0  0  0  0  1  0  0  0  0  0  0
  160.0330  212.7340  155.3180 C   0  0  0  0  0  2  0  0  0  0  0  0
  158.3440  213.1070  152.9830 C   0  0  1  0  0  3  0  0  0  0  0  0
  156.8540  211.6600  154.2020 O   0  0  0  0  0  0  0  0  0  0  0  0
  156.9330  210.9900  155.4210 C   0  0  0  0  0  1  0  0  0  0  0  0
  160.6400  207.0410  151.2960 N   0  0  0  0  0  0  0  0  0  0  0  0
  162.0390  208.9810  151.2810 C   0  0  0  0  0  0  0  0  0  0  0  0
  161.8910  207.5630  149.3310 C   0  0  0  0  0  0  0  0  0  0  0  0
  161.1310  208.1380  151.9430 C   0  0  0  0  0  0  0  0  0  0  0  0
  162.4150  208.6870  149.9690 C   0  0  0  0  0  3  0  0  0  0  0  0
  162.5740  210.0940  151.9180 O   0  0  0  0  0  1  0  0  0  0  0  0
  162.2560  207.2650  148.0250 O   0  0  0  0  0  1  0  0  0  0  0  0
  161.0010  206.7380  150.0190 C   0  0  0  0  0  3  0  0  0  0  0  0
  2  5  1  0  0  0  0
  2  9  1  0  0  0  0
  4  6  1  1  0  0  0
  7  4  1  0  0  0  0
  7  8  1  0  0  0  0
  7  1  1  1  0  0  0
  9  3  1  1  0  0  0
  9  7  1  0  0  0  0
 10  5  1  6  0  0  0
 10 11  1  0  0  0  0
 10  4  1  0  0  0  0
 11 17  1  6  0  0  0
 12 19  1  1  0  0  0
 12 11  1  0  0  0  0
 13 14  1  0  0  0  0
 14 15  1  0  0  0  0
 17 15  1  0  0  0  0
 18 16  1  1  0  0  0
 18 12  1  0  0  0  0
 18 13  1  0  0  0  0
 19 20  1  0  0  0  0
 21 24  1  0  0  0  0
 22 26  1  0  0  0  0
 22 24  2  0  0  0  0
 23 25  2  0  0  0  0
 23 28  1  0  0  0  0
 24  2  1  0  0  0  0
 25 22  1  0  0  0  0
 27 23  1  0  0  0  0
 28 21  2  0  0  0  0
M  END
>  <MODEL>
1

>  <REMARK>
 VINA RESULT:      -6.2      0.000      0.000
  Name = 
  3 active torsions:
  status: ('A' for Active; 'I' for Inactive)
    1  A    between atoms: C_1  and  C_27
    2  A    between atoms: O_2  and  C_3
    3  A    between atoms: N_10  and  C_13
                            x       y       z     vdW  Elec       q    Type
                         _______ _______ _______ _____ _____    ______ ____

>  <TORSDO>
F 3

$$$$
=
 OpenBabel11052423053D

 28 30  0  0  1  0  0  0  0  0999 V2000
  162.0820  202.6740  151.6440 C   0  0  0  0  0  1  0  0  0  0  0  0
  161.2260  206.2990  150.9130 N   0  0  0  0  0  0  0  0  0  0  0  0
  161.6370  205.2680  153.1400 C   0  0  0  0  0  1  0  0  0  0  0  0
  161.2500  203.7650  149.5750 C   0  0  2  0  0  3  0  0  0  0  0  0
  161.1920  206.2450  149.4550 C   0  0  0  0  0  2  0  0  0  0  0  0
  160.6880  202.5630  149.1300 O   0  0  0  0  0  1  0  0  0  0  0  0
  161.2340  203.8170  151.1110 C   0  0  1  0  0  0  0  0  0  0  0  0
  159.9220  203.6590  151.5680 O   0  0  0  0  0  1  0  0  0  0  0  0
  161.8160  205.1520  151.6240 C   0  0  1  0  0  3  0  0  0  0  0  0
  160.5100  204.9680  148.9680 C   0  0  1  0  0  3  0  0  0  0  0  0
  160.4650  204.8820  147.4270 C   0  0  2  0  0  3  0  0  0  0  0  0
  161.3370  203.7350  146.8360 C   0  0  2  0  0  3  0  0  0  0  0  0
  162.0720  204.9930  144.6770 C   0  0  0  0  0  2  0  0  0  0  0  0
  160.6810  205.1720  144.6250 O   0  0  0  0  0  0  0  0  0  0  0  0
  160.3910  206.3530  145.3300 C   0  0  0  0  0  2  0  0  0  0  0  0
  163.6230  204.7890  146.6410 C   0  0  0  0  0  1  0  0  0  0  0  0
  160.7460  206.2640  146.8220 C   0  0  0  0  0  2  0  0  0  0  0  0
  162.4850  204.1330  145.8850 C   0  0  1  0  0  3  0  0  0  0  0  0
  160.5160  202.7870  146.2160 O   0  0  0  0  0  0  0  0  0  0  0  0
  161.2200  201.5870  146.2940 C   0  0  0  0  0  1  0  0  0  0  0  0
  160.6240  207.8270  152.7000 N   0  0  0  0  0  0  0  0  0  0  0  0
  161.8370  208.6880  150.8290 C   0  0  0  0  0  0  0  0  0  0  0  0
  161.2480  210.1300  152.6750 C   0  0  0  0  0  0  0  0  0  0  0  0
  161.2130  207.6160  151.4880 C   0  0  0  0  0  0  0  0  0  0  0  0
  161.8520  209.9470  151.4310 C   0  0  0  0  0  3  0  0  0  0  0  0
  162.4290  208.5130  149.5830 O   0  0  0  0  0  1  0  0  0  0  0  0
  161.2610  211.3780  153.2830 O   0  0  0  0  0  1  0  0  0  0  0  0
  160.6250  209.0490  153.2980 C   0  0  0  0  0  3  0  0  0  0  0  0
  2 24  1  0  0  0  0
  2  9  1  0  0  0  0
  4  6  1  1  0  0  0
  4  7  1  0  0  0  0
  5  2  1  0  0  0  0
  7  8  1  0  0  0  0
  7  9  1  0  0  0  0
  7  1  1  1  0  0  0
  9  3  1  1  0  0  0
 10  5  1  6  0  0  0
 10  4  1  0  0  0  0
 11 17  1  6  0  0  0
 11 10  1  0  0  0  0
 12 19  1  6  0  0  0
 12 11  1  0  0  0  0
 13 18  1  0  0  0  0
 14 13  1  0  0  0  0
 14 15  1  0  0  0  0
 15 17  1  0  0  0  0
 18 16  1  1  0  0  0
 18 12  1  0  0  0  0
 19 20  1  0  0  0  0
 21 28  1  0  0  0  0
 22 25  2  0  0  0  0
 22 24  1  0  0  0  0
 23 27  1  0  0  0  0
 23 28  2  0  0  0  0
 24 21  2  0  0  0  0
 25 23  1  0  0  0  0
 26 22  1  0  0  0  0
M  END
>  <MODEL>
2

>  <REMARK>
 VINA RESULT:      -5.7      3.478      8.530
  Name = 
  3 active torsions:
  status: ('A' for Active; 'I' for Inactive)
    1  A    between atoms: C_1  and  C_27
    2  A    between atoms: O_2  and  C_3
    3  A    between atoms: N_10  and  C_13
                            x       y       z     vdW  Elec       q    Type
                         _______ _______ _______ _____ _____    ______ ____

>  <TORSDO>
F 3

$$$$
=
 OpenBabel11052423053D

 28 30  0  0  1  0  0  0  0  0999 V2000
  160.0720  207.1450  156.2090 C   0  0  0  0  0  1  0  0  0  0  0  0
  160.7550  208.3600  152.6770 N   0  0  0  0  0  0  0  0  0  0  0  0
  161.3950  206.1680  153.6670 C   0  0  0  0  0  1  0  0  0  0  0  0
  159.8800  209.4050  155.1980 C   0  0  2  0  0  3  0  0  0  0  0  0
  160.0710  209.6480  152.7340 C   0  0  0  0  0  2  0  0  0  0  0  0
  160.0550  210.0120  156.4470 O   0  0  0  0  0  1  0  0  0  0  0  0
  160.6440  208.0720  155.1490 C   0  0  1  0  0  0  0  0  0  0  0  0
  161.9950  208.3000  155.4270 O   0  0  0  0  0  1  0  0  0  0  0  0
  160.4940  207.4020  153.7650 C   0  0  1  0  0  3  0  0  0  0  0  0
  160.3250  210.3470  154.0680 C   0  0  1  0  0  3  0  0  0  0  0  0
  159.6090  211.7120  154.1580 C   0  0  2  0  0  3  0  0  0  0  0  0
  158.6970  211.8610  155.4120 C   0  0  2  0  0  3  0  0  0  0  0  0
  156.8480  213.3000  154.2730 C   0  0  0  0  0  2  0  0  0  0  0  0
  157.9980  214.0210  153.9170 O   0  0  0  0  0  0  0  0  0  0  0  0
  158.4630  213.4830  152.7030 C   0  0  0  0  0  2  0  0  0  0  0  0
  156.5120  210.8420  154.6620 C   0  0  0  0  0  1  0  0  0  0  0  0
  158.9080  212.0170  152.8280 C   0  0  0  0  0  2  0  0  0  0  0  0
  157.1910  212.0980  155.1700 C   0  0  1  0  0  3  0  0  0  0  0  0
  159.2050  212.8590  156.2500 O   0  0  0  0  0  0  0  0  0  0  0  0
  158.2550  213.0070  157.2590 C   0  0  0  0  0  1  0  0  0  0  0  0
  160.7750  206.6910  150.9160 N   0  0  0  0  0  0  0  0  0  0  0  0
  161.8950  208.7670  150.5280 C   0  0  0  0  0  0  0  0  0  0  0  0
  161.8220  207.0740  148.8060 C   0  0  0  0  0  0  0  0  0  0  0  0
  161.1510  207.9220  151.3670 C   0  0  0  0  0  0  0  0  0  0  0  0
  162.2270  208.3360  149.2420 C   0  0  0  0  0  3  0  0  0  0  0  0
  162.3120  210.0190  150.9630 O   0  0  0  0  0  1  0  0  0  0  0  0
  162.1450  206.6390  147.5280 O   0  0  0  0  0  1  0  0  0  0  0  0
  161.0950  206.2530  149.6680 C   0  0  0  0  0  3  0  0  0  0  0  0
  2  5  1  0  0  0  0
  2  9  1  0  0  0  0
  4  6  1  1  0  0  0
  7  4  1  0  0  0  0
  7  8  1  0  0  0  0
  7  1  1  1  0  0  0
  9  3  1  1  0  0  0
  9  7  1  0  0  0  0
 10  5  1  6  0  0  0
 10 11  1  0  0  0  0
 10  4  1  0  0  0  0
 11 17  1  6  0  0  0
 11 12  1  0  0  0  0
 12 19  1  6  0  0  0
 13 18  1  0  0  0  0
 14 13  1  0  0  0  0
 15 17  1  0  0  0  0
 15 14  1  0  0  0  0
 18 16  1  6  0  0  0
 18 12  1  0  0  0  0
 19 20  1  0  0  0  0
 21 24  1  0  0  0  0
 22 26  1  0  0  0  0
 22 24  2  0  0  0  0
 23 25  2  0  0  0  0
 23 28  1  0  0  0  0
 24  2  1  0  0  0  0
 25 22  1  0  0  0  0
 27 23  1  0  0  0  0
 28 21  2  0  0  0  0
M  END
>  <MODEL>
3

>  <REMARK>
 VINA RESULT:      -5.5      1.042      1.738
  Name = 
  3 active torsions:
  status: ('A' for Active; 'I' for Inactive)
    1  A    between atoms: C_1  and  C_27
    2  A    between atoms: O_2  and  C_3
    3  A    between atoms: N_10  and  C_13
                            x       y       z     vdW  Elec       q    Type
                         _______ _______ _______ _____ _____    ______ ____

>  <TORSDO>
F 3

$$$$
=
 OpenBabel11052423053D

 28 30  0  0  1  0  0  0  0  0999 V2000
  160.8310  204.8520  153.8670 C   0  0  0  0  0  1  0  0  0  0  0  0
  161.1830  206.7420  150.5930 N   0  0  0  0  0  0  0  0  0  0  0  0
  161.3410  204.2820  150.9370 C   0  0  0  0  0  1  0  0  0  0  0  0
  161.1110  207.2760  153.4080 C   0  0  2  0  0  3  0  0  0  0  0  0
  160.9160  208.0950  151.0710 C   0  0  0  0  0  2  0  0  0  0  0  0
  161.6740  207.4830  154.6720 O   0  0  0  0  0  1  0  0  0  0  0  0
  161.4420  205.8610  152.9080 C   0  0  1  0  0  0  0  0  0  0  0  0
  162.8290  205.6870  152.8900 O   0  0  0  0  0  1  0  0  0  0  0  0
  160.8610  205.6240  151.4970 C   0  0  1  0  0  3  0  0  0  0  0  0
  161.5940  208.3460  152.4160 C   0  0  1  0  0  3  0  0  0  0  0  0
  161.3240  209.7700  152.9490 C   0  0  2  0  0  3  0  0  0  0  0  0
  161.4650  209.9000  154.4940 C   0  0  2  0  0  3  0  0  0  0  0  0
  159.5670  211.6520  154.8270 C   0  0  0  0  0  2  0  0  0  0  0  0
  160.3140  212.2650  153.8100 O   0  0  0  0  0  0  0  0  0  0  0  0
  159.8030  211.8010  152.5850 C   0  0  0  0  0  2  0  0  0  0  0  0
  159.1840  209.2240  155.3410 C   0  0  0  0  0  1  0  0  0  0  0  0
  159.9910  210.2880  152.3910 C   0  0  0  0  0  2  0  0  0  0  0  0
  160.2140  210.3340  155.2870 C   0  0  1  0  0  3  0  0  0  0  0  0
  162.5370  210.7420  154.8030 O   0  0  0  0  0  0  0  0  0  0  0  0
  162.7460  210.5820  156.1720 C   0  0  0  0  0  1  0  0  0  0  0  0
  160.0810  206.1250  148.5210 N   0  0  0  0  0  0  0  0  0  0  0  0
  162.3370  206.9100  148.4190 C   0  0  0  0  0  0  0  0  0  0  0  0
  161.1510  206.3270  146.3970 C   0  0  0  0  0  0  0  0  0  0  0  0
  161.1950  206.5760  149.1660 C   0  0  0  0  0  0  0  0  0  0  0  0
  162.3080  206.7850  147.0290 C   0  0  0  0  0  3  0  0  0  0  0  0
  163.4960  207.3530  149.0460 O   0  0  0  0  0  1  0  0  0  0  0  0
  161.1120  206.2030  145.0150 O   0  0  0  0  0  1  0  0  0  0  0  0
  160.0380  205.9920  147.1670 C   0  0  0  0  0  3  0  0  0  0  0  0
  2  5  1  0  0  0  0
  2  9  1  0  0  0  0
  4  6  1  1  0  0  0
  7  4  1  0  0  0  0
  7  1  1  1  0  0  0
  8  7  1  0  0  0  0
  9  3  1  6  0  0  0
  9  7  1  0  0  0  0
 10  5  1  6  0  0  0
 10 11  1  0  0  0  0
 10  4  1  0  0  0  0
 11 17  1  1  0  0  0
 11 12  1  0  0  0  0
 12 19  1  6  0  0  0
 12 18  1  0  0  0  0
 13 18  1  0  0  0  0
 14 13  1  0  0  0  0
 15 14  1  0  0  0  0
 17 15  1  0  0  0  0
 18 16  1  6  0  0  0
 19 20  1  0  0  0  0
 21 24  1  0  0  0  0
 22 26  1  0  0  0  0
 22 24  2  0  0  0  0
 23 25  2  0  0  0  0
 23 28  1  0  0  0  0
 24  2  1  0  0  0  0
 25 22  1  0  0  0  0
 27 23  1  0  0  0  0
 28 21  2  0  0  0  0
M  END
>  <MODEL>
4

>  <REMARK>
 VINA RESULT:      -4.1      2.128      3.810
  Name = 
  3 active torsions:
  status: ('A' for Active; 'I' for Inactive)
    1  A    between atoms: C_1  and  C_27
    2  A    between atoms: O_2  and  C_3
    3  A    between atoms: N_10  and  C_13
                            x       y       z     vdW  Elec       q    Type
                         _______ _______ _______ _____ _____    ______ ____

>  <TORSDO>
F 3

$$$$
=
 OpenBabel11052423053D

 28 30  0  0  1  0  0  0  0  0999 V2000
  163.0930  210.2870  150.5430 C   0  0  0  0  0  1  0  0  0  0  0  0
  161.4480  206.9940  151.4750 N   0  0  0  0  0  0  0  0  0  0  0  0
  162.5740  207.5620  149.3290 C   0  0  0  0  0  1  0  0  0  0  0  0
  161.5940  209.6920  152.4320 C   0  0  2  0  0  3  0  0  0  0  0  0
  161.0670  207.3010  152.8490 C   0  0  0  0  0  2  0  0  0  0  0  0
  161.1640  211.0180  152.5490 O   0  0  0  0  0  1  0  0  0  0  0  0
  161.9490  209.3810  150.9690 C   0  0  1  0  0  0  0  0  0  0  0  0
  160.8410  209.6380  150.1560 O   0  0  0  0  0  1  0  0  0  0  0  0
  162.3910  207.9100  150.8090 C   0  0  1  0  0  3  0  0  0  0  0  0
  160.5250  208.7240  152.9650 C   0  0  1  0  0  3  0  0  0  0  0  0
  160.1170  209.0790  154.4110 C   0  0  2  0  0  3  0  0  0  0  0  0
  160.3290  210.5780  154.7740 C   0  0  2  0  0  3  0  0  0  0  0  0
  161.0050  210.1960  157.2600 C   0  0  0  0  0  2  0  0  0  0  0  0
  159.8160  209.4550  157.1950 O   0  0  0  0  0  0  0  0  0  0  0  0
  160.1640  208.1510  156.8000 C   0  0  0  0  0  2  0  0  0  0  0  0
  162.7440  210.6590  155.5080 C   0  0  0  0  0  1  0  0  0  0  0  0
  160.7710  208.0940  155.3890 C   0  0  0  0  0  2  0  0  0  0  0  0
  161.3060  210.8990  155.9250 C   0  0  1  0  0  3  0  0  0  0  0  0
  159.0930  211.1850  155.0200 O   0  0  0  0  0  0  0  0  0  0  0  0
  159.3530  212.5540  155.0260 C   0  0  0  0  0  1  0  0  0  0  0  0
  161.8870  204.6420  151.8810 N   0  0  0  0  0  0  0  0  0  0  0  0
  160.6510  205.2470  149.9260 C   0  0  0  0  0  0  0  0  0  0  0  0
  161.0830  202.9250  150.4320 C   0  0  0  0  0  0  0  0  0  0  0  0
  161.3430  205.6130  151.0920 C   0  0  0  0  0  0  0  0  0  0  0  0
  160.5230  203.8960  149.6000 C   0  0  0  0  0  3  0  0  0  0  0  0
  160.1040  206.2120  149.0880 O   0  0  0  0  0  1  0  0  0  0  0  0
  160.9570  201.5780  150.1180 O   0  0  0  0  0  1  0  0  0  0  0  0
  161.7750  203.3210  151.5760 C   0  0  0  0  0  3  0  0  0  0  0  0
  2  5  1  0  0  0  0
  4  6  1  6  0  0  0
  4 10  1  0  0  0  0
  7  1  1  6  0  0  0
  7  4  1  0  0  0  0
  8  7  1  0  0  0  0
  9  3  1  6  0  0  0
  9  7  1  0  0  0  0
  9  2  1  0  0  0  0
 10  5  1  1  0  0  0
 10 11  1  0  0  0  0
 11 12  1  0  0  0  0
 11 17  1  1  0  0  0
 12 19  1  1  0  0  0
 12 18  1  0  0  0  0
 14 13  1  0  0  0  0
 15 14  1  0  0  0  0
 17 15  1  0  0  0  0
 18 16  1  6  0  0  0
 18 13  1  0  0  0  0
 19 20  1  0  0  0  0
 22 24  1  0  0  0  0
 23 28  2  0  0  0  0
 24  2  1  0  0  0  0
 24 21  2  0  0  0  0
 25 22  2  0  0  0  0
 25 23  1  0  0  0  0
 26 22  1  0  0  0  0
 27 23  1  0  0  0  0
 28 21  1  0  0  0  0
M  END
>  <MODEL>
5

>  <REMARK>
 VINA RESULT:      -3.8      2.253      4.583
  Name = 
  3 active torsions:
  status: ('A' for Active; 'I' for Inactive)
    1  A    between atoms: C_1  and  C_27
    2  A    between atoms: O_2  and  C_3
    3  A    between atoms: N_10  and  C_13
                            x       y       z     vdW  Elec       q    Type
                         _______ _______ _______ _____ _____    ______ ____

>  <TORSDO>
F 3

$$$$
=
 OpenBabel11052423053D

 28 30  0  0  1  0  0  0  0  0999 V2000
  161.7200  202.3410  151.9520 C   0  0  0  0  0  1  0  0  0  0  0  0
  161.4420  205.9130  150.6970 N   0  0  0  0  0  0  0  0  0  0  0  0
  161.1310  205.1070  153.0310 C   0  0  0  0  0  1  0  0  0  0  0  0
  161.5900  203.2520  149.6450 C   0  0  2  0  0  3  0  0  0  0  0  0
  161.8030  205.7020  149.2990 C   0  0  0  0  0  2  0  0  0  0  0  0
  161.0600  202.0490  149.1660 O   0  0  0  0  0  1  0  0  0  0  0  0
  161.1610  203.4730  151.1040 C   0  0  1  0  0  0  0  0  0  0  0  0
  159.7650  203.4540  151.1870 O   0  0  0  0  0  1  0  0  0  0  0  0
  161.7050  204.8140  151.6420 C   0  0  1  0  0  3  0  0  0  0  0  0
  161.1620  204.4280  148.7530 C   0  0  1  0  0  3  0  0  0  0  0  0
  161.5300  204.1760  147.2750 C   0  0  2  0  0  3  0  0  0  0  0  0
  161.8670  205.4720  146.4810 C   0  0  2  0  0  3  0  0  0  0  0  0
  160.8580  204.7080  144.2050 C   0  0  0  0  0  2  0  0  0  0  0  0
  161.6780  203.6110  144.5100 O   0  0  0  0  0  0  0  0  0  0  0  0
  160.9030  202.7130  145.2650 C   0  0  0  0  0  2  0  0  0  0  0  0
  159.6040  206.2820  145.7080 C   0  0  0  0  0  1  0  0  0  0  0  0
  160.4590  203.2940  146.6180 C   0  0  0  0  0  2  0  0  0  0  0  0
  160.9770  205.8140  145.2680 C   0  0  1  0  0  3  0  0  0  0  0  0
  163.2110  205.4530  146.0920 O   0  0  0  0  0  0  0  0  0  0  0  0
  163.7530  204.3260  146.7070 C   0  0  0  0  0  1  0  0  0  0  0  0
  160.8290  207.6040  152.3270 N   0  0  0  0  0  0  0  0  0  0  0  0
  161.9700  208.2970  150.3440 C   0  0  0  0  0  0  0  0  0  0  0  0
  161.3730  209.9100  152.0410 C   0  0  0  0  0  0  0  0  0  0  0  0
  161.3980  207.2830  151.1290 C   0  0  0  0  0  0  0  0  0  0  0  0
  161.9560  209.6140  150.8080 C   0  0  0  0  0  3  0  0  0  0  0  0
  162.5390  208.0090  149.1090 O   0  0  0  0  0  1  0  0  0  0  0  0
  161.3580  211.2160  152.5120 O   0  0  0  0  0  1  0  0  0  0  0  0
  160.8020  208.8830  152.7920 C   0  0  0  0  0  3  0  0  0  0  0  0
  2 24  1  0  0  0  0
  2  9  1  0  0  0  0
  4  6  1  6  0  0  0
  4  7  1  0  0  0  0
  5  2  1  0  0  0  0
  7  8  1  0  0  0  0
  7  9  1  0  0  0  0
  7  1  1  1  0  0  0
  9  3  1  1  0  0  0
 10  5  1  1  0  0  0
 10  4  1  0  0  0  0
 11 17  1  6  0  0  0
 11 10  1  0  0  0  0
 12 19  1  6  0  0  0
 12 11  1  0  0  0  0
 13 14  1  0  0  0  0
 13 18  1  0  0  0  0
 14 15  1  0  0  0  0
 15 17  1  0  0  0  0
 18 16  1  1  0  0  0
 18 12  1  0  0  0  0
 19 20  1  0  0  0  0
 21 28  1  0  0  0  0
 22 25  2  0  0  0  0
 22 24  1  0  0  0  0
 23 27  1  0  0  0  0
 23 28  2  0  0  0  0
 24 21  2  0  0  0  0
 25 23  1  0  0  0  0
 26 22  1  0  0  0  0
M  END
>  <MODEL>
6

>  <REMARK>
 VINA RESULT:      -3.8      3.580      8.748
  Name = 
  3 active torsions:
  status: ('A' for Active; 'I' for Inactive)
    1  A    between atoms: C_1  and  C_27
    2  A    between atoms: O_2  and  C_3
    3  A    between atoms: N_10  and  C_13
                            x       y       z     vdW  Elec       q    Type
                         _______ _______ _______ _____ _____    ______ ____

>  <TORSDO>
F 3

$$$$
=
 OpenBabel11052423053D

 28 30  0  0  1  0  0  0  0  0999 V2000
  161.2060  201.1680  150.2430 C   0  0  0  0  0  1  0  0  0  0  0  0
  161.1630  204.8870  151.0080 N   0  0  0  0  0  0  0  0  0  0  0  0
  160.5580  203.0250  152.5450 C   0  0  0  0  0  1  0  0  0  0  0  0
  161.3720  203.1420  148.7440 C   0  0  2  0  0  3  0  0  0  0  0  0
  161.6820  205.3950  149.7430 C   0  0  0  0  0  2  0  0  0  0  0  0
  160.8750  202.4030  147.6650 O   0  0  0  0  0  1  0  0  0  0  0  0
  160.7780  202.6160  150.0610 C   0  0  1  0  0  0  0  0  0  0  0  0
  159.3830  202.6710  149.9970 O   0  0  0  0  0  1  0  0  0  0  0  0
  161.2860  203.4410  151.2640 C   0  0  1  0  0  3  0  0  0  0  0  0
  161.0810  204.6390  148.5590 C   0  0  1  0  0  3  0  0  0  0  0  0
  161.6160  205.1530  147.2050 C   0  0  2  0  0  3  0  0  0  0  0  0
  160.4980  205.5780  146.2080 C   0  0  2  0  0  3  0  0  0  0  0  0
  161.7120  204.7970  144.0390 C   0  0  0  0  0  2  0  0  0  0  0  0
  162.7160  205.5750  144.6370 O   0  0  0  0  0  0  0  0  0  0  0  0
  163.4560  204.7200  145.4730 C   0  0  0  0  0  2  0  0  0  0  0  0
  159.8870  203.4100  145.0660 C   0  0  0  0  0  1  0  0  0  0  0  0
  162.6240  204.1480  146.6320 C   0  0  0  0  0  2  0  0  0  0  0  0
  160.4150  204.8180  144.8680 C   0  0  1  0  0  3  0  0  0  0  0  0
  160.5770  206.9540  145.9670 O   0  0  0  0  0  0  0  0  0  0  0  0
  161.2060  207.4860  147.0910 C   0  0  0  0  0  1  0  0  0  0  0  0
  161.2080  205.4160  153.3760 N   0  0  0  0  0  0  0  0  0  0  0  0
  160.9640  207.2100  151.8140 C   0  0  0  0  0  0  0  0  0  0  0  0
  161.0730  207.6580  154.1850 C   0  0  0  0  0  0  0  0  0  0  0  0
  161.1000  205.8380  152.0830 C   0  0  0  0  0  0  0  0  0  0  0  0
  160.9530  208.1180  152.8740 C   0  0  0  0  0  3  0  0  0  0  0  0
  160.8310  207.6720  150.5100 O   0  0  0  0  0  1  0  0  0  0  0  0
  161.0660  208.5540  155.2450 O   0  0  0  0  0  1  0  0  0  0  0  0
  161.1940  206.2880  154.4210 C   0  0  0  0  0  3  0  0  0  0  0  0
  2  9  1  0  0  0  0
  2 24  1  0  0  0  0
  4  6  1  6  0  0  0
  4  7  1  0  0  0  0
  5  2  1  0  0  0  0
  7  1  1  1  0  0  0
  7  9  1  0  0  0  0
  8  7  1  0  0  0  0
  9  3  1  1  0  0  0
 10  4  1  0  0  0  0
 10  5  1  1  0  0  0
 11 17  1  6  0  0  0
 11 10  1  0  0  0  0
 12 19  1  6  0  0  0
 12 11  1  0  0  0  0
 13 14  1  0  0  0  0
 13 18  1  0  0  0  0
 14 15  1  0  0  0  0
 15 17  1  0  0  0  0
 18 16  1  1  0  0  0
 18 12  1  0  0  0  0
 19 20  1  0  0  0  0
 21 28  1  0  0  0  0
 22 24  1  0  0  0  0
 22 25  2  0  0  0  0
 23 28  2  0  0  0  0
 23 27  1  0  0  0  0
 24 21  2  0  0  0  0
 25 23  1  0  0  0  0
 26 22  1  0  0  0  0
M  END
>  <MODEL>
7

>  <REMARK>
 VINA RESULT:      -3.5      3.824      8.896
  Name = 
  3 active torsions:
  status: ('A' for Active; 'I' for Inactive)
    1  A    between atoms: C_1  and  C_27
    2  A    between atoms: O_2  and  C_3
    3  A    between atoms: N_10  and  C_13
                            x       y       z     vdW  Elec       q    Type
                         _______ _______ _______ _____ _____    ______ ____

>  <TORSDO>
F 3

$$$$
=
 OpenBabel11052423053D

 28 30  0  0  1  0  0  0  0  0999 V2000
  163.1000  210.6000  148.6660 C   0  0  0  0  0  1  0  0  0  0  0  0
  161.5840  207.7190  150.6200 N   0  0  0  0  0  0  0  0  0  0  0  0
  162.5200  207.6490  148.3140 C   0  0  0  0  0  1  0  0  0  0  0  0
  161.7710  210.5750  150.7640 C   0  0  2  0  0  3  0  0  0  0  0  0
  161.3140  208.4030  151.8790 C   0  0  0  0  0  2  0  0  0  0  0  0
  161.3340  211.8850  150.5400 O   0  0  0  0  0  1  0  0  0  0  0  0
  162.0070  209.8610  149.4230 C   0  0  1  0  0  0  0  0  0  0  0  0
  160.8320  209.8910  148.6670 O   0  0  0  0  0  1  0  0  0  0  0  0
  162.4550  208.4000  149.6470 C   0  0  1  0  0  3  0  0  0  0  0  0
  160.7640  209.8070  151.6350 C   0  0  1  0  0  3  0  0  0  0  0  0
  160.4720  210.5580  152.9520 C   0  0  2  0  0  3  0  0  0  0  0  0
  161.2280  209.9800  154.1850 C   0  0  2  0  0  3  0  0  0  0  0  0
  159.3480  210.4280  155.9320 C   0  0  0  0  0  2  0  0  0  0  0  0
  159.4560  211.6930  155.3320 O   0  0  0  0  0  0  0  0  0  0  0  0
  158.5740  211.7060  154.2370 C   0  0  0  0  0  2  0  0  0  0  0  0
  159.7040  208.1310  154.9820 C   0  0  0  0  0  1  0  0  0  0  0  0
  158.9560  210.6920  153.1470 C   0  0  0  0  0  2  0  0  0  0  0  0
  160.3740  209.4390  155.3520 C   0  0  1  0  0  3  0  0  0  0  0  0
  162.1410  210.9240  154.6650 O   0  0  0  0  0  0  0  0  0  0  0  0
  162.7100  210.3400  155.7960 C   0  0  0  0  0  1  0  0  0  0  0  0
  162.0750  205.5730  151.6410 N   0  0  0  0  0  0  0  0  0  0  0  0
  160.6980  205.6130  149.6870 C   0  0  0  0  0  0  0  0  0  0  0  0
  161.1890  203.5240  150.7960 C   0  0  0  0  0  0  0  0  0  0  0  0
  161.4670  206.2860  150.6510 C   0  0  0  0  0  0  0  0  0  0  0  0
  160.5610  204.2260  149.7660 C   0  0  0  0  0  3  0  0  0  0  0  0
  160.0820  206.3070  148.6520 O   0  0  0  0  0  1  0  0  0  0  0  0
  161.0550  202.1450  150.8850 O   0  0  0  0  0  1  0  0  0  0  0  0
  161.9560  204.2200  151.7300 C   0  0  0  0  0  3  0  0  0  0  0  0
  2 24  1  0  0  0  0
  2  5  1  0  0  0  0
  4  6  1  6  0  0  0
  4 10  1  0  0  0  0
  7  1  1  6  0  0  0
  7  9  1  0  0  0  0
  7  4  1  0  0  0  0
  8  7  1  0  0  0  0
  9  3  1  6  0  0  0
  9  2  1  0  0  0  0
 10  5  1  1  0  0  0
 10 11  1  0  0  0  0
 11 17  1  1  0  0  0
 11 12  1  0  0  0  0
 12 19  1  1  0  0  0
 12 18  1  0  0  0  0
 14 13  1  0  0  0  0
 15 14  1  0  0  0  0
 17 15  1  0  0  0  0
 18 16  1  6  0  0  0
 18 13  1  0  0  0  0
 19 20  1  0  0  0  0
 21 28  1  0  0  0  0
 22 25  2  0  0  0  0
 22 24  1  0  0  0  0
 23 27  1  0  0  0  0
 23 28  2  0  0  0  0
 24 21  2  0  0  0  0
 25 23  1  0  0  0  0
 26 22  1  0  0  0  0
M  END
>  <MODEL>
8

>  <REMARK>
 VINA RESULT:      -3.5      2.251      4.963
  Name = 
  3 active torsions:
  status: ('A' for Active; 'I' for Inactive)
    1  A    between atoms: C_1  and  C_27
    2  A    between atoms: O_2  and  C_3
    3  A    between atoms: N_10  and  C_13
                            x       y       z     vdW  Elec       q    Type
                         _______ _______ _______ _____ _____    ______ ____

>  <TORSDO>
F 3

$$$$
