=
 OpenBabel11062409003D

 55 58  0  0  1  0  0  0  0  0999 V2000
  162.8210  206.0900  152.3060 C   0  0  0  0  0  2  0  0  0  0  0  0
  160.8880  203.8740  150.2540 C   0  0  2  0  0  3  0  0  0  0  0  0
  161.9450  206.8140  147.5900 O   0  0  0  0  0  1  0  0  0  0  0  0
  159.3660  205.8220  149.7360 C   0  0  0  0  0  1  0  0  0  0  0  0
  162.1040  207.3400  148.8730 C   0  0  2  0  0  0  0  0  0  0  0  0
  161.8890  206.2380  149.9280 C   0  0  2  0  0  3  0  0  0  0  0  0
  161.8400  208.2710  151.5450 C   0  0  1  0  0  3  0  0  0  0  0  0
  159.8150  203.1620  152.2810 O   0  0  0  0  0  1  0  0  0  0  0  0
  160.7640  205.2390  149.5630 C   0  0  1  0  0  3  0  0  0  0  0  0
  161.1020  208.4800  149.0620 C   0  0  0  0  0  2  0  0  0  0  0  0
  163.0470  204.6030  152.0130 C   0  0  0  0  0  2  0  0  0  0  0  0
  163.5230  207.8740  148.9760 C   0  0  0  0  0  1  0  0  0  0  0  0
  161.7730  206.7430  151.3930 C   0  0  2  0  0  3  0  0  0  0  0  0
  160.8130  204.0020  151.7920 C   0  0  1  0  0  3  0  0  0  0  0  0
  161.0040  209.0340  150.4970 C   0  0  2  0  0  3  0  0  0  0  0  0
  162.0200  203.7580  152.4870 O   0  0  0  0  0  0  0  0  0  0  0  0
  160.3940  207.8260  153.5870 C   0  0  0  0  0  1  0  0  0  0  0  0
  161.4740  208.7050  152.9700 C   0  0  0  0  0  2  0  0  0  0  0  0
  161.3100  210.5340  150.5540 C   0  0  1  0  0  3  0  0  0  0  0  0
  159.0570  211.5760  151.9760 O   0  0  0  0  0  0  0  0  0  0  0  0
  161.3330  211.0310  151.9250 N   0  0  0  0  0  2  0  0  0  0  0  0
  160.1720  211.5660  152.5660 C   0  0  0  0  0  0  0  0  0  0  0  0
  160.2830  212.1090  153.9500 C   0  0  0  0  0  2  0  0  0  0  0  0
  159.3550  211.4210  154.8340 N   0  0  0  0  0  0  0  0  0  0  0  0
  160.1570  210.8400  155.8990 C   0  0  0  0  0  1  0  0  0  0  0  0
  158.5200  212.4450  155.4470 C   0  0  0  0  0  2  0  0  0  0  0  0
  156.4510  211.0580  155.4050 C   0  0  0  0  0  1  0  0  0  0  0  0
  157.0970  212.3420  154.9250 C   0  0  0  0  0  2  0  0  0  0  0  0
  162.6170  210.8680  149.8490 C   0  0  0  0  0  2  0  0  0  0  0  0
  160.9650  211.9220  148.1870 C   0  0  0  0  0  3  0  0  0  0  0  0
  161.8460  212.9430  146.2040 N   0  0  0  0  0  0  0  0  0  0  0  0
  163.3750  212.2890  148.0150 C   0  0  0  0  0  3  0  0  0  0  0  0
  163.1580  213.1820  146.8210 C   0  0  0  0  0  2  0  0  0  0  0  0
  160.7430  212.4810  146.9960 C   0  0  0  0  0  3  0  0  0  0  0  0
  162.3470  211.7580  148.6820 C   0  0  0  0  0  0  0  0  0  0  0  0
  161.5890  213.3610  144.8300 C   0  0  2  0  0  3  0  0  0  0  0  0
  160.4170  212.6790  144.3070 N   0  0  0  0  0  1  0  0  0  0  0  0
  162.7910  213.0780  143.9480 C   0  0  0  0  0  1  0  0  0  0  0  0
  162.0480  203.2200  149.8260 O   0  0  0  0  0  0  0  0  0  0  0  0
  161.8790  201.8770  150.1810 C   0  0  0  0  0  2  0  0  0  0  0  0
  161.2870  201.1790  149.1150 O   0  0  0  0  0  0  0  0  0  0  0  0
  160.4210  202.0290  148.3740 C   0  0  2  0  0  3  0  0  0  0  0  0
  159.0720  201.6740  148.3960 F   0  0  0  0  0  0  0  0  0  0  0  0
  160.9000  202.2130  146.9320 C   0  0  1  0  0  3  0  0  0  0  0  0
  160.7280  200.9820  146.1050 C   0  0  1  0  0  3  0  0  0  0  0  0
  160.5580  199.7610  145.2870 C   0  0  1  0  0  3  0  0  0  0  0  0
  160.0510  200.9480  144.8710 C   0  0  0  0  0  2  0  0  0  0  0  0
  160.7820  198.3060  145.0770 C   0  0  0  0  0  2  0  0  0  0  0  0
  162.2700  198.0280  145.0160 C   0  0  0  0  0  1  0  0  0  0  0  0
  160.2980  203.4460  146.2680 C   0  0  0  0  0  2  0  0  0  0  0  0
  162.4840  203.6750  145.3110 O   0  0  0  0  0  1  0  0  0  0  0  0
  161.4060  204.3930  145.8390 C   0  0  1  0  0  3  0  0  0  0  0  0
  159.9640  206.1730  145.1370 O   0  0  0  0  0  1  0  0  0  0  0  0
  160.8960  205.3790  144.8410 C   0  0  0  0  0  0  0  0  0  0  0  0
  161.4730  205.4370  143.5790 O   0  0  0  0  0  0  0  0  0  0  0  0
  2 39  1  1  0  0  0
  2 14  1  0  0  0  0
  3  5  1  0  0  0  0
  5 12  1  1  0  0  0
  5 10  1  0  0  0  0
  5  6  1  0  0  0  0
  6 13  1  0  0  0  0
  7 18  1  0  0  0  0
  9  4  1  0  0  0  0
  9  6  1  0  0  0  0
  9  2  1  0  0  0  0
 10 15  1  0  0  0  0
 11  1  1  0  0  0  0
 11 16  1  0  0  0  0
 13  7  1  0  0  0  0
 13  1  1  0  0  0  0
 14  8  1  0  0  0  0
 14 16  1  0  0  0  0
 15 19  1  0  0  0  0
 15  7  1  0  0  0  0
 18 17  1  0  0  0  0
 19 21  1  0  0  0  0
 20 22  2  0  0  0  0
 21 22  1  0  0  0  0
 22 23  1  0  0  0  0
 23 24  1  0  0  0  0
 24 26  1  0  0  0  0
 24 25  1  0  0  0  0
 28 27  1  0  0  0  0
 28 26  1  0  0  0  0
 29 19  1  0  0  0  0
 30 35  1  0  0  0  0
 31 33  1  0  0  0  0
 31 34  1  0  0  0  0
 32 35  2  0  0  0  0
 33 32  1  0  0  0  0
 34 30  2  0  0  0  0
 35 29  1  0  0  0  0
 36 31  1  0  0  0  0
 37 36  1  0  0  0  0
 38 36  1  0  0  0  0
 39 40  1  0  0  0  0
 41 40  1  0  0  0  0
 42 43  1  0  0  0  0
 42 41  1  0  0  0  0
 44 42  1  0  0  0  0
 45 44  1  0  0  0  0
 46 45  1  0  0  0  0
 47 46  1  0  0  0  0
 47 45  1  0  0  0  0
 48 46  1  0  0  0  0
 49 48  1  0  0  0  0
 50 44  1  0  0  0  0
 51 52  1  0  0  0  0
 52 50  1  0  0  0  0
 54 53  1  0  0  0  0
 54 52  1  0  0  0  0
 55 54  2  0  0  0  0
M  END
>  <MODEL>
1

>  <REMARK>
 VINA RESULT:      -1.3      0.000      0.000
  Name = 
  20 active torsions:
  status: ('A' for Active; 'I' for Inactive)
    1  A    between atoms: C_1  and  O_30
    2  A    between atoms: C_1  and  C_53
    3  A    between atoms: C_6  and  C_53
    4  A    between atoms: C_7  and  O_8
    5  A    between atoms: O_8  and  C_20
    6  A    between atoms: C_10  and  N_32
    7  A    between atoms: C_11  and  C_29
    8  A    between atoms: C_11  and  C_38
    9  A    between atoms: C_12  and  C_14
   10  A    between atoms: C_19  and  C_40
   11  A    between atoms: C_20  and  O_30
   12  A    between atoms: N_27  and  C_31
   13  A    between atoms: N_27  and  C_55
   14  A    between atoms: N_28  and  C_49
   15  A    between atoms: C_31  and  C_44
   16  A    between atoms: C_33  and  C_49
   17  A    between atoms: C_33  and  C_52
   18  A    between atoms: C_38  and  C_53
   19  A    between atoms: C_41  and  C_55
   20  A    between atoms: C_45  and  C_49
                            x       y       z     vdW  Elec       q    Type
                         _______ _______ _______ _____ _____    ______ ____

>  <TORSDO>
F 20

$$$$
=
 OpenBabel11062409003D

 55 58  0  0  1  0  0  0  0  0999 V2000
  162.0190  206.3550  152.7930 C   0  0  0  0  0  2  0  0  0  0  0  0
  160.7590  204.0020  150.3980 C   0  0  2  0  0  3  0  0  0  0  0  0
  162.5150  206.8270  147.9900 O   0  0  0  0  0  1  0  0  0  0  0  0
  159.4380  205.8910  149.3670 C   0  0  0  0  0  1  0  0  0  0  0  0
  162.3000  207.4200  149.2360 C   0  0  2  0  0  0  0  0  0  0  0  0
  161.7990  206.3670  150.2440 C   0  0  2  0  0  3  0  0  0  0  0  0
  161.2830  208.4760  151.6710 C   0  0  1  0  0  3  0  0  0  0  0  0
  159.1590  203.3700  152.0730 O   0  0  0  0  0  1  0  0  0  0  0  0
  160.8300  205.3290  149.6280 C   0  0  1  0  0  3  0  0  0  0  0  0
  161.2790  208.5470  149.0720 C   0  0  0  0  0  2  0  0  0  0  0  0
  162.3270  204.8600  152.6550 C   0  0  0  0  0  2  0  0  0  0  0  0
  163.6280  207.9860  149.7080 C   0  0  0  0  0  1  0  0  0  0  0  0
  161.2700  206.9410  151.5870 C   0  0  2  0  0  3  0  0  0  0  0  0
  160.2500  204.2040  151.8430 C   0  0  1  0  0  3  0  0  0  0  0  0
  160.7750  209.1690  150.3900 C   0  0  2  0  0  3  0  0  0  0  0  0
  161.2120  204.0190  152.8630 O   0  0  0  0  0  0  0  0  0  0  0  0
  161.4180  209.0680  154.1380 C   0  0  0  0  0  1  0  0  0  0  0  0
  160.5250  208.9720  152.9080 C   0  0  0  0  0  2  0  0  0  0  0  0
  161.0440  210.6760  150.4510 C   0  0  1  0  0  3  0  0  0  0  0  0
  159.1020  212.5500  151.3980 O   0  0  0  0  0  0  0  0  0  0  0  0
  160.9580  211.1870  151.8140 N   0  0  0  0  0  2  0  0  0  0  0  0
  159.9760  212.1470  152.2130 C   0  0  0  0  0  0  0  0  0  0  0  0
  159.9840  212.6670  153.6100 C   0  0  0  0  0  2  0  0  0  0  0  0
  158.8680  212.1110  154.3570 N   0  0  0  0  0  0  0  0  0  0  0  0
  159.3970  211.7180  155.6540 C   0  0  0  0  0  1  0  0  0  0  0  0
  157.9350  213.2050  154.5980 C   0  0  0  0  0  2  0  0  0  0  0  0
  155.5210  213.5350  155.1210 C   0  0  0  0  0  1  0  0  0  0  0  0
  156.5170  212.7620  154.2800 C   0  0  0  0  0  2  0  0  0  0  0  0
  162.3910  211.0310  149.8380 C   0  0  0  0  0  2  0  0  0  0  0  0
  160.8820  211.8980  147.9480 C   0  0  0  0  0  3  0  0  0  0  0  0
  161.9100  213.0420  146.1080 N   0  0  0  0  0  0  0  0  0  0  0  0
  163.2280  212.5560  148.1240 C   0  0  0  0  0  3  0  0  0  0  0  0
  163.0790  213.4300  146.9070 C   0  0  0  0  0  2  0  0  0  0  0  0
  160.7680  212.4400  146.7340 C   0  0  0  0  0  3  0  0  0  0  0  0
  162.1870  211.8960  148.6390 C   0  0  0  0  0  0  0  0  0  0  0  0
  161.8050  213.4410  144.7080 C   0  0  2  0  0  3  0  0  0  0  0  0
  160.7100  212.7380  144.0640 N   0  0  0  0  0  1  0  0  0  0  0  0
  163.1030  213.1670  143.9720 C   0  0  0  0  0  1  0  0  0  0  0  0
  161.9970  203.3510  150.3510 O   0  0  0  0  0  0  0  0  0  0  0  0
  161.7240  202.0010  150.5990 C   0  0  0  0  0  2  0  0  0  0  0  0
  161.4780  201.3400  149.3830 O   0  0  0  0  0  0  0  0  0  0  0  0
  160.3910  201.9430  148.6930 C   0  0  2  0  0  3  0  0  0  0  0  0
  159.1220  201.5290  149.0960 F   0  0  0  0  0  0  0  0  0  0  0  0
  160.5380  201.8110  147.1740 C   0  0  1  0  0  3  0  0  0  0  0  0
  161.0790  203.0480  146.5370 C   0  0  2  0  0  3  0  0  0  0  0  0
  161.6140  204.2740  145.9040 C   0  0  1  0  0  3  0  0  0  0  0  0
  162.3270  203.6170  146.8530 C   0  0  0  0  0  2  0  0  0  0  0  0
  161.4720  205.3950  144.9380 C   0  0  0  0  0  2  0  0  0  0  0  0
  160.2750  206.2410  145.3180 C   0  0  0  0  0  1  0  0  0  0  0  0
  161.3130  200.5630  146.7680 C   0  0  0  0  0  2  0  0  0  0  0  0
  160.1710  200.5090  144.6610 O   0  0  0  0  0  1  0  0  0  0  0  0
  160.4910  199.7430  145.7860 C   0  0  1  0  0  3  0  0  0  0  0  0
  160.6460  197.5800  144.7700 O   0  0  0  0  0  0  0  0  0  0  0  0
  161.2300  198.5100  145.3860 C   0  0  0  0  0  0  0  0  0  0  0  0
  162.5830  198.3980  145.6760 O   0  0  0  0  0  1  0  0  0  0  0  0
  2 39  1  1  0  0  0
  2 14  1  0  0  0  0
  3  5  1  0  0  0  0
  4  9  1  0  0  0  0
  5 12  1  1  0  0  0
  5  6  1  0  0  0  0
  6 13  1  0  0  0  0
  7 18  1  0  0  0  0
  9  6  1  0  0  0  0
  9  2  1  0  0  0  0
 10  5  1  0  0  0  0
 10 15  1  0  0  0  0
 11  1  1  0  0  0  0
 11 16  1  0  0  0  0
 13  7  1  0  0  0  0
 13  1  1  0  0  0  0
 14  8  1  0  0  0  0
 14 16  1  0  0  0  0
 15 19  1  0  0  0  0
 15  7  1  0  0  0  0
 18 17  1  0  0  0  0
 19 21  1  0  0  0  0
 20 22  2  0  0  0  0
 21 22  1  0  0  0  0
 22 23  1  0  0  0  0
 23 24  1  0  0  0  0
 24 26  1  0  0  0  0
 24 25  1  0  0  0  0
 28 26  1  0  0  0  0
 28 27  1  0  0  0  0
 29 19  1  0  0  0  0
 30 35  1  0  0  0  0
 31 34  1  0  0  0  0
 31 33  1  0  0  0  0
 32 35  2  0  0  0  0
 33 32  1  0  0  0  0
 34 30  2  0  0  0  0
 35 29  1  0  0  0  0
 36 31  1  0  0  0  0
 37 36  1  0  0  0  0
 38 36  1  0  0  0  0
 39 40  1  0  0  0  0
 41 40  1  0  0  0  0
 42 43  1  0  0  0  0
 42 41  1  0  0  0  0
 44 42  1  0  0  0  0
 45 47  1  0  0  0  0
 45 44  1  0  0  0  0
 46 45  1  0  0  0  0
 46 47  1  0  0  0  0
 48 49  1  0  0  0  0
 48 46  1  0  0  0  0
 50 44  1  0  0  0  0
 51 52  1  0  0  0  0
 52 50  1  0  0  0  0
 53 54  2  0  0  0  0
 54 55  1  0  0  0  0
 54 52  1  0  0  0  0
M  END
>  <MODEL>
2

>  <REMARK>
 VINA RESULT:      -1.2      1.336      2.753
  Name = 
  20 active torsions:
  status: ('A' for Active; 'I' for Inactive)
    1  A    between atoms: C_1  and  O_30
    2  A    between atoms: C_1  and  C_53
    3  A    between atoms: C_6  and  C_53
    4  A    between atoms: C_7  and  O_8
    5  A    between atoms: O_8  and  C_20
    6  A    between atoms: C_10  and  N_32
    7  A    between atoms: C_11  and  C_29
    8  A    between atoms: C_11  and  C_38
    9  A    between atoms: C_12  and  C_14
   10  A    between atoms: C_19  and  C_40
   11  A    between atoms: C_20  and  O_30
   12  A    between atoms: N_27  and  C_31
   13  A    between atoms: N_27  and  C_55
   14  A    between atoms: N_28  and  C_49
   15  A    between atoms: C_31  and  C_44
   16  A    between atoms: C_33  and  C_49
   17  A    between atoms: C_33  and  C_52
   18  A    between atoms: C_38  and  C_53
   19  A    between atoms: C_41  and  C_55
   20  A    between atoms: C_45  and  C_49
                            x       y       z     vdW  Elec       q    Type
                         _______ _______ _______ _____ _____    ______ ____

>  <TORSDO>
F 20

$$$$
=
 OpenBabel11062409003D

 55 58  0  0  1  0  0  0  0  0999 V2000
  160.5480  208.3430  151.3740 C   0  0  0  0  0  2  0  0  0  0  0  0
  161.8440  205.5010  153.1340 C   0  0  2  0  0  3  0  0  0  0  0  0
  159.2940  207.1410  155.9030 O   0  0  0  0  0  1  0  0  0  0  0  0
  162.6520  207.0870  154.9240 C   0  0  0  0  0  1  0  0  0  0  0  0
  159.5780  208.1330  154.9620 C   0  0  2  0  0  0  0  0  0  0  0  0
  160.3950  207.5390  153.7980 C   0  0  2  0  0  3  0  0  0  0  0  0
  160.7330  210.0470  153.2070 C   0  0  1  0  0  3  0  0  0  0  0  0
  163.7530  205.6520  151.6870 O   0  0  0  0  0  1  0  0  0  0  0  0
  161.4320  206.4800  154.2420 C   0  0  1  0  0  3  0  0  0  0  0  0
  160.3510  209.2560  155.6540 C   0  0  0  0  0  2  0  0  0  0  0  0
  160.4900  206.8610  150.9890 C   0  0  0  0  0  2  0  0  0  0  0  0
  158.2530  208.6600  154.4390 C   0  0  0  0  0  1  0  0  0  0  0  0
  161.0020  208.5840  152.8210 C   0  0  2  0  0  3  0  0  0  0  0  0
  162.5110  206.2270  151.9450 C   0  0  1  0  0  3  0  0  0  0  0  0
  160.9230  210.3340  154.7110 C   0  0  2  0  0  3  0  0  0  0  0  0
  161.7530  206.2760  150.7520 O   0  0  0  0  0  0  0  0  0  0  0  0
  163.0510  210.7000  152.4000 C   0  0  0  0  0  1  0  0  0  0  0  0
  161.5610  211.0100  152.3490 C   0  0  0  0  0  2  0  0  0  0  0  0
  160.4050  211.7340  155.0600 C   0  0  1  0  0  3  0  0  0  0  0  0
  159.8420  214.2600  153.8430 O   0  0  0  0  0  0  0  0  0  0  0  0
  159.1920  212.0630  154.3210 N   0  0  0  0  0  2  0  0  0  0  0  0
  158.9630  213.3590  153.7620 C   0  0  0  0  0  0  0  0  0  0  0  0
  157.6740  213.6410  153.0690 C   0  0  0  0  0  2  0  0  0  0  0  0
  157.8260  213.4530  151.6350 N   0  0  0  0  0  0  0  0  0  0  0  0
  156.5580  213.8380  151.0340 C   0  0  0  0  0  1  0  0  0  0  0  0
  158.8150  214.4230  151.1850 C   0  0  0  0  0  2  0  0  0  0  0  0
  160.0820  213.8180  149.1260 C   0  0  0  0  0  1  0  0  0  0  0  0
  160.0390  213.7070  150.6370 C   0  0  0  0  0  2  0  0  0  0  0  0
  160.1720  211.8890  156.5560 C   0  0  0  0  0  2  0  0  0  0  0  0
  157.6140  211.6570  156.6350 C   0  0  0  0  0  3  0  0  0  0  0  0
  156.2940  213.6580  156.6890 N   0  0  0  0  0  0  0  0  0  0  0  0
  158.7240  213.7980  157.0250 C   0  0  0  0  0  3  0  0  0  0  0  0
  157.3890  214.4530  157.2600 C   0  0  0  0  0  2  0  0  0  0  0  0
  156.4120  212.2330  156.5750 C   0  0  0  0  0  3  0  0  0  0  0  0
  158.8250  212.4860  156.7970 C   0  0  0  0  0  0  0  0  0  0  0  0
  154.9980  214.2720  156.4170 C   0  0  2  0  0  3  0  0  0  0  0  0
  153.9620  213.6340  157.2100 N   0  0  0  0  0  1  0  0  0  0  0  0
  154.6560  214.1760  154.9410 C   0  0  0  0  0  1  0  0  0  0  0  0
  160.7450  204.7270  152.7420 O   0  0  0  0  0  0  0  0  0  0  0  0
  161.2700  203.6920  151.9610 C   0  0  0  0  0  2  0  0  0  0  0  0
  160.4700  203.5120  150.8200 O   0  0  0  0  0  0  0  0  0  0  0  0
  160.8590  202.3420  150.1110 C   0  0  2  0  0  3  0  0  0  0  0  0
  161.5070  201.3700  150.8730 F   0  0  0  0  0  0  0  0  0  0  0  0
  161.6810  202.6780  148.8640 C   0  0  1  0  0  3  0  0  0  0  0  0
  161.1070  202.0870  147.6190 C   0  0  0  0  0  0  0  0  0  0  0  0
  160.5380  201.5020  146.3850 C   0  0  0  0  0  0  0  0  0  0  0  0
  160.8170  200.7190  147.4560 C   0  0  0  0  0  2  0  0  0  0  0  0
  160.0310  201.6610  144.9960 C   0  0  0  0  0  2  0  0  0  0  0  0
  160.2170  203.0970  144.5510 C   0  0  0  0  0  1  0  0  0  0  0  0
  161.9500  204.1720  148.7260 C   0  0  0  0  0  2  0  0  0  0  0  0
  160.2230  205.5680  147.8240 O   0  0  0  0  0  1  0  0  0  0  0  0
  161.2680  204.7050  147.4770 C   0  0  1  0  0  3  0  0  0  0  0  0
  162.4660  206.6380  146.7250 O   0  0  0  0  0  1  0  0  0  0  0  0
  162.2520  205.4030  146.5990 C   0  0  0  0  0  0  0  0  0  0  0  0
  162.9570  204.6780  145.6490 O   0  0  0  0  0  0  0  0  0  0  0  0
  1 13  1  0  0  0  0
  2 39  1  6  0  0  0
  2  9  1  0  0  0  0
  5 12  1  6  0  0  0
  5 10  1  0  0  0  0
  5  3  1  0  0  0  0
  6  9  1  0  0  0  0
  6  5  1  0  0  0  0
  7 15  1  0  0  0  0
  8 14  1  0  0  0  0
  9  4  1  0  0  0  0
 11  1  1  0  0  0  0
 13  7  1  0  0  0  0
 13  6  1  0  0  0  0
 14  2  1  0  0  0  0
 15 19  1  0  0  0  0
 15 10  1  0  0  0  0
 16 11  1  0  0  0  0
 16 14  1  0  0  0  0
 18 17  1  0  0  0  0
 18  7  1  0  0  0  0
 19 29  1  0  0  0  0
 21 19  1  0  0  0  0
 22 20  2  0  0  0  0
 22 21  1  0  0  0  0
 23 22  1  0  0  0  0
 24 23  1  0  0  0  0
 25 24  1  0  0  0  0
 26 24  1  0  0  0  0
 27 28  1  0  0  0  0
 28 26  1  0  0  0  0
 29 35  1  0  0  0  0
 30 35  1  0  0  0  0
 31 33  1  0  0  0  0
 32 33  1  0  0  0  0
 34 30  2  0  0  0  0
 34 31  1  0  0  0  0
 35 32  2  0  0  0  0
 36 31  1  0  0  0  0
 36 37  1  0  0  0  0
 38 36  1  0  0  0  0
 40 39  1  0  0  0  0
 41 40  1  0  0  0  0
 42 41  1  0  0  0  0
 42 43  1  0  0  0  0
 44 42  1  0  0  0  0
 45 44  1  0  0  0  0
 46 47  1  0  0  0  0
 46 45  2  0  0  0  0
 47 45  1  0  0  0  0
 48 46  1  0  0  0  0
 49 48  1  0  0  0  0
 50 44  1  0  0  0  0
 52 51  1  0  0  0  0
 52 50  1  0  0  0  0
 54 53  1  0  0  0  0
 54 52  1  0  0  0  0
 55 54  2  0  0  0  0
M  END
>  <MODEL>
3

>  <REMARK>
 VINA RESULT:      -0.7      2.694      6.200
  Name = 
  20 active torsions:
  status: ('A' for Active; 'I' for Inactive)
    1  A    between atoms: C_1  and  O_30
    2  A    between atoms: C_1  and  C_53
    3  A    between atoms: C_6  and  C_53
    4  A    between atoms: C_7  and  O_8
    5  A    between atoms: O_8  and  C_20
    6  A    between atoms: C_10  and  N_32
    7  A    between atoms: C_11  and  C_29
    8  A    between atoms: C_11  and  C_38
    9  A    between atoms: C_12  and  C_14
   10  A    between atoms: C_19  and  C_40
   11  A    between atoms: C_20  and  O_30
   12  A    between atoms: N_27  and  C_31
   13  A    between atoms: N_27  and  C_55
   14  A    between atoms: N_28  and  C_49
   15  A    between atoms: C_31  and  C_44
   16  A    between atoms: C_33  and  C_49
   17  A    between atoms: C_33  and  C_52
   18  A    between atoms: C_38  and  C_53
   19  A    between atoms: C_41  and  C_55
   20  A    between atoms: C_45  and  C_49
                            x       y       z     vdW  Elec       q    Type
                         _______ _______ _______ _____ _____    ______ ____

>  <TORSDO>
F 20

$$$$
=
 OpenBabel11062409003D

 55 58  0  0  1  0  0  0  0  0999 V2000
  162.0720  206.5380  153.5290 C   0  0  0  0  0  2  0  0  0  0  0  0
  160.9240  205.3000  150.3660 C   0  0  2  0  0  3  0  0  0  0  0  0
  162.0870  209.1230  149.4240 O   0  0  0  0  0  1  0  0  0  0  0  0
  159.2870  207.2210  150.3050 C   0  0  0  0  0  1  0  0  0  0  0  0
  161.9060  209.0740  150.8070 C   0  0  2  0  0  0  0  0  0  0  0  0
  161.6340  207.6240  151.2540 C   0  0  2  0  0  3  0  0  0  0  0  0
  160.9750  208.7950  153.4780 C   0  0  1  0  0  3  0  0  0  0  0  0
  159.5690  203.7640  151.6190 O   0  0  0  0  0  1  0  0  0  0  0  0
  160.7570  206.8220  150.2620 C   0  0  1  0  0  3  0  0  0  0  0  0
  160.7380  209.9890  151.1800 C   0  0  0  0  0  2  0  0  0  0  0  0
  162.5570  205.3200  152.7370 C   0  0  0  0  0  2  0  0  0  0  0  0
  163.1860  209.5750  151.4540 C   0  0  0  0  0  1  0  0  0  0  0  0
  161.1530  207.4680  152.7230 C   0  0  2  0  0  3  0  0  0  0  0  0
  160.5200  204.7720  151.7600 C   0  0  1  0  0  3  0  0  0  0  0  0
  160.2730  209.8890  152.6470 C   0  0  2  0  0  3  0  0  0  0  0  0
  161.5820  204.3120  152.5730 O   0  0  0  0  0  0  0  0  0  0  0  0
  161.2500  208.3910  155.9710 C   0  0  0  0  0  1  0  0  0  0  0  0
  160.2690  208.5800  154.8220 C   0  0  0  0  0  2  0  0  0  0  0  0
  160.3500  211.2410  153.3650 C   0  0  1  0  0  3  0  0  0  0  0  0
  160.4620  212.7960  150.9680 O   0  0  0  0  0  0  0  0  0  0  0  0
  159.3150  212.1590  152.9050 N   0  0  0  0  0  2  0  0  0  0  0  0
  159.4500  212.9290  151.7080 C   0  0  0  0  0  0  0  0  0  0  0  0
  158.3750  213.8900  151.3300 C   0  0  0  0  0  2  0  0  0  0  0  0
  157.5520  213.3300  150.2700 N   0  0  0  0  0  0  0  0  0  0  0  0
  156.2060  213.8370  150.4830 C   0  0  0  0  0  1  0  0  0  0  0  0
  158.0250  213.9070  149.0190 C   0  0  0  0  0  2  0  0  0  0  0  0
  157.3350  212.8440  146.8730 C   0  0  0  0  0  1  0  0  0  0  0  0
  156.9390  213.8230  147.9600 C   0  0  0  0  0  2  0  0  0  0  0  0
  160.2790  211.0790  154.8770 C   0  0  0  0  0  2  0  0  0  0  0  0
  157.9460  210.9750  155.9470 C   0  0  0  0  0  3  0  0  0  0  0  0
  156.5770  212.9430  155.8800 N   0  0  0  0  0  0  0  0  0  0  0  0
  158.9480  213.0910  155.2490 C   0  0  0  0  0  3  0  0  0  0  0  0
  157.7370  213.8340  155.7480 C   0  0  0  0  0  2  0  0  0  0  0  0
  156.7600  211.5480  156.1600 C   0  0  0  0  0  3  0  0  0  0  0  0
  159.0650  211.7700  155.4020 C   0  0  0  0  0  0  0  0  0  0  0  0
  155.2250  213.4910  155.9290 C   0  0  2  0  0  3  0  0  0  0  0  0
  155.0220  214.4300  154.8400 N   0  0  0  0  0  1  0  0  0  0  0  0
  154.9700  214.1750  157.2590 C   0  0  0  0  0  1  0  0  0  0  0  0
  162.2270  204.9330  150.0100 O   0  0  0  0  0  0  0  0  0  0  0  0
  162.1210  203.6550  149.4510 C   0  0  0  0  0  2  0  0  0  0  0  0
  160.8890  203.5320  148.7860 O   0  0  0  0  0  0  0  0  0  0  0  0
  160.7850  202.2670  148.1460 C   0  0  2  0  0  3  0  0  0  0  0  0
  161.4110  201.2100  148.8060 F   0  0  0  0  0  0  0  0  0  0  0  0
  161.2400  202.3290  146.6850 C   0  0  1  0  0  3  0  0  0  0  0  0
  161.0460  201.0350  145.9660 C   0  0  2  0  0  3  0  0  0  0  0  0
  160.8550  199.7520  145.2530 C   0  0  1  0  0  3  0  0  0  0  0  0
  159.8850  200.7000  145.2440 C   0  0  0  0  0  2  0  0  0  0  0  0
  161.3590  198.4140  144.8470 C   0  0  0  0  0  2  0  0  0  0  0  0
  161.8790  197.6780  146.0640 C   0  0  0  0  0  1  0  0  0  0  0  0
  160.6340  203.5070  145.9320 C   0  0  0  0  0  2  0  0  0  0  0  0
  162.7530  203.9780  144.9140 O   0  0  0  0  0  1  0  0  0  0  0  0
  161.7080  204.5450  145.6510 C   0  0  1  0  0  3  0  0  0  0  0  0
  160.2390  206.4270  145.4530 O   0  0  0  0  0  1  0  0  0  0  0  0
  161.1300  205.7120  144.9220 C   0  0  0  0  0  0  0  0  0  0  0  0
  161.5980  206.0290  143.6540 O   0  0  0  0  0  0  0  0  0  0  0  0
  2 39  1  1  0  0  0
  2 14  1  0  0  0  0
  3  5  1  0  0  0  0
  5 10  1  0  0  0  0
  5  6  1  0  0  0  0
  5 12  1  1  0  0  0
  6 13  1  0  0  0  0
  7 18  1  0  0  0  0
  8 14  1  0  0  0  0
  9  4  1  0  0  0  0
  9  2  1  0  0  0  0
  9  6  1  0  0  0  0
 10 15  1  0  0  0  0
 11  1  1  0  0  0  0
 13  7  1  0  0  0  0
 13  1  1  0  0  0  0
 14 16  1  0  0  0  0
 15 19  1  0  0  0  0
 15  7  1  0  0  0  0
 16 11  1  0  0  0  0
 18 17  1  0  0  0  0
 19 29  1  0  0  0  0
 20 22  2  0  0  0  0
 21 19  1  0  0  0  0
 22 21  1  0  0  0  0
 23 22  1  0  0  0  0
 24 25  1  0  0  0  0
 24 23  1  0  0  0  0
 26 24  1  0  0  0  0
 27 28  1  0  0  0  0
 28 26  1  0  0  0  0
 29 35  1  0  0  0  0
 30 34  2  0  0  0  0
 31 36  1  0  0  0  0
 31 34  1  0  0  0  0
 32 35  2  0  0  0  0
 32 33  1  0  0  0  0
 33 31  1  0  0  0  0
 35 30  1  0  0  0  0
 36 38  1  0  0  0  0
 37 36  1  0  0  0  0
 40 39  1  0  0  0  0
 41 40  1  0  0  0  0
 42 41  1  0  0  0  0
 42 43  1  0  0  0  0
 44 42  1  0  0  0  0
 45 44  1  0  0  0  0
 46 45  1  0  0  0  0
 47 46  1  0  0  0  0
 47 45  1  0  0  0  0
 48 46  1  0  0  0  0
 48 49  1  0  0  0  0
 50 44  1  0  0  0  0
 51 52  1  0  0  0  0
 52 50  1  0  0  0  0
 54 53  1  0  0  0  0
 54 52  1  0  0  0  0
 55 54  2  0  0  0  0
M  END
>  <MODEL>
4

>  <REMARK>
 VINA RESULT:       0.6      2.392      5.210
  Name = 
  20 active torsions:
  status: ('A' for Active; 'I' for Inactive)
    1  A    between atoms: C_1  and  O_30
    2  A    between atoms: C_1  and  C_53
    3  A    between atoms: C_6  and  C_53
    4  A    between atoms: C_7  and  O_8
    5  A    between atoms: O_8  and  C_20
    6  A    between atoms: C_10  and  N_32
    7  A    between atoms: C_11  and  C_29
    8  A    between atoms: C_11  and  C_38
    9  A    between atoms: C_12  and  C_14
   10  A    between atoms: C_19  and  C_40
   11  A    between atoms: C_20  and  O_30
   12  A    between atoms: N_27  and  C_31
   13  A    between atoms: N_27  and  C_55
   14  A    between atoms: N_28  and  C_49
   15  A    between atoms: C_31  and  C_44
   16  A    between atoms: C_33  and  C_49
   17  A    between atoms: C_33  and  C_52
   18  A    between atoms: C_38  and  C_53
   19  A    between atoms: C_41  and  C_55
   20  A    between atoms: C_45  and  C_49
                            x       y       z     vdW  Elec       q    Type
                         _______ _______ _______ _____ _____    ______ ____

>  <TORSDO>
F 20

$$$$
=
 OpenBabel11062409003D

 55 58  0  0  1  0  0  0  0  0999 V2000
  162.0020  206.7250  153.9480 C   0  0  0  0  0  2  0  0  0  0  0  0
  161.4630  206.5950  150.4060 C   0  0  2  0  0  3  0  0  0  0  0  0
  162.3530  210.5590  150.9980 O   0  0  0  0  0  1  0  0  0  0  0  0
  159.6640  208.3410  150.7030 C   0  0  0  0  0  1  0  0  0  0  0  0
  161.9770  210.0300  152.2340 C   0  0  2  0  0  0  0  0  0  0  0  0
  161.7930  208.5040  152.1220 C   0  0  2  0  0  3  0  0  0  0  0  0
  160.6990  208.8080  154.4580 C   0  0  1  0  0  3  0  0  0  0  0  0
  160.1040  204.6610  150.8260 O   0  0  0  0  0  1  0  0  0  0  0  0
  161.1580  208.0510  150.7850 C   0  0  1  0  0  3  0  0  0  0  0  0
  160.6800  210.7050  152.6810 C   0  0  0  0  0  2  0  0  0  0  0  0
  162.7210  205.8760  152.8940 C   0  0  0  0  0  2  0  0  0  0  0  0
  163.0900  210.3380  153.2210 C   0  0  0  0  0  1  0  0  0  0  0  0
  161.1210  207.8310  153.3500 C   0  0  2  0  0  3  0  0  0  0  0  0
  160.9150  205.6020  151.4550 C   0  0  1  0  0  3  0  0  0  0  0  0
  160.0180  210.0870  153.9290 C   0  0  2  0  0  3  0  0  0  0  0  0
  161.8880  204.9410  152.2410 O   0  0  0  0  0  0  0  0  0  0  0  0
  160.4160  208.2180  156.9140 C   0  0  0  0  0  1  0  0  0  0  0  0
  159.8290  208.1120  155.5130 C   0  0  0  0  0  2  0  0  0  0  0  0
  159.8500  211.1120  155.0550 C   0  0  1  0  0  3  0  0  0  0  0  0
  158.2510  211.4600  152.7100 O   0  0  0  0  0  0  0  0  0  0  0  0
  159.3480  212.3870  154.5570 N   0  0  0  0  0  2  0  0  0  0  0  0
  158.5770  212.4920  153.3580 C   0  0  0  0  0  0  0  0  0  0  0  0
  158.1460  213.8360  152.8780 C   0  0  0  0  0  2  0  0  0  0  0  0
  157.1840  213.6970  151.7970 N   0  0  0  0  0  0  0  0  0  0  0  0
  155.9800  214.3910  152.2270 C   0  0  0  0  0  1  0  0  0  0  0  0
  157.7150  214.4410  150.6620 C   0  0  0  0  0  2  0  0  0  0  0  0
  157.0820  212.7730  148.9220 C   0  0  0  0  0  1  0  0  0  0  0  0
  158.2350  213.4810  149.6050 C   0  0  0  0  0  2  0  0  0  0  0  0
  158.9490  210.5860  156.1640 C   0  0  0  0  0  2  0  0  0  0  0  0
  156.4960  211.1780  155.6780 C   0  0  0  0  0  3  0  0  0  0  0  0
  155.7480  213.4040  156.1640 N   0  0  0  0  0  0  0  0  0  0  0  0
  157.9440  212.6570  156.9770 C   0  0  0  0  0  3  0  0  0  0  0  0
  156.8000  213.6180  157.1670 C   0  0  0  0  0  2  0  0  0  0  0  0
  155.5400  212.1040  155.5940 C   0  0  0  0  0  3  0  0  0  0  0  0
  157.7790  211.4960  156.3370 C   0  0  0  0  0  0  0  0  0  0  0  0
  154.7730  214.4520  155.8800 C   0  0  2  0  0  3  0  0  0  0  0  0
  153.6700  214.3820  156.8230 N   0  0  0  0  0  1  0  0  0  0  0  0
  154.2510  214.3310  154.4600 C   0  0  0  0  0  1  0  0  0  0  0  0
  162.8350  206.4330  150.1790 O   0  0  0  0  0  0  0  0  0  0  0  0
  163.0080  206.5640  148.7970 C   0  0  0  0  0  2  0  0  0  0  0  0
  163.0790  205.2900  148.2090 O   0  0  0  0  0  0  0  0  0  0  0  0
  162.0750  205.1380  147.2140 C   0  0  2  0  0  3  0  0  0  0  0  0
  160.7830  205.4810  147.6110 F   0  0  0  0  0  0  0  0  0  0  0  0
  162.0890  203.7350  146.6010 C   0  0  1  0  0  3  0  0  0  0  0  0
  161.2880  202.7530  147.3900 C   0  0  2  0  0  3  0  0  0  0  0  0
  160.4950  201.7800  148.1740 C   0  0  1  0  0  3  0  0  0  0  0  0
  160.5930  201.6660  146.8260 C   0  0  0  0  0  2  0  0  0  0  0  0
  159.9760  201.2900  149.4780 C   0  0  0  0  0  2  0  0  0  0  0  0
  161.0320  201.4860  150.5470 C   0  0  0  0  0  1  0  0  0  0  0  0
  161.7110  203.7380  145.1240 C   0  0  0  0  0  2  0  0  0  0  0  0
  160.4630  205.5460  144.1650 O   0  0  0  0  0  1  0  0  0  0  0  0
  160.3500  204.3890  144.9420 C   0  0  1  0  0  3  0  0  0  0  0  0
  158.4120  203.8480  143.6410 O   0  0  0  0  0  0  0  0  0  0  0  0
  159.3910  203.4320  144.3160 C   0  0  0  0  0  0  0  0  0  0  0  0
  159.5940  202.0660  144.4610 O   0  0  0  0  0  1  0  0  0  0  0  0
  2 39  1  1  0  0  0
  2  9  1  0  0  0  0
  2 14  1  0  0  0  0
  3  5  1  0  0  0  0
  4  9  1  0  0  0  0
  5 10  1  0  0  0  0
  5 12  1  1  0  0  0
  6  5  1  0  0  0  0
  6 13  1  0  0  0  0
  7 18  1  0  0  0  0
  8 14  1  0  0  0  0
  9  6  1  0  0  0  0
 10 15  1  0  0  0  0
 11  1  1  0  0  0  0
 13  1  1  0  0  0  0
 13  7  1  0  0  0  0
 14 16  1  0  0  0  0
 15  7  1  0  0  0  0
 15 19  1  0  0  0  0
 16 11  1  0  0  0  0
 18 17  1  0  0  0  0
 19 29  1  0  0  0  0
 20 22  2  0  0  0  0
 21 19  1  0  0  0  0
 22 21  1  0  0  0  0
 23 22  1  0  0  0  0
 24 25  1  0  0  0  0
 24 23  1  0  0  0  0
 26 24  1  0  0  0  0
 27 28  1  0  0  0  0
 28 26  1  0  0  0  0
 29 35  1  0  0  0  0
 30 35  1  0  0  0  0
 31 33  1  0  0  0  0
 32 33  1  0  0  0  0
 34 30  2  0  0  0  0
 34 31  1  0  0  0  0
 35 32  2  0  0  0  0
 36 31  1  0  0  0  0
 36 37  1  0  0  0  0
 38 36  1  0  0  0  0
 40 39  1  0  0  0  0
 41 40  1  0  0  0  0
 42 43  1  0  0  0  0
 42 41  1  0  0  0  0
 44 42  1  0  0  0  0
 44 45  1  0  0  0  0
 45 46  1  0  0  0  0
 46 48  1  0  0  0  0
 47 45  1  0  0  0  0
 47 46  1  0  0  0  0
 48 49  1  0  0  0  0
 50 44  1  0  0  0  0
 51 52  1  0  0  0  0
 52 50  1  0  0  0  0
 53 54  2  0  0  0  0
 54 55  1  0  0  0  0
 54 52  1  0  0  0  0
M  END
>  <MODEL>
5

>  <REMARK>
 VINA RESULT:       0.7      2.971      5.880
  Name = 
  20 active torsions:
  status: ('A' for Active; 'I' for Inactive)
    1  A    between atoms: C_1  and  O_30
    2  A    between atoms: C_1  and  C_53
    3  A    between atoms: C_6  and  C_53
    4  A    between atoms: C_7  and  O_8
    5  A    between atoms: O_8  and  C_20
    6  A    between atoms: C_10  and  N_32
    7  A    between atoms: C_11  and  C_29
    8  A    between atoms: C_11  and  C_38
    9  A    between atoms: C_12  and  C_14
   10  A    between atoms: C_19  and  C_40
   11  A    between atoms: C_20  and  O_30
   12  A    between atoms: N_27  and  C_31
   13  A    between atoms: N_27  and  C_55
   14  A    between atoms: N_28  and  C_49
   15  A    between atoms: C_31  and  C_44
   16  A    between atoms: C_33  and  C_49
   17  A    between atoms: C_33  and  C_52
   18  A    between atoms: C_38  and  C_53
   19  A    between atoms: C_41  and  C_55
   20  A    between atoms: C_45  and  C_49
                            x       y       z     vdW  Elec       q    Type
                         _______ _______ _______ _____ _____    ______ ____

>  <TORSDO>
F 20

$$$$
=
 OpenBabel11062409003D

 55 58  0  0  1  0  0  0  0  0999 V2000
  161.9140  206.8220  153.7010 C   0  0  0  0  0  2  0  0  0  0  0  0
  160.9120  205.1160  150.7110 C   0  0  2  0  0  3  0  0  0  0  0  0
  162.2870  208.6950  149.2430 O   0  0  0  0  0  1  0  0  0  0  0  0
  159.3620  207.0510  150.2310 C   0  0  0  0  0  1  0  0  0  0  0  0
  162.0200  208.8800  150.6000 C   0  0  2  0  0  0  0  0  0  0  0  0
  161.6610  207.5320  151.2570 C   0  0  2  0  0  3  0  0  0  0  0  0
  160.9160  209.0720  153.2120 C   0  0  1  0  0  3  0  0  0  0  0  0
  159.4200  203.8490  152.1020 O   0  0  0  0  0  1  0  0  0  0  0  0
  160.8140  206.6050  150.3510 C   0  0  1  0  0  3  0  0  0  0  0  0
  160.8700  209.8790  150.7410 C   0  0  0  0  0  2  0  0  0  0  0  0
  162.3960  205.4760  153.1520 C   0  0  0  0  0  2  0  0  0  0  0  0
  163.2770  209.4410  151.2420 C   0  0  0  0  0  1  0  0  0  0  0  0
  161.0850  207.6350  152.6960 C   0  0  2  0  0  3  0  0  0  0  0  0
  160.4010  204.8370  152.1420 C   0  0  1  0  0  3  0  0  0  0  0  0
  160.3120  210.0360  152.1700 C   0  0  2  0  0  3  0  0  0  0  0  0
  161.3920  204.4850  153.0890 O   0  0  0  0  0  0  0  0  0  0  0  0
  159.9920  207.7250  155.1590 C   0  0  0  0  0  1  0  0  0  0  0  0
  160.1200  209.1030  154.5230 C   0  0  0  0  0  2  0  0  0  0  0  0
  160.4010  211.4840  152.6630 C   0  0  1  0  0  3  0  0  0  0  0  0
  160.8350  213.2980  150.4950 O   0  0  0  0  0  0  0  0  0  0  0  0
  159.3810  212.3290  152.0520 N   0  0  0  0  0  2  0  0  0  0  0  0
  159.6750  213.2360  150.9870 C   0  0  0  0  0  0  0  0  0  0  0  0
  158.5940  214.1100  150.4490 C   0  0  0  0  0  2  0  0  0  0  0  0
  157.7110  213.3410  149.5860 N   0  0  0  0  0  0  0  0  0  0  0  0
  156.3610  213.5580  150.0810 C   0  0  0  0  0  1  0  0  0  0  0  0
  157.7770  213.9510  148.2640 C   0  0  0  0  0  2  0  0  0  0  0  0
  159.6610  213.3760  146.7370 C   0  0  0  0  0  1  0  0  0  0  0  0
  158.3010  212.9470  147.2510 C   0  0  0  0  0  2  0  0  0  0  0  0
  160.3150  211.5670  154.1800 C   0  0  0  0  0  2  0  0  0  0  0  0
  157.7720  211.5780  154.5430 C   0  0  0  0  0  3  0  0  0  0  0  0
  156.6650  213.6940  154.7660 N   0  0  0  0  0  0  0  0  0  0  0  0
  159.1200  213.5950  154.8290 C   0  0  0  0  0  3  0  0  0  0  0  0
  157.8880  214.3690  155.2190 C   0  0  0  0  0  2  0  0  0  0  0  0
  156.6320  212.2670  154.6240 C   0  0  0  0  0  3  0  0  0  0  0  0
  159.0680  212.2840  154.5770 C   0  0  0  0  0  0  0  0  0  0  0  0
  155.4130  214.4330  154.6470 C   0  0  2  0  0  3  0  0  0  0  0  0
  154.5780  214.2020  155.8130 N   0  0  0  0  0  1  0  0  0  0  0  0
  154.6680  214.0330  153.3870 C   0  0  0  0  0  1  0  0  0  0  0  0
  162.2180  204.6560  150.5080 O   0  0  0  0  0  0  0  0  0  0  0  0
  162.0920  203.3140  150.1310 C   0  0  0  0  0  2  0  0  0  0  0  0
  160.9660  203.1610  149.3040 O   0  0  0  0  0  0  0  0  0  0  0  0
  160.9180  201.8510  148.7550 C   0  0  2  0  0  3  0  0  0  0  0  0
  161.9210  200.9840  149.1870 F   0  0  0  0  0  0  0  0  0  0  0  0
  160.8580  201.8760  147.2250 C   0  0  1  0  0  3  0  0  0  0  0  0
  161.3160  203.1760  146.6520 C   0  0  2  0  0  3  0  0  0  0  0  0
  161.7700  204.4640  146.0820 C   0  0  1  0  0  3  0  0  0  0  0  0
  162.1430  204.0910  147.3320 C   0  0  0  0  0  2  0  0  0  0  0  0
  161.7980  205.4420  144.9630 C   0  0  0  0  0  2  0  0  0  0  0  0
  160.3820  205.8580  144.6200 C   0  0  0  0  0  1  0  0  0  0  0  0
  161.5630  200.6830  146.5920 C   0  0  0  0  0  2  0  0  0  0  0  0
  160.0150  200.5070  144.7700 O   0  0  0  0  0  1  0  0  0  0  0  0
  160.5510  199.8160  145.8610 C   0  0  1  0  0  3  0  0  0  0  0  0
  160.5210  197.6870  144.7610 O   0  0  0  0  0  0  0  0  0  0  0  0
  161.1820  198.5400  145.4110 C   0  0  0  0  0  0  0  0  0  0  0  0
  162.5200  198.3010  145.6930 O   0  0  0  0  0  1  0  0  0  0  0  0
  2 39  1  1  0  0  0
  2 14  1  0  0  0  0
  3  5  1  0  0  0  0
  4  9  1  0  0  0  0
  5 10  1  0  0  0  0
  5 12  1  1  0  0  0
  5  6  1  0  0  0  0
  6 13  1  0  0  0  0
  7 18  1  0  0  0  0
  8 14  1  0  0  0  0
  9  2  1  0  0  0  0
  9  6  1  0  0  0  0
 10 15  1  0  0  0  0
 11  1  1  0  0  0  0
 13  7  1  0  0  0  0
 13  1  1  0  0  0  0
 14 16  1  0  0  0  0
 15 19  1  0  0  0  0
 15  7  1  0  0  0  0
 16 11  1  0  0  0  0
 18 17  1  0  0  0  0
 19 29  1  0  0  0  0
 20 22  2  0  0  0  0
 21 19  1  0  0  0  0
 22 21  1  0  0  0  0
 23 22  1  0  0  0  0
 24 25  1  0  0  0  0
 24 23  1  0  0  0  0
 26 24  1  0  0  0  0
 27 28  1  0  0  0  0
 28 26  1  0  0  0  0
 29 35  1  0  0  0  0
 30 35  1  0  0  0  0
 30 34  2  0  0  0  0
 31 33  1  0  0  0  0
 32 33  1  0  0  0  0
 34 31  1  0  0  0  0
 35 32  2  0  0  0  0
 36 31  1  0  0  0  0
 36 37  1  0  0  0  0
 38 36  1  0  0  0  0
 40 39  1  0  0  0  0
 41 40  1  0  0  0  0
 42 43  1  0  0  0  0
 42 41  1  0  0  0  0
 44 42  1  0  0  0  0
 45 44  1  0  0  0  0
 45 47  1  0  0  0  0
 46 45  1  0  0  0  0
 46 47  1  0  0  0  0
 48 46  1  0  0  0  0
 49 48  1  0  0  0  0
 50 44  1  0  0  0  0
 51 52  1  0  0  0  0
 52 50  1  0  0  0  0
 53 54  2  0  0  0  0
 54 55  1  0  0  0  0
 54 52  1  0  0  0  0
M  END
>  <MODEL>
6

>  <REMARK>
 VINA RESULT:       0.9      2.355      5.614
  Name = 
  20 active torsions:
  status: ('A' for Active; 'I' for Inactive)
    1  A    between atoms: C_1  and  O_30
    2  A    between atoms: C_1  and  C_53
    3  A    between atoms: C_6  and  C_53
    4  A    between atoms: C_7  and  O_8
    5  A    between atoms: O_8  and  C_20
    6  A    between atoms: C_10  and  N_32
    7  A    between atoms: C_11  and  C_29
    8  A    between atoms: C_11  and  C_38
    9  A    between atoms: C_12  and  C_14
   10  A    between atoms: C_19  and  C_40
   11  A    between atoms: C_20  and  O_30
   12  A    between atoms: N_27  and  C_31
   13  A    between atoms: N_27  and  C_55
   14  A    between atoms: N_28  and  C_49
   15  A    between atoms: C_31  and  C_44
   16  A    between atoms: C_33  and  C_49
   17  A    between atoms: C_33  and  C_52
   18  A    between atoms: C_38  and  C_53
   19  A    between atoms: C_41  and  C_55
   20  A    between atoms: C_45  and  C_49
                            x       y       z     vdW  Elec       q    Type
                         _______ _______ _______ _____ _____    ______ ____

>  <TORSDO>
F 20

$$$$
=
 OpenBabel11062409003D

 55 58  0  0  1  0  0  0  0  0999 V2000
  161.6690  205.5590  153.2720 C   0  0  0  0  0  2  0  0  0  0  0  0
  160.4790  204.0010  150.2710 C   0  0  2  0  0  3  0  0  0  0  0  0
  162.6280  207.1750  148.8000 O   0  0  0  0  0  1  0  0  0  0  0  0
  159.3840  206.1950  149.6690 C   0  0  0  0  0  1  0  0  0  0  0  0
  162.3410  207.4530  150.1380 C   0  0  2  0  0  0  0  0  0  0  0  0
  161.6820  206.2280  150.8030 C   0  0  2  0  0  3  0  0  0  0  0  0
  161.1800  207.9490  152.6840 C   0  0  1  0  0  3  0  0  0  0  0  0
  158.6950  203.1100  151.6090 O   0  0  0  0  0  1  0  0  0  0  0  0
  160.7070  205.4660  149.8750 C   0  0  1  0  0  3  0  0  0  0  0  0
  161.4160  208.6700  150.1980 C   0  0  0  0  0  2  0  0  0  0  0  0
  161.8890  204.1260  152.7770 C   0  0  0  0  0  2  0  0  0  0  0  0
  163.6550  207.7650  150.8320 C   0  0  0  0  0  1  0  0  0  0  0  0
  161.0740  206.4920  152.2080 C   0  0  2  0  0  3  0  0  0  0  0  0
  159.8550  203.8770  151.6790 C   0  0  1  0  0  3  0  0  0  0  0  0
  160.8370  208.9830  151.5920 C   0  0  2  0  0  3  0  0  0  0  0  0
  160.7070  203.3590  152.6830 O   0  0  0  0  0  0  0  0  0  0  0  0
  161.1990  208.1940  155.2130 C   0  0  0  0  0  1  0  0  0  0  0  0
  160.3480  208.1830  153.9510 C   0  0  0  0  0  2  0  0  0  0  0  0
  161.1980  210.3970  152.0580 C   0  0  1  0  0  3  0  0  0  0  0  0
  162.3690  211.6780  149.7840 O   0  0  0  0  0  0  0  0  0  0  0  0
  160.5550  211.4180  151.2400 N   0  0  0  0  0  2  0  0  0  0  0  0
  161.2120  212.0390  150.1320 C   0  0  0  0  0  0  0  0  0  0  0  0
  160.5130  213.1170  149.3760 C   0  0  0  0  0  2  0  0  0  0  0  0
  160.9900  213.1550  148.0020 N   0  0  0  0  0  0  0  0  0  0  0  0
  161.4850  211.8210  147.7020 C   0  0  0  0  0  1  0  0  0  0  0  0
  159.8230  213.3710  147.1570 C   0  0  0  0  0  2  0  0  0  0  0  0
  159.6610  212.7710  144.7440 C   0  0  0  0  0  1  0  0  0  0  0  0
  159.6820  212.2330  146.1600 C   0  0  0  0  0  2  0  0  0  0  0  0
  160.8620  210.6070  153.5270 C   0  0  0  0  0  2  0  0  0  0  0  0
  159.8470  212.6950  154.6290 C   0  0  0  0  0  3  0  0  0  0  0  0
  157.5050  213.1120  154.3280 N   0  0  0  0  0  0  0  0  0  0  0  0
  158.6120  211.3810  152.9800 C   0  0  0  0  0  3  0  0  0  0  0  0
  157.4510  212.3340  153.0830 C   0  0  0  0  0  2  0  0  0  0  0  0
  158.7640  213.4060  154.9480 C   0  0  0  0  0  3  0  0  0  0  0  0
  159.7460  211.5900  153.6540 C   0  0  0  0  0  0  0  0  0  0  0  0
  156.3070  213.7660  154.8440 C   0  0  2  0  0  3  0  0  0  0  0  0
  155.8960  213.1530  156.0950 N   0  0  0  0  0  1  0  0  0  0  0  0
  155.1760  213.6920  153.8340 C   0  0  0  0  0  1  0  0  0  0  0  0
  161.6700  203.2770  150.1460 O   0  0  0  0  0  0  0  0  0  0  0  0
  161.2850  201.9500  149.9220 C   0  0  0  0  0  2  0  0  0  0  0  0
  160.3280  201.9040  148.8940 O   0  0  0  0  0  0  0  0  0  0  0  0
  160.8240  201.1810  147.7760 C   0  0  2  0  0  3  0  0  0  0  0  0
  161.7940  200.2220  148.0660 F   0  0  0  0  0  0  0  0  0  0  0  0
  161.3120  202.1140  146.6640 C   0  0  1  0  0  3  0  0  0  0  0  0
  160.3420  202.2240  145.5350 C   0  0  2  0  0  3  0  0  0  0  0  0
  159.3790  202.3340  144.4170 C   0  0  1  0  0  3  0  0  0  0  0  0
  159.6860  201.1250  144.9490 C   0  0  0  0  0  2  0  0  0  0  0  0
  158.6290  203.1620  143.4360 C   0  0  0  0  0  2  0  0  0  0  0  0
  157.5480  203.9420  144.1560 C   0  0  0  0  0  1  0  0  0  0  0  0
  161.7430  203.4780  147.1930 C   0  0  0  0  0  2  0  0  0  0  0  0
  160.8420  205.6350  146.6620 O   0  0  0  0  0  1  0  0  0  0  0  0
  161.5230  204.5370  146.1260 C   0  0  1  0  0  3  0  0  0  0  0  0
  163.8320  204.2120  145.5800 O   0  0  0  0  0  1  0  0  0  0  0  0
  162.8250  204.9670  145.5370 C   0  0  0  0  0  0  0  0  0  0  0  0
  162.9200  206.2040  144.9140 O   0  0  0  0  0  0  0  0  0  0  0  0
  2 39  1  1  0  0  0
  2 14  1  0  0  0  0
  3  5  1  0  0  0  0
  4  9  1  0  0  0  0
  5 10  1  0  0  0  0
  5  6  1  0  0  0  0
  5 12  1  1  0  0  0
  6 13  1  0  0  0  0
  7 18  1  0  0  0  0
  8 14  1  0  0  0  0
  9  2  1  0  0  0  0
  9  6  1  0  0  0  0
 10 15  1  0  0  0  0
 11  1  1  0  0  0  0
 13  7  1  0  0  0  0
 13  1  1  0  0  0  0
 14 16  1  0  0  0  0
 15 19  1  0  0  0  0
 15  7  1  0  0  0  0
 16 11  1  0  0  0  0
 18 17  1  0  0  0  0
 19 29  1  0  0  0  0
 20 22  2  0  0  0  0
 21 19  1  0  0  0  0
 22 21  1  0  0  0  0
 23 22  1  0  0  0  0
 24 23  1  0  0  0  0
 25 24  1  0  0  0  0
 26 24  1  0  0  0  0
 27 28  1  0  0  0  0
 28 26  1  0  0  0  0
 29 35  1  0  0  0  0
 30 34  2  0  0  0  0
 31 36  1  0  0  0  0
 31 34  1  0  0  0  0
 32 33  1  0  0  0  0
 32 35  2  0  0  0  0
 33 31  1  0  0  0  0
 35 30  1  0  0  0  0
 36 37  1  0  0  0  0
 38 36  1  0  0  0  0
 40 39  1  0  0  0  0
 41 40  1  0  0  0  0
 42 43  1  0  0  0  0
 42 41  1  0  0  0  0
 44 50  1  0  0  0  0
 44 42  1  0  0  0  0
 45 44  1  0  0  0  0
 46 47  1  0  0  0  0
 46 45  1  0  0  0  0
 47 45  1  0  0  0  0
 48 49  1  0  0  0  0
 48 46  1  0  0  0  0
 52 51  1  0  0  0  0
 52 50  1  0  0  0  0
 54 53  1  0  0  0  0
 54 52  1  0  0  0  0
 55 54  2  0  0  0  0
M  END
>  <MODEL>
7

>  <REMARK>
 VINA RESULT:       1.5      1.777      5.123
  Name = 
  20 active torsions:
  status: ('A' for Active; 'I' for Inactive)
    1  A    between atoms: C_1  and  O_30
    2  A    between atoms: C_1  and  C_53
    3  A    between atoms: C_6  and  C_53
    4  A    between atoms: C_7  and  O_8
    5  A    between atoms: O_8  and  C_20
    6  A    between atoms: C_10  and  N_32
    7  A    between atoms: C_11  and  C_29
    8  A    between atoms: C_11  and  C_38
    9  A    between atoms: C_12  and  C_14
   10  A    between atoms: C_19  and  C_40
   11  A    between atoms: C_20  and  O_30
   12  A    between atoms: N_27  and  C_31
   13  A    between atoms: N_27  and  C_55
   14  A    between atoms: N_28  and  C_49
   15  A    between atoms: C_31  and  C_44
   16  A    between atoms: C_33  and  C_49
   17  A    between atoms: C_33  and  C_52
   18  A    between atoms: C_38  and  C_53
   19  A    between atoms: C_41  and  C_55
   20  A    between atoms: C_45  and  C_49
                            x       y       z     vdW  Elec       q    Type
                         _______ _______ _______ _____ _____    ______ ____

>  <TORSDO>
F 20

$$$$
