=
 OpenBabel11052423213D

 27 31  0  0  1  0  0  0  0  0999 V2000
  161.5340  204.0630  148.6380 N   0  0  0  0  0  0  0  0  0  0  0  0
  161.3850  204.7960  149.8760 C   0  0  0  0  0  0  0  0  0  0  0  0
  160.9940  207.0890  153.2630 N   0  0  0  0  0  0  0  0  0  0  0  0
  160.7090  209.5680  153.3210 C   0  0  0  0  0  1  0  0  0  0  0  0
  161.4180  204.1320  151.1290 C   0  0  0  0  0  3  0  0  0  0  0  0
  160.9460  208.1890  151.2560 N   0  0  0  0  0  2  0  0  0  0  0  0
  161.1030  206.8710  151.0610 C   0  0  0  0  0  0  0  0  0  0  0  0
  160.8830  208.2750  152.6100 C   0  0  0  0  0  0  0  0  0  0  0  0
  161.1320  206.2190  152.2540 C   0  0  0  0  0  0  0  0  0  0  0  0
  161.2270  206.2010  149.8480 C   0  0  0  0  0  3  0  0  0  0  0  0
  161.2900  204.8400  152.3370 C   0  0  0  0  0  3  0  0  0  0  0  0
  161.3660  202.0910  147.2220 N   0  0  0  0  0  0  0  0  0  0  0  0
  160.7230  200.6000  149.0510 C   0  0  1  0  0  3  0  0  0  0  0  0
  160.3880  202.0360  146.1390 C   0  0  0  0  0  1  0  0  0  0  0  0
  161.4180  201.2400  150.2390 C   0  0  0  0  0  2  0  0  0  0  0  0
  160.7350  202.8880  148.2700 C   0  0  1  0  0  3  0  0  0  0  0  0
  161.4820  199.5780  146.8670 C   0  0  0  0  0  1  0  0  0  0  0  0
  159.0960  202.0720  149.9780 F   0  0  0  0  0  0  0  0  0  0  0  0
  160.3740  202.0090  149.4590 C   0  0  1  0  0  0  0  0  0  0  0  0
  161.5950  200.7640  147.8230 C   0  0  1  0  0  3  0  0  0  0  0  0
  162.5540  204.4710  147.6780 C   0  0  0  0  0  2  0  0  0  0  0  0
  160.6950  206.0920  144.2140 N   0  0  0  0  0  0  0  0  0  0  0  0
  161.9150  205.0560  146.4630 C   0  0  0  0  0  0  0  0  0  0  0  0
  162.4270  204.7710  145.1950 C   0  0  0  0  0  3  0  0  0  0  0  0
  161.7960  205.3070  144.0700 C   0  0  0  0  0  3  0  0  0  0  0  0
  160.1780  206.3760  145.4400 C   0  0  0  0  0  3  0  0  0  0  0  0
  160.7790  205.8600  146.5890 C   0  0  0  0  0  3  0  0  0  0  0  0
  1  2  1  0  0  0  0
  2  5  1  0  0  0  0
  5 11  2  0  0  0  0
  6  8  1  0  0  0  0
  7  6  1  0  0  0  0
  7  9  2  0  0  0  0
  8  3  2  0  0  0  0
  8  4  1  0  0  0  0
  9 11  1  0  0  0  0
  9  3  1  0  0  0  0
 10  2  2  0  0  0  0
 10  7  1  0  0  0  0
 12 20  1  0  0  0  0
 12 16  1  0  0  0  0
 13 19  1  0  0  0  0
 13 15  1  1  0  0  0
 14 12  1  0  0  0  0
 16  1  1  1  0  0  0
 16 19  1  0  0  0  0
 19 18  1  1  0  0  0
 19 15  1  0  0  0  0
 20 17  1  6  0  0  0
 20 13  1  0  0  0  0
 21  1  1  0  0  0  0
 22 26  1  0  0  0  0
 23 27  1  0  0  0  0
 23 21  1  0  0  0  0
 24 23  2  0  0  0  0
 25 22  2  0  0  0  0
 25 24  1  0  0  0  0
 26 27  2  0  0  0  0
M  END
>  <MODEL>
1

>  <REMARK>
 VINA RESULT:      -7.7      0.000      0.000
  Name = 
  4 active torsions:
  status: ('A' for Active; 'I' for Inactive)
    1  A    between atoms: N_1  and  C_2
    2  A    between atoms: N_1  and  C_15
    3  A    between atoms: N_1  and  C_18
    4  A    between atoms: C_9  and  C_15
                            x       y       z     vdW  Elec       q    Type
                         _______ _______ _______ _____ _____    ______ ____

>  <TORSDO>
F 4

$$$$
=
 OpenBabel11052423213D

 27 31  0  0  1  0  0  0  0  0999 V2000
  161.1520  205.7850  149.5340 N   0  0  0  0  0  0  0  0  0  0  0  0
  161.1320  204.3460  149.3900 C   0  0  0  0  0  0  0  0  0  0  0  0
  161.0790  200.2910  148.7310 N   0  0  0  0  0  0  0  0  0  0  0  0
  161.4890  199.1620  146.5430 C   0  0  0  0  0  1  0  0  0  0  0  0
  160.8530  203.5030  150.4950 C   0  0  0  0  0  3  0  0  0  0  0  0
  161.5240  201.6270  146.9270 N   0  0  0  0  0  2  0  0  0  0  0  0
  161.3280  202.3750  148.0230 C   0  0  0  0  0  0  0  0  0  0  0  0
  161.3640  200.3660  147.4050 C   0  0  0  0  0  0  0  0  0  0  0  0
  161.0630  201.5800  149.0940 C   0  0  0  0  0  0  0  0  0  0  0  0
  161.3710  203.7620  148.1240 C   0  0  0  0  0  3  0  0  0  0  0  0
  160.8170  202.1040  150.3590 C   0  0  0  0  0  3  0  0  0  0  0  0
  161.2370  207.7850  150.9180 N   0  0  0  0  0  0  0  0  0  0  0  0
  161.5760  206.5550  153.0050 C   0  0  1  0  0  3  0  0  0  0  0  0
  162.2900  208.7790  150.7240 C   0  0  0  0  0  1  0  0  0  0  0  0
  160.8530  205.2500  152.7230 C   0  0  0  0  0  2  0  0  0  0  0  0
  161.8560  206.5010  150.6040 C   0  0  1  0  0  3  0  0  0  0  0  0
  160.8990  208.9880  153.1300 C   0  0  0  0  0  1  0  0  0  0  0  0
  163.2610  205.1100  152.1410 F   0  0  0  0  0  0  0  0  0  0  0  0
  162.0290  205.6730  151.8700 C   0  0  1  0  0  0  0  0  0  0  0  0
  160.8280  207.6880  152.3320 C   0  0  1  0  0  3  0  0  0  0  0  0
  160.4110  206.6140  148.5890 C   0  0  0  0  0  2  0  0  0  0  0  0
  161.6890  205.7630  144.6230 N   0  0  0  0  0  0  0  0  0  0  0  0
  160.8620  206.3360  147.1940 C   0  0  0  0  0  0  0  0  0  0  0  0
  162.2230  206.1940  146.9120 C   0  0  0  0  0  3  0  0  0  0  0  0
  162.6210  205.9060  145.6040 C   0  0  0  0  0  3  0  0  0  0  0  0
  160.3600  205.8910  144.8800 C   0  0  0  0  0  3  0  0  0  0  0  0
  159.9200  206.1780  146.1730 C   0  0  0  0  0  3  0  0  0  0  0  0
  2  1  1  0  0  0  0
  2  5  1  0  0  0  0
  3  9  1  0  0  0  0
  4  8  1  0  0  0  0
  6  8  1  0  0  0  0
  6  7  1  0  0  0  0
  7 10  1  0  0  0  0
  7  9  2  0  0  0  0
  8  3  2  0  0  0  0
  9 11  1  0  0  0  0
 10  2  2  0  0  0  0
 11  5  2  0  0  0  0
 12 20  1  0  0  0  0
 13 15  1  1  0  0  0
 14 12  1  0  0  0  0
 16  1  1  6  0  0  0
 16 12  1  0  0  0  0
 16 19  1  0  0  0  0
 19 18  1  1  0  0  0
 19 15  1  0  0  0  0
 19 13  1  0  0  0  0
 20 13  1  0  0  0  0
 20 17  1  1  0  0  0
 21  1  1  0  0  0  0
 22 26  2  0  0  0  0
 22 25  1  0  0  0  0
 23 21  1  0  0  0  0
 24 23  1  0  0  0  0
 25 24  2  0  0  0  0
 26 27  1  0  0  0  0
 27 23  2  0  0  0  0
M  END
>  <MODEL>
2

>  <REMARK>
 VINA RESULT:      -7.3      1.578      5.919
  Name = 
  4 active torsions:
  status: ('A' for Active; 'I' for Inactive)
    1  A    between atoms: N_1  and  C_2
    2  A    between atoms: N_1  and  C_15
    3  A    between atoms: N_1  and  C_18
    4  A    between atoms: C_9  and  C_15
                            x       y       z     vdW  Elec       q    Type
                         _______ _______ _______ _____ _____    ______ ____

>  <TORSDO>
F 4

$$$$
=
 OpenBabel11052423213D

 27 31  0  0  1  0  0  0  0  0999 V2000
  161.5780  204.9370  149.1530 N   0  0  0  0  0  0  0  0  0  0  0  0
  161.4210  205.9190  150.2020 C   0  0  0  0  0  0  0  0  0  0  0  0
  160.9340  208.5230  153.3430 N   0  0  0  0  0  0  0  0  0  0  0  0
  160.8470  207.8960  155.7580 C   0  0  0  0  0  1  0  0  0  0  0  0
  161.2840  207.2990  149.9000 C   0  0  0  0  0  3  0  0  0  0  0  0
  161.1430  206.3030  153.8600 N   0  0  0  0  0  2  0  0  0  0  0  0
  161.2090  206.4800  152.5330 C   0  0  0  0  0  0  0  0  0  0  0  0
  160.9760  207.5720  154.3130 C   0  0  0  0  0  0  0  0  0  0  0  0
  161.0850  207.7980  152.2260 C   0  0  0  0  0  0  0  0  0  0  0  0
  161.3780  205.5050  151.5530 C   0  0  0  0  0  3  0  0  0  0  0  0
  161.1160  208.2580  150.9140 C   0  0  0  0  0  3  0  0  0  0  0  0
  161.3630  202.7530  148.1010 N   0  0  0  0  0  0  0  0  0  0  0  0
  160.8920  201.5800  150.1950 C   0  0  1  0  0  3  0  0  0  0  0  0
  160.3130  202.5020  147.1170 C   0  0  0  0  0  1  0  0  0  0  0  0
  161.6530  202.4210  151.2050 C   0  0  0  0  0  2  0  0  0  0  0  0
  160.7880  203.7050  149.0460 C   0  0  1  0  0  3  0  0  0  0  0  0
  161.5210  200.2180  148.1610 C   0  0  0  0  0  1  0  0  0  0  0  0
  159.2960  203.1640  150.9830 F   0  0  0  0  0  0  0  0  0  0  0  0
  160.5360  203.0330  150.3880 C   0  0  1  0  0  0  0  0  0  0  0  0
  161.6700  201.5490  148.8960 C   0  0  1  0  0  3  0  0  0  0  0  0
  162.6000  205.1330  148.1290 C   0  0  0  0  0  2  0  0  0  0  0  0
  160.7470  205.8530  144.3700 N   0  0  0  0  0  0  0  0  0  0  0  0
  161.9620  205.4030  146.8080 C   0  0  0  0  0  0  0  0  0  0  0  0
  162.5340  204.8990  145.6370 C   0  0  0  0  0  3  0  0  0  0  0  0
  161.9050  205.1400  144.4130 C   0  0  0  0  0  3  0  0  0  0  0  0
  160.1720  206.3460  145.5000 C   0  0  0  0  0  3  0  0  0  0  0  0
  160.7690  206.1270  146.7420 C   0  0  0  0  0  3  0  0  0  0  0  0
  1  2  1  0  0  0  0
  2 10  1  0  0  0  0
  3  8  2  0  0  0  0
  5  2  2  0  0  0  0
  5 11  1  0  0  0  0
  6  8  1  0  0  0  0
  7  6  1  0  0  0  0
  8  4  1  0  0  0  0
  9  7  1  0  0  0  0
  9  3  1  0  0  0  0
 10  7  2  0  0  0  0
 11  9  2  0  0  0  0
 12 20  1  0  0  0  0
 12 16  1  0  0  0  0
 13 19  1  0  0  0  0
 13 15  1  1  0  0  0
 14 12  1  0  0  0  0
 16  1  1  1  0  0  0
 16 19  1  0  0  0  0
 19 18  1  1  0  0  0
 19 15  1  0  0  0  0
 20 17  1  6  0  0  0
 20 13  1  0  0  0  0
 21  1  1  0  0  0  0
 22 25  2  0  0  0  0
 22 26  1  0  0  0  0
 23 21  1  0  0  0  0
 24 23  2  0  0  0  0
 25 24  1  0  0  0  0
 26 27  2  0  0  0  0
 27 23  1  0  0  0  0
M  END
>  <MODEL>
3

>  <REMARK>
 VINA RESULT:      -7.3      1.147      1.704
  Name = 
  4 active torsions:
  status: ('A' for Active; 'I' for Inactive)
    1  A    between atoms: N_1  and  C_2
    2  A    between atoms: N_1  and  C_15
    3  A    between atoms: N_1  and  C_18
    4  A    between atoms: C_9  and  C_15
                            x       y       z     vdW  Elec       q    Type
                         _______ _______ _______ _____ _____    ______ ____

>  <TORSDO>
F 4

$$$$
=
 OpenBabel11052423213D

 27 31  0  0  1  0  0  0  0  0999 V2000
  161.4610  206.7960  151.2540 N   0  0  0  0  0  0  0  0  0  0  0  0
  161.1320  207.1560  152.6150 C   0  0  0  0  0  0  0  0  0  0  0  0
  160.1980  208.4160  156.4130 N   0  0  0  0  0  0  0  0  0  0  0  0
  159.5130  210.7290  157.0550 C   0  0  0  0  0  1  0  0  0  0  0  0
  161.2060  206.2020  153.6630 C   0  0  0  0  0  3  0  0  0  0  0  0
  160.0780  209.9780  154.7440 N   0  0  0  0  0  2  0  0  0  0  0  0
  160.4560  208.7920  154.2450 C   0  0  0  0  0  0  0  0  0  0  0  0
  159.9310  209.7020  156.0650 C   0  0  0  0  0  0  0  0  0  0  0  0
  160.5280  207.8650  155.2370 C   0  0  0  0  0  0  0  0  0  0  0  0
  160.7510  208.4830  152.9200 C   0  0  0  0  0  3  0  0  0  0  0  0
  160.9020  206.5490  154.9910 C   0  0  0  0  0  3  0  0  0  0  0  0
  161.2050  205.7470  149.0730 N   0  0  0  0  0  0  0  0  0  0  0  0
  160.8940  203.4970  149.9820 C   0  0  1  0  0  3  0  0  0  0  0  0
  160.0930  206.1120  148.1990 C   0  0  0  0  0  1  0  0  0  0  0  0
  161.7100  203.5580  151.2610 C   0  0  0  0  0  2  0  0  0  0  0  0
  160.6820  205.8640  150.4310 C   0  0  1  0  0  3  0  0  0  0  0  0
  161.4010  203.7470  147.5180 C   0  0  0  0  0  1  0  0  0  0  0  0
  159.3340  204.1490  151.6600 F   0  0  0  0  0  0  0  0  0  0  0  0
  160.5320  204.4860  151.0610 C   0  0  1  0  0  0  0  0  0  0  0  0
  161.5810  204.3290  148.9190 C   0  0  1  0  0  3  0  0  0  0  0  0
  162.6570  207.3550  150.6310 C   0  0  0  0  0  2  0  0  0  0  0  0
  161.9110  211.2630  149.1260 N   0  0  0  0  0  0  0  0  0  0  0  0
  162.3750  208.7230  150.1070 C   0  0  0  0  0  0  0  0  0  0  0  0
  162.3310  209.8140  150.9790 C   0  0  0  0  0  3  0  0  0  0  0  0
  162.0930  211.0900  150.4640 C   0  0  0  0  0  3  0  0  0  0  0  0
  161.9560  210.2140  148.2610 C   0  0  0  0  0  3  0  0  0  0  0  0
  162.1920  208.9230  148.7360 C   0  0  0  0  0  3  0  0  0  0  0  0
  1  2  1  0  0  0  0
  2 10  2  0  0  0  0
  2  5  1  0  0  0  0
  5 11  2  0  0  0  0
  6  8  1  0  0  0  0
  7  6  1  0  0  0  0
  7  9  2  0  0  0  0
  8  3  2  0  0  0  0
  8  4  1  0  0  0  0
  9  3  1  0  0  0  0
 10  7  1  0  0  0  0
 11  9  1  0  0  0  0
 12 16  1  0  0  0  0
 13 19  1  0  0  0  0
 13 15  1  1  0  0  0
 14 12  1  0  0  0  0
 16 19  1  0  0  0  0
 16  1  1  1  0  0  0
 19 15  1  0  0  0  0
 19 18  1  1  0  0  0
 20 17  1  6  0  0  0
 20 12  1  0  0  0  0
 20 13  1  0  0  0  0
 21  1  1  0  0  0  0
 22 25  1  0  0  0  0
 23 21  1  0  0  0  0
 23 24  1  0  0  0  0
 25 24  2  0  0  0  0
 26 27  1  0  0  0  0
 26 22  2  0  0  0  0
 27 23  2  0  0  0  0
M  END
>  <MODEL>
4

>  <REMARK>
 VINA RESULT:      -7.0      2.450      4.454
  Name = 
  4 active torsions:
  status: ('A' for Active; 'I' for Inactive)
    1  A    between atoms: N_1  and  C_2
    2  A    between atoms: N_1  and  C_15
    3  A    between atoms: N_1  and  C_18
    4  A    between atoms: C_9  and  C_15
                            x       y       z     vdW  Elec       q    Type
                         _______ _______ _______ _____ _____    ______ ____

>  <TORSDO>
F 4

$$$$
=
 OpenBabel11052423213D

 27 31  0  0  1  0  0  0  0  0999 V2000
  159.9940  211.0700  153.5570 N   0  0  0  0  0  0  0  0  0  0  0  0
  160.6210  210.1670  152.6190 C   0  0  0  0  0  0  0  0  0  0  0  0
  162.3130  207.4090  150.0860 N   0  0  0  0  0  0  0  0  0  0  0  0
  161.8330  204.9600  150.0650 C   0  0  0  0  0  1  0  0  0  0  0  0
  161.5670  210.6360  151.6710 C   0  0  0  0  0  3  0  0  0  0  0  0
  160.7970  206.6230  151.6100 N   0  0  0  0  0  2  0  0  0  0  0  0
  160.9470  207.9490  151.7450 C   0  0  0  0  0  0  0  0  0  0  0  0
  161.6460  206.3380  150.5890 C   0  0  0  0  0  0  0  0  0  0  0  0
  161.8480  208.4150  150.8390 C   0  0  0  0  0  0  0  0  0  0  0  0
  160.3110  208.7880  152.6540 C   0  0  0  0  0  3  0  0  0  0  0  0
  162.1920  209.7600  150.7660 C   0  0  0  0  0  3  0  0  0  0  0  0
  158.1500  212.2730  154.5960 N   0  0  0  0  0  0  0  0  0  0  0  0
  157.9330  213.8930  152.7770 C   0  0  1  0  0  3  0  0  0  0  0  0
  156.8760  211.6040  154.8510 C   0  0  0  0  0  1  0  0  0  0  0  0
  159.3570  213.9780  152.2590 C   0  0  0  0  0  2  0  0  0  0  0  0
  158.6660  211.6670  153.3720 C   0  0  1  0  0  3  0  0  0  0  0  0
  156.7940  214.3860  154.9790 C   0  0  0  0  0  1  0  0  0  0  0  0
  158.0340  212.2790  151.0270 F   0  0  0  0  0  0  0  0  0  0  0  0
  158.6090  212.6640  152.2230 C   0  0  1  0  0  0  0  0  0  0  0  0
  157.9660  213.7010  154.2790 C   0  0  1  0  0  3  0  0  0  0  0  0
  160.7090  211.4620  154.7680 C   0  0  0  0  0  2  0  0  0  0  0  0
  161.2680  208.0620  157.2610 N   0  0  0  0  0  0  0  0  0  0  0  0
  160.9000  210.2810  155.6590 C   0  0  0  0  0  0  0  0  0  0  0  0
  159.8130  209.4660  155.9880 C   0  0  0  0  0  3  0  0  0  0  0  0
  160.0200  208.3500  156.8010 C   0  0  0  0  0  3  0  0  0  0  0  0
  162.3390  208.8390  156.9470 C   0  0  0  0  0  3  0  0  0  0  0  0
  162.1740  209.9640  156.1360 C   0  0  0  0  0  3  0  0  0  0  0  0
  1 21  1  0  0  0  0
  2 10  1  0  0  0  0
  2  1  1  0  0  0  0
  3  8  2  0  0  0  0
  3  9  1  0  0  0  0
  4  8  1  0  0  0  0
  5  2  2  0  0  0  0
  6  7  1  0  0  0  0
  7 10  2  0  0  0  0
  8  6  1  0  0  0  0
  9  7  1  0  0  0  0
 11  9  2  0  0  0  0
 11  5  1  0  0  0  0
 12 14  1  0  0  0  0
 13 15  1  1  0  0  0
 13 20  1  0  0  0  0
 16  1  1  1  0  0  0
 16 12  1  0  0  0  0
 19 18  1  6  0  0  0
 19 15  1  0  0  0  0
 19 13  1  0  0  0  0
 19 16  1  0  0  0  0
 20 12  1  0  0  0  0
 20 17  1  1  0  0  0
 21 23  1  0  0  0  0
 23 24  2  0  0  0  0
 23 27  1  0  0  0  0
 24 25  1  0  0  0  0
 25 22  2  0  0  0  0
 26 22  1  0  0  0  0
 27 26  2  0  0  0  0
M  END
>  <MODEL>
5

>  <REMARK>
 VINA RESULT:      -6.7      4.211     10.203
  Name = 
  4 active torsions:
  status: ('A' for Active; 'I' for Inactive)
    1  A    between atoms: N_1  and  C_2
    2  A    between atoms: N_1  and  C_15
    3  A    between atoms: N_1  and  C_18
    4  A    between atoms: C_9  and  C_15
                            x       y       z     vdW  Elec       q    Type
                         _______ _______ _______ _____ _____    ______ ____

>  <TORSDO>
F 4

$$$$
=
 OpenBabel11052423213D

 27 31  0  0  1  0  0  0  0  0999 V2000
  161.9620  207.0940  149.4980 N   0  0  0  0  0  0  0  0  0  0  0  0
  161.9110  208.5380  149.5500 C   0  0  0  0  0  0  0  0  0  0  0  0
  161.7820  212.6440  149.4470 N   0  0  0  0  0  0  0  0  0  0  0  0
  161.4700  214.0430  147.4040 C   0  0  0  0  0  1  0  0  0  0  0  0
  162.0600  209.2330  150.7770 C   0  0  0  0  0  3  0  0  0  0  0  0
  161.5470  211.5500  147.4500 N   0  0  0  0  0  2  0  0  0  0  0  0
  161.7040  210.6680  148.4480 C   0  0  0  0  0  0  0  0  0  0  0  0
  161.6000  212.7390  148.1040 C   0  0  0  0  0  0  0  0  0  0  0  0
  161.8440  211.3180  149.6340 C   0  0  0  0  0  0  0  0  0  0  0  0
  161.7330  209.2800  148.3590 C   0  0  0  0  0  3  0  0  0  0  0  0
  162.0270  210.6380  150.8330 C   0  0  0  0  0  3  0  0  0  0  0  0
  161.3960  204.7940  150.0570 N   0  0  0  0  0  0  0  0  0  0  0  0
  161.5150  205.1530  152.4740 C   0  0  1  0  0  3  0  0  0  0  0  0
  160.1010  204.2340  149.6780 C   0  0  0  0  0  1  0  0  0  0  0  0
  162.5550  206.2540  152.5780 C   0  0  0  0  0  2  0  0  0  0  0  0
  161.1420  206.2050  150.3290 C   0  0  1  0  0  3  0  0  0  0  0  0
  161.4970  202.7800  151.6030 C   0  0  0  0  0  1  0  0  0  0  0  0
  160.2540  207.1750  152.4610 F   0  0  0  0  0  0  0  0  0  0  0  0
  161.2670  206.4890  151.8190 C   0  0  1  0  0  0  0  0  0  0  0  0
  161.8860  204.2320  151.3300 C   0  0  1  0  0  3  0  0  0  0  0  0
  162.9000  206.4390  148.5920 C   0  0  0  0  0  2  0  0  0  0  0  0
  160.9250  205.1960  145.0360 N   0  0  0  0  0  0  0  0  0  0  0  0
  162.1950  205.9890  147.3560 C   0  0  0  0  0  0  0  0  0  0  0  0
  160.9990  206.5990  146.9690 C   0  0  0  0  0  3  0  0  0  0  0  0
  160.3710  206.1820  145.7940 C   0  0  0  0  0  3  0  0  0  0  0  0
  162.0920  204.5960  145.3930 C   0  0  0  0  0  3  0  0  0  0  0  0
  162.7510  204.9840  146.5600 C   0  0  0  0  0  3  0  0  0  0  0  0
  1  2  1  0  0  0  0
  2  5  1  0  0  0  0
  3  9  1  0  0  0  0
  4  8  1  0  0  0  0
  5 11  2  0  0  0  0
  6  8  1  0  0  0  0
  6  7  1  0  0  0  0
  7  9  2  0  0  0  0
  8  3  2  0  0  0  0
  9 11  1  0  0  0  0
 10  7  1  0  0  0  0
 10  2  2  0  0  0  0
 12 16  1  0  0  0  0
 12 20  1  0  0  0  0
 13 15  1  1  0  0  0
 14 12  1  0  0  0  0
 16  1  1  6  0  0  0
 16 19  1  0  0  0  0
 19 18  1  1  0  0  0
 19 13  1  0  0  0  0
 19 15  1  0  0  0  0
 20 17  1  1  0  0  0
 20 13  1  0  0  0  0
 21  1  1  0  0  0  0
 22 26  2  0  0  0  0
 22 25  1  0  0  0  0
 23 21  1  0  0  0  0
 24 23  1  0  0  0  0
 25 24  2  0  0  0  0
 26 27  1  0  0  0  0
 27 23  2  0  0  0  0
M  END
>  <MODEL>
6

>  <REMARK>
 VINA RESULT:      -6.6      3.184      4.663
  Name = 
  4 active torsions:
  status: ('A' for Active; 'I' for Inactive)
    1  A    between atoms: N_1  and  C_2
    2  A    between atoms: N_1  and  C_15
    3  A    between atoms: N_1  and  C_18
    4  A    between atoms: C_9  and  C_15
                            x       y       z     vdW  Elec       q    Type
                         _______ _______ _______ _____ _____    ______ ____

>  <TORSDO>
F 4

$$$$
=
 OpenBabel11052423213D

 27 31  0  0  1  0  0  0  0  0999 V2000
  161.5440  206.5510  151.7950 N   0  0  0  0  0  0  0  0  0  0  0  0
  161.3430  205.1720  151.4110 C   0  0  0  0  0  0  0  0  0  0  0  0
  160.7590  201.3280  150.0800 N   0  0  0  0  0  0  0  0  0  0  0  0
  160.8490  200.5780  147.7010 C   0  0  0  0  0  1  0  0  0  0  0  0
  161.0600  204.1750  152.3800 C   0  0  0  0  0  3  0  0  0  0  0  0
  161.2060  202.9170  148.4940 N   0  0  0  0  0  2  0  0  0  0  0  0
  161.1910  203.4700  149.7160 C   0  0  0  0  0  0  0  0  0  0  0  0
  160.9390  201.6130  148.7640 C   0  0  0  0  0  0  0  0  0  0  0  0
  160.9250  202.5260  150.6570 C   0  0  0  0  0  0  0  0  0  0  0  0
  161.4050  204.8050  150.0460 C   0  0  0  0  0  3  0  0  0  0  0  0
  160.8480  202.8340  152.0110 C   0  0  0  0  0  3  0  0  0  0  0  0
  161.6030  208.9670  151.5050 N   0  0  0  0  0  0  0  0  0  0  0  0
  161.8280  208.8580  149.0720 C   0  0  1  0  0  3  0  0  0  0  0  0
  160.4560  209.7890  151.8840 C   0  0  0  0  0  1  0  0  0  0  0  0
  162.5750  207.5500  148.8820 C   0  0  0  0  0  2  0  0  0  0  0  0
  161.0350  207.7040  151.0420 C   0  0  1  0  0  3  0  0  0  0  0  0
  162.3170  211.0480  150.2360 C   0  0  0  0  0  1  0  0  0  0  0  0
  160.1180  207.2300  148.7610 F   0  0  0  0  0  0  0  0  0  0  0  0
  161.2110  207.5640  149.5370 C   0  0  1  0  0  0  0  0  0  0  0  0
  162.3170  209.5240  150.3410 C   0  0  1  0  0  3  0  0  0  0  0  0
  162.3230  206.8600  152.9900 C   0  0  0  0  0  2  0  0  0  0  0  0
  159.8080  208.2150  156.1410 N   0  0  0  0  0  0  0  0  0  0  0  0
  161.4260  207.3410  154.0810 C   0  0  0  0  0  0  0  0  0  0  0  0
  160.4560  206.4910  154.6180 C   0  0  0  0  0  3  0  0  0  0  0  0
  159.6460  206.9530  155.6580 C   0  0  0  0  0  3  0  0  0  0  0  0
  160.7510  209.0550  155.6350 C   0  0  0  0  0  3  0  0  0  0  0  0
  161.5810  208.6310  154.5950 C   0  0  0  0  0  3  0  0  0  0  0  0
  1 21  1  0  0  0  0
  2  1  1  0  0  0  0
  2  5  1  0  0  0  0
  3  9  1  0  0  0  0
  4  8  1  0  0  0  0
  6  8  1  0  0  0  0
  6  7  1  0  0  0  0
  7 10  1  0  0  0  0
  7  9  2  0  0  0  0
  8  3  2  0  0  0  0
  9 11  1  0  0  0  0
 10  2  2  0  0  0  0
 11  5  2  0  0  0  0
 12 14  1  0  0  0  0
 13 15  1  6  0  0  0
 13 19  1  0  0  0  0
 13 20  1  0  0  0  0
 15 19  1  0  0  0  0
 16 12  1  0  0  0  0
 16  1  1  1  0  0  0
 19 18  1  6  0  0  0
 19 16  1  0  0  0  0
 20 17  1  6  0  0  0
 20 12  1  0  0  0  0
 21 23  1  0  0  0  0
 23 27  2  0  0  0  0
 23 24  1  0  0  0  0
 24 25  2  0  0  0  0
 25 22  1  0  0  0  0
 26 22  2  0  0  0  0
 27 26  1  0  0  0  0
M  END
>  <MODEL>
7

>  <REMARK>
 VINA RESULT:      -6.5      2.654      7.608
  Name = 
  4 active torsions:
  status: ('A' for Active; 'I' for Inactive)
    1  A    between atoms: N_1  and  C_2
    2  A    between atoms: N_1  and  C_15
    3  A    between atoms: N_1  and  C_18
    4  A    between atoms: C_9  and  C_15
                            x       y       z     vdW  Elec       q    Type
                         _______ _______ _______ _____ _____    ______ ____

>  <TORSDO>
F 4

$$$$
=
 OpenBabel11052423213D

 27 31  0  0  1  0  0  0  0  0999 V2000
  160.5480  210.8010  153.7460 N   0  0  0  0  0  0  0  0  0  0  0  0
  160.9500  209.8610  152.7240 C   0  0  0  0  0  0  0  0  0  0  0  0
  162.0200  207.0040  149.9700 N   0  0  0  0  0  0  0  0  0  0  0  0
  161.4190  204.5840  150.0700 C   0  0  0  0  0  1  0  0  0  0  0  0
  161.7340  210.2740  151.6160 C   0  0  0  0  0  3  0  0  0  0  0  0
  160.7620  206.3070  151.7510 N   0  0  0  0  0  2  0  0  0  0  0  0
  161.0020  207.6240  151.8380 C   0  0  0  0  0  0  0  0  0  0  0  0
  161.3990  205.9720  150.6000 C   0  0  0  0  0  0  0  0  0  0  0  0
  161.7480  208.0370  150.7800 C   0  0  0  0  0  0  0  0  0  0  0  0
  160.5810  208.5000  152.8340 C   0  0  0  0  0  3  0  0  0  0  0  0
  162.1420  209.3620  150.6260 C   0  0  0  0  0  3  0  0  0  0  0  0
  160.4440  209.0650  155.4490 N   0  0  0  0  0  0  0  0  0  0  0  0
  162.2410  210.0240  156.8040 C   0  0  1  0  0  3  0  0  0  0  0  0
  159.2350  208.8790  156.2470 C   0  0  0  0  0  1  0  0  0  0  0  0
  163.0990  210.7060  155.7540 C   0  0  0  0  0  2  0  0  0  0  0  0
  160.5120  210.4990  155.1820 C   0  0  1  0  0  3  0  0  0  0  0  0
  161.5190  207.6450  157.2610 C   0  0  0  0  0  1  0  0  0  0  0  0
  161.4190  212.2590  156.7150 F   0  0  0  0  0  0  0  0  0  0  0  0
  161.6600  211.1290  155.9580 C   0  0  1  0  0  0  0  0  0  0  0  0
  161.6630  208.7520  156.2190 C   0  0  1  0  0  3  0  0  0  0  0  0
  160.1130  212.1400  153.3620 C   0  0  0  0  0  2  0  0  0  0  0  0
  156.4750  213.0860  155.3510 N   0  0  0  0  0  0  0  0  0  0  0  0
  158.8310  212.4820  154.0420 C   0  0  0  0  0  0  0  0  0  0  0  0
  157.7260  211.6340  153.9230 C   0  0  0  0  0  3  0  0  0  0  0  0
  156.5430  211.9590  154.5920 C   0  0  0  0  0  3  0  0  0  0  0  0
  157.5420  213.9190  155.4840 C   0  0  0  0  0  3  0  0  0  0  0  0
  158.7420  213.6310  154.8320 C   0  0  0  0  0  3  0  0  0  0  0  0
  2 10  1  0  0  0  0
  2  1  1  0  0  0  0
  3  8  2  0  0  0  0
  3  9  1  0  0  0  0
  4  8  1  0  0  0  0
  5  2  2  0  0  0  0
  6  7  1  0  0  0  0
  7 10  2  0  0  0  0
  8  6  1  0  0  0  0
  9  7  1  0  0  0  0
 11  9  2  0  0  0  0
 11  5  1  0  0  0  0
 12 20  1  0  0  0  0
 12 14  1  0  0  0  0
 13 15  1  6  0  0  0
 15 19  1  0  0  0  0
 16  1  1  6  0  0  0
 16 12  1  0  0  0  0
 16 19  1  0  0  0  0
 19 18  1  1  0  0  0
 19 13  1  0  0  0  0
 20 13  1  0  0  0  0
 20 17  1  1  0  0  0
 21  1  1  0  0  0  0
 21 23  1  0  0  0  0
 22 26  1  0  0  0  0
 23 27  1  0  0  0  0
 24 23  2  0  0  0  0
 24 25  1  0  0  0  0
 25 22  2  0  0  0  0
 27 26  2  0  0  0  0
M  END
>  <MODEL>
8

>  <REMARK>
 VINA RESULT:      -6.5      4.277      9.666
  Name = 
  4 active torsions:
  status: ('A' for Active; 'I' for Inactive)
    1  A    between atoms: N_1  and  C_2
    2  A    between atoms: N_1  and  C_15
    3  A    between atoms: N_1  and  C_18
    4  A    between atoms: C_9  and  C_15
                            x       y       z     vdW  Elec       q    Type
                         _______ _______ _______ _____ _____    ______ ____

>  <TORSDO>
F 4

$$$$
=
 OpenBabel11052423213D

 27 31  0  0  1  0  0  0  0  0999 V2000
  161.2370  205.8780  149.7580 N   0  0  0  0  0  0  0  0  0  0  0  0
  161.6430  205.6460  148.3900 C   0  0  0  0  0  0  0  0  0  0  0  0
  162.5680  205.0600  144.4300 N   0  0  0  0  0  0  0  0  0  0  0  0
  161.2060  205.8280  142.4840 C   0  0  0  0  0  1  0  0  0  0  0  0
  162.8370  204.9420  148.0900 C   0  0  0  0  0  3  0  0  0  0  0  0
  160.6310  206.1920  144.8850 N   0  0  0  0  0  2  0  0  0  0  0  0
  161.2470  205.8470  146.0250 C   0  0  0  0  0  0  0  0  0  0  0  0
  161.4700  205.6930  143.9410 C   0  0  0  0  0  0  0  0  0  0  0  0
  162.3980  205.1750  145.7540 C   0  0  0  0  0  0  0  0  0  0  0  0
  160.8300  206.1040  147.3270 C   0  0  0  0  0  3  0  0  0  0  0  0
  163.2300  204.6990  146.7610 C   0  0  0  0  0  3  0  0  0  0  0  0
  161.0860  208.1040  150.7320 N   0  0  0  0  0  0  0  0  0  0  0  0
  161.5890  207.3500  153.0040 C   0  0  1  0  0  3  0  0  0  0  0  0
  162.0070  209.1590  150.3190 C   0  0  0  0  0  1  0  0  0  0  0  0
  161.0310  205.9390  152.9990 C   0  0  0  0  0  2  0  0  0  0  0  0
  161.8560  206.8660  150.6500 C   0  0  1  0  0  3  0  0  0  0  0  0
  160.6200  209.6630  152.6830 C   0  0  0  0  0  1  0  0  0  0  0  0
  163.4330  205.9760  152.3800 F   0  0  0  0  0  0  0  0  0  0  0  0
  162.1390  206.3250  152.0440 C   0  0  1  0  0  0  0  0  0  0  0  0
  160.7030  208.2340  152.1500 C   0  0  1  0  0  3  0  0  0  0  0  0
  160.1640  205.0760  150.3370 C   0  0  0  0  0  2  0  0  0  0  0  0
  161.2060  200.9580  150.1350 N   0  0  0  0  0  0  0  0  0  0  0  0
  160.5100  203.6270  150.2740 C   0  0  0  0  0  0  0  0  0  0  0  0
  160.1740  202.8730  149.1460 C   0  0  0  0  0  3  0  0  0  0  0  0
  160.5330  201.5250  149.0970 C   0  0  0  0  0  3  0  0  0  0  0  0
  161.5470  201.6770  151.2380 C   0  0  0  0  0  3  0  0  0  0  0  0
  161.2070  203.0280  151.3270 C   0  0  0  0  0  3  0  0  0  0  0  0
  1 21  1  0  0  0  0
  2  1  1  0  0  0  0
  3  9  1  0  0  0  0
  4  8  1  0  0  0  0
  5  2  1  0  0  0  0
  6  7  1  0  0  0  0
  7 10  1  0  0  0  0
  8  3  2  0  0  0  0
  8  6  1  0  0  0  0
  9  7  2  0  0  0  0
  9 11  1  0  0  0  0
 10  2  2  0  0  0  0
 11  5  2  0  0  0  0
 12 20  1  0  0  0  0
 13 15  1  1  0  0  0
 14 12  1  0  0  0  0
 16  1  1  6  0  0  0
 16 12  1  0  0  0  0
 16 19  1  0  0  0  0
 19 18  1  1  0  0  0
 19 15  1  0  0  0  0
 19 13  1  0  0  0  0
 20 17  1  1  0  0  0
 20 13  1  0  0  0  0
 22 26  1  0  0  0  0
 23 21  1  0  0  0  0
 23 27  1  0  0  0  0
 24 23  2  0  0  0  0
 25 24  1  0  0  0  0
 25 22  2  0  0  0  0
 26 27  2  0  0  0  0
M  END
>  <MODEL>
9

>  <REMARK>
 VINA RESULT:      -6.4      1.931      6.767
  Name = 
  4 active torsions:
  status: ('A' for Active; 'I' for Inactive)
    1  A    between atoms: N_1  and  C_2
    2  A    between atoms: N_1  and  C_15
    3  A    between atoms: N_1  and  C_18
    4  A    between atoms: C_9  and  C_15
                            x       y       z     vdW  Elec       q    Type
                         _______ _______ _______ _____ _____    ______ ____

>  <TORSDO>
F 4

$$$$
