=
 OpenBabel11052422323D

 31 35  0  0  1  0  0  0  0  0999 V2000
  159.8100  213.2800  151.5100 C   0  0  0  0  0  0  0  0  0  0  0  0
  160.9470  209.8450  152.6440 C   0  0  1  0  0  3  0  0  0  0  0  0
  162.1300  210.1380  153.5580 C   0  0  0  0  0  2  0  0  0  0  0  0
  162.2820  210.4750  156.0060 C   0  0  0  0  0  3  0  0  0  0  0  0
  160.6790  211.0500  151.7900 C   0  0  0  0  0  0  0  0  0  0  0  0
  160.3390  213.3220  150.2570 N   0  0  0  0  0  0  0  0  0  0  0  0
  161.8510  209.7670  154.9790 C   0  0  0  0  0  0  0  0  0  0  0  0
  161.9440  208.8430  150.5530 C   0  0  0  0  0  0  0  0  0  0  0  0
  159.0960  214.4000  152.0180 N   0  0  0  0  0  1  0  0  0  0  0  0
  161.4530  206.9610  153.5690 C   0  0  0  0  0  2  0  0  0  0  0  0
  161.9350  209.7330  157.2600 C   0  0  0  0  0  2  0  0  0  0  0  0
  161.9060  209.9900  149.9420 N   0  0  0  0  0  0  0  0  0  0  0  0
  161.2620  208.6760  151.8140 N   0  0  0  0  0  0  0  0  0  0  0  0
  159.9780  212.1430  152.3040 C   0  0  0  0  0  3  0  0  0  0  0  0
  161.2900  208.5160  156.7800 N   0  0  0  0  0  0  0  0  0  0  0  0
  161.2140  211.1140  150.4950 C   0  0  0  0  0  0  0  0  0  0  0  0
  161.0300  212.2720  149.7370 C   0  0  0  0  0  3  0  0  0  0  0  0
  160.8250  207.3500  152.2390 C   0  0  0  0  0  2  0  0  0  0  0  0
  161.2680  208.5360  155.4920 C   0  0  0  0  0  0  0  0  0  0  0  0
  160.5810  207.4710  154.7020 C   0  0  0  0  0  2  0  0  0  0  0  0
  162.6370  207.6940  149.8920 C   0  0  0  0  0  2  0  0  0  0  0  0
  161.3000  207.9150  147.9440 O   0  0  0  0  0  0  0  0  0  0  0  0
  161.7930  207.1270  148.7940 C   0  0  0  0  0  0  0  0  0  0  0  0
  161.0980  202.8880  148.6460 C   0  0  0  0  0  0  0  0  0  0  0  0
  161.0740  204.9920  149.8320 C   0  0  0  0  0  3  0  0  0  0  0  0
  162.3690  205.6470  146.0220 Cl  0  0  0  0  0  0  0  0  0  0  0  0
  160.8080  201.1640  148.6110 Cl  0  0  0  0  0  0  0  0  0  0  0  0
  160.8420  203.6160  149.8080 C   0  0  0  0  0  3  0  0  0  0  0  0
  161.8160  204.9170  147.5230 C   0  0  0  0  0  0  0  0  0  0  0  0
  161.5630  205.6640  148.7010 C   0  0  0  0  0  0  0  0  0  0  0  0
  161.5780  203.5390  147.5090 C   0  0  0  0  0  3  0  0  0  0  0  0
  1  9  1  0  0  0  0
  1 14  1  0  0  0  0
  2  3  1  1  0  0  0
  3  7  1  0  0  0  0
  4 11  1  0  0  0  0
  5 14  2  0  0  0  0
  5  2  1  0  0  0  0
  6  1  2  0  0  0  0
  7 19  1  0  0  0  0
  7  4  2  0  0  0  0
  8 13  1  0  0  0  0
 10 20  1  0  0  0  0
 12 16  1  0  0  0  0
 12  8  2  0  0  0  0
 13 18  1  0  0  0  0
 13  2  1  0  0  0  0
 15 11  1  0  0  0  0
 16  5  1  0  0  0  0
 17  6  1  0  0  0  0
 17 16  2  0  0  0  0
 18 10  1  0  0  0  0
 19 15  2  0  0  0  0
 20 19  1  0  0  0  0
 21  8  1  0  0  0  0
 22 23  2  0  0  0  0
 23 21  1  0  0  0  0
 24 28  1  0  0  0  0
 26 29  1  0  0  0  0
 27 24  1  0  0  0  0
 28 25  2  0  0  0  0
 29 30  2  0  0  0  0
 30 23  1  0  0  0  0
 30 25  1  0  0  0  0
 31 29  1  0  0  0  0
 31 24  2  0  0  0  0
M  END
>  <MODEL>
1

>  <REMARK>
 VINA RESULT:      -9.0      0.000      0.000
  Name = 
  3 active torsions:
  status: ('A' for Active; 'I' for Inactive)
    1  A    between atoms: C_9  and  C_22
    2  A    between atoms: C_9  and  C_23
    3  A    between atoms: C_15  and  C_23
                            x       y       z     vdW  Elec       q    Type
                         _______ _______ _______ _____ _____    ______ ____

>  <TORSDO>
F 3

$$$$
=
 OpenBabel11052422323D

 31 35  0  0  1  0  0  0  0  0999 V2000
  161.9900  210.1940  155.6260 C   0  0  0  0  0  0  0  0  0  0  0  0
  161.5290  210.1340  151.8630 C   0  0  1  0  0  3  0  0  0  0  0  0
  160.2480  210.9270  151.6410 C   0  0  0  0  0  2  0  0  0  0  0  0
  159.8500  213.3260  151.1760 C   0  0  0  0  0  3  0  0  0  0  0  0
  161.5960  209.7040  153.2990 C   0  0  0  0  0  0  0  0  0  0  0  0
  161.5560  208.9460  155.9550 N   0  0  0  0  0  0  0  0  0  0  0  0
  160.4950  212.2050  150.9080 C   0  0  2  0  0  3  0  0  0  0  0  0
  160.9220  207.7290  151.3900 C   0  0  0  0  0  0  0  0  0  0  0  0
  162.4110  211.0920  156.6450 N   0  0  0  0  0  1  0  0  0  0  0  0
  161.5810  210.1160  148.7930 C   0  0  0  0  0  2  0  0  0  0  0  0
  160.2550  214.3480  150.1590 C   0  0  0  0  0  3  0  0  0  0  0  0
  160.7600  207.4830  152.6560 N   0  0  0  0  0  0  0  0  0  0  0  0
  161.5300  208.9680  150.9690 N   0  0  0  0  0  0  0  0  0  0  0  0
  162.0100  210.5990  154.2890 C   0  0  0  0  0  3  0  0  0  0  0  0
  161.1760  213.6300  149.2870 N   0  0  0  0  0  0  0  0  0  0  0  0
  161.1560  208.4220  153.6610 C   0  0  0  0  0  0  0  0  0  0  0  0
  161.1440  208.0600  155.0090 C   0  0  0  0  0  3  0  0  0  0  0  0
  162.2070  209.0500  149.6780 C   0  0  0  0  0  2  0  0  0  0  0  0
  161.2870  212.4170  149.7050 C   0  0  0  0  0  0  0  0  0  0  0  0
  162.2400  211.4530  149.0780 C   0  0  0  0  0  2  0  0  0  0  0  0
  160.5380  206.6810  150.3950 C   0  0  0  0  0  2  0  0  0  0  0  0
  162.1400  205.3830  151.5710 O   0  0  0  0  0  0  0  0  0  0  0  0
  161.3680  205.4480  150.5780 C   0  0  0  0  0  0  0  0  0  0  0  0
  161.0350  202.1080  147.8930 C   0  0  0  0  0  0  0  0  0  0  0  0
  160.8300  203.0740  150.0970 C   0  0  0  0  0  3  0  0  0  0  0  0
  162.0730  205.9660  147.5050 Cl  0  0  0  0  0  0  0  0  0  0  0  0
  160.8920  200.7340  146.8210 Cl  0  0  0  0  0  0  0  0  0  0  0  0
  160.7160  201.9760  149.2450 C   0  0  0  0  0  3  0  0  0  0  0  0
  161.5800  204.4480  148.2420 C   0  0  0  0  0  0  0  0  0  0  0  0
  161.2630  204.3210  149.6180 C   0  0  0  0  0  0  0  0  0  0  0  0
  161.4610  203.3400  147.3960 C   0  0  0  0  0  3  0  0  0  0  0  0
  1  6  1  0  0  0  0
  1  9  1  0  0  0  0
  2  3  1  1  0  0  0
  2  5  1  0  0  0  0
  5 16  2  0  0  0  0
  5 14  1  0  0  0  0
  7  4  1  6  0  0  0
  7  3  1  0  0  0  0
  8 12  2  0  0  0  0
 10 20  1  0  0  0  0
 10 18  1  0  0  0  0
 11  4  2  0  0  0  0
 12 16  1  0  0  0  0
 13  8  1  0  0  0  0
 13  2  1  0  0  0  0
 14  1  2  0  0  0  0
 15 19  2  0  0  0  0
 15 11  1  0  0  0  0
 16 17  1  0  0  0  0
 17  6  2  0  0  0  0
 18 13  1  0  0  0  0
 19  7  1  0  0  0  0
 20 19  1  0  0  0  0
 21 23  1  0  0  0  0
 21  8  1  0  0  0  0
 23 22  2  0  0  0  0
 24 28  1  0  0  0  0
 26 29  1  0  0  0  0
 27 24  1  0  0  0  0
 28 25  2  0  0  0  0
 29 30  2  0  0  0  0
 30 25  1  0  0  0  0
 30 23  1  0  0  0  0
 31 24  2  0  0  0  0
 31 29  1  0  0  0  0
M  END
>  <MODEL>
2

>  <REMARK>
 VINA RESULT:      -8.0      1.503      4.560
  Name = 
  3 active torsions:
  status: ('A' for Active; 'I' for Inactive)
    1  A    between atoms: C_9  and  C_22
    2  A    between atoms: C_9  and  C_23
    3  A    between atoms: C_15  and  C_23
                            x       y       z     vdW  Elec       q    Type
                         _______ _______ _______ _____ _____    ______ ____

>  <TORSDO>
F 3

$$$$
=
 OpenBabel11052422323D

 31 35  0  0  1  0  0  0  0  0999 V2000
  160.9760  210.1360  156.0240 C   0  0  0  0  0  0  0  0  0  0  0  0
  160.8690  210.8600  152.3030 C   0  0  1  0  0  3  0  0  0  0  0  0
  159.3880  211.0780  152.0190 C   0  0  0  0  0  2  0  0  0  0  0  0
  157.9980  213.1270  151.9760 C   0  0  0  0  0  3  0  0  0  0  0  0
  161.0140  210.1440  153.6140 C   0  0  0  0  0  0  0  0  0  0  0  0
  161.1220  208.7830  156.0150 N   0  0  0  0  0  0  0  0  0  0  0  0
  159.0920  212.4850  151.6110 C   0  0  2  0  0  3  0  0  0  0  0  0
  161.4330  208.6310  151.2610 C   0  0  0  0  0  0  0  0  0  0  0  0
  160.8770  210.8330  157.2590 N   0  0  0  0  0  1  0  0  0  0  0  0
  161.1480  211.6560  149.3510 C   0  0  0  0  0  2  0  0  0  0  0  0
  157.9780  214.4490  151.2720 C   0  0  0  0  0  3  0  0  0  0  0  0
  161.3050  208.0240  152.4030 N   0  0  0  0  0  0  0  0  0  0  0  0
  161.4540  210.0740  151.2110 N   0  0  0  0  0  0  0  0  0  0  0  0
  160.9120  210.8420  154.8190 C   0  0  0  0  0  3  0  0  0  0  0  0
  159.1850  214.4280  150.4530 N   0  0  0  0  0  0  0  0  0  0  0  0
  161.1660  208.7500  153.6290 C   0  0  0  0  0  0  0  0  0  0  0  0
  161.2180  208.0820  154.8540 C   0  0  0  0  0  3  0  0  0  0  0  0
  162.1170  210.7580  150.1040 C   0  0  0  0  0  2  0  0  0  0  0  0
  159.7930  213.3080  150.6350 C   0  0  0  0  0  0  0  0  0  0  0  0
  161.1190  213.0230  150.0090 C   0  0  0  0  0  2  0  0  0  0  0  0
  161.6310  207.8130  150.0250 C   0  0  0  0  0  2  0  0  0  0  0  0
  163.4140  206.5580  150.9620 O   0  0  0  0  0  0  0  0  0  0  0  0
  162.3140  206.5210  150.3490 C   0  0  0  0  0  0  0  0  0  0  0  0
  160.5160  202.7390  149.3820 C   0  0  0  0  0  0  0  0  0  0  0  0
  161.3020  204.3520  150.9990 C   0  0  0  0  0  3  0  0  0  0  0  0
  161.8680  205.8620  147.2550 Cl  0  0  0  0  0  0  0  0  0  0  0  0
  159.7820  201.1950  149.0150 Cl  0  0  0  0  0  0  0  0  0  0  0  0
  160.7170  203.1180  150.7090 C   0  0  0  0  0  3  0  0  0  0  0  0
  161.4800  204.8350  148.6280 C   0  0  0  0  0  0  0  0  0  0  0  0
  161.6940  205.2270  149.9730 C   0  0  0  0  0  0  0  0  0  0  0  0
  160.8920  203.5970  148.3480 C   0  0  0  0  0  3  0  0  0  0  0  0
  1  9  1  0  0  0  0
  2  3  1  6  0  0  0
  2  5  1  0  0  0  0
  5 16  2  0  0  0  0
  5 14  1  0  0  0  0
  6  1  1  0  0  0  0
  7  4  1  6  0  0  0
  7  3  1  0  0  0  0
  8 12  2  0  0  0  0
 10 20  1  0  0  0  0
 10 18  1  0  0  0  0
 11  4  2  0  0  0  0
 12 16  1  0  0  0  0
 13  8  1  0  0  0  0
 13  2  1  0  0  0  0
 14  1  2  0  0  0  0
 15 19  2  0  0  0  0
 15 11  1  0  0  0  0
 16 17  1  0  0  0  0
 17  6  2  0  0  0  0
 18 13  1  0  0  0  0
 19  7  1  0  0  0  0
 20 19  1  0  0  0  0
 21 23  1  0  0  0  0
 21  8  1  0  0  0  0
 23 22  2  0  0  0  0
 24 28  1  0  0  0  0
 26 29  1  0  0  0  0
 27 24  1  0  0  0  0
 28 25  2  0  0  0  0
 29 30  2  0  0  0  0
 30 23  1  0  0  0  0
 30 25  1  0  0  0  0
 31 29  1  0  0  0  0
 31 24  2  0  0  0  0
M  END
>  <MODEL>
3

>  <REMARK>
 VINA RESULT:      -6.3      1.406      4.538
  Name = 
  3 active torsions:
  status: ('A' for Active; 'I' for Inactive)
    1  A    between atoms: C_9  and  C_22
    2  A    between atoms: C_9  and  C_23
    3  A    between atoms: C_15  and  C_23
                            x       y       z     vdW  Elec       q    Type
                         _______ _______ _______ _____ _____    ______ ____

>  <TORSDO>
F 3

$$$$
=
 OpenBabel11052422323D

 31 35  0  0  1  0  0  0  0  0999 V2000
  161.5280  209.8900  156.0090 C   0  0  0  0  0  0  0  0  0  0  0  0
  161.0710  210.7080  152.3340 C   0  0  1  0  0  3  0  0  0  0  0  0
  159.5820  211.0010  152.2100 C   0  0  0  0  0  2  0  0  0  0  0  0
  158.2960  213.1120  152.3520 C   0  0  0  0  0  3  0  0  0  0  0  0
  161.3170  209.9540  153.6080 C   0  0  0  0  0  0  0  0  0  0  0  0
  161.6060  208.5330  155.9590 N   0  0  0  0  0  0  0  0  0  0  0  0
  159.3140  212.4290  151.8620 C   0  0  2  0  0  3  0  0  0  0  0  0
  161.4160  208.4810  151.1970 C   0  0  0  0  0  0  0  0  0  0  0  0
  161.5920  210.5610  157.2610 N   0  0  0  0  0  1  0  0  0  0  0  0
  161.0820  211.5600  149.3850 C   0  0  0  0  0  2  0  0  0  0  0  0
  158.2670  214.4500  151.6790 C   0  0  0  0  0  3  0  0  0  0  0  0
  161.3770  207.8530  152.3340 N   0  0  0  0  0  0  0  0  0  0  0  0
  161.5020  209.9210  151.1720 N   0  0  0  0  0  0  0  0  0  0  0  0
  161.3740  210.6270  154.8310 C   0  0  0  0  0  3  0  0  0  0  0  0
  159.3800  214.3930  150.7390 N   0  0  0  0  0  0  0  0  0  0  0  0
  161.4020  208.5550  153.5810 C   0  0  0  0  0  0  0  0  0  0  0  0
  161.5470  207.8550  154.7810 C   0  0  0  0  0  3  0  0  0  0  0  0
  162.0780  210.6000  150.0150 C   0  0  0  0  0  2  0  0  0  0  0  0
  159.9490  213.2420  150.8350 C   0  0  0  0  0  0  0  0  0  0  0  0
  161.1880  212.9110  150.0680 C   0  0  0  0  0  2  0  0  0  0  0  0
  161.4450  207.6840  149.9310 C   0  0  0  0  0  2  0  0  0  0  0  0
  160.7370  205.9280  151.3630 O   0  0  0  0  0  0  0  0  0  0  0  0
  161.0820  206.2560  150.1960 C   0  0  0  0  0  0  0  0  0  0  0  0
  161.1530  203.4550  146.9380 C   0  0  0  0  0  0  0  0  0  0  0  0
  161.1380  205.7200  147.7750 C   0  0  0  0  0  3  0  0  0  0  0  0
  161.1350  203.1490  150.9400 Cl  0  0  0  0  0  0  0  0  0  0  0  0
  161.1810  202.3350  145.5940 Cl  0  0  0  0  0  0  0  0  0  0  0  0
  161.1600  204.8290  146.7010 C   0  0  0  0  0  3  0  0  0  0  0  0
  161.1070  203.8580  149.3310 C   0  0  0  0  0  0  0  0  0  0  0  0
  161.1090  205.2560  149.1000 C   0  0  0  0  0  0  0  0  0  0  0  0
  161.1310  202.9740  148.2470 C   0  0  0  0  0  3  0  0  0  0  0  0
  1  9  1  0  0  0  0
  2  3  1  6  0  0  0
  2  5  1  0  0  0  0
  5 14  1  0  0  0  0
  6  1  1  0  0  0  0
  7  3  1  6  0  0  0
  7  4  1  0  0  0  0
  8 12  2  0  0  0  0
 10 18  1  0  0  0  0
 10 20  1  0  0  0  0
 11  4  2  0  0  0  0
 12 16  1  0  0  0  0
 13  8  1  0  0  0  0
 13  2  1  0  0  0  0
 14  1  2  0  0  0  0
 15 19  2  0  0  0  0
 15 11  1  0  0  0  0
 16  5  2  0  0  0  0
 16 17  1  0  0  0  0
 17  6  2  0  0  0  0
 18 13  1  0  0  0  0
 19  7  1  0  0  0  0
 20 19  1  0  0  0  0
 21 23  1  0  0  0  0
 21  8  1  0  0  0  0
 23 22  2  0  0  0  0
 24 31  1  0  0  0  0
 25 30  2  0  0  0  0
 27 24  1  0  0  0  0
 28 24  2  0  0  0  0
 28 25  1  0  0  0  0
 29 26  1  0  0  0  0
 30 29  1  0  0  0  0
 30 23  1  0  0  0  0
 31 29  2  0  0  0  0
M  END
>  <MODEL>
4

>  <REMARK>
 VINA RESULT:      -6.3      1.523      4.694
  Name = 
  3 active torsions:
  status: ('A' for Active; 'I' for Inactive)
    1  A    between atoms: C_9  and  C_22
    2  A    between atoms: C_9  and  C_23
    3  A    between atoms: C_15  and  C_23
                            x       y       z     vdW  Elec       q    Type
                         _______ _______ _______ _____ _____    ______ ____

>  <TORSDO>
F 3

$$$$
