=
 OpenBabel11052423123D

 27 31  0  0  1  0  0  0  0  0999 V2000
  158.2490  212.4890  153.0920 C   0  0  0  0  0  3  0  0  0  0  0  0
  160.3240  211.2320  152.7570 C   0  0  0  0  0  0  0  0  0  0  0  0
  160.3640  211.8170  155.1430 N   0  0  0  0  0  0  0  0  0  0  0  0
  161.2650  206.9880  154.0550 S   0  0  0  0  0  0  0  0  0  0  0  0
  159.4710  207.6020  156.0310 C   0  0  0  0  0  1  0  0  0  0  0  0
  160.7230  210.2860  151.6410 C   0  0  0  0  0  2  0  0  0  0  0  0
  161.3590  209.1450  155.6530 C   0  0  0  0  0  0  0  0  0  0  0  0
  157.7520  212.7210  157.2610 C   0  0  0  0  0  2  0  0  0  0  0  0
  161.5690  209.7710  156.6810 O   0  0  0  0  0  0  0  0  0  0  0  0
  156.6050  213.1370  156.3380 C   0  0  2  0  0  3  0  0  0  0  0  0
  161.5890  209.7500  154.3020 C   0  0  1  0  0  3  0  0  0  0  0  0
  159.5920  212.5120  152.4360 C   0  0  1  0  0  3  0  0  0  0  0  0
  160.9470  207.7080  155.6980 C   0  0  2  0  0  3  0  0  0  0  0  0
  161.2770  208.6300  153.3560 C   0  0  0  0  0  0  0  0  0  0  0  0
  158.1180  212.5160  154.4160 C   0  0  0  0  0  0  0  0  0  0  0  0
  160.6970  210.9560  154.0330 C   0  0  0  0  0  0  0  0  0  0  0  0
  159.0870  213.1670  156.6680 C   0  0  0  0  0  2  0  0  0  0  0  0
  160.8080  208.8700  152.1290 C   0  0  0  0  0  3  0  0  0  0  0  0
  155.3470  212.6340  156.8580 N   0  0  0  0  0  1  0  0  0  0  0  0
  156.8090  212.6380  154.9780 N   0  0  0  0  0  2  0  0  0  0  0  0
  159.2810  212.5170  155.3370 C   0  0  0  0  0  0  0  0  0  0  0  0
  159.3570  214.0010  148.3890 C   0  0  0  0  0  2  0  0  0  0  0  0
  159.4940  212.8370  150.9340 C   0  0  2  0  0  3  0  0  0  0  0  0
  160.4960  213.8970  150.5540 C   0  0  0  0  0  3  0  0  0  0  0  0
  160.4260  214.4530  149.3400 C   0  0  0  0  0  3  0  0  0  0  0  0
  158.0010  213.8870  149.1020 C   0  0  0  0  0  2  0  0  0  0  0  0
  158.0850  213.3220  150.5370 C   0  0  0  0  0  2  0  0  0  0  0  0
  1 15  2  0  0  0  0
  2 16  2  0  0  0  0
  3 21  2  0  0  0  0
  4 13  1  0  0  0  0
  6 18  1  0  0  0  0
  6  2  1  0  0  0  0
  7 13  1  0  0  0  0
  7  9  2  0  0  0  0
 10 19  1  1  0  0  0
 10  8  1  0  0  0  0
 11 14  1  6  0  0  0
 11  7  1  0  0  0  0
 12  2  1  0  0  0  0
 12  1  1  6  0  0  0
 13  5  1  6  0  0  0
 14  4  1  0  0  0  0
 15 20  1  0  0  0  0
 15 21  1  0  0  0  0
 16 11  1  0  0  0  0
 16  3  1  0  0  0  0
 17  8  1  0  0  0  0
 18 14  2  0  0  0  0
 20 10  1  0  0  0  0
 21 17  1  0  0  0  0
 22 26  1  0  0  0  0
 22 25  1  0  0  0  0
 23 27  1  1  0  0  0
 23 12  1  0  0  0  0
 24 23  1  0  0  0  0
 25 24  2  0  0  0  0
 26 27  1  0  0  0  0
M  END
>  <MODEL>
1

>  <REMARK>
 VINA RESULT:      -5.5      0.000      0.000
  Name = 
  1 active torsions:
  status: ('A' for Active; 'I' for Inactive)
    1  A    between atoms: C_9  and  C_15
                            x       y       z     vdW  Elec       q    Type
                         _______ _______ _______ _____ _____    ______ ____

>  <TORSDO>
F 1

$$$$
=
 OpenBabel11052423123D

 27 31  0  0  1  0  0  0  0  0999 V2000
  160.6700  207.9830  151.3980 C   0  0  0  0  0  3  0  0  0  0  0  0
  161.1190  210.3740  151.6830 C   0  0  0  0  0  0  0  0  0  0  0  0
  162.5260  209.7310  149.7750 N   0  0  0  0  0  0  0  0  0  0  0  0
  159.6690  213.8200  149.1120 S   0  0  0  0  0  0  0  0  0  0  0  0
  159.7110  211.8870  147.1720 C   0  0  0  0  0  1  0  0  0  0  0  0
  160.3200  211.4370  152.4130 C   0  0  0  0  0  2  0  0  0  0  0  0
  161.7490  212.2250  148.5220 C   0  0  0  0  0  0  0  0  0  0  0  0
  162.2670  206.9960  147.6360 C   0  0  0  0  0  2  0  0  0  0  0  0
  162.7140  211.8280  147.8860 O   0  0  0  0  0  0  0  0  0  0  0  0
  161.3740  205.9920  148.3650 C   0  0  2  0  0  3  0  0  0  0  0  0
  161.6960  212.1260  150.0160 C   0  0  1  0  0  3  0  0  0  0  0  0
  161.2900  209.0060  152.2950 C   0  0  1  0  0  3  0  0  0  0  0  0
  160.6080  212.9120  147.8410 C   0  0  2  0  0  3  0  0  0  0  0  0
  160.3940  212.7780  150.3680 C   0  0  0  0  0  0  0  0  0  0  0  0
  161.1660  207.7220  150.1920 C   0  0  0  0  0  0  0  0  0  0  0  0
  161.7400  210.6880  150.5180 C   0  0  0  0  0  0  0  0  0  0  0  0
  163.1700  207.7150  148.6360 C   0  0  0  0  0  2  0  0  0  0  0  0
  159.7090  212.4170  151.4550 C   0  0  0  0  0  3  0  0  0  0  0  0
  160.4560  205.3760  147.4250 N   0  0  0  0  0  1  0  0  0  0  0  0
  160.6190  206.6350  149.4400 N   0  0  0  0  0  2  0  0  0  0  0  0
  162.3280  208.4510  149.6260 C   0  0  0  0  0  0  0  0  0  0  0  0
  160.4490  208.5740  156.5100 C   0  0  0  0  0  2  0  0  0  0  0  0
  160.7840  208.8820  153.7450 C   0  0  2  0  0  3  0  0  0  0  0  0
  161.6740  209.6540  154.6850 C   0  0  0  0  0  3  0  0  0  0  0  0
  161.5140  209.5030  156.0040 C   0  0  0  0  0  3  0  0  0  0  0  0
  160.4560  207.2530  155.7260 C   0  0  0  0  0  2  0  0  0  0  0  0
  160.7230  207.4140  154.2140 C   0  0  0  0  0  2  0  0  0  0  0  0
  2 12  1  0  0  0  0
  2  6  1  0  0  0  0
  3 16  1  0  0  0  0
  4 14  1  0  0  0  0
  8 10  1  0  0  0  0
  8 17  1  0  0  0  0
  9  7  2  0  0  0  0
 10 19  1  6  0  0  0
 10 20  1  0  0  0  0
 11  7  1  6  0  0  0
 11 14  1  0  0  0  0
 11 16  1  0  0  0  0
 12  1  1  6  0  0  0
 12 23  1  0  0  0  0
 13  5  1  1  0  0  0
 13  7  1  0  0  0  0
 13  4  1  0  0  0  0
 14 18  2  0  0  0  0
 15  1  2  0  0  0  0
 16  2  2  0  0  0  0
 17 21  1  0  0  0  0
 18  6  1  0  0  0  0
 20 15  1  0  0  0  0
 21  3  2  0  0  0  0
 21 15  1  0  0  0  0
 23 27  1  1  0  0  0
 23 24  1  0  0  0  0
 24 25  2  0  0  0  0
 25 22  1  0  0  0  0
 26 22  1  0  0  0  0
 27 26  1  0  0  0  0
M  END
>  <MODEL>
2

>  <REMARK>
 VINA RESULT:      -4.8      4.320      7.929
  Name = 
  1 active torsions:
  status: ('A' for Active; 'I' for Inactive)
    1  A    between atoms: C_9  and  C_15
                            x       y       z     vdW  Elec       q    Type
                         _______ _______ _______ _____ _____    ______ ____

>  <TORSDO>
F 1

$$$$
=
 OpenBabel11052423123D

 27 31  0  0  1  0  0  0  0  0999 V2000
  160.5140  211.0180  151.1950 C   0  0  0  0  0  3  0  0  0  0  0  0
  161.9230  209.3770  150.0470 C   0  0  0  0  0  0  0  0  0  0  0  0
  162.4000  209.0040  152.4280 N   0  0  0  0  0  0  0  0  0  0  0  0
  161.3110  204.8910  149.7420 S   0  0  0  0  0  0  0  0  0  0  0  0
  160.0720  205.2820  152.1530 C   0  0  0  0  0  1  0  0  0  0  0  0
  161.8310  208.8290  148.6360 C   0  0  0  0  0  2  0  0  0  0  0  0
  162.3590  206.1630  151.8630 C   0  0  0  0  0  0  0  0  0  0  0  0
  160.5290  209.8590  155.2370 C   0  0  0  0  0  2  0  0  0  0  0  0
  162.8830  206.2680  152.9620 O   0  0  0  0  0  0  0  0  0  0  0  0
  159.5440  210.9260  154.7600 C   0  0  2  0  0  3  0  0  0  0  0  0
  162.6730  207.1110  150.7470 C   0  0  1  0  0  3  0  0  0  0  0  0
  161.7010  210.8470  150.3020 C   0  0  1  0  0  3  0  0  0  0  0  0
  161.4420  205.0220  151.5540 C   0  0  2  0  0  3  0  0  0  0  0  0
  161.8760  206.5780  149.5960 C   0  0  0  0  0  0  0  0  0  0  0  0
  160.5270  210.6000  152.4580 C   0  0  0  0  0  0  0  0  0  0  0  0
  162.2810  208.5500  151.0620 C   0  0  0  0  0  0  0  0  0  0  0  0
  161.8730  210.0370  154.5330 C   0  0  0  0  0  2  0  0  0  0  0  0
  161.4210  207.3850  148.6340 C   0  0  0  0  0  3  0  0  0  0  0  0
  158.2430  210.7010  155.3630 N   0  0  0  0  0  1  0  0  0  0  0  0
  159.4180  210.9210  153.3030 N   0  0  0  0  0  2  0  0  0  0  0  0
  161.6840  209.8930  153.0590 C   0  0  0  0  0  0  0  0  0  0  0  0
  161.8440  213.6000  146.9770 C   0  0  0  0  0  2  0  0  0  0  0  0
  161.5940  211.7100  149.0310 C   0  0  2  0  0  3  0  0  0  0  0  0
  162.9640  212.0410  148.4970 C   0  0  0  0  0  3  0  0  0  0  0  0
  163.0810  212.9450  147.5200 C   0  0  0  0  0  3  0  0  0  0  0  0
  160.9060  214.0290  148.1160 C   0  0  0  0  0  2  0  0  0  0  0  0
  160.8310  213.0260  149.2870 C   0  0  0  0  0  2  0  0  0  0  0  0
  1 15  2  0  0  0  0
  2 12  1  0  0  0  0
  2 16  2  0  0  0  0
  3 21  2  0  0  0  0
  4 13  1  0  0  0  0
  6  2  1  0  0  0  0
  7  9  2  0  0  0  0
 10  8  1  0  0  0  0
 10 19  1  1  0  0  0
 11 14  1  6  0  0  0
 11 16  1  0  0  0  0
 11  7  1  0  0  0  0
 12  1  1  6  0  0  0
 13  7  1  0  0  0  0
 13  5  1  1  0  0  0
 14  4  1  0  0  0  0
 15 21  1  0  0  0  0
 15 20  1  0  0  0  0
 16  3  1  0  0  0  0
 17  8  1  0  0  0  0
 18  6  1  0  0  0  0
 18 14  2  0  0  0  0
 20 10  1  0  0  0  0
 21 17  1  0  0  0  0
 22 25  1  0  0  0  0
 22 26  1  0  0  0  0
 23 24  1  1  0  0  0
 23 27  1  0  0  0  0
 23 12  1  0  0  0  0
 25 24  2  0  0  0  0
 26 27  1  0  0  0  0
M  END
>  <MODEL>
3

>  <REMARK>
 VINA RESULT:      -4.6      2.931      4.030
  Name = 
  1 active torsions:
  status: ('A' for Active; 'I' for Inactive)
    1  A    between atoms: C_9  and  C_15
                            x       y       z     vdW  Elec       q    Type
                         _______ _______ _______ _____ _____    ______ ____

>  <TORSDO>
F 1

$$$$
=
 OpenBabel11052423123D

 27 31  0  0  1  0  0  0  0  0999 V2000
  160.7000  208.8130  152.3110 C   0  0  0  0  0  3  0  0  0  0  0  0
  160.0810  211.0310  153.1460 C   0  0  0  0  0  0  0  0  0  0  0  0
  161.3830  211.5040  151.1170 N   0  0  0  0  0  0  0  0  0  0  0  0
  156.9600  213.8750  151.4860 S   0  0  0  0  0  0  0  0  0  0  0  0
  157.6110  212.6130  149.1430 C   0  0  0  0  0  1  0  0  0  0  0  0
  158.9910  211.4390  154.1190 C   0  0  0  0  0  2  0  0  0  0  0  0
  159.4400  213.5630  150.5010 C   0  0  0  0  0  0  0  0  0  0  0  0
  162.0950  209.4510  148.3970 C   0  0  0  0  0  2  0  0  0  0  0  0
  160.3950  213.7890  149.7730 O   0  0  0  0  0  0  0  0  0  0  0  0
  161.8320  208.0250  148.8830 C   0  0  2  0  0  3  0  0  0  0  0  0
  159.6200  213.1510  151.9300 C   0  0  1  0  0  3  0  0  0  0  0  0
  160.9110  209.8000  153.4140 C   0  0  1  0  0  3  0  0  0  0  0  0
  158.0390  213.7750  150.0210 C   0  0  2  0  0  3  0  0  0  0  0  0
  158.2170  213.0500  152.4470 C   0  0  0  0  0  0  0  0  0  0  0  0
  161.1090  209.0580  151.0690 C   0  0  0  0  0  0  0  0  0  0  0  0
  160.3530  211.8230  152.0770 C   0  0  0  0  0  0  0  0  0  0  0  0
  162.7040  210.2830  149.5230 C   0  0  0  0  0  2  0  0  0  0  0  0
  157.8990  212.2030  153.4300 C   0  0  0  0  0  3  0  0  0  0  0  0
  161.1720  207.2630  147.8400 N   0  0  0  0  0  1  0  0  0  0  0  0
  161.0090  208.0190  150.0920 N   0  0  0  0  0  2  0  0  0  0  0  0
  161.7520  210.3350  150.6730 C   0  0  0  0  0  0  0  0  0  0  0  0
  160.8680  207.8360  157.2610 C   0  0  0  0  0  2  0  0  0  0  0  0
  160.6920  209.1680  154.8020 C   0  0  2  0  0  3  0  0  0  0  0  0
  161.8810  209.4200  155.6930 C   0  0  0  0  0  3  0  0  0  0  0  0
  161.9650  208.7810  156.8640 C   0  0  0  0  0  3  0  0  0  0  0  0
  160.4700  206.9330  156.0830 C   0  0  0  0  0  2  0  0  0  0  0  0
  160.4530  207.6470  154.7150 C   0  0  0  0  0  2  0  0  0  0  0  0
  2 12  1  0  0  0  0
  2  6  1  0  0  0  0
  3 16  1  0  0  0  0
  4 14  1  0  0  0  0
  8 10  1  0  0  0  0
  8 17  1  0  0  0  0
  9  7  2  0  0  0  0
 10 19  1  6  0  0  0
 10 20  1  0  0  0  0
 11  7  1  6  0  0  0
 11 16  1  0  0  0  0
 11 14  1  0  0  0  0
 12  1  1  6  0  0  0
 12 23  1  0  0  0  0
 13  5  1  6  0  0  0
 13  7  1  0  0  0  0
 13  4  1  0  0  0  0
 14 18  2  0  0  0  0
 15  1  2  0  0  0  0
 16  2  2  0  0  0  0
 17 21  1  0  0  0  0
 18  6  1  0  0  0  0
 20 15  1  0  0  0  0
 21 15  1  0  0  0  0
 21  3  2  0  0  0  0
 23 27  1  6  0  0  0
 23 24  1  0  0  0  0
 24 25  2  0  0  0  0
 25 22  1  0  0  0  0
 26 22  1  0  0  0  0
 27 26  1  0  0  0  0
M  END
>  <MODEL>
4

>  <REMARK>
 VINA RESULT:      -3.4      3.467      7.414
  Name = 
  1 active torsions:
  status: ('A' for Active; 'I' for Inactive)
    1  A    between atoms: C_9  and  C_15
                            x       y       z     vdW  Elec       q    Type
                         _______ _______ _______ _____ _____    ______ ____

>  <TORSDO>
F 1

$$$$
=
 OpenBabel11052423123D

 27 31  0  0  1  0  0  0  0  0999 V2000
  158.9690  210.8210  152.9040 C   0  0  0  0  0  3  0  0  0  0  0  0
  158.8550  213.0720  151.9450 C   0  0  0  0  0  0  0  0  0  0  0  0
  161.1090  212.2910  151.3570 N   0  0  0  0  0  0  0  0  0  0  0  0
  158.4090  214.2350  147.5820 S   0  0  0  0  0  0  0  0  0  0  0  0
  159.7060  211.8520  147.2100 C   0  0  0  0  0  1  0  0  0  0  0  0
  157.6510  213.9360  151.6240 C   0  0  0  0  0  2  0  0  0  0  0  0
  160.7110  213.4960  148.7530 C   0  0  0  0  0  0  0  0  0  0  0  0
  162.3690  209.0500  151.1770 C   0  0  0  0  0  2  0  0  0  0  0  0
  161.9110  213.2800  148.8310 O   0  0  0  0  0  0  0  0  0  0  0  0
  161.3900  208.1880  151.9730 C   0  0  2  0  0  3  0  0  0  0  0  0
  159.9290  214.0260  149.9150 C   0  0  1  0  0  3  0  0  0  0  0  0
  158.8950  212.2790  153.2280 C   0  0  1  0  0  3  0  0  0  0  0  0
  159.9820  213.3230  147.4580 C   0  0  2  0  0  3  0  0  0  0  0  0
  158.5470  214.1980  149.3610 C   0  0  0  0  0  0  0  0  0  0  0  0
  160.0380  210.2920  152.3140 C   0  0  0  0  0  0  0  0  0  0  0  0
  159.9250  213.0790  151.1090 C   0  0  0  0  0  0  0  0  0  0  0  0
  162.5280  210.4140  151.8460 C   0  0  0  0  0  2  0  0  0  0  0  0
  157.4690  214.0930  150.1420 C   0  0  0  0  0  3  0  0  0  0  0  0
  161.1720  206.9280  151.2870 N   0  0  0  0  0  1  0  0  0  0  0  0
  160.1110  208.8720  152.1610 N   0  0  0  0  0  2  0  0  0  0  0  0
  161.2040  211.1040  151.8880 C   0  0  0  0  0  0  0  0  0  0  0  0
  156.0850  213.0210  156.4230 C   0  0  0  0  0  2  0  0  0  0  0  0
  157.7520  212.5920  154.2120 C   0  0  2  0  0  3  0  0  0  0  0  0
  158.2570  213.4200  155.3650 C   0  0  0  0  0  3  0  0  0  0  0  0
  157.4620  213.6210  156.4200 C   0  0  0  0  0  3  0  0  0  0  0  0
  156.1210  211.5650  155.9360 C   0  0  0  0  0  2  0  0  0  0  0  0
  157.1010  211.3100  154.7700 C   0  0  0  0  0  2  0  0  0  0  0  0
  2 12  1  0  0  0  0
  3 21  2  0  0  0  0
  4 14  1  0  0  0  0
  6  2  1  0  0  0  0
  7  9  2  0  0  0  0
  8 17  1  0  0  0  0
  8 10  1  0  0  0  0
 10 19  1  6  0  0  0
 10 20  1  0  0  0  0
 11  7  1  6  0  0  0
 11 16  1  0  0  0  0
 12  1  1  6  0  0  0
 12 23  1  0  0  0  0
 13  5  1  1  0  0  0
 13  4  1  0  0  0  0
 13  7  1  0  0  0  0
 14 11  1  0  0  0  0
 14 18  2  0  0  0  0
 15  1  2  0  0  0  0
 16  3  1  0  0  0  0
 16  2  2  0  0  0  0
 17 21  1  0  0  0  0
 18  6  1  0  0  0  0
 20 15  1  0  0  0  0
 21 15  1  0  0  0  0
 23 27  1  1  0  0  0
 23 24  1  0  0  0  0
 24 25  2  0  0  0  0
 25 22  1  0  0  0  0
 26 22  1  0  0  0  0
 27 26  1  0  0  0  0
M  END
>  <MODEL>
5

>  <REMARK>
 VINA RESULT:      -3.3      3.650      6.771
  Name = 
  1 active torsions:
  status: ('A' for Active; 'I' for Inactive)
    1  A    between atoms: C_9  and  C_15
                            x       y       z     vdW  Elec       q    Type
                         _______ _______ _______ _____ _____    ______ ____

>  <TORSDO>
F 1

$$$$
=
 OpenBabel11052423123D

 27 31  0  0  1  0  0  0  0  0999 V2000
  159.9220  210.9250  152.4410 C   0  0  0  0  0  3  0  0  0  0  0  0
  159.0690  213.1570  151.9020 C   0  0  0  0  0  0  0  0  0  0  0  0
  160.7800  212.7470  150.1880 N   0  0  0  0  0  0  0  0  0  0  0  0
  156.3240  214.3570  148.4960 S   0  0  0  0  0  0  0  0  0  0  0  0
  157.5200  212.2110  147.2840 C   0  0  0  0  0  1  0  0  0  0  0  0
  157.7780  213.8350  152.3180 C   0  0  0  0  0  2  0  0  0  0  0  0
  158.9690  213.9470  148.2720 C   0  0  0  0  0  0  0  0  0  0  0  0
  162.1440  209.7440  149.0730 C   0  0  0  0  0  2  0  0  0  0  0  0
  160.0570  213.9160  147.7160 O   0  0  0  0  0  0  0  0  0  0  0  0
  161.8180  208.7200  150.1600 C   0  0  2  0  0  3  0  0  0  0  0  0
  158.8340  214.3190  149.7170 C   0  0  1  0  0  3  0  0  0  0  0  0
  159.8520  212.3440  152.9050 C   0  0  1  0  0  3  0  0  0  0  0  0
  157.7070  213.7000  147.5080 C   0  0  2  0  0  3  0  0  0  0  0  0
  157.3540  214.2920  149.9520 C   0  0  0  0  0  0  0  0  0  0  0  0
  160.5930  210.5820  151.3450 C   0  0  0  0  0  0  0  0  0  0  0  0
  159.5520  213.3500  150.6490 C   0  0  0  0  0  0  0  0  0  0  0  0
  162.4610  211.0970  149.7060 C   0  0  0  0  0  2  0  0  0  0  0  0
  156.8480  214.0020  151.1520 C   0  0  0  0  0  3  0  0  0  0  0  0
  161.4320  207.4610  149.5520 N   0  0  0  0  0  1  0  0  0  0  0  0
  160.7450  209.1950  151.0330 N   0  0  0  0  0  2  0  0  0  0  0  0
  161.2730  211.5740  150.4760 C   0  0  0  0  0  0  0  0  0  0  0  0
  158.7260  212.1300  157.0690 C   0  0  0  0  0  2  0  0  0  0  0  0
  159.3440  212.4520  154.3550 C   0  0  2  0  0  3  0  0  0  0  0  0
  160.4490  212.1290  155.3290 C   0  0  0  0  0  3  0  0  0  0  0  0
  160.1510  211.9720  156.6220 C   0  0  0  0  0  3  0  0  0  0  0  0
  157.7690  211.4000  156.1150 C   0  0  0  0  0  2  0  0  0  0  0  0
  158.1550  211.5080  154.6240 C   0  0  0  0  0  2  0  0  0  0  0  0
  2  6  1  0  0  0  0
  2 12  1  0  0  0  0
  3 21  2  0  0  0  0
  3 16  1  0  0  0  0
  4 14  1  0  0  0  0
  8 17  1  0  0  0  0
  8 10  1  0  0  0  0
  9  7  2  0  0  0  0
 10 19  1  6  0  0  0
 10 20  1  0  0  0  0
 11  7  1  6  0  0  0
 11 14  1  0  0  0  0
 11 16  1  0  0  0  0
 12  1  1  6  0  0  0
 12 23  1  0  0  0  0
 13  5  1  1  0  0  0
 13  7  1  0  0  0  0
 13  4  1  0  0  0  0
 14 18  2  0  0  0  0
 15  1  2  0  0  0  0
 16  2  2  0  0  0  0
 17 21  1  0  0  0  0
 18  6  1  0  0  0  0
 20 15  1  0  0  0  0
 21 15  1  0  0  0  0
 23 27  1  6  0  0  0
 23 24  1  0  0  0  0
 24 25  2  0  0  0  0
 25 22  1  0  0  0  0
 26 22  1  0  0  0  0
 27 26  1  0  0  0  0
M  END
>  <MODEL>
6

>  <REMARK>
 VINA RESULT:      -2.8      4.015      7.305
  Name = 
  1 active torsions:
  status: ('A' for Active; 'I' for Inactive)
    1  A    between atoms: C_9  and  C_15
                            x       y       z     vdW  Elec       q    Type
                         _______ _______ _______ _____ _____    ______ ____

>  <TORSDO>
F 1

$$$$
=
 OpenBabel11052423123D

 27 31  0  0  1  0  0  0  0  0999 V2000
  162.3510  210.1460  153.3260 C   0  0  0  0  0  3  0  0  0  0  0  0
  159.9030  210.2290  153.3460 C   0  0  0  0  0  0  0  0  0  0  0  0
  160.5150  210.2080  155.7250 N   0  0  0  0  0  0  0  0  0  0  0  0
  157.2300  213.7580  154.3370 S   0  0  0  0  0  0  0  0  0  0  0  0
  159.3730  214.4530  155.8950 C   0  0  0  0  0  1  0  0  0  0  0  0
  158.9310  210.6330  152.2540 C   0  0  0  0  0  2  0  0  0  0  0  0
  158.4380  212.1830  156.1470 C   0  0  0  0  0  0  0  0  0  0  0  0
  163.5240  211.0510  157.2610 C   0  0  0  0  0  2  0  0  0  0  0  0
  158.7180  211.7620  157.2600 O   0  0  0  0  0  0  0  0  0  0  0  0
  164.5730  211.0120  156.1490 C   0  0  2  0  0  3  0  0  0  0  0  0
  158.3290  211.2700  154.9650 C   0  0  1  0  0  3  0  0  0  0  0  0
  161.1060  209.3820  153.0100 C   0  0  1  0  0  3  0  0  0  0  0  0
  158.1020  213.6250  155.9320 C   0  0  2  0  0  3  0  0  0  0  0  0
  157.9110  212.1810  153.8520 C   0  0  0  0  0  0  0  0  0  0  0  0
  162.6770  210.4620  154.5760 C   0  0  0  0  0  0  0  0  0  0  0  0
  159.6410  210.5690  154.6330 C   0  0  0  0  0  0  0  0  0  0  0  0
  162.5000  209.9360  157.0520 C   0  0  0  0  0  2  0  0  0  0  0  0
  158.2440  211.9260  152.5840 C   0  0  0  0  0  3  0  0  0  0  0  0
  165.4910  212.1260  156.2990 N   0  0  0  0  0  1  0  0  0  0  0  0
  163.9490  211.0660  154.8270 N   0  0  0  0  0  2  0  0  0  0  0  0
  161.8160  210.1300  155.7380 C   0  0  0  0  0  0  0  0  0  0  0  0
  161.7270  207.7040  149.0780 C   0  0  0  0  0  2  0  0  0  0  0  0
  161.1190  208.8270  151.5730 C   0  0  2  0  0  3  0  0  0  0  0  0
  161.8680  207.5200  151.5160 C   0  0  0  0  0  3  0  0  0  0  0  0
  162.1600  206.9880  150.3250 C   0  0  0  0  0  3  0  0  0  0  0  0
  162.0220  209.2090  149.1800 C   0  0  0  0  0  2  0  0  0  0  0  0
  161.7660  209.8120  150.5780 C   0  0  0  0  0  2  0  0  0  0  0  0
  1 15  2  0  0  0  0
  2 16  2  0  0  0  0
  3 21  2  0  0  0  0
  4 13  1  0  0  0  0
  6 18  1  0  0  0  0
  6  2  1  0  0  0  0
  7  9  2  0  0  0  0
 10 19  1  1  0  0  0
 10  8  1  0  0  0  0
 11 14  1  6  0  0  0
 11  7  1  0  0  0  0
 12  1  1  6  0  0  0
 12  2  1  0  0  0  0
 13  5  1  6  0  0  0
 13  7  1  0  0  0  0
 14  4  1  0  0  0  0
 15 20  1  0  0  0  0
 15 21  1  0  0  0  0
 16 11  1  0  0  0  0
 16  3  1  0  0  0  0
 17  8  1  0  0  0  0
 18 14  2  0  0  0  0
 20 10  1  0  0  0  0
 21 17  1  0  0  0  0
 22 26  1  0  0  0  0
 22 25  1  0  0  0  0
 23 27  1  6  0  0  0
 23 12  1  0  0  0  0
 24 23  1  0  0  0  0
 25 24  2  0  0  0  0
 26 27  1  0  0  0  0
M  END
>  <MODEL>
7

>  <REMARK>
 VINA RESULT:      -2.6      3.072      5.557
  Name = 
  1 active torsions:
  status: ('A' for Active; 'I' for Inactive)
    1  A    between atoms: C_9  and  C_15
                            x       y       z     vdW  Elec       q    Type
                         _______ _______ _______ _____ _____    ______ ____

>  <TORSDO>
F 1

$$$$
=
 OpenBabel11052423123D

 27 31  0  0  1  0  0  0  0  0999 V2000
  161.4110  208.5500  148.1120 C   0  0  0  0  0  3  0  0  0  0  0  0
  162.0910  207.6400  150.2820 C   0  0  0  0  0  0  0  0  0  0  0  0
  162.7060  210.0150  150.4160 N   0  0  0  0  0  0  0  0  0  0  0  0
  160.0800  208.2080  154.3090 S   0  0  0  0  0  0  0  0  0  0  0  0
  159.3180  210.5770  153.1650 C   0  0  0  0  0  1  0  0  0  0  0  0
  161.6670  206.3630  150.9810 C   0  0  0  0  0  2  0  0  0  0  0  0
  161.7150  209.9890  153.1370 C   0  0  0  0  0  0  0  0  0  0  0  0
  161.5390  212.7270  148.5700 C   0  0  0  0  0  2  0  0  0  0  0  0
  162.3710  211.0150  153.0400 O   0  0  0  0  0  0  0  0  0  0  0  0
  160.8870  212.1230  147.3260 C   0  0  2  0  0  3  0  0  0  0  0  0
  162.1750  208.7000  152.5300 C   0  0  1  0  0  3  0  0  0  0  0  0
  162.3700  207.6320  148.7990 C   0  0  1  0  0  3  0  0  0  0  0  0
  160.4580  209.9540  153.9480 C   0  0  2  0  0  3  0  0  0  0  0  0
  161.1220  207.7180  152.9440 C   0  0  0  0  0  0  0  0  0  0  0  0
  161.4410  209.8650  148.3100 C   0  0  0  0  0  0  0  0  0  0  0  0
  162.2910  208.7670  151.0120 C   0  0  0  0  0  0  0  0  0  0  0  0
  162.7790  211.9220  148.9540 C   0  0  0  0  0  2  0  0  0  0  0  0
  160.8310  206.6540  152.1920 C   0  0  0  0  0  3  0  0  0  0  0  0
  159.6620  212.8350  147.0170 N   0  0  0  0  0  1  0  0  0  0  0  0
  160.5950  210.7020  147.5160 N   0  0  0  0  0  2  0  0  0  0  0  0
  162.3820  210.5130  149.2550 C   0  0  0  0  0  0  0  0  0  0  0  0
  161.9860  203.9130  146.6360 C   0  0  0  0  0  2  0  0  0  0  0  0
  162.3890  206.2320  148.1560 C   0  0  2  0  0  3  0  0  0  0  0  0
  162.3310  206.3370  146.6540 C   0  0  0  0  0  3  0  0  0  0  0  0
  162.1350  205.2300  145.9300 C   0  0  0  0  0  3  0  0  0  0  0  0
  161.0480  204.0430  147.8460 C   0  0  0  0  0  2  0  0  0  0  0  0
  161.2130  205.3590  148.6370 C   0  0  0  0  0  2  0  0  0  0  0  0
  1 15  2  0  0  0  0
  2  6  1  0  0  0  0
  2 16  2  0  0  0  0
  3 16  1  0  0  0  0
  6 18  1  0  0  0  0
  7 13  1  0  0  0  0
  8 17  1  0  0  0  0
  9  7  2  0  0  0  0
 10 19  1  1  0  0  0
 10 20  1  0  0  0  0
 10  8  1  0  0  0  0
 11 16  1  6  0  0  0
 11 14  1  0  0  0  0
 11  7  1  0  0  0  0
 12  1  1  6  0  0  0
 12  2  1  0  0  0  0
 13  5  1  6  0  0  0
 13  4  1  0  0  0  0
 14  4  1  0  0  0  0
 15 21  1  0  0  0  0
 17 21  1  0  0  0  0
 18 14  2  0  0  0  0
 20 15  1  0  0  0  0
 21  3  2  0  0  0  0
 22 26  1  0  0  0  0
 23 24  1  6  0  0  0
 23 27  1  0  0  0  0
 23 12  1  0  0  0  0
 25 22  1  0  0  0  0
 25 24  2  0  0  0  0
 26 27  1  0  0  0  0
M  END
>  <MODEL>
8

>  <REMARK>
 VINA RESULT:      -2.6      4.393      7.031
  Name = 
  1 active torsions:
  status: ('A' for Active; 'I' for Inactive)
    1  A    between atoms: C_9  and  C_15
                            x       y       z     vdW  Elec       q    Type
                         _______ _______ _______ _____ _____    ______ ____

>  <TORSDO>
F 1

$$$$
