=
 OpenBabel11052423063D

 27 31  0  0  0  0  0  0  0  0999 V2000
  160.5670  210.7970  152.8410 C   0  0  0  0  0  3  0  0  0  0  0  0
  161.1490  208.3870  152.6120 C   0  0  0  0  0  0  0  0  0  0  0  0
  161.7450  209.4760  150.4260 N   0  0  0  0  0  0  0  0  0  0  0  0
  161.2010  204.8370  150.5230 N   0  0  0  0  0  0  0  0  0  0  0  0
  161.7290  204.5890  148.1540 N   0  0  0  0  0  1  0  0  0  0  0  0
  160.8270  207.1940  153.3100 C   0  0  0  0  0  3  0  0  0  0  0  0
  161.7120  206.7170  149.3550 N   0  0  0  0  0  0  0  0  0  0  0  0
  161.1720  212.8200  149.3040 C   0  0  0  0  0  0  0  0  0  0  0  0
  162.0770  207.5750  148.2380 C   0  0  0  0  0  1  0  0  0  0  0  0
  161.5100  213.7750  147.8780 Cl  0  0  0  0  0  0  0  0  0  0  0  0
  161.4550  207.0590  150.6310 C   0  0  0  0  0  0  0  0  0  0  0  0
  161.2120  209.6210  153.3380 N   0  0  0  0  0  0  0  0  0  0  0  0
  161.5520  205.3750  149.3290 C   0  0  0  0  0  0  0  0  0  0  0  0
  161.1470  205.9210  151.3230 C   0  0  0  0  0  0  0  0  0  0  0  0
  160.6640  211.2920  151.6080 C   0  0  0  0  0  0  0  0  0  0  0  0
  161.4460  208.3290  151.2320 C   0  0  0  0  0  0  0  0  0  0  0  0
  161.6800  211.5260  149.4140 C   0  0  0  0  0  3  0  0  0  0  0  0
  160.8180  205.9460  152.6700 C   0  0  0  0  0  3  0  0  0  0  0  0
  160.3550  213.3300  150.3080 C   0  0  0  0  0  3  0  0  0  0  0  0
  160.1140  212.5730  151.4530 C   0  0  0  0  0  3  0  0  0  0  0  0
  161.4100  210.7280  150.5340 C   0  0  0  0  0  0  0  0  0  0  0  0
  162.8000  209.7120  157.2600 C   0  0  0  0  0  3  0  0  0  0  0  0
  161.7350  209.6560  154.6860 C   0  0  0  0  0  0  0  0  0  0  0  0
  162.6570  210.6390  155.0800 C   0  0  0  0  0  3  0  0  0  0  0  0
  163.1610  210.6480  156.3430 N   0  0  0  0  0  0  0  0  0  0  0  0
  161.8960  208.7070  156.9160 C   0  0  0  0  0  3  0  0  0  0  0  0
  161.3670  208.6810  155.6260 C   0  0  0  0  0  3  0  0  0  0  0  0
  1 12  1  0  0  0  0
  2  6  1  0  0  0  0
  2 12  1  0  0  0  0
  3 21  2  0  0  0  0
  3 16  1  0  0  0  0
  4 14  1  0  0  0  0
  5 13  1  0  0  0  0
  7 11  1  0  0  0  0
  8 17  2  0  0  0  0
  8 19  1  0  0  0  0
  9  7  1  0  0  0  0
 10  8  1  0  0  0  0
 11 16  1  0  0  0  0
 11 14  2  0  0  0  0
 12 23  1  0  0  0  0
 13  7  1  0  0  0  0
 13  4  2  0  0  0  0
 14 18  1  0  0  0  0
 15  1  2  0  0  0  0
 16  2  2  0  0  0  0
 17 21  1  0  0  0  0
 18  6  2  0  0  0  0
 19 20  2  0  0  0  0
 20 15  1  0  0  0  0
 21 15  1  0  0  0  0
 23 24  2  0  0  0  0
 23 27  1  0  0  0  0
 24 25  1  0  0  0  0
 25 22  2  0  0  0  0
 26 22  1  0  0  0  0
 27 26  2  0  0  0  0
M  END
>  <MODEL>
1

>  <REMARK>
 VINA RESULT:      -7.0      0.000      0.000
  Name = 
  1 active torsions:
  status: ('A' for Active; 'I' for Inactive)
    1  A    between atoms: C_9  and  N_15
                            x       y       z     vdW  Elec       q    Type
                         _______ _______ _______ _____ _____    ______ ____

>  <TORSDO>
F 1

$$$$
=
 OpenBabel11052423063D

 27 31  0  0  0  0  0  0  0  0999 V2000
  161.9740  210.1850  152.6720 C   0  0  0  0  0  3  0  0  0  0  0  0
  161.6340  208.9980  150.5110 C   0  0  0  0  0  0  0  0  0  0  0  0
  160.7490  207.4770  152.3060 N   0  0  0  0  0  0  0  0  0  0  0  0
  161.7860  205.6320  148.1430 N   0  0  0  0  0  0  0  0  0  0  0  0
  161.0950  203.3890  148.8120 N   0  0  0  0  0  1  0  0  0  0  0  0
  162.1360  209.1300  149.1900 C   0  0  0  0  0  3  0  0  0  0  0  0
  160.9850  205.3610  150.2510 N   0  0  0  0  0  0  0  0  0  0  0  0
  160.8710  207.8200  155.8610 C   0  0  0  0  0  0  0  0  0  0  0  0
  160.4420  204.7110  151.4330 C   0  0  0  0  0  1  0  0  0  0  0  0
  160.3190  206.9280  157.2610 Cl  0  0  0  0  0  0  0  0  0  0  0  0
  161.3080  206.6560  150.0750 C   0  0  0  0  0  0  0  0  0  0  0  0
  161.5000  210.1710  151.3240 N   0  0  0  0  0  0  0  0  0  0  0  0
  161.2840  204.7770  149.0680 C   0  0  0  0  0  0  0  0  0  0  0  0
  161.7910  206.8060  148.8040 C   0  0  0  0  0  0  0  0  0  0  0  0
  161.7250  209.2700  153.6100 C   0  0  0  0  0  0  0  0  0  0  0  0
  161.2320  207.7270  150.9800 C   0  0  0  0  0  0  0  0  0  0  0  0
  160.5140  207.4010  154.5800 C   0  0  0  0  0  3  0  0  0  0  0  0
  162.2240  208.0310  148.3230 C   0  0  0  0  0  3  0  0  0  0  0  0
  161.7090  208.9200  156.0200 C   0  0  0  0  0  3  0  0  0  0  0  0
  162.1220  209.6410  154.9020 C   0  0  0  0  0  3  0  0  0  0  0  0
  160.9570  208.0830  153.4390 C   0  0  0  0  0  0  0  0  0  0  0  0
  160.2370  213.8280  149.6080 C   0  0  0  0  0  3  0  0  0  0  0  0
  161.0880  211.4280  150.7390 C   0  0  0  0  0  0  0  0  0  0  0  0
  160.1450  212.2500  151.3780 C   0  0  0  0  0  3  0  0  0  0  0  0
  159.7470  213.4180  150.8080 N   0  0  0  0  0  0  0  0  0  0  0  0
  161.1680  213.0430  148.9270 C   0  0  0  0  0  3  0  0  0  0  0  0
  161.5890  211.8410  149.4960 C   0  0  0  0  0  3  0  0  0  0  0  0
  1 15  2  0  0  0  0
  2 16  1  0  0  0  0
  2 12  1  0  0  0  0
  3 21  2  0  0  0  0
  4 14  1  0  0  0  0
  4 13  2  0  0  0  0
  5 13  1  0  0  0  0
  6  2  2  0  0  0  0
  7  9  1  0  0  0  0
  8 19  1  0  0  0  0
  8 10  1  0  0  0  0
 11  7  1  0  0  0  0
 11 16  2  0  0  0  0
 12  1  1  0  0  0  0
 13  7  1  0  0  0  0
 14 11  1  0  0  0  0
 15 20  1  0  0  0  0
 16  3  1  0  0  0  0
 17  8  2  0  0  0  0
 18 14  2  0  0  0  0
 18  6  1  0  0  0  0
 20 19  2  0  0  0  0
 21 15  1  0  0  0  0
 21 17  1  0  0  0  0
 22 25  1  0  0  0  0
 23 12  1  0  0  0  0
 23 24  1  0  0  0  0
 25 24  2  0  0  0  0
 26 27  1  0  0  0  0
 26 22  2  0  0  0  0
 27 23  2  0  0  0  0
M  END
>  <MODEL>
2

>  <REMARK>
 VINA RESULT:      -7.0      2.682      5.332
  Name = 
  1 active torsions:
  status: ('A' for Active; 'I' for Inactive)
    1  A    between atoms: C_9  and  N_15
                            x       y       z     vdW  Elec       q    Type
                         _______ _______ _______ _____ _____    ______ ____

>  <TORSDO>
F 1

$$$$
=
 OpenBabel11052423063D

 27 31  0  0  0  0  0  0  0  0999 V2000
  162.2030  208.9650  150.2880 C   0  0  0  0  0  3  0  0  0  0  0  0
  161.2370  208.2850  152.4790 C   0  0  0  0  0  0  0  0  0  0  0  0
  160.3800  210.6010  152.0100 N   0  0  0  0  0  0  0  0  0  0  0  0
  160.2390  209.0280  156.4060 N   0  0  0  0  0  0  0  0  0  0  0  0
  159.2130  211.0750  157.2510 N   0  0  0  0  0  1  0  0  0  0  0  0
  161.5130  207.2800  153.4430 C   0  0  0  0  0  3  0  0  0  0  0  0
  159.7870  210.6750  154.9090 N   0  0  0  0  0  0  0  0  0  0  0  0
  161.2030  212.8530  149.3600 C   0  0  0  0  0  0  0  0  0  0  0  0
  159.3360  211.9510  154.3760 C   0  0  0  0  0  1  0  0  0  0  0  0
  160.7290  214.4530  148.8360 Cl  0  0  0  0  0  0  0  0  0  0  0  0
  160.3440  209.6390  154.2550 C   0  0  0  0  0  0  0  0  0  0  0  0
  161.5050  208.0150  151.0980 N   0  0  0  0  0  0  0  0  0  0  0  0
  159.7380  210.2710  156.1980 C   0  0  0  0  0  0  0  0  0  0  0  0
  160.6130  208.6550  155.1660 C   0  0  0  0  0  0  0  0  0  0  0  0
  161.9340  210.2670  150.1830 C   0  0  0  0  0  0  0  0  0  0  0  0
  160.6610  209.5080  152.8930 C   0  0  0  0  0  0  0  0  0  0  0  0
  160.5420  212.2430  150.4250 C   0  0  0  0  0  3  0  0  0  0  0  0
  161.2080  207.4580  154.8000 C   0  0  0  0  0  3  0  0  0  0  0  0
  162.2720  212.2060  148.7480 C   0  0  0  0  0  3  0  0  0  0  0  0
  162.6240  210.9190  149.1530 C   0  0  0  0  0  3  0  0  0  0  0  0
  160.9110  210.9700  150.8810 C   0  0  0  0  0  0  0  0  0  0  0  0
  160.7760  204.1770  149.4690 C   0  0  0  0  0  3  0  0  0  0  0  0
  161.2750  206.6980  150.5470 C   0  0  0  0  0  0  0  0  0  0  0  0
  161.0700  206.5140  149.1700 C   0  0  0  0  0  3  0  0  0  0  0  0
  160.8310  205.2740  148.6660 N   0  0  0  0  0  0  0  0  0  0  0  0
  160.9630  204.3080  150.8450 C   0  0  0  0  0  3  0  0  0  0  0  0
  161.2100  205.5720  151.3820 C   0  0  0  0  0  3  0  0  0  0  0  0
  1 12  1  0  0  0  0
  2 16  2  0  0  0  0
  2  6  1  0  0  0  0
  3 16  1  0  0  0  0
  6 18  2  0  0  0  0
  7 13  1  0  0  0  0
  8 17  2  0  0  0  0
  9  7  1  0  0  0  0
 10  8  1  0  0  0  0
 11  7  1  0  0  0  0
 11 14  2  0  0  0  0
 12  2  1  0  0  0  0
 13  4  2  0  0  0  0
 13  5  1  0  0  0  0
 14  4  1  0  0  0  0
 15  1  2  0  0  0  0
 15 21  1  0  0  0  0
 16 11  1  0  0  0  0
 17 21  1  0  0  0  0
 18 14  1  0  0  0  0
 19 20  2  0  0  0  0
 19  8  1  0  0  0  0
 20 15  1  0  0  0  0
 21  3  2  0  0  0  0
 22 26  1  0  0  0  0
 23 12  1  0  0  0  0
 23 27  1  0  0  0  0
 24 23  2  0  0  0  0
 25 24  1  0  0  0  0
 25 22  2  0  0  0  0
 26 27  2  0  0  0  0
M  END
>  <MODEL>
3

>  <REMARK>
 VINA RESULT:      -6.6      1.655      5.580
  Name = 
  1 active torsions:
  status: ('A' for Active; 'I' for Inactive)
    1  A    between atoms: C_9  and  N_15
                            x       y       z     vdW  Elec       q    Type
                         _______ _______ _______ _____ _____    ______ ____

>  <TORSDO>
F 1

$$$$
=
 OpenBabel11052423063D

 27 31  0  0  0  0  0  0  0  0999 V2000
  161.5480  210.6220  153.2280 C   0  0  0  0  0  3  0  0  0  0  0  0
  161.4070  209.7240  150.9110 C   0  0  0  0  0  0  0  0  0  0  0  0
  160.7470  207.8450  152.4460 N   0  0  0  0  0  0  0  0  0  0  0  0
  162.0830  206.7950  148.0950 N   0  0  0  0  0  0  0  0  0  0  0  0
  161.7310  204.4010  148.4180 N   0  0  0  0  0  1  0  0  0  0  0  0
  161.8940  210.1180  149.6370 C   0  0  0  0  0  3  0  0  0  0  0  0
  161.3140  206.1070  150.1190 N   0  0  0  0  0  0  0  0  0  0  0  0
  160.7880  207.6840  156.0150 C   0  0  0  0  0  0  0  0  0  0  0  0
  160.8660  205.2190  151.1800 C   0  0  0  0  0  1  0  0  0  0  0  0
  160.3650  206.5270  157.2570 Cl  0  0  0  0  0  0  0  0  0  0  0  0
  161.4410  207.4460  150.1380 C   0  0  0  0  0  0  0  0  0  0  0  0
  161.0920  210.7340  151.8780 N   0  0  0  0  0  0  0  0  0  0  0  0
  161.7070  205.7510  148.8740 C   0  0  0  0  0  0  0  0  0  0  0  0
  161.9050  207.8480  148.9160 C   0  0  0  0  0  0  0  0  0  0  0  0
  161.4320  209.5550  154.0180 C   0  0  0  0  0  0  0  0  0  0  0  0
  161.1970  208.3520  151.1840 C   0  0  0  0  0  0  0  0  0  0  0  0
  160.5080  207.4070  154.6780 C   0  0  0  0  0  3  0  0  0  0  0  0
  162.1540  209.1810  148.6260 C   0  0  0  0  0  3  0  0  0  0  0  0
  161.4500  208.8610  156.3530 C   0  0  0  0  0  3  0  0  0  0  0  0
  161.7580  209.7890  155.3610 C   0  0  0  0  0  3  0  0  0  0  0  0
  160.8530  208.3050  153.6580 C   0  0  0  0  0  0  0  0  0  0  0  0
  159.4140  214.4310  150.6810 C   0  0  0  0  0  3  0  0  0  0  0  0
  160.5000  211.9880  151.4660 C   0  0  0  0  0  0  0  0  0  0  0  0
  160.9280  212.6420  150.3000 C   0  0  0  0  0  3  0  0  0  0  0  0
  160.3810  213.8320  149.9350 N   0  0  0  0  0  0  0  0  0  0  0  0
  158.9630  213.8270  151.8550 C   0  0  0  0  0  3  0  0  0  0  0  0
  159.5100  212.6050  152.2460 C   0  0  0  0  0  3  0  0  0  0  0  0
  1 15  2  0  0  0  0
  2 16  1  0  0  0  0
  2 12  1  0  0  0  0
  3 21  2  0  0  0  0
  4 13  2  0  0  0  0
  4 14  1  0  0  0  0
  5 13  1  0  0  0  0
  6  2  2  0  0  0  0
  7 11  1  0  0  0  0
  7  9  1  0  0  0  0
  8 19  1  0  0  0  0
  8 10  1  0  0  0  0
 11 16  2  0  0  0  0
 12  1  1  0  0  0  0
 13  7  1  0  0  0  0
 14 11  1  0  0  0  0
 15 20  1  0  0  0  0
 16  3  1  0  0  0  0
 17  8  2  0  0  0  0
 18 14  2  0  0  0  0
 18  6  1  0  0  0  0
 20 19  2  0  0  0  0
 21 15  1  0  0  0  0
 21 17  1  0  0  0  0
 22 26  1  0  0  0  0
 23 12  1  0  0  0  0
 23 27  1  0  0  0  0
 24 23  2  0  0  0  0
 25 24  1  0  0  0  0
 25 22  2  0  0  0  0
 26 27  2  0  0  0  0
M  END
>  <MODEL>
4

>  <REMARK>
 VINA RESULT:      -6.5      2.706      5.267
  Name = 
  1 active torsions:
  status: ('A' for Active; 'I' for Inactive)
    1  A    between atoms: C_9  and  N_15
                            x       y       z     vdW  Elec       q    Type
                         _______ _______ _______ _____ _____    ______ ____

>  <TORSDO>
F 1

$$$$
=
 OpenBabel11052423063D

 27 31  0  0  0  0  0  0  0  0999 V2000
  162.0000  210.0460  151.1460 C   0  0  0  0  0  3  0  0  0  0  0  0
  161.2220  210.0990  153.5100 C   0  0  0  0  0  0  0  0  0  0  0  0
  160.0500  211.9850  152.3320 N   0  0  0  0  0  0  0  0  0  0  0  0
  160.2980  212.0910  156.9950 N   0  0  0  0  0  0  0  0  0  0  0  0
  159.0480  214.1820  157.1500 N   0  0  0  0  0  1  0  0  0  0  0  0
  161.6660  209.5430  154.7380 C   0  0  0  0  0  3  0  0  0  0  0  0
  159.5720  213.0310  155.0580 N   0  0  0  0  0  0  0  0  0  0  0  0
  160.4620  213.2080  148.9990 C   0  0  0  0  0  0  0  0  0  0  0  0
  158.9370  213.9740  154.1520 C   0  0  0  0  0  1  0  0  0  0  0  0
  159.7620  214.4530  147.9890 Cl  0  0  0  0  0  0  0  0  0  0  0  0
  160.2330  211.8960  154.7650 C   0  0  0  0  0  0  0  0  0  0  0  0
  161.4660  209.3810  152.2940 N   0  0  0  0  0  0  0  0  0  0  0  0
  159.6300  213.1140  156.4070 C   0  0  0  0  0  0  0  0  0  0  0  0
  160.6660  211.3400  155.9380 C   0  0  0  0  0  0  0  0  0  0  0  0
  161.5590  211.1860  150.6140 C   0  0  0  0  0  0  0  0  0  0  0  0
  160.5090  211.3190  153.5150 C   0  0  0  0  0  0  0  0  0  0  0  0
  159.9310  212.9550  150.2630 C   0  0  0  0  0  3  0  0  0  0  0  0
  161.3960  210.1620  155.9670 C   0  0  0  0  0  3  0  0  0  0  0  0
  161.5810  212.5040  148.5650 C   0  0  0  0  0  3  0  0  0  0  0  0
  162.1150  211.4950  149.3650 C   0  0  0  0  0  3  0  0  0  0  0  0
  160.4820  211.9780  151.1040 C   0  0  0  0  0  0  0  0  0  0  0  0
  161.1830  205.1600  152.1770 C   0  0  0  0  0  3  0  0  0  0  0  0
  161.3880  207.9370  152.2630 C   0  0  0  0  0  0  0  0  0  0  0  0
  161.3480  207.2400  151.0450 C   0  0  0  0  0  3  0  0  0  0  0  0
  161.2510  205.8830  151.0280 N   0  0  0  0  0  0  0  0  0  0  0  0
  161.2080  205.8060  153.4130 C   0  0  0  0  0  3  0  0  0  0  0  0
  161.3080  207.1970  153.4520 C   0  0  0  0  0  3  0  0  0  0  0  0
  1 12  1  0  0  0  0
  2 16  2  0  0  0  0
  2  6  1  0  0  0  0
  3 16  1  0  0  0  0
  6 18  2  0  0  0  0
  7 13  1  0  0  0  0
  8 17  2  0  0  0  0
  9  7  1  0  0  0  0
 10  8  1  0  0  0  0
 11  7  1  0  0  0  0
 11 14  2  0  0  0  0
 12  2  1  0  0  0  0
 13  4  2  0  0  0  0
 13  5  1  0  0  0  0
 14 18  1  0  0  0  0
 14  4  1  0  0  0  0
 15 21  1  0  0  0  0
 15  1  2  0  0  0  0
 16 11  1  0  0  0  0
 17 21  1  0  0  0  0
 19  8  1  0  0  0  0
 19 20  2  0  0  0  0
 20 15  1  0  0  0  0
 21  3  2  0  0  0  0
 22 26  1  0  0  0  0
 23 12  1  0  0  0  0
 23 27  1  0  0  0  0
 24 23  2  0  0  0  0
 25 24  1  0  0  0  0
 25 22  2  0  0  0  0
 26 27  2  0  0  0  0
M  END
>  <MODEL>
5

>  <REMARK>
 VINA RESULT:      -5.8      2.115      5.838
  Name = 
  1 active torsions:
  status: ('A' for Active; 'I' for Inactive)
    1  A    between atoms: C_9  and  N_15
                            x       y       z     vdW  Elec       q    Type
                         _______ _______ _______ _____ _____    ______ ____

>  <TORSDO>
F 1

$$$$
=
 OpenBabel11052423063D

 27 31  0  0  0  0  0  0  0  0999 V2000
  159.5890  211.1710  154.3570 C   0  0  0  0  0  3  0  0  0  0  0  0
  159.6530  212.5430  152.2810 C   0  0  0  0  0  0  0  0  0  0  0  0
  160.4960  210.2600  151.6530 N   0  0  0  0  0  0  0  0  0  0  0  0
  161.4960  213.8490  148.8360 N   0  0  0  0  0  0  0  0  0  0  0  0
  162.7000  212.4430  147.2460 N   0  0  0  0  0  1  0  0  0  0  0  0
  159.6020  213.9290  151.9770 C   0  0  0  0  0  3  0  0  0  0  0  0
  161.6180  211.6250  149.2790 N   0  0  0  0  0  0  0  0  0  0  0  0
  161.1820  207.4260  153.7190 C   0  0  0  0  0  0  0  0  0  0  0  0
  161.9620  210.2190  149.1310 C   0  0  0  0  0  1  0  0  0  0  0  0
  161.7340  205.7800  153.5050 Cl  0  0  0  0  0  0  0  0  0  0  0  0
  160.9200  212.2220  150.2620 C   0  0  0  0  0  0  0  0  0  0  0  0
  158.9530  212.0580  153.4330 N   0  0  0  0  0  0  0  0  0  0  0  0
  161.9460  212.6330  148.4400 C   0  0  0  0  0  0  0  0  0  0  0  0
  160.8550  213.5600  149.9850 C   0  0  0  0  0  0  0  0  0  0  0  0
  160.2590  210.0590  154.0550 C   0  0  0  0  0  0  0  0  0  0  0  0
  160.3500  211.6660  151.4190 C   0  0  0  0  0  0  0  0  0  0  0  0
  160.9190  208.2240  152.6070 C   0  0  0  0  0  3  0  0  0  0  0  0
  160.2080  214.4530  150.8260 C   0  0  0  0  0  3  0  0  0  0  0  0
  161.0520  207.9580  154.9980 C   0  0  0  0  0  3  0  0  0  0  0  0
  160.5840  209.2610  155.1600 C   0  0  0  0  0  3  0  0  0  0  0  0
  160.4940  209.5520  152.7450 C   0  0  0  0  0  0  0  0  0  0  0  0
  155.2320  213.7590  154.5190 C   0  0  0  0  0  3  0  0  0  0  0  0
  157.6730  212.6200  153.8070 C   0  0  0  0  0  0  0  0  0  0  0  0
  156.8990  213.3380  152.8820 C   0  0  0  0  0  3  0  0  0  0  0  0
  155.7090  213.8820  153.2510 N   0  0  0  0  0  0  0  0  0  0  0  0
  155.9680  213.0640  155.4790 C   0  0  0  0  0  3  0  0  0  0  0  0
  157.1910  212.4970  155.1190 C   0  0  0  0  0  3  0  0  0  0  0  0
  2 12  1  0  0  0  0
  3 21  2  0  0  0  0
  4 14  1  0  0  0  0
  5 13  1  0  0  0  0
  6  2  1  0  0  0  0
  7 11  1  0  0  0  0
  8 19  1  0  0  0  0
  9  7  1  0  0  0  0
 10  8  1  0  0  0  0
 11 16  1  0  0  0  0
 12 23  1  0  0  0  0
 12  1  1  0  0  0  0
 13  4  2  0  0  0  0
 13  7  1  0  0  0  0
 14 11  2  0  0  0  0
 14 18  1  0  0  0  0
 15  1  2  0  0  0  0
 15 20  1  0  0  0  0
 16  3  1  0  0  0  0
 16  2  2  0  0  0  0
 17 21  1  0  0  0  0
 17  8  2  0  0  0  0
 18  6  2  0  0  0  0
 19 20  2  0  0  0  0
 21 15  1  0  0  0  0
 22 26  1  0  0  0  0
 23 27  1  0  0  0  0
 24 25  1  0  0  0  0
 24 23  2  0  0  0  0
 25 22  2  0  0  0  0
 27 26  2  0  0  0  0
M  END
>  <MODEL>
6

>  <REMARK>
 VINA RESULT:      -5.1      3.538      6.292
  Name = 
  1 active torsions:
  status: ('A' for Active; 'I' for Inactive)
    1  A    between atoms: C_9  and  N_15
                            x       y       z     vdW  Elec       q    Type
                         _______ _______ _______ _____ _____    ______ ____

>  <TORSDO>
F 1

$$$$
=
 OpenBabel11052423063D

 27 31  0  0  0  0  0  0  0  0999 V2000
  161.6710  205.8590  153.1770 C   0  0  0  0  0  3  0  0  0  0  0  0
  161.6670  208.2350  152.4350 C   0  0  0  0  0  0  0  0  0  0  0  0
  160.9420  206.8680  150.4540 N   0  0  0  0  0  0  0  0  0  0  0  0
  162.5270  211.1980  149.7060 N   0  0  0  0  0  0  0  0  0  0  0  0
  162.1820  211.0550  147.2940 N   0  0  0  0  0  1  0  0  0  0  0  0
  162.2200  209.4500  152.9170 C   0  0  0  0  0  3  0  0  0  0  0  0
  161.6550  209.2700  148.8790 N   0  0  0  0  0  0  0  0  0  0  0  0
  160.7870  203.3210  150.0540 C   0  0  0  0  0  0  0  0  0  0  0  0
  161.1570  208.2970  147.9190 C   0  0  0  0  0  1  0  0  0  0  0  0
  160.3070  202.1840  148.8140 Cl  0  0  0  0  0  0  0  0  0  0  0  0
  161.7660  209.1550  150.2150 C   0  0  0  0  0  0  0  0  0  0  0  0
  161.2900  207.2220  153.3760 N   0  0  0  0  0  0  0  0  0  0  0  0
  162.1190  210.5120  148.6100 C   0  0  0  0  0  0  0  0  0  0  0  0
  162.2940  210.3200  150.7010 C   0  0  0  0  0  0  0  0  0  0  0  0
  161.5220  205.1490  152.0580 C   0  0  0  0  0  0  0  0  0  0  0  0
  161.4560  208.0660  151.0470 C   0  0  0  0  0  0  0  0  0  0  0  0
  160.5840  204.6870  149.8660 C   0  0  0  0  0  3  0  0  0  0  0  0
  162.5450  210.5050  152.0520 C   0  0  0  0  0  3  0  0  0  0  0  0
  161.4170  202.8680  151.2100 C   0  0  0  0  0  3  0  0  0  0  0  0
  161.7700  203.7780  152.2050 C   0  0  0  0  0  3  0  0  0  0  0  0
  160.9760  205.6230  150.8310 C   0  0  0  0  0  0  0  0  0  0  0  0
  159.6370  208.3140  157.1160 C   0  0  0  0  0  3  0  0  0  0  0  0
  160.7090  207.5820  154.6510 C   0  0  0  0  0  0  0  0  0  0  0  0
  160.2420  208.8840  154.8930 C   0  0  0  0  0  3  0  0  0  0  0  0
  159.7200  209.2170  156.1030 N   0  0  0  0  0  0  0  0  0  0  0  0
  160.0970  207.0100  156.9300 C   0  0  0  0  0  3  0  0  0  0  0  0
  160.6350  206.6480  155.6960 C   0  0  0  0  0  3  0  0  0  0  0  0
  1 12  1  0  0  0  0
  2  6  1  0  0  0  0
  2 12  1  0  0  0  0
  3 21  2  0  0  0  0
  3 16  1  0  0  0  0
  4 14  1  0  0  0  0
  5 13  1  0  0  0  0
  7 11  1  0  0  0  0
  8 19  1  0  0  0  0
  9  7  1  0  0  0  0
 10  8  1  0  0  0  0
 11 14  2  0  0  0  0
 11 16  1  0  0  0  0
 12 23  1  0  0  0  0
 13  7  1  0  0  0  0
 13  4  2  0  0  0  0
 14 18  1  0  0  0  0
 15 20  1  0  0  0  0
 15  1  2  0  0  0  0
 16  2  2  0  0  0  0
 17  8  2  0  0  0  0
 17 21  1  0  0  0  0
 18  6  2  0  0  0  0
 19 20  2  0  0  0  0
 21 15  1  0  0  0  0
 23 24  2  0  0  0  0
 23 27  1  0  0  0  0
 24 25  1  0  0  0  0
 25 22  2  0  0  0  0
 26 22  1  0  0  0  0
 27 26  2  0  0  0  0
M  END
>  <MODEL>
7

>  <REMARK>
 VINA RESULT:      -5.0      3.068      5.448
  Name = 
  1 active torsions:
  status: ('A' for Active; 'I' for Inactive)
    1  A    between atoms: C_9  and  N_15
                            x       y       z     vdW  Elec       q    Type
                         _______ _______ _______ _____ _____    ______ ____

>  <TORSDO>
F 1

$$$$
=
 OpenBabel11052423063D

 27 31  0  0  0  0  0  0  0  0999 V2000
  160.9190  212.3300  140.4850 C   0  0  0  0  0  3  0  0  0  0  0  0
  158.5420  212.9910  140.8130 C   0  0  0  0  0  0  0  0  0  0  0  0
  158.5150  210.9020  139.4150 N   0  0  0  0  0  0  0  0  0  0  0  0
  154.7130  213.6150  139.4300 N   0  0  0  0  0  0  0  0  0  0  0  0
  153.4840  212.1370  137.9260 N   0  0  0  0  0  1  0  0  0  0  0  0
  157.8620  214.1660  141.2290 C   0  0  0  0  0  3  0  0  0  0  0  0
  155.7580  211.7250  138.7250 N   0  0  0  0  0  0  0  0  0  0  0  0
  161.2300  209.0730  137.9820 C   0  0  0  0  0  0  0  0  0  0  0  0
  155.9850  210.4680  138.0290 C   0  0  0  0  0  1  0  0  0  0  0  0
  161.4430  207.6250  137.0230 Cl  0  0  0  0  0  0  0  0  0  0  0  0
  156.5900  212.4000  139.5390 C   0  0  0  0  0  0  0  0  0  0  0  0
  159.8440  212.7170  141.3450 N   0  0  0  0  0  0  0  0  0  0  0  0
  154.6390  212.4850  138.6840 C   0  0  0  0  0  0  0  0  0  0  0  0
  155.9510  213.5360  139.9550 C   0  0  0  0  0  0  0  0  0  0  0  0
  160.8860  211.3770  139.5530 C   0  0  0  0  0  0  0  0  0  0  0  0
  157.9050  212.0940  139.9250 C   0  0  0  0  0  0  0  0  0  0  0  0
  159.9660  209.4120  138.4610 C   0  0  0  0  0  3  0  0  0  0  0  0
  156.5590  214.4530  140.7980 C   0  0  0  0  0  3  0  0  0  0  0  0
  162.3110  209.9140  138.2260 C   0  0  0  0  0  3  0  0  0  0  0  0
  162.1370  211.0500  139.0140 C   0  0  0  0  0  3  0  0  0  0  0  0
  159.7590  210.5760  139.2150 C   0  0  0  0  0  0  0  0  0  0  0  0
  160.8270  213.6360  145.3580 C   0  0  0  0  0  3  0  0  0  0  0  0
  160.1600  213.0350  142.7200 C   0  0  0  0  0  0  0  0  0  0  0  0
  160.9810  214.1280  143.0410 C   0  0  0  0  0  3  0  0  0  0  0  0
  161.2910  214.4030  144.3360 N   0  0  0  0  0  0  0  0  0  0  0  0
  160.0160  212.5320  145.0910 C   0  0  0  0  0  3  0  0  0  0  0  0
  159.6860  212.2330  143.7700 C   0  0  0  0  0  3  0  0  0  0  0  0
  1 12  1  0  0  0  0
  2  6  1  0  0  0  0
  2 12  1  0  0  0  0
  3 16  1  0  0  0  0
  4 14  1  0  0  0  0
  5 13  1  0  0  0  0
  7 11  1  0  0  0  0
  8 19  1  0  0  0  0
  8 17  2  0  0  0  0
  9  7  1  0  0  0  0
 10  8  1  0  0  0  0
 11 16  1  0  0  0  0
 11 14  2  0  0  0  0
 12 23  1  0  0  0  0
 13  7  1  0  0  0  0
 13  4  2  0  0  0  0
 14 18  1  0  0  0  0
 15  1  2  0  0  0  0
 16  2  2  0  0  0  0
 17 21  1  0  0  0  0
 18  6  2  0  0  0  0
 19 20  2  0  0  0  0
 20 15  1  0  0  0  0
 21  3  2  0  0  0  0
 21 15  1  0  0  0  0
 23 24  2  0  0  0  0
 23 27  1  0  0  0  0
 24 25  1  0  0  0  0
 25 22  2  0  0  0  0
 26 22  1  0  0  0  0
 27 26  2  0  0  0  0
M  END
>  <MODEL>
8

>  <REMARK>
 VINA RESULT:      -5.0     10.096     13.017
  Name = 
  1 active torsions:
  status: ('A' for Active; 'I' for Inactive)
    1  A    between atoms: C_9  and  N_15
                            x       y       z     vdW  Elec       q    Type
                         _______ _______ _______ _____ _____    ______ ____

>  <TORSDO>
F 1

$$$$
=
 OpenBabel11052423063D

 27 31  0  0  0  0  0  0  0  0999 V2000
  160.4690  210.2920  151.5000 C   0  0  0  0  0  3  0  0  0  0  0  0
  159.0720  212.3380  151.7330 C   0  0  0  0  0  0  0  0  0  0  0  0
  159.4980  211.4980  154.0630 N   0  0  0  0  0  0  0  0  0  0  0  0
  155.9300  214.4330  153.3790 N   0  0  0  0  0  0  0  0  0  0  0  0
  155.3150  214.4530  155.7410 N   0  0  0  0  0  1  0  0  0  0  0  0
  158.2580  213.1170  150.8680 C   0  0  0  0  0  3  0  0  0  0  0  0
  157.1920  213.1960  154.8070 N   0  0  0  0  0  0  0  0  0  0  0  0
  161.1160  208.5040  155.1550 C   0  0  0  0  0  0  0  0  0  0  0  0
  157.6590  212.5930  156.0450 C   0  0  0  0  0  1  0  0  0  0  0  0
  161.5350  207.7480  156.6760 Cl  0  0  0  0  0  0  0  0  0  0  0  0
  157.6860  213.0560  153.5630 C   0  0  0  0  0  0  0  0  0  0  0  0
  160.2150  211.6650  151.1920 N   0  0  0  0  0  0  0  0  0  0  0  0
  156.1390  214.0320  154.6580 C   0  0  0  0  0  0  0  0  0  0  0  0
  156.9170  213.8040  152.7130 C   0  0  0  0  0  0  0  0  0  0  0  0
  160.4750  209.7400  152.7140 C   0  0  0  0  0  0  0  0  0  0  0  0
  158.7680  212.2820  153.1130 C   0  0  0  0  0  0  0  0  0  0  0  0
  160.5650  209.7850  155.1410 C   0  0  0  0  0  3  0  0  0  0  0  0
  157.1670  213.8550  151.3500 C   0  0  0  0  0  3  0  0  0  0  0  0
  161.2850  207.8110  153.9610 C   0  0  0  0  0  3  0  0  0  0  0  0
  160.9760  208.4310  152.7520 C   0  0  0  0  0  3  0  0  0  0  0  0
  160.2010  210.4090  153.9400 C   0  0  0  0  0  0  0  0  0  0  0  0
  162.4940  213.4840  148.1240 C   0  0  0  0  0  3  0  0  0  0  0  0
  161.0110  212.2830  150.1550 C   0  0  0  0  0  0  0  0  0  0  0  0
  160.8380  213.6360  149.8190 C   0  0  0  0  0  3  0  0  0  0  0  0
  161.5760  214.2010  148.8260 N   0  0  0  0  0  0  0  0  0  0  0  0
  162.6960  212.1340  148.4130 C   0  0  0  0  0  3  0  0  0  0  0  0
  161.9500  211.5360  149.4280 C   0  0  0  0  0  3  0  0  0  0  0  0
  1 15  2  0  0  0  0
  2 16  1  0  0  0  0
  4 13  2  0  0  0  0
  6 18  1  0  0  0  0
  6  2  2  0  0  0  0
  7  9  1  0  0  0  0
  8 10  1  0  0  0  0
 11  7  1  0  0  0  0
 12  1  1  0  0  0  0
 12  2  1  0  0  0  0
 13  7  1  0  0  0  0
 13  5  1  0  0  0  0
 14  4  1  0  0  0  0
 14 11  1  0  0  0  0
 15 20  1  0  0  0  0
 15 21  1  0  0  0  0
 16 11  2  0  0  0  0
 16  3  1  0  0  0  0
 17  8  2  0  0  0  0
 18 14  2  0  0  0  0
 19  8  1  0  0  0  0
 20 19  2  0  0  0  0
 21  3  2  0  0  0  0
 21 17  1  0  0  0  0
 22 26  2  0  0  0  0
 22 25  1  0  0  0  0
 23 12  1  0  0  0  0
 24 23  1  0  0  0  0
 25 24  2  0  0  0  0
 26 27  1  0  0  0  0
 27 23  2  0  0  0  0
M  END
>  <MODEL>
9

>  <REMARK>
 VINA RESULT:      -4.4      3.888      7.830
  Name = 
  1 active torsions:
  status: ('A' for Active; 'I' for Inactive)
    1  A    between atoms: C_9  and  N_15
                            x       y       z     vdW  Elec       q    Type
                         _______ _______ _______ _____ _____    ______ ____

>  <TORSDO>
F 1

$$$$
