=
 OpenBabel11062407543D

 34 39  0  0  1  0  0  0  0  0999 V2000
  161.1160  206.0740  153.6590 C   0  0  0  0  0  0  0  0  0  0  0  0
  160.7720  208.3740  152.9530 C   0  0  0  0  0  3  0  0  0  0  0  0
  160.5150  206.5300  151.2390 C   0  0  2  0  0  3  0  0  0  0  0  0
  160.4380  206.9390  148.7630 N   0  0  1  0  0  0  0  0  0  0  0  0
  161.2910  207.8830  155.2650 C   0  0  0  0  0  3  0  0  0  0  0  0
  160.9970  208.8090  154.2610 C   0  0  0  0  0  3  0  0  0  0  0  0
  162.2280  207.9570  149.9050 C   0  0  0  0  0  0  0  0  0  0  0  0
  160.8640  207.0110  152.6290 C   0  0  0  0  0  0  0  0  0  0  0  0
  161.1930  207.7660  147.8120 C   0  0  0  0  0  2  0  0  0  0  0  0
  161.3490  206.5190  154.9640 C   0  0  0  0  0  3  0  0  0  0  0  0
  160.9820  205.1130  150.9530 C   0  0  2  0  0  3  0  0  0  0  0  0
  161.2160  204.5980  153.3740 C   0  0  0  0  0  2  0  0  0  0  0  0
  163.0190  208.1700  150.8110 O   0  0  0  0  0  0  0  0  0  0  0  0
  160.9570  205.6320  148.5880 N   0  0  0  0  0  2  0  0  0  0  0  0
  160.4140  204.7190  149.5940 C   0  0  1  0  0  3  0  0  0  0  0  0
  162.5200  208.1600  148.4700 C   0  0  1  0  0  3  0  0  0  0  0  0
  160.8310  207.4890  150.0760 C   0  0  2  0  0  3  0  0  0  0  0  0
  160.5030  204.2070  152.0810 C   0  0  0  0  0  2  0  0  0  0  0  0
  161.2220  201.6000  147.5640 C   0  0  0  0  0  0  0  0  0  0  0  0
  161.4280  200.6640  148.5820 C   0  0  0  0  0  3  0  0  0  0  0  0
  160.7680  203.3100  149.2260 C   0  0  0  0  0  0  0  0  0  0  0  0
  161.3020  201.0480  149.9190 C   0  0  0  0  0  3  0  0  0  0  0  0
  160.8920  202.9210  147.8830 C   0  0  0  0  0  3  0  0  0  0  0  0
  160.9710  202.3690  150.2410 C   0  0  0  0  0  3  0  0  0  0  0  0
  161.3440  201.2280  146.2670 F   0  0  0  0  0  0  0  0  0  0  0  0
  162.8670  209.6140  148.1550 C   0  0  0  0  0  2  0  0  0  0  0  0
  161.7870  210.4610  148.4330 O   0  0  0  0  0  0  0  0  0  0  0  0
  160.6330  212.4230  150.1610 F   0  0  0  0  0  0  0  0  0  0  0  0
  162.3580  211.7180  148.6580 C   0  0  2  0  0  3  0  0  0  0  0  0
  161.2710  212.7490  148.9790 C   0  0  1  0  0  3  0  0  0  0  0  0
  160.9600  213.0230  146.1680 S   0  0  0  0  0  0  0  0  0  0  0  0
  162.6840  213.3200  146.6830 C   0  0  0  0  0  2  0  0  0  0  0  0
  163.2230  212.1170  147.4520 C   0  0  0  0  0  2  0  0  0  0  0  0
  160.2400  212.8710  147.8540 C   0  0  0  0  0  2  0  0  0  0  0  0
  1 10  1  0  0  0  0
  2  6  2  0  0  0  0
  3  8  1  1  0  0  0
  4  9  1  6  0  0  0
  4 17  1  0  0  0  0
  6  5  1  0  0  0  0
  7 13  2  0  0  0  0
  8  2  1  0  0  0  0
  8  1  2  0  0  0  0
  9 16  1  0  0  0  0
 10  5  2  0  0  0  0
 11  3  1  0  0  0  0
 11 18  1  1  0  0  0
 12  1  1  0  0  0  0
 14  4  1  0  0  0  0
 14 15  1  0  0  0  0
 15 21  1  6  0  0  0
 15 11  1  0  0  0  0
 16 26  1  1  0  0  0
 16  7  1  0  0  0  0
 17  7  1  6  0  0  0
 17  3  1  0  0  0  0
 18 12  1  0  0  0  0
 19 23  2  0  0  0  0
 19 20  1  0  0  0  0
 20 22  2  0  0  0  0
 21 24  2  0  0  0  0
 22 24  1  0  0  0  0
 23 21  1  0  0  0  0
 25 19  1  0  0  0  0
 26 27  1  0  0  0  0
 29 27  1  6  0  0  0
 29 30  1  0  0  0  0
 30 28  1  1  0  0  0
 31 32  1  0  0  0  0
 31 34  1  0  0  0  0
 32 33  1  0  0  0  0
 33 29  1  0  0  0  0
 34 30  1  0  0  0  0
M  END
>  <MODEL>
1

>  <REMARK>
 VINA RESULT:      -8.3      0.000      0.000
  Name = 
  4 active torsions:
  status: ('A' for Active; 'I' for Inactive)
    1  A    between atoms: O_3  and  C_13
    2  A    between atoms: O_3  and  C_17
    3  A    between atoms: C_12  and  C_28
    4  A    between atoms: C_17  and  C_29
                            x       y       z     vdW  Elec       q    Type
                         _______ _______ _______ _____ _____    ______ ____

>  <TORSDO>
F 4

$$$$
=
 OpenBabel11062407543D

 34 39  0  0  1  0  0  0  0  0999 V2000
  161.7390  208.8960  148.8890 C   0  0  0  0  0  0  0  0  0  0  0  0
  162.4610  209.9030  150.9800 C   0  0  0  0  0  3  0  0  0  0  0  0
  162.2850  207.3820  150.8480 C   0  0  2  0  0  3  0  0  0  0  0  0
  162.3050  205.8830  152.8610 N   0  0  1  0  0  0  0  0  0  0  0  0
  161.9830  211.3020  149.0650 C   0  0  0  0  0  3  0  0  0  0  0  0
  162.3890  211.1690  150.3950 C   0  0  0  0  0  3  0  0  0  0  0  0
  160.7950  207.6860  152.9540 C   0  0  0  0  0  0  0  0  0  0  0  0
  162.1040  208.7590  150.2500 C   0  0  0  0  0  0  0  0  0  0  0  0
  161.6660  205.8930  154.1840 C   0  0  0  0  0  2  0  0  0  0  0  0
  161.6600  210.1680  148.3150 C   0  0  0  0  0  3  0  0  0  0  0  0
  161.5520  206.2890  150.0880 C   0  0  2  0  0  3  0  0  0  0  0  0
  161.3540  207.7030  148.0520 C   0  0  0  0  0  2  0  0  0  0  0  0
  160.1050  208.6080  152.5470 O   0  0  0  0  0  0  0  0  0  0  0  0
  161.5470  204.9530  152.1070 N   0  0  0  0  0  2  0  0  0  0  0  0
  161.9660  204.9580  150.7050 C   0  0  1  0  0  3  0  0  0  0  0  0
  160.4700  206.8500  154.1290 C   0  0  1  0  0  3  0  0  0  0  0  0
  162.0900  207.2580  152.3710 C   0  0  2  0  0  3  0  0  0  0  0  0
  161.9150  206.3970  148.6110 C   0  0  0  0  0  2  0  0  0  0  0  0
  160.8380  202.5650  147.9660 C   0  0  0  0  0  0  0  0  0  0  0  0
  160.1540  201.6040  148.7150 C   0  0  0  0  0  3  0  0  0  0  0  0
  161.3400  203.7940  149.9970 C   0  0  0  0  0  0  0  0  0  0  0  0
  160.0590  201.7370  150.1030 C   0  0  0  0  0  3  0  0  0  0  0  0
  161.4310  203.6590  148.6040 C   0  0  0  0  0  3  0  0  0  0  0  0
  160.6510  202.8310  150.7430 C   0  0  0  0  0  3  0  0  0  0  0  0
  160.9300  202.4350  146.6200 F   0  0  0  0  0  0  0  0  0  0  0  0
  160.3800  207.6730  155.4120 C   0  0  0  0  0  2  0  0  0  0  0  0
  159.4990  208.7500  155.2580 O   0  0  0  0  0  0  0  0  0  0  0  0
  158.5110  211.4280  155.4140 F   0  0  0  0  0  0  0  0  0  0  0  0
  159.7940  209.6180  156.3150 C   0  0  2  0  0  3  0  0  0  0  0  0
  159.7800  211.0720  155.8330 C   0  0  1  0  0  3  0  0  0  0  0  0
  162.4620  210.6300  155.0070 S   0  0  0  0  0  0  0  0  0  0  0  0
  162.2360  210.2500  156.7760 C   0  0  0  0  0  2  0  0  0  0  0  0
  161.1290  209.2140  156.9590 C   0  0  0  0  0  2  0  0  0  0  0  0
  160.7820  211.3150  154.7020 C   0  0  0  0  0  2  0  0  0  0  0  0
  1  8  1  0  0  0  0
  3  8  1  6  0  0  0
  3 17  1  0  0  0  0
  4  9  1  1  0  0  0
  5  6  2  0  0  0  0
  6  2  1  0  0  0  0
  7 16  1  0  0  0  0
  8  2  2  0  0  0  0
 10  1  2  0  0  0  0
 10  5  1  0  0  0  0
 11 18  1  6  0  0  0
 11 15  1  0  0  0  0
 11  3  1  0  0  0  0
 12 18  1  0  0  0  0
 12  1  1  0  0  0  0
 13  7  2  0  0  0  0
 14  4  1  0  0  0  0
 15 21  1  6  0  0  0
 15 14  1  0  0  0  0
 16  9  1  0  0  0  0
 16 26  1  1  0  0  0
 17  4  1  0  0  0  0
 17  7  1  6  0  0  0
 19 23  2  0  0  0  0
 19 20  1  0  0  0  0
 20 22  2  0  0  0  0
 21 24  2  0  0  0  0
 22 24  1  0  0  0  0
 23 21  1  0  0  0  0
 25 19  1  0  0  0  0
 27 26  1  0  0  0  0
 29 27  1  6  0  0  0
 29 33  1  0  0  0  0
 30 28  1  6  0  0  0
 30 29  1  0  0  0  0
 31 32  1  0  0  0  0
 32 33  1  0  0  0  0
 34 31  1  0  0  0  0
 34 30  1  0  0  0  0
M  END
>  <MODEL>
2

>  <REMARK>
 VINA RESULT:      -7.9      2.793      5.499
  Name = 
  4 active torsions:
  status: ('A' for Active; 'I' for Inactive)
    1  A    between atoms: O_3  and  C_13
    2  A    between atoms: O_3  and  C_17
    3  A    between atoms: C_12  and  C_28
    4  A    between atoms: C_17  and  C_29
                            x       y       z     vdW  Elec       q    Type
                         _______ _______ _______ _____ _____    ______ ____

>  <TORSDO>
F 4

$$$$
=
 OpenBabel11062407543D

 34 39  0  0  1  0  0  0  0  0999 V2000
  160.9360  208.5790  153.3000 C   0  0  0  0  0  0  0  0  0  0  0  0
  161.7130  206.3870  152.5900 C   0  0  0  0  0  3  0  0  0  0  0  0
  162.1120  208.3660  151.0650 C   0  0  2  0  0  3  0  0  0  0  0  0
  162.7880  208.1470  148.6570 N   0  0  1  0  0  0  0  0  0  0  0  0
  160.6350  206.6510  154.7410 C   0  0  0  0  0  3  0  0  0  0  0  0
  161.2590  205.8370  153.7920 C   0  0  0  0  0  3  0  0  0  0  0  0
  160.9310  206.8570  149.3110 C   0  0  0  0  0  0  0  0  0  0  0  0
  161.5260  207.7510  152.3150 C   0  0  0  0  0  0  0  0  0  0  0  0
  162.3730  207.3110  147.5220 C   0  0  0  0  0  2  0  0  0  0  0  0
  160.4750  208.0170  154.4950 C   0  0  0  0  0  3  0  0  0  0  0  0
  161.5470  209.7400  150.7420 C   0  0  2  0  0  3  0  0  0  0  0  0
  160.7180  210.0510  153.0660 C   0  0  0  0  0  2  0  0  0  0  0  0
  159.9910  206.4930  150.0010 O   0  0  0  0  0  0  0  0  0  0  0  0
  162.1630  209.3970  148.4260 N   0  0  0  0  0  2  0  0  0  0  0  0
  162.3500  210.2910  149.5690 C   0  0  1  0  0  3  0  0  0  0  0  0
  160.9930  206.7260  147.8400 C   0  0  1  0  0  3  0  0  0  0  0  0
  162.1850  207.4640  149.8190 C   0  0  2  0  0  3  0  0  0  0  0  0
  161.6470  210.6100  151.9900 C   0  0  0  0  0  2  0  0  0  0  0  0
  162.2060  213.7200  147.9190 C   0  0  0  0  0  0  0  0  0  0  0  0
  161.0640  214.2580  148.5200 C   0  0  0  0  0  3  0  0  0  0  0  0
  161.9130  211.6750  149.1920 C   0  0  0  0  0  0  0  0  0  0  0  0
  160.3490  213.5090  149.4570 C   0  0  0  0  0  3  0  0  0  0  0  0
  162.6310  212.4300  148.2530 C   0  0  0  0  0  3  0  0  0  0  0  0
  160.7730  212.2190  149.7940 C   0  0  0  0  0  3  0  0  0  0  0  0
  162.9000  214.4470  147.0100 F   0  0  0  0  0  0  0  0  0  0  0  0
  160.9090  205.2690  147.3890 C   0  0  0  0  0  2  0  0  0  0  0  0
  160.4140  204.4530  148.4140 O   0  0  0  0  0  0  0  0  0  0  0  0
  161.5820  202.6400  146.5380 F   0  0  0  0  0  0  0  0  0  0  0  0
  161.4670  203.5880  148.7330 C   0  0  2  0  0  3  0  0  0  0  0  0
  161.4010  202.3230  147.8720 C   0  0  1  0  0  3  0  0  0  0  0  0
  159.5610  201.3320  149.7960 S   0  0  0  0  0  0  0  0  0  0  0  0
  161.1360  201.8310  150.5700 C   0  0  0  0  0  2  0  0  0  0  0  0
  161.4500  203.2870  150.2390 C   0  0  0  0  0  2  0  0  0  0  0  0
  160.0780  201.5730  148.0480 C   0  0  0  0  0  2  0  0  0  0  0  0
  1 10  1  0  0  0  0
  2  6  2  0  0  0  0
  3  8  1  1  0  0  0
  4  9  1  6  0  0  0
  4 17  1  0  0  0  0
  6  5  1  0  0  0  0
  7 13  2  0  0  0  0
  8  2  1  0  0  0  0
  8  1  2  0  0  0  0
  9 16  1  0  0  0  0
 10  5  2  0  0  0  0
 11  3  1  0  0  0  0
 11 18  1  1  0  0  0
 12  1  1  0  0  0  0
 14  4  1  0  0  0  0
 14 15  1  0  0  0  0
 15 21  1  6  0  0  0
 15 11  1  0  0  0  0
 16 26  1  1  0  0  0
 16  7  1  0  0  0  0
 17  7  1  6  0  0  0
 17  3  1  0  0  0  0
 18 12  1  0  0  0  0
 19 23  2  0  0  0  0
 19 20  1  0  0  0  0
 20 22  2  0  0  0  0
 21 24  2  0  0  0  0
 22 24  1  0  0  0  0
 23 21  1  0  0  0  0
 25 19  1  0  0  0  0
 26 27  1  0  0  0  0
 29 27  1  6  0  0  0
 29 33  1  0  0  0  0
 30 28  1  6  0  0  0
 30 34  1  0  0  0  0
 30 29  1  0  0  0  0
 31 32  1  0  0  0  0
 33 32  1  0  0  0  0
 34 31  1  0  0  0  0
M  END
>  <MODEL>
3

>  <REMARK>
 VINA RESULT:      -7.5      2.832      7.677
  Name = 
  4 active torsions:
  status: ('A' for Active; 'I' for Inactive)
    1  A    between atoms: O_3  and  C_13
    2  A    between atoms: O_3  and  C_17
    3  A    between atoms: C_12  and  C_28
    4  A    between atoms: C_17  and  C_29
                            x       y       z     vdW  Elec       q    Type
                         _______ _______ _______ _____ _____    ______ ____

>  <TORSDO>
F 4

$$$$
=
 OpenBabel11062407543D

 34 39  0  0  1  0  0  0  0  0999 V2000
  160.5160  209.0590  153.9330 C   0  0  0  0  0  0  0  0  0  0  0  0
  161.5840  206.8960  153.6340 C   0  0  0  0  0  3  0  0  0  0  0  0
  161.9130  208.6650  151.8550 C   0  0  2  0  0  3  0  0  0  0  0  0
  162.8310  208.1790  149.5690 N   0  0  1  0  0  0  0  0  0  0  0  0
  160.2880  207.3400  155.6280 C   0  0  0  0  0  3  0  0  0  0  0  0
  161.0810  206.4770  154.8680 C   0  0  0  0  0  3  0  0  0  0  0  0
  161.0690  206.7860  150.2710 C   0  0  0  0  0  0  0  0  0  0  0  0
  161.2810  208.1730  153.1360 C   0  0  0  0  0  0  0  0  0  0  0  0
  162.6160  207.1440  148.5490 C   0  0  0  0  0  2  0  0  0  0  0  0
  160.0080  208.6270  155.1620 C   0  0  0  0  0  3  0  0  0  0  0  0
  161.2390  209.8990  151.2800 C   0  0  2  0  0  3  0  0  0  0  0  0
  160.1660  210.4450  153.4560 C   0  0  0  0  0  2  0  0  0  0  0  0
  160.1120  206.4170  150.9350 O   0  0  0  0  0  0  0  0  0  0  0  0
  162.1010  209.2990  149.0990 N   0  0  0  0  0  2  0  0  0  0  0  0
  162.0850  210.3650  150.1000 C   0  0  1  0  0  3  0  0  0  0  0  0
  161.2820  206.4500  148.8470 C   0  0  1  0  0  3  0  0  0  0  0  0
  162.1980  207.6060  150.7730 C   0  0  2  0  0  3  0  0  0  0  0  0
  161.1280  210.9480  152.3810 C   0  0  0  0  0  2  0  0  0  0  0  0
  161.3380  213.1420  147.6030 C   0  0  0  0  0  0  0  0  0  0  0  0
  160.5060  213.9690  148.3630 C   0  0  0  0  0  3  0  0  0  0  0  0
  161.5410  211.6180  149.4810 C   0  0  0  0  0  0  0  0  0  0  0  0
  160.1940  213.6240  149.6810 C   0  0  0  0  0  3  0  0  0  0  0  0
  161.8560  211.9680  148.1590 C   0  0  0  0  0  3  0  0  0  0  0  0
  160.7110  212.4500  150.2390 C   0  0  0  0  0  3  0  0  0  0  0  0
  161.6410  213.4770  146.3260 F   0  0  0  0  0  0  0  0  0  0  0  0
  161.3960  204.9440  148.6230 C   0  0  0  0  0  2  0  0  0  0  0  0
  160.7400  204.5590  147.4480 O   0  0  0  0  0  0  0  0  0  0  0  0
  162.7660  205.2660  145.5600 F   0  0  0  0  0  0  0  0  0  0  0  0
  161.5890  203.6240  146.8450 C   0  0  2  0  0  3  0  0  0  0  0  0
  162.0170  204.1080  145.4560 C   0  0  1  0  0  3  0  0  0  0  0  0
  159.5780  202.9930  144.5190 S   0  0  0  0  0  0  0  0  0  0  0  0
  160.5820  201.7560  145.4070 C   0  0  0  0  0  2  0  0  0  0  0  0
  160.9060  202.2490  146.8150 C   0  0  0  0  0  2  0  0  0  0  0  0
  160.8190  204.3500  144.5350 C   0  0  0  0  0  2  0  0  0  0  0  0
  1 10  1  0  0  0  0
  2  6  2  0  0  0  0
  3  8  1  1  0  0  0
  4  9  1  6  0  0  0
  4 17  1  0  0  0  0
  6  5  1  0  0  0  0
  7 13  2  0  0  0  0
  8  2  1  0  0  0  0
  8  1  2  0  0  0  0
  9 16  1  0  0  0  0
 10  5  2  0  0  0  0
 11  3  1  0  0  0  0
 11 18  1  1  0  0  0
 12  1  1  0  0  0  0
 14  4  1  0  0  0  0
 14 15  1  0  0  0  0
 15 21  1  6  0  0  0
 15 11  1  0  0  0  0
 16 26  1  1  0  0  0
 16  7  1  0  0  0  0
 17  7  1  6  0  0  0
 17  3  1  0  0  0  0
 18 12  1  0  0  0  0
 19 23  2  0  0  0  0
 19 20  1  0  0  0  0
 20 22  2  0  0  0  0
 21 24  2  0  0  0  0
 22 24  1  0  0  0  0
 23 21  1  0  0  0  0
 25 19  1  0  0  0  0
 27 26  1  0  0  0  0
 29 27  1  6  0  0  0
 30 28  1  1  0  0  0
 30 29  1  0  0  0  0
 31 34  1  0  0  0  0
 31 32  1  0  0  0  0
 32 33  1  0  0  0  0
 33 29  1  0  0  0  0
 34 30  1  0  0  0  0
M  END
>  <MODEL>
4

>  <REMARK>
 VINA RESULT:      -7.2      2.845      7.323
  Name = 
  4 active torsions:
  status: ('A' for Active; 'I' for Inactive)
    1  A    between atoms: O_3  and  C_13
    2  A    between atoms: O_3  and  C_17
    3  A    between atoms: C_12  and  C_28
    4  A    between atoms: C_17  and  C_29
                            x       y       z     vdW  Elec       q    Type
                         _______ _______ _______ _____ _____    ______ ____

>  <TORSDO>
F 4

$$$$
=
 OpenBabel11062407543D

 34 39  0  0  1  0  0  0  0  0999 V2000
  160.6960  203.9270  150.5850 C   0  0  0  0  0  0  0  0  0  0  0  0
  162.0350  204.7510  148.7310 C   0  0  0  0  0  3  0  0  0  0  0  0
  161.9830  206.0920  150.8760 C   0  0  2  0  0  3  0  0  0  0  0  0
  162.7950  208.4610  151.0510 N   0  0  1  0  0  0  0  0  0  0  0  0
  160.8350  202.6610  148.5210 C   0  0  0  0  0  3  0  0  0  0  0  0
  161.6850  203.6270  147.9790 C   0  0  0  0  0  3  0  0  0  0  0  0
  161.3020  208.0280  149.2840 C   0  0  0  0  0  0  0  0  0  0  0  0
  161.5200  204.9330  150.0240 C   0  0  0  0  0  0  0  0  0  0  0  0
  162.6570  209.6810  150.2450 C   0  0  0  0  0  2  0  0  0  0  0  0
  160.3430  202.8110  149.8210 C   0  0  0  0  0  3  0  0  0  0  0  0
  161.1020  206.3440  152.0880 C   0  0  2  0  0  3  0  0  0  0  0  0
  160.1210  204.0620  151.9710 C   0  0  0  0  0  2  0  0  0  0  0  0
  160.4570  207.4310  148.6360 O   0  0  0  0  0  0  0  0  0  0  0  0
  161.8830  208.6350  152.1210 N   0  0  0  0  0  2  0  0  0  0  0  0
  161.7870  207.4180  152.9260 C   0  0  1  0  0  3  0  0  0  0  0  0
  161.4590  209.4990  149.3060 C   0  0  1  0  0  3  0  0  0  0  0  0
  162.3370  207.3960  150.1370 C   0  0  2  0  0  3  0  0  0  0  0  0
  160.9220  205.0300  152.8400 C   0  0  0  0  0  2  0  0  0  0  0  0
  159.8070  209.2480  155.6150 C   0  0  0  0  0  0  0  0  0  0  0  0
  159.6220  208.2270  156.5530 C   0  0  0  0  0  3  0  0  0  0  0  0
  161.0290  207.7150  154.1850 C   0  0  0  0  0  0  0  0  0  0  0  0
  160.1420  206.9530  156.3100 C   0  0  0  0  0  3  0  0  0  0  0  0
  160.5090  208.9940  154.4330 C   0  0  0  0  0  3  0  0  0  0  0  0
  160.8460  206.6970  155.1280 C   0  0  0  0  0  3  0  0  0  0  0  0
  159.3030  210.4830  155.8510 F   0  0  0  0  0  0  0  0  0  0  0  0
  161.7680  210.0640  147.9220 C   0  0  0  0  0  2  0  0  0  0  0  0
  161.0330  211.2300  147.6780 O   0  0  0  0  0  0  0  0  0  0  0  0
  160.8310  212.6580  150.1460 F   0  0  0  0  0  0  0  0  0  0  0  0
  161.8870  212.2810  148.0310 C   0  0  2  0  0  3  0  0  0  0  0  0
  161.1670  213.2700  148.9520 C   0  0  1  0  0  3  0  0  0  0  0  0
  160.1470  214.4530  146.5800 S   0  0  0  0  0  0  0  0  0  0  0  0
  161.9690  214.3800  146.5610 C   0  0  0  0  0  2  0  0  0  0  0  0
  162.4440  212.9430  146.7610 C   0  0  0  0  0  2  0  0  0  0  0  0
  159.9100  213.8550  148.3030 C   0  0  0  0  0  2  0  0  0  0  0  0
  1 12  1  0  0  0  0
  2  8  2  0  0  0  0
  3  8  1  6  0  0  0
  3 11  1  0  0  0  0
  4  9  1  6  0  0  0
  4 14  1  0  0  0  0
  5 10  1  0  0  0  0
  6  5  2  0  0  0  0
  6  2  1  0  0  0  0
  7 16  1  0  0  0  0
  8  1  1  0  0  0  0
 10  1  2  0  0  0  0
 11 18  1  1  0  0  0
 11 15  1  0  0  0  0
 12 18  1  0  0  0  0
 13  7  2  0  0  0  0
 14 15  1  0  0  0  0
 15 21  1  1  0  0  0
 16 26  1  6  0  0  0
 16  9  1  0  0  0  0
 17  7  1  1  0  0  0
 17  3  1  0  0  0  0
 17  4  1  0  0  0  0
 19 25  1  0  0  0  0
 19 20  1  0  0  0  0
 21 23  1  0  0  0  0
 21 24  2  0  0  0  0
 22 20  2  0  0  0  0
 23 19  2  0  0  0  0
 24 22  1  0  0  0  0
 27 26  1  0  0  0  0
 29 27  1  6  0  0  0
 29 30  1  0  0  0  0
 30 28  1  1  0  0  0
 31 34  1  0  0  0  0
 32 31  1  0  0  0  0
 32 33  1  0  0  0  0
 33 29  1  0  0  0  0
 34 30  1  0  0  0  0
M  END
>  <MODEL>
5

>  <REMARK>
 VINA RESULT:      -7.0      2.592      5.484
  Name = 
  4 active torsions:
  status: ('A' for Active; 'I' for Inactive)
    1  A    between atoms: O_3  and  C_13
    2  A    between atoms: O_3  and  C_17
    3  A    between atoms: C_12  and  C_28
    4  A    between atoms: C_17  and  C_29
                            x       y       z     vdW  Elec       q    Type
                         _______ _______ _______ _____ _____    ______ ____

>  <TORSDO>
F 4

$$$$
=
 OpenBabel11062407543D

 34 39  0  0  1  0  0  0  0  0999 V2000
  161.0810  206.1760  153.5980 C   0  0  0  0  0  0  0  0  0  0  0  0
  160.7160  208.4960  152.9680 C   0  0  0  0  0  3  0  0  0  0  0  0
  160.5100  206.7100  151.1870 C   0  0  2  0  0  3  0  0  0  0  0  0
  160.4640  207.2050  148.7260 N   0  0  1  0  0  0  0  0  0  0  0  0
  161.2070  207.9300  155.2690 C   0  0  0  0  0  3  0  0  0  0  0  0
  160.9150  208.8870  154.2940 C   0  0  0  0  0  3  0  0  0  0  0  0
  162.2220  208.2050  149.9300 C   0  0  0  0  0  0  0  0  0  0  0  0
  160.8310  207.1470  152.5980 C   0  0  0  0  0  0  0  0  0  0  0  0
  161.2210  208.0750  147.8160 C   0  0  0  0  0  2  0  0  0  0  0  0
  161.2890  206.5790  154.9210 C   0  0  0  0  0  3  0  0  0  0  0  0
  161.0000  205.3100  150.8580 C   0  0  2  0  0  3  0  0  0  0  0  0
  161.2060  204.7130  153.2630 C   0  0  0  0  0  2  0  0  0  0  0  0
  162.9970  208.3960  150.8540 O   0  0  0  0  0  0  0  0  0  0  0  0
  161.0030  205.9120  148.5130 N   0  0  0  0  0  2  0  0  0  0  0  0
  160.4580  204.9570  149.4780 C   0  0  1  0  0  3  0  0  0  0  0  0
  162.5330  208.4630  148.5070 C   0  0  1  0  0  3  0  0  0  0  0  0
  160.8300  207.7140  150.0630 C   0  0  2  0  0  3  0  0  0  0  0  0
  160.5170  204.3590  151.9460 C   0  0  0  0  0  2  0  0  0  0  0  0
  161.1900  201.2210  149.5820 C   0  0  0  0  0  0  0  0  0  0  0  0
  161.5550  200.9830  148.2540 C   0  0  0  0  0  3  0  0  0  0  0  0
  160.8370  203.5660  149.0660 C   0  0  0  0  0  0  0  0  0  0  0  0
  161.5640  202.0340  147.3320 C   0  0  0  0  0  3  0  0  0  0  0  0
  160.8310  202.5100  149.9890 C   0  0  0  0  0  3  0  0  0  0  0  0
  161.2060  203.3240  147.7380 C   0  0  0  0  0  3  0  0  0  0  0  0
  161.1810  200.2020  150.4750 F   0  0  0  0  0  0  0  0  0  0  0  0
  162.8640  209.9310  148.2490 C   0  0  0  0  0  2  0  0  0  0  0  0
  161.7450  210.7450  148.4610 O   0  0  0  0  0  0  0  0  0  0  0  0
  163.6860  212.8340  148.2610 F   0  0  0  0  0  0  0  0  0  0  0  0
  161.7670  211.6770  147.4170 C   0  0  2  0  0  3  0  0  0  0  0  0
  162.3620  213.0040  147.8970 C   0  0  1  0  0  3  0  0  0  0  0  0
  159.7540  213.6220  148.8380 S   0  0  0  0  0  0  0  0  0  0  0  0
  159.7450  213.2120  147.0610 C   0  0  0  0  0  2  0  0  0  0  0  0
  160.3550  211.8310  146.8320 C   0  0  0  0  0  2  0  0  0  0  0  0
  161.5790  213.5980  149.0700 C   0  0  0  0  0  2  0  0  0  0  0  0
  1 10  1  0  0  0  0
  2  6  2  0  0  0  0
  3  8  1  1  0  0  0
  4  9  1  6  0  0  0
  4 17  1  0  0  0  0
  6  5  1  0  0  0  0
  7 13  2  0  0  0  0
  8  2  1  0  0  0  0
  8  1  2  0  0  0  0
  9 16  1  0  0  0  0
 10  5  2  0  0  0  0
 11  3  1  0  0  0  0
 11 18  1  1  0  0  0
 12  1  1  0  0  0  0
 14  4  1  0  0  0  0
 14 15  1  0  0  0  0
 15 21  1  6  0  0  0
 15 11  1  0  0  0  0
 16 26  1  1  0  0  0
 16  7  1  0  0  0  0
 17  7  1  6  0  0  0
 17  3  1  0  0  0  0
 18 12  1  0  0  0  0
 19 23  1  0  0  0  0
 19 25  1  0  0  0  0
 20 19  2  0  0  0  0
 21 23  2  0  0  0  0
 22 24  2  0  0  0  0
 22 20  1  0  0  0  0
 24 21  1  0  0  0  0
 26 27  1  0  0  0  0
 29 30  1  0  0  0  0
 29 27  1  1  0  0  0
 30 28  1  1  0  0  0
 30 34  1  0  0  0  0
 31 34  1  0  0  0  0
 32 31  1  0  0  0  0
 33 32  1  0  0  0  0
 33 29  1  0  0  0  0
M  END
>  <MODEL>
6

>  <REMARK>
 VINA RESULT:      -6.9      1.220      1.641
  Name = 
  4 active torsions:
  status: ('A' for Active; 'I' for Inactive)
    1  A    between atoms: O_3  and  C_13
    2  A    between atoms: O_3  and  C_17
    3  A    between atoms: C_12  and  C_28
    4  A    between atoms: C_17  and  C_29
                            x       y       z     vdW  Elec       q    Type
                         _______ _______ _______ _____ _____    ______ ____

>  <TORSDO>
F 4

$$$$
=
 OpenBabel11062407543D

 34 39  0  0  1  0  0  0  0  0999 V2000
  160.8320  204.5360  152.6860 C   0  0  0  0  0  0  0  0  0  0  0  0
  161.9080  204.0080  150.5720 C   0  0  0  0  0  3  0  0  0  0  0  0
  161.9960  206.3930  151.4120 C   0  0  2  0  0  3  0  0  0  0  0  0
  162.6620  208.3440  149.9790 N   0  0  1  0  0  0  0  0  0  0  0  0
  160.8340  202.2590  151.8530 C   0  0  0  0  0  3  0  0  0  0  0  0
  161.5560  202.6650  150.7280 C   0  0  0  0  0  3  0  0  0  0  0  0
  161.0210  206.9270  149.0640 C   0  0  0  0  0  0  0  0  0  0  0  0
  161.5220  204.9620  151.5260 C   0  0  0  0  0  0  0  0  0  0  0  0
  162.3570  208.7980  148.6160 C   0  0  0  0  0  2  0  0  0  0  0  0
  160.4750  203.1920  152.8290 C   0  0  0  0  0  3  0  0  0  0  0  0
  161.2330  207.3570  152.3050 C   0  0  2  0  0  3  0  0  0  0  0  0
  160.4000  205.5120  153.7490 C   0  0  0  0  0  2  0  0  0  0  0  0
  160.1530  206.0680  149.0360 O   0  0  0  0  0  0  0  0  0  0  0  0
  161.8590  209.1590  150.8150 N   0  0  0  0  0  2  0  0  0  0  0  0
  161.9310  208.7090  152.2050 C   0  0  1  0  0  3  0  0  0  0  0  0
  161.0810  208.0890  148.1510 C   0  0  1  0  0  3  0  0  0  0  0  0
  162.1810  206.9490  149.9870 C   0  0  2  0  0  3  0  0  0  0  0  0
  161.2230  206.7990  153.7240 C   0  0  0  0  0  2  0  0  0  0  0  0
  161.2760  211.0780  155.1140 C   0  0  0  0  0  0  0  0  0  0  0  0
  160.0660  211.6570  154.7200 C   0  0  0  0  0  3  0  0  0  0  0  0
  161.2940  209.7360  153.0910 C   0  0  0  0  0  0  0  0  0  0  0  0
  159.4680  211.2750  153.5170 C   0  0  0  0  0  3  0  0  0  0  0  0
  161.8910  210.1190  154.3020 C   0  0  0  0  0  3  0  0  0  0  0  0
  160.0810  210.3150  152.7030 C   0  0  0  0  0  3  0  0  0  0  0  0
  161.8560  211.4480  156.2810 F   0  0  0  0  0  0  0  0  0  0  0  0
  161.2020  207.6650  146.6890 C   0  0  0  0  0  2  0  0  0  0  0  0
  160.8940  206.3080  146.5310 O   0  0  0  0  0  0  0  0  0  0  0  0
  161.1340  206.2060  143.6850 F   0  0  0  0  0  0  0  0  0  0  0  0
  161.9990  205.7570  145.8720 C   0  0  2  0  0  3  0  0  0  0  0  0
  161.5820  205.1910  144.5110 C   0  0  1  0  0  3  0  0  0  0  0  0
  160.8320  202.8430  145.9230 S   0  0  0  0  0  0  0  0  0  0  0  0
  162.5730  203.2850  146.2360 C   0  0  0  0  0  2  0  0  0  0  0  0
  162.6700  204.7100  146.7740 C   0  0  0  0  0  2  0  0  0  0  0  0
  160.4990  204.1170  144.6390 C   0  0  0  0  0  2  0  0  0  0  0  0
  1 10  1  0  0  0  0
  1 12  1  0  0  0  0
  2  6  2  0  0  0  0
  2  8  1  0  0  0  0
  3  8  1  6  0  0  0
  3 11  1  0  0  0  0
  4  9  1  6  0  0  0
  4 17  1  0  0  0  0
  4 14  1  0  0  0  0
  5 10  2  0  0  0  0
  6  5  1  0  0  0  0
  8  1  2  0  0  0  0
 11 18  1  1  0  0  0
 13  7  2  0  0  0  0
 14 15  1  0  0  0  0
 15 11  1  0  0  0  0
 15 21  1  1  0  0  0
 16 26  1  6  0  0  0
 16  9  1  0  0  0  0
 16  7  1  0  0  0  0
 17  7  1  1  0  0  0
 17  3  1  0  0  0  0
 18 12  1  0  0  0  0
 19 25  1  0  0  0  0
 20 19  1  0  0  0  0
 21 23  1  0  0  0  0
 22 20  2  0  0  0  0
 23 19  2  0  0  0  0
 24 21  2  0  0  0  0
 24 22  1  0  0  0  0
 27 26  1  0  0  0  0
 29 27  1  1  0  0  0
 29 33  1  0  0  0  0
 30 28  1  6  0  0  0
 30 34  1  0  0  0  0
 30 29  1  0  0  0  0
 31 32  1  0  0  0  0
 32 33  1  0  0  0  0
 34 31  1  0  0  0  0
M  END
>  <MODEL>
7

>  <REMARK>
 VINA RESULT:      -6.4      3.289      7.024
  Name = 
  4 active torsions:
  status: ('A' for Active; 'I' for Inactive)
    1  A    between atoms: O_3  and  C_13
    2  A    between atoms: O_3  and  C_17
    3  A    between atoms: C_12  and  C_28
    4  A    between atoms: C_17  and  C_29
                            x       y       z     vdW  Elec       q    Type
                         _______ _______ _______ _____ _____    ______ ____

>  <TORSDO>
F 4

$$$$
=
 OpenBabel11062407543D

 34 39  0  0  1  0  0  0  0  0999 V2000
  160.1640  209.1630  154.9410 C   0  0  0  0  0  0  0  0  0  0  0  0
  161.5260  207.1970  154.5080 C   0  0  0  0  0  3  0  0  0  0  0  0
  161.5820  209.0990  152.8400 C   0  0  2  0  0  3  0  0  0  0  0  0
  162.5370  208.8890  150.5280 N   0  0  1  0  0  0  0  0  0  0  0  0
  160.2000  207.3300  156.5280 C   0  0  0  0  0  3  0  0  0  0  0  0
  161.1000  206.6360  155.7150 C   0  0  0  0  0  3  0  0  0  0  0  0
  160.9980  207.2190  151.1460 C   0  0  0  0  0  0  0  0  0  0  0  0
  161.0390  208.4450  154.0910 C   0  0  0  0  0  0  0  0  0  0  0  0
  162.4610  207.8970  149.4470 C   0  0  0  0  0  2  0  0  0  0  0  0
  159.7350  208.5900  156.1420 C   0  0  0  0  0  3  0  0  0  0  0  0
  160.7320  210.2570  152.3430 C   0  0  2  0  0  3  0  0  0  0  0  0
  159.6150  210.5110  154.5500 C   0  0  0  0  0  2  0  0  0  0  0  0
  160.1100  206.6770  151.7870 O   0  0  0  0  0  0  0  0  0  0  0  0
  161.6500  209.9190  150.1290 N   0  0  0  0  0  2  0  0  0  0  0  0
  161.4920  210.9100  151.1940 C   0  0  1  0  0  3  0  0  0  0  0  0
  161.2430  207.0030  149.7040 C   0  0  1  0  0  3  0  0  0  0  0  0
  162.0040  208.1590  151.6950 C   0  0  2  0  0  3  0  0  0  0  0  0
  160.4840  211.2110  153.5070 C   0  0  0  0  0  2  0  0  0  0  0  0
  158.9900  213.7530  150.7880 C   0  0  0  0  0  0  0  0  0  0  0  0
  159.4460  214.3430  149.6050 C   0  0  0  0  0  3  0  0  0  0  0  0
  160.7690  212.1070  150.6530 C   0  0  0  0  0  0  0  0  0  0  0  0
  160.5590  213.8160  148.9450 C   0  0  0  0  0  3  0  0  0  0  0  0
  159.6490  212.6360  151.3120 C   0  0  0  0  0  3  0  0  0  0  0  0
  161.2190  212.6990  149.4680 C   0  0  0  0  0  3  0  0  0  0  0  0
  157.9110  214.2640  151.4270 F   0  0  0  0  0  0  0  0  0  0  0  0
  161.5680  205.5450  149.3880 C   0  0  0  0  0  2  0  0  0  0  0  0
  160.9830  205.1490  148.1790 O   0  0  0  0  0  0  0  0  0  0  0  0
  163.4700  205.8440  146.9550 F   0  0  0  0  0  0  0  0  0  0  0  0
  161.8640  204.2060  147.6380 C   0  0  2  0  0  3  0  0  0  0  0  0
  162.6660  204.8210  146.4870 C   0  0  1  0  0  3  0  0  0  0  0  0
  160.4420  204.1810  144.8400 S   0  0  0  0  0  0  0  0  0  0  0  0
  161.0740  202.7090  145.7120 C   0  0  0  0  0  2  0  0  0  0  0  0
  161.0840  202.9510  147.2200 C   0  0  0  0  0  2  0  0  0  0  0  0
  161.7620  205.3470  145.3700 C   0  0  0  0  0  2  0  0  0  0  0  0
  1 10  1  0  0  0  0
  2  6  2  0  0  0  0
  3  8  1  1  0  0  0
  4  9  1  6  0  0  0
  4 17  1  0  0  0  0
  6  5  1  0  0  0  0
  7 13  2  0  0  0  0
  8  2  1  0  0  0  0
  8  1  2  0  0  0  0
  9 16  1  0  0  0  0
 10  5  2  0  0  0  0
 11  3  1  0  0  0  0
 11 18  1  1  0  0  0
 12  1  1  0  0  0  0
 14  4  1  0  0  0  0
 14 15  1  0  0  0  0
 15 21  1  6  0  0  0
 15 11  1  0  0  0  0
 16 26  1  1  0  0  0
 16  7  1  0  0  0  0
 17  7  1  6  0  0  0
 17  3  1  0  0  0  0
 18 12  1  0  0  0  0
 19 23  1  0  0  0  0
 19 25  1  0  0  0  0
 20 19  2  0  0  0  0
 21 23  2  0  0  0  0
 22 24  2  0  0  0  0
 22 20  1  0  0  0  0
 24 21  1  0  0  0  0
 27 26  1  0  0  0  0
 29 27  1  6  0  0  0
 30 28  1  1  0  0  0
 30 29  1  0  0  0  0
 31 34  1  0  0  0  0
 31 32  1  0  0  0  0
 32 33  1  0  0  0  0
 33 29  1  0  0  0  0
 34 30  1  0  0  0  0
M  END
>  <MODEL>
8

>  <REMARK>
 VINA RESULT:      -6.0      2.908      7.441
  Name = 
  4 active torsions:
  status: ('A' for Active; 'I' for Inactive)
    1  A    between atoms: O_3  and  C_13
    2  A    between atoms: O_3  and  C_17
    3  A    between atoms: C_12  and  C_28
    4  A    between atoms: C_17  and  C_29
                            x       y       z     vdW  Elec       q    Type
                         _______ _______ _______ _____ _____    ______ ____

>  <TORSDO>
F 4

$$$$
=
 OpenBabel11062407543D

 34 39  0  0  1  0  0  0  0  0999 V2000
  160.5210  211.3320  152.7400 C   0  0  0  0  0  0  0  0  0  0  0  0
  161.6140  209.2120  153.2070 C   0  0  0  0  0  3  0  0  0  0  0  0
  161.9300  210.2590  150.9260 C   0  0  2  0  0  3  0  0  0  0  0  0
  162.8610  209.0220  148.9490 N   0  0  1  0  0  0  0  0  0  0  0  0
  160.3060  210.3040  154.9250 C   0  0  0  0  0  3  0  0  0  0  0  0
  161.1100  209.2400  154.5100 C   0  0  0  0  0  3  0  0  0  0  0  0
  161.1110  207.9390  150.0910 C   0  0  0  0  0  0  0  0  0  0  0  0
  161.2980  210.2340  152.2990 C   0  0  0  0  0  0  0  0  0  0  0  0
  162.6600  207.6960  148.3510 C   0  0  0  0  0  2  0  0  0  0  0  0
  160.0140  211.3470  154.0420 C   0  0  0  0  0  3  0  0  0  0  0  0
  161.2440  211.2100  149.9590 C   0  0  2  0  0  3  0  0  0  0  0  0
  160.1580  212.4630  151.8130 C   0  0  0  0  0  2  0  0  0  0  0  0
  160.1560  207.8120  150.8420 O   0  0  0  0  0  0  0  0  0  0  0  0
  162.1200  209.9020  148.1210 N   0  0  0  0  0  2  0  0  0  0  0  0
  162.0890  211.2490  148.6910 C   0  0  1  0  0  3  0  0  0  0  0  0
  161.3330  207.1330  148.8710 C   0  0  1  0  0  3  0  0  0  0  0  0
  162.2300  208.8940  150.2770 C   0  0  2  0  0  3  0  0  0  0  0  0
  161.1180  212.5740  150.6290 C   0  0  0  0  0  2  0  0  0  0  0  0
  159.7530  212.9290  146.1970 C   0  0  0  0  0  0  0  0  0  0  0  0
  160.5380  214.0090  145.7810 C   0  0  0  0  0  3  0  0  0  0  0  0
  161.5340  212.2030  147.6770 C   0  0  0  0  0  0  0  0  0  0  0  0
  161.8200  214.1850  146.3070 C   0  0  0  0  0  3  0  0  0  0  0  0
  160.2480  212.0270  147.1440 C   0  0  0  0  0  3  0  0  0  0  0  0
  162.3180  213.2820  147.2540 C   0  0  0  0  0  3  0  0  0  0  0  0
  158.5100  212.7590  145.6860 F   0  0  0  0  0  0  0  0  0  0  0  0
  161.4630  205.6440  149.1820 C   0  0  0  0  0  2  0  0  0  0  0  0
  160.8970  204.8650  148.1660 O   0  0  0  0  0  0  0  0  0  0  0  0
  163.2760  205.0180  146.5890 F   0  0  0  0  0  0  0  0  0  0  0  0
  161.7760  203.7910  147.9960 C   0  0  2  0  0  3  0  0  0  0  0  0
  162.4820  203.8870  146.6390 C   0  0  1  0  0  3  0  0  0  0  0  0
  160.1850  202.6100  145.5610 S   0  0  0  0  0  0  0  0  0  0  0  0
  160.9230  201.6300  146.9100 C   0  0  0  0  0  2  0  0  0  0  0  0
  161.0190  202.4680  148.1830 C   0  0  0  0  0  2  0  0  0  0  0  0
  161.4920  203.9010  145.4730 C   0  0  0  0  0  2  0  0  0  0  0  0
  1 10  1  0  0  0  0
  2  6  2  0  0  0  0
  3  8  1  1  0  0  0
  4  9  1  6  0  0  0
  4 17  1  0  0  0  0
  6  5  1  0  0  0  0
  7 13  2  0  0  0  0
  8  1  2  0  0  0  0
  8  2  1  0  0  0  0
  9 16  1  0  0  0  0
 10  5  2  0  0  0  0
 11 18  1  1  0  0  0
 11  3  1  0  0  0  0
 12  1  1  0  0  0  0
 14 15  1  0  0  0  0
 14  4  1  0  0  0  0
 15 21  1  6  0  0  0
 15 11  1  0  0  0  0
 16 26  1  1  0  0  0
 16  7  1  0  0  0  0
 17  7  1  6  0  0  0
 17  3  1  0  0  0  0
 18 12  1  0  0  0  0
 19 23  1  0  0  0  0
 20 19  2  0  0  0  0
 20 22  1  0  0  0  0
 22 24  2  0  0  0  0
 23 21  2  0  0  0  0
 24 21  1  0  0  0  0
 25 19  1  0  0  0  0
 27 26  1  0  0  0  0
 29 27  1  6  0  0  0
 29 33  1  0  0  0  0
 30 28  1  1  0  0  0
 30 29  1  0  0  0  0
 31 32  1  0  0  0  0
 32 33  1  0  0  0  0
 34 31  1  0  0  0  0
 34 30  1  0  0  0  0
M  END
>  <MODEL>
9

>  <REMARK>
 VINA RESULT:      -6.0      2.958      7.695
  Name = 
  4 active torsions:
  status: ('A' for Active; 'I' for Inactive)
    1  A    between atoms: O_3  and  C_13
    2  A    between atoms: O_3  and  C_17
    3  A    between atoms: C_12  and  C_28
    4  A    between atoms: C_17  and  C_29
                            x       y       z     vdW  Elec       q    Type
                         _______ _______ _______ _____ _____    ______ ____

>  <TORSDO>
F 4

$$$$
