=
 OpenBabel11062408473D

 55 59  0  0  1  0  0  0  0  0999 V2000
  161.9000  209.3700  149.8690 C   0  0  0  0  0  2  0  0  0  0  0  0
  161.6520  211.8790  148.7390 C   0  0  2  0  0  3  0  0  0  0  0  0
  161.4170  211.7720  150.1420 O   0  0  0  0  0  0  0  0  0  0  0  0
  162.0970  209.7120  148.3970 C   0  0  0  0  0  2  0  0  0  0  0  0
  162.0560  210.6420  150.7120 C   0  0  1  0  0  3  0  0  0  0  0  0
  162.6460  210.9980  148.2640 O   0  0  0  0  0  0  0  0  0  0  0  0
  162.0130  213.3090  148.3750 C   0  0  0  0  0  2  0  0  0  0  0  0
  161.1100  213.8050  147.2580 C   0  0  0  0  0  2  0  0  0  0  0  0
  161.5130  213.1780  145.9360 C   0  0  0  0  0  2  0  0  0  0  0  0
  162.5920  214.0180  145.2730 C   0  0  0  0  0  2  0  0  0  0  0  0
  162.3860  214.0800  143.7670 C   0  0  0  0  0  2  0  0  0  0  0  0
  161.1090  213.3640  143.3620 C   0  0  0  0  0  2  0  0  0  0  0  0
  160.9980  213.3320  141.9110 N   0  0  0  0  0  2  0  0  0  0  0  0
  160.6940  212.1290  141.2000 C   0  0  0  0  0  0  0  0  0  0  0  0
  160.5210  211.0510  141.8310 O   0  0  0  0  0  0  0  0  0  0  0  0
  159.3140  214.1590  139.0850 O   0  0  0  0  0  1  0  0  0  0  0  0
  160.5420  212.1700  139.6970 C   0  0  1  0  0  0  0  0  0  0  0  0
  158.0430  212.4180  140.1240 C   0  0  0  0  0  1  0  0  0  0  0  0
  159.2280  212.7700  139.2150 C   0  0  1  0  0  0  0  0  0  0  0  0
  159.7410  210.8530  137.8650 O   0  0  0  0  0  0  0  0  0  0  0  0
  159.1070  212.1120  137.8410 C   0  0  1  0  0  3  0  0  0  0  0  0
  161.6200  212.8810  139.1440 O   0  0  0  0  0  1  0  0  0  0  0  0
  160.4650  210.7780  139.0730 C   0  0  1  0  0  3  0  0  0  0  0  0
  161.8020  210.1400  138.8570 C   0  0  0  0  0  3  0  0  0  0  0  0
  161.9830  209.4110  137.8970 O   0  0  0  0  0  0  0  0  0  0  0  0
  157.6850  212.0070  137.3010 C   0  0  0  0  0  2  0  0  0  0  0  0
  157.1240  210.6580  137.5690 C   0  0  0  0  0  0  0  0  0  0  0  0
  157.6290  209.6520  137.0120 O   0  0  0  0  0  0  0  0  0  0  0  0
  156.0320  210.5110  138.4090 O   0  0  0  0  0  1  0  0  0  0  0  0
  161.5680  210.4170  152.1350 C   0  0  0  0  0  2  0  0  0  0  0  0
  160.9210  209.0490  152.2800 C   0  0  0  0  0  2  0  0  0  0  0  0
  161.7440  208.2090  153.0330 O   0  0  0  0  0  0  0  0  0  0  0  0
  160.8610  207.3580  153.7110 C   0  0  1  0  0  3  0  0  0  0  0  0
  161.1000  206.1850  151.0050 C   0  0  0  0  0  2  0  0  0  0  0  0
  161.4370  203.8280  150.4780 N   0  0  0  0  0  0  0  0  0  0  0  0
  161.3740  205.4010  152.2480 C   0  0  1  0  0  0  0  0  0  0  0  0
  161.3770  205.9200  153.6400 C   0  0  1  0  0  3  0  0  0  0  0  0
  161.4930  203.9410  151.9370 C   0  0  0  0  0  2  0  0  0  0  0  0
  160.8530  205.0860  149.9840 C   0  0  0  0  0  2  0  0  0  0  0  0
  162.5500  205.8670  152.8620 O   0  0  0  0  0  0  0  0  0  0  0  0
  160.5230  202.7370  150.1380 C   0  0  0  0  0  3  0  0  0  0  0  0
  160.3690  202.6530  148.7510 O   0  0  0  0  0  1  0  0  0  0  0  0
  161.0280  201.5200  150.6090 O   0  0  0  0  0  1  0  0  0  0  0  0
  161.7040  208.6620  155.5440 O   0  0  0  0  0  1  0  0  0  0  0  0
  160.6570  207.8180  155.1630 C   0  0  0  0  0  0  0  0  0  0  0  0
  160.6300  206.7060  156.0060 O   0  0  0  0  0  1  0  0  0  0  0  0
  159.3220  208.5550  155.2690 C   0  0  0  0  0  2  0  0  0  0  0  0
  159.3910  209.7970  156.1500 C   0  0  0  0  0  2  0  0  0  0  0  0
  159.5840  212.1710  156.1350 O   0  0  0  0  0  0  0  0  0  0  0  0
  158.3190  211.9260  155.5620 C   0  0  2  0  0  3  0  0  0  0  0  0
  159.4830  211.0450  155.2930 C   0  0  2  0  0  3  0  0  0  0  0  0
  158.7670  214.2310  154.4920 C   0  0  0  0  0  1  0  0  0  0  0  0
  156.5330  213.2050  154.4240 C   0  0  0  0  0  1  0  0  0  0  0  0
  158.3520  212.2430  153.0890 C   0  0  0  0  0  1  0  0  0  0  0  0
  158.0160  212.9050  154.4100 C   0  0  0  0  0  0  0  0  0  0  0  0
  1  5  1  0  0  0  0
  2  7  1  1  0  0  0
  2  3  1  0  0  0  0
  3  5  1  0  0  0  0
  4  1  1  0  0  0  0
  5 30  1  1  0  0  0
  6  4  1  0  0  0  0
  6  2  1  0  0  0  0
  8  7  1  0  0  0  0
  9  8  1  0  0  0  0
 10  9  1  0  0  0  0
 11 10  1  0  0  0  0
 12 11  1  0  0  0  0
 13 12  1  0  0  0  0
 14 15  2  0  0  0  0
 14 13  1  0  0  0  0
 16 19  1  0  0  0  0
 17 22  1  6  0  0  0
 17 14  1  0  0  0  0
 19 17  1  0  0  0  0
 19 18  1  1  0  0  0
 20 23  1  0  0  0  0
 21 26  1  1  0  0  0
 21 20  1  0  0  0  0
 21 19  1  0  0  0  0
 23 24  1  6  0  0  0
 23 17  1  0  0  0  0
 25 24  2  0  0  0  0
 26 27  1  0  0  0  0
 27 29  1  0  0  0  0
 28 27  2  0  0  0  0
 30 31  1  0  0  0  0
 31 32  1  0  0  0  0
 33 32  1  1  0  0  0
 33 45  1  0  0  0  0
 35 38  1  0  0  0  0
 36 34  1  6  0  0  0
 36 40  1  0  0  0  0
 36 37  1  0  0  0  0
 37 33  1  6  0  0  0
 38 36  1  0  0  0  0
 39 35  1  0  0  0  0
 39 34  1  0  0  0  0
 40 37  1  0  0  0  0
 41 35  1  0  0  0  0
 41 43  1  0  0  0  0
 42 41  1  0  0  0  0
 45 47  1  0  0  0  0
 45 44  1  0  0  0  0
 45 46  1  0  0  0  0
 47 48  1  0  0  0  0
 50 55  1  6  0  0  0
 50 49  1  0  0  0  0
 51 50  1  0  0  0  0
 51 49  1  0  0  0  0
 51 48  1  1  0  0  0
 54 55  1  0  0  0  0
 55 53  1  0  0  0  0
 55 52  1  0  0  0  0
M  END
>  <MODEL>
1

>  <REMARK>
 VINA RESULT:      -5.4      0.000      0.000
  Name = 
  22 active torsions:
  status: ('A' for Active; 'I' for Inactive)
    1  A    between atoms: C_1  and  C_53
    2  A    between atoms: C_2  and  C_28
    3  A    between atoms: C_2  and  C_44
    4  A    between atoms: C_6  and  C_20
    5  A    between atoms: N_7  and  C_22
    6  A    between atoms: C_8  and  C_22
    7  A    between atoms: C_8  and  C_35
    8  A    between atoms: C_10  and  N_32
    9  A    between atoms: C_11  and  C_29
   10  A    between atoms: C_16  and  C_17
   11  A    between atoms: C_16  and  C_26
   12  A    between atoms: C_17  and  C_33
   13  A    between atoms: C_19  and  C_40
   14  A    between atoms: C_26  and  C_45
   15  A    between atoms: C_27  and  C_54
   16  A    between atoms: C_28  and  O_49
   17  A    between atoms: C_29  and  C_38
   18  A    between atoms: C_33  and  C_36
   19  A    between atoms: C_33  and  O_49
   20  A    between atoms: C_35  and  C_43
   21  A    between atoms: C_43  and  C_51
   22  A    between atoms: C_51  and  C_54
                            x       y       z     vdW  Elec       q    Type
                         _______ _______ _______ _____ _____    ______ ____

>  <TORSDO>
F 22

$$$$
=
 OpenBabel11062408473D

 55 59  0  0  1  0  0  0  0  0999 V2000
  157.2600  213.1990  148.7840 C   0  0  0  0  0  2  0  0  0  0  0  0
  157.7990  213.6020  151.4630 C   0  0  2  0  0  3  0  0  0  0  0  0
  158.9170  213.4130  150.5960 O   0  0  0  0  0  0  0  0  0  0  0  0
  156.2260  213.4140  149.8830 C   0  0  0  0  0  2  0  0  0  0  0  0
  158.6170  213.7410  149.2490 C   0  0  1  0  0  3  0  0  0  0  0  0
  156.7260  214.2900  150.8590 O   0  0  0  0  0  0  0  0  0  0  0  0
  158.2320  214.3270  152.7260 C   0  0  0  0  0  2  0  0  0  0  0  0
  157.1660  214.1840  153.7980 C   0  0  0  0  0  2  0  0  0  0  0  0
  157.7850  213.7020  155.0970 C   0  0  0  0  0  2  0  0  0  0  0  0
  159.2720  214.0140  155.1090 C   0  0  0  0  0  2  0  0  0  0  0  0
  159.7770  214.2130  156.5290 C   0  0  0  0  0  2  0  0  0  0  0  0
  159.8920  212.8840  157.2570 C   0  0  0  0  0  2  0  0  0  0  0  0
  159.6080  211.7900  156.3390 N   0  0  0  0  0  2  0  0  0  0  0  0
  160.6460  211.0930  155.6450 C   0  0  0  0  0  0  0  0  0  0  0  0
  161.8500  211.4270  155.8130 O   0  0  0  0  0  0  0  0  0  0  0  0
  159.3220  208.1680  156.0790 O   0  0  0  0  0  1  0  0  0  0  0  0
  160.2910  209.9330  154.7430 C   0  0  1  0  0  0  0  0  0  0  0  0
  161.6790  208.4970  156.3250 C   0  0  0  0  0  1  0  0  0  0  0  0
  160.4690  208.5640  155.3840 C   0  0  1  0  0  0  0  0  0  0  0  0
  161.2610  208.4640  153.1210 O   0  0  0  0  0  0  0  0  0  0  0  0
  160.6640  207.6950  154.1420 C   0  0  1  0  0  3  0  0  0  0  0  0
  158.9660  210.0820  154.3010 O   0  0  0  0  0  1  0  0  0  0  0  0
  161.2280  209.8090  153.5430 C   0  0  1  0  0  3  0  0  0  0  0  0
  160.8740  210.7180  152.4080 C   0  0  0  0  0  3  0  0  0  0  0  0
  161.4090  210.5760  151.3210 O   0  0  0  0  0  0  0  0  0  0  0  0
  161.4280  206.3970  154.3770 C   0  0  0  0  0  2  0  0  0  0  0  0
  161.6900  205.7060  153.0890 C   0  0  0  0  0  0  0  0  0  0  0  0
  161.0580  204.6590  152.8040 O   0  0  0  0  0  1  0  0  0  0  0  0
  162.6460  206.1980  152.2150 O   0  0  0  0  0  0  0  0  0  0  0  0
  159.7350  213.2770  148.3280 C   0  0  0  0  0  2  0  0  0  0  0  0
  160.3460  214.4490  147.5770 C   0  0  0  0  0  2  0  0  0  0  0  0
  161.7380  214.3930  147.6570 O   0  0  0  0  0  0  0  0  0  0  0  0
  162.0860  213.2110  146.9880 C   0  0  1  0  0  3  0  0  0  0  0  0
  160.1670  212.5730  144.8290 C   0  0  0  0  0  2  0  0  0  0  0  0
  160.6500  212.5120  142.4390 N   0  0  0  0  0  0  0  0  0  0  0  0
  161.5390  213.1000  144.5550 C   0  0  1  0  0  0  0  0  0  0  0  0
  162.5350  213.5410  145.5640 C   0  0  1  0  0  3  0  0  0  0  0  0
  161.8700  212.9810  143.0990 C   0  0  0  0  0  2  0  0  0  0  0  0
  159.7960  211.9440  143.4960 C   0  0  0  0  0  2  0  0  0  0  0  0
  161.6300  214.4410  144.9690 O   0  0  0  0  0  0  0  0  0  0  0  0
  161.0130  211.4350  141.5180 C   0  0  0  0  0  3  0  0  0  0  0  0
  160.4170  211.6480  140.2710 O   0  0  0  0  0  1  0  0  0  0  0  0
  162.4000  211.3900  141.3520 O   0  0  0  0  0  1  0  0  0  0  0  0
  163.8100  213.2940  148.6600 O   0  0  0  0  0  1  0  0  0  0  0  0
  163.1670  212.4380  147.7610 C   0  0  0  0  0  0  0  0  0  0  0  0
  164.1030  211.9220  146.8650 O   0  0  0  0  0  1  0  0  0  0  0  0
  162.5090  211.2820  148.5130 C   0  0  0  0  0  2  0  0  0  0  0  0
  162.6070  209.9520  147.7750 C   0  0  0  0  0  2  0  0  0  0  0  0
  162.4850  208.2710  149.4570 O   0  0  0  0  0  0  0  0  0  0  0  0
  162.3220  207.5600  148.2500 C   0  0  2  0  0  3  0  0  0  0  0  0
  161.7360  208.9100  148.4490 C   0  0  2  0  0  3  0  0  0  0  0  0
  161.9040  205.0310  148.5440 C   0  0  0  0  0  1  0  0  0  0  0  0
  160.4190  206.4180  147.1600 C   0  0  0  0  0  1  0  0  0  0  0  0
  160.4120  206.6920  149.5970 C   0  0  0  0  0  1  0  0  0  0  0  0
  161.2930  206.4210  148.3940 C   0  0  0  0  0  0  0  0  0  0  0  0
  1  5  1  0  0  0  0
  1  4  1  0  0  0  0
  2  7  1  1  0  0  0
  3  2  1  0  0  0  0
  4  6  1  0  0  0  0
  5 30  1  6  0  0  0
  5  3  1  0  0  0  0
  6  2  1  0  0  0  0
  7  8  1  0  0  0  0
  8  9  1  0  0  0  0
  9 10  1  0  0  0  0
 10 11  1  0  0  0  0
 11 12  1  0  0  0  0
 13 12  1  0  0  0  0
 14 15  2  0  0  0  0
 14 13  1  0  0  0  0
 17 22  1  6  0  0  0
 17 19  1  0  0  0  0
 17 14  1  0  0  0  0
 19 16  1  0  0  0  0
 19 18  1  1  0  0  0
 20 23  1  0  0  0  0
 20 21  1  0  0  0  0
 21 26  1  1  0  0  0
 21 19  1  0  0  0  0
 23 24  1  6  0  0  0
 23 17  1  0  0  0  0
 25 24  2  0  0  0  0
 27 26  1  0  0  0  0
 28 27  1  0  0  0  0
 29 27  2  0  0  0  0
 31 32  1  0  0  0  0
 31 30  1  0  0  0  0
 33 32  1  1  0  0  0
 33 45  1  0  0  0  0
 35 38  1  0  0  0  0
 35 39  1  0  0  0  0
 36 38  1  6  0  0  0
 36 34  1  0  0  0  0
 36 40  1  0  0  0  0
 36 37  1  0  0  0  0
 37 33  1  1  0  0  0
 39 34  1  0  0  0  0
 40 37  1  0  0  0  0
 41 35  1  0  0  0  0
 42 41  1  0  0  0  0
 43 41  1  0  0  0  0
 45 47  1  0  0  0  0
 45 44  1  0  0  0  0
 46 45  1  0  0  0  0
 48 47  1  0  0  0  0
 50 55  1  1  0  0  0
 50 51  1  0  0  0  0
 50 49  1  0  0  0  0
 51 48  1  6  0  0  0
 51 49  1  0  0  0  0
 53 55  1  0  0  0  0
 55 52  1  0  0  0  0
 55 54  1  0  0  0  0
M  END
>  <MODEL>
2

>  <REMARK>
 VINA RESULT:      -5.0      2.775     11.834
  Name = 
  22 active torsions:
  status: ('A' for Active; 'I' for Inactive)
    1  A    between atoms: C_1  and  C_53
    2  A    between atoms: C_2  and  C_28
    3  A    between atoms: C_2  and  C_44
    4  A    between atoms: C_6  and  C_20
    5  A    between atoms: N_7  and  C_22
    6  A    between atoms: C_8  and  C_22
    7  A    between atoms: C_8  and  C_35
    8  A    between atoms: C_10  and  N_32
    9  A    between atoms: C_11  and  C_29
   10  A    between atoms: C_16  and  C_17
   11  A    between atoms: C_16  and  C_26
   12  A    between atoms: C_17  and  C_33
   13  A    between atoms: C_19  and  C_40
   14  A    between atoms: C_26  and  C_45
   15  A    between atoms: C_27  and  C_54
   16  A    between atoms: C_28  and  O_49
   17  A    between atoms: C_29  and  C_38
   18  A    between atoms: C_33  and  C_36
   19  A    between atoms: C_33  and  O_49
   20  A    between atoms: C_35  and  C_43
   21  A    between atoms: C_43  and  C_51
   22  A    between atoms: C_51  and  C_54
                            x       y       z     vdW  Elec       q    Type
                         _______ _______ _______ _____ _____    ______ ____

>  <TORSDO>
F 22

$$$$
=
 OpenBabel11062408473D

 55 59  0  0  1  0  0  0  0  0999 V2000
  162.2030  204.7330  147.1830 C   0  0  0  0  0  2  0  0  0  0  0  0
  161.3030  205.6110  144.7230 C   0  0  2  0  0  3  0  0  0  0  0  0
  160.6960  206.1850  145.8800 O   0  0  0  0  0  0  0  0  0  0  0  0
  162.7010  204.2540  145.8240 C   0  0  0  0  0  2  0  0  0  0  0  0
  161.5290  206.1010  147.0250 C   0  0  1  0  0  3  0  0  0  0  0  0
  162.6690  205.3060  144.8950 O   0  0  0  0  0  0  0  0  0  0  0  0
  161.1250  206.5310  143.5280 C   0  0  0  0  0  2  0  0  0  0  0  0
  161.6560  205.8600  142.2720 C   0  0  0  0  0  2  0  0  0  0  0  0
  162.3740  206.8710  141.3980 C   0  0  0  0  0  2  0  0  0  0  0  0
  162.0080  206.6480  139.9400 C   0  0  0  0  0  2  0  0  0  0  0  0
  161.3450  207.8830  139.3490 C   0  0  0  0  0  2  0  0  0  0  0  0
  162.3640  208.9840  139.1070 C   0  0  0  0  0  2  0  0  0  0  0  0
  161.9370  210.2080  139.7710 N   0  0  0  0  0  2  0  0  0  0  0  0
  162.7170  211.4050  139.7280 C   0  0  0  0  0  0  0  0  0  0  0  0
  163.8150  211.4200  139.1090 O   0  0  0  0  0  0  0  0  0  0  0  0
  162.3150  212.3810  142.7920 O   0  0  0  0  0  1  0  0  0  0  0  0
  162.1960  212.6580  140.3950 C   0  0  1  0  0  0  0  0  0  0  0  0
  160.6170  211.1210  141.6720 C   0  0  0  0  0  1  0  0  0  0  0  0
  161.4470  212.4110  141.6970 C   0  0  1  0  0  0  0  0  0  0  0  0
  160.2770  214.0880  140.4410 O   0  0  0  0  0  0  0  0  0  0  0  0
  160.5630  213.6560  141.7530 C   0  0  1  0  0  3  0  0  0  0  0  0
  163.2670  213.5380  140.6220 O   0  0  0  0  0  1  0  0  0  0  0  0
  161.1150  213.3580  139.5730 C   0  0  1  0  0  3  0  0  0  0  0  0
  161.6580  214.2360  138.4890 C   0  0  0  0  0  3  0  0  0  0  0  0
  160.9950  214.4530  137.4890 O   0  0  0  0  0  0  0  0  0  0  0  0
  159.2890  213.5050  142.5770 C   0  0  0  0  0  2  0  0  0  0  0  0
  159.5430  213.8570  143.9970 C   0  0  0  0  0  0  0  0  0  0  0  0
  160.6110  214.4360  144.3140 O   0  0  0  0  0  0  0  0  0  0  0  0
  158.6170  213.5270  144.9750 O   0  0  0  0  0  1  0  0  0  0  0  0
  160.7510  206.4750  148.2770 C   0  0  0  0  0  2  0  0  0  0  0  0
  161.3730  207.6780  148.9690 C   0  0  0  0  0  2  0  0  0  0  0  0
  162.4930  207.2800  149.7010 O   0  0  0  0  0  0  0  0  0  0  0  0
  162.2410  207.7240  151.0070 C   0  0  1  0  0  3  0  0  0  0  0  0
  162.3240  209.9350  152.9710 C   0  0  0  0  0  2  0  0  0  0  0  0
  160.4620  211.3800  153.5980 N   0  0  0  0  0  0  0  0  0  0  0  0
  161.1470  209.6940  152.0810 C   0  0  1  0  0  0  0  0  0  0  0  0
  161.0470  208.6790  151.0020 C   0  0  1  0  0  3  0  0  0  0  0  0
  159.9750  210.5160  152.5210 C   0  0  0  0  0  2  0  0  0  0  0  0
  161.7160  210.7780  154.0810 C   0  0  0  0  0  2  0  0  0  0  0  0
  161.4820  209.9940  150.7490 O   0  0  0  0  0  0  0  0  0  0  0  0
  159.4890  211.3420  154.6910 C   0  0  0  0  0  3  0  0  0  0  0  0
  159.9890  212.0230  155.8040 O   0  0  0  0  0  1  0  0  0  0  0  0
  158.2930  211.9480  154.2920 O   0  0  0  0  0  1  0  0  0  0  0  0
  161.6180  207.0070  153.2140 O   0  0  0  0  0  1  0  0  0  0  0  0
  162.0170  206.5380  151.9590 C   0  0  0  0  0  0  0  0  0  0  0  0
  163.2020  205.8140  152.0910 O   0  0  0  0  0  1  0  0  0  0  0  0
  160.9400  205.6250  151.3720 C   0  0  0  0  0  2  0  0  0  0  0  0
  160.8400  204.2810  152.0840 C   0  0  0  0  0  2  0  0  0  0  0  0
  161.4800  203.6830  149.8700 O   0  0  0  0  0  0  0  0  0  0  0  0
  160.2950  202.9530  150.0920 C   0  0  2  0  0  3  0  0  0  0  0  0
  161.2970  203.1640  151.1670 C   0  0  2  0  0  3  0  0  0  0  0  0
  161.4540  201.3800  148.4070 C   0  0  0  0  0  1  0  0  0  0  0  0
  159.0300  201.2590  148.8070 C   0  0  0  0  0  1  0  0  0  0  0  0
  160.5870  200.5190  150.5520 C   0  0  0  0  0  1  0  0  0  0  0  0
  160.3640  201.5480  149.4610 C   0  0  0  0  0  0  0  0  0  0  0  0
  2  7  1  6  0  0  0
  2  6  1  0  0  0  0
  2  3  1  0  0  0  0
  3  5  1  0  0  0  0
  4  1  1  0  0  0  0
  5  1  1  0  0  0  0
  5 30  1  1  0  0  0
  6  4  1  0  0  0  0
  8  7  1  0  0  0  0
  9  8  1  0  0  0  0
 10  9  1  0  0  0  0
 11 10  1  0  0  0  0
 12 11  1  0  0  0  0
 12 13  1  0  0  0  0
 14 13  1  0  0  0  0
 14 17  1  0  0  0  0
 15 14  2  0  0  0  0
 17 22  1  1  0  0  0
 17 19  1  0  0  0  0
 19 18  1  6  0  0  0
 19 21  1  0  0  0  0
 19 16  1  0  0  0  0
 20 21  1  0  0  0  0
 21 26  1  6  0  0  0
 23 24  1  6  0  0  0
 23 17  1  0  0  0  0
 23 20  1  0  0  0  0
 25 24  2  0  0  0  0
 26 27  1  0  0  0  0
 27 28  2  0  0  0  0
 27 29  1  0  0  0  0
 30 31  1  0  0  0  0
 31 32  1  0  0  0  0
 33 32  1  6  0  0  0
 33 45  1  0  0  0  0
 34 39  1  0  0  0  0
 35 39  1  0  0  0  0
 35 41  1  0  0  0  0
 36 38  1  1  0  0  0
 36 34  1  0  0  0  0
 37 33  1  1  0  0  0
 37 36  1  0  0  0  0
 38 35  1  0  0  0  0
 40 37  1  0  0  0  0
 40 36  1  0  0  0  0
 41 42  1  0  0  0  0
 43 41  1  0  0  0  0
 45 46  1  0  0  0  0
 45 44  1  0  0  0  0
 47 45  1  0  0  0  0
 47 48  1  0  0  0  0
 49 50  1  0  0  0  0
 49 51  1  0  0  0  0
 50 55  1  6  0  0  0
 50 51  1  0  0  0  0
 51 48  1  1  0  0  0
 52 55  1  0  0  0  0
 53 55  1  0  0  0  0
 55 54  1  0  0  0  0
M  END
>  <MODEL>
3

>  <REMARK>
 VINA RESULT:      -4.5      2.938      7.219
  Name = 
  22 active torsions:
  status: ('A' for Active; 'I' for Inactive)
    1  A    between atoms: C_1  and  C_53
    2  A    between atoms: C_2  and  C_28
    3  A    between atoms: C_2  and  C_44
    4  A    between atoms: C_6  and  C_20
    5  A    between atoms: N_7  and  C_22
    6  A    between atoms: C_8  and  C_22
    7  A    between atoms: C_8  and  C_35
    8  A    between atoms: C_10  and  N_32
    9  A    between atoms: C_11  and  C_29
   10  A    between atoms: C_16  and  C_17
   11  A    between atoms: C_16  and  C_26
   12  A    between atoms: C_17  and  C_33
   13  A    between atoms: C_19  and  C_40
   14  A    between atoms: C_26  and  C_45
   15  A    between atoms: C_27  and  C_54
   16  A    between atoms: C_28  and  O_49
   17  A    between atoms: C_29  and  C_38
   18  A    between atoms: C_33  and  C_36
   19  A    between atoms: C_33  and  O_49
   20  A    between atoms: C_35  and  C_43
   21  A    between atoms: C_43  and  C_51
   22  A    between atoms: C_51  and  C_54
                            x       y       z     vdW  Elec       q    Type
                         _______ _______ _______ _____ _____    ______ ____

>  <TORSDO>
F 22

$$$$
=
 OpenBabel11062408473D

 55 59  0  0  1  0  0  0  0  0999 V2000
  162.8750  206.6240  148.5000 C   0  0  0  0  0  2  0  0  0  0  0  0
  161.0780  206.0220  146.4890 C   0  0  2  0  0  3  0  0  0  0  0  0
  160.7600  207.1240  147.3370 O   0  0  0  0  0  0  0  0  0  0  0  0
  163.0090  205.4910  147.4880 C   0  0  0  0  0  2  0  0  0  0  0  0
  161.9090  207.6820  147.9530 C   0  0  1  0  0  3  0  0  0  0  0  0
  162.4610  205.8710  146.2540 O   0  0  0  0  0  0  0  0  0  0  0  0
  160.3400  206.1460  145.1680 C   0  0  0  0  0  2  0  0  0  0  0  0
  160.7740  205.0380  144.2230 C   0  0  0  0  0  2  0  0  0  0  0  0
  161.9390  205.5010  143.3670 C   0  0  0  0  0  2  0  0  0  0  0  0
  161.4210  206.2150  142.1300 C   0  0  0  0  0  2  0  0  0  0  0  0
  162.5380  206.4430  141.1240 C   0  0  0  0  0  2  0  0  0  0  0  0
  161.9750  206.7300  139.7420 C   0  0  0  0  0  2  0  0  0  0  0  0
  161.6020  208.1340  139.6410 N   0  0  0  0  0  2  0  0  0  0  0  0
  161.6100  208.8330  138.3940 C   0  0  0  0  0  0  0  0  0  0  0  0
  161.9560  208.2350  137.3390 O   0  0  0  0  0  0  0  0  0  0  0  0
  163.0960  211.6860  138.0020 O   0  0  0  0  0  1  0  0  0  0  0  0
  161.1640  210.2760  138.3450 C   0  0  1  0  0  0  0  0  0  0  0  0
  162.8900  210.6960  140.1710 C   0  0  0  0  0  1  0  0  0  0  0  0
  162.1570  211.2610  138.9470 C   0  0  1  0  0  0  0  0  0  0  0  0
  159.9420  211.8960  139.6160 O   0  0  0  0  0  0  0  0  0  0  0  0
  161.2220  212.4090  139.3220 C   0  0  1  0  0  3  0  0  0  0  0  0
  160.8920  210.6300  137.0130 O   0  0  0  0  0  1  0  0  0  0  0  0
  159.9360  210.5440  139.2140 C   0  0  1  0  0  3  0  0  0  0  0  0
  158.6420  210.1870  138.5530 C   0  0  0  0  0  3  0  0  0  0  0  0
  157.8120  209.5240  139.1520 O   0  0  0  0  0  0  0  0  0  0  0  0
  161.7280  213.3130  140.4410 C   0  0  0  0  0  2  0  0  0  0  0  0
  160.5890  213.8980  141.1930 C   0  0  0  0  0  0  0  0  0  0  0  0
  159.6510  214.4530  140.5700 O   0  0  0  0  0  0  0  0  0  0  0  0
  160.5720  213.8560  142.5780 O   0  0  0  0  0  1  0  0  0  0  0  0
  161.5050  208.6660  149.0400 C   0  0  0  0  0  2  0  0  0  0  0  0
  162.1200  208.2840  150.3780 C   0  0  0  0  0  2  0  0  0  0  0  0
  161.1150  208.1050  151.3300 O   0  0  0  0  0  0  0  0  0  0  0  0
  161.7700  207.5550  152.4410 C   0  0  1  0  0  3  0  0  0  0  0  0
  160.9140  210.3610  152.8290 C   0  0  0  0  0  2  0  0  0  0  0  0
  160.0310  211.3290  154.8860 N   0  0  0  0  0  0  0  0  0  0  0  0
  160.6650  209.2960  153.8490 C   0  0  1  0  0  0  0  0  0  0  0  0
  160.9660  207.8480  153.7080 C   0  0  1  0  0  3  0  0  0  0  0  0
  160.2070  209.8980  155.1410 C   0  0  0  0  0  2  0  0  0  0  0  0
  160.7830  211.6290  153.6570 C   0  0  0  0  0  2  0  0  0  0  0  0
  159.7080  208.3840  153.3680 O   0  0  0  0  0  0  0  0  0  0  0  0
  160.6450  212.0690  155.9890 C   0  0  0  0  0  3  0  0  0  0  0  0
  159.9340  213.2490  156.2300 O   0  0  0  0  0  1  0  0  0  0  0  0
  160.6380  211.2940  157.1530 O   0  0  0  0  0  1  0  0  0  0  0  0
  161.7090  205.3700  153.4370 O   0  0  0  0  0  1  0  0  0  0  0  0
  162.0050  206.0490  152.2520 C   0  0  0  0  0  0  0  0  0  0  0  0
  163.3400  205.8230  151.9110 O   0  0  0  0  0  1  0  0  0  0  0  0
  161.1110  205.5430  151.1200 C   0  0  0  0  0  2  0  0  0  0  0  0
  160.2710  204.3340  151.5130 C   0  0  0  0  0  2  0  0  0  0  0  0
  161.7490  203.4570  149.8650 O   0  0  0  0  0  0  0  0  0  0  0  0
  160.4660  203.1240  149.3850 C   0  0  2  0  0  3  0  0  0  0  0  0
  160.7950  203.0840  150.8320 C   0  0  2  0  0  3  0  0  0  0  0  0
  161.5190  200.7740  149.2360 C   0  0  0  0  0  1  0  0  0  0  0  0
  160.6520  201.9130  147.2370 C   0  0  0  0  0  1  0  0  0  0  0  0
  159.0900  201.0930  148.9410 C   0  0  0  0  0  1  0  0  0  0  0  0
  160.4470  201.7310  148.7250 C   0  0  0  0  0  0  0  0  0  0  0  0
  2  7  1  6  0  0  0
  2  3  1  0  0  0  0
  3  5  1  0  0  0  0
  4  1  1  0  0  0  0
  5  1  1  0  0  0  0
  5 30  1  1  0  0  0
  6  2  1  0  0  0  0
  6  4  1  0  0  0  0
  8  7  1  0  0  0  0
  9  8  1  0  0  0  0
 10  9  1  0  0  0  0
 11 10  1  0  0  0  0
 12 11  1  0  0  0  0
 13 12  1  0  0  0  0
 14 13  1  0  0  0  0
 15 14  2  0  0  0  0
 16 19  1  0  0  0  0
 17 22  1  6  0  0  0
 17 14  1  0  0  0  0
 17 19  1  0  0  0  0
 17 23  1  0  0  0  0
 19 21  1  0  0  0  0
 19 18  1  1  0  0  0
 21 20  1  0  0  0  0
 21 26  1  1  0  0  0
 23 24  1  6  0  0  0
 23 20  1  0  0  0  0
 24 25  2  0  0  0  0
 26 27  1  0  0  0  0
 27 29  1  0  0  0  0
 28 27  2  0  0  0  0
 30 31  1  0  0  0  0
 31 32  1  0  0  0  0
 33 32  1  6  0  0  0
 34 39  1  0  0  0  0
 35 38  1  0  0  0  0
 35 41  1  0  0  0  0
 36 34  1  6  0  0  0
 36 38  1  0  0  0  0
 37 33  1  6  0  0  0
 37 36  1  0  0  0  0
 39 35  1  0  0  0  0
 40 37  1  0  0  0  0
 40 36  1  0  0  0  0
 41 42  1  0  0  0  0
 41 43  1  0  0  0  0
 45 33  1  0  0  0  0
 45 44  1  0  0  0  0
 46 45  1  0  0  0  0
 47 48  1  0  0  0  0
 47 45  1  0  0  0  0
 49 51  1  0  0  0  0
 50 55  1  6  0  0  0
 50 49  1  0  0  0  0
 50 51  1  0  0  0  0
 51 48  1  1  0  0  0
 53 55  1  0  0  0  0
 55 54  1  0  0  0  0
 55 52  1  0  0  0  0
M  END
>  <MODEL>
4

>  <REMARK>
 VINA RESULT:      -4.5      2.881      7.106
  Name = 
  22 active torsions:
  status: ('A' for Active; 'I' for Inactive)
    1  A    between atoms: C_1  and  C_53
    2  A    between atoms: C_2  and  C_28
    3  A    between atoms: C_2  and  C_44
    4  A    between atoms: C_6  and  C_20
    5  A    between atoms: N_7  and  C_22
    6  A    between atoms: C_8  and  C_22
    7  A    between atoms: C_8  and  C_35
    8  A    between atoms: C_10  and  N_32
    9  A    between atoms: C_11  and  C_29
   10  A    between atoms: C_16  and  C_17
   11  A    between atoms: C_16  and  C_26
   12  A    between atoms: C_17  and  C_33
   13  A    between atoms: C_19  and  C_40
   14  A    between atoms: C_26  and  C_45
   15  A    between atoms: C_27  and  C_54
   16  A    between atoms: C_28  and  O_49
   17  A    between atoms: C_29  and  C_38
   18  A    between atoms: C_33  and  C_36
   19  A    between atoms: C_33  and  O_49
   20  A    between atoms: C_35  and  C_43
   21  A    between atoms: C_43  and  C_51
   22  A    between atoms: C_51  and  C_54
                            x       y       z     vdW  Elec       q    Type
                         _______ _______ _______ _____ _____    ______ ____

>  <TORSDO>
F 22

$$$$
=
 OpenBabel11062408473D

 55 59  0  0  1  0  0  0  0  0999 V2000
  161.9860  204.5530  147.1620 C   0  0  0  0  0  2  0  0  0  0  0  0
  161.2620  205.5990  144.7100 C   0  0  2  0  0  3  0  0  0  0  0  0
  160.6940  206.2070  145.8690 O   0  0  0  0  0  0  0  0  0  0  0  0
  162.4630  204.0580  145.8020 C   0  0  0  0  0  2  0  0  0  0  0  0
  161.4800  205.9940  147.0310 C   0  0  1  0  0  3  0  0  0  0  0  0
  162.5780  205.1310  144.9050 O   0  0  0  0  0  0  0  0  0  0  0  0
  161.2250  206.5670  143.5400 C   0  0  0  0  0  2  0  0  0  0  0  0
  161.6320  205.8520  142.2620 C   0  0  0  0  0  2  0  0  0  0  0  0
  162.3940  206.7960  141.3500 C   0  0  0  0  0  2  0  0  0  0  0  0
  162.0260  206.5260  139.9010 C   0  0  0  0  0  2  0  0  0  0  0  0
  161.3260  207.7260  139.2830 C   0  0  0  0  0  2  0  0  0  0  0  0
  162.2630  208.9200  139.2010 C   0  0  0  0  0  2  0  0  0  0  0  0
  161.5150  210.1120  138.8260 N   0  0  0  0  0  2  0  0  0  0  0  0
  161.0160  211.0330  139.7990 C   0  0  0  0  0  0  0  0  0  0  0  0
  161.2120  210.8200  141.0260 O   0  0  0  0  0  0  0  0  0  0  0  0
  158.2320  212.4900  140.5910 O   0  0  0  0  0  1  0  0  0  0  0  0
  160.2910  212.2780  139.3430 C   0  0  1  0  0  0  0  0  0  0  0  0
  158.2860  210.7600  138.9390 C   0  0  0  0  0  1  0  0  0  0  0  0
  158.7740  212.1570  139.3460 C   0  0  1  0  0  0  0  0  0  0  0  0
  159.4500  213.3310  137.3650 O   0  0  0  0  0  0  0  0  0  0  0  0
  158.4060  213.2140  138.3060 C   0  0  1  0  0  3  0  0  0  0  0  0
  160.6830  213.3600  140.1500 O   0  0  0  0  0  1  0  0  0  0  0  0
  160.5480  212.6070  137.8740 C   0  0  1  0  0  3  0  0  0  0  0  0
  161.8290  213.3430  137.6380 C   0  0  0  0  0  3  0  0  0  0  0  0
  162.8700  212.9300  138.1220 O   0  0  0  0  0  0  0  0  0  0  0  0
  157.0610  213.0020  137.6190 C   0  0  0  0  0  2  0  0  0  0  0  0
  156.0460  213.9420  138.1600 C   0  0  0  0  0  0  0  0  0  0  0  0
  156.2130  214.4530  139.2940 O   0  0  0  0  0  1  0  0  0  0  0  0
  154.9050  214.2340  137.4290 O   0  0  0  0  0  0  0  0  0  0  0  0
  160.7160  206.4210  148.2750 C   0  0  0  0  0  2  0  0  0  0  0  0
  161.4040  207.5890  148.9640 C   0  0  0  0  0  2  0  0  0  0  0  0
  162.4550  207.1230  149.7570 O   0  0  0  0  0  0  0  0  0  0  0  0
  162.2070  207.6590  151.0280 C   0  0  1  0  0  3  0  0  0  0  0  0
  162.2960  209.8080  153.0600 C   0  0  0  0  0  2  0  0  0  0  0  0
  160.5270  211.4180  153.5370 N   0  0  0  0  0  0  0  0  0  0  0  0
  161.2020  209.7060  152.0460 C   0  0  1  0  0  0  0  0  0  0  0  0
  161.1180  208.7290  150.9300 C   0  0  1  0  0  3  0  0  0  0  0  0
  160.0750  210.6310  152.3880 C   0  0  0  0  0  2  0  0  0  0  0  0
  161.6590  210.6840  154.1270 C   0  0  0  0  0  2  0  0  0  0  0  0
  161.7040  209.9990  150.7660 O   0  0  0  0  0  0  0  0  0  0  0  0
  159.4450  211.4540  154.5210 C   0  0  0  0  0  3  0  0  0  0  0  0
  158.2070  211.5040  153.8730 O   0  0  0  0  0  1  0  0  0  0  0  0
  159.4860  210.3110  155.3250 O   0  0  0  0  0  1  0  0  0  0  0  0
  161.2180  207.1210  153.1510 O   0  0  0  0  0  1  0  0  0  0  0  0
  161.8300  206.5550  152.0290 C   0  0  0  0  0  0  0  0  0  0  0  0
  162.9800  205.8710  152.4250 O   0  0  0  0  0  1  0  0  0  0  0  0
  160.8780  205.5720  151.3500 C   0  0  0  0  0  2  0  0  0  0  0  0
  160.6330  204.3100  152.1690 C   0  0  0  0  0  2  0  0  0  0  0  0
  161.7230  203.4900  150.2170 O   0  0  0  0  0  0  0  0  0  0  0  0
  160.3780  203.1020  150.0470 C   0  0  2  0  0  3  0  0  0  0  0  0
  161.0360  203.0810  151.3770 C   0  0  2  0  0  3  0  0  0  0  0  0
  158.9900  200.9460  149.7540 C   0  0  0  0  0  1  0  0  0  0  0  0
  161.4460  200.8790  149.8580 C   0  0  0  0  0  1  0  0  0  0  0  0
  160.3410  201.8450  147.8930 C   0  0  0  0  0  1  0  0  0  0  0  0
  160.2650  201.7070  149.4010 C   0  0  0  0  0  0  0  0  0  0  0  0
  2  7  1  6  0  0  0
  2  6  1  0  0  0  0
  2  3  1  0  0  0  0
  3  5  1  0  0  0  0
  4  1  1  0  0  0  0
  5  1  1  0  0  0  0
  5 30  1  1  0  0  0
  6  4  1  0  0  0  0
  8  7  1  0  0  0  0
  9  8  1  0  0  0  0
 10  9  1  0  0  0  0
 11 10  1  0  0  0  0
 12 11  1  0  0  0  0
 13 12  1  0  0  0  0
 13 14  1  0  0  0  0
 14 15  2  0  0  0  0
 17 19  1  0  0  0  0
 17 14  1  0  0  0  0
 17 22  1  1  0  0  0
 19 18  1  6  0  0  0
 19 16  1  0  0  0  0
 20 23  1  0  0  0  0
 20 21  1  0  0  0  0
 21 26  1  6  0  0  0
 21 19  1  0  0  0  0
 23 24  1  1  0  0  0
 23 17  1  0  0  0  0
 24 25  2  0  0  0  0
 26 27  1  0  0  0  0
 27 28  1  0  0  0  0
 29 27  2  0  0  0  0
 30 31  1  0  0  0  0
 31 32  1  0  0  0  0
 33 32  1  6  0  0  0
 33 45  1  0  0  0  0
 34 39  1  0  0  0  0
 35 39  1  0  0  0  0
 35 41  1  0  0  0  0
 36 38  1  1  0  0  0
 36 34  1  0  0  0  0
 37 33  1  1  0  0  0
 37 36  1  0  0  0  0
 38 35  1  0  0  0  0
 40 37  1  0  0  0  0
 40 36  1  0  0  0  0
 41 43  1  0  0  0  0
 42 41  1  0  0  0  0
 45 46  1  0  0  0  0
 45 44  1  0  0  0  0
 47 45  1  0  0  0  0
 47 48  1  0  0  0  0
 49 51  1  0  0  0  0
 50 55  1  6  0  0  0
 50 49  1  0  0  0  0
 50 51  1  0  0  0  0
 51 48  1  1  0  0  0
 54 55  1  0  0  0  0
 55 52  1  0  0  0  0
 55 53  1  0  0  0  0
M  END
>  <MODEL>
5

>  <REMARK>
 VINA RESULT:      -4.4      2.981      6.775
  Name = 
  22 active torsions:
  status: ('A' for Active; 'I' for Inactive)
    1  A    between atoms: C_1  and  C_53
    2  A    between atoms: C_2  and  C_28
    3  A    between atoms: C_2  and  C_44
    4  A    between atoms: C_6  and  C_20
    5  A    between atoms: N_7  and  C_22
    6  A    between atoms: C_8  and  C_22
    7  A    between atoms: C_8  and  C_35
    8  A    between atoms: C_10  and  N_32
    9  A    between atoms: C_11  and  C_29
   10  A    between atoms: C_16  and  C_17
   11  A    between atoms: C_16  and  C_26
   12  A    between atoms: C_17  and  C_33
   13  A    between atoms: C_19  and  C_40
   14  A    between atoms: C_26  and  C_45
   15  A    between atoms: C_27  and  C_54
   16  A    between atoms: C_28  and  O_49
   17  A    between atoms: C_29  and  C_38
   18  A    between atoms: C_33  and  C_36
   19  A    between atoms: C_33  and  O_49
   20  A    between atoms: C_35  and  C_43
   21  A    between atoms: C_43  and  C_51
   22  A    between atoms: C_51  and  C_54
                            x       y       z     vdW  Elec       q    Type
                         _______ _______ _______ _____ _____    ______ ____

>  <TORSDO>
F 22

$$$$
=
 OpenBabel11062408473D

 55 59  0  0  1  0  0  0  0  0999 V2000
  162.2750  208.7360  149.5310 C   0  0  0  0  0  2  0  0  0  0  0  0
  161.2600  211.0810  148.4820 C   0  0  2  0  0  3  0  0  0  0  0  0
  161.3720  210.9990  149.9020 O   0  0  0  0  0  0  0  0  0  0  0  0
  162.0630  209.0370  148.0520 C   0  0  0  0  0  2  0  0  0  0  0  0
  162.3440  210.0530  150.3140 C   0  0  1  0  0  3  0  0  0  0  0  0
  162.2850  210.3980  147.7950 O   0  0  0  0  0  0  0  0  0  0  0  0
  161.2230  212.5350  148.0420 C   0  0  0  0  0  2  0  0  0  0  0  0
  160.5740  212.6470  146.6730 C   0  0  0  0  0  2  0  0  0  0  0  0
  160.5870  214.0890  146.2000 C   0  0  0  0  0  2  0  0  0  0  0  0
  159.2440  214.4440  145.5840 C   0  0  0  0  0  2  0  0  0  0  0  0
  159.2940  214.3350  144.0680 C   0  0  0  0  0  2  0  0  0  0  0  0
  160.3490  213.3340  143.6290 C   0  0  0  0  0  2  0  0  0  0  0  0
  160.2380  213.0920  142.1970 N   0  0  0  0  0  2  0  0  0  0  0  0
  161.3720  212.7570  141.3940 C   0  0  0  0  0  0  0  0  0  0  0  0
  162.5140  212.6710  141.9210 O   0  0  0  0  0  0  0  0  0  0  0  0
  159.5420  210.7150  139.6680 O   0  0  0  0  0  1  0  0  0  0  0  0
  161.1840  212.4690  139.9220 C   0  0  1  0  0  0  0  0  0  0  0  0
  161.6780  210.0390  140.5060 C   0  0  0  0  0  1  0  0  0  0  0  0
  160.9070  211.0070  139.6000 C   0  0  1  0  0  0  0  0  0  0  0  0
  162.4260  211.8830  137.9610 O   0  0  0  0  0  0  0  0  0  0  0  0
  161.3930  210.9420  138.1520 C   0  0  1  0  0  3  0  0  0  0  0  0
  160.1430  213.2710  139.4250 O   0  0  0  0  0  1  0  0  0  0  0  0
  162.4550  212.7040  139.1070 C   0  0  1  0  0  3  0  0  0  0  0  0
  162.6730  214.1370  138.7340 C   0  0  0  0  0  3  0  0  0  0  0  0
  162.8060  214.4500  137.5630 O   0  0  0  0  0  0  0  0  0  0  0  0
  161.8110  209.5550  137.6750 C   0  0  0  0  0  2  0  0  0  0  0  0
  160.6730  208.6060  137.7710 C   0  0  0  0  0  0  0  0  0  0  0  0
  160.7730  207.5850  138.4940 O   0  0  0  0  0  1  0  0  0  0  0  0
  159.5140  208.8310  137.0450 O   0  0  0  0  0  0  0  0  0  0  0  0
  162.2440  209.8040  151.8110 C   0  0  0  0  0  2  0  0  0  0  0  0
  161.1220  208.8280  152.1290 C   0  0  0  0  0  2  0  0  0  0  0  0
  161.6520  207.5670  152.4100 O   0  0  0  0  0  0  0  0  0  0  0  0
  160.7350  206.9850  153.2960 C   0  0  1  0  0  3  0  0  0  0  0  0
  161.3890  205.7080  150.7090 C   0  0  0  0  0  2  0  0  0  0  0  0
  161.3420  203.3180  150.2260 N   0  0  0  0  0  0  0  0  0  0  0  0
  161.1720  204.9210  151.9620 C   0  0  1  0  0  0  0  0  0  0  0  0
  160.9380  205.4700  153.3220 C   0  0  1  0  0  3  0  0  0  0  0  0
  161.0540  203.4600  151.6550 C   0  0  0  0  0  2  0  0  0  0  0  0
  161.1790  204.6550  149.6320 C   0  0  0  0  0  2  0  0  0  0  0  0
  162.2290  205.1480  152.8610 O   0  0  0  0  0  0  0  0  0  0  0  0
  160.3320  202.4330  149.6420 C   0  0  0  0  0  3  0  0  0  0  0  0
  160.8030  201.8940  148.4410 O   0  0  0  0  0  1  0  0  0  0  0  0
  160.0420  201.3860  150.5220 O   0  0  0  0  0  1  0  0  0  0  0  0
  162.2000  207.8700  154.9820 O   0  0  0  0  0  1  0  0  0  0  0  0
  160.8580  207.6000  154.6990 C   0  0  0  0  0  0  0  0  0  0  0  0
  160.3580  206.7060  155.6470 O   0  0  0  0  0  1  0  0  0  0  0  0
  160.0400  208.8890  154.7520 C   0  0  0  0  0  2  0  0  0  0  0  0
  160.6560  209.9550  155.6500 C   0  0  0  0  0  2  0  0  0  0  0  0
  159.8970  212.0580  156.4700 O   0  0  0  0  0  0  0  0  0  0  0  0
  158.7580  211.4990  155.8550 C   0  0  2  0  0  3  0  0  0  0  0  0
  160.1190  211.3260  155.2870 C   0  0  2  0  0  3  0  0  0  0  0  0
  157.7200  212.3040  153.6340 C   0  0  0  0  0  1  0  0  0  0  0  0
  158.6290  213.8990  155.2700 C   0  0  0  0  0  1  0  0  0  0  0  0
  156.5630  212.6800  155.7810 C   0  0  0  0  0  1  0  0  0  0  0  0
  157.9230  212.5690  155.1230 C   0  0  0  0  0  0  0  0  0  0  0  0
  1  5  1  0  0  0  0
  2  7  1  1  0  0  0
  2  3  1  0  0  0  0
  3  5  1  0  0  0  0
  4  1  1  0  0  0  0
  5 30  1  1  0  0  0
  6  4  1  0  0  0  0
  6  2  1  0  0  0  0
  8  7  1  0  0  0  0
  9  8  1  0  0  0  0
 10  9  1  0  0  0  0
 11 10  1  0  0  0  0
 12 11  1  0  0  0  0
 13 12  1  0  0  0  0
 14 15  2  0  0  0  0
 14 13  1  0  0  0  0
 17 22  1  6  0  0  0
 17 14  1  0  0  0  0
 19 16  1  0  0  0  0
 19 17  1  0  0  0  0
 19 18  1  1  0  0  0
 20 21  1  0  0  0  0
 20 23  1  0  0  0  0
 21 26  1  1  0  0  0
 21 19  1  0  0  0  0
 23 24  1  6  0  0  0
 23 17  1  0  0  0  0
 25 24  2  0  0  0  0
 26 27  1  0  0  0  0
 27 28  1  0  0  0  0
 29 27  2  0  0  0  0
 30 31  1  0  0  0  0
 31 32  1  0  0  0  0
 33 32  1  6  0  0  0
 33 45  1  0  0  0  0
 35 38  1  0  0  0  0
 36 34  1  6  0  0  0
 36 40  1  0  0  0  0
 36 37  1  0  0  0  0
 37 33  1  6  0  0  0
 38 36  1  0  0  0  0
 39 35  1  0  0  0  0
 39 34  1  0  0  0  0
 40 37  1  0  0  0  0
 41 35  1  0  0  0  0
 41 43  1  0  0  0  0
 42 41  1  0  0  0  0
 45 47  1  0  0  0  0
 45 44  1  0  0  0  0
 45 46  1  0  0  0  0
 47 48  1  0  0  0  0
 50 55  1  6  0  0  0
 50 49  1  0  0  0  0
 51 48  1  1  0  0  0
 51 50  1  0  0  0  0
 51 49  1  0  0  0  0
 52 55  1  0  0  0  0
 55 53  1  0  0  0  0
 55 54  1  0  0  0  0
M  END
>  <MODEL>
6

>  <REMARK>
 VINA RESULT:      -3.6      1.538      2.148
  Name = 
  22 active torsions:
  status: ('A' for Active; 'I' for Inactive)
    1  A    between atoms: C_1  and  C_53
    2  A    between atoms: C_2  and  C_28
    3  A    between atoms: C_2  and  C_44
    4  A    between atoms: C_6  and  C_20
    5  A    between atoms: N_7  and  C_22
    6  A    between atoms: C_8  and  C_22
    7  A    between atoms: C_8  and  C_35
    8  A    between atoms: C_10  and  N_32
    9  A    between atoms: C_11  and  C_29
   10  A    between atoms: C_16  and  C_17
   11  A    between atoms: C_16  and  C_26
   12  A    between atoms: C_17  and  C_33
   13  A    between atoms: C_19  and  C_40
   14  A    between atoms: C_26  and  C_45
   15  A    between atoms: C_27  and  C_54
   16  A    between atoms: C_28  and  O_49
   17  A    between atoms: C_29  and  C_38
   18  A    between atoms: C_33  and  C_36
   19  A    between atoms: C_33  and  O_49
   20  A    between atoms: C_35  and  C_43
   21  A    between atoms: C_43  and  C_51
   22  A    between atoms: C_51  and  C_54
                            x       y       z     vdW  Elec       q    Type
                         _______ _______ _______ _____ _____    ______ ____

>  <TORSDO>
F 22

$$$$
=
 OpenBabel11062408473D

 55 59  0  0  1  0  0  0  0  0999 V2000
  157.4270  214.0280  151.5090 C   0  0  0  0  0  2  0  0  0  0  0  0
  158.6520  212.8040  153.6620 C   0  0  2  0  0  3  0  0  0  0  0  0
  159.4860  213.1810  152.5670 O   0  0  0  0  0  0  0  0  0  0  0  0
  156.7330  213.5390  152.7760 C   0  0  0  0  0  2  0  0  0  0  0  0
  158.9210  214.2260  151.7920 C   0  0  1  0  0  3  0  0  0  0  0  0
  157.5790  213.6910  153.8850 O   0  0  0  0  0  0  0  0  0  0  0  0
  159.4800  212.6660  154.9280 C   0  0  0  0  0  2  0  0  0  0  0  0
  158.7030  211.8870  155.9750 C   0  0  0  0  0  2  0  0  0  0  0  0
  159.3350  210.5250  156.1960 C   0  0  0  0  0  2  0  0  0  0  0  0
  160.7910  210.5540  155.7630 C   0  0  0  0  0  2  0  0  0  0  0  0
  160.9870  209.7980  154.4580 C   0  0  0  0  0  2  0  0  0  0  0  0
  160.6780  208.3210  154.6330 C   0  0  0  0  0  2  0  0  0  0  0  0
  160.8060  207.6320  153.3570 N   0  0  0  0  0  2  0  0  0  0  0  0
  161.0060  206.2190  153.2730 C   0  0  0  0  0  0  0  0  0  0  0  0
  161.0840  205.5310  154.3270 O   0  0  0  0  0  0  0  0  0  0  0  0
  159.0100  204.3810  151.5020 O   0  0  0  0  0  1  0  0  0  0  0  0
  161.0800  205.5560  151.9170 C   0  0  1  0  0  0  0  0  0  0  0  0
  160.4680  203.3980  153.1250 C   0  0  0  0  0  1  0  0  0  0  0  0
  160.3590  204.2180  151.8330 C   0  0  1  0  0  0  0  0  0  0  0  0
  162.4400  204.0470  150.6490 O   0  0  0  0  0  0  0  0  0  0  0  0
  161.1150  203.5630  150.6770 C   0  0  1  0  0  3  0  0  0  0  0  0
  160.5700  206.4330  150.9460 O   0  0  0  0  0  1  0  0  0  0  0  0
  162.5010  205.1370  151.5420 C   0  0  1  0  0  3  0  0  0  0  0  0
  163.3250  206.2490  150.9740 C   0  0  0  0  0  3  0  0  0  0  0  0
  163.0420  207.4090  151.2240 O   0  0  0  0  0  0  0  0  0  0  0  0
  161.0810  202.0390  150.6660 C   0  0  0  0  0  2  0  0  0  0  0  0
  160.8050  201.5340  149.2970 C   0  0  0  0  0  0  0  0  0  0  0  0
  159.8030  201.9540  148.6690 O   0  0  0  0  0  0  0  0  0  0  0  0
  161.6350  200.5840  148.7230 O   0  0  0  0  0  1  0  0  0  0  0  0
  159.7010  214.4110  150.5000 C   0  0  0  0  0  2  0  0  0  0  0  0
  160.0660  213.0690  149.8850 C   0  0  0  0  0  2  0  0  0  0  0  0
  161.3730  213.1090  149.3940 O   0  0  0  0  0  0  0  0  0  0  0  0
  161.3770  212.2100  148.3190 C   0  0  1  0  0  3  0  0  0  0  0  0
  159.3960  212.9940  146.2650 C   0  0  0  0  0  2  0  0  0  0  0  0
  159.8840  213.6910  143.9800 N   0  0  0  0  0  0  0  0  0  0  0  0
  160.8680  213.1720  146.0720 C   0  0  1  0  0  0  0  0  0  0  0  0
  161.9310  212.9030  147.0730 C   0  0  1  0  0  3  0  0  0  0  0  0
  161.1760  213.5130  144.6460 C   0  0  0  0  0  2  0  0  0  0  0  0
  158.8790  213.0390  144.8360 C   0  0  0  0  0  2  0  0  0  0  0  0
  161.3480  214.1770  146.9300 O   0  0  0  0  0  0  0  0  0  0  0  0
  159.9260  212.9780  142.7030 C   0  0  0  0  0  3  0  0  0  0  0  0
  158.6610  212.9810  142.1090 O   0  0  0  0  0  1  0  0  0  0  0  0
  160.8320  213.5960  141.8350 O   0  0  0  0  0  1  0  0  0  0  0  0
  162.0940  210.6930  150.0380 O   0  0  0  0  0  1  0  0  0  0  0  0
  162.1710  210.9410  148.6650 C   0  0  0  0  0  0  0  0  0  0  0  0
  163.5080  211.1120  148.3010 O   0  0  0  0  0  1  0  0  0  0  0  0
  161.5910  209.7620  147.8840 C   0  0  0  0  0  2  0  0  0  0  0  0
  161.9040  208.4110  148.5160 C   0  0  0  0  0  2  0  0  0  0  0  0
  161.5500  206.0630  148.3370 O   0  0  0  0  0  0  0  0  0  0  0  0
  162.2010  206.4030  147.1340 C   0  0  2  0  0  3  0  0  0  0  0  0
  161.1990  207.3000  147.7620 C   0  0  2  0  0  3  0  0  0  0  0  0
  160.3860  206.2030  145.3120 C   0  0  0  0  0  1  0  0  0  0  0  0
  161.3090  204.2100  146.4180 C   0  0  0  0  0  1  0  0  0  0  0  0
  162.7090  205.4960  144.8680 C   0  0  0  0  0  1  0  0  0  0  0  0
  161.6420  205.6060  145.9390 C   0  0  0  0  0  0  0  0  0  0  0  0
  1  5  1  0  0  0  0
  1  4  1  0  0  0  0
  2  6  1  0  0  0  0
  2  7  1  1  0  0  0
  3  2  1  0  0  0  0
  4  6  1  0  0  0  0
  5 30  1  6  0  0  0
  5  3  1  0  0  0  0
  7  8  1  0  0  0  0
  8  9  1  0  0  0  0
 10  9  1  0  0  0  0
 11 12  1  0  0  0  0
 11 10  1  0  0  0  0
 13 12  1  0  0  0  0
 14 13  1  0  0  0  0
 14 15  2  0  0  0  0
 16 19  1  0  0  0  0
 17 22  1  6  0  0  0
 17 14  1  0  0  0  0
 19 17  1  0  0  0  0
 19 18  1  1  0  0  0
 20 21  1  0  0  0  0
 20 23  1  0  0  0  0
 21 26  1  1  0  0  0
 21 19  1  0  0  0  0
 23 24  1  6  0  0  0
 23 17  1  0  0  0  0
 24 25  2  0  0  0  0
 27 26  1  0  0  0  0
 28 27  2  0  0  0  0
 29 27  1  0  0  0  0
 31 30  1  0  0  0  0
 32 31  1  0  0  0  0
 33 45  1  0  0  0  0
 33 32  1  1  0  0  0
 35 38  1  0  0  0  0
 35 39  1  0  0  0  0
 36 38  1  6  0  0  0
 36 34  1  0  0  0  0
 36 40  1  0  0  0  0
 36 37  1  0  0  0  0
 37 33  1  1  0  0  0
 39 34  1  0  0  0  0
 40 37  1  0  0  0  0
 41 35  1  0  0  0  0
 42 41  1  0  0  0  0
 43 41  1  0  0  0  0
 45 44  1  0  0  0  0
 46 45  1  0  0  0  0
 47 48  1  0  0  0  0
 47 45  1  0  0  0  0
 50 55  1  6  0  0  0
 50 51  1  0  0  0  0
 50 49  1  0  0  0  0
 51 49  1  0  0  0  0
 51 48  1  1  0  0  0
 52 55  1  0  0  0  0
 54 55  1  0  0  0  0
 55 53  1  0  0  0  0
M  END
>  <MODEL>
7

>  <REMARK>
 VINA RESULT:      -3.1      2.874     11.374
  Name = 
  22 active torsions:
  status: ('A' for Active; 'I' for Inactive)
    1  A    between atoms: C_1  and  C_53
    2  A    between atoms: C_2  and  C_28
    3  A    between atoms: C_2  and  C_44
    4  A    between atoms: C_6  and  C_20
    5  A    between atoms: N_7  and  C_22
    6  A    between atoms: C_8  and  C_22
    7  A    between atoms: C_8  and  C_35
    8  A    between atoms: C_10  and  N_32
    9  A    between atoms: C_11  and  C_29
   10  A    between atoms: C_16  and  C_17
   11  A    between atoms: C_16  and  C_26
   12  A    between atoms: C_17  and  C_33
   13  A    between atoms: C_19  and  C_40
   14  A    between atoms: C_26  and  C_45
   15  A    between atoms: C_27  and  C_54
   16  A    between atoms: C_28  and  O_49
   17  A    between atoms: C_29  and  C_38
   18  A    between atoms: C_33  and  C_36
   19  A    between atoms: C_33  and  O_49
   20  A    between atoms: C_35  and  C_43
   21  A    between atoms: C_43  and  C_51
   22  A    between atoms: C_51  and  C_54
                            x       y       z     vdW  Elec       q    Type
                         _______ _______ _______ _____ _____    ______ ____

>  <TORSDO>
F 22

$$$$
=
 OpenBabel11062408473D

 55 59  0  0  1  0  0  0  0  0999 V2000
  160.5980  204.2860  146.1100 C   0  0  0  0  0  2  0  0  0  0  0  0
  161.4900  205.4090  143.7480 C   0  0  2  0  0  3  0  0  0  0  0  0
  160.9920  206.3010  144.7450 O   0  0  0  0  0  0  0  0  0  0  0  0
  161.1600  203.5270  144.9130 C   0  0  0  0  0  2  0  0  0  0  0  0
  161.0610  205.7470  146.0480 C   0  0  1  0  0  3  0  0  0  0  0  0
  162.1570  204.2850  144.2790 O   0  0  0  0  0  0  0  0  0  0  0  0
  162.4090  206.1510  142.7930 C   0  0  0  0  0  2  0  0  0  0  0  0
  161.6950  206.4030  141.4760 C   0  0  0  0  0  2  0  0  0  0  0  0
  162.6450  206.1890  140.3120 C   0  0  0  0  0  2  0  0  0  0  0  0
  162.3350  207.1790  139.2020 C   0  0  0  0  0  2  0  0  0  0  0  0
  161.2670  208.1710  139.6360 C   0  0  0  0  0  2  0  0  0  0  0  0
  160.9540  209.1560  138.5230 C   0  0  0  0  0  2  0  0  0  0  0  0
  160.6550  210.4640  139.0880 N   0  0  0  0  0  2  0  0  0  0  0  0
  161.6190  211.5200  139.1110 C   0  0  0  0  0  0  0  0  0  0  0  0
  162.7730  211.3290  138.6390 O   0  0  0  0  0  0  0  0  0  0  0  0
  163.0700  213.7420  140.9700 O   0  0  0  0  0  1  0  0  0  0  0  0
  161.2320  212.8710  139.6650 C   0  0  1  0  0  0  0  0  0  0  0  0
  161.8550  211.9270  141.9470 C   0  0  0  0  0  1  0  0  0  0  0  0
  161.7970  213.1680  141.0470 C   0  0  1  0  0  0  0  0  0  0  0  0
  159.5260  213.9380  140.9630 O   0  0  0  0  0  0  0  0  0  0  0  0
  160.7810  214.1910  141.5520 C   0  0  1  0  0  3  0  0  0  0  0  0
  161.6320  213.8710  138.7630 O   0  0  0  0  0  1  0  0  0  0  0  0
  159.7340  212.9900  139.9390 C   0  0  1  0  0  3  0  0  0  0  0  0
  158.9250  213.3260  138.7260 C   0  0  0  0  0  3  0  0  0  0  0  0
  157.7810  213.7310  138.8460 O   0  0  0  0  0  0  0  0  0  0  0  0
  160.6710  214.2950  143.0700 C   0  0  0  0  0  2  0  0  0  0  0  0
  159.3650  213.7630  143.5350 C   0  0  0  0  0  0  0  0  0  0  0  0
  159.3250  212.6830  144.1740 O   0  0  0  0  0  1  0  0  0  0  0  0
  158.1920  214.4400  143.2440 O   0  0  0  0  0  0  0  0  0  0  0  0
  160.2840  206.6070  147.0330 C   0  0  0  0  0  2  0  0  0  0  0  0
  161.2250  207.3570  147.9630 C   0  0  0  0  0  2  0  0  0  0  0  0
  161.6320  206.5210  149.0050 O   0  0  0  0  0  0  0  0  0  0  0  0
  160.9120  206.9660  150.1220 C   0  0  1  0  0  3  0  0  0  0  0  0
  161.9320  204.3240  149.2650 C   0  0  0  0  0  2  0  0  0  0  0  0
  161.1190  202.1500  150.0140 N   0  0  0  0  0  0  0  0  0  0  0  0
  160.9580  204.4840  150.3880 C   0  0  1  0  0  0  0  0  0  0  0  0
  160.4640  205.7650  150.9550 C   0  0  1  0  0  3  0  0  0  0  0  0
  160.3910  203.1570  150.7890 C   0  0  0  0  0  2  0  0  0  0  0  0
  161.7450  202.8630  148.8880 C   0  0  0  0  0  2  0  0  0  0  0  0
  161.5870  205.0990  151.4850 O   0  0  0  0  0  0  0  0  0  0  0  0
  160.1460  201.2020  149.4690 C   0  0  0  0  0  3  0  0  0  0  0  0
  159.0080  201.8830  149.0260 O   0  0  0  0  0  1  0  0  0  0  0  0
  160.7030  200.5080  148.3900 O   0  0  0  0  0  1  0  0  0  0  0  0
  162.7410  208.5230  150.1570 O   0  0  0  0  0  1  0  0  0  0  0  0
  161.7420  207.9570  150.9530 C   0  0  0  0  0  0  0  0  0  0  0  0
  162.3300  207.2890  152.0280 O   0  0  0  0  0  1  0  0  0  0  0  0
  160.8190  209.0490  151.4930 C   0  0  0  0  0  2  0  0  0  0  0  0
  161.5310  210.0420  152.4030 C   0  0  0  0  0  2  0  0  0  0  0  0
  161.8270  210.5070  154.7200 O   0  0  0  0  0  0  0  0  0  0  0  0
  161.5910  209.1180  154.6770 C   0  0  2  0  0  3  0  0  0  0  0  0
  160.8830  210.0600  153.7740 C   0  0  2  0  0  3  0  0  0  0  0  0
  159.4200  209.4130  156.0400 C   0  0  0  0  0  1  0  0  0  0  0  0
  161.5420  208.8180  157.1320 C   0  0  0  0  0  1  0  0  0  0  0  0
  160.4090  207.1770  155.7040 C   0  0  0  0  0  1  0  0  0  0  0  0
  160.7290  208.6490  155.8660 C   0  0  0  0  0  0  0  0  0  0  0  0
  2  7  1  6  0  0  0
  2  6  1  0  0  0  0
  2  3  1  0  0  0  0
  3  5  1  0  0  0  0
  4  1  1  0  0  0  0
  5  1  1  0  0  0  0
  5 30  1  1  0  0  0
  6  4  1  0  0  0  0
  8  7  1  0  0  0  0
  9  8  1  0  0  0  0
 10 11  1  0  0  0  0
 10  9  1  0  0  0  0
 12 13  1  0  0  0  0
 12 11  1  0  0  0  0
 13 14  1  0  0  0  0
 14 17  1  0  0  0  0
 15 14  2  0  0  0  0
 16 19  1  0  0  0  0
 17 22  1  6  0  0  0
 17 23  1  0  0  0  0
 17 19  1  0  0  0  0
 19 21  1  0  0  0  0
 19 18  1  1  0  0  0
 20 21  1  0  0  0  0
 21 26  1  1  0  0  0
 23 24  1  6  0  0  0
 23 20  1  0  0  0  0
 24 25  2  0  0  0  0
 26 27  1  0  0  0  0
 27 28  1  0  0  0  0
 29 27  2  0  0  0  0
 30 31  1  0  0  0  0
 31 32  1  0  0  0  0
 33 32  1  6  0  0  0
 33 45  1  0  0  0  0
 35 38  1  0  0  0  0
 36 34  1  6  0  0  0
 36 38  1  0  0  0  0
 36 37  1  0  0  0  0
 36 40  1  0  0  0  0
 37 33  1  6  0  0  0
 37 40  1  0  0  0  0
 39 34  1  0  0  0  0
 39 35  1  0  0  0  0
 41 35  1  0  0  0  0
 42 41  1  0  0  0  0
 43 41  1  0  0  0  0
 44 45  1  0  0  0  0
 45 47  1  0  0  0  0
 45 46  1  0  0  0  0
 47 48  1  0  0  0  0
 50 49  1  0  0  0  0
 50 55  1  1  0  0  0
 51 48  1  6  0  0  0
 51 50  1  0  0  0  0
 51 49  1  0  0  0  0
 54 55  1  0  0  0  0
 55 52  1  0  0  0  0
 55 53  1  0  0  0  0
M  END
>  <MODEL>
8

>  <REMARK>
 VINA RESULT:      -2.6      2.742      5.349
  Name = 
  22 active torsions:
  status: ('A' for Active; 'I' for Inactive)
    1  A    between atoms: C_1  and  C_53
    2  A    between atoms: C_2  and  C_28
    3  A    between atoms: C_2  and  C_44
    4  A    between atoms: C_6  and  C_20
    5  A    between atoms: N_7  and  C_22
    6  A    between atoms: C_8  and  C_22
    7  A    between atoms: C_8  and  C_35
    8  A    between atoms: C_10  and  N_32
    9  A    between atoms: C_11  and  C_29
   10  A    between atoms: C_16  and  C_17
   11  A    between atoms: C_16  and  C_26
   12  A    between atoms: C_17  and  C_33
   13  A    between atoms: C_19  and  C_40
   14  A    between atoms: C_26  and  C_45
   15  A    between atoms: C_27  and  C_54
   16  A    between atoms: C_28  and  O_49
   17  A    between atoms: C_29  and  C_38
   18  A    between atoms: C_33  and  C_36
   19  A    between atoms: C_33  and  O_49
   20  A    between atoms: C_35  and  C_43
   21  A    between atoms: C_43  and  C_51
   22  A    between atoms: C_51  and  C_54
                            x       y       z     vdW  Elec       q    Type
                         _______ _______ _______ _____ _____    ______ ____

>  <TORSDO>
F 22

$$$$
