=
 OpenBabel11052423103D

 27 32  0  0  1  0  0  0  0  0999 V2000
  162.3400  210.3660  150.9090 C   0  0  0  0  0  2  0  0  0  0  0  0
  161.1210  210.7290  153.1000 C   0  0  1  0  0  3  0  0  0  0  0  0
  160.1150  208.4860  152.3130 C   0  0  0  0  0  2  0  0  0  0  0  0
  161.2300  209.4570  157.2600 C   0  0  0  0  0  2  0  0  0  0  0  0
  160.2920  207.4070  157.2290 C   0  0  0  0  0  2  0  0  0  0  0  0
  162.3840  210.4420  153.7800 N   0  0  0  0  0  2  0  0  0  0  0  0
  160.4440  207.7180  155.0680 O   0  0  0  0  0  0  0  0  0  0  0  0
  161.9980  205.4400  151.7240 C   0  0  0  0  0  2  0  0  0  0  0  0
  159.5630  207.6930  156.0530 O   0  0  0  0  0  0  0  0  0  0  0  0
  161.3600  205.4530  150.3350 C   0  0  0  0  0  2  0  0  0  0  0  0
  160.6300  209.0780  154.7480 C   0  0  2  0  0  0  0  0  0  0  0  0
  161.2950  211.0400  151.6780 N   0  0  0  0  0  0  0  0  0  0  0  0
  161.5270  208.0860  157.2590 O   0  0  0  0  0  0  0  0  0  0  0  0
  161.0910  210.0590  155.8450 C   0  0  2  0  0  3  0  0  0  0  0  0
  161.7110  209.3000  150.0290 C   0  0  0  0  0  2  0  0  0  0  0  0
  160.1520  209.5890  153.3960 C   0  0  1  0  0  3  0  0  0  0  0  0
  161.3300  206.4860  152.6170 C   0  0  0  0  0  2  0  0  0  0  0  0
  162.0940  209.4780  154.8510 C   0  0  2  0  0  3  0  0  0  0  0  0
  161.0830  206.8720  149.8250 C   0  0  0  0  0  2  0  0  0  0  0  0
  161.8160  207.9160  150.6690 C   0  0  2  0  0  3  0  0  0  0  0  0
  161.4270  207.8670  152.1010 N   0  0  1  0  0  0  0  0  0  0  0  0
  158.7650  213.9190  149.8260 C   0  0  0  0  0  3  0  0  0  0  0  0
  160.4370  212.0150  151.0480 C   0  0  0  0  0  0  0  0  0  0  0  0
  159.1960  212.3520  151.6190 C   0  0  0  0  0  3  0  0  0  0  0  0
  158.3660  213.2970  151.0110 C   0  0  0  0  0  3  0  0  0  0  0  0
  159.9950  213.5970  149.2480 C   0  0  0  0  0  3  0  0  0  0  0  0
  160.8250  212.6510  149.8570 C   0  0  0  0  0  3  0  0  0  0  0  0
  1 12  1  0  0  0  0
  2 16  1  0  0  0  0
  2  6  1  6  0  0  0
  5 13  1  0  0  0  0
  7  9  1  0  0  0  0
  8 17  1  0  0  0  0
  9  5  1  0  0  0  0
 10  8  1  0  0  0  0
 11 18  1  0  0  0  0
 11  7  1  1  0  0  0
 11 14  1  0  0  0  0
 12  2  1  0  0  0  0
 13  4  1  0  0  0  0
 14  4  1  1  0  0  0
 15 20  1  0  0  0  0
 15  1  1  0  0  0  0
 16  3  1  6  0  0  0
 16 11  1  0  0  0  0
 18  6  1  6  0  0  0
 18 14  1  0  0  0  0
 19 10  1  0  0  0  0
 20 19  1  6  0  0  0
 20 21  1  0  0  0  0
 21  3  1  6  0  0  0
 21 17  1  0  0  0  0
 22 25  1  0  0  0  0
 23 24  1  0  0  0  0
 23 12  1  0  0  0  0
 25 24  2  0  0  0  0
 26 22  2  0  0  0  0
 26 27  1  0  0  0  0
 27 23  2  0  0  0  0
M  END
>  <MODEL>
1

>  <REMARK>
 VINA RESULT:      -5.0      0.000      0.000
  Name = 
  1 active torsions:
  status: ('A' for Active; 'I' for Inactive)
    1  A    between atoms: C_9  and  N_15
                            x       y       z     vdW  Elec       q    Type
                         _______ _______ _______ _____ _____    ______ ____

>  <TORSDO>
F 1

$$$$
=
 OpenBabel11052423103D

 27 32  0  0  1  0  0  0  0  0999 V2000
  162.8750  207.1450  151.8580 C   0  0  0  0  0  2  0  0  0  0  0  0
  161.4410  205.1120  152.3400 C   0  0  1  0  0  3  0  0  0  0  0  0
  160.3900  205.9800  150.1480 C   0  0  0  0  0  2  0  0  0  0  0  0
  160.9950  200.9510  151.1500 C   0  0  0  0  0  2  0  0  0  0  0  0
  159.9380  201.0620  149.1620 C   0  0  0  0  0  2  0  0  0  0  0  0
  162.5980  204.2880  151.9890 N   0  0  0  0  0  2  0  0  0  0  0  0
  160.3540  203.1960  149.4180 O   0  0  0  0  0  0  0  0  0  0  0  0
  162.1290  206.3090  146.9800 C   0  0  0  0  0  2  0  0  0  0  0  0
  159.3670  202.3180  149.4680 O   0  0  0  0  0  0  0  0  0  0  0  0
  161.6550  207.7620  147.0050 C   0  0  0  0  0  2  0  0  0  0  0  0
  160.6620  203.5100  150.7570 C   0  0  2  0  0  0  0  0  0  0  0  0
  161.7950  206.5100  152.6110 N   0  0  0  0  0  0  0  0  0  0  0  0
  161.2030  200.9000  149.7630 O   0  0  0  0  0  0  0  0  0  0  0  0
  161.0570  202.3810  151.7300 C   0  0  2  0  0  3  0  0  0  0  0  0
  162.2840  208.0770  150.8140 C   0  0  0  0  0  2  0  0  0  0  0  0
  160.3740  204.9150  151.2690 C   0  0  1  0  0  3  0  0  0  0  0  0
  161.4320  205.5120  148.0840 C   0  0  0  0  0  2  0  0  0  0  0  0
  162.1270  203.2450  151.0680 C   0  0  2  0  0  3  0  0  0  0  0  0
  161.5290  208.3190  148.4260 C   0  0  0  0  0  2  0  0  0  0  0  0
  162.2270  207.4110  149.4410 C   0  0  2  0  0  3  0  0  0  0  0  0
  161.6750  206.0310  149.4450 N   0  0  1  0  0  0  0  0  0  0  0  0
  159.6850  208.6810  155.6030 C   0  0  0  0  0  3  0  0  0  0  0  0
  161.0770  207.2470  153.6240 C   0  0  0  0  0  0  0  0  0  0  0  0
  160.5180  206.5840  154.7310 C   0  0  0  0  0  3  0  0  0  0  0  0
  159.8260  207.2960  155.7130 C   0  0  0  0  0  3  0  0  0  0  0  0
  160.2370  209.3550  154.5100 C   0  0  0  0  0  3  0  0  0  0  0  0
  160.9290  208.6410  153.5280 C   0  0  0  0  0  3  0  0  0  0  0  0
  1 12  1  0  0  0  0
  2  6  1  6  0  0  0
  2 12  1  0  0  0  0
  5  9  1  0  0  0  0
  5 13  1  0  0  0  0
  7  9  1  0  0  0  0
  8 10  1  0  0  0  0
  8 17  1  0  0  0  0
 10 19  1  0  0  0  0
 11  7  1  6  0  0  0
 11 18  1  0  0  0  0
 11 16  1  0  0  0  0
 11 14  1  0  0  0  0
 12 23  1  0  0  0  0
 13  4  1  0  0  0  0
 14  4  1  6  0  0  0
 15  1  1  0  0  0  0
 16  3  1  6  0  0  0
 16  2  1  0  0  0  0
 18 14  1  0  0  0  0
 18  6  1  1  0  0  0
 20 19  1  6  0  0  0
 20 21  1  0  0  0  0
 20 15  1  0  0  0  0
 21 17  1  6  0  0  0
 21  3  1  0  0  0  0
 22 25  1  0  0  0  0
 23 24  1  0  0  0  0
 24 25  2  0  0  0  0
 26 22  2  0  0  0  0
 27 23  2  0  0  0  0
 27 26  1  0  0  0  0
M  END
>  <MODEL>
2

>  <REMARK>
 VINA RESULT:      -4.4      4.046      6.440
  Name = 
  1 active torsions:
  status: ('A' for Active; 'I' for Inactive)
    1  A    between atoms: C_9  and  N_15
                            x       y       z     vdW  Elec       q    Type
                         _______ _______ _______ _____ _____    ______ ____

>  <TORSDO>
F 1

$$$$
=
 OpenBabel11052423103D

 27 32  0  0  1  0  0  0  0  0999 V2000
  162.7670  209.6620  150.3720 C   0  0  0  0  0  2  0  0  0  0  0  0
  161.6030  210.6840  152.3770 C   0  0  1  0  0  3  0  0  0  0  0  0
  160.2230  208.5330  152.0180 C   0  0  0  0  0  2  0  0  0  0  0  0
  161.4260  210.3240  156.7090 C   0  0  0  0  0  2  0  0  0  0  0  0
  160.1380  208.5060  157.0530 C   0  0  0  0  0  2  0  0  0  0  0  0
  162.7850  210.3350  153.1650 N   0  0  0  0  0  2  0  0  0  0  0  0
  160.3720  208.3210  154.8850 O   0  0  0  0  0  0  0  0  0  0  0  0
  161.5400  205.1540  152.1660 C   0  0  0  0  0  2  0  0  0  0  0  0
  159.4880  208.6570  155.8080 O   0  0  0  0  0  0  0  0  0  0  0  0
  160.9340  204.9820  150.7740 C   0  0  0  0  0  2  0  0  0  0  0  0
  160.8030  209.5290  154.3020 C   0  0  2  0  0  0  0  0  0  0  0  0
  161.8490  210.6520  150.9310 N   0  0  0  0  0  0  0  0  0  0  0  0
  161.4740  208.9530  157.0060 O   0  0  0  0  0  0  0  0  0  0  0  0
  161.4170  210.6270  155.1950 C   0  0  2  0  0  3  0  0  0  0  0  0
  161.9700  208.5570  149.7000 C   0  0  0  0  0  2  0  0  0  0  0  0
  160.4420  209.8170  152.8510 C   0  0  1  0  0  3  0  0  0  0  0  0
  161.0570  206.4640  152.7890 C   0  0  0  0  0  2  0  0  0  0  0  0
  162.3130  209.6850  154.3950 C   0  0  2  0  0  3  0  0  0  0  0  0
  160.9210  206.2860  149.9690 C   0  0  0  0  0  2  0  0  0  0  0  0
  161.8180  207.3440  150.6150 C   0  0  2  0  0  3  0  0  0  0  0  0
  161.4070  207.6670  152.0060 N   0  0  1  0  0  0  0  0  0  0  0  0
  159.8940  213.4530  148.3910 C   0  0  0  0  0  3  0  0  0  0  0  0
  161.1870  211.6040  150.0710 C   0  0  0  0  0  0  0  0  0  0  0  0
  161.4690  211.6410  148.6930 C   0  0  0  0  0  3  0  0  0  0  0  0
  160.8280  212.5600  147.8600 C   0  0  0  0  0  3  0  0  0  0  0  0
  159.6010  213.4270  149.7560 C   0  0  0  0  0  3  0  0  0  0  0  0
  160.2430  212.5070  150.5900 C   0  0  0  0  0  3  0  0  0  0  0  0
  1 12  1  0  0  0  0
  2 16  1  0  0  0  0
  2  6  1  1  0  0  0
  4 13  1  0  0  0  0
  7  9  1  0  0  0  0
  8 17  1  0  0  0  0
  9  5  1  0  0  0  0
 10  8  1  0  0  0  0
 11 18  1  0  0  0  0
 11  7  1  1  0  0  0
 11 14  1  0  0  0  0
 12  2  1  0  0  0  0
 13  5  1  0  0  0  0
 14  4  1  1  0  0  0
 15  1  1  0  0  0  0
 16  3  1  6  0  0  0
 16 11  1  0  0  0  0
 18  6  1  6  0  0  0
 18 14  1  0  0  0  0
 19 20  1  0  0  0  0
 19 10  1  0  0  0  0
 20 15  1  6  0  0  0
 20 21  1  0  0  0  0
 21  3  1  6  0  0  0
 21 17  1  0  0  0  0
 22 26  1  0  0  0  0
 23 27  1  0  0  0  0
 23 12  1  0  0  0  0
 24 23  2  0  0  0  0
 25 22  2  0  0  0  0
 25 24  1  0  0  0  0
 26 27  2  0  0  0  0
M  END
>  <MODEL>
3

>  <REMARK>
 VINA RESULT:      -4.0      0.902      1.361
  Name = 
  1 active torsions:
  status: ('A' for Active; 'I' for Inactive)
    1  A    between atoms: C_9  and  N_15
                            x       y       z     vdW  Elec       q    Type
                         _______ _______ _______ _____ _____    ______ ____

>  <TORSDO>
F 1

$$$$
=
 OpenBabel11052423103D

 27 32  0  0  1  0  0  0  0  0999 V2000
  160.0350  208.5460  153.5090 C   0  0  0  0  0  2  0  0  0  0  0  0
  161.0670  210.7020  152.6680 C   0  0  1  0  0  3  0  0  0  0  0  0
  162.3590  208.9390  151.2950 C   0  0  0  0  0  2  0  0  0  0  0  0
  160.8370  213.4550  149.3070 C   0  0  0  0  0  2  0  0  0  0  0  0
  161.9920  212.4190  147.6720 C   0  0  0  0  0  2  0  0  0  0  0  0
  159.8020  210.9690  151.9830 N   0  0  0  0  0  2  0  0  0  0  0  0
  161.9430  210.7740  149.1160 O   0  0  0  0  0  0  0  0  0  0  0  0
  160.8580  206.5790  148.9800 C   0  0  0  0  0  2  0  0  0  0  0  0
  162.7580  211.6780  148.6000 O   0  0  0  0  0  0  0  0  0  0  0  0
  161.5770  205.5040  149.7950 C   0  0  0  0  0  2  0  0  0  0  0  0
  161.6310  211.2280  150.4130 C   0  0  2  0  0  0  0  0  0  0  0  0
  160.9500  209.6690  153.7030 N   0  0  0  0  0  0  0  0  0  0  0  0
  160.6910  212.6740  148.1510 O   0  0  0  0  0  0  0  0  0  0  0  0
  160.9980  212.6220  150.5980 C   0  0  2  0  0  3  0  0  0  0  0  0
  160.8300  207.3040  153.1430 C   0  0  0  0  0  2  0  0  0  0  0  0
  162.1340  210.4350  151.6120 C   0  0  1  0  0  3  0  0  0  0  0  0
  161.3520  207.9670  149.3950 C   0  0  0  0  0  2  0  0  0  0  0  0
  160.1280  211.3670  150.6060 C   0  0  2  0  0  3  0  0  0  0  0  0
  161.7300  205.8830  151.2710 C   0  0  0  0  0  2  0  0  0  0  0  0
  160.8360  207.0710  151.6330 C   0  0  2  0  0  3  0  0  0  0  0  0
  161.1370  208.2790  150.8230 N   0  0  1  0  0  0  0  0  0  0  0  0
  163.2680  209.9670  157.2610 C   0  0  0  0  0  3  0  0  0  0  0  0
  161.7350  209.7720  154.9100 C   0  0  0  0  0  0  0  0  0  0  0  0
  161.5580  208.8530  155.9600 C   0  0  0  0  0  3  0  0  0  0  0  0
  162.3190  208.9510  157.1270 C   0  0  0  0  0  3  0  0  0  0  0  0
  163.4570  210.8860  156.2260 C   0  0  0  0  0  3  0  0  0  0  0  0
  162.6950  210.7870  155.0580 C   0  0  0  0  0  3  0  0  0  0  0  0
  1 12  1  0  0  0  0
  2  6  1  6  0  0  0
  2 12  1  0  0  0  0
  5 13  1  0  0  0  0
  5  9  1  0  0  0  0
  8 17  1  0  0  0  0
  8 10  1  0  0  0  0
  9  7  1  0  0  0  0
 10 19  1  0  0  0  0
 11  7  1  6  0  0  0
 11 14  1  0  0  0  0
 11 18  1  0  0  0  0
 11 16  1  0  0  0  0
 12 23  1  0  0  0  0
 13  4  1  0  0  0  0
 14  4  1  6  0  0  0
 14 18  1  0  0  0  0
 15  1  1  0  0  0  0
 16  3  1  6  0  0  0
 16  2  1  0  0  0  0
 18  6  1  1  0  0  0
 20 19  1  1  0  0  0
 20 15  1  0  0  0  0
 21 17  1  6  0  0  0
 21  3  1  0  0  0  0
 21 20  1  0  0  0  0
 23 27  2  0  0  0  0
 23 24  1  0  0  0  0
 24 25  2  0  0  0  0
 25 22  1  0  0  0  0
 26 22  2  0  0  0  0
 27 26  1  0  0  0  0
M  END
>  <MODEL>
4

>  <REMARK>
 VINA RESULT:      -3.5      2.904      5.872
  Name = 
  1 active torsions:
  status: ('A' for Active; 'I' for Inactive)
    1  A    between atoms: C_9  and  N_15
                            x       y       z     vdW  Elec       q    Type
                         _______ _______ _______ _____ _____    ______ ____

>  <TORSDO>
F 1

$$$$
=
 OpenBabel11052423103D

 27 32  0  0  1  0  0  0  0  0999 V2000
  163.0540  207.5840  149.8260 C   0  0  0  0  0  2  0  0  0  0  0  0
  161.6460  206.0180  151.2340 C   0  0  1  0  0  3  0  0  0  0  0  0
  160.4580  205.8670  148.9470 C   0  0  0  0  0  2  0  0  0  0  0  0
  161.1050  201.7740  152.0280 C   0  0  0  0  0  2  0  0  0  0  0  0
  159.9230  201.0340  150.2570 C   0  0  0  0  0  2  0  0  0  0  0  0
  162.7740  205.0870  151.2180 N   0  0  0  0  0  2  0  0  0  0  0  0
  160.3630  203.0490  149.5220 O   0  0  0  0  0  0  0  0  0  0  0  0
  161.9910  204.7130  145.8660 C   0  0  0  0  0  2  0  0  0  0  0  0
  159.3780  202.3140  150.0090 O   0  0  0  0  0  0  0  0  0  0  0  0
  161.5260  206.0430  145.2740 C   0  0  0  0  0  2  0  0  0  0  0  0
  160.7580  203.9090  150.5660 C   0  0  2  0  0  0  0  0  0  0  0  0
  162.0220  207.3800  150.8410 N   0  0  0  0  0  0  0  0  0  0  0  0
  161.2220  201.1120  150.7960 O   0  0  0  0  0  0  0  0  0  0  0  0
  161.2100  203.3110  151.9140 C   0  0  2  0  0  3  0  0  0  0  0  0
  162.4010  207.9810  148.5130 C   0  0  0  0  0  2  0  0  0  0  0  0
  160.5100  205.4050  150.4210 C   0  0  1  0  0  3  0  0  0  0  0  0
  161.3630  204.5060  147.2450 C   0  0  0  0  0  2  0  0  0  0  0  0
  162.2390  203.7610  150.8790 C   0  0  2  0  0  3  0  0  0  0  0  0
  161.4940  207.1730  146.3090 C   0  0  0  0  0  2  0  0  0  0  0  0
  162.2520  206.7810  147.5790 C   0  0  2  0  0  3  0  0  0  0  0  0
  161.6960  205.5630  148.2230 N   0  0  1  0  0  0  0  0  0  0  0  0
  160.1180  210.7120  152.6830 C   0  0  0  0  0  3  0  0  0  0  0  0
  161.3750  208.5100  151.4630 C   0  0  0  0  0  0  0  0  0  0  0  0
  160.5930  208.3400  152.6200 C   0  0  0  0  0  3  0  0  0  0  0  0
  159.9690  209.4340  153.2250 C   0  0  0  0  0  3  0  0  0  0  0  0
  160.8930  210.8970  151.5350 C   0  0  0  0  0  3  0  0  0  0  0  0
  161.5180  209.8030  150.9310 C   0  0  0  0  0  3  0  0  0  0  0  0
  1 12  1  0  0  0  0
  2  6  1  6  0  0  0
  5 13  1  0  0  0  0
  7  9  1  0  0  0  0
  8 17  1  0  0  0  0
  9  5  1  0  0  0  0
 10  8  1  0  0  0  0
 10 19  1  0  0  0  0
 11  7  1  6  0  0  0
 11 18  1  0  0  0  0
 11 14  1  0  0  0  0
 12  2  1  0  0  0  0
 12 23  1  0  0  0  0
 13  4  1  0  0  0  0
 14  4  1  6  0  0  0
 15  1  1  0  0  0  0
 16  3  1  6  0  0  0
 16 11  1  0  0  0  0
 16  2  1  0  0  0  0
 18  6  1  1  0  0  0
 18 14  1  0  0  0  0
 20 19  1  6  0  0  0
 20 21  1  0  0  0  0
 20 15  1  0  0  0  0
 21 17  1  6  0  0  0
 21  3  1  0  0  0  0
 22 25  1  0  0  0  0
 23 24  1  0  0  0  0
 24 25  2  0  0  0  0
 26 22  2  0  0  0  0
 27 23  2  0  0  0  0
 27 26  1  0  0  0  0
M  END
>  <MODEL>
5

>  <REMARK>
 VINA RESULT:      -3.0      3.656      5.801
  Name = 
  1 active torsions:
  status: ('A' for Active; 'I' for Inactive)
    1  A    between atoms: C_9  and  N_15
                            x       y       z     vdW  Elec       q    Type
                         _______ _______ _______ _____ _____    ______ ____

>  <TORSDO>
F 1

$$$$
=
 OpenBabel11052423103D

 27 32  0  0  1  0  0  0  0  0999 V2000
  162.6060  209.6000  153.4800 C   0  0  0  0  0  2  0  0  0  0  0  0
  161.2630  207.4570  153.6210 C   0  0  1  0  0  3  0  0  0  0  0  0
  160.5170  208.3860  151.3310 C   0  0  0  0  0  2  0  0  0  0  0  0
  161.3140  203.3540  152.1720 C   0  0  0  0  0  2  0  0  0  0  0  0
  160.5840  203.5180  150.0450 C   0  0  0  0  0  2  0  0  0  0  0  0
  162.5170  206.7290  153.4250 N   0  0  0  0  0  2  0  0  0  0  0  0
  160.7980  205.6540  150.4700 O   0  0  0  0  0  0  0  0  0  0  0  0
  162.7140  209.0130  148.5110 C   0  0  0  0  0  2  0  0  0  0  0  0
  159.8820  204.7140  150.3140 O   0  0  0  0  0  0  0  0  0  0  0  0
  162.1390  210.4290  148.5290 C   0  0  0  0  0  2  0  0  0  0  0  0
  160.8640  205.9060  151.8550 C   0  0  2  0  0  0  0  0  0  0  0  0
  161.4670  208.8550  154.0140 N   0  0  0  0  0  0  0  0  0  0  0  0
  161.7440  203.4000  150.8370 O   0  0  0  0  0  0  0  0  0  0  0  0
  161.1780  204.7480  152.8230 C   0  0  2  0  0  3  0  0  0  0  0  0
  162.1240  210.5540  152.4010 C   0  0  0  0  0  2  0  0  0  0  0  0
  160.3980  207.2570  152.3810 C   0  0  1  0  0  3  0  0  0  0  0  0
  161.9080  208.1100  149.4450 C   0  0  0  0  0  2  0  0  0  0  0  0
  162.2760  205.7160  152.3880 C   0  0  2  0  0  3  0  0  0  0  0  0
  161.7470  210.8910  149.9360 C   0  0  0  0  0  2  0  0  0  0  0  0
  162.3360  209.9700  151.0050 C   0  0  2  0  0  3  0  0  0  0  0  0
  161.8920  208.5600  150.8520 N   0  0  1  0  0  0  0  0  0  0  0  0
  158.7570  210.7120  156.7190 C   0  0  0  0  0  3  0  0  0  0  0  0
  160.5460  209.4830  154.9300 C   0  0  0  0  0  0  0  0  0  0  0  0
  160.6970  209.3230  156.3200 C   0  0  0  0  0  3  0  0  0  0  0  0
  159.8070  209.9330  157.2070 C   0  0  0  0  0  3  0  0  0  0  0  0
  158.5950  210.8830  155.3420 C   0  0  0  0  0  3  0  0  0  0  0  0
  159.4850  210.2730  154.4540 C   0  0  0  0  0  3  0  0  0  0  0  0
  1 12  1  0  0  0  0
  2  6  1  6  0  0  0
  2 12  1  0  0  0  0
  5  9  1  0  0  0  0
  5 13  1  0  0  0  0
  8 10  1  0  0  0  0
  8 17  1  0  0  0  0
  9  7  1  0  0  0  0
 10 19  1  0  0  0  0
 11  7  1  6  0  0  0
 11 16  1  0  0  0  0
 11 18  1  0  0  0  0
 11 14  1  0  0  0  0
 12 23  1  0  0  0  0
 13  4  1  0  0  0  0
 14  4  1  6  0  0  0
 15  1  1  0  0  0  0
 16  3  1  6  0  0  0
 16  2  1  0  0  0  0
 18 14  1  0  0  0  0
 18  6  1  1  0  0  0
 20 19  1  6  0  0  0
 20 15  1  0  0  0  0
 21 17  1  6  0  0  0
 21 20  1  0  0  0  0
 21  3  1  0  0  0  0
 22 25  1  0  0  0  0
 23 24  1  0  0  0  0
 24 25  2  0  0  0  0
 26 22  2  0  0  0  0
 27 23  2  0  0  0  0
 27 26  1  0  0  0  0
M  END
>  <MODEL>
6

>  <REMARK>
 VINA RESULT:      -3.0      2.847      5.173
  Name = 
  1 active torsions:
  status: ('A' for Active; 'I' for Inactive)
    1  A    between atoms: C_9  and  N_15
                            x       y       z     vdW  Elec       q    Type
                         _______ _______ _______ _____ _____    ______ ____

>  <TORSDO>
F 1

$$$$
=
 OpenBabel11052423103D

 27 32  0  0  1  0  0  0  0  0999 V2000
  162.6650  206.9130  153.0410 C   0  0  0  0  0  2  0  0  0  0  0  0
  161.4210  208.4480  151.4560 C   0  0  1  0  0  3  0  0  0  0  0  0
  159.7950  208.3440  153.4580 C   0  0  0  0  0  2  0  0  0  0  0  0
  160.6480  212.6770  150.7820 C   0  0  0  0  0  2  0  0  0  0  0  0
  159.0730  213.1940  152.3100 C   0  0  0  0  0  2  0  0  0  0  0  0
  162.4300  209.4670  151.7470 N   0  0  0  0  0  2  0  0  0  0  0  0
  159.5480  211.1780  153.0170 O   0  0  0  0  0  0  0  0  0  0  0  0
  160.5700  209.4080  156.8400 C   0  0  0  0  0  2  0  0  0  0  0  0
  158.6130  211.8590  152.3770 O   0  0  0  0  0  0  0  0  0  0  0  0
  160.1250  208.0070  157.2580 C   0  0  0  0  0  2  0  0  0  0  0  0
  160.2220  210.4260  152.0340 C   0  0  2  0  0  0  0  0  0  0  0  0
  161.8390  207.0990  151.8490 N   0  0  0  0  0  0  0  0  0  0  0  0
  160.4550  213.2610  152.0430 O   0  0  0  0  0  0  0  0  0  0  0  0
  160.8740  211.1500  150.8380 C   0  0  2  0  0  3  0  0  0  0  0  0
  161.8050  206.3740  154.1720 C   0  0  0  0  0  2  0  0  0  0  0  0
  160.0940  208.9090  152.0500 C   0  0  1  0  0  3  0  0  0  0  0  0
  160.2110  209.6560  155.3740 C   0  0  0  0  0  2  0  0  0  0  0  0
  161.7150  210.7180  152.0370 C   0  0  2  0  0  3  0  0  0  0  0  0
  160.4070  206.9520  156.1820 C   0  0  0  0  0  2  0  0  0  0  0  0
  161.3610  207.4910  155.1150 C   0  0  2  0  0  3  0  0  0  0  0  0
  160.8300  208.7000  154.4330 N   0  0  1  0  0  0  0  0  0  0  0  0
  160.6650  203.7530  149.4950 C   0  0  0  0  0  3  0  0  0  0  0  0
  161.4390  205.9640  151.0520 C   0  0  0  0  0  0  0  0  0  0  0  0
  161.2210  206.1010  149.6690 C   0  0  0  0  0  3  0  0  0  0  0  0
  160.8360  205.0030  148.8970 C   0  0  0  0  0  3  0  0  0  0  0  0
  160.8800  203.6000  150.8670 C   0  0  0  0  0  3  0  0  0  0  0  0
  161.2660  204.6990  151.6390 C   0  0  0  0  0  3  0  0  0  0  0  0
  1 15  1  0  0  0  0
  2  6  1  1  0  0  0
  2 12  1  0  0  0  0
  2 16  1  0  0  0  0
  4 13  1  0  0  0  0
  5  9  1  0  0  0  0
  8 10  1  0  0  0  0
  9  7  1  0  0  0  0
 11 18  1  0  0  0  0
 11 16  1  0  0  0  0
 11  7  1  1  0  0  0
 12  1  1  0  0  0  0
 13  5  1  0  0  0  0
 14  4  1  1  0  0  0
 14 11  1  0  0  0  0
 14 18  1  0  0  0  0
 16  3  1  1  0  0  0
 17  8  1  0  0  0  0
 18  6  1  6  0  0  0
 19 10  1  0  0  0  0
 20 15  1  6  0  0  0
 20 19  1  0  0  0  0
 21  3  1  6  0  0  0
 21 20  1  0  0  0  0
 21 17  1  0  0  0  0
 22 26  1  0  0  0  0
 23 27  1  0  0  0  0
 23 12  1  0  0  0  0
 24 23  2  0  0  0  0
 25 22  2  0  0  0  0
 25 24  1  0  0  0  0
 26 27  2  0  0  0  0
M  END
>  <MODEL>
7

>  <REMARK>
 VINA RESULT:      -2.9      2.180      5.973
  Name = 
  1 active torsions:
  status: ('A' for Active; 'I' for Inactive)
    1  A    between atoms: C_9  and  N_15
                            x       y       z     vdW  Elec       q    Type
                         _______ _______ _______ _____ _____    ______ ____

>  <TORSDO>
F 1

$$$$
=
 OpenBabel11052423103D

 27 32  0  0  1  0  0  0  0  0999 V2000
  162.8370  204.6080  148.2640 C   0  0  0  0  0  2  0  0  0  0  0  0
  162.1070  207.0200  148.5220 C   0  0  1  0  0  3  0  0  0  0  0  0
  160.3170  205.7860  149.9130 C   0  0  0  0  0  2  0  0  0  0  0  0
  162.3290  210.3180  151.3510 C   0  0  0  0  0  2  0  0  0  0  0  0
  160.7660  209.8170  152.8970 C   0  0  0  0  0  2  0  0  0  0  0  0
  163.2790  207.2210  149.3730 N   0  0  0  0  0  2  0  0  0  0  0  0
  160.7280  207.9310  151.7870 O   0  0  0  0  0  0  0  0  0  0  0  0
  160.9830  203.7310  152.8300 C   0  0  0  0  0  2  0  0  0  0  0  0
  160.0260  209.0340  151.9830 O   0  0  0  0  0  0  0  0  0  0  0  0
  160.2100  202.6390  152.0920 C   0  0  0  0  0  2  0  0  0  0  0  0
  161.3130  208.0640  150.5120 C   0  0  2  0  0  0  0  0  0  0  0  0
  162.1860  205.7970  147.7170 N   0  0  0  0  0  0  0  0  0  0  0  0
  162.1490  209.7700  152.6300 O   0  0  0  0  0  0  0  0  0  0  0  0
  162.2140  209.2800  150.2130 C   0  0  2  0  0  3  0  0  0  0  0  0
  161.7790  203.6010  148.6830 C   0  0  0  0  0  2  0  0  0  0  0  0
  160.8610  207.1360  149.3930 C   0  0  1  0  0  3  0  0  0  0  0  0
  160.8240  205.0680  152.1020 C   0  0  0  0  0  2  0  0  0  0  0  0
  162.8270  207.9300  150.5780 C   0  0  2  0  0  3  0  0  0  0  0  0
  160.3570  202.7360  150.5700 C   0  0  0  0  0  2  0  0  0  0  0  0
  161.5000  203.6760  150.1830 C   0  0  2  0  0  3  0  0  0  0  0  0
  161.3080  205.0530  150.7060 N   0  0  1  0  0  0  0  0  0  0  0  0
  160.5390  205.7320  143.7920 C   0  0  0  0  0  3  0  0  0  0  0  0
  161.6270  205.7770  146.3860 C   0  0  0  0  0  0  0  0  0  0  0  0
  162.4180  205.4110  145.2820 C   0  0  0  0  0  3  0  0  0  0  0  0
  161.8780  205.3900  143.9950 C   0  0  0  0  0  3  0  0  0  0  0  0
  159.7390  206.0950  144.8790 C   0  0  0  0  0  3  0  0  0  0  0  0
  160.2810  206.1160  146.1670 C   0  0  0  0  0  3  0  0  0  0  0  0
  1 15  1  0  0  0  0
  2  6  1  1  0  0  0
  2 16  1  0  0  0  0
  4 13  1  0  0  0  0
  7  9  1  0  0  0  0
  9  5  1  0  0  0  0
 10  8  1  0  0  0  0
 11 18  1  0  0  0  0
 11  7  1  1  0  0  0
 12  1  1  0  0  0  0
 12  2  1  0  0  0  0
 13  5  1  0  0  0  0
 14 11  1  0  0  0  0
 14 18  1  0  0  0  0
 14  4  1  1  0  0  0
 16  3  1  1  0  0  0
 16 11  1  0  0  0  0
 17  8  1  0  0  0  0
 18  6  1  6  0  0  0
 19 10  1  0  0  0  0
 20 15  1  6  0  0  0
 20 19  1  0  0  0  0
 20 21  1  0  0  0  0
 21  3  1  6  0  0  0
 21 17  1  0  0  0  0
 22 25  2  0  0  0  0
 22 26  1  0  0  0  0
 23 12  1  0  0  0  0
 24 23  2  0  0  0  0
 25 24  1  0  0  0  0
 26 27  2  0  0  0  0
 27 23  1  0  0  0  0
M  END
>  <MODEL>
8

>  <REMARK>
 VINA RESULT:      -2.2      3.272      6.087
  Name = 
  1 active torsions:
  status: ('A' for Active; 'I' for Inactive)
    1  A    between atoms: C_9  and  N_15
                            x       y       z     vdW  Elec       q    Type
                         _______ _______ _______ _____ _____    ______ ____

>  <TORSDO>
F 1

$$$$
=
 OpenBabel11052423103D

 27 32  0  0  1  0  0  0  0  0999 V2000
  159.6290  206.0480  150.8220 C   0  0  0  0  0  2  0  0  0  0  0  0
  160.8820  206.8600  148.7760 C   0  0  1  0  0  3  0  0  0  0  0  0
  162.2450  204.7660  149.4190 C   0  0  0  0  0  2  0  0  0  0  0  0
  161.2540  206.0490  144.5170 C   0  0  0  0  0  2  0  0  0  0  0  0
  162.5570  204.2120  144.4240 C   0  0  0  0  0  2  0  0  0  0  0  0
  159.7370  206.4250  147.9760 N   0  0  0  0  0  2  0  0  0  0  0  0
  162.2260  204.2540  146.5870 O   0  0  0  0  0  0  0  0  0  0  0  0
  160.9380  201.3830  149.5680 C   0  0  0  0  0  2  0  0  0  0  0  0
  163.1510  204.4950  145.6740 O   0  0  0  0  0  0  0  0  0  0  0  0
  161.4820  201.3610  150.9970 C   0  0  0  0  0  2  0  0  0  0  0  0
  161.7690  205.5140  147.0200 C   0  0  2  0  0  0  0  0  0  0  0  0
  160.5710  206.9790  150.2040 N   0  0  0  0  0  0  0  0  0  0  0  0
  161.2210  204.6540  144.3650 O   0  0  0  0  0  0  0  0  0  0  0  0
  161.1960  206.5090  145.9900 C   0  0  2  0  0  3  0  0  0  0  0  0
  160.3960  205.0240  151.6420 C   0  0  0  0  0  2  0  0  0  0  0  0
  162.0640  205.9540  148.4480 C   0  0  1  0  0  3  0  0  0  0  0  0
  161.4480  202.6240  148.8330 C   0  0  0  0  0  2  0  0  0  0  0  0
  160.2650  205.6510  146.8440 C   0  0  2  0  0  3  0  0  0  0  0  0
  161.4570  202.7430  151.6600 C   0  0  0  0  0  2  0  0  0  0  0  0
  160.5900  203.7220  150.8670 C   0  0  2  0  0  3  0  0  0  0  0  0
  161.0630  203.9000  149.4700 N   0  0  1  0  0  0  0  0  0  0  0  0
  162.4010  210.0510  152.5130 C   0  0  0  0  0  3  0  0  0  0  0  0
  161.1930  208.0190  150.9880 C   0  0  0  0  0  0  0  0  0  0  0  0
  162.0530  208.9550  150.3840 C   0  0  0  0  0  3  0  0  0  0  0  0
  162.6530  209.9630  151.1420 C   0  0  0  0  0  3  0  0  0  0  0  0
  161.5480  209.1320  153.1270 C   0  0  0  0  0  3  0  0  0  0  0  0
  160.9470  208.1230  152.3680 C   0  0  0  0  0  3  0  0  0  0  0  0
  1 15  1  0  0  0  0
  2  6  1  6  0  0  0
  2 12  1  0  0  0  0
  3 21  1  0  0  0  0
  5  9  1  0  0  0  0
  8 10  1  0  0  0  0
  9  7  1  0  0  0  0
 10 19  1  0  0  0  0
 11  7  1  6  0  0  0
 11 16  1  0  0  0  0
 12  1  1  0  0  0  0
 12 23  1  0  0  0  0
 13  5  1  0  0  0  0
 13  4  1  0  0  0  0
 14  4  1  6  0  0  0
 14 18  1  0  0  0  0
 14 11  1  0  0  0  0
 16  2  1  0  0  0  0
 16  3  1  1  0  0  0
 17  8  1  0  0  0  0
 18 11  1  0  0  0  0
 18  6  1  1  0  0  0
 20 15  1  1  0  0  0
 20 19  1  0  0  0  0
 21 17  1  1  0  0  0
 21 20  1  0  0  0  0
 22 26  1  0  0  0  0
 23 27  1  0  0  0  0
 24 23  2  0  0  0  0
 24 25  1  0  0  0  0
 25 22  2  0  0  0  0
 27 26  2  0  0  0  0
M  END
>  <MODEL>
9

>  <REMARK>
 VINA RESULT:      -2.1      4.594      7.551
  Name = 
  1 active torsions:
  status: ('A' for Active; 'I' for Inactive)
    1  A    between atoms: C_9  and  N_15
                            x       y       z     vdW  Elec       q    Type
                         _______ _______ _______ _____ _____    ______ ____

>  <TORSDO>
F 1

$$$$
