=
 OpenBabel11062408413D

 55 61  0  0  1  0  0  0  0  0999 V2000
  161.8360  204.6310  151.1020 C   0  0  0  0  0  2  0  0  0  0  0  0
  162.1370  210.0200  150.2700 O   0  0  0  0  0  0  0  0  0  0  0  0
  159.7160  207.4900  148.6610 C   0  0  0  0  0  1  0  0  0  0  0  0
  160.2920  205.8410  146.1960 C   0  0  0  0  0  2  0  0  0  0  0  0
  160.0980  205.5310  144.7180 C   0  0  0  0  0  2  0  0  0  0  0  0
  162.7930  205.4570  145.8890 C   0  0  1  0  0  3  0  0  0  0  0  0
  162.5190  205.0340  144.4430 C   0  0  0  0  0  2  0  0  0  0  0  0
  161.2300  207.6510  148.6730 C   0  0  2  0  0  3  0  0  0  0  0  0
  161.1040  204.4810  144.2780 C   0  0  0  0  0  2  0  0  0  0  0  0
  162.3530  206.7170  152.3840 O   0  0  0  0  0  0  0  0  0  0  0  0
  161.7070  206.3600  146.4860 C   0  0  2  0  0  3  0  0  0  0  0  0
  159.8340  207.0160  154.5720 C   0  0  0  0  0  3  0  0  0  0  0  0
  162.5710  205.3420  149.9670 C   0  0  0  0  0  2  0  0  0  0  0  0
  160.6930  205.0950  153.1720 C   0  0  0  0  0  3  0  0  0  0  0  0
  162.3360  204.0390  148.0210 C   0  0  1  0  0  3  0  0  0  0  0  0
  161.3410  209.3760  151.2260 C   0  0  0  0  0  2  0  0  0  0  0  0
  163.2140  204.2800  146.7740 C   0  0  0  0  0  2  0  0  0  0  0  0
  161.3230  210.1160  149.1340 C   0  0  0  0  0  2  0  0  0  0  0  0
  161.6570  209.0080  148.1350 C   0  0  0  0  0  2  0  0  0  0  0  0
  162.5230  207.4840  153.5720 C   0  0  0  0  0  2  0  0  0  0  0  0
  161.8020  209.7270  152.6360 C   0  0  2  0  0  3  0  0  0  0  0  0
  161.5930  205.5360  152.2730 C   0  0  0  0  0  0  0  0  0  0  0  0
  161.9810  206.4970  147.9900 C   0  0  2  0  0  3  0  0  0  0  0  0
  161.8100  205.2290  148.7260 N   0  0  2  0  0  0  0  0  0  0  0  0
  161.4910  208.6040  153.6500 C   0  0  1  0  0  3  0  0  0  0  0  0
  160.0650  208.0700  153.5430 C   0  0  0  0  0  2  0  0  0  0  0  0
  160.1250  205.7280  154.3860 C   0  0  0  0  0  3  0  0  0  0  0  0
  159.7540  213.0170  152.5820 C   0  0  1  0  0  3  0  0  0  0  0  0
  159.3400  213.4820  156.1300 C   0  0  0  0  0  3  0  0  0  0  0  0
  159.0160  213.5230  154.8610 C   0  0  0  0  0  0  0  0  0  0  0  0
  163.2280  210.1100  155.2300 O   0  0  0  0  0  0  0  0  0  0  0  0
  161.3500  211.1590  153.0180 C   0  0  2  0  0  0  0  0  0  0  0  0
  159.5260  212.1610  156.8050 C   0  0  0  0  0  2  0  0  0  0  0  0
  160.9710  211.9840  157.2610 C   0  0  0  0  0  2  0  0  0  0  0  0
  162.2030  210.7410  155.4430 C   0  0  0  0  0  0  0  0  0  0  0  0
  159.9610  211.4950  152.6630 C   0  0  1  0  0  3  0  0  0  0  0  0
  161.6250  211.6380  154.3880 C   0  0  2  0  0  3  0  0  0  0  0  0
  159.3980  213.3620  151.2880 F   0  0  0  0  0  0  0  0  0  0  0  0
  161.5260  210.6370  156.7870 C   0  0  0  0  0  2  0  0  0  0  0  0
  160.2860  211.1070  154.0480 N   0  0  2  0  0  0  0  0  0  0  0  0
  158.7280  213.5130  153.5790 C   0  0  0  0  0  0  0  0  0  0  0  0
  157.4330  214.0930  153.1050 C   0  0  0  0  0  2  0  0  0  0  0  0
  154.7890  213.4310  153.1070 O   0  0  0  0  0  0  0  0  0  0  0  0
  155.7650  214.1560  155.4240 O   0  0  0  0  0  1  0  0  0  0  0  0
  156.0270  213.3310  153.9700 P   0  0  0  0  0  0  0  0  0  0  0  0
  156.3650  211.7040  154.2930 O   0  0  0  0  0  1  0  0  0  0  0  0
  160.5840  202.6020  148.7330 O   0  0  0  0  0  0  0  0  0  0  0  0
  161.2860  202.9860  147.8110 C   0  0  0  0  0  0  0  0  0  0  0  0
  161.0820  202.4190  146.4490 C   0  0  0  0  0  2  0  0  0  0  0  0
  160.7400  200.1120  145.4870 C   0  0  0  0  0  0  0  0  0  0  0  0
  161.2770  200.9770  146.4890 N   0  0  0  0  0  2  0  0  0  0  0  0
  160.0480  200.5790  144.5400 O   0  0  0  0  0  0  0  0  0  0  0  0
  160.9420  198.6370  145.5810 C   0  0  0  0  0  3  0  0  0  0  0  0
  161.9470  198.3020  146.6680 C   0  0  0  0  0  1  0  0  0  0  0  0
  161.4070  198.0710  144.2530 C   0  0  0  0  0  1  0  0  0  0  0  0
  1 22  1  0  0  0  0
  2 16  1  0  0  0  0
  5  4  1  0  0  0  0
  6  7  1  6  0  0  0
  6 11  1  0  0  0  0
  6 17  1  0  0  0  0
  8  3  1  6  0  0  0
  9  7  1  0  0  0  0
  9  5  1  0  0  0  0
 10 20  1  0  0  0  0
 11  4  1  1  0  0  0
 11 23  1  0  0  0  0
 13  1  1  0  0  0  0
 14 27  1  0  0  0  0
 15 48  1  6  0  0  0
 15 24  1  0  0  0  0
 17 15  1  0  0  0  0
 18  2  1  0  0  0  0
 19  8  1  0  0  0  0
 19 18  1  0  0  0  0
 20 25  1  0  0  0  0
 21 16  1  6  0  0  0
 21 32  1  0  0  0  0
 21 25  1  0  0  0  0
 22 10  1  0  0  0  0
 22 14  2  0  0  0  0
 23  8  1  0  0  0  0
 23 24  1  0  0  0  0
 24 13  1  0  0  0  0
 26 25  1  0  0  0  0
 26 12  1  0  0  0  0
 27 12  2  0  0  0  0
 28 36  1  0  0  0  0
 28 41  1  0  0  0  0
 29 33  1  0  0  0  0
 30 29  2  0  0  0  0
 31 35  2  0  0  0  0
 32 40  1  0  0  0  0
 32 37  1  0  0  0  0
 33 34  1  0  0  0  0
 35 39  1  0  0  0  0
 36 32  1  0  0  0  0
 36 40  1  0  0  0  0
 37 35  1  0  0  0  0
 38 28  1  0  0  0  0
 39 34  1  0  0  0  0
 40 37  1  0  0  0  0
 41 30  2  0  0  0  0
 42 41  1  0  0  0  0
 42 45  1  0  0  0  0
 43 45  2  0  0  0  0
 45 46  1  0  0  0  0
 45 44  1  0  0  0  0
 48 47  2  0  0  0  0
 49 51  1  0  0  0  0
 49 48  1  0  0  0  0
 50 53  1  0  0  0  0
 50 51  1  0  0  0  0
 52 50  2  0  0  0  0
 53 54  1  0  0  0  0
 55 53  1  0  0  0  0
M  END
>  <MODEL>
1

>  <REMARK>
 VINA RESULT:       3.9      0.000      0.000
  Name = 
  7 active torsions:
  status: ('A' for Active; 'I' for Inactive)
    1  A    between atoms: C_8  and  C_43
    2  A    between atoms: C_10  and  C_32
    3  A    between atoms: P_29  and  C_38
    4  A    between atoms: C_33  and  C_52
    5  A    between atoms: C_34  and  N_39
    6  A    between atoms: C_34  and  C_52
    7  A    between atoms: C_38  and  C_53
                            x       y       z     vdW  Elec       q    Type
                         _______ _______ _______ _____ _____    ______ ____

>  <TORSDO>
F 7

$$$$
