=
 OpenBabel11052423023D

 28 32  0  0  1  0  0  0  0  0999 V2000
  160.1530  211.0220  152.0480 C   0  0  2  0  0  3  0  0  0  0  0  0
  160.7240  206.5840  149.4660 C   0  0  0  0  0  3  0  0  0  0  0  0
  161.2930  207.5850  155.6090 C   0  0  0  0  0  1  0  0  0  0  0  0
  161.2540  204.9530  151.1880 C   0  0  0  0  0  0  0  0  0  0  0  0
  160.8870  207.2860  151.8180 C   0  0  0  0  0  0  0  0  0  0  0  0
  161.0940  204.2660  148.8700 C   0  0  0  0  0  0  0  0  0  0  0  0
  160.9510  206.2870  150.8210 C   0  0  0  0  0  0  0  0  0  0  0  0
  161.4200  205.6160  153.5060 C   0  0  0  0  0  3  0  0  0  0  0  0
  161.3230  203.9550  150.2130 C   0  0  0  0  0  3  0  0  0  0  0  0
  160.7430  209.2710  153.8200 C   0  0  0  0  0  0  0  0  0  0  0  0
  160.5940  208.6140  151.4870 C   0  0  0  0  0  3  0  0  0  0  0  0
  161.4860  204.6290  152.5230 C   0  0  0  0  0  3  0  0  0  0  0  0
  159.8080  211.5030  154.4830 C   0  0  0  0  0  2  0  0  0  0  0  0
  161.0510  207.9410  154.1710 C   0  0  0  0  0  0  0  0  0  0  0  0
  160.6960  210.3370  154.8870 C   0  0  0  0  0  2  0  0  0  0  0  0
  161.1640  203.2710  147.9060 O   0  0  0  0  0  1  0  0  0  0  0  0
  160.7950  205.5790  148.4980 C   0  0  0  0  0  3  0  0  0  0  0  0
  161.1220  206.9460  153.1720 C   0  0  0  0  0  0  0  0  0  0  0  0
  160.3070  212.0610  153.1620 C   0  0  0  0  0  2  0  0  0  0  0  0
  160.5470  209.6150  152.4610 C   0  0  0  0  0  0  0  0  0  0  0  0
  160.8710  211.4820  150.8140 C   0  0  0  0  0  0  0  0  0  0  0  0
  160.5410  212.6970  150.1940 C   0  0  0  0  0  3  0  0  0  0  0  0
  162.2520  212.3170  148.5210 C   0  0  0  0  0  0  0  0  0  0  0  0
  161.8950  210.6900  150.2820 C   0  0  0  0  0  3  0  0  0  0  0  0
  160.8920  214.3180  148.4460 O   0  0  0  0  0  1  0  0  0  0  0  0
  161.2280  213.1130  149.0510 C   0  0  0  0  0  0  0  0  0  0  0  0
  162.9420  212.7220  147.3860 O   0  0  0  0  0  1  0  0  0  0  0  0
  162.5830  211.1060  149.1390 C   0  0  0  0  0  3  0  0  0  0  0  0
  1 21  1  6  0  0  0
  1 20  1  0  0  0  0
  1 19  1  0  0  0  0
  2  7  1  0  0  0  0
  4 12  1  0  0  0  0
  5 18  1  0  0  0  0
  6  9  2  0  0  0  0
  7  4  2  0  0  0  0
  7  5  1  0  0  0  0
  9  4  1  0  0  0  0
 10 14  1  0  0  0  0
 10 15  1  0  0  0  0
 11  5  2  0  0  0  0
 11 20  1  0  0  0  0
 12  8  2  0  0  0  0
 13 15  1  0  0  0  0
 14  3  1  0  0  0  0
 16  6  1  0  0  0  0
 17  6  1  0  0  0  0
 17  2  2  0  0  0  0
 18  8  1  0  0  0  0
 18 14  2  0  0  0  0
 19 13  1  0  0  0  0
 20 10  2  0  0  0  0
 22 21  2  0  0  0  0
 23 26  2  0  0  0  0
 23 28  1  0  0  0  0
 24 21  1  0  0  0  0
 25 26  1  0  0  0  0
 26 22  1  0  0  0  0
 27 23  1  0  0  0  0
 28 24  2  0  0  0  0
M  END
>  <MODEL>
1

>  <REMARK>
 VINA RESULT:      -9.2      0.000      0.000
  Name = 
  1 active torsions:
  status: ('A' for Active; 'I' for Inactive)
    1  A    between atoms: C_1  and  C_2
                            x       y       z     vdW  Elec       q    Type
                         _______ _______ _______ _____ _____    ______ ____

>  <TORSDO>
F 1

$$$$
=
 OpenBabel11052423023D

 28 32  0  0  1  0  0  0  0  0999 V2000
  161.9420  207.1600  151.9770 C   0  0  2  0  0  3  0  0  0  0  0  0
  162.0550  211.2810  148.8640 C   0  0  0  0  0  3  0  0  0  0  0  0
  159.3630  210.7490  154.4800 C   0  0  0  0  0  1  0  0  0  0  0  0
  160.8300  212.9880  150.0860 C   0  0  0  0  0  0  0  0  0  0  0  0
  161.0970  210.7680  151.0710 C   0  0  0  0  0  0  0  0  0  0  0  0
  161.7750  213.4900  147.9120 C   0  0  0  0  0  0  0  0  0  0  0  0
  161.3330  211.6660  150.0070 C   0  0  0  0  0  0  0  0  0  0  0  0
  159.8780  212.5100  152.2550 C   0  0  0  0  0  3  0  0  0  0  0  0
  161.0540  213.8880  149.0410 C   0  0  0  0  0  3  0  0  0  0  0  0
  160.6350  208.9840  153.2090 C   0  0  0  0  0  0  0  0  0  0  0  0
  161.5770  209.4540  151.0210 C   0  0  0  0  0  3  0  0  0  0  0  0
  160.1090  213.3980  151.2060 C   0  0  0  0  0  3  0  0  0  0  0  0
  161.4110  206.9240  154.4140 C   0  0  0  0  0  2  0  0  0  0  0  0
  160.1330  210.3000  153.2730 C   0  0  0  0  0  0  0  0  0  0  0  0
  160.3620  208.0220  154.3400 C   0  0  0  0  0  2  0  0  0  0  0  0
  161.9940  214.3880  146.8770 O   0  0  0  0  0  1  0  0  0  0  0  0
  162.2750  212.1880  147.8240 C   0  0  0  0  0  3  0  0  0  0  0  0
  160.3640  211.1940  152.2050 C   0  0  0  0  0  0  0  0  0  0  0  0
  161.4640  206.2080  153.0760 C   0  0  0  0  0  2  0  0  0  0  0  0
  161.3330  208.5480  152.0580 C   0  0  0  0  0  0  0  0  0  0  0  0
  161.7530  206.5250  150.6310 C   0  0  0  0  0  0  0  0  0  0  0  0
  161.2570  205.2180  150.5100 C   0  0  0  0  0  3  0  0  0  0  0  0
  161.3930  205.3840  148.0960 C   0  0  0  0  0  0  0  0  0  0  0  0
  162.0660  207.2560  149.4790 C   0  0  0  0  0  3  0  0  0  0  0  0
  160.5860  203.3530  149.1390 O   0  0  0  0  0  1  0  0  0  0  0  0
  161.0780  204.6480  149.2460 C   0  0  0  0  0  0  0  0  0  0  0  0
  161.2190  204.8270  146.8360 O   0  0  0  0  0  1  0  0  0  0  0  0
  161.8870  206.6870  148.2150 C   0  0  0  0  0  3  0  0  0  0  0  0
  1 21  1  6  0  0  0
  1 20  1  0  0  0  0
  1 19  1  0  0  0  0
  2  7  1  0  0  0  0
  4 12  1  0  0  0  0
  5 18  1  0  0  0  0
  6  9  2  0  0  0  0
  7  4  2  0  0  0  0
  7  5  1  0  0  0  0
  9  4  1  0  0  0  0
 10 14  1  0  0  0  0
 10 15  1  0  0  0  0
 11  5  2  0  0  0  0
 11 20  1  0  0  0  0
 12  8  2  0  0  0  0
 14  3  1  0  0  0  0
 15 13  1  0  0  0  0
 16  6  1  0  0  0  0
 17  6  1  0  0  0  0
 17  2  2  0  0  0  0
 18  8  1  0  0  0  0
 18 14  2  0  0  0  0
 19 13  1  0  0  0  0
 20 10  2  0  0  0  0
 22 21  1  0  0  0  0
 23 28  2  0  0  0  0
 23 26  1  0  0  0  0
 24 21  2  0  0  0  0
 25 26  1  0  0  0  0
 26 22  2  0  0  0  0
 27 23  1  0  0  0  0
 28 24  1  0  0  0  0
M  END
>  <MODEL>
2

>  <REMARK>
 VINA RESULT:      -8.8      1.085      6.476
  Name = 
  1 active torsions:
  status: ('A' for Active; 'I' for Inactive)
    1  A    between atoms: C_1  and  C_2
                            x       y       z     vdW  Elec       q    Type
                         _______ _______ _______ _____ _____    ______ ____

>  <TORSDO>
F 1

$$$$
=
 OpenBabel11052423023D

 28 32  0  0  1  0  0  0  0  0999 V2000
  161.4510  207.4070  153.3850 C   0  0  2  0  0  3  0  0  0  0  0  0
  161.8730  210.8450  149.5510 C   0  0  0  0  0  3  0  0  0  0  0  0
  158.9170  211.4940  155.0200 C   0  0  0  0  0  1  0  0  0  0  0  0
  160.6690  212.7940  150.3600 C   0  0  0  0  0  0  0  0  0  0  0  0
  160.7980  210.7980  151.7630 C   0  0  0  0  0  0  0  0  0  0  0  0
  161.7280  212.8360  148.1820 C   0  0  0  0  0  0  0  0  0  0  0  0
  161.1180  211.4660  150.5610 C   0  0  0  0  0  0  0  0  0  0  0  0
  159.6030  212.7740  152.5290 C   0  0  0  0  0  3  0  0  0  0  0  0
  160.9760  213.4680  149.1750 C   0  0  0  0  0  3  0  0  0  0  0  0
  160.1690  209.4760  154.1770 C   0  0  0  0  0  0  0  0  0  0  0  0
  161.2240  209.4840  151.9900 C   0  0  0  0  0  3  0  0  0  0  0  0
  159.9170  213.4350  151.3420 C   0  0  0  0  0  3  0  0  0  0  0  0
  160.8040  207.6630  155.7920 C   0  0  0  0  0  2  0  0  0  0  0  0
  159.7210  210.7950  153.9620 C   0  0  0  0  0  0  0  0  0  0  0  0
  159.8060  208.7600  155.4550 C   0  0  0  0  0  2  0  0  0  0  0  0
  162.0300  213.5090  147.0070 O   0  0  0  0  0  1  0  0  0  0  0  0
  162.1760  211.5260  148.3700 C   0  0  0  0  0  3  0  0  0  0  0  0
  160.0350  211.4590  152.7560 C   0  0  0  0  0  0  0  0  0  0  0  0
  160.8850  206.7020  154.6190 C   0  0  0  0  0  2  0  0  0  0  0  0
  160.8980  208.8040  153.1680 C   0  0  0  0  0  0  0  0  0  0  0  0
  161.2950  206.5310  152.1770 C   0  0  0  0  0  0  0  0  0  0  0  0
  161.1390  207.0840  150.8960 C   0  0  0  0  0  3  0  0  0  0  0  0
  161.0250  204.8600  149.9420 C   0  0  0  0  0  0  0  0  0  0  0  0
  161.3160  205.1400  152.3310 C   0  0  0  0  0  3  0  0  0  0  0  0
  160.8490  206.8110  148.5200 O   0  0  0  0  0  1  0  0  0  0  0  0
  161.0030  206.2520  149.7830 C   0  0  0  0  0  0  0  0  0  0  0  0
  160.8930  204.0240  148.8410 O   0  0  0  0  0  1  0  0  0  0  0  0
  161.1820  204.3070  151.2170 C   0  0  0  0  0  3  0  0  0  0  0  0
  1 21  1  6  0  0  0
  1 19  1  0  0  0  0
  2  7  1  0  0  0  0
  4  7  2  0  0  0  0
  4 12  1  0  0  0  0
  5 11  2  0  0  0  0
  5 18  1  0  0  0  0
  6 17  1  0  0  0  0
  6  9  2  0  0  0  0
  7  5  1  0  0  0  0
  8 18  1  0  0  0  0
  9  4  1  0  0  0  0
 10 15  1  0  0  0  0
 11 20  1  0  0  0  0
 12  8  2  0  0  0  0
 14 10  1  0  0  0  0
 14  3  1  0  0  0  0
 15 13  1  0  0  0  0
 16  6  1  0  0  0  0
 17  2  2  0  0  0  0
 18 14  2  0  0  0  0
 19 13  1  0  0  0  0
 20  1  1  0  0  0  0
 20 10  2  0  0  0  0
 21 24  1  0  0  0  0
 22 21  2  0  0  0  0
 23 28  1  0  0  0  0
 25 26  1  0  0  0  0
 26 23  2  0  0  0  0
 26 22  1  0  0  0  0
 27 23  1  0  0  0  0
 28 24  2  0  0  0  0
M  END
>  <MODEL>
3

>  <REMARK>
 VINA RESULT:      -8.7      1.141      6.224
  Name = 
  1 active torsions:
  status: ('A' for Active; 'I' for Inactive)
    1  A    between atoms: C_1  and  C_2
                            x       y       z     vdW  Elec       q    Type
                         _______ _______ _______ _____ _____    ______ ____

>  <TORSDO>
F 1

$$$$
=
 OpenBabel11052423023D

 28 32  0  0  1  0  0  0  0  0999 V2000
  161.4290  207.3580  153.4230 C   0  0  2  0  0  3  0  0  0  0  0  0
  161.9700  210.6620  149.4880 C   0  0  0  0  0  3  0  0  0  0  0  0
  158.9260  211.5320  154.8780 C   0  0  0  0  0  1  0  0  0  0  0  0
  160.7790  212.6530  150.2100 C   0  0  0  0  0  0  0  0  0  0  0  0
  160.8550  210.7030  151.6800 C   0  0  0  0  0  0  0  0  0  0  0  0
  161.8780  212.6090  148.0520 C   0  0  0  0  0  0  0  0  0  0  0  0
  161.2060  211.3270  150.4630 C   0  0  0  0  0  0  0  0  0  0  0  0
  159.6750  212.7200  152.3590 C   0  0  0  0  0  3  0  0  0  0  0  0
  161.1180  213.2840  149.0100 C   0  0  0  0  0  3  0  0  0  0  0  0
  160.1630  209.4700  154.1240 C   0  0  0  0  0  0  0  0  0  0  0  0
  161.2580  209.3920  151.9580 C   0  0  0  0  0  3  0  0  0  0  0  0
  160.0190  213.3370  151.1570 C   0  0  0  0  0  3  0  0  0  0  0  0
  160.7430  207.7030  155.8080 C   0  0  0  0  0  2  0  0  0  0  0  0
  159.7380  210.7880  153.8580 C   0  0  0  0  0  0  0  0  0  0  0  0
  159.7670  208.8020  155.4180 C   0  0  0  0  0  2  0  0  0  0  0  0
  162.2110  213.2390  146.8610 O   0  0  0  0  0  1  0  0  0  0  0  0
  162.3040  211.3000  148.2910 C   0  0  0  0  0  3  0  0  0  0  0  0
  160.0840  211.4070  152.6370 C   0  0  0  0  0  0  0  0  0  0  0  0
  160.8310  206.7020  154.6700 C   0  0  0  0  0  2  0  0  0  0  0  0
  160.9000  208.7550  153.1510 C   0  0  0  0  0  0  0  0  0  0  0  0
  161.2810  206.4460  152.2420 C   0  0  0  0  0  0  0  0  0  0  0  0
  161.2060  205.0540  152.4070 C   0  0  0  0  0  3  0  0  0  0  0  0
  160.9840  204.7760  150.0100 C   0  0  0  0  0  0  0  0  0  0  0  0
  161.2060  206.9950  150.9570 C   0  0  0  0  0  3  0  0  0  0  0  0
  160.9860  202.8450  151.4700 O   0  0  0  0  0  1  0  0  0  0  0  0
  161.0590  204.2210  151.2940 C   0  0  0  0  0  0  0  0  0  0  0  0
  160.8370  203.9570  148.8980 O   0  0  0  0  0  1  0  0  0  0  0  0
  161.0580  206.1630  149.8440 C   0  0  0  0  0  3  0  0  0  0  0  0
  1 21  1  6  0  0  0
  1 19  1  0  0  0  0
  2  7  1  0  0  0  0
  4  7  2  0  0  0  0
  4 12  1  0  0  0  0
  5 11  2  0  0  0  0
  5 18  1  0  0  0  0
  6 17  1  0  0  0  0
  6  9  2  0  0  0  0
  7  5  1  0  0  0  0
  8 18  1  0  0  0  0
  9  4  1  0  0  0  0
 10 15  1  0  0  0  0
 11 20  1  0  0  0  0
 12  8  2  0  0  0  0
 14 10  1  0  0  0  0
 14  3  1  0  0  0  0
 15 13  1  0  0  0  0
 16  6  1  0  0  0  0
 17  2  2  0  0  0  0
 18 14  2  0  0  0  0
 19 13  1  0  0  0  0
 20  1  1  0  0  0  0
 20 10  2  0  0  0  0
 21 22  1  0  0  0  0
 23 26  1  0  0  0  0
 24 21  2  0  0  0  0
 26 25  1  0  0  0  0
 26 22  2  0  0  0  0
 27 23  1  0  0  0  0
 28 23  2  0  0  0  0
 28 24  1  0  0  0  0
M  END
>  <MODEL>
4

>  <REMARK>
 VINA RESULT:      -8.6      1.130      6.474
  Name = 
  1 active torsions:
  status: ('A' for Active; 'I' for Inactive)
    1  A    between atoms: C_1  and  C_2
                            x       y       z     vdW  Elec       q    Type
                         _______ _______ _______ _____ _____    ______ ____

>  <TORSDO>
F 1

$$$$
=
 OpenBabel11052423023D

 28 32  0  0  1  0  0  0  0  0999 V2000
  160.4870  205.4640  148.9020 C   0  0  2  0  0  3  0  0  0  0  0  0
  160.4590  206.9880  153.8380 C   0  0  0  0  0  3  0  0  0  0  0  0
  162.5630  210.0990  148.8430 C   0  0  0  0  0  1  0  0  0  0  0  0
  161.4410  209.2100  153.7850 C   0  0  0  0  0  0  0  0  0  0  0  0
  161.2050  207.9530  151.7030 C   0  0  0  0  0  0  0  0  0  0  0  0
  160.7050  208.2550  155.8860 C   0  0  0  0  0  0  0  0  0  0  0  0
  161.0300  208.0390  153.1020 C   0  0  0  0  0  0  0  0  0  0  0  0
  162.1830  210.1810  151.7010 C   0  0  0  0  0  3  0  0  0  0  0  0
  161.2760  209.3090  155.1690 C   0  0  0  0  0  3  0  0  0  0  0  0
  161.5430  207.7970  148.9040 C   0  0  0  0  0  0  0  0  0  0  0  0
  160.8130  206.8080  150.9990 C   0  0  0  0  0  3  0  0  0  0  0  0
  162.0130  210.2680  153.0810 C   0  0  0  0  0  3  0  0  0  0  0  0
  160.7680  206.7410  146.7640 C   0  0  0  0  0  2  0  0  0  0  0  0
  161.9540  208.9530  149.5970 C   0  0  0  0  0  0  0  0  0  0  0  0
  161.7510  207.7020  147.4130 C   0  0  0  0  0  2  0  0  0  0  0  0
  160.5440  208.3590  157.2610 O   0  0  0  0  0  1  0  0  0  0  0  0
  160.2970  207.0960  155.2220 C   0  0  0  0  0  3  0  0  0  0  0  0
  161.7860  209.0350  150.9960 C   0  0  0  0  0  0  0  0  0  0  0  0
  160.9020  205.3830  147.4310 C   0  0  0  0  0  2  0  0  0  0  0  0
  160.9990  206.7020  149.6170 C   0  0  0  0  0  0  0  0  0  0  0  0
  160.8570  204.1950  149.6110 C   0  0  0  0  0  0  0  0  0  0  0  0
  160.8520  202.9630  148.9390 C   0  0  0  0  0  3  0  0  0  0  0  0
  161.5750  201.8490  150.9660 C   0  0  0  0  0  0  0  0  0  0  0  0
  161.2230  204.2460  150.9600 C   0  0  0  0  0  3  0  0  0  0  0  0
  161.2000  200.5780  148.9390 O   0  0  0  0  0  1  0  0  0  0  0  0
  161.2090  201.7930  149.6140 C   0  0  0  0  0  0  0  0  0  0  0  0
  161.9330  200.6910  151.6450 O   0  0  0  0  0  1  0  0  0  0  0  0
  161.5820  203.0760  151.6360 C   0  0  0  0  0  3  0  0  0  0  0  0
  1 21  1  1  0  0  0
  1 20  1  0  0  0  0
  2 17  1  0  0  0  0
  3 14  1  0  0  0  0
  4  9  2  0  0  0  0
  5  7  1  0  0  0  0
  6 16  1  0  0  0  0
  7  4  1  0  0  0  0
  7  2  2  0  0  0  0
  8 12  2  0  0  0  0
  9  6  1  0  0  0  0
 10 14  2  0  0  0  0
 10 20  1  0  0  0  0
 11  5  1  0  0  0  0
 12  4  1  0  0  0  0
 13 15  1  0  0  0  0
 13 19  1  0  0  0  0
 14 18  1  0  0  0  0
 15 10  1  0  0  0  0
 17  6  2  0  0  0  0
 18  8  1  0  0  0  0
 18  5  2  0  0  0  0
 19  1  1  0  0  0  0
 20 11  2  0  0  0  0
 21 24  1  0  0  0  0
 22 21  2  0  0  0  0
 22 26  1  0  0  0  0
 23 28  1  0  0  0  0
 23 27  1  0  0  0  0
 24 28  2  0  0  0  0
 25 26  1  0  0  0  0
 26 23  2  0  0  0  0
M  END
>  <MODEL>
5

>  <REMARK>
 VINA RESULT:      -8.2      3.352      7.681
  Name = 
  1 active torsions:
  status: ('A' for Active; 'I' for Inactive)
    1  A    between atoms: C_1  and  C_2
                            x       y       z     vdW  Elec       q    Type
                         _______ _______ _______ _____ _____    ______ ____

>  <TORSDO>
F 1

$$$$
=
 OpenBabel11052423023D

 28 32  0  0  1  0  0  0  0  0999 V2000
  161.9660  204.7260  149.8510 C   0  0  2  0  0  3  0  0  0  0  0  0
  162.1550  209.7910  148.8480 C   0  0  0  0  0  3  0  0  0  0  0  0
  160.3280  206.9550  154.1100 C   0  0  0  0  0  1  0  0  0  0  0  0
  161.3820  210.8370  150.9010 C   0  0  0  0  0  0  0  0  0  0  0  0
  161.4930  208.3990  150.7650 C   0  0  0  0  0  0  0  0  0  0  0  0
  162.0350  212.2030  149.0100 C   0  0  0  0  0  0  0  0  0  0  0  0
  161.6800  209.6640  150.1650 C   0  0  0  0  0  0  0  0  0  0  0  0
  160.7260  209.4930  152.7990 C   0  0  0  0  0  3  0  0  0  0  0  0
  161.5620  212.0950  150.3200 C   0  0  0  0  0  3  0  0  0  0  0  0
  161.1310  205.8770  151.9800 C   0  0  0  0  0  0  0  0  0  0  0  0
  161.7740  207.2220  150.0630 C   0  0  0  0  0  3  0  0  0  0  0  0
  160.9090  210.7420  152.2080 C   0  0  0  0  0  3  0  0  0  0  0  0
  161.7960  203.4570  152.0040 C   0  0  0  0  0  2  0  0  0  0  0  0
  160.8310  207.0510  152.6990 C   0  0  0  0  0  0  0  0  0  0  0  0
  160.9090  204.5280  152.6200 C   0  0  0  0  0  2  0  0  0  0  0  0
  162.2110  213.4550  148.4380 O   0  0  0  0  0  1  0  0  0  0  0  0
  162.3310  211.0530  148.2760 C   0  0  0  0  0  3  0  0  0  0  0  0
  161.0120  208.3140  152.0950 C   0  0  0  0  0  0  0  0  0  0  0  0
  161.5400  203.4120  150.5090 C   0  0  0  0  0  2  0  0  0  0  0  0
  161.5740  205.9630  150.6390 C   0  0  0  0  0  0  0  0  0  0  0  0
  161.4830  204.7700  148.4310 C   0  0  0  0  0  0  0  0  0  0  0  0
  161.5740  203.6430  147.6000 C   0  0  0  0  0  3  0  0  0  0  0  0
  160.5490  204.8870  145.7910 C   0  0  0  0  0  0  0  0  0  0  0  0
  160.9220  205.9520  147.9350 C   0  0  0  0  0  3  0  0  0  0  0  0
  161.2060  202.5790  145.4690 O   0  0  0  0  0  1  0  0  0  0  0  0
  161.1100  203.7010  146.2830 C   0  0  0  0  0  0  0  0  0  0  0  0
  160.0830  204.9550  144.4840 O   0  0  0  0  0  1  0  0  0  0  0  0
  160.4560  206.0100  146.6190 C   0  0  0  0  0  3  0  0  0  0  0  0
  1 21  1  6  0  0  0
  1 19  1  0  0  0  0
  1 20  1  0  0  0  0
  2  7  1  0  0  0  0
  4 12  1  0  0  0  0
  5 18  1  0  0  0  0
  6  9  2  0  0  0  0
  7  5  1  0  0  0  0
  7  4  2  0  0  0  0
  9  4  1  0  0  0  0
 10 15  1  0  0  0  0
 10 14  1  0  0  0  0
 11 20  1  0  0  0  0
 11  5  2  0  0  0  0
 12  8  2  0  0  0  0
 13 15  1  0  0  0  0
 14  3  1  0  0  0  0
 16  6  1  0  0  0  0
 17  2  2  0  0  0  0
 17  6  1  0  0  0  0
 18 14  2  0  0  0  0
 18  8  1  0  0  0  0
 19 13  1  0  0  0  0
 20 10  2  0  0  0  0
 22 21  2  0  0  0  0
 23 26  2  0  0  0  0
 23 28  1  0  0  0  0
 24 21  1  0  0  0  0
 25 26  1  0  0  0  0
 26 22  1  0  0  0  0
 27 23  1  0  0  0  0
 28 24  2  0  0  0  0
M  END
>  <MODEL>
6

>  <REMARK>
 VINA RESULT:      -8.1      1.518      6.732
  Name = 
  1 active torsions:
  status: ('A' for Active; 'I' for Inactive)
    1  A    between atoms: C_1  and  C_2
                            x       y       z     vdW  Elec       q    Type
                         _______ _______ _______ _____ _____    ______ ____

>  <TORSDO>
F 1

$$$$
=
 OpenBabel11052423023D

 28 32  0  0  1  0  0  0  0  0999 V2000
  161.9050  203.5430  149.5360 C   0  0  2  0  0  3  0  0  0  0  0  0
  162.3310  208.6340  148.7740 C   0  0  0  0  0  3  0  0  0  0  0  0
  160.3710  205.6420  153.9000 C   0  0  0  0  0  1  0  0  0  0  0  0
  161.6080  209.6170  150.8750 C   0  0  0  0  0  0  0  0  0  0  0  0
  161.6030  207.1870  150.6240 C   0  0  0  0  0  0  0  0  0  0  0  0
  162.3240  211.0400  149.0500 C   0  0  0  0  0  0  0  0  0  0  0  0
  161.8510  208.4680  150.0840 C   0  0  0  0  0  0  0  0  0  0  0  0
  160.8880  208.2180  152.7090 C   0  0  0  0  0  3  0  0  0  0  0  0
  161.8460  210.8920  150.3540 C   0  0  0  0  0  3  0  0  0  0  0  0
  161.1230  204.6290  151.7190 C   0  0  0  0  0  0  0  0  0  0  0  0
  161.8290  206.0320  149.8670 C   0  0  0  0  0  3  0  0  0  0  0  0
  161.1290  209.4840  152.1770 C   0  0  0  0  0  3  0  0  0  0  0  0
  161.6740  202.1830  151.6280 C   0  0  0  0  0  2  0  0  0  0  0  0
  160.8790  205.7810  152.4940 C   0  0  0  0  0  0  0  0  0  0  0  0
  160.8380  203.2640  152.2950 C   0  0  0  0  0  2  0  0  0  0  0  0
  162.5590  212.3080  148.5370 O   0  0  0  0  0  1  0  0  0  0  0  0
  162.5670  209.9130  148.2610 C   0  0  0  0  0  3  0  0  0  0  0  0
  161.1190  207.0610  151.9490 C   0  0  0  0  0  0  0  0  0  0  0  0
  161.4170  202.2200  150.1320 C   0  0  0  0  0  2  0  0  0  0  0  0
  161.5700  204.7580  150.3830 C   0  0  0  0  0  0  0  0  0  0  0  0
  161.4240  203.6760  148.1210 C   0  0  0  0  0  0  0  0  0  0  0  0
  161.2060  204.9380  147.5470 C   0  0  0  0  0  3  0  0  0  0  0  0
  160.5470  203.8830  145.4670 C   0  0  0  0  0  0  0  0  0  0  0  0
  161.2030  202.5220  147.3620 C   0  0  0  0  0  3  0  0  0  0  0  0
  160.5550  206.2960  145.6660 O   0  0  0  0  0  1  0  0  0  0  0  0
  160.7680  205.0410  146.2240 C   0  0  0  0  0  0  0  0  0  0  0  0
  160.1120  203.9750  144.1510 O   0  0  0  0  0  1  0  0  0  0  0  0
  160.7650  202.6250  146.0380 C   0  0  0  0  0  3  0  0  0  0  0  0
  1 21  1  6  0  0  0
  1 19  1  0  0  0  0
  1 20  1  0  0  0  0
  2  7  1  0  0  0  0
  4 12  1  0  0  0  0
  5 18  1  0  0  0  0
  6  9  2  0  0  0  0
  7  5  1  0  0  0  0
  7  4  2  0  0  0  0
  9  4  1  0  0  0  0
 10 15  1  0  0  0  0
 10 14  1  0  0  0  0
 11 20  1  0  0  0  0
 11  5  2  0  0  0  0
 12  8  2  0  0  0  0
 13 15  1  0  0  0  0
 14  3  1  0  0  0  0
 16  6  1  0  0  0  0
 17  2  2  0  0  0  0
 17  6  1  0  0  0  0
 18 14  2  0  0  0  0
 18  8  1  0  0  0  0
 19 13  1  0  0  0  0
 20 10  2  0  0  0  0
 22 21  1  0  0  0  0
 23 28  2  0  0  0  0
 23 26  1  0  0  0  0
 24 21  2  0  0  0  0
 25 26  1  0  0  0  0
 26 22  2  0  0  0  0
 27 23  1  0  0  0  0
 28 24  1  0  0  0  0
M  END
>  <MODEL>
7

>  <REMARK>
 VINA RESULT:      -7.7      1.912      6.818
  Name = 
  1 active torsions:
  status: ('A' for Active; 'I' for Inactive)
    1  A    between atoms: C_1  and  C_2
                            x       y       z     vdW  Elec       q    Type
                         _______ _______ _______ _____ _____    ______ ____

>  <TORSDO>
F 1

$$$$
=
 OpenBabel11052423023D

 28 32  0  0  1  0  0  0  0  0999 V2000
  160.5580  207.6990  151.7740 C   0  0  2  0  0  3  0  0  0  0  0  0
  160.5610  206.1620  146.8420 C   0  0  0  0  0  3  0  0  0  0  0  0
  161.8820  202.7980  151.9420 C   0  0  0  0  0  1  0  0  0  0  0  0
  161.1810  203.8150  146.9460 C   0  0  0  0  0  0  0  0  0  0  0  0
  161.0310  205.1090  149.0140 C   0  0  0  0  0  0  0  0  0  0  0  0
  160.7180  204.8570  144.8090 C   0  0  0  0  0  0  0  0  0  0  0  0
  160.9210  205.0400  147.6080 C   0  0  0  0  0  0  0  0  0  0  0  0
  161.6490  202.7550  149.0670 C   0  0  0  0  0  3  0  0  0  0  0  0
  161.0780  203.7320  145.5550 C   0  0  0  0  0  3  0  0  0  0  0  0
  161.2370  205.2310  151.8270 C   0  0  0  0  0  0  0  0  0  0  0  0
  160.7850  206.3050  149.6970 C   0  0  0  0  0  3  0  0  0  0  0  0
  161.5420  202.6860  147.6790 C   0  0  0  0  0  3  0  0  0  0  0  0
  160.5210  206.4110  153.9230 C   0  0  0  0  0  2  0  0  0  0  0  0
  161.5010  204.0190  151.1560 C   0  0  0  0  0  0  0  0  0  0  0  0
  161.3770  205.3030  153.3280 C   0  0  0  0  0  2  0  0  0  0  0  0
  160.6160  204.7690  143.4280 O   0  0  0  0  0  1  0  0  0  0  0  0
  160.4590  206.0700  145.4510 C   0  0  0  0  0  3  0  0  0  0  0  0
  161.3980  203.9550  149.7500 C   0  0  0  0  0  0  0  0  0  0  0  0
  160.9010  207.7260  153.2660 C   0  0  0  0  0  2  0  0  0  0  0  0
  160.9100  206.3920  151.0870 C   0  0  0  0  0  0  0  0  0  0  0  0
  161.1590  208.8910  151.0880 C   0  0  0  0  0  0  0  0  0  0  0  0
  161.7400  208.7770  149.8160 C   0  0  0  0  0  3  0  0  0  0  0  0
  162.2530  211.1450  149.8320 C   0  0  0  0  0  0  0  0  0  0  0  0
  161.1280  210.1360  151.7260 C   0  0  0  0  0  3  0  0  0  0  0  0
  162.8600  209.7750  147.9300 O   0  0  0  0  0  1  0  0  0  0  0  0
  162.2870  209.9000  149.1900 C   0  0  0  0  0  0  0  0  0  0  0  0
  162.7920  212.2670  149.2170 O   0  0  0  0  0  1  0  0  0  0  0  0
  161.6730  211.2600  151.0990 C   0  0  0  0  0  3  0  0  0  0  0  0
  1 21  1  6  0  0  0
  1 19  1  0  0  0  0
  2  7  1  0  0  0  0
  4  7  2  0  0  0  0
  4 12  1  0  0  0  0
  5 11  2  0  0  0  0
  5 18  1  0  0  0  0
  6 17  1  0  0  0  0
  6  9  2  0  0  0  0
  7  5  1  0  0  0  0
  8 18  1  0  0  0  0
  9  4  1  0  0  0  0
 10 15  1  0  0  0  0
 11 20  1  0  0  0  0
 12  8  2  0  0  0  0
 14 10  1  0  0  0  0
 14  3  1  0  0  0  0
 15 13  1  0  0  0  0
 16  6  1  0  0  0  0
 17  2  2  0  0  0  0
 18 14  2  0  0  0  0
 19 13  1  0  0  0  0
 20  1  1  0  0  0  0
 20 10  2  0  0  0  0
 21 24  1  0  0  0  0
 22 21  2  0  0  0  0
 23 28  1  0  0  0  0
 25 26  1  0  0  0  0
 26 22  1  0  0  0  0
 26 23  2  0  0  0  0
 27 23  1  0  0  0  0
 28 24  2  0  0  0  0
M  END
>  <MODEL>
8

>  <REMARK>
 VINA RESULT:      -7.6      1.909      4.056
  Name = 
  1 active torsions:
  status: ('A' for Active; 'I' for Inactive)
    1  A    between atoms: C_1  and  C_2
                            x       y       z     vdW  Elec       q    Type
                         _______ _______ _______ _____ _____    ______ ____

>  <TORSDO>
F 1

$$$$
=
 OpenBabel11052423023D

 28 32  0  0  1  0  0  0  0  0999 V2000
  160.6650  209.7680  154.3510 C   0  0  2  0  0  3  0  0  0  0  0  0
  161.8340  211.6520  149.6850 C   0  0  0  0  0  3  0  0  0  0  0  0
  157.1960  213.3800  153.5020 C   0  0  0  0  0  1  0  0  0  0  0  0
  160.1740  213.3850  149.3050 C   0  0  0  0  0  0  0  0  0  0  0  0
  160.1140  212.1020  151.3840 C   0  0  0  0  0  0  0  0  0  0  0  0
  161.8700  212.9380  147.6340 C   0  0  0  0  0  0  0  0  0  0  0  0
  160.7130  212.3710  150.1340 C   0  0  0  0  0  0  0  0  0  0  0  0
  158.4730  213.8480  150.9580 C   0  0  0  0  0  3  0  0  0  0  0  0
  160.7550  213.6620  148.0650 C   0  0  0  0  0  3  0  0  0  0  0  0
  158.9210  211.5840  153.8900 C   0  0  0  0  0  0  0  0  0  0  0  0
  160.6200  211.1030  152.2240 C   0  0  0  0  0  3  0  0  0  0  0  0
  159.0620  214.1130  149.7230 C   0  0  0  0  0  3  0  0  0  0  0  0
  159.2390  210.6690  156.2040 C   0  0  0  0  0  2  0  0  0  0  0  0
  158.3890  212.5870  153.0530 C   0  0  0  0  0  0  0  0  0  0  0  0
  158.2640  211.2880  155.2160 C   0  0  0  0  0  2  0  0  0  0  0  0
  162.4420  213.2170  146.4010 O   0  0  0  0  0  1  0  0  0  0  0  0
  162.4090  211.9350  148.4430 C   0  0  0  0  0  3  0  0  0  0  0  0
  158.9850  212.8490  151.8000 C   0  0  0  0  0  0  0  0  0  0  0  0
  159.8310  209.4150  155.5840 C   0  0  0  0  0  2  0  0  0  0  0  0
  160.0250  210.8130  153.4550 C   0  0  0  0  0  0  0  0  0  0  0  0
  161.0340  208.5190  153.6060 C   0  0  0  0  0  0  0  0  0  0  0  0
  161.6190  208.5820  152.3320 C   0  0  0  0  0  3  0  0  0  0  0  0
  161.7270  206.1620  152.2560 C   0  0  0  0  0  0  0  0  0  0  0  0
  160.7990  207.2730  154.1990 C   0  0  0  0  0  3  0  0  0  0  0  0
  162.5430  207.4820  150.3970 O   0  0  0  0  0  1  0  0  0  0  0  0
  161.9640  207.4070  151.6590 C   0  0  0  0  0  0  0  0  0  0  0  0
  162.0670  204.9890  151.5950 O   0  0  0  0  0  1  0  0  0  0  0  0
  161.1450  206.0980  153.5260 C   0  0  0  0  0  3  0  0  0  0  0  0
  1 21  1  6  0  0  0
  1 19  1  0  0  0  0
  2  7  1  0  0  0  0
  4 12  2  0  0  0  0
  4  7  1  0  0  0  0
  5 18  1  0  0  0  0
  5 11  1  0  0  0  0
  6  9  2  0  0  0  0
  6 17  1  0  0  0  0
  7  5  2  0  0  0  0
  8 18  2  0  0  0  0
  9  4  1  0  0  0  0
 10 15  1  0  0  0  0
 11 20  2  0  0  0  0
 12  8  1  0  0  0  0
 14  3  1  0  0  0  0
 14 10  2  0  0  0  0
 15 13  1  0  0  0  0
 16  6  1  0  0  0  0
 17  2  2  0  0  0  0
 18 14  1  0  0  0  0
 19 13  1  0  0  0  0
 20 10  1  0  0  0  0
 20  1  1  0  0  0  0
 21 24  1  0  0  0  0
 22 21  2  0  0  0  0
 23 28  1  0  0  0  0
 25 26  1  0  0  0  0
 26 23  2  0  0  0  0
 26 22  1  0  0  0  0
 27 23  1  0  0  0  0
 28 24  2  0  0  0  0
M  END
>  <MODEL>
9

>  <REMARK>
 VINA RESULT:      -7.6      1.893      6.508
  Name = 
  1 active torsions:
  status: ('A' for Active; 'I' for Inactive)
    1  A    between atoms: C_1  and  C_2
                            x       y       z     vdW  Elec       q    Type
                         _______ _______ _______ _____ _____    ______ ____

>  <TORSDO>
F 1

$$$$
