=
 OpenBabel11052422583D

 28 31  0  0  1  0  0  0  0  0999 V2000
  161.0660  209.3300  153.6480 N   0  0  0  0  0  0  0  0  0  0  0  0
  160.6880  210.6750  154.0060 C   0  0  0  0  0  0  0  0  0  0  0  0
  160.1750  211.4360  153.1420 O   0  0  0  0  0  0  0  0  0  0  0  0
  161.4960  207.5800  151.9270 N   0  0  0  0  0  0  0  0  0  0  0  0
  161.5370  209.8660  151.4120 O   0  0  0  0  0  0  0  0  0  0  0  0
  160.7870  206.9460  154.1890 C   0  0  0  0  0  2  0  0  0  0  0  0
  161.6440  206.5800  152.9850 C   0  0  0  0  0  2  0  0  0  0  0  0
  161.2040  208.3180  154.6980 C   0  0  0  0  0  2  0  0  0  0  0  0
  161.3700  208.9700  152.2850 C   0  0  0  0  0  0  0  0  0  0  0  0
  160.8050  211.1700  155.4260 C   0  0  1  0  0  3  0  0  0  0  0  0
  159.9600  212.4120  155.6440 C   0  0  0  0  0  2  0  0  0  0  0  0
  159.5090  211.1030  156.2510 C   0  0  1  0  0  3  0  0  0  0  0  0
  158.3680  210.5990  155.4970 N   0  0  0  0  0  2  0  0  0  0  0  0
  155.9610  210.8280  155.2520 C   0  0  0  0  0  1  0  0  0  0  0  0
  157.2210  211.4150  155.8580 C   0  0  0  0  0  2  0  0  0  0  0  0
  162.1240  208.0360  149.6620 C   0  0  0  0  0  2  0  0  0  0  0  0
  161.6360  207.1720  150.5510 C   0  0  0  0  0  0  0  0  0  0  0  0
  161.7730  203.9350  146.0280 N   0  0  0  0  0  1  0  0  0  0  0  0
  160.7790  203.0990  149.3420 C   0  0  0  0  0  0  0  0  0  0  0  0
  161.5470  205.4100  148.8600 C   0  0  0  0  0  3  0  0  0  0  0  0
  160.9630  202.1000  147.4510 N   0  0  0  0  0  0  0  0  0  0  0  0
  161.2050  204.0490  148.4560 C   0  0  0  0  0  0  0  0  0  0  0  0
  160.5050  204.8770  151.0640 C   0  0  0  0  0  2  0  0  0  0  0  0
  160.6530  201.9050  148.7280 N   0  0  0  0  0  0  0  0  0  0  0  0
  160.7080  203.3660  150.8100 C   0  0  0  0  0  2  0  0  0  0  0  0
  160.9680  201.0490  146.4500 C   0  0  0  0  0  1  0  0  0  0  0  0
  161.3080  203.3890  147.2590 C   0  0  0  0  0  0  0  0  0  0  0  0
  161.2900  205.7940  150.1240 C   0  0  0  0  0  0  0  0  0  0  0  0
  1  2  1  0  0  0  0
  1  8  1  0  0  0  0
  3  2  2  0  0  0  0
  4  9  1  0  0  0  0
  4  7  1  0  0  0  0
  5  9  2  0  0  0  0
  6  8  1  0  0  0  0
  7  6  1  0  0  0  0
  9  1  1  0  0  0  0
 10  2  1  6  0  0  0
 10 11  1  0  0  0  0
 10 12  1  0  0  0  0
 11 12  1  0  0  0  0
 12 13  1  6  0  0  0
 13 15  1  0  0  0  0
 14 15  1  0  0  0  0
 16 17  2  0  0  0  0
 17  4  1  0  0  0  0
 18 27  1  0  0  0  0
 19 25  1  0  0  0  0
 20 28  2  0  0  0  0
 21 24  1  0  0  0  0
 22 20  1  0  0  0  0
 22 19  1  0  0  0  0
 24 19  2  0  0  0  0
 25 23  1  0  0  0  0
 26 21  1  0  0  0  0
 27 21  1  0  0  0  0
 27 22  2  0  0  0  0
 28 17  1  0  0  0  0
 28 23  1  0  0  0  0
M  END
>  <MODEL>
1

>  <REMARK>
 VINA RESULT:      -8.6      0.000      0.000
  Name = 
  5 active torsions:
  status: ('A' for Active; 'I' for Inactive)
    1  A    between atoms: C_2  and  C_3
    2  A    between atoms: N_6  and  C_11
    3  A    between atoms: N_6  and  C_28
    4  A    between atoms: N_16  and  C_20
    5  A    between atoms: C_20  and  C_25
                            x       y       z     vdW  Elec       q    Type
                         _______ _______ _______ _____ _____    ______ ____

>  <TORSDO>
F 5

$$$$
=
 OpenBabel11052422583D

 28 31  0  0  1  0  0  0  0  0999 V2000
  159.6330  211.8750  154.3910 N   0  0  0  0  0  0  0  0  0  0  0  0
  158.3530  212.5400  154.4110 C   0  0  0  0  0  0  0  0  0  0  0  0
  157.4430  212.1780  153.6170 O   0  0  0  0  0  0  0  0  0  0  0  0
  161.2640  210.3350  153.3050 N   0  0  0  0  0  0  0  0  0  0  0  0
  159.5280  211.3540  152.1050 O   0  0  0  0  0  0  0  0  0  0  0  0
  161.2940  210.6580  155.7380 C   0  0  0  0  0  2  0  0  0  0  0  0
  162.1260  210.4210  154.4860 C   0  0  0  0  0  2  0  0  0  0  0  0
  160.4980  211.9440  155.5710 C   0  0  0  0  0  2  0  0  0  0  0  0
  160.1090  211.1930  153.2140 C   0  0  0  0  0  0  0  0  0  0  0  0
  158.0400  213.6060  155.4310 C   0  0  1  0  0  3  0  0  0  0  0  0
  156.5410  213.7990  155.5790 C   0  0  0  0  0  2  0  0  0  0  0  0
  157.3050  213.1120  156.6890 C   0  0  1  0  0  3  0  0  0  0  0  0
  157.0020  211.6860  156.6600 N   0  0  0  0  0  2  0  0  0  0  0  0
  155.1820  210.4020  155.6920 C   0  0  0  0  0  1  0  0  0  0  0  0
  155.5570  211.5560  156.6020 C   0  0  0  0  0  2  0  0  0  0  0  0
  162.3510  210.0610  151.1890 C   0  0  0  0  0  2  0  0  0  0  0  0
  161.6730  209.5110  152.1960 C   0  0  0  0  0  0  0  0  0  0  0  0
  160.8990  205.3360  148.6000 N   0  0  0  0  0  1  0  0  0  0  0  0
  161.0180  205.2270  152.1560 C   0  0  0  0  0  0  0  0  0  0  0  0
  161.3190  207.4060  151.0050 C   0  0  0  0  0  3  0  0  0  0  0  0
  160.7690  203.8330  150.5420 N   0  0  0  0  0  0  0  0  0  0  0  0
  161.0470  205.9710  151.0100 C   0  0  0  0  0  0  0  0  0  0  0  0
  161.0340  207.3340  153.4830 C   0  0  0  0  0  2  0  0  0  0  0  0
  160.8690  203.9180  151.8640 N   0  0  0  0  0  0  0  0  0  0  0  0
  161.3420  205.8190  153.4890 C   0  0  0  0  0  2  0  0  0  0  0  0
  160.6160  202.5820  149.8210 C   0  0  0  0  0  1  0  0  0  0  0  0
  160.8810  205.0610  149.9980 C   0  0  0  0  0  0  0  0  0  0  0  0
  161.3930  208.0540  152.1830 C   0  0  0  0  0  0  0  0  0  0  0  0
  1  2  1  0  0  0  0
  1  8  1  0  0  0  0
  3  2  2  0  0  0  0
  4  7  1  0  0  0  0
  5  9  2  0  0  0  0
  7  6  1  0  0  0  0
  8  6  1  0  0  0  0
  9  4  1  0  0  0  0
  9  1  1  0  0  0  0
 10  2  1  6  0  0  0
 10 11  1  0  0  0  0
 10 12  1  0  0  0  0
 11 12  1  0  0  0  0
 12 13  1  6  0  0  0
 14 15  1  0  0  0  0
 15 13  1  0  0  0  0
 16 17  2  0  0  0  0
 17  4  1  0  0  0  0
 18 27  1  0  0  0  0
 19 25  1  0  0  0  0
 20 22  1  0  0  0  0
 20 28  2  0  0  0  0
 21 24  1  0  0  0  0
 22 19  1  0  0  0  0
 23 25  1  0  0  0  0
 24 19  2  0  0  0  0
 26 21  1  0  0  0  0
 27 21  1  0  0  0  0
 27 22  2  0  0  0  0
 28 17  1  0  0  0  0
 28 23  1  0  0  0  0
M  END
>  <MODEL>
2

>  <REMARK>
 VINA RESULT:      -8.4      1.881      3.188
  Name = 
  5 active torsions:
  status: ('A' for Active; 'I' for Inactive)
    1  A    between atoms: C_2  and  C_3
    2  A    between atoms: N_6  and  C_11
    3  A    between atoms: N_6  and  C_28
    4  A    between atoms: N_16  and  C_20
    5  A    between atoms: C_20  and  C_25
                            x       y       z     vdW  Elec       q    Type
                         _______ _______ _______ _____ _____    ______ ____

>  <TORSDO>
F 5

$$$$
=
 OpenBabel11052422583D

 28 31  0  0  1  0  0  0  0  0999 V2000
  160.7890  209.6950  153.3240 N   0  0  0  0  0  0  0  0  0  0  0  0
  160.5840  210.4940  154.5070 C   0  0  0  0  0  0  0  0  0  0  0  0
  160.8110  210.0020  155.6460 O   0  0  0  0  0  0  0  0  0  0  0  0
  161.1940  207.4900  152.2340 N   0  0  0  0  0  0  0  0  0  0  0  0
  160.2930  207.6640  154.3900 O   0  0  0  0  0  0  0  0  0  0  0  0
  161.9460  209.5630  151.1560 C   0  0  0  0  0  2  0  0  0  0  0  0
  161.3830  208.1640  150.9490 C   0  0  0  0  0  2  0  0  0  0  0  0
  160.9900  210.3590  152.0340 C   0  0  0  0  0  2  0  0  0  0  0  0
  160.7400  208.2550  153.3690 C   0  0  0  0  0  0  0  0  0  0  0  0
  160.1880  211.9460  154.4130 C   0  0  1  0  0  3  0  0  0  0  0  0
  159.0050  212.1310  153.4790 C   0  0  0  0  0  2  0  0  0  0  0  0
  158.7940  212.2810  154.9690 C   0  0  1  0  0  3  0  0  0  0  0  0
  158.0720  211.1160  155.4640 N   0  0  0  0  0  2  0  0  0  0  0  0
  155.6910  210.7530  155.1440 C   0  0  0  0  0  1  0  0  0  0  0  0
  156.7500  211.5680  155.8630 C   0  0  0  0  0  2  0  0  0  0  0  0
  161.5210  205.4720  153.4800 C   0  0  0  0  0  2  0  0  0  0  0  0
  161.3170  206.0550  152.3000 C   0  0  0  0  0  0  0  0  0  0  0  0
  162.1080  206.3340  146.7990 N   0  0  0  0  0  1  0  0  0  0  0  0
  161.0450  203.5630  148.7640 C   0  0  0  0  0  0  0  0  0  0  0  0
  161.5430  205.7190  149.8890 C   0  0  0  0  0  3  0  0  0  0  0  0
  161.4560  203.9650  146.6960 N   0  0  0  0  0  0  0  0  0  0  0  0
  161.3970  204.8820  148.7010 C   0  0  0  0  0  0  0  0  0  0  0  0
  160.4550  203.8700  151.1640 C   0  0  0  0  0  2  0  0  0  0  0  0
  161.1040  203.0010  147.5390 N   0  0  0  0  0  0  0  0  0  0  0  0
  160.8600  202.8580  150.0680 C   0  0  0  0  0  2  0  0  0  0  0  0
  161.6490  203.7630  145.2710 C   0  0  0  0  0  1  0  0  0  0  0  0
  161.6470  205.1150  147.3740 C   0  0  0  0  0  0  0  0  0  0  0  0
  161.1700  205.2200  151.0820 C   0  0  0  0  0  0  0  0  0  0  0  0
  1  9  1  0  0  0  0
  1  2  1  0  0  0  0
  2  3  2  0  0  0  0
  4 17  1  0  0  0  0
  4  9  1  0  0  0  0
  6  8  1  0  0  0  0
  7  6  1  0  0  0  0
  7  4  1  0  0  0  0
  8  1  1  0  0  0  0
  9  5  2  0  0  0  0
 10  2  1  1  0  0  0
 10 12  1  0  0  0  0
 11 10  1  0  0  0  0
 11 12  1  0  0  0  0
 12 13  1  1  0  0  0
 13 15  1  0  0  0  0
 14 15  1  0  0  0  0
 17 16  2  0  0  0  0
 18 27  1  0  0  0  0
 19 25  1  0  0  0  0
 20 28  2  0  0  0  0
 21 27  1  0  0  0  0
 21 24  1  0  0  0  0
 22 19  1  0  0  0  0
 22 20  1  0  0  0  0
 24 19  2  0  0  0  0
 25 23  1  0  0  0  0
 26 21  1  0  0  0  0
 27 22  2  0  0  0  0
 28 23  1  0  0  0  0
 28 17  1  0  0  0  0
M  END
>  <MODEL>
3

>  <REMARK>
 VINA RESULT:      -7.9      1.476      2.169
  Name = 
  5 active torsions:
  status: ('A' for Active; 'I' for Inactive)
    1  A    between atoms: C_2  and  C_3
    2  A    between atoms: N_6  and  C_11
    3  A    between atoms: N_6  and  C_28
    4  A    between atoms: N_16  and  C_20
    5  A    between atoms: C_20  and  C_25
                            x       y       z     vdW  Elec       q    Type
                         _______ _______ _______ _____ _____    ______ ____

>  <TORSDO>
F 5

$$$$
=
 OpenBabel11052422583D

 28 31  0  0  1  0  0  0  0  0999 V2000
  160.9210  209.9860  153.6480 N   0  0  0  0  0  0  0  0  0  0  0  0
  160.4380  211.2480  154.1540 C   0  0  0  0  0  0  0  0  0  0  0  0
  159.8660  212.0610  153.3790 O   0  0  0  0  0  0  0  0  0  0  0  0
  161.4860  208.4840  151.7400 N   0  0  0  0  0  0  0  0  0  0  0  0
  161.3460  210.8110  151.4920 O   0  0  0  0  0  0  0  0  0  0  0  0
  160.8310  207.5410  153.9090 C   0  0  0  0  0  2  0  0  0  0  0  0
  161.7130  207.3840  152.6790 C   0  0  0  0  0  2  0  0  0  0  0  0
  161.1390  208.8750  154.5760 C   0  0  0  0  0  2  0  0  0  0  0  0
  161.2510  209.8100  152.2550 C   0  0  0  0  0  0  0  0  0  0  0  0
  160.5180  211.5840  155.6230 C   0  0  1  0  0  3  0  0  0  0  0  0
  159.5420  212.6900  155.9850 C   0  0  0  0  0  2  0  0  0  0  0  0
  159.2470  211.2760  156.4340 C   0  0  1  0  0  3  0  0  0  0  0  0
  158.1600  210.7390  155.6250 N   0  0  0  0  0  2  0  0  0  0  0  0
  156.2140  211.8060  154.6360 C   0  0  0  0  0  1  0  0  0  0  0  0
  156.9770  211.5300  155.9180 C   0  0  0  0  0  2  0  0  0  0  0  0
  161.9560  209.2730  149.5290 C   0  0  0  0  0  2  0  0  0  0  0  0
  161.6560  208.2500  150.3290 C   0  0  0  0  0  0  0  0  0  0  0  0
  160.8310  202.9960  151.9660 N   0  0  0  0  0  1  0  0  0  0  0  0
  161.1800  204.2770  148.6630 C   0  0  0  0  0  0  0  0  0  0  0  0
  161.2910  205.8470  150.5830 C   0  0  0  0  0  3  0  0  0  0  0  0
  160.8380  202.3700  149.5880 N   0  0  0  0  0  0  0  0  0  0  0  0
  161.1840  204.5070  150.0100 C   0  0  0  0  0  0  0  0  0  0  0  0
  161.8880  206.6350  148.2920 C   0  0  0  0  0  2  0  0  0  0  0  0
  160.9470  202.9730  148.4090 N   0  0  0  0  0  0  0  0  0  0  0  0
  161.2060  205.3940  147.6720 C   0  0  0  0  0  2  0  0  0  0  0  0
  160.5640  200.9530  149.7500 C   0  0  0  0  0  1  0  0  0  0  0  0
  160.9710  203.2770  150.5760 C   0  0  0  0  0  0  0  0  0  0  0  0
  161.5490  206.8820  149.7630 C   0  0  0  0  0  0  0  0  0  0  0  0
  1  2  1  0  0  0  0
  1  8  1  0  0  0  0
  3  2  2  0  0  0  0
  4  9  1  0  0  0  0
  4  7  1  0  0  0  0
  5  9  2  0  0  0  0
  6  8  1  0  0  0  0
  7  6  1  0  0  0  0
  9  1  1  0  0  0  0
 10  2  1  6  0  0  0
 10 11  1  0  0  0  0
 10 12  1  0  0  0  0
 11 12  1  0  0  0  0
 12 13  1  6  0  0  0
 13 15  1  0  0  0  0
 14 15  1  0  0  0  0
 16 17  2  0  0  0  0
 17  4  1  0  0  0  0
 19 22  1  0  0  0  0
 21 26  1  0  0  0  0
 21 27  1  0  0  0  0
 22 27  2  0  0  0  0
 22 20  1  0  0  0  0
 23 28  1  0  0  0  0
 24 19  2  0  0  0  0
 24 21  1  0  0  0  0
 25 23  1  0  0  0  0
 25 19  1  0  0  0  0
 27 18  1  0  0  0  0
 28 17  1  0  0  0  0
 28 20  2  0  0  0  0
M  END
>  <MODEL>
4

>  <REMARK>
 VINA RESULT:      -7.8      1.168      1.999
  Name = 
  5 active torsions:
  status: ('A' for Active; 'I' for Inactive)
    1  A    between atoms: C_2  and  C_3
    2  A    between atoms: N_6  and  C_11
    3  A    between atoms: N_6  and  C_28
    4  A    between atoms: N_16  and  C_20
    5  A    between atoms: C_20  and  C_25
                            x       y       z     vdW  Elec       q    Type
                         _______ _______ _______ _____ _____    ______ ____

>  <TORSDO>
F 5

$$$$
=
 OpenBabel11052422583D

 28 31  0  0  1  0  0  0  0  0999 V2000
  161.1080  209.4240  153.5170 N   0  0  0  0  0  0  0  0  0  0  0  0
  160.9880  209.9840  154.8400 C   0  0  0  0  0  0  0  0  0  0  0  0
  161.1990  209.2610  155.8510 O   0  0  0  0  0  0  0  0  0  0  0  0
  161.3210  207.4560  152.0010 N   0  0  0  0  0  0  0  0  0  0  0  0
  160.4770  207.2630  154.1790 O   0  0  0  0  0  0  0  0  0  0  0  0
  162.2090  209.6430  151.3270 C   0  0  0  0  0  2  0  0  0  0  0  0
  161.5360  208.3570  150.8680 C   0  0  0  0  0  2  0  0  0  0  0  0
  161.3350  210.3150  152.3770 C   0  0  0  0  0  2  0  0  0  0  0  0
  160.9490  208.0110  153.2790 C   0  0  0  0  0  0  0  0  0  0  0  0
  160.7040  211.4510  155.0470 C   0  0  1  0  0  3  0  0  0  0  0  0
  159.6810  211.9570  154.0450 C   0  0  0  0  0  2  0  0  0  0  0  0
  159.2680  211.7830  155.4890 C   0  0  1  0  0  3  0  0  0  0  0  0
  158.4100  210.6100  155.5980 N   0  0  0  0  0  2  0  0  0  0  0  0
  156.7630  212.0920  156.5940 C   0  0  0  0  0  1  0  0  0  0  0  0
  157.0370  211.0730  155.5040 C   0  0  0  0  0  2  0  0  0  0  0  0
  161.2650  205.2090  152.8240 C   0  0  0  0  0  2  0  0  0  0  0  0
  161.3340  206.0330  151.7790 C   0  0  0  0  0  0  0  0  0  0  0  0
  160.7470  201.1840  149.1130 N   0  0  0  0  0  1  0  0  0  0  0  0
  161.2860  204.4290  147.7520 C   0  0  0  0  0  0  0  0  0  0  0  0
  161.1200  204.1660  150.2160 C   0  0  0  0  0  3  0  0  0  0  0  0
  161.0020  202.4350  147.0110 N   0  0  0  0  0  0  0  0  0  0  0  0
  161.1580  203.6330  148.8560 C   0  0  0  0  0  0  0  0  0  0  0  0
  161.8530  206.3430  149.2410 C   0  0  0  0  0  2  0  0  0  0  0  0
  161.1690  203.6960  146.6260 N   0  0  0  0  0  0  0  0  0  0  0  0
  161.3170  205.9190  147.8540 C   0  0  0  0  0  2  0  0  0  0  0  0
  160.8170  201.3260  146.0910 C   0  0  0  0  0  1  0  0  0  0  0  0
  160.9850  202.3680  148.3570 C   0  0  0  0  0  0  0  0  0  0  0  0
  161.3730  205.4740  150.4050 C   0  0  0  0  0  0  0  0  0  0  0  0
  1  2  1  0  0  0  0
  2  3  2  0  0  0  0
  4  9  1  0  0  0  0
  6  8  1  0  0  0  0
  7  6  1  0  0  0  0
  7  4  1  0  0  0  0
  8  1  1  0  0  0  0
  9  1  1  0  0  0  0
  9  5  2  0  0  0  0
 10  2  1  6  0  0  0
 10 12  1  0  0  0  0
 11 10  1  0  0  0  0
 11 12  1  0  0  0  0
 12 13  1  6  0  0  0
 15 13  1  0  0  0  0
 15 14  1  0  0  0  0
 17  4  1  0  0  0  0
 17 16  2  0  0  0  0
 19 25  1  0  0  0  0
 19 22  1  0  0  0  0
 20 28  2  0  0  0  0
 21 27  1  0  0  0  0
 22 20  1  0  0  0  0
 23 28  1  0  0  0  0
 24 21  1  0  0  0  0
 24 19  2  0  0  0  0
 25 23  1  0  0  0  0
 26 21  1  0  0  0  0
 27 22  2  0  0  0  0
 27 18  1  0  0  0  0
 28 17  1  0  0  0  0
M  END
>  <MODEL>
5

>  <REMARK>
 VINA RESULT:      -7.8      1.400      2.370
  Name = 
  5 active torsions:
  status: ('A' for Active; 'I' for Inactive)
    1  A    between atoms: C_2  and  C_3
    2  A    between atoms: N_6  and  C_11
    3  A    between atoms: N_6  and  C_28
    4  A    between atoms: N_16  and  C_20
    5  A    between atoms: C_20  and  C_25
                            x       y       z     vdW  Elec       q    Type
                         _______ _______ _______ _____ _____    ______ ____

>  <TORSDO>
F 5

$$$$
=
 OpenBabel11052422583D

 28 31  0  0  1  0  0  0  0  0999 V2000
  161.6870  207.0920  152.1030 N   0  0  0  0  0  0  0  0  0  0  0  0
  161.3030  205.7150  152.2960 C   0  0  0  0  0  0  0  0  0  0  0  0
  160.3510  205.4300  153.0710 O   0  0  0  0  0  0  0  0  0  0  0  0
  161.5790  209.4920  152.7700 N   0  0  0  0  0  0  0  0  0  0  0  0
  161.0350  207.7630  154.2560 O   0  0  0  0  0  0  0  0  0  0  0  0
  162.0480  208.8720  150.4430 C   0  0  0  0  0  2  0  0  0  0  0  0
  162.3310  209.8560  151.5680 C   0  0  0  0  0  2  0  0  0  0  0  0
  162.4290  207.4700  150.8980 C   0  0  0  0  0  2  0  0  0  0  0  0
  161.4110  208.0980  153.0990 C   0  0  0  0  0  0  0  0  0  0  0  0
  161.9570  204.6030  151.5140 C   0  0  1  0  0  3  0  0  0  0  0  0
  161.0030  203.4370  151.3200 C   0  0  0  0  0  2  0  0  0  0  0  0
  161.3340  204.3190  150.1360 C   0  0  1  0  0  3  0  0  0  0  0  0
  160.1820  205.1610  149.8360 N   0  0  0  0  0  2  0  0  0  0  0  0
  161.5480  205.0850  147.8290 C   0  0  0  0  0  1  0  0  0  0  0  0
  160.4560  205.8280  148.5750 C   0  0  0  0  0  2  0  0  0  0  0  0
  161.8200  210.7030  154.8210 C   0  0  0  0  0  2  0  0  0  0  0  0
  161.1590  210.5300  153.6770 C   0  0  0  0  0  0  0  0  0  0  0  0
  156.0760  211.9090  155.4710 N   0  0  0  0  0  1  0  0  0  0  0  0
  157.9420  213.2910  152.7730 C   0  0  0  0  0  0  0  0  0  0  0  0
  158.9440  211.4620  154.1210 C   0  0  0  0  0  3  0  0  0  0  0  0
  156.0330  213.6140  153.6980 N   0  0  0  0  0  0  0  0  0  0  0  0
  157.8480  212.3630  153.7720 C   0  0  0  0  0  0  0  0  0  0  0  0
  160.0520  212.2080  152.0130 C   0  0  0  0  0  2  0  0  0  0  0  0
  156.8400  214.0670  152.7450 N   0  0  0  0  0  0  0  0  0  0  0  0
  159.2100  213.5040  152.0120 C   0  0  0  0  0  2  0  0  0  0  0  0
  154.7390  214.1970  154.0080 C   0  0  0  0  0  1  0  0  0  0  0  0
  156.6210  212.5860  154.3410 C   0  0  0  0  0  0  0  0  0  0  0  0
  160.0350  211.4350  153.3340 C   0  0  0  0  0  0  0  0  0  0  0  0
  1  2  1  0  0  0  0
  1  9  1  0  0  0  0
  2  3  2  0  0  0  0
  4  9  1  0  0  0  0
  4 17  1  0  0  0  0
  6  8  1  0  0  0  0
  6  7  1  0  0  0  0
  7  4  1  0  0  0  0
  8  1  1  0  0  0  0
  9  5  2  0  0  0  0
 10  2  1  1  0  0  0
 11 10  1  0  0  0  0
 12 13  1  1  0  0  0
 12 11  1  0  0  0  0
 12 10  1  0  0  0  0
 14 15  1  0  0  0  0
 15 13  1  0  0  0  0
 17 16  2  0  0  0  0
 19 22  1  0  0  0  0
 21 26  1  0  0  0  0
 21 27  1  0  0  0  0
 22 20  1  0  0  0  0
 22 27  2  0  0  0  0
 23 28  1  0  0  0  0
 24 19  2  0  0  0  0
 24 21  1  0  0  0  0
 25 23  1  0  0  0  0
 25 19  1  0  0  0  0
 27 18  1  0  0  0  0
 28 17  1  0  0  0  0
 28 20  2  0  0  0  0
M  END
>  <MODEL>
6

>  <REMARK>
 VINA RESULT:      -7.7      2.507      8.892
  Name = 
  5 active torsions:
  status: ('A' for Active; 'I' for Inactive)
    1  A    between atoms: C_2  and  C_3
    2  A    between atoms: N_6  and  C_11
    3  A    between atoms: N_6  and  C_28
    4  A    between atoms: N_16  and  C_20
    5  A    between atoms: C_20  and  C_25
                            x       y       z     vdW  Elec       q    Type
                         _______ _______ _______ _____ _____    ______ ____

>  <TORSDO>
F 5

$$$$
=
 OpenBabel11052422583D

 28 31  0  0  1  0  0  0  0  0999 V2000
  161.1230  212.0030  150.3140 N   0  0  0  0  0  0  0  0  0  0  0  0
  161.7360  212.1910  149.0220 C   0  0  0  0  0  0  0  0  0  0  0  0
  162.3140  211.2260  148.4520 O   0  0  0  0  0  0  0  0  0  0  0  0
  160.7660  210.6410  152.3710 N   0  0  0  0  0  0  0  0  0  0  0  0
  162.6310  210.3340  150.9850 O   0  0  0  0  0  0  0  0  0  0  0  0
  159.0400  212.2090  151.6070 C   0  0  0  0  0  2  0  0  0  0  0  0
  159.7300  211.5790  152.8070 C   0  0  0  0  0  2  0  0  0  0  0  0
  160.0770  212.9270  150.7560 C   0  0  0  0  0  2  0  0  0  0  0  0
  161.5580  210.9590  151.2090 C   0  0  0  0  0  0  0  0  0  0  0  0
  161.6220  213.5020  148.2850 C   0  0  1  0  0  3  0  0  0  0  0  0
  161.9550  213.3330  146.8130 C   0  0  0  0  0  2  0  0  0  0  0  0
  160.5150  213.5580  147.2180 C   0  0  1  0  0  3  0  0  0  0  0  0
  159.7830  212.3060  147.0770 N   0  0  0  0  0  2  0  0  0  0  0  0
  157.3930  212.6520  147.3420 C   0  0  0  0  0  1  0  0  0  0  0  0
  158.5530  212.6070  146.3650 C   0  0  0  0  0  2  0  0  0  0  0  0
  161.3410  209.6870  154.4910 C   0  0  0  0  0  2  0  0  0  0  0  0
  161.0750  209.5020  153.1980 C   0  0  0  0  0  0  0  0  0  0  0  0
  160.8930  206.8700  148.2990 N   0  0  0  0  0  1  0  0  0  0  0  0
  161.1810  205.4880  151.5670 C   0  0  0  0  0  0  0  0  0  0  0  0
  161.0460  207.9530  151.3080 C   0  0  0  0  0  3  0  0  0  0  0  0
  161.1130  204.7630  149.5480 N   0  0  0  0  0  0  0  0  0  0  0  0
  161.0310  206.5930  150.7760 C   0  0  0  0  0  0  0  0  0  0  0  0
  160.8840  206.9280  153.5770 C   0  0  0  0  0  2  0  0  0  0  0  0
  161.2520  204.3740  150.8100 N   0  0  0  0  0  0  0  0  0  0  0  0
  161.4530  205.5980  153.0310 C   0  0  0  0  0  2  0  0  0  0  0  0
  161.1510  203.8580  148.4130 C   0  0  0  0  0  1  0  0  0  0  0  0
  160.9830  206.1040  149.4970 C   0  0  0  0  0  0  0  0  0  0  0  0
  161.0550  208.1270  152.6420 C   0  0  0  0  0  0  0  0  0  0  0  0
  1  8  1  0  0  0  0
  1  9  1  0  0  0  0
  2  1  1  0  0  0  0
  3  2  2  0  0  0  0
  4  7  1  0  0  0  0
  4 17  1  0  0  0  0
  5  9  2  0  0  0  0
  6  7  1  0  0  0  0
  8  6  1  0  0  0  0
  9  4  1  0  0  0  0
 10  2  1  1  0  0  0
 11 12  1  0  0  0  0
 11 10  1  0  0  0  0
 12 13  1  1  0  0  0
 12 10  1  0  0  0  0
 15 13  1  0  0  0  0
 15 14  1  0  0  0  0
 17 16  2  0  0  0  0
 18 27  1  0  0  0  0
 19 25  1  0  0  0  0
 20 28  2  0  0  0  0
 21 24  1  0  0  0  0
 22 20  1  0  0  0  0
 22 19  1  0  0  0  0
 24 19  2  0  0  0  0
 25 23  1  0  0  0  0
 26 21  1  0  0  0  0
 27 21  1  0  0  0  0
 27 22  2  0  0  0  0
 28 17  1  0  0  0  0
 28 23  1  0  0  0  0
M  END
>  <MODEL>
7

>  <REMARK>
 VINA RESULT:      -7.7      3.685      5.440
  Name = 
  5 active torsions:
  status: ('A' for Active; 'I' for Inactive)
    1  A    between atoms: C_2  and  C_3
    2  A    between atoms: N_6  and  C_11
    3  A    between atoms: N_6  and  C_28
    4  A    between atoms: N_16  and  C_20
    5  A    between atoms: C_20  and  C_25
                            x       y       z     vdW  Elec       q    Type
                         _______ _______ _______ _____ _____    ______ ____

>  <TORSDO>
F 5

$$$$
=
 OpenBabel11052422583D

 28 31  0  0  1  0  0  0  0  0999 V2000
  161.7610  209.8940  150.5880 N   0  0  0  0  0  0  0  0  0  0  0  0
  162.1980  210.4550  149.3330 C   0  0  0  0  0  0  0  0  0  0  0  0
  162.3310  209.7130  148.3230 O   0  0  0  0  0  0  0  0  0  0  0  0
  161.2900  207.9220  152.0390 N   0  0  0  0  0  0  0  0  0  0  0  0
  162.7160  207.7880  150.1830 O   0  0  0  0  0  0  0  0  0  0  0  0
  160.0840  210.0310  152.3830 C   0  0  0  0  0  2  0  0  0  0  0  0
  160.7020  208.8080  153.0450 C   0  0  0  0  0  2  0  0  0  0  0  0
  161.1590  210.7680  151.5960 C   0  0  0  0  0  2  0  0  0  0  0  0
  161.9570  208.4990  150.8980 C   0  0  0  0  0  0  0  0  0  0  0  0
  162.4130  211.9400  149.1720 C   0  0  1  0  0  3  0  0  0  0  0  0
  162.8860  212.2750  147.7690 C   0  0  0  0  0  2  0  0  0  0  0  0
  161.4730  212.6320  148.1710 C   0  0  1  0  0  3  0  0  0  0  0  0
  160.5480  211.7150  147.5150 N   0  0  0  0  0  2  0  0  0  0  0  0
  159.7130  212.2100  145.2880 C   0  0  0  0  0  1  0  0  0  0  0  0
  159.6010  212.5230  146.7680 C   0  0  0  0  0  2  0  0  0  0  0  0
  161.4260  206.0640  153.5420 C   0  0  0  0  0  2  0  0  0  0  0  0
  161.3280  206.5030  152.2880 C   0  0  0  0  0  0  0  0  0  0  0  0
  161.3650  206.3360  146.7260 N   0  0  0  0  0  1  0  0  0  0  0  0
  161.1490  203.6390  149.0400 C   0  0  0  0  0  0  0  0  0  0  0  0
  161.3220  205.9600  149.9050 C   0  0  0  0  0  3  0  0  0  0  0  0
  161.2120  203.8880  146.9090 N   0  0  0  0  0  0  0  0  0  0  0  0
  161.2090  204.9870  148.8210 C   0  0  0  0  0  0  0  0  0  0  0  0
  160.8070  204.0820  151.4660 C   0  0  0  0  0  2  0  0  0  0  0  0
  161.1730  202.9710  147.8680 N   0  0  0  0  0  0  0  0  0  0  0  0
  161.2750  203.0560  150.4090 C   0  0  0  0  0  2  0  0  0  0  0  0
  161.2670  203.5760  145.4920 C   0  0  0  0  0  1  0  0  0  0  0  0
  161.2420  205.1190  147.4570 C   0  0  0  0  0  0  0  0  0  0  0  0
  161.2100  205.5290  151.1750 C   0  0  0  0  0  0  0  0  0  0  0  0
  1  9  1  0  0  0  0
  1  8  1  0  0  0  0
  2  1  1  0  0  0  0
  3  2  2  0  0  0  0
  4 17  1  0  0  0  0
  4  7  1  0  0  0  0
  5  9  2  0  0  0  0
  6  7  1  0  0  0  0
  8  6  1  0  0  0  0
  9  4  1  0  0  0  0
 10  2  1  6  0  0  0
 11 12  1  0  0  0  0
 11 10  1  0  0  0  0
 12 13  1  6  0  0  0
 12 10  1  0  0  0  0
 14 15  1  0  0  0  0
 15 13  1  0  0  0  0
 17 16  2  0  0  0  0
 18 27  1  0  0  0  0
 19 25  1  0  0  0  0
 20 28  2  0  0  0  0
 21 27  1  0  0  0  0
 21 24  1  0  0  0  0
 22 19  1  0  0  0  0
 22 20  1  0  0  0  0
 24 19  2  0  0  0  0
 25 23  1  0  0  0  0
 26 21  1  0  0  0  0
 27 22  2  0  0  0  0
 28 23  1  0  0  0  0
 28 17  1  0  0  0  0
M  END
>  <MODEL>
8

>  <REMARK>
 VINA RESULT:      -7.6      2.895      4.705
  Name = 
  5 active torsions:
  status: ('A' for Active; 'I' for Inactive)
    1  A    between atoms: C_2  and  C_3
    2  A    between atoms: N_6  and  C_11
    3  A    between atoms: N_6  and  C_28
    4  A    between atoms: N_16  and  C_20
    5  A    between atoms: C_20  and  C_25
                            x       y       z     vdW  Elec       q    Type
                         _______ _______ _______ _____ _____    ______ ____

>  <TORSDO>
F 5

$$$$
=
 OpenBabel11052422583D

 28 31  0  0  1  0  0  0  0  0999 V2000
  161.4310  206.9920  152.3740 N   0  0  0  0  0  0  0  0  0  0  0  0
  161.9850  206.6290  151.0930 C   0  0  0  0  0  0  0  0  0  0  0  0
  162.7000  207.4520  150.4600 O   0  0  0  0  0  0  0  0  0  0  0  0
  160.8980  208.7060  154.1040 N   0  0  0  0  0  0  0  0  0  0  0  0
  161.2840  209.2780  151.8640 O   0  0  0  0  0  0  0  0  0  0  0  0
  161.2600  206.3660  154.7480 C   0  0  0  0  0  2  0  0  0  0  0  0
  160.4830  207.6450  155.0220 C   0  0  0  0  0  2  0  0  0  0  0  0
  161.0230  205.9380  153.3060 C   0  0  0  0  0  2  0  0  0  0  0  0
  161.2130  208.3700  152.7370 C   0  0  0  0  0  0  0  0  0  0  0  0
  161.8050  205.2420  150.5270 C   0  0  1  0  0  3  0  0  0  0  0  0
  160.3390  204.8470  150.5030 C   0  0  0  0  0  2  0  0  0  0  0  0
  161.0320  205.1730  149.1990 C   0  0  1  0  0  3  0  0  0  0  0  0
  160.5700  206.4740  148.7300 N   0  0  0  0  0  2  0  0  0  0  0  0
  162.1490  205.8570  146.9900 C   0  0  0  0  0  1  0  0  0  0  0  0
  160.8250  206.5290  147.3010 C   0  0  0  0  0  2  0  0  0  0  0  0
  161.9590  210.7050  154.8850 C   0  0  0  0  0  2  0  0  0  0  0  0
  160.8350  210.0780  154.5410 C   0  0  0  0  0  0  0  0  0  0  0  0
  158.0000  213.8480  151.5900 N   0  0  0  0  0  1  0  0  0  0  0  0
  157.0030  212.1030  154.5280 C   0  0  0  0  0  0  0  0  0  0  0  0
  159.2450  211.6540  153.5610 C   0  0  0  0  0  3  0  0  0  0  0  0
  156.1550  213.5490  153.1880 N   0  0  0  0  0  0  0  0  0  0  0  0
  157.9700  212.3660  153.5990 C   0  0  0  0  0  0  0  0  0  0  0  0
  158.6480  210.7350  155.8020 C   0  0  0  0  0  2  0  0  0  0  0  0
  155.8870  212.8120  154.2600 N   0  0  0  0  0  0  0  0  0  0  0  0
  157.1500  211.0040  155.5290 C   0  0  0  0  0  2  0  0  0  0  0  0
  155.1980  214.4460  152.5630 C   0  0  0  0  0  1  0  0  0  0  0  0
  157.4080  213.2940  152.7620 C   0  0  0  0  0  0  0  0  0  0  0  0
  159.5470  210.8130  154.5670 C   0  0  0  0  0  0  0  0  0  0  0  0
  1  9  1  0  0  0  0
  1  8  1  0  0  0  0
  2  1  1  0  0  0  0
  3  2  2  0  0  0  0
  4 17  1  0  0  0  0
  4  7  1  0  0  0  0
  5  9  2  0  0  0  0
  6  7  1  0  0  0  0
  8  6  1  0  0  0  0
  9  4  1  0  0  0  0
 10  2  1  1  0  0  0
 11 10  1  0  0  0  0
 12 13  1  1  0  0  0
 12 11  1  0  0  0  0
 12 10  1  0  0  0  0
 14 15  1  0  0  0  0
 15 13  1  0  0  0  0
 17 28  1  0  0  0  0
 17 16  2  0  0  0  0
 18 27  1  0  0  0  0
 19 25  1  0  0  0  0
 20 22  1  0  0  0  0
 20 28  2  0  0  0  0
 21 24  1  0  0  0  0
 22 19  1  0  0  0  0
 24 19  2  0  0  0  0
 25 23  1  0  0  0  0
 26 21  1  0  0  0  0
 27 21  1  0  0  0  0
 27 22  2  0  0  0  0
 28 23  1  0  0  0  0
M  END
>  <MODEL>
9

>  <REMARK>
 VINA RESULT:      -7.6      2.277      8.615
  Name = 
  5 active torsions:
  status: ('A' for Active; 'I' for Inactive)
    1  A    between atoms: C_2  and  C_3
    2  A    between atoms: N_6  and  C_11
    3  A    between atoms: N_6  and  C_28
    4  A    between atoms: N_16  and  C_20
    5  A    between atoms: C_20  and  C_25
                            x       y       z     vdW  Elec       q    Type
                         _______ _______ _______ _____ _____    ______ ____

>  <TORSDO>
F 5

$$$$
