=
 OpenBabel11052423193D

 27 30  0  0  1  0  0  0  0  0999 V2000
  160.6320  210.0840  152.4900 N   0  0  0  0  0  2  0  0  0  0  0  0
  160.1330  211.5360  154.4680 C   0  0  2  0  0  3  0  0  0  0  0  0
  159.8580  209.2130  155.2390 C   0  0  0  0  0  2  0  0  0  0  0  0
  161.2800  206.0730  153.6830 C   0  0  0  0  0  3  0  0  0  0  0  0
  161.6740  206.5150  152.4200 C   0  0  0  0  0  0  0  0  0  0  0  0
  159.6750  211.0160  153.0760 C   0  0  1  0  0  3  0  0  0  0  0  0
  160.8330  208.7360  152.9240 C   0  0  0  0  0  0  0  0  0  0  0  0
  160.5820  210.4900  155.4010 N   0  0  1  0  0  0  0  0  0  0  0  0
  160.6770  206.9610  154.5760 C   0  0  0  0  0  3  0  0  0  0  0  0
  162.2680  205.6570  151.5560 F   0  0  0  0  0  0  0  0  0  0  0  0
  161.4530  207.8420  152.0440 C   0  0  0  0  0  3  0  0  0  0  0  0
  160.4560  208.2940  154.2110 C   0  0  0  0  0  0  0  0  0  0  0  0
  160.1990  213.6030  150.3370 C   0  0  0  0  0  3  0  0  0  0  0  0
  159.4320  212.1260  152.1020 C   0  0  0  0  0  0  0  0  0  0  0  0
  158.1550  212.6950  152.0170 C   0  0  0  0  0  3  0  0  0  0  0  0
  157.9050  213.7200  151.1000 C   0  0  0  0  0  3  0  0  0  0  0  0
  158.9260  214.1760  150.2620 C   0  0  0  0  0  3  0  0  0  0  0  0
  160.4520  212.5780  151.2520 C   0  0  0  0  0  3  0  0  0  0  0  0
  162.6630  211.0780  156.5280 C   0  0  0  0  0  2  0  0  0  0  0  0
  162.5240  209.5730  156.5590 C   0  0  0  0  0  2  0  0  0  0  0  0
  162.0400  210.3520  155.3490 C   0  0  0  0  0  3  0  0  0  0  0  0
  159.0950  212.4160  155.1880 C   0  0  2  0  0  3  0  0  0  0  0  0
  159.7060  213.3820  156.1970 C   0  0  0  0  0  1  0  0  0  0  0  0
  157.8280  211.4540  156.9840 O   0  0  0  0  0  0  0  0  0  0  0  0
  157.9280  211.6410  155.7420 C   0  0  0  0  0  0  0  0  0  0  0  0
  155.6740  210.7040  155.3780 C   0  0  0  0  0  1  0  0  0  0  0  0
  156.9490  211.1060  154.9020 O   0  0  0  0  0  0  0  0  0  0  0  0
  1  7  1  0  0  0  0
  1  6  1  0  0  0  0
  2 22  1  1  0  0  0
  2  8  1  0  0  0  0
  3  8  1  0  0  0  0
  4  9  1  0  0  0  0
  5  4  2  0  0  0  0
  6 14  1  6  0  0  0
  6  2  1  0  0  0  0
  7 12  1  0  0  0  0
  8 21  1  6  0  0  0
 10  5  1  0  0  0  0
 11  5  1  0  0  0  0
 11  7  2  0  0  0  0
 12  9  2  0  0  0  0
 12  3  1  0  0  0  0
 13 18  1  0  0  0  0
 15 14  1  0  0  0  0
 16 15  2  0  0  0  0
 17 13  2  0  0  0  0
 17 16  1  0  0  0  0
 18 14  2  0  0  0  0
 19 20  1  0  0  0  0
 21 19  1  0  0  0  0
 21 20  1  0  0  0  0
 22 25  1  0  0  0  0
 22 23  1  1  0  0  0
 25 24  2  0  0  0  0
 27 26  1  0  0  0  0
 27 25  1  0  0  0  0
M  END
>  <MODEL>
1

>  <REMARK>
 VINA RESULT:      -5.6      0.000      0.000
  Name = 
  5 active torsions:
  status: ('A' for Active; 'I' for Inactive)
    1  A    between atoms: C_2  and  C_6
    2  A    between atoms: C_6  and  C_17
    3  A    between atoms: C_9  and  C_15
    4  A    between atoms: C_14  and  N_19
    5  A    between atoms: O_16  and  C_17
                            x       y       z     vdW  Elec       q    Type
                         _______ _______ _______ _____ _____    ______ ____

>  <TORSDO>
F 5

$$$$
=
 OpenBabel11052423193D

 27 30  0  0  1  0  0  0  0  0999 V2000
  158.5260  209.6540  138.8800 N   0  0  0  0  0  2  0  0  0  0  0  0
  160.4280  211.2690  139.1060 C   0  0  2  0  0  3  0  0  0  0  0  0
  158.5290  212.5670  138.2250 C   0  0  0  0  0  2  0  0  0  0  0  0
  154.8520  211.7030  138.4000 C   0  0  0  0  0  3  0  0  0  0  0  0
  154.8770  210.3520  138.7490 C   0  0  0  0  0  0  0  0  0  0  0  0
  159.8190  210.0600  138.3390 C   0  0  1  0  0  3  0  0  0  0  0  0
  157.3040  210.3750  138.7060 C   0  0  0  0  0  0  0  0  0  0  0  0
  159.5010  212.3920  139.3230 N   0  0  1  0  0  0  0  0  0  0  0  0
  156.0490  212.3980  138.2180 C   0  0  0  0  0  3  0  0  0  0  0  0
  153.7160  209.6780  138.9360 F   0  0  0  0  0  0  0  0  0  0  0  0
  156.0990  209.6930  138.9050 C   0  0  0  0  0  3  0  0  0  0  0  0
  157.2780  211.7480  138.3760 C   0  0  0  0  0  0  0  0  0  0  0  0
  161.9870  207.1570  139.4990 C   0  0  0  0  0  3  0  0  0  0  0  0
  160.7280  208.8710  138.3310 C   0  0  0  0  0  0  0  0  0  0  0  0
  161.1290  208.3240  137.1060 C   0  0  0  0  0  3  0  0  0  0  0  0
  161.9630  207.2020  137.0790 C   0  0  0  0  0  3  0  0  0  0  0  0
  162.3940  206.6200  138.2740 C   0  0  0  0  0  3  0  0  0  0  0  0
  161.1530  208.2780  139.5290 C   0  0  0  0  0  3  0  0  0  0  0  0
  159.7220  213.0570  141.6590 C   0  0  0  0  0  2  0  0  0  0  0  0
  158.4540  213.6740  141.1150 C   0  0  0  0  0  2  0  0  0  0  0  0
  158.8840  212.2950  140.6480 C   0  0  0  0  0  3  0  0  0  0  0  0
  161.7260  211.8210  138.4900 C   0  0  2  0  0  3  0  0  0  0  0  0
  161.8940  211.4830  137.0120 C   0  0  0  0  0  1  0  0  0  0  0  0
  162.8570  210.8750  140.3830 O   0  0  0  0  0  0  0  0  0  0  0  0
  162.9550  211.5240  139.3080 C   0  0  0  0  0  0  0  0  0  0  0  0
  164.5650  213.3450  138.8740 C   0  0  0  0  0  1  0  0  0  0  0  0
  164.2170  211.9690  138.9070 O   0  0  0  0  0  0  0  0  0  0  0  0
  2 22  1  6  0  0  0
  2  8  1  0  0  0  0
  3 12  1  0  0  0  0
  3  8  1  0  0  0  0
  4  5  1  0  0  0  0
  5 11  2  0  0  0  0
  5 10  1  0  0  0  0
  6 14  1  1  0  0  0
  6  1  1  0  0  0  0
  6  2  1  0  0  0  0
  7  1  1  0  0  0  0
  7 11  1  0  0  0  0
  8 21  1  1  0  0  0
  9 12  1  0  0  0  0
  9  4  2  0  0  0  0
 12  7  2  0  0  0  0
 13 18  1  0  0  0  0
 14 18  2  0  0  0  0
 15 14  1  0  0  0  0
 16 15  2  0  0  0  0
 16 17  1  0  0  0  0
 17 13  2  0  0  0  0
 20 19  1  0  0  0  0
 21 20  1  0  0  0  0
 21 19  1  0  0  0  0
 22 23  1  6  0  0  0
 22 25  1  0  0  0  0
 25 24  2  0  0  0  0
 26 27  1  0  0  0  0
 27 25  1  0  0  0  0
M  END
>  <MODEL>
2

>  <REMARK>
 VINA RESULT:      -4.5     13.347     16.018
  Name = 
  5 active torsions:
  status: ('A' for Active; 'I' for Inactive)
    1  A    between atoms: C_2  and  C_6
    2  A    between atoms: C_6  and  C_17
    3  A    between atoms: C_9  and  C_15
    4  A    between atoms: C_14  and  N_19
    5  A    between atoms: O_16  and  C_17
                            x       y       z     vdW  Elec       q    Type
                         _______ _______ _______ _____ _____    ______ ____

>  <TORSDO>
F 5

$$$$
=
 OpenBabel11052423193D

 27 30  0  0  1  0  0  0  0  0999 V2000
  159.3600  210.6670  152.4460 N   0  0  0  0  0  2  0  0  0  0  0  0
  160.1550  210.4310  154.8100 C   0  0  2  0  0  3  0  0  0  0  0  0
  159.7370  212.8340  154.4650 C   0  0  0  0  0  2  0  0  0  0  0  0
  157.5690  214.4530  151.8230 C   0  0  0  0  0  3  0  0  0  0  0  0
  157.3720  213.4110  150.9170 C   0  0  0  0  0  0  0  0  0  0  0  0
  160.5120  210.3860  153.2970 C   0  0  1  0  0  3  0  0  0  0  0  0
  158.7730  211.9590  152.2650 C   0  0  0  0  0  0  0  0  0  0  0  0
  159.3900  211.6180  155.2280 N   0  0  1  0  0  0  0  0  0  0  0  0
  158.3550  214.2490  152.9600 C   0  0  0  0  0  3  0  0  0  0  0  0
  156.6020  213.6050  149.8190 F   0  0  0  0  0  0  0  0  0  0  0  0
  157.9690  212.1690  151.1400 C   0  0  0  0  0  3  0  0  0  0  0  0
  158.9540  213.0070  153.1940 C   0  0  0  0  0  0  0  0  0  0  0  0
  161.3440  206.6750  153.1820 C   0  0  0  0  0  3  0  0  0  0  0  0
  161.0970  209.0700  152.8870 C   0  0  0  0  0  0  0  0  0  0  0  0
  161.9260  209.0120  151.7600 C   0  0  0  0  0  3  0  0  0  0  0  0
  162.4670  207.7900  151.3510 C   0  0  0  0  0  3  0  0  0  0  0  0
  162.1790  206.6220  152.0620 C   0  0  0  0  0  3  0  0  0  0  0  0
  160.8000  207.8950  153.5930 C   0  0  0  0  0  3  0  0  0  0  0  0
  157.4870  211.1420  156.6780 C   0  0  0  0  0  2  0  0  0  0  0  0
  157.2090  212.4380  155.9510 C   0  0  0  0  0  2  0  0  0  0  0  0
  157.9560  211.3210  155.2450 C   0  0  0  0  0  3  0  0  0  0  0  0
  161.3630  210.2750  155.7510 C   0  0  2  0  0  3  0  0  0  0  0  0
  162.7050  210.5120  155.0670 C   0  0  0  0  0  1  0  0  0  0  0  0
  162.4030  208.5080  156.9960 O   0  0  0  0  0  0  0  0  0  0  0  0
  161.3300  209.0110  156.5680 C   0  0  0  0  0  0  0  0  0  0  0  0
  160.0460  206.9640  157.0740 C   0  0  0  0  0  1  0  0  0  0  0  0
  160.1260  208.3640  156.8560 O   0  0  0  0  0  0  0  0  0  0  0  0
  1  6  1  0  0  0  0
  2  8  1  0  0  0  0
  2 22  1  1  0  0  0
  3  8  1  0  0  0  0
  4  9  1  0  0  0  0
  5 11  1  0  0  0  0
  5  4  2  0  0  0  0
  6 14  1  6  0  0  0
  6  2  1  0  0  0  0
  7  1  1  0  0  0  0
  7 12  1  0  0  0  0
  8 21  1  6  0  0  0
  9 12  2  0  0  0  0
 10  5  1  0  0  0  0
 11  7  2  0  0  0  0
 12  3  1  0  0  0  0
 13 18  1  0  0  0  0
 14 18  2  0  0  0  0
 15 14  1  0  0  0  0
 16 15  2  0  0  0  0
 16 17  1  0  0  0  0
 17 13  2  0  0  0  0
 20 19  1  0  0  0  0
 21 20  1  0  0  0  0
 21 19  1  0  0  0  0
 22 23  1  6  0  0  0
 22 25  1  0  0  0  0
 25 27  1  0  0  0  0
 25 24  2  0  0  0  0
 27 26  1  0  0  0  0
M  END
>  <MODEL>
3

>  <REMARK>
 VINA RESULT:      -3.9      2.586      5.699
  Name = 
  5 active torsions:
  status: ('A' for Active; 'I' for Inactive)
    1  A    between atoms: C_2  and  C_6
    2  A    between atoms: C_6  and  C_17
    3  A    between atoms: C_9  and  C_15
    4  A    between atoms: C_14  and  N_19
    5  A    between atoms: O_16  and  C_17
                            x       y       z     vdW  Elec       q    Type
                         _______ _______ _______ _____ _____    ______ ____

>  <TORSDO>
F 5

$$$$
=
 OpenBabel11052423193D

 27 30  0  0  1  0  0  0  0  0999 V2000
  160.4570  209.2190  152.0200 N   0  0  0  0  0  2  0  0  0  0  0  0
  161.1610  206.9520  152.8210 C   0  0  2  0  0  3  0  0  0  0  0  0
  161.9340  208.5510  154.5280 C   0  0  0  0  0  2  0  0  0  0  0  0
  160.6790  212.0640  155.1480 C   0  0  0  0  0  3  0  0  0  0  0  0
  159.9580  212.3350  153.9850 C   0  0  0  0  0  0  0  0  0  0  0  0
  161.3730  208.1040  151.7990 C   0  0  1  0  0  3  0  0  0  0  0  0
  160.5560  210.1580  153.0940 C   0  0  0  0  0  0  0  0  0  0  0  0
  161.0840  207.3810  154.2280 N   0  0  1  0  0  0  0  0  0  0  0  0
  161.3270  210.8360  155.2960 C   0  0  0  0  0  3  0  0  0  0  0  0
  159.3210  213.5230  153.8440 F   0  0  0  0  0  0  0  0  0  0  0  0
  159.8950  211.3840  152.9640 C   0  0  0  0  0  3  0  0  0  0  0  0
  161.2660  209.8750  154.2810 C   0  0  0  0  0  0  0  0  0  0  0  0
  160.2320  206.1960  148.7120 C   0  0  0  0  0  3  0  0  0  0  0  0
  161.2320  207.6450  150.3810 C   0  0  0  0  0  0  0  0  0  0  0  0
  161.9540  208.2980  149.3750 C   0  0  0  0  0  3  0  0  0  0  0  0
  161.8210  207.8950  148.0430 C   0  0  0  0  0  3  0  0  0  0  0  0
  160.9630  206.8440  147.7110 C   0  0  0  0  0  3  0  0  0  0  0  0
  160.3620  206.5970  150.0440 C   0  0  0  0  0  3  0  0  0  0  0  0
  159.3660  206.5780  155.7610 C   0  0  0  0  0  2  0  0  0  0  0  0
  159.6270  208.0350  156.0710 C   0  0  0  0  0  2  0  0  0  0  0  0
  159.6870  207.5450  154.6350 C   0  0  0  0  0  3  0  0  0  0  0  0
  162.1910  205.8130  152.7150 C   0  0  2  0  0  3  0  0  0  0  0  0
  163.3980  206.1590  151.8490 C   0  0  0  0  0  1  0  0  0  0  0  0
  160.7280  203.9610  153.1430 O   0  0  0  0  0  0  0  0  0  0  0  0
  161.5820  204.4790  152.3760 C   0  0  0  0  0  0  0  0  0  0  0  0
  161.0440  202.9850  150.4850 C   0  0  0  0  0  1  0  0  0  0  0  0
  161.9560  203.7830  151.2230 O   0  0  0  0  0  0  0  0  0  0  0  0
  1  7  1  0  0  0  0
  2 22  1  1  0  0  0
  2  8  1  0  0  0  0
  4  9  1  0  0  0  0
  5  4  2  0  0  0  0
  6 14  1  6  0  0  0
  6  1  1  0  0  0  0
  6  2  1  0  0  0  0
  7 12  1  0  0  0  0
  8  3  1  0  0  0  0
  8 21  1  6  0  0  0
 10  5  1  0  0  0  0
 11  7  2  0  0  0  0
 11  5  1  0  0  0  0
 12  3  1  0  0  0  0
 12  9  2  0  0  0  0
 13 18  1  0  0  0  0
 15 14  1  0  0  0  0
 16 15  2  0  0  0  0
 17 16  1  0  0  0  0
 17 13  2  0  0  0  0
 18 14  2  0  0  0  0
 19 20  1  0  0  0  0
 21 19  1  0  0  0  0
 21 20  1  0  0  0  0
 22 23  1  6  0  0  0
 25 22  1  0  0  0  0
 25 24  2  0  0  0  0
 26 27  1  0  0  0  0
 27 25  1  0  0  0  0
M  END
>  <MODEL>
4

>  <REMARK>
 VINA RESULT:      -3.8      3.641      6.357
  Name = 
  5 active torsions:
  status: ('A' for Active; 'I' for Inactive)
    1  A    between atoms: C_2  and  C_6
    2  A    between atoms: C_6  and  C_17
    3  A    between atoms: C_9  and  C_15
    4  A    between atoms: C_14  and  N_19
    5  A    between atoms: O_16  and  C_17
                            x       y       z     vdW  Elec       q    Type
                         _______ _______ _______ _____ _____    ______ ____

>  <TORSDO>
F 5

$$$$
=
 OpenBabel11052423193D

 27 30  0  0  1  0  0  0  0  0999 V2000
  160.7510  208.2370  152.5670 N   0  0  0  0  0  2  0  0  0  0  0  0
  160.8360  210.4190  153.7930 C   0  0  2  0  0  3  0  0  0  0  0  0
  162.1890  210.7250  151.7580 C   0  0  0  0  0  2  0  0  0  0  0  0
  162.0680  208.6950  148.5690 C   0  0  0  0  0  3  0  0  0  0  0  0
  161.3560  207.5620  148.9610 C   0  0  0  0  0  0  0  0  0  0  0  0
  161.2810  208.9300  153.7360 C   0  0  1  0  0  3  0  0  0  0  0  0
  161.2140  208.4220  151.2260 C   0  0  0  0  0  0  0  0  0  0  0  0
  161.0130  211.1650  152.5360 N   0  0  1  0  0  0  0  0  0  0  0  0
  162.3430  209.7020  149.4970 C   0  0  0  0  0  3  0  0  0  0  0  0
  161.0800  206.5890  148.0590 F   0  0  0  0  0  0  0  0  0  0  0  0
  160.9280  207.4290  150.2840 C   0  0  0  0  0  3  0  0  0  0  0  0
  161.9140  209.5800  150.8230 C   0  0  0  0  0  0  0  0  0  0  0  0
  161.3420  207.3940  157.2160 C   0  0  0  0  0  3  0  0  0  0  0  0
  160.8860  208.1680  154.9630 C   0  0  0  0  0  0  0  0  0  0  0  0
  159.6310  207.5480  155.0080 C   0  0  0  0  0  3  0  0  0  0  0  0
  159.2370  206.8470  156.1520 C   0  0  0  0  0  3  0  0  0  0  0  0
  160.0920  206.7680  157.2540 C   0  0  0  0  0  3  0  0  0  0  0  0
  161.7380  208.0960  156.0750 C   0  0  0  0  0  3  0  0  0  0  0  0
  158.7500  212.0690  152.4520 C   0  0  0  0  0  2  0  0  0  0  0  0
  159.4990  212.5710  151.2390 C   0  0  0  0  0  2  0  0  0  0  0  0
  159.7660  211.1730  151.7670 C   0  0  0  0  0  3  0  0  0  0  0  0
  161.4780  211.2290  154.9330 C   0  0  2  0  0  3  0  0  0  0  0  0
  162.8230  210.6780  155.3930 C   0  0  0  0  0  1  0  0  0  0  0  0
  160.8270  212.3990  156.9240 O   0  0  0  0  0  0  0  0  0  0  0  0
  160.5360  211.5180  156.0720 C   0  0  0  0  0  0  0  0  0  0  0  0
  158.0690  211.4250  156.0560 C   0  0  0  0  0  1  0  0  0  0  0  0
  159.3390  210.8130  156.2190 O   0  0  0  0  0  0  0  0  0  0  0  0
  1  6  1  0  0  0  0
  2 22  1  1  0  0  0
  3  8  1  0  0  0  0
  4  5  2  0  0  0  0
  4  9  1  0  0  0  0
  5 11  1  0  0  0  0
  6  2  1  0  0  0  0
  6 14  1  1  0  0  0
  7  1  1  0  0  0  0
  8 21  1  6  0  0  0
  8  2  1  0  0  0  0
  9 12  2  0  0  0  0
 10  5  1  0  0  0  0
 11  7  2  0  0  0  0
 12  7  1  0  0  0  0
 12  3  1  0  0  0  0
 13 17  1  0  0  0  0
 14 15  2  0  0  0  0
 14 18  1  0  0  0  0
 15 16  1  0  0  0  0
 16 17  2  0  0  0  0
 18 13  2  0  0  0  0
 20 21  1  0  0  0  0
 20 19  1  0  0  0  0
 21 19  1  0  0  0  0
 22 23  1  1  0  0  0
 22 25  1  0  0  0  0
 25 27  1  0  0  0  0
 25 24  2  0  0  0  0
 26 27  1  0  0  0  0
M  END
>  <MODEL>
5

>  <REMARK>
 VINA RESULT:      -3.5      2.079      5.057
  Name = 
  5 active torsions:
  status: ('A' for Active; 'I' for Inactive)
    1  A    between atoms: C_2  and  C_6
    2  A    between atoms: C_6  and  C_17
    3  A    between atoms: C_9  and  C_15
    4  A    between atoms: C_14  and  N_19
    5  A    between atoms: O_16  and  C_17
                            x       y       z     vdW  Elec       q    Type
                         _______ _______ _______ _____ _____    ______ ____

>  <TORSDO>
F 5

$$$$
=
 OpenBabel11052423193D

 27 30  0  0  1  0  0  0  0  0999 V2000
  158.3550  213.3820  141.2680 N   0  0  0  0  0  2  0  0  0  0  0  0
  160.5370  212.3670  140.5740 C   0  0  2  0  0  3  0  0  0  0  0  0
  158.8240  211.3720  139.1110 C   0  0  0  0  0  2  0  0  0  0  0  0
  155.3770  212.7170  138.3320 C   0  0  0  0  0  3  0  0  0  0  0  0
  155.2000  213.6820  139.3250 C   0  0  0  0  0  0  0  0  0  0  0  0
  159.4160  212.4550  141.6480 C   0  0  1  0  0  3  0  0  0  0  0  0
  157.3680  213.1290  140.2640 C   0  0  0  0  0  0  0  0  0  0  0  0
  160.0580  212.1800  139.1950 N   0  0  1  0  0  0  0  0  0  0  0  0
  156.5540  211.9670  138.2910 C   0  0  0  0  0  3  0  0  0  0  0  0
  154.0620  214.4170  139.3590 F   0  0  0  0  0  0  0  0  0  0  0  0
  156.1930  213.8880  140.2840 C   0  0  0  0  0  3  0  0  0  0  0  0
  157.5570  212.1690  139.2460 C   0  0  0  0  0  0  0  0  0  0  0  0
  161.1240  214.4110  144.4280 C   0  0  0  0  0  3  0  0  0  0  0  0
  159.9400  212.8550  142.9920 C   0  0  0  0  0  0  0  0  0  0  0  0
  159.6750  212.0410  144.1000 C   0  0  0  0  0  3  0  0  0  0  0  0
  160.1420  212.4070  145.3660 C   0  0  0  0  0  3  0  0  0  0  0  0
  160.8670  213.5900  145.5310 C   0  0  0  0  0  3  0  0  0  0  0  0
  160.6590  214.0470  143.1610 C   0  0  0  0  0  3  0  0  0  0  0  0
  161.3230  213.8400  137.9320 C   0  0  0  0  0  2  0  0  0  0  0  0
  160.2480  213.2820  137.0270 C   0  0  0  0  0  2  0  0  0  0  0  0
  159.9670  213.4700  138.5070 C   0  0  0  0  0  3  0  0  0  0  0  0
  161.6110  211.3030  140.8650 C   0  0  2  0  0  3  0  0  0  0  0  0
  162.9260  211.8840  141.3730 C   0  0  0  0  0  1  0  0  0  0  0  0
  162.4890  210.6160  138.7410 O   0  0  0  0  0  0  0  0  0  0  0  0
  161.7950  210.3120  139.7470 C   0  0  0  0  0  0  0  0  0  0  0  0
  161.3370  208.1030  138.7430 C   0  0  0  0  0  1  0  0  0  0  0  0
  161.1960  209.0510  139.7900 O   0  0  0  0  0  0  0  0  0  0  0  0
  1  6  1  0  0  0  0
  2 22  1  1  0  0  0
  2  6  1  0  0  0  0
  3  8  1  0  0  0  0
  3 12  1  0  0  0  0
  4  5  1  0  0  0  0
  5 10  1  0  0  0  0
  5 11  2  0  0  0  0
  6 14  1  1  0  0  0
  7 11  1  0  0  0  0
  7  1  1  0  0  0  0
  8 21  1  1  0  0  0
  8  2  1  0  0  0  0
  9  4  2  0  0  0  0
  9 12  1  0  0  0  0
 12  7  2  0  0  0  0
 13 17  1  0  0  0  0
 14 18  1  0  0  0  0
 14 15  2  0  0  0  0
 15 16  1  0  0  0  0
 16 17  2  0  0  0  0
 18 13  2  0  0  0  0
 19 21  1  0  0  0  0
 20 19  1  0  0  0  0
 20 21  1  0  0  0  0
 22 23  1  6  0  0  0
 24 25  2  0  0  0  0
 25 27  1  0  0  0  0
 25 22  1  0  0  0  0
 26 27  1  0  0  0  0
M  END
>  <MODEL>
6

>  <REMARK>
 VINA RESULT:      -3.3     11.277     14.698
  Name = 
  5 active torsions:
  status: ('A' for Active; 'I' for Inactive)
    1  A    between atoms: C_2  and  C_6
    2  A    between atoms: C_6  and  C_17
    3  A    between atoms: C_9  and  C_15
    4  A    between atoms: C_14  and  N_19
    5  A    between atoms: O_16  and  C_17
                            x       y       z     vdW  Elec       q    Type
                         _______ _______ _______ _____ _____    ______ ____

>  <TORSDO>
F 5

$$$$
=
 OpenBabel11052423193D

 27 30  0  0  1  0  0  0  0  0999 V2000
  161.2150  208.4320  149.0770 N   0  0  0  0  0  2  0  0  0  0  0  0
  161.4740  207.7330  151.4680 C   0  0  2  0  0  3  0  0  0  0  0  0
  162.7060  209.8530  151.2370 C   0  0  0  0  0  2  0  0  0  0  0  0
  162.2920  212.4950  148.5630 C   0  0  0  0  0  3  0  0  0  0  0  0
  161.5570  211.8210  147.5870 C   0  0  0  0  0  0  0  0  0  0  0  0
  161.8480  207.4780  149.9800 C   0  0  1  0  0  3  0  0  0  0  0  0
  161.5980  209.8030  148.9340 C   0  0  0  0  0  0  0  0  0  0  0  0
  161.6030  209.1330  151.9050 N   0  0  1  0  0  0  0  0  0  0  0  0
  162.6690  211.8320  149.7330 C   0  0  0  0  0  3  0  0  0  0  0  0
  161.1820  212.4660  146.4560 F   0  0  0  0  0  0  0  0  0  0  0  0
  161.2090  210.4820  147.7750 C   0  0  0  0  0  3  0  0  0  0  0  0
  162.3220  210.4910  149.9320 C   0  0  0  0  0  0  0  0  0  0  0  0
  160.4070  203.9580  149.8990 C   0  0  0  0  0  3  0  0  0  0  0  0
  161.4990  206.0930  149.5320 C   0  0  0  0  0  0  0  0  0  0  0  0
  161.9130  205.6590  148.2670 C   0  0  0  0  0  3  0  0  0  0  0  0
  161.5810  204.3750  147.8240 C   0  0  0  0  0  3  0  0  0  0  0  0
  160.8310  203.5240  148.6390 C   0  0  0  0  0  3  0  0  0  0  0  0
  160.7370  205.2410  150.3450 C   0  0  0  0  0  3  0  0  0  0  0  0
  159.7630  210.0610  153.2090 C   0  0  0  0  0  2  0  0  0  0  0  0
  160.4140  211.1930  152.4470 C   0  0  0  0  0  2  0  0  0  0  0  0
  160.3110  209.8170  151.8140 C   0  0  0  0  0  3  0  0  0  0  0  0
  162.2220  206.8390  152.4720 C   0  0  2  0  0  3  0  0  0  0  0  0
  163.1910  205.8600  151.8160 C   0  0  0  0  0  1  0  0  0  0  0  0
  161.2060  204.9340  153.5180 O   0  0  0  0  0  0  0  0  0  0  0  0
  161.3210  206.1880  153.4880 C   0  0  0  0  0  0  0  0  0  0  0  0
  161.2050  207.6870  155.4460 C   0  0  0  0  0  1  0  0  0  0  0  0
  160.5890  206.9500  154.4010 O   0  0  0  0  0  0  0  0  0  0  0  0
  1  6  1  0  0  0  0
  2  8  1  0  0  0  0
  2 22  1  1  0  0  0
  3  8  1  0  0  0  0
  4  9  1  0  0  0  0
  5 11  1  0  0  0  0
  5  4  2  0  0  0  0
  6 14  1  6  0  0  0
  6  2  1  0  0  0  0
  7  1  1  0  0  0  0
  7 12  1  0  0  0  0
  8 21  1  6  0  0  0
  9 12  2  0  0  0  0
 10  5  1  0  0  0  0
 11  7  2  0  0  0  0
 12  3  1  0  0  0  0
 13 18  1  0  0  0  0
 14 18  2  0  0  0  0
 15 14  1  0  0  0  0
 16 15  2  0  0  0  0
 16 17  1  0  0  0  0
 17 13  2  0  0  0  0
 20 19  1  0  0  0  0
 21 20  1  0  0  0  0
 21 19  1  0  0  0  0
 22 23  1  6  0  0  0
 22 25  1  0  0  0  0
 25 24  2  0  0  0  0
 25 27  1  0  0  0  0
 27 26  1  0  0  0  0
M  END
>  <MODEL>
7

>  <REMARK>
 VINA RESULT:      -2.8      3.687      6.950
  Name = 
  5 active torsions:
  status: ('A' for Active; 'I' for Inactive)
    1  A    between atoms: C_2  and  C_6
    2  A    between atoms: C_6  and  C_17
    3  A    between atoms: C_9  and  C_15
    4  A    between atoms: C_14  and  N_19
    5  A    between atoms: O_16  and  C_17
                            x       y       z     vdW  Elec       q    Type
                         _______ _______ _______ _____ _____    ______ ____

>  <TORSDO>
F 5

$$$$
=
 OpenBabel11052423193D

 27 30  0  0  1  0  0  0  0  0999 V2000
  162.2630  208.2730  148.2660 N   0  0  0  0  0  2  0  0  0  0  0  0
  161.6790  209.1130  150.5520 C   0  0  2  0  0  3  0  0  0  0  0  0
  160.4560  206.9930  150.2690 C   0  0  0  0  0  2  0  0  0  0  0  0
  161.2010  204.1970  147.8350 C   0  0  0  0  0  3  0  0  0  0  0  0
  162.0780  204.8050  146.9370 C   0  0  0  0  0  0  0  0  0  0  0  0
  161.5240  209.2840  149.0140 C   0  0  1  0  0  3  0  0  0  0  0  0
  161.8800  206.9000  148.1480 C   0  0  0  0  0  0  0  0  0  0  0  0
  161.4660  207.7420  151.0450 N   0  0  1  0  0  0  0  0  0  0  0  0
  160.6720  204.9300  148.9000 C   0  0  0  0  0  3  0  0  0  0  0  0
  162.5990  204.0920  145.9090 F   0  0  0  0  0  0  0  0  0  0  0  0
  162.4180  206.1500  147.0960 C   0  0  0  0  0  3  0  0  0  0  0  0
  161.0110  206.2770  149.0690 C   0  0  0  0  0  0  0  0  0  0  0  0
  163.6620  212.3390  148.2600 C   0  0  0  0  0  3  0  0  0  0  0  0
  161.9560  210.6370  148.5430 C   0  0  0  0  0  0  0  0  0  0  0  0
  161.0350  211.4570  147.8800 C   0  0  0  0  0  3  0  0  0  0  0  0
  161.4250  212.7170  147.4170 C   0  0  0  0  0  3  0  0  0  0  0  0
  162.7370  213.1590  147.6080 C   0  0  0  0  0  3  0  0  0  0  0  0
  163.2750  211.0790  148.7240 C   0  0  0  0  0  3  0  0  0  0  0  0
  162.9260  206.5770  152.6120 C   0  0  0  0  0  2  0  0  0  0  0  0
  162.5000  205.5910  151.5480 C   0  0  0  0  0  2  0  0  0  0  0  0
  162.7460  207.0420  151.1790 C   0  0  0  0  0  3  0  0  0  0  0  0
  160.8110  210.0710  151.3870 C   0  0  2  0  0  3  0  0  0  0  0  0
  161.0720  211.5440  151.0960 C   0  0  0  0  0  1  0  0  0  0  0  0
  159.7570  209.3080  153.4030 O   0  0  0  0  0  0  0  0  0  0  0  0
  160.8030  209.7510  152.8590 C   0  0  0  0  0  0  0  0  0  0  0  0
  161.9070  210.7000  154.8520 C   0  0  0  0  0  1  0  0  0  0  0  0
  161.9380  209.9480  153.6490 O   0  0  0  0  0  0  0  0  0  0  0  0
  1  6  1  0  0  0  0
  2  8  1  0  0  0  0
  2 22  1  1  0  0  0
  3  8  1  0  0  0  0
  4  9  1  0  0  0  0
  5 11  1  0  0  0  0
  5  4  2  0  0  0  0
  6 14  1  6  0  0  0
  6  2  1  0  0  0  0
  7  1  1  0  0  0  0
  7 12  1  0  0  0  0
  8 21  1  6  0  0  0
  9 12  2  0  0  0  0
 10  5  1  0  0  0  0
 11  7  2  0  0  0  0
 12  3  1  0  0  0  0
 13 18  1  0  0  0  0
 14 18  2  0  0  0  0
 15 14  1  0  0  0  0
 16 17  1  0  0  0  0
 16 15  2  0  0  0  0
 17 13  2  0  0  0  0
 20 19  1  0  0  0  0
 21 20  1  0  0  0  0
 21 19  1  0  0  0  0
 22 23  1  1  0  0  0
 22 25  1  0  0  0  0
 25 24  2  0  0  0  0
 25 27  1  0  0  0  0
 27 26  1  0  0  0  0
M  END
>  <MODEL>
8

>  <REMARK>
 VINA RESULT:      -2.7      3.638      5.291
  Name = 
  5 active torsions:
  status: ('A' for Active; 'I' for Inactive)
    1  A    between atoms: C_2  and  C_6
    2  A    between atoms: C_6  and  C_17
    3  A    between atoms: C_9  and  C_15
    4  A    between atoms: C_14  and  N_19
    5  A    between atoms: O_16  and  C_17
                            x       y       z     vdW  Elec       q    Type
                         _______ _______ _______ _____ _____    ______ ____

>  <TORSDO>
F 5

$$$$
