=
 OpenBabel11062408283D

 32 37  0  0  1  0  0  0  0  0999 V2000
  160.9220  210.7220  152.3350 C   0  0  2  0  0  3  0  0  0  0  0  0
  162.0640  209.4050  150.4210 C   0  0  2  0  0  3  0  0  0  0  0  0
  159.5660  211.2680  151.9170 C   0  0  0  0  0  2  0  0  0  0  0  0
  161.9620  210.7090  151.1790 C   0  0  1  0  0  3  0  0  0  0  0  0
  161.7580  209.7120  149.0450 N   0  0  2  0  0  0  0  0  0  0  0  0
  160.6970  204.8350  149.2900 C   0  0  0  0  0  3  0  0  0  0  0  0
  161.2440  208.2470  150.8570 C   0  0  0  0  0  0  0  0  0  0  0  0
  161.8110  206.2750  147.6850 C   0  0  0  0  0  3  0  0  0  0  0  0
  161.7870  207.3270  148.6040 C   0  0  0  0  0  0  0  0  0  0  0  0
  161.8950  211.7780  150.1510 N   0  0  2  0  0  0  0  0  0  0  0  0
  162.4010  208.6730  148.2400 C   0  0  0  0  0  2  0  0  0  0  0  0
  160.5120  212.2400  149.9080 C   0  0  0  0  0  2  0  0  0  0  0  0
  160.6930  208.2260  152.0720 C   0  0  0  0  0  3  0  0  0  0  0  0
  160.7670  209.3840  152.9260 N   0  0  0  0  0  0  0  0  0  0  0  0
  161.2220  207.1210  149.8940 C   0  0  0  0  0  0  0  0  0  0  0  0
  162.3510  211.0340  148.9530 C   0  0  2  0  0  3  0  0  0  0  0  0
  159.7720  212.5710  151.1880 C   0  0  0  0  0  2  0  0  0  0  0  0
  161.2690  205.0340  148.0270 C   0  0  0  0  0  3  0  0  0  0  0  0
  160.6730  205.8760  150.2230 C   0  0  0  0  0  3  0  0  0  0  0  0
  160.5080  207.9580  156.4050 C   0  0  0  0  0  0  0  0  0  0  0  0
  160.7770  206.8220  157.0880 F   0  0  0  0  0  0  0  0  0  0  0  0
  159.9190  210.3220  155.0300 C   0  0  0  0  0  3  0  0  0  0  0  0
  159.9370  209.0380  157.0820 C   0  0  0  0  0  3  0  0  0  0  0  0
  160.4960  209.2490  154.3310 C   0  0  0  0  0  0  0  0  0  0  0  0
  160.7950  208.0550  155.0330 C   0  0  0  0  0  0  0  0  0  0  0  0
  161.4530  206.8980  154.3520 C   0  0  0  0  0  1  0  0  0  0  0  0
  159.6490  210.2210  156.3960 C   0  0  0  0  0  0  0  0  0  0  0  0
  157.6300  211.8240  156.0010 C   0  0  0  0  0  1  0  0  0  0  0  0
  158.9160  211.6020  157.2610 S   0  0  0  0  0  0  0  0  0  0  0  0
  162.7470  212.7030  147.2490 N   0  0  0  0  0  0  0  0  0  0  0  0
  162.0480  211.7060  147.6390 C   0  0  0  0  0  3  0  0  0  0  0  0
  162.4520  213.3400  145.9950 C   0  0  0  0  0  1  0  0  0  0  0  0
  1  3  1  6  0  0  0
  1 14  1  0  0  0  0
  2  7  1  1  0  0  0
  2  4  1  0  0  0  0
  4  1  1  0  0  0  0
  5  2  1  0  0  0  0
  6 19  1  0  0  0  0
  7 13  2  0  0  0  0
  8 18  1  0  0  0  0
  8  9  2  0  0  0  0
  9 15  1  0  0  0  0
 10  4  1  0  0  0  0
 11  9  1  0  0  0  0
 11  5  1  0  0  0  0
 12 10  1  0  0  0  0
 12 17  1  0  0  0  0
 13 14  1  0  0  0  0
 14 24  1  0  0  0  0
 15 19  2  0  0  0  0
 15  7  1  0  0  0  0
 16  5  1  0  0  0  0
 16 10  1  0  0  0  0
 17  3  1  0  0  0  0
 18  6  2  0  0  0  0
 20 23  1  0  0  0  0
 20 21  1  0  0  0  0
 22 27  1  0  0  0  0
 24 22  2  0  0  0  0
 24 25  1  0  0  0  0
 25 20  2  0  0  0  0
 26 25  1  0  0  0  0
 27 23  2  0  0  0  0
 27 29  1  0  0  0  0
 28 29  1  0  0  0  0
 30 31  2  0  0  0  0
 31 16  1  0  0  0  0
 32 30  1  0  0  0  0
M  END
>  <MODEL>
1

>  <REMARK>
 VINA RESULT:      -6.9      0.000      0.000
  Name = 
  3 active torsions:
  status: ('A' for Active; 'I' for Inactive)
    1  A    between atoms: S_15  and  C_26
    2  A    between atoms: C_18  and  C_29
    3  A    between atoms: C_20  and  N_27
                            x       y       z     vdW  Elec       q    Type
                         _______ _______ _______ _____ _____    ______ ____

>  <TORSDO>
F 3

$$$$
=
 OpenBabel11062408283D

 32 37  0  0  1  0  0  0  0  0999 V2000
  161.5210  206.0190  148.7860 C   0  0  2  0  0  3  0  0  0  0  0  0
  160.7420  207.7180  150.5760 C   0  0  2  0  0  3  0  0  0  0  0  0
  163.0250  206.0750  148.5680 C   0  0  0  0  0  2  0  0  0  0  0  0
  160.8950  207.4050  149.1060 C   0  0  1  0  0  3  0  0  0  0  0  0
  161.5000  208.9220  150.8150 N   0  0  2  0  0  0  0  0  0  0  0  0
  161.3570  206.8570  155.3630 C   0  0  0  0  0  3  0  0  0  0  0  0
  161.1230  206.6930  151.5790 C   0  0  0  0  0  0  0  0  0  0  0  0
  161.1090  209.1060  154.4870 C   0  0  0  0  0  3  0  0  0  0  0  0
  161.0870  208.6010  153.1830 C   0  0  0  0  0  0  0  0  0  0  0  0
  161.4940  208.6150  148.4870 N   0  0  2  0  0  0  0  0  0  0  0  0
  160.9160  209.5470  152.0010 C   0  0  0  0  0  2  0  0  0  0  0  0
  162.9520  208.4820  148.2880 C   0  0  0  0  0  2  0  0  0  0  0  0
  161.2710  205.4160  151.2210 C   0  0  0  0  0  3  0  0  0  0  0  0
  161.2000  205.0360  149.8330 N   0  0  0  0  0  0  0  0  0  0  0  0
  161.1850  207.1980  152.9710 C   0  0  0  0  0  0  0  0  0  0  0  0
  161.2640  209.6120  149.5600 C   0  0  2  0  0  3  0  0  0  0  0  0
  163.3320  207.1870  147.5980 C   0  0  0  0  0  2  0  0  0  0  0  0
  161.2430  208.2360  155.5710 C   0  0  0  0  0  3  0  0  0  0  0  0
  161.3280  206.3360  154.0660 C   0  0  0  0  0  3  0  0  0  0  0  0
  160.6770  201.3130  150.0930 C   0  0  0  0  0  0  0  0  0  0  0  0
  160.5450  200.3420  151.0260 F   0  0  0  0  0  0  0  0  0  0  0  0
  160.9650  203.2840  148.1300 C   0  0  0  0  0  3  0  0  0  0  0  0
  160.6360  200.9660  148.7420 C   0  0  0  0  0  3  0  0  0  0  0  0
  161.0070  203.6550  149.4830 C   0  0  0  0  0  0  0  0  0  0  0  0
  160.8570  202.6530  150.4740 C   0  0  0  0  0  0  0  0  0  0  0  0
  160.8450  202.9960  151.9290 C   0  0  0  0  0  1  0  0  0  0  0  0
  160.7730  201.9510  147.7610 C   0  0  0  0  0  0  0  0  0  0  0  0
  161.2100  203.1710  145.4980 C   0  0  0  0  0  1  0  0  0  0  0  0
  160.7230  201.5070  146.0310 S   0  0  0  0  0  0  0  0  0  0  0  0
  161.8860  211.6730  148.4600 N   0  0  0  0  0  0  0  0  0  0  0  0
  162.0800  210.8720  149.4370 C   0  0  0  0  0  3  0  0  0  0  0  0
  162.6700  212.8720  148.3490 C   0  0  0  0  0  1  0  0  0  0  0  0
  1  3  1  1  0  0  0
  1  4  1  0  0  0  0
  1 14  1  0  0  0  0
  2  5  1  0  0  0  0
  2  7  1  1  0  0  0
  4  2  1  0  0  0  0
  5 11  1  0  0  0  0
  6 18  1  0  0  0  0
  7 15  1  0  0  0  0
  8 18  2  0  0  0  0
  9  8  1  0  0  0  0
 10  4  1  0  0  0  0
 10 16  1  0  0  0  0
 11  9  1  0  0  0  0
 12 10  1  0  0  0  0
 13  7  2  0  0  0  0
 14 13  1  0  0  0  0
 15  9  2  0  0  0  0
 15 19  1  0  0  0  0
 16  5  1  0  0  0  0
 17 12  1  0  0  0  0
 17  3  1  0  0  0  0
 19  6  2  0  0  0  0
 20 25  1  0  0  0  0
 20 21  1  0  0  0  0
 22 24  1  0  0  0  0
 23 20  2  0  0  0  0
 24 14  1  0  0  0  0
 24 25  2  0  0  0  0
 25 26  1  0  0  0  0
 27 22  2  0  0  0  0
 27 23  1  0  0  0  0
 28 29  1  0  0  0  0
 29 27  1  0  0  0  0
 30 31  2  0  0  0  0
 31 16  1  0  0  0  0
 32 30  1  0  0  0  0
M  END
>  <MODEL>
2

>  <REMARK>
 VINA RESULT:      -5.6      3.686      7.031
  Name = 
  3 active torsions:
  status: ('A' for Active; 'I' for Inactive)
    1  A    between atoms: S_15  and  C_26
    2  A    between atoms: C_18  and  C_29
    3  A    between atoms: C_20  and  N_27
                            x       y       z     vdW  Elec       q    Type
                         _______ _______ _______ _____ _____    ______ ____

>  <TORSDO>
F 3

$$$$
=
 OpenBabel11062408283D

 32 37  0  0  1  0  0  0  0  0999 V2000
  161.6250  206.8450  147.2780 C   0  0  2  0  0  3  0  0  0  0  0  0
  162.0250  204.3950  148.0110 C   0  0  2  0  0  3  0  0  0  0  0  0
  160.2180  207.0540  146.7410 C   0  0  0  0  0  2  0  0  0  0  0  0
  162.2100  205.4450  146.9400 C   0  0  1  0  0  3  0  0  0  0  0  0
  161.2760  203.3230  147.4020 N   0  0  2  0  0  0  0  0  0  0  0  0
  160.2690  202.6760  152.2530 C   0  0  0  0  0  3  0  0  0  0  0  0
  161.3800  204.7740  149.2940 C   0  0  0  0  0  0  0  0  0  0  0  0
  160.8000  201.2070  150.3960 C   0  0  0  0  0  3  0  0  0  0  0  0
  161.1080  202.3150  149.6020 C   0  0  0  0  0  0  0  0  0  0  0  0
  161.8190  204.8020  145.6610 N   0  0  2  0  0  0  0  0  0  0  0  0
  161.5880  202.1170  148.1690 C   0  0  0  0  0  2  0  0  0  0  0  0
  160.4440  205.1560  145.2490 C   0  0  0  0  0  2  0  0  0  0  0  0
  161.2730  206.0560  149.6460 C   0  0  0  0  0  3  0  0  0  0  0  0
  161.6540  207.0990  148.7260 N   0  0  0  0  0  0  0  0  0  0  0  0
  161.0110  203.6230  150.1510 C   0  0  0  0  0  0  0  0  0  0  0  0
  161.8270  203.3740  146.0600 C   0  0  2  0  0  3  0  0  0  0  0  0
  160.1890  206.6490  145.2890 C   0  0  0  0  0  2  0  0  0  0  0  0
  160.3820  201.3880  151.7160 C   0  0  0  0  0  3  0  0  0  0  0  0
  160.5830  203.7930  151.4740 C   0  0  0  0  0  3  0  0  0  0  0  0
  162.3170  210.0070  151.0300 C   0  0  0  0  0  0  0  0  0  0  0  0
  162.5390  210.2700  152.3390 F   0  0  0  0  0  0  0  0  0  0  0  0
  161.8450  209.5120  148.3180 C   0  0  0  0  0  3  0  0  0  0  0  0
  162.2890  211.0650  150.1200 C   0  0  0  0  0  3  0  0  0  0  0  0
  161.8730  208.4330  149.2160 C   0  0  0  0  0  0  0  0  0  0  0  0
  162.1160  208.6890  150.5880 C   0  0  0  0  0  0  0  0  0  0  0  0
  162.2040  207.5750  151.5820 C   0  0  0  0  0  1  0  0  0  0  0  0
  162.0600  210.8170  148.7640 C   0  0  0  0  0  0  0  0  0  0  0  0
  161.3190  213.3170  148.8170 C   0  0  0  0  0  1  0  0  0  0  0  0
  162.0210  212.1710  147.5990 S   0  0  0  0  0  0  0  0  0  0  0  0
  160.4300  201.4640  145.5630 N   0  0  0  0  0  0  0  0  0  0  0  0
  161.1100  202.4490  145.1120 C   0  0  0  0  0  3  0  0  0  0  0  0
  159.7500  200.5840  144.6530 C   0  0  0  0  0  1  0  0  0  0  0  0
  1  3  1  1  0  0  0
  1 14  1  0  0  0  0
  2  7  1  1  0  0  0
  4  1  1  0  0  0  0
  4  2  1  0  0  0  0
  5  2  1  0  0  0  0
  5 11  1  0  0  0  0
  7 13  2  0  0  0  0
  7 15  1  0  0  0  0
  8 18  2  0  0  0  0
  9 15  2  0  0  0  0
  9  8  1  0  0  0  0
 10 16  1  0  0  0  0
 10  4  1  0  0  0  0
 11  9  1  0  0  0  0
 12 17  1  0  0  0  0
 12 10  1  0  0  0  0
 14 24  1  0  0  0  0
 14 13  1  0  0  0  0
 15 19  1  0  0  0  0
 16  5  1  0  0  0  0
 17  3  1  0  0  0  0
 18  6  1  0  0  0  0
 19  6  2  0  0  0  0
 20 21  1  0  0  0  0
 22 27  2  0  0  0  0
 22 24  1  0  0  0  0
 23 20  2  0  0  0  0
 24 25  2  0  0  0  0
 25 20  1  0  0  0  0
 25 26  1  0  0  0  0
 27 23  1  0  0  0  0
 29 27  1  0  0  0  0
 29 28  1  0  0  0  0
 31 30  2  0  0  0  0
 31 16  1  0  0  0  0
 32 30  1  0  0  0  0
M  END
>  <MODEL>
3

>  <REMARK>
 VINA RESULT:      -5.2      3.900      7.011
  Name = 
  3 active torsions:
  status: ('A' for Active; 'I' for Inactive)
    1  A    between atoms: S_15  and  C_26
    2  A    between atoms: C_18  and  C_29
    3  A    between atoms: C_20  and  N_27
                            x       y       z     vdW  Elec       q    Type
                         _______ _______ _______ _____ _____    ______ ____

>  <TORSDO>
F 3

$$$$
=
 OpenBabel11062408283D

 32 37  0  0  1  0  0  0  0  0999 V2000
  160.8280  211.2400  152.1200 C   0  0  2  0  0  3  0  0  0  0  0  0
  160.1080  211.7860  154.5460 C   0  0  2  0  0  3  0  0  0  0  0  0
  160.3260  209.8770  151.6720 C   0  0  0  0  0  2  0  0  0  0  0  0
  161.2020  211.2920  153.6280 C   0  0  1  0  0  3  0  0  0  0  0  0
  159.8570  210.7210  155.4860 N   0  0  2  0  0  0  0  0  0  0  0  0
  155.5470  213.2460  155.5930 C   0  0  0  0  0  3  0  0  0  0  0  0
  158.8190  212.2350  153.9610 C   0  0  0  0  0  0  0  0  0  0  0  0
  156.9760  212.2130  157.2590 C   0  0  0  0  0  3  0  0  0  0  0  0
  157.9620  212.0030  156.2910 C   0  0  0  0  0  0  0  0  0  0  0  0
  161.7540  210.0700  154.2650 N   0  0  2  0  0  0  0  0  0  0  0  0
  159.2830  211.3510  156.6760 C   0  0  0  0  0  2  0  0  0  0  0  0
  161.2080  208.8310  153.6730 C   0  0  0  0  0  2  0  0  0  0  0  0
  158.7300  212.5270  152.6620 C   0  0  0  0  0  3  0  0  0  0  0  0
  159.8420  212.2780  151.7810 N   0  0  0  0  0  0  0  0  0  0  0  0
  157.7400  212.4400  154.9550 C   0  0  0  0  0  0  0  0  0  0  0  0
  161.2060  210.2060  155.6360 C   0  0  2  0  0  3  0  0  0  0  0  0
  161.2860  208.8230  152.1600 C   0  0  0  0  0  2  0  0  0  0  0  0
  155.7740  212.8320  156.9110 C   0  0  0  0  0  3  0  0  0  0  0  0
  156.5270  213.0520  154.6160 C   0  0  0  0  0  3  0  0  0  0  0  0
  158.7740  213.9920  148.5990 C   0  0  0  0  0  0  0  0  0  0  0  0
  157.6590  214.4530  147.9870 F   0  0  0  0  0  0  0  0  0  0  0  0
  161.1040  213.0370  149.8170 C   0  0  0  0  0  3  0  0  0  0  0  0
  160.0050  214.1170  147.9510 C   0  0  0  0  0  3  0  0  0  0  0  0
  159.8770  212.9040  150.4870 C   0  0  0  0  0  0  0  0  0  0  0  0
  158.7010  213.3920  149.8670 C   0  0  0  0  0  0  0  0  0  0  0  0
  157.3740  213.3220  150.5540 C   0  0  0  0  0  1  0  0  0  0  0  0
  161.1690  213.6460  148.5620 C   0  0  0  0  0  0  0  0  0  0  0  0
  162.0650  213.2450  146.1460 C   0  0  0  0  0  1  0  0  0  0  0  0
  162.7440  213.8030  147.7330 S   0  0  0  0  0  0  0  0  0  0  0  0
  160.2520  208.1460  156.4700 N   0  0  0  0  0  0  0  0  0  0  0  0
  161.2490  208.9470  156.4620 C   0  0  0  0  0  3  0  0  0  0  0  0
  160.2990  206.9480  157.2610 C   0  0  0  0  0  1  0  0  0  0  0  0
  1  3  1  1  0  0  0
  1  4  1  0  0  0  0
  2  7  1  6  0  0  0
  2  5  1  0  0  0  0
  3 17  1  0  0  0  0
  4 10  1  0  0  0  0
  4  2  1  0  0  0  0
  5 16  1  0  0  0  0
  5 11  1  0  0  0  0
  6 18  1  0  0  0  0
  7 15  1  0  0  0  0
  9 11  1  0  0  0  0
  9  8  1  0  0  0  0
 10 16  1  0  0  0  0
 12 10  1  0  0  0  0
 13  7  2  0  0  0  0
 14  1  1  0  0  0  0
 14 13  1  0  0  0  0
 15  9  2  0  0  0  0
 16 31  1  0  0  0  0
 17 12  1  0  0  0  0
 18  8  2  0  0  0  0
 19 15  1  0  0  0  0
 19  6  2  0  0  0  0
 20 25  1  0  0  0  0
 21 20  1  0  0  0  0
 22 24  1  0  0  0  0
 23 27  1  0  0  0  0
 23 20  2  0  0  0  0
 24 14  1  0  0  0  0
 25 24  2  0  0  0  0
 25 26  1  0  0  0  0
 27 22  2  0  0  0  0
 28 29  1  0  0  0  0
 29 27  1  0  0  0  0
 30 32  1  0  0  0  0
 31 30  2  0  0  0  0
M  END
>  <MODEL>
4

>  <REMARK>
 VINA RESULT:      -4.5      3.924      8.448
  Name = 
  3 active torsions:
  status: ('A' for Active; 'I' for Inactive)
    1  A    between atoms: S_15  and  C_26
    2  A    between atoms: C_18  and  C_29
    3  A    between atoms: C_20  and  N_27
                            x       y       z     vdW  Elec       q    Type
                         _______ _______ _______ _____ _____    ______ ____

>  <TORSDO>
F 3

$$$$
=
 OpenBabel11062408283D

 32 37  0  0  1  0  0  0  0  0999 V2000
  161.3540  204.7460  150.1780 C   0  0  2  0  0  3  0  0  0  0  0  0
  162.4290  207.0140  150.8130 C   0  0  2  0  0  3  0  0  0  0  0  0
  159.8970  204.6710  150.6030 C   0  0  0  0  0  2  0  0  0  0  0  0
  162.2410  205.5570  151.1650 C   0  0  1  0  0  3  0  0  0  0  0  0
  161.9230  207.7700  151.9320 N   0  0  2  0  0  0  0  0  0  0  0  0
  161.5710  211.0720  148.1990 C   0  0  0  0  0  3  0  0  0  0  0  0
  161.8320  207.5400  149.5590 C   0  0  0  0  0  0  0  0  0  0  0  0
  162.2810  211.1670  150.5180 C   0  0  0  0  0  3  0  0  0  0  0  0
  162.2230  209.7730  150.5970 C   0  0  0  0  0  0  0  0  0  0  0  0
  161.9080  205.5220  152.6110 N   0  0  2  0  0  0  0  0  0  0  0  0
  162.6010  209.0660  151.8930 C   0  0  0  0  0  2  0  0  0  0  0  0
  160.4560  205.3840  152.8520 C   0  0  0  0  0  2  0  0  0  0  0  0
  161.4370  206.7060  148.5950 C   0  0  0  0  0  3  0  0  0  0  0  0
  161.4540  205.2820  148.8120 N   0  0  0  0  0  0  0  0  0  0  0  0
  161.8490  209.0170  149.4510 C   0  0  0  0  0  0  0  0  0  0  0  0
  162.3150  206.8890  153.0180 C   0  0  2  0  0  3  0  0  0  0  0  0
  159.8360  204.2570  152.0510 C   0  0  0  0  0  2  0  0  0  0  0  0
  161.9560  211.8130  149.3230 C   0  0  0  0  0  3  0  0  0  0  0  0
  161.5170  209.6770  148.2610 C   0  0  0  0  0  3  0  0  0  0  0  0
  161.2440  203.9770  145.2810 C   0  0  0  0  0  0  0  0  0  0  0  0
  161.1920  204.4260  144.0060 F   0  0  0  0  0  0  0  0  0  0  0  0
  161.3300  203.0050  147.9030 C   0  0  0  0  0  3  0  0  0  0  0  0
  161.2060  202.6020  145.5200 C   0  0  0  0  0  3  0  0  0  0  0  0
  161.3720  204.3910  147.6850 C   0  0  0  0  0  0  0  0  0  0  0  0
  161.3310  204.8790  146.3560 C   0  0  0  0  0  0  0  0  0  0  0  0
  161.4210  206.3420  146.0620 C   0  0  0  0  0  1  0  0  0  0  0  0
  161.2560  202.1160  146.8280 C   0  0  0  0  0  0  0  0  0  0  0  0
  161.2070  200.5780  148.9340 C   0  0  0  0  0  1  0  0  0  0  0  0
  161.2060  200.3560  147.1340 S   0  0  0  0  0  0  0  0  0  0  0  0
  160.8760  208.2540  154.4010 N   0  0  0  0  0  0  0  0  0  0  0  0
  161.7700  207.3410  154.3470 C   0  0  0  0  0  3  0  0  0  0  0  0
  160.3630  208.6810  155.6720 C   0  0  0  0  0  1  0  0  0  0  0  0
  1  3  1  1  0  0  0
  1  4  1  0  0  0  0
  2  7  1  6  0  0  0
  2  4  1  0  0  0  0
  2  5  1  0  0  0  0
  3 17  1  0  0  0  0
  4 10  1  0  0  0  0
  5 16  1  0  0  0  0
  6 19  2  0  0  0  0
  6 18  1  0  0  0  0
  8  9  1  0  0  0  0
  9 11  1  0  0  0  0
 10 12  1  0  0  0  0
 10 16  1  0  0  0  0
 11  5  1  0  0  0  0
 13 14  1  0  0  0  0
 13  7  2  0  0  0  0
 14  1  1  0  0  0  0
 15  7  1  0  0  0  0
 15  9  2  0  0  0  0
 16 31  1  0  0  0  0
 17 12  1  0  0  0  0
 18  8  2  0  0  0  0
 19 15  1  0  0  0  0
 20 23  2  0  0  0  0
 20 25  1  0  0  0  0
 21 20  1  0  0  0  0
 23 27  1  0  0  0  0
 24 22  1  0  0  0  0
 24 14  1  0  0  0  0
 25 24  2  0  0  0  0
 26 25  1  0  0  0  0
 27 29  1  0  0  0  0
 27 22  2  0  0  0  0
 29 28  1  0  0  0  0
 30 32  1  0  0  0  0
 31 30  2  0  0  0  0
M  END
>  <MODEL>
5

>  <REMARK>
 VINA RESULT:      -4.4      4.251      8.329
  Name = 
  3 active torsions:
  status: ('A' for Active; 'I' for Inactive)
    1  A    between atoms: S_15  and  C_26
    2  A    between atoms: C_18  and  C_29
    3  A    between atoms: C_20  and  N_27
                            x       y       z     vdW  Elec       q    Type
                         _______ _______ _______ _____ _____    ______ ____

>  <TORSDO>
F 3

$$$$
=
 OpenBabel11062408283D

 32 37  0  0  1  0  0  0  0  0999 V2000
  161.3000  207.1410  151.0070 C   0  0  2  0  0  3  0  0  0  0  0  0
  160.6140  205.4120  149.2080 C   0  0  2  0  0  3  0  0  0  0  0  0
  162.6600  206.8240  151.6080 C   0  0  0  0  0  2  0  0  0  0  0  0
  160.4800  205.8730  150.6410 C   0  0  1  0  0  3  0  0  0  0  0  0
  161.1260  204.0650  149.2610 N   0  0  2  0  0  0  0  0  0  0  0  0
  162.5140  205.5280  144.6900 C   0  0  0  0  0  3  0  0  0  0  0  0
  161.4350  206.2100  148.2630 C   0  0  0  0  0  0  0  0  0  0  0  0
  161.5820  203.4970  145.6370 C   0  0  0  0  0  3  0  0  0  0  0  0
  161.3640  204.1570  146.8500 C   0  0  0  0  0  0  0  0  0  0  0  0
  160.6370  204.6580  151.4800 N   0  0  2  0  0  0  0  0  0  0  0  0
  160.7160  203.4190  148.0140 C   0  0  0  0  0  2  0  0  0  0  0  0
  162.0000  204.5310  152.0370 C   0  0  0  0  0  2  0  0  0  0  0  0
  161.7690  207.4690  148.5520 C   0  0  0  0  0  3  0  0  0  0  0  0
  161.4580  208.0270  149.8440 N   0  0  0  0  0  0  0  0  0  0  0  0
  161.7120  205.5310  146.9760 C   0  0  0  0  0  0  0  0  0  0  0  0
  160.4550  203.5970  150.4610 C   0  0  2  0  0  3  0  0  0  0  0  0
  162.4800  205.8050  152.7040 C   0  0  0  0  0  2  0  0  0  0  0  0
  162.1540  204.1810  144.5620 C   0  0  0  0  0  3  0  0  0  0  0  0
  162.2940  206.2030  145.8940 C   0  0  0  0  0  3  0  0  0  0  0  0
  161.0950  211.4540  151.3710 C   0  0  0  0  0  0  0  0  0  0  0  0
  160.6660  212.0480  152.5080 F   0  0  0  0  0  0  0  0  0  0  0  0
  161.9760  210.2710  148.9940 C   0  0  0  0  0  3  0  0  0  0  0  0
  161.5820  212.2490  150.3310 C   0  0  0  0  0  3  0  0  0  0  0  0
  161.4930  209.4530  150.0280 C   0  0  0  0  0  0  0  0  0  0  0  0
  161.0520  210.0570  151.2310 C   0  0  0  0  0  0  0  0  0  0  0  0
  160.5730  209.2330  152.3830 C   0  0  0  0  0  1  0  0  0  0  0  0
  162.0270  211.6580  149.1470 C   0  0  0  0  0  0  0  0  0  0  0  0
  161.0800  212.5980  146.9060 C   0  0  0  0  0  1  0  0  0  0  0  0
  162.6480  212.6750  147.8150 S   0  0  0  0  0  0  0  0  0  0  0  0
  160.7590  201.2240  150.1100 N   0  0  0  0  0  0  0  0  0  0  0  0
  160.9240  202.2290  150.8820 C   0  0  0  0  0  3  0  0  0  0  0  0
  161.2070  199.9220  150.5190 C   0  0  0  0  0  1  0  0  0  0  0  0
  1  3  1  6  0  0  0
  2  7  1  6  0  0  0
  2  5  1  0  0  0  0
  2  4  1  0  0  0  0
  3 17  1  0  0  0  0
  4  1  1  0  0  0  0
  4 10  1  0  0  0  0
  5 16  1  0  0  0  0
  6 19  1  0  0  0  0
  7 13  2  0  0  0  0
  8  9  2  0  0  0  0
  9 15  1  0  0  0  0
  9 11  1  0  0  0  0
 10 12  1  0  0  0  0
 11  5  1  0  0  0  0
 12 17  1  0  0  0  0
 13 14  1  0  0  0  0
 14 24  1  0  0  0  0
 14  1  1  0  0  0  0
 15  7  1  0  0  0  0
 16 31  1  0  0  0  0
 16 10  1  0  0  0  0
 18  6  2  0  0  0  0
 18  8  1  0  0  0  0
 19 15  2  0  0  0  0
 20 21  1  0  0  0  0
 22 27  2  0  0  0  0
 22 24  1  0  0  0  0
 23 20  2  0  0  0  0
 24 25  2  0  0  0  0
 25 20  1  0  0  0  0
 25 26  1  0  0  0  0
 27 23  1  0  0  0  0
 28 29  1  0  0  0  0
 29 27  1  0  0  0  0
 30 32  1  0  0  0  0
 30 31  2  0  0  0  0
M  END
>  <MODEL>
6

>  <REMARK>
 VINA RESULT:      -4.0      3.511      6.763
  Name = 
  3 active torsions:
  status: ('A' for Active; 'I' for Inactive)
    1  A    between atoms: S_15  and  C_26
    2  A    between atoms: C_18  and  C_29
    3  A    between atoms: C_20  and  N_27
                            x       y       z     vdW  Elec       q    Type
                         _______ _______ _______ _____ _____    ______ ____

>  <TORSDO>
F 3

$$$$
=
 OpenBabel11062408283D

 32 37  0  0  1  0  0  0  0  0999 V2000
  161.0960  204.1670  151.3210 C   0  0  2  0  0  3  0  0  0  0  0  0
  160.4560  203.7700  148.8450 C   0  0  2  0  0  3  0  0  0  0  0  0
  162.4670  203.6000  151.6500 C   0  0  0  0  0  2  0  0  0  0  0  0
  160.3140  203.3180  150.2800 C   0  0  1  0  0  3  0  0  0  0  0  0
  161.0100  202.6520  148.1210 N   0  0  2  0  0  0  0  0  0  0  0  0
  162.3310  206.5180  145.2450 C   0  0  0  0  0  3  0  0  0  0  0  0
  161.2470  204.9890  148.5430 C   0  0  0  0  0  0  0  0  0  0  0  0
  161.4670  204.2870  144.8370 C   0  0  0  0  0  3  0  0  0  0  0  0
  161.2340  204.1230  146.2060 C   0  0  0  0  0  0  0  0  0  0  0  0
  160.5130  201.8470  150.2700 N   0  0  2  0  0  0  0  0  0  0  0  0
  160.6150  202.8300  146.7240 C   0  0  0  0  0  2  0  0  0  0  0  0
  161.8810  201.4600  150.6720 C   0  0  0  0  0  2  0  0  0  0  0  0
  161.5430  205.8610  149.5090 C   0  0  0  0  0  3  0  0  0  0  0  0
  161.2200  205.5650  150.8820 N   0  0  0  0  0  0  0  0  0  0  0  0
  161.5400  205.1820  147.1040 C   0  0  0  0  0  0  0  0  0  0  0  0
  160.3600  201.5600  148.8230 C   0  0  2  0  0  3  0  0  0  0  0  0
  162.3240  202.1320  151.9570 C   0  0  0  0  0  2  0  0  0  0  0  0
  162.0130  205.4810  144.3600 C   0  0  0  0  0  3  0  0  0  0  0  0
  162.0950  206.3710  146.6150 C   0  0  0  0  0  3  0  0  0  0  0  0
  161.5670  208.9570  152.4890 C   0  0  0  0  0  0  0  0  0  0  0  0
  161.9270  210.2240  152.1810 F   0  0  0  0  0  0  0  0  0  0  0  0
  160.8310  206.3470  153.1760 C   0  0  0  0  0  3  0  0  0  0  0  0
  161.1820  208.6590  153.7980 C   0  0  0  0  0  3  0  0  0  0  0  0
  161.2110  206.6250  151.8530 C   0  0  0  0  0  0  0  0  0  0  0  0
  161.5800  207.9490  151.5100 C   0  0  0  0  0  0  0  0  0  0  0  0
  161.9480  208.3140  150.1080 C   0  0  0  0  0  1  0  0  0  0  0  0
  160.8080  207.3570  154.1390 C   0  0  0  0  0  0  0  0  0  0  0  0
  161.5560  208.0930  156.5270 C   0  0  0  0  0  1  0  0  0  0  0  0
  160.3170  206.9750  155.8150 S   0  0  0  0  0  0  0  0  0  0  0  0
  161.2060  200.0130  147.1690 N   0  0  0  0  0  0  0  0  0  0  0  0
  160.8730  200.2130  148.3880 C   0  0  0  0  0  3  0  0  0  0  0  0
  161.6940  198.7250  146.7610 C   0  0  0  0  0  1  0  0  0  0  0  0
  1  3  1  6  0  0  0
  2  7  1  1  0  0  0
  2  4  1  0  0  0  0
  3 17  1  0  0  0  0
  4  1  1  0  0  0  0
  5 16  1  0  0  0  0
  5  2  1  0  0  0  0
  6 19  1  0  0  0  0
  7 13  2  0  0  0  0
  8  9  2  0  0  0  0
  9 11  1  0  0  0  0
  9 15  1  0  0  0  0
 10  4  1  0  0  0  0
 10 12  1  0  0  0  0
 11  5  1  0  0  0  0
 12 17  1  0  0  0  0
 13 14  1  0  0  0  0
 14  1  1  0  0  0  0
 14 24  1  0  0  0  0
 15  7  1  0  0  0  0
 16 10  1  0  0  0  0
 18  8  1  0  0  0  0
 18  6  2  0  0  0  0
 19 15  2  0  0  0  0
 20 23  1  0  0  0  0
 21 20  1  0  0  0  0
 22 27  1  0  0  0  0
 23 27  2  0  0  0  0
 24 22  2  0  0  0  0
 25 24  1  0  0  0  0
 25 20  2  0  0  0  0
 26 25  1  0  0  0  0
 27 29  1  0  0  0  0
 29 28  1  0  0  0  0
 30 31  2  0  0  0  0
 31 16  1  0  0  0  0
 32 30  1  0  0  0  0
M  END
>  <MODEL>
7

>  <REMARK>
 VINA RESULT:      -3.9      3.853      7.029
  Name = 
  3 active torsions:
  status: ('A' for Active; 'I' for Inactive)
    1  A    between atoms: S_15  and  C_26
    2  A    between atoms: C_18  and  C_29
    3  A    between atoms: C_20  and  N_27
                            x       y       z     vdW  Elec       q    Type
                         _______ _______ _______ _____ _____    ______ ____

>  <TORSDO>
F 3

$$$$
