=
 OpenBabel11062409043D

 37 41  0  0  1  0  0  0  0  0999 V2000
  160.4380  208.0110  151.6570 O   0  0  0  0  0  0  0  0  0  0  0  0
  160.7500  212.3430  150.2230 C   0  0  0  0  0  0  0  0  0  0  0  0
  160.8830  211.4500  153.9830 C   0  0  0  0  0  2  0  0  0  0  0  0
  162.2180  210.8480  148.8740 C   0  0  0  0  0  2  0  0  0  0  0  0
  160.5130  211.2680  151.2690 C   0  0  2  0  0  3  0  0  0  0  0  0
  161.4010  212.0860  149.0930 C   0  0  0  0  0  0  0  0  0  0  0  0
  160.1400  211.8140  152.6740 C   0  0  1  0  0  3  0  0  0  0  0  0
  161.4100  213.1440  148.1470 N   0  0  0  0  0  2  0  0  0  0  0  0
  161.7310  209.6650  149.7160 C   0  0  2  0  0  3  0  0  0  0  0  0
  160.1310  214.4530  151.2750 C   0  0  0  0  0  2  0  0  0  0  0  0
  160.3060  214.4500  148.5940 S   0  0  0  0  0  0  0  0  0  0  0  0
  161.9620  210.3740  153.9480 C   0  0  0  0  0  2  0  0  0  0  0  0
  160.1370  213.6800  150.1990 C   0  0  0  0  0  0  0  0  0  0  0  0
  161.5180  210.1100  151.1740 C   0  0  2  0  0  3  0  0  0  0  0  0
  161.4130  209.1080  153.4770 N   0  0  0  0  0  0  0  0  0  0  0  0
  161.1040  208.9920  152.0870 C   0  0  0  0  0  0  0  0  0  0  0  0
  158.6210  211.8890  152.8500 C   0  0  2  0  0  3  0  0  0  0  0  0
  158.0180  212.5180  151.7560 O   0  0  0  0  0  1  0  0  0  0  0  0
  158.6580  213.8260  154.4300 C   0  0  0  0  0  3  0  0  0  0  0  0
  158.2100  212.5340  154.1400 C   0  0  0  0  0  0  0  0  0  0  0  0
  157.3640  211.8750  155.0440 C   0  0  0  0  0  3  0  0  0  0  0  0
  156.1830  211.8570  157.1130 F   0  0  0  0  0  0  0  0  0  0  0  0
  157.4420  213.7900  156.5240 C   0  0  0  0  0  3  0  0  0  0  0  0
  156.9860  212.5020  156.2360 C   0  0  0  0  0  0  0  0  0  0  0  0
  158.2770  214.4530  155.6210 C   0  0  0  0  0  3  0  0  0  0  0  0
  162.7790  208.5600  149.6470 C   0  0  0  0  0  2  0  0  0  0  0  0
  162.5090  207.6320  148.4710 C   0  0  0  0  0  2  0  0  0  0  0  0
  161.0940  207.3060  148.4090 N   0  0  0  0  0  2  0  0  0  0  0  0
  160.9930  205.8860  148.1130 C   0  0  0  0  0  2  0  0  0  0  0  0
  160.8060  204.9540  149.6600 S   0  0  0  0  0  1  0  0  0  0  0  0
  161.3850  207.9260  154.3360 C   0  0  1  0  0  3  0  0  0  0  0  0
  159.4390  209.0480  155.7700 C   0  0  0  0  0  1  0  0  0  0  0  0
  161.5820  208.2170  156.8790 C   0  0  0  0  0  2  0  0  0  0  0  0
  160.7240  208.2430  155.6790 C   0  0  2  0  0  0  0  0  0  0  0  0
  160.7220  207.1460  156.5540 O   0  0  0  0  0  0  0  0  0  0  0  0
  160.7230  206.7480  153.6260 C   0  0  0  0  0  2  0  0  0  0  0  0
  161.7360  205.6590  153.3580 C   0  0  0  0  0  1  0  0  0  0  0  0
  1 16  2  0  0  0  0
  4  6  1  0  0  0  0
  4  9  1  0  0  0  0
  5  2  1  6  0  0  0
  5  7  1  0  0  0  0
  6  2  2  0  0  0  0
  7 17  1  1  0  0  0
  7  3  1  0  0  0  0
  8 11  1  0  0  0  0
  8  6  1  0  0  0  0
  9 26  1  1  0  0  0
  9 14  1  0  0  0  0
 11 13  1  0  0  0  0
 12  3  1  0  0  0  0
 13  2  1  0  0  0  0
 13 10  2  0  0  0  0
 14  5  1  0  0  0  0
 14 16  1  1  0  0  0
 15 12  1  0  0  0  0
 15 31  1  0  0  0  0
 16 15  1  0  0  0  0
 17 18  1  6  0  0  0
 17 20  1  0  0  0  0
 19 25  1  0  0  0  0
 20 19  2  0  0  0  0
 20 21  1  0  0  0  0
 21 24  2  0  0  0  0
 24 23  1  0  0  0  0
 24 22  1  0  0  0  0
 25 23  2  0  0  0  0
 27 26  1  0  0  0  0
 28 27  1  0  0  0  0
 29 28  1  0  0  0  0
 29 30  1  0  0  0  0
 31 36  1  6  0  0  0
 31 34  1  0  0  0  0
 34 32  1  1  0  0  0
 34 35  1  0  0  0  0
 34 33  1  0  0  0  0
 35 33  1  0  0  0  0
 37 36  1  0  0  0  0
M  END
>  <MODEL>
1

>  <REMARK>
 VINA RESULT:      -5.0      0.000      0.000
  Name = 
  9 active torsions:
  status: ('A' for Active; 'I' for Inactive)
    1  A    between atoms: C_3  and  N_21
    2  A    between atoms: C_6  and  C_31
    3  A    between atoms: C_11  and  C_26
    4  A    between atoms: C_14  and  C_31
    5  A    between atoms: C_17  and  C_26
    6  A    between atoms: C_20  and  C_25
    7  A    between atoms: N_21  and  C_30
    8  A    between atoms: C_25  and  C_30
    9  A    between atoms: C_26  and  N_33
                            x       y       z     vdW  Elec       q    Type
                         _______ _______ _______ _____ _____    ______ ____

>  <TORSDO>
F 9

$$$$
=
 OpenBabel11062409043D

 37 41  0  0  1  0  0  0  0  0999 V2000
  159.4980  205.2040  149.5340 O   0  0  0  0  0  0  0  0  0  0  0  0
  161.8510  209.0950  150.0310 C   0  0  0  0  0  0  0  0  0  0  0  0
  162.1890  206.1960  152.5680 C   0  0  0  0  0  2  0  0  0  0  0  0
  161.9690  208.2740  147.6810 C   0  0  0  0  0  2  0  0  0  0  0  0
  161.2690  207.7820  150.5250 C   0  0  2  0  0  3  0  0  0  0  0  0
  162.0240  209.3380  148.7360 C   0  0  0  0  0  0  0  0  0  0  0  0
  161.5340  207.4910  152.0270 C   0  0  1  0  0  3  0  0  0  0  0  0
  162.4300  210.6600  148.4190 N   0  0  0  0  0  2  0  0  0  0  0  0
  161.0860  207.0900  148.0860 C   0  0  2  0  0  3  0  0  0  0  0  0
  162.7050  210.2380  152.0080 C   0  0  0  0  0  2  0  0  0  0  0  0
  162.3320  211.7430  149.8130 S   0  0  0  0  0  0  0  0  0  0  0  0
  162.4730  205.0490  151.6040 C   0  0  0  0  0  2  0  0  0  0  0  0
  162.0800  210.3010  150.8410 C   0  0  0  0  0  0  0  0  0  0  0  0
  161.4350  206.6370  149.5140 C   0  0  2  0  0  3  0  0  0  0  0  0
  161.2420  204.5950  150.9680 N   0  0  0  0  0  0  0  0  0  0  0  0
  160.6600  205.4330  149.9670 C   0  0  0  0  0  0  0  0  0  0  0  0
  160.3720  207.9790  152.8960 C   0  0  2  0  0  3  0  0  0  0  0  0
  159.9080  209.2250  152.4610 O   0  0  0  0  0  1  0  0  0  0  0  0
  160.1490  207.0310  155.1980 C   0  0  0  0  0  3  0  0  0  0  0  0
  160.7010  208.0030  154.3580 C   0  0  0  0  0  0  0  0  0  0  0  0
  161.5750  208.9620  154.8900 C   0  0  0  0  0  3  0  0  0  0  0  0
  162.7060  209.8950  156.7690 F   0  0  0  0  0  0  0  0  0  0  0  0
  161.3150  207.9890  157.0930 C   0  0  0  0  0  3  0  0  0  0  0  0
  161.8760  208.9570  156.2560 C   0  0  0  0  0  0  0  0  0  0  0  0
  160.4530  207.0250  156.5630 C   0  0  0  0  0  3  0  0  0  0  0  0
  161.3210  205.9540  147.0970 C   0  0  0  0  0  2  0  0  0  0  0  0
  160.4650  206.1350  145.8520 C   0  0  0  0  0  2  0  0  0  0  0  0
  160.9070  205.2270  144.8070 N   0  0  0  0  0  2  0  0  0  0  0  0
  161.5720  204.1120  145.4600 C   0  0  0  0  0  2  0  0  0  0  0  0
  160.5660  202.6120  145.2740 S   0  0  0  0  0  1  0  0  0  0  0  0
  160.7360  203.2390  151.1740 C   0  0  1  0  0  3  0  0  0  0  0  0
  161.7860  202.7400  148.7770 C   0  0  0  0  0  1  0  0  0  0  0  0
  159.5470  201.7310  149.4710 C   0  0  0  0  0  2  0  0  0  0  0  0
  160.7790  202.4360  149.8730 C   0  0  2  0  0  0  0  0  0  0  0  0
  160.6270  201.0570  150.0830 O   0  0  0  0  0  0  0  0  0  0  0  0
  161.4810  202.5440  152.3110 C   0  0  0  0  0  2  0  0  0  0  0  0
  162.6280  201.7260  151.7640 C   0  0  0  0  0  1  0  0  0  0  0  0
  1 16  2  0  0  0  0
  2 13  1  0  0  0  0
  4  9  1  0  0  0  0
  4  6  1  0  0  0  0
  5  2  1  6  0  0  0
  5  7  1  0  0  0  0
  6  2  2  0  0  0  0
  7  3  1  0  0  0  0
  7 17  1  1  0  0  0
  8  6  1  0  0  0  0
  8 11  1  0  0  0  0
  9 26  1  6  0  0  0
  9 14  1  0  0  0  0
 11 13  1  0  0  0  0
 12  3  1  0  0  0  0
 13 10  2  0  0  0  0
 14 16  1  1  0  0  0
 14  5  1  0  0  0  0
 15 31  1  0  0  0  0
 15 12  1  0  0  0  0
 16 15  1  0  0  0  0
 17 18  1  6  0  0  0
 17 20  1  0  0  0  0
 19 25  1  0  0  0  0
 20 21  1  0  0  0  0
 20 19  2  0  0  0  0
 21 24  2  0  0  0  0
 24 22  1  0  0  0  0
 24 23  1  0  0  0  0
 25 23  2  0  0  0  0
 27 26  1  0  0  0  0
 28 29  1  0  0  0  0
 28 27  1  0  0  0  0
 30 29  1  0  0  0  0
 31 36  1  1  0  0  0
 33 34  1  0  0  0  0
 33 35  1  0  0  0  0
 34 32  1  6  0  0  0
 34 35  1  0  0  0  0
 34 31  1  0  0  0  0
 37 36  1  0  0  0  0
M  END
>  <MODEL>
2

>  <REMARK>
 VINA RESULT:      -4.7      3.620      5.434
  Name = 
  9 active torsions:
  status: ('A' for Active; 'I' for Inactive)
    1  A    between atoms: C_3  and  N_21
    2  A    between atoms: C_6  and  C_31
    3  A    between atoms: C_11  and  C_26
    4  A    between atoms: C_14  and  C_31
    5  A    between atoms: C_17  and  C_26
    6  A    between atoms: C_20  and  C_25
    7  A    between atoms: N_21  and  C_30
    8  A    between atoms: C_25  and  C_30
    9  A    between atoms: C_26  and  N_33
                            x       y       z     vdW  Elec       q    Type
                         _______ _______ _______ _____ _____    ______ ____

>  <TORSDO>
F 9

$$$$
=
 OpenBabel11062409043D

 37 41  0  0  1  0  0  0  0  0999 V2000
  159.3620  208.7910  153.4170 O   0  0  0  0  0  0  0  0  0  0  0  0
  160.7890  212.0460  150.5370 C   0  0  0  0  0  0  0  0  0  0  0  0
  160.0310  212.8290  154.2470 C   0  0  0  0  0  2  0  0  0  0  0  0
  162.1600  209.9780  150.2990 C   0  0  0  0  0  2  0  0  0  0  0  0
  160.1510  211.5480  151.8220 C   0  0  2  0  0  3  0  0  0  0  0  0
  161.5770  211.2670  149.8020 C   0  0  0  0  0  0  0  0  0  0  0  0
  159.6350  212.6750  152.7570 C   0  0  1  0  0  3  0  0  0  0  0  0
  161.9740  211.8150  148.5550 N   0  0  0  0  0  2  0  0  0  0  0  0
  161.2980  209.3220  151.3820 C   0  0  2  0  0  3  0  0  0  0  0  0
  160.4130  214.4530  150.4870 C   0  0  0  0  0  2  0  0  0  0  0  0
  161.0860  213.2910  148.1600 S   0  0  0  0  0  0  0  0  0  0  0  0
  160.8630  211.7370  154.9100 C   0  0  0  0  0  2  0  0  0  0  0  0
  160.4680  213.3000  149.8390 C   0  0  0  0  0  0  0  0  0  0  0  0
  160.9070  210.3640  152.4450 C   0  0  2  0  0  3  0  0  0  0  0  0
  160.1730  210.4540  154.8470 N   0  0  0  0  0  0  0  0  0  0  0  0
  160.1150  209.7890  153.5840 C   0  0  0  0  0  0  0  0  0  0  0  0
  158.1560  212.9710  152.4990 C   0  0  2  0  0  3  0  0  0  0  0  0
  157.9800  214.2760  152.0270 O   0  0  0  0  0  1  0  0  0  0  0  0
  156.9340  213.7640  154.5300 C   0  0  0  0  0  3  0  0  0  0  0  0
  157.2860  212.7030  153.6900 C   0  0  0  0  0  0  0  0  0  0  0  0
  156.7970  211.4160  153.9580 C   0  0  0  0  0  3  0  0  0  0  0  0
  155.5210  209.9480  155.3340 F   0  0  0  0  0  0  0  0  0  0  0  0
  155.6350  212.2560  155.9100 C   0  0  0  0  0  3  0  0  0  0  0  0
  155.9770  211.1940  155.0690 C   0  0  0  0  0  0  0  0  0  0  0  0
  156.1120  213.5410  155.6390 C   0  0  0  0  0  3  0  0  0  0  0  0
  162.1010  208.1930  152.0180 C   0  0  0  0  0  2  0  0  0  0  0  0
  161.4340  206.8480  151.7650 C   0  0  0  0  0  2  0  0  0  0  0  0
  162.0210  205.8320  152.6240 N   0  0  0  0  0  2  0  0  0  0  0  0
  161.0860  204.7210  152.6750 C   0  0  0  0  0  2  0  0  0  0  0  0
  161.1750  203.7810  151.1240 S   0  0  0  0  0  1  0  0  0  0  0  0
  159.7500  209.7590  156.0620 C   0  0  1  0  0  3  0  0  0  0  0  0
  162.1200  208.5960  156.4250 C   0  0  0  0  0  1  0  0  0  0  0  0
  160.0370  207.2120  155.9190 C   0  0  0  0  0  2  0  0  0  0  0  0
  160.6080  208.5160  156.3070 C   0  0  2  0  0  0  0  0  0  0  0  0
  160.0490  207.6530  157.2610 O   0  0  0  0  0  0  0  0  0  0  0  0
  159.7440  210.7060  157.2600 C   0  0  0  0  0  2  0  0  0  0  0  0
  158.4860  211.5440  157.2610 C   0  0  0  0  0  1  0  0  0  0  0  0
  1 16  2  0  0  0  0
  3 12  1  0  0  0  0
  4  9  1  0  0  0  0
  5  2  1  6  0  0  0
  5 14  1  0  0  0  0
  5  7  1  0  0  0  0
  6  4  1  0  0  0  0
  6  2  2  0  0  0  0
  7 17  1  1  0  0  0
  7  3  1  0  0  0  0
  8  6  1  0  0  0  0
  9 26  1  1  0  0  0
  9 14  1  0  0  0  0
 11  8  1  0  0  0  0
 11 13  1  0  0  0  0
 13 10  2  0  0  0  0
 13  2  1  0  0  0  0
 14 16  1  1  0  0  0
 15 12  1  0  0  0  0
 15 31  1  0  0  0  0
 16 15  1  0  0  0  0
 17 18  1  1  0  0  0
 17 20  1  0  0  0  0
 19 25  1  0  0  0  0
 20 21  1  0  0  0  0
 20 19  2  0  0  0  0
 21 24  2  0  0  0  0
 24 22  1  0  0  0  0
 24 23  1  0  0  0  0
 25 23  2  0  0  0  0
 27 26  1  0  0  0  0
 27 28  1  0  0  0  0
 28 29  1  0  0  0  0
 30 29  1  0  0  0  0
 31 34  1  0  0  0  0
 31 36  1  1  0  0  0
 33 34  1  0  0  0  0
 33 35  1  0  0  0  0
 34 32  1  6  0  0  0
 34 35  1  0  0  0  0
 36 37  1  0  0  0  0
M  END
>  <MODEL>
3

>  <REMARK>
 VINA RESULT:      -4.7      1.771      2.593
  Name = 
  9 active torsions:
  status: ('A' for Active; 'I' for Inactive)
    1  A    between atoms: C_3  and  N_21
    2  A    between atoms: C_6  and  C_31
    3  A    between atoms: C_11  and  C_26
    4  A    between atoms: C_14  and  C_31
    5  A    between atoms: C_17  and  C_26
    6  A    between atoms: C_20  and  C_25
    7  A    between atoms: N_21  and  C_30
    8  A    between atoms: C_25  and  C_30
    9  A    between atoms: C_26  and  N_33
                            x       y       z     vdW  Elec       q    Type
                         _______ _______ _______ _____ _____    ______ ____

>  <TORSDO>
F 9

$$$$
=
 OpenBabel11062409043D

 37 41  0  0  1  0  0  0  0  0999 V2000
  160.0820  208.7000  152.1840 O   0  0  0  0  0  0  0  0  0  0  0  0
  161.0420  204.4500  150.7900 C   0  0  0  0  0  0  0  0  0  0  0  0
  162.8200  207.5240  149.2590 C   0  0  0  0  0  2  0  0  0  0  0  0
  160.9690  204.5790  153.2770 C   0  0  0  0  0  2  0  0  0  0  0  0
  161.0420  205.9630  150.6500 C   0  0  2  0  0  3  0  0  0  0  0  0
  160.8680  203.8570  151.9670 C   0  0  0  0  0  0  0  0  0  0  0  0
  161.6760  206.4820  149.3320 C   0  0  1  0  0  3  0  0  0  0  0  0
  160.7360  202.4460  151.9180 N   0  0  0  0  0  2  0  0  0  0  0  0
  160.6310  206.0680  153.1570 C   0  0  2  0  0  3  0  0  0  0  0  0
  161.8300  203.5780  148.6550 C   0  0  0  0  0  2  0  0  0  0  0  0
  160.5540  201.8470  150.2660 S   0  0  0  0  0  0  0  0  0  0  0  0
  163.2780  208.2130  150.5390 C   0  0  0  0  0  2  0  0  0  0  0  0
  161.0060  203.4780  149.6870 C   0  0  0  0  0  0  0  0  0  0  0  0
  161.3830  206.6840  151.9640 C   0  0  2  0  0  3  0  0  0  0  0  0
  162.1720  208.9310  151.1620 N   0  0  0  0  0  0  0  0  0  0  0  0
  161.1610  208.1610  151.8130 C   0  0  0  0  0  0  0  0  0  0  0  0
  160.6100  206.6900  148.2530 C   0  0  2  0  0  3  0  0  0  0  0  0
  159.3720  206.1860  148.6650 O   0  0  0  0  0  1  0  0  0  0  0  0
  160.1270  206.2510  145.8400 C   0  0  0  0  0  3  0  0  0  0  0  0
  161.0070  206.1300  146.9200 C   0  0  0  0  0  0  0  0  0  0  0  0
  162.2540  205.5170  146.7310 C   0  0  0  0  0  3  0  0  0  0  0  0
  163.8030  204.4060  145.3010 F   0  0  0  0  0  0  0  0  0  0  0  0
  161.7200  205.1290  144.4010 C   0  0  0  0  0  3  0  0  0  0  0  0
  162.6060  205.0130  145.4750 C   0  0  0  0  0  0  0  0  0  0  0  0
  160.4810  205.7490  144.5840 C   0  0  0  0  0  3  0  0  0  0  0  0
  161.0360  206.7600  154.4530 C   0  0  0  0  0  2  0  0  0  0  0  0
  159.8200  207.0140  155.3330 C   0  0  0  0  0  2  0  0  0  0  0  0
  160.2310  207.1530  156.7210 N   0  0  0  0  0  2  0  0  0  0  0  0
  161.3070  208.1300  156.7540 C   0  0  0  0  0  2  0  0  0  0  0  0
  160.6460  209.7440  157.2580 S   0  0  0  0  0  1  0  0  0  0  0  0
  162.2010  210.3840  151.3150 C   0  0  1  0  0  3  0  0  0  0  0  0
  160.4860  212.0830  150.1860 C   0  0  0  0  0  1  0  0  0  0  0  0
  161.7910  210.3980  148.7810 C   0  0  0  0  0  2  0  0  0  0  0  0
  161.6170  211.0750  150.0810 C   0  0  2  0  0  0  0  0  0  0  0  0
  162.6060  211.4830  149.1720 O   0  0  0  0  0  0  0  0  0  0  0  0
  161.5050  210.8130  152.6050 C   0  0  0  0  0  2  0  0  0  0  0  0
  162.3750  210.5000  153.8010 C   0  0  0  0  0  1  0  0  0  0  0  0
  2  6  2  0  0  0  0
  3  7  1  0  0  0  0
  3 12  1  0  0  0  0
  5  2  1  1  0  0  0
  5 14  1  0  0  0  0
  6  4  1  0  0  0  0
  7 17  1  6  0  0  0
  7  5  1  0  0  0  0
  8  6  1  0  0  0  0
  9  4  1  0  0  0  0
  9 26  1  1  0  0  0
 10 13  2  0  0  0  0
 11  8  1  0  0  0  0
 12 15  1  0  0  0  0
 13 11  1  0  0  0  0
 13  2  1  0  0  0  0
 14 16  1  6  0  0  0
 14  9  1  0  0  0  0
 15 31  1  0  0  0  0
 15 16  1  0  0  0  0
 16  1  2  0  0  0  0
 17 18  1  1  0  0  0
 19 20  1  0  0  0  0
 20 17  1  0  0  0  0
 21 20  2  0  0  0  0
 22 24  1  0  0  0  0
 23 25  1  0  0  0  0
 23 24  2  0  0  0  0
 24 21  1  0  0  0  0
 25 19  2  0  0  0  0
 26 27  1  0  0  0  0
 27 28  1  0  0  0  0
 28 29  1  0  0  0  0
 29 30  1  0  0  0  0
 31 36  1  1  0  0  0
 33 35  1  0  0  0  0
 33 34  1  0  0  0  0
 34 32  1  1  0  0  0
 34 31  1  0  0  0  0
 35 34  1  0  0  0  0
 36 37  1  0  0  0  0
M  END
>  <MODEL>
4

>  <REMARK>
 VINA RESULT:      -4.3      4.231      8.809
  Name = 
  9 active torsions:
  status: ('A' for Active; 'I' for Inactive)
    1  A    between atoms: C_3  and  N_21
    2  A    between atoms: C_6  and  C_31
    3  A    between atoms: C_11  and  C_26
    4  A    between atoms: C_14  and  C_31
    5  A    between atoms: C_17  and  C_26
    6  A    between atoms: C_20  and  C_25
    7  A    between atoms: N_21  and  C_30
    8  A    between atoms: C_25  and  C_30
    9  A    between atoms: C_26  and  N_33
                            x       y       z     vdW  Elec       q    Type
                         _______ _______ _______ _____ _____    ______ ____

>  <TORSDO>
F 9

$$$$
=
 OpenBabel11062409043D

 37 41  0  0  1  0  0  0  0  0999 V2000
  160.0240  209.6060  151.6510 O   0  0  0  0  0  0  0  0  0  0  0  0
  161.2070  205.2180  151.1340 C   0  0  0  0  0  0  0  0  0  0  0  0
  162.7020  207.9870  148.8870 C   0  0  0  0  0  2  0  0  0  0  0  0
  161.2360  205.8730  153.5380 C   0  0  0  0  0  2  0  0  0  0  0  0
  161.0980  206.6630  150.6780 C   0  0  2  0  0  3  0  0  0  0  0  0
  161.1260  204.8830  152.4170 C   0  0  0  0  0  0  0  0  0  0  0  0
  161.6360  206.9220  149.2450 C   0  0  1  0  0  3  0  0  0  0  0  0
  161.0880  203.4880  152.6760 N   0  0  0  0  0  2  0  0  0  0  0  0
  160.7930  207.2800  153.1250 C   0  0  2  0  0  3  0  0  0  0  0  0
  161.9560  203.9540  149.1890 C   0  0  0  0  0  2  0  0  0  0  0  0
  160.8730  202.5390  151.2010 S   0  0  0  0  0  0  0  0  0  0  0  0
  163.1700  208.9600  149.9640 C   0  0  0  0  0  2  0  0  0  0  0  0
  161.1870  204.0310  150.2650 C   0  0  0  0  0  0  0  0  0  0  0  0
  161.4480  207.6670  151.7870 C   0  0  2  0  0  3  0  0  0  0  0  0
  162.0460  209.7310  150.4840 N   0  0  0  0  0  0  0  0  0  0  0  0
  161.1190  209.0630  151.3410 C   0  0  0  0  0  0  0  0  0  0  0  0
  160.5110  206.8330  148.2100 C   0  0  2  0  0  3  0  0  0  0  0  0
  159.3830  206.2030  148.7460 O   0  0  0  0  0  1  0  0  0  0  0  0
  160.0790  206.2040  145.8300 C   0  0  0  0  0  3  0  0  0  0  0  0
  160.9410  206.1790  146.9310 C   0  0  0  0  0  0  0  0  0  0  0  0
  162.2000  205.5730  146.8120 C   0  0  0  0  0  3  0  0  0  0  0  0
  163.7900  204.3810  145.4980 F   0  0  0  0  0  0  0  0  0  0  0  0
  161.7150  205.0000  144.5090 C   0  0  0  0  0  3  0  0  0  0  0  0
  162.5820  204.9800  145.6040 C   0  0  0  0  0  0  0  0  0  0  0  0
  160.4640  205.6130  144.6220 C   0  0  0  0  0  3  0  0  0  0  0  0
  161.2080  208.2560  154.2200 C   0  0  0  0  0  2  0  0  0  0  0  0
  160.9870  207.6490  155.5980 C   0  0  0  0  0  2  0  0  0  0  0  0
  161.7520  208.3810  156.5940 N   0  0  0  0  0  2  0  0  0  0  0  0
  161.5570  209.7970  156.3290 C   0  0  0  0  0  2  0  0  0  0  0  0
  163.0810  210.7030  156.7200 S   0  0  0  0  0  1  0  0  0  0  0  0
  161.9840  211.1830  150.3250 C   0  0  1  0  0  3  0  0  0  0  0  0
  160.9380  211.0010  147.8800 C   0  0  0  0  0  1  0  0  0  0  0  0
  163.2240  212.0710  148.2600 C   0  0  0  0  0  2  0  0  0  0  0  0
  161.9660  211.5690  148.8440 C   0  0  2  0  0  0  0  0  0  0  0  0
  162.1780  212.9400  148.6410 O   0  0  0  0  0  0  0  0  0  0  0  0
  160.8010  211.7670  151.0920 C   0  0  0  0  0  2  0  0  0  0  0  0
  160.4010  213.1010  150.5050 C   0  0  0  0  0  1  0  0  0  0  0  0
  2  6  2  0  0  0  0
  3  7  1  0  0  0  0
  3 12  1  0  0  0  0
  5  2  1  1  0  0  0
  5 14  1  0  0  0  0
  6  8  1  0  0  0  0
  6  4  1  0  0  0  0
  7 17  1  6  0  0  0
  7  5  1  0  0  0  0
  9  4  1  0  0  0  0
  9 26  1  1  0  0  0
 10 13  2  0  0  0  0
 11  8  1  0  0  0  0
 12 15  1  0  0  0  0
 13  2  1  0  0  0  0
 13 11  1  0  0  0  0
 14 16  1  6  0  0  0
 14  9  1  0  0  0  0
 15 16  1  0  0  0  0
 16  1  2  0  0  0  0
 17 18  1  1  0  0  0
 19 20  1  0  0  0  0
 20 17  1  0  0  0  0
 21 20  2  0  0  0  0
 22 24  1  0  0  0  0
 23 25  1  0  0  0  0
 23 24  2  0  0  0  0
 24 21  1  0  0  0  0
 25 19  2  0  0  0  0
 26 27  1  0  0  0  0
 27 28  1  0  0  0  0
 29 28  1  0  0  0  0
 29 30  1  0  0  0  0
 31 15  1  0  0  0  0
 31 36  1  1  0  0  0
 33 35  1  0  0  0  0
 33 34  1  0  0  0  0
 34 32  1  6  0  0  0
 34 31  1  0  0  0  0
 35 34  1  0  0  0  0
 37 36  1  0  0  0  0
M  END
>  <MODEL>
5

>  <REMARK>
 VINA RESULT:      -3.8      4.113      8.873
  Name = 
  9 active torsions:
  status: ('A' for Active; 'I' for Inactive)
    1  A    between atoms: C_3  and  N_21
    2  A    between atoms: C_6  and  C_31
    3  A    between atoms: C_11  and  C_26
    4  A    between atoms: C_14  and  C_31
    5  A    between atoms: C_17  and  C_26
    6  A    between atoms: C_20  and  C_25
    7  A    between atoms: N_21  and  C_30
    8  A    between atoms: C_25  and  C_30
    9  A    between atoms: C_26  and  N_33
                            x       y       z     vdW  Elec       q    Type
                         _______ _______ _______ _____ _____    ______ ____

>  <TORSDO>
F 9

$$$$
=
 OpenBabel11062409043D

 37 41  0  0  1  0  0  0  0  0999 V2000
  163.3520  210.3490  152.2440 O   0  0  0  0  0  0  0  0  0  0  0  0
  161.4470  207.4050  149.3070 C   0  0  0  0  0  0  0  0  0  0  0  0
  160.2170  207.6870  152.9620 C   0  0  0  0  0  2  0  0  0  0  0  0
  161.7350  209.6490  148.2620 C   0  0  0  0  0  2  0  0  0  0  0  0
  161.7420  207.9460  150.6950 C   0  0  2  0  0  3  0  0  0  0  0  0
  161.5870  208.1570  148.2200 C   0  0  0  0  0  0  0  0  0  0  0  0
  161.1280  207.1100  151.8500 C   0  0  1  0  0  3  0  0  0  0  0  0
  161.4250  207.4740  146.9870 N   0  0  0  0  0  2  0  0  0  0  0  0
  162.3570  210.1420  149.5710 C   0  0  2  0  0  3  0  0  0  0  0  0
  160.3370  205.2610  149.6430 C   0  0  0  0  0  2  0  0  0  0  0  0
  161.3550  205.7210  147.1990 S   0  0  0  0  0  0  0  0  0  0  0  0
  160.0080  209.1950  153.0420 C   0  0  0  0  0  2  0  0  0  0  0  0
  161.2010  205.9980  148.9590 C   0  0  0  0  0  0  0  0  0  0  0  0
  161.6570  209.4780  150.7700 C   0  0  2  0  0  3  0  0  0  0  0  0
  161.2810  209.8830  153.2220 N   0  0  0  0  0  0  0  0  0  0  0  0
  162.1620  209.9580  152.1000 C   0  0  0  0  0  0  0  0  0  0  0  0
  162.1280  206.0760  152.3740 C   0  0  2  0  0  3  0  0  0  0  0  0
  163.3800  206.2370  151.7710 O   0  0  0  0  0  1  0  0  0  0  0  0
  160.4540  204.2910  152.8820 C   0  0  0  0  0  3  0  0  0  0  0  0
  161.6390  204.6650  152.2410 C   0  0  0  0  0  0  0  0  0  0  0  0
  162.3310  203.7270  151.4620 C   0  0  0  0  0  3  0  0  0  0  0  0
  162.5280  201.5120  150.6050 F   0  0  0  0  0  0  0  0  0  0  0  0
  160.6690  202.0480  151.9920 C   0  0  0  0  0  3  0  0  0  0  0  0
  161.8480  202.4200  151.3430 C   0  0  0  0  0  0  0  0  0  0  0  0
  159.9710  202.9840  152.7610 C   0  0  0  0  0  3  0  0  0  0  0  0
  162.2010  211.6570  149.6390 C   0  0  0  0  0  2  0  0  0  0  0  0
  162.4040  212.2830  148.2660 C   0  0  0  0  0  2  0  0  0  0  0  0
  161.6280  213.5070  148.1570 N   0  0  0  0  0  2  0  0  0  0  0  0
  160.2510  213.1200  147.9000 C   0  0  0  0  0  2  0  0  0  0  0  0
  160.0850  212.5780  146.1750 S   0  0  0  0  0  1  0  0  0  0  0  0
  161.5590  210.6610  154.4280 C   0  0  1  0  0  3  0  0  0  0  0  0
  159.3290  210.4670  155.8740 C   0  0  0  0  0  1  0  0  0  0  0  0
  159.7020  212.4280  154.2850 C   0  0  0  0  0  2  0  0  0  0  0  0
  160.2730  211.2680  154.9940 C   0  0  2  0  0  0  0  0  0  0  0  0
  160.4560  212.5750  155.4700 O   0  0  0  0  0  0  0  0  0  0  0  0
  162.3100  209.8230  155.4590 C   0  0  0  0  0  2  0  0  0  0  0  0
  163.2090  210.7030  156.2970 C   0  0  0  0  0  1  0  0  0  0  0  0
  3 12  1  0  0  0  0
  4  9  1  0  0  0  0
  5  2  1  6  0  0  0
  5 14  1  0  0  0  0
  5  7  1  0  0  0  0
  6  4  1  0  0  0  0
  6  2  2  0  0  0  0
  7 17  1  1  0  0  0
  7  3  1  0  0  0  0
  8 11  1  0  0  0  0
  8  6  1  0  0  0  0
  9 26  1  1  0  0  0
  9 14  1  0  0  0  0
 11 13  1  0  0  0  0
 12 15  1  0  0  0  0
 13  2  1  0  0  0  0
 13 10  2  0  0  0  0
 14 16  1  1  0  0  0
 15 31  1  0  0  0  0
 16  1  2  0  0  0  0
 16 15  1  0  0  0  0
 17 18  1  6  0  0  0
 20 17  1  0  0  0  0
 20 19  2  0  0  0  0
 21 20  1  0  0  0  0
 22 24  1  0  0  0  0
 23 25  2  0  0  0  0
 24 21  2  0  0  0  0
 24 23  1  0  0  0  0
 25 19  1  0  0  0  0
 27 26  1  0  0  0  0
 28 27  1  0  0  0  0
 29 28  1  0  0  0  0
 30 29  1  0  0  0  0
 31 34  1  0  0  0  0
 31 36  1  1  0  0  0
 33 34  1  0  0  0  0
 33 35  1  0  0  0  0
 34 35  1  0  0  0  0
 34 32  1  1  0  0  0
 36 37  1  0  0  0  0
M  END
>  <MODEL>
6

>  <REMARK>
 VINA RESULT:      -3.2      3.187      6.874
  Name = 
  9 active torsions:
  status: ('A' for Active; 'I' for Inactive)
    1  A    between atoms: C_3  and  N_21
    2  A    between atoms: C_6  and  C_31
    3  A    between atoms: C_11  and  C_26
    4  A    between atoms: C_14  and  C_31
    5  A    between atoms: C_17  and  C_26
    6  A    between atoms: C_20  and  C_25
    7  A    between atoms: N_21  and  C_30
    8  A    between atoms: C_25  and  C_30
    9  A    between atoms: C_26  and  N_33
                            x       y       z     vdW  Elec       q    Type
                         _______ _______ _______ _____ _____    ______ ____

>  <TORSDO>
F 9

$$$$
=
 OpenBabel11062409043D

 37 41  0  0  1  0  0  0  0  0999 V2000
  158.5900  211.6670  151.5220 O   0  0  0  0  0  0  0  0  0  0  0  0
  160.4370  209.0500  154.7880 C   0  0  0  0  0  0  0  0  0  0  0  0
  162.1900  209.5560  151.3790 C   0  0  0  0  0  2  0  0  0  0  0  0
  159.6220  211.2090  155.7280 C   0  0  0  0  0  2  0  0  0  0  0  0
  160.2900  209.5460  153.3600 C   0  0  2  0  0  3  0  0  0  0  0  0
  160.0000  209.7610  155.8230 C   0  0  0  0  0  0  0  0  0  0  0  0
  161.2130  208.8300  152.3370 C   0  0  1  0  0  3  0  0  0  0  0  0
  160.0650  209.1030  157.0780 N   0  0  0  0  0  2  0  0  0  0  0  0
  159.1520  211.6040  154.3250 C   0  0  2  0  0  3  0  0  0  0  0  0
  161.9180  207.1170  154.6800 C   0  0  0  0  0  2  0  0  0  0  0  0
  160.4510  207.3870  156.9150 S   0  0  0  0  0  0  0  0  0  0  0  0
  162.1630  211.0780  151.3050 C   0  0  0  0  0  2  0  0  0  0  0  0
  160.8470  207.6980  155.1980 C   0  0  0  0  0  0  0  0  0  0  0  0
  160.1380  211.0720  153.2710 C   0  0  2  0  0  3  0  0  0  0  0  0
  160.8430  211.5520  150.9060 N   0  0  0  0  0  0  0  0  0  0  0  0
  159.7890  211.4740  151.8660 C   0  0  0  0  0  0  0  0  0  0  0  0
  160.4940  207.6520  151.6770 C   0  0  2  0  0  3  0  0  0  0  0  0
  160.4440  206.5480  152.5350 O   0  0  0  0  0  1  0  0  0  0  0  0
  161.8490  208.2150  149.6530 C   0  0  0  0  0  3  0  0  0  0  0  0
  161.0770  207.2780  150.3460 C   0  0  0  0  0  0  0  0  0  0  0  0
  160.8860  206.0000  149.8030 C   0  0  0  0  0  3  0  0  0  0  0  0
  161.2480  204.4430  148.0360 F   0  0  0  0  0  0  0  0  0  0  0  0
  162.2140  206.6140  147.8730 C   0  0  0  0  0  3  0  0  0  0  0  0
  161.4490  205.6720  148.5650 C   0  0  0  0  0  0  0  0  0  0  0  0
  162.4150  207.8850  148.4180 C   0  0  0  0  0  3  0  0  0  0  0  0
  159.0700  213.1250  154.2550 C   0  0  0  0  0  2  0  0  0  0  0  0
  158.3570  213.6840  155.4780 C   0  0  0  0  0  2  0  0  0  0  0  0
  157.0050  214.0860  155.1250 N   0  0  0  0  0  2  0  0  0  0  0  0
  156.1980  213.9810  156.3290 C   0  0  0  0  0  2  0  0  0  0  0  0
  155.8660  212.2330  156.6870 S   0  0  0  0  0  1  0  0  0  0  0  0
  160.6450  212.2830  149.6560 C   0  0  1  0  0  3  0  0  0  0  0  0
  160.3040  214.4490  151.1710 C   0  0  0  0  0  1  0  0  0  0  0  0
  158.7270  213.9360  149.2320 C   0  0  0  0  0  2  0  0  0  0  0  0
  160.0000  213.6460  149.9180 C   0  0  2  0  0  0  0  0  0  0  0  0
  159.9570  214.4530  148.7720 O   0  0  0  0  0  0  0  0  0  0  0  0
  161.9520  212.3990  148.8770 C   0  0  0  0  0  2  0  0  0  0  0  0
  161.9620  211.4260  147.7200 C   0  0  0  0  0  1  0  0  0  0  0  0
  1 16  2  0  0  0  0
  2 13  1  0  0  0  0
  2  6  2  0  0  0  0
  3  7  1  0  0  0  0
  4  6  1  0  0  0  0
  5  2  1  1  0  0  0
  6  8  1  0  0  0  0
  7 17  1  6  0  0  0
  7  5  1  0  0  0  0
  9 26  1  1  0  0  0
  9  4  1  0  0  0  0
 10 13  2  0  0  0  0
 11  8  1  0  0  0  0
 12  3  1  0  0  0  0
 13 11  1  0  0  0  0
 14 16  1  6  0  0  0
 14  5  1  0  0  0  0
 14  9  1  0  0  0  0
 15 12  1  0  0  0  0
 15 16  1  0  0  0  0
 17 18  1  1  0  0  0
 19 20  1  0  0  0  0
 20 17  1  0  0  0  0
 21 20  2  0  0  0  0
 22 24  1  0  0  0  0
 23 25  1  0  0  0  0
 23 24  2  0  0  0  0
 24 21  1  0  0  0  0
 25 19  2  0  0  0  0
 26 27  1  0  0  0  0
 28 27  1  0  0  0  0
 28 29  1  0  0  0  0
 29 30  1  0  0  0  0
 31 36  1  1  0  0  0
 31 34  1  0  0  0  0
 31 15  1  0  0  0  0
 33 34  1  0  0  0  0
 34 32  1  1  0  0  0
 35 33  1  0  0  0  0
 35 34  1  0  0  0  0
 37 36  1  0  0  0  0
M  END
>  <MODEL>
7

>  <REMARK>
 VINA RESULT:      -2.9      3.462      8.125
  Name = 
  9 active torsions:
  status: ('A' for Active; 'I' for Inactive)
    1  A    between atoms: C_3  and  N_21
    2  A    between atoms: C_6  and  C_31
    3  A    between atoms: C_11  and  C_26
    4  A    between atoms: C_14  and  C_31
    5  A    between atoms: C_17  and  C_26
    6  A    between atoms: C_20  and  C_25
    7  A    between atoms: N_21  and  C_30
    8  A    between atoms: C_25  and  C_30
    9  A    between atoms: C_26  and  N_33
                            x       y       z     vdW  Elec       q    Type
                         _______ _______ _______ _____ _____    ______ ____

>  <TORSDO>
F 9

$$$$
=
 OpenBabel11062409043D

 37 41  0  0  1  0  0  0  0  0999 V2000
  162.3380  205.0350  152.2960 O   0  0  0  0  0  0  0  0  0  0  0  0
  161.5820  209.1730  150.4980 C   0  0  0  0  0  0  0  0  0  0  0  0
  160.2000  205.9680  148.8320 C   0  0  0  0  0  2  0  0  0  0  0  0
  161.1700  209.1780  152.9550 C   0  0  0  0  0  2  0  0  0  0  0  0
  161.6400  207.6560  150.4490 C   0  0  2  0  0  3  0  0  0  0  0  0
  161.5110  209.8320  151.6500 C   0  0  0  0  0  0  0  0  0  0  0  0
  161.2870  207.0470  149.0650 C   0  0  1  0  0  3  0  0  0  0  0  0
  161.6200  211.2430  151.5460 N   0  0  0  0  0  2  0  0  0  0  0  0
  161.5550  207.6960  152.9890 C   0  0  2  0  0  3  0  0  0  0  0  0
  161.2090  209.9060  148.2030 C   0  0  0  0  0  2  0  0  0  0  0  0
  162.1100  211.7590  149.9280 S   0  0  0  0  0  0  0  0  0  0  0  0
  159.5150  205.3330  150.0370 C   0  0  0  0  0  2  0  0  0  0  0  0
  161.8130  210.0860  149.3680 C   0  0  0  0  0  0  0  0  0  0  0  0
  161.0640  206.9950  151.7110 C   0  0  2  0  0  3  0  0  0  0  0  0
  160.4920  204.6840  150.9030 N   0  0  0  0  0  0  0  0  0  0  0  0
  161.3410  205.5190  151.6920 C   0  0  0  0  0  0  0  0  0  0  0  0
  162.5470  206.8160  148.2270 C   0  0  2  0  0  3  0  0  0  0  0  0
  163.1530  208.0300  147.8860 O   0  0  0  0  0  1  0  0  0  0  0  0
  163.2860  205.0790  146.5880 C   0  0  0  0  0  3  0  0  0  0  0  0
  162.2980  205.9730  147.0120 C   0  0  0  0  0  0  0  0  0  0  0  0
  161.0840  206.0450  146.3150 C   0  0  0  0  0  3  0  0  0  0  0  0
  159.7050  205.3240  144.5100 F   0  0  0  0  0  0  0  0  0  0  0  0
  161.8640  204.3540  144.7670 C   0  0  0  0  0  3  0  0  0  0  0  0
  160.8710  205.2400  145.1910 C   0  0  0  0  0  0  0  0  0  0  0  0
  163.0710  204.2730  145.4660 C   0  0  0  0  0  3  0  0  0  0  0  0
  160.9190  207.0610  154.2200 C   0  0  0  0  0  2  0  0  0  0  0  0
  160.5690  208.1210  155.2560 C   0  0  0  0  0  2  0  0  0  0  0  0
  161.5210  208.0780  156.3530 N   0  0  0  0  0  2  0  0  0  0  0  0
  161.4870  209.3780  157.0020 C   0  0  0  0  0  2  0  0  0  0  0  0
  162.7060  210.4760  156.2240 S   0  0  0  0  0  1  0  0  0  0  0  0
  160.4640  203.2410  151.1320 C   0  0  1  0  0  3  0  0  0  0  0  0
  161.5810  202.9130  148.7350 C   0  0  0  0  0  1  0  0  0  0  0  0
  159.4610  201.6490  149.3850 C   0  0  0  0  0  2  0  0  0  0  0  0
  160.6050  202.4770  149.8140 C   0  0  2  0  0  0  0  0  0  0  0  0
  160.6040  201.0850  149.9930 O   0  0  0  0  0  0  0  0  0  0  0  0
  161.5150  202.8280  152.1590 C   0  0  0  0  0  2  0  0  0  0  0  0
  162.3660  201.7030  151.6160 C   0  0  0  0  0  1  0  0  0  0  0  0
  2  6  2  0  0  0  0
  3  7  1  0  0  0  0
  3 12  1  0  0  0  0
  4  9  1  0  0  0  0
  5  2  1  6  0  0  0
  5 14  1  0  0  0  0
  6  4  1  0  0  0  0
  7 17  1  1  0  0  0
  7  5  1  0  0  0  0
  8  6  1  0  0  0  0
  9 26  1  1  0  0  0
 10 13  2  0  0  0  0
 11  8  1  0  0  0  0
 12 15  1  0  0  0  0
 13 11  1  0  0  0  0
 13  2  1  0  0  0  0
 14 16  1  1  0  0  0
 14  9  1  0  0  0  0
 15 31  1  0  0  0  0
 15 16  1  0  0  0  0
 16  1  2  0  0  0  0
 17 18  1  6  0  0  0
 19 20  1  0  0  0  0
 20 17  1  0  0  0  0
 21 20  2  0  0  0  0
 22 24  1  0  0  0  0
 23 24  2  0  0  0  0
 23 25  1  0  0  0  0
 24 21  1  0  0  0  0
 25 19  2  0  0  0  0
 26 27  1  0  0  0  0
 27 28  1  0  0  0  0
 28 29  1  0  0  0  0
 30 29  1  0  0  0  0
 31 36  1  1  0  0  0
 33 34  1  0  0  0  0
 33 35  1  0  0  0  0
 34 32  1  6  0  0  0
 34 35  1  0  0  0  0
 34 31  1  0  0  0  0
 37 36  1  0  0  0  0
M  END
>  <MODEL>
8

>  <REMARK>
 VINA RESULT:      -2.9      4.321      8.173
  Name = 
  9 active torsions:
  status: ('A' for Active; 'I' for Inactive)
    1  A    between atoms: C_3  and  N_21
    2  A    between atoms: C_6  and  C_31
    3  A    between atoms: C_11  and  C_26
    4  A    between atoms: C_14  and  C_31
    5  A    between atoms: C_17  and  C_26
    6  A    between atoms: C_20  and  C_25
    7  A    between atoms: N_21  and  C_30
    8  A    between atoms: C_25  and  C_30
    9  A    between atoms: C_26  and  N_33
                            x       y       z     vdW  Elec       q    Type
                         _______ _______ _______ _____ _____    ______ ____

>  <TORSDO>
F 9

$$$$
=
 OpenBabel11062409043D

 37 41  0  0  1  0  0  0  0  0999 V2000
  162.3250  203.3630  147.8400 O   0  0  0  0  0  0  0  0  0  0  0  0
  161.1100  205.5640  151.6620 C   0  0  0  0  0  0  0  0  0  0  0  0
  160.2400  206.9660  148.1650 C   0  0  0  0  0  2  0  0  0  0  0  0
  160.5930  203.1320  151.8280 C   0  0  0  0  0  2  0  0  0  0  0  0
  161.3700  205.4690  150.1680 C   0  0  2  0  0  3  0  0  0  0  0  0
  160.9020  204.4810  152.4050 C   0  0  0  0  0  0  0  0  0  0  0  0
  161.1630  206.8000  149.3980 C   0  0  1  0  0  3  0  0  0  0  0  0
  160.8290  204.7130  153.8020 N   0  0  0  0  0  2  0  0  0  0  0  0
  161.1690  202.9470  150.4210 C   0  0  2  0  0  3  0  0  0  0  0  0
  160.7470  207.9270  152.1320 C   0  0  0  0  0  2  0  0  0  0  0  0
  161.3170  206.3550  154.2350 S   0  0  0  0  0  0  0  0  0  0  0  0
  159.5910  205.7300  147.5520 C   0  0  0  0  0  2  0  0  0  0  0  0
  161.2690  206.7660  152.4940 C   0  0  0  0  0  0  0  0  0  0  0  0
  160.8310  204.1690  149.5500 C   0  0  2  0  0  3  0  0  0  0  0  0
  160.6060  204.7760  147.1210 N   0  0  0  0  0  0  0  0  0  0  0  0
  161.3020  204.0410  148.1290 C   0  0  0  0  0  0  0  0  0  0  0  0
  162.4780  207.5720  149.2670 C   0  0  2  0  0  3  0  0  0  0  0  0
  163.4150  207.1320  150.2080 O   0  0  0  0  0  1  0  0  0  0  0  0
  162.3310  209.6940  150.5800 C   0  0  0  0  0  3  0  0  0  0  0  0
  162.2970  209.0590  149.3350 C   0  0  0  0  0  0  0  0  0  0  0  0
  162.1240  209.8230  148.1720 C   0  0  0  0  0  3  0  0  0  0  0  0
  161.7850  211.9430  147.1380 F   0  0  0  0  0  0  0  0  0  0  0  0
  161.9950  211.8390  149.5080 C   0  0  0  0  0  3  0  0  0  0  0  0
  161.9680  211.2110  148.2610 C   0  0  0  0  0  0  0  0  0  0  0  0
  162.1780  211.0810  150.6670 C   0  0  0  0  0  3  0  0  0  0  0  0
  160.5670  201.6830  149.8170 C   0  0  0  0  0  2  0  0  0  0  0  0
  161.5920  200.9540  148.9590 C   0  0  0  0  0  2  0  0  0  0  0  0
  160.9380  200.3350  147.8190 N   0  0  0  0  0  2  0  0  0  0  0  0
  161.9590  199.6140  147.0770 C   0  0  0  0  0  2  0  0  0  0  0  0
  161.2060  198.8070  145.6350 S   0  0  0  0  0  1  0  0  0  0  0  0
  160.7580  204.4140  145.7130 C   0  0  1  0  0  3  0  0  0  0  0  0
  163.0190  205.8240  145.6750 C   0  0  0  0  0  1  0  0  0  0  0  0
  161.2000  206.2030  143.9260 C   0  0  0  0  0  2  0  0  0  0  0  0
  161.7360  205.3580  145.0100 C   0  0  2  0  0  0  0  0  0  0  0  0
  161.9320  205.0260  143.6610 O   0  0  0  0  0  0  0  0  0  0  0  0
  161.1570  202.9480  145.5640 C   0  0  0  0  0  2  0  0  0  0  0  0
  160.0530  202.1690  144.8870 C   0  0  0  0  0  1  0  0  0  0  0  0
  1 16  2  0  0  0  0
  2  6  2  0  0  0  0
  2 13  1  0  0  0  0
  3  7  1  0  0  0  0
  4  6  1  0  0  0  0
  5  2  1  1  0  0  0
  6  8  1  0  0  0  0
  7 17  1  6  0  0  0
  7  5  1  0  0  0  0
  8 11  1  0  0  0  0
  9 26  1  6  0  0  0
  9  4  1  0  0  0  0
 10 13  2  0  0  0  0
 12  3  1  0  0  0  0
 13 11  1  0  0  0  0
 14 16  1  6  0  0  0
 14  5  1  0  0  0  0
 14  9  1  0  0  0  0
 15 12  1  0  0  0  0
 15 16  1  0  0  0  0
 17 20  1  0  0  0  0
 17 18  1  1  0  0  0
 19 25  1  0  0  0  0
 20 19  2  0  0  0  0
 21 24  2  0  0  0  0
 21 20  1  0  0  0  0
 22 24  1  0  0  0  0
 23 25  2  0  0  0  0
 24 23  1  0  0  0  0
 27 26  1  0  0  0  0
 28 27  1  0  0  0  0
 29 28  1  0  0  0  0
 30 29  1  0  0  0  0
 31 36  1  1  0  0  0
 31 15  1  0  0  0  0
 33 34  1  0  0  0  0
 34 32  1  1  0  0  0
 34 31  1  0  0  0  0
 35 33  1  0  0  0  0
 35 34  1  0  0  0  0
 37 36  1  0  0  0  0
M  END
>  <MODEL>
9

>  <REMARK>
 VINA RESULT:      -2.8      4.881      8.414
  Name = 
  9 active torsions:
  status: ('A' for Active; 'I' for Inactive)
    1  A    between atoms: C_3  and  N_21
    2  A    between atoms: C_6  and  C_31
    3  A    between atoms: C_11  and  C_26
    4  A    between atoms: C_14  and  C_31
    5  A    between atoms: C_17  and  C_26
    6  A    between atoms: C_20  and  C_25
    7  A    between atoms: N_21  and  C_30
    8  A    between atoms: C_25  and  C_30
    9  A    between atoms: C_26  and  N_33
                            x       y       z     vdW  Elec       q    Type
                         _______ _______ _______ _____ _____    ______ ____

>  <TORSDO>
F 9

$$$$
