=
 OpenBabel11062410273D

 43 48  0  0  1  0  0  0  0  0999 V2000
  161.5580  204.3160  147.3340 C   0  0  1  0  0  3  0  0  0  0  0  0
  161.3570  208.0630  150.9260 C   0  0  0  0  0  0  0  0  0  0  0  0
  161.9720  210.4480  149.5580 C   0  0  0  0  0  0  0  0  0  0  0  0
  161.0960  205.5460  149.5380 C   0  0  1  0  0  3  0  0  0  0  0  0
  160.7030  205.4590  146.7770 C   0  0  0  0  0  2  0  0  0  0  0  0
  162.8770  204.4900  146.9560 F   0  0  0  0  0  0  0  0  0  0  0  0
  161.7040  206.7290  148.7760 C   0  0  1  0  0  3  0  0  0  0  0  0
  161.4650  204.2190  148.8650 C   0  0  0  0  0  2  0  0  0  0  0  0
  161.0910  206.8250  147.3680 C   0  0  0  0  0  2  0  0  0  0  0  0
  161.9540  209.2280  148.8760 C   0  0  0  0  0  3  0  0  0  0  0  0
  161.6220  208.0360  149.5350 C   0  0  0  0  0  0  0  0  0  0  0  0
  160.9950  206.7970  151.6660 C   0  0  0  0  0  2  0  0  0  0  0  0
  161.3660  209.2960  151.6100 C   0  0  0  0  0  0  0  0  0  0  0  0
  161.6730  210.4730  150.9240 C   0  0  0  0  0  3  0  0  0  0  0  0
  161.5520  205.5540  150.9850 C   0  0  0  0  0  2  0  0  0  0  0  0
  162.3090  211.6880  148.8410 C   0  0  0  0  0  0  0  0  0  0  0  0
  163.3870  211.7710  148.1900 O   0  0  0  0  0  0  0  0  0  0  0  0
  161.4260  212.7710  148.8840 O   0  0  0  0  0  0  0  0  0  0  0  0
  161.5190  213.8530  147.9690 C   0  0  0  0  0  2  0  0  0  0  0  0
  159.2770  212.9210  147.3960 C   0  0  0  0  0  2  0  0  0  0  0  0
  161.1420  212.9620  145.6830 C   0  0  0  0  0  2  0  0  0  0  0  0
  158.8380  213.3270  144.2450 C   0  0  2  0  0  3  0  0  0  0  0  0
  160.4950  213.6810  146.8640 C   0  0  2  0  0  3  0  0  0  0  0  0
  158.2090  212.7310  146.3230 C   0  0  0  0  0  2  0  0  0  0  0  0
  160.3200  212.9330  144.3770 C   0  0  1  0  0  0  0  0  0  0  0  0
  159.9470  214.2920  143.8320 C   0  0  0  0  0  2  0  0  0  0  0  0
  158.2470  213.8060  145.4270 O   0  0  0  0  0  0  0  0  0  0  0  0
  160.8030  212.0970  143.3620 O   0  0  0  0  0  0  0  0  0  0  0  0
  162.0280  212.5180  143.1100 O   0  0  0  0  0  0  0  0  0  0  0  0
  162.2910  212.0960  141.8040 C   0  0  0  0  0  2  0  0  0  0  0  0
  161.1070  211.2900  141.2600 C   0  0  0  0  0  2  0  0  0  0  0  0
  162.7460  210.4170  139.9080 O   0  0  0  0  0  1  0  0  0  0  0  0
  160.5970  210.1190  139.2470 C   0  0  0  0  0  1  0  0  0  0  0  0
  161.5010  210.1800  140.3850 N   0  0  0  0  0  0  0  0  0  0  0  0
  161.0420  209.3860  153.0700 C   0  0  0  0  0  2  0  0  0  0  0  0
  160.4180  212.1740  155.5930 C   0  0  0  0  0  2  0  0  0  0  0  0
  158.9390  211.7840  155.7040 C   0  0  2  0  0  3  0  0  0  0  0  0
  159.2670  211.1360  153.2680 C   0  0  0  0  0  2  0  0  0  0  0  0
  161.2280  211.0660  154.9270 C   0  0  0  0  0  2  0  0  0  0  0  0
  160.7550  210.8220  153.4830 C   0  0  1  0  0  3  0  0  0  0  0  0
  158.4490  210.9050  154.5380 C   0  0  0  0  0  2  0  0  0  0  0  0
  156.7040  212.7380  155.5360 N   0  0  0  0  0  1  0  0  0  0  0  0
  158.0960  213.0420  155.8170 C   0  0  0  0  0  2  0  0  0  0  0  0
  1  6  1  1  0  0  0
  1  8  1  0  0  0  0
  2 13  1  0  0  0  0
  2 12  1  0  0  0  0
  3 14  1  0  0  0  0
  4  8  1  6  0  0  0
  4 15  1  0  0  0  0
  5  1  1  0  0  0  0
  5  9  1  0  0  0  0
  7  9  1  6  0  0  0
  7 11  1  0  0  0  0
  7  4  1  0  0  0  0
 10 11  1  0  0  0  0
 10  3  2  0  0  0  0
 11  2  2  0  0  0  0
 13 35  1  0  0  0  0
 14 13  2  0  0  0  0
 15 12  1  0  0  0  0
 16 18  1  0  0  0  0
 16  3  1  0  0  0  0
 17 16  2  0  0  0  0
 19 18  1  0  0  0  0
 21 23  1  0  0  0  0
 22 26  1  6  0  0  0
 22 25  1  0  0  0  0
 22 27  1  0  0  0  0
 23 20  1  0  0  0  0
 23 19  1  1  0  0  0
 24 20  1  0  0  0  0
 25 28  1  6  0  0  0
 25 21  1  0  0  0  0
 26 25  1  0  0  0  0
 27 24  1  0  0  0  0
 29 28  1  0  0  0  0
 30 29  1  0  0  0  0
 31 30  1  0  0  0  0
 32 34  1  0  0  0  0
 33 34  1  0  0  0  0
 34 31  1  0  0  0  0
 36 37  1  0  0  0  0
 37 43  1  6  0  0  0
 38 40  1  0  0  0  0
 38 41  1  0  0  0  0
 39 36  1  0  0  0  0
 40 35  1  1  0  0  0
 40 39  1  0  0  0  0
 41 37  1  0  0  0  0
 42 43  1  0  0  0  0
M  END
>  <MODEL>
1

>  <REMARK>
 VINA RESULT:      -8.1      0.000      0.000
  Name = 
  12 active torsions:
  status: ('A' for Active; 'I' for Inactive)
    1  A    between atoms: C_1  and  C_34
    2  A    between atoms: C_1  and  C_35
    3  A    between atoms: C_2  and  O_6
    4  A    between atoms: C_2  and  C_13
    5  A    between atoms: O_6  and  C_17
    6  A    between atoms: O_11  and  O_14
    7  A    between atoms: O_11  and  C_36
    8  A    between atoms: C_12  and  C_17
    9  A    between atoms: O_14  and  C_22
   10  A    between atoms: C_19  and  C_37
   11  A    between atoms: N_31  and  C_40
   12  A    between atoms: C_36  and  C_40
                            x       y       z     vdW  Elec       q    Type
                         _______ _______ _______ _____ _____    ______ ____

>  <TORSDO>
F 12

$$$$
=
 OpenBabel11062410273D

 43 48  0  0  1  0  0  0  0  0999 V2000
  161.0170  200.7810  148.5930 C   0  0  1  0  0  3  0  0  0  0  0  0
  161.2470  205.1130  151.4510 C   0  0  0  0  0  0  0  0  0  0  0  0
  161.8270  207.1830  149.6290 C   0  0  0  0  0  0  0  0  0  0  0  0
  160.7840  202.4050  150.5670 C   0  0  1  0  0  3  0  0  0  0  0  0
  160.1580  201.8470  147.9050 C   0  0  0  0  0  2  0  0  0  0  0  0
  162.3050  200.8200  148.0900 F   0  0  0  0  0  0  0  0  0  0  0  0
  161.3670  203.4020  149.5580 C   0  0  1  0  0  3  0  0  0  0  0  0
  161.0500  200.9630  150.1190 C   0  0  0  0  0  2  0  0  0  0  0  0
  160.6420  203.2760  148.2070 C   0  0  0  0  0  2  0  0  0  0  0  0
  161.7100  205.8640  149.1830 C   0  0  0  0  0  3  0  0  0  0  0  0
  161.3940  204.8260  150.0710 C   0  0  0  0  0  0  0  0  0  0  0  0
  160.9060  204.0180  152.4330 C   0  0  0  0  0  2  0  0  0  0  0  0
  161.3570  206.4460  151.8970 C   0  0  0  0  0  0  0  0  0  0  0  0
  161.6450  207.4660  150.9870 C   0  0  0  0  0  3  0  0  0  0  0  0
  161.3610  202.6480  151.9490 C   0  0  0  0  0  2  0  0  0  0  0  0
  162.1450  208.2580  148.6760 C   0  0  0  0  0  0  0  0  0  0  0  0
  162.9820  208.0590  147.7530 O   0  0  0  0  0  0  0  0  0  0  0  0
  161.5100  209.4970  148.7980 O   0  0  0  0  0  0  0  0  0  0  0  0
  162.0740  210.5600  149.5530 C   0  0  0  0  0  2  0  0  0  0  0  0
  161.1620  212.8740  149.7480 C   0  0  0  0  0  2  0  0  0  0  0  0
  161.0650  211.6230  147.5490 C   0  0  0  0  0  2  0  0  0  0  0  0
  161.4010  214.2550  146.8640 C   0  0  2  0  0  3  0  0  0  0  0  0
  161.8640  211.8740  148.8260 C   0  0  2  0  0  3  0  0  0  0  0  0
  160.9370  214.2200  149.0660 C   0  0  0  0  0  2  0  0  0  0  0  0
  160.9820  212.8050  146.5600 C   0  0  1  0  0  0  0  0  0  0  0  0
  162.3160  213.3210  146.0740 C   0  0  0  0  0  2  0  0  0  0  0  0
  161.9590  214.4530  148.1380 O   0  0  0  0  0  0  0  0  0  0  0  0
  160.0800  212.6590  145.4980 O   0  0  0  0  0  0  0  0  0  0  0  0
  160.8240  212.5510  144.4140 O   0  0  0  0  0  0  0  0  0  0  0  0
  159.9660  212.0330  143.4400 C   0  0  0  0  0  2  0  0  0  0  0  0
  160.7560  211.6690  142.1790 C   0  0  0  0  0  2  0  0  0  0  0  0
  159.9490  213.5980  141.2260 O   0  0  0  0  0  1  0  0  0  0  0  0
  161.3710  212.3480  139.9780 C   0  0  0  0  0  1  0  0  0  0  0  0
  161.0530  212.8190  141.3170 N   0  0  0  0  0  0  0  0  0  0  0  0
  161.1590  206.8100  153.3370 C   0  0  0  0  0  2  0  0  0  0  0  0
  161.4490  210.5970  153.6540 C   0  0  0  0  0  2  0  0  0  0  0  0
  161.7000  210.4820  155.1630 C   0  0  2  0  0  3  0  0  0  0  0  0
  160.1700  208.4650  154.9300 C   0  0  0  0  0  2  0  0  0  0  0  0
  161.6290  209.2490  152.9650 C   0  0  0  0  0  2  0  0  0  0  0  0
  160.6050  208.2200  153.4770 C   0  0  1  0  0  3  0  0  0  0  0  0
  161.2800  209.1220  155.7500 C   0  0  0  0  0  2  0  0  0  0  0  0
  159.9520  212.1730  155.0250 N   0  0  0  0  0  1  0  0  0  0  0  0
  160.9880  211.6170  155.8780 C   0  0  0  0  0  2  0  0  0  0  0  0
  1  6  1  6  0  0  0
  1  8  1  0  0  0  0
  2 13  1  0  0  0  0
  2 12  1  0  0  0  0
  3 14  1  0  0  0  0
  4  8  1  6  0  0  0
  4 15  1  0  0  0  0
  5  9  1  0  0  0  0
  5  1  1  0  0  0  0
  7  9  1  6  0  0  0
  7 11  1  0  0  0  0
  7  4  1  0  0  0  0
 10  3  2  0  0  0  0
 10 11  1  0  0  0  0
 11  2  2  0  0  0  0
 13 35  1  0  0  0  0
 14 13  2  0  0  0  0
 15 12  1  0  0  0  0
 16 18  1  0  0  0  0
 16  3  1  0  0  0  0
 17 16  2  0  0  0  0
 18 19  1  0  0  0  0
 21 23  1  0  0  0  0
 22 26  1  6  0  0  0
 22 27  1  0  0  0  0
 23 19  1  1  0  0  0
 23 20  1  0  0  0  0
 24 20  1  0  0  0  0
 25 28  1  6  0  0  0
 25 22  1  0  0  0  0
 25 21  1  0  0  0  0
 26 25  1  0  0  0  0
 27 24  1  0  0  0  0
 29 28  1  0  0  0  0
 30 29  1  0  0  0  0
 31 30  1  0  0  0  0
 32 34  1  0  0  0  0
 33 34  1  0  0  0  0
 34 31  1  0  0  0  0
 36 37  1  0  0  0  0
 37 41  1  0  0  0  0
 37 43  1  1  0  0  0
 38 41  1  0  0  0  0
 39 40  1  0  0  0  0
 39 36  1  0  0  0  0
 40 35  1  1  0  0  0
 40 38  1  0  0  0  0
 42 43  1  0  0  0  0
M  END
>  <MODEL>
2

>  <REMARK>
 VINA RESULT:      -7.5      1.991      3.225
  Name = 
  12 active torsions:
  status: ('A' for Active; 'I' for Inactive)
    1  A    between atoms: C_1  and  C_34
    2  A    between atoms: C_1  and  C_35
    3  A    between atoms: C_2  and  O_6
    4  A    between atoms: C_2  and  C_13
    5  A    between atoms: O_6  and  C_17
    6  A    between atoms: O_11  and  O_14
    7  A    between atoms: O_11  and  C_36
    8  A    between atoms: C_12  and  C_17
    9  A    between atoms: O_14  and  C_22
   10  A    between atoms: C_19  and  C_37
   11  A    between atoms: N_31  and  C_40
   12  A    between atoms: C_36  and  C_40
                            x       y       z     vdW  Elec       q    Type
                         _______ _______ _______ _____ _____    ______ ____

>  <TORSDO>
F 12

$$$$
=
 OpenBabel11062410273D

 43 48  0  0  1  0  0  0  0  0999 V2000
  160.2520  209.0010  156.0780 C   0  0  1  0  0  3  0  0  0  0  0  0
  161.8130  207.7460  151.2850 C   0  0  0  0  0  0  0  0  0  0  0  0
  161.9020  210.1780  149.8650 C   0  0  0  0  0  0  0  0  0  0  0  0
  161.1960  207.6610  154.1030 C   0  0  1  0  0  3  0  0  0  0  0  0
  161.3910  209.9490  155.6880 C   0  0  0  0  0  2  0  0  0  0  0  0
  159.0360  209.5640  155.7370 F   0  0  0  0  0  0  0  0  0  0  0  0
  160.9480  208.9740  153.3510 C   0  0  1  0  0  3  0  0  0  0  0  0
  160.3930  207.6250  155.4090 C   0  0  0  0  0  2  0  0  0  0  0  0
  161.4830  210.1630  154.1680 C   0  0  0  0  0  2  0  0  0  0  0  0
  161.5000  210.1580  151.2030 C   0  0  0  0  0  3  0  0  0  0  0  0
  161.4770  208.9610  151.9330 C   0  0  0  0  0  0  0  0  0  0  0  0
  161.7990  206.4400  152.0420 C   0  0  0  0  0  2  0  0  0  0  0  0
  162.2270  207.7710  149.9370 C   0  0  0  0  0  0  0  0  0  0  0  0
  162.2680  208.9810  149.2410 C   0  0  0  0  0  3  0  0  0  0  0  0
  160.8440  206.4730  153.2280 C   0  0  0  0  0  2  0  0  0  0  0  0
  161.9330  211.4490  149.1240 C   0  0  0  0  0  0  0  0  0  0  0  0
  163.0090  211.8520  148.6020 O   0  0  0  0  0  0  0  0  0  0  0  0
  160.7630  212.2030  148.9990 O   0  0  0  0  0  0  0  0  0  0  0  0
  160.7630  213.5020  148.4230 C   0  0  0  0  0  2  0  0  0  0  0  0
  158.3960  213.1360  147.7240 C   0  0  0  0  0  2  0  0  0  0  0  0
  160.3080  212.6390  146.1400 C   0  0  0  0  0  2  0  0  0  0  0  0
  158.2580  213.5090  144.5420 C   0  0  2  0  0  3  0  0  0  0  0  0
  159.7950  213.5460  147.2560 C   0  0  2  0  0  3  0  0  0  0  0  0
  157.3790  213.1750  146.5870 C   0  0  0  0  0  2  0  0  0  0  0  0
  159.5830  212.7640  144.7820 C   0  0  1  0  0  0  0  0  0  0  0  0
  159.5970  214.1490  144.1800 C   0  0  0  0  0  2  0  0  0  0  0  0
  157.7390  214.1690  145.6690 O   0  0  0  0  0  0  0  0  0  0  0  0
  159.8990  211.7920  143.8230 O   0  0  0  0  0  0  0  0  0  0  0  0
  160.6400  212.4110  142.9240 O   0  0  0  0  0  0  0  0  0  0  0  0
  160.8460  211.4650  141.9170 C   0  0  0  0  0  2  0  0  0  0  0  0
  161.1140  212.1650  140.5810 C   0  0  0  0  0  2  0  0  0  0  0  0
  158.8910  212.3650  140.0370 O   0  0  0  0  0  1  0  0  0  0  0  0
  159.9580  210.4870  139.3430 C   0  0  0  0  0  1  0  0  0  0  0  0
  160.0810  211.9190  139.5680 N   0  0  0  0  0  0  0  0  0  0  0  0
  162.6420  206.5220  149.2210 C   0  0  0  0  0  2  0  0  0  0  0  0
  160.9570  203.9110  147.0140 C   0  0  0  0  0  2  0  0  0  0  0  0
  161.7290  204.4070  145.7860 C   0  0  2  0  0  3  0  0  0  0  0  0
  161.5400  206.6430  146.9790 C   0  0  0  0  0  2  0  0  0  0  0  0
  161.5780  204.4410  148.3030 C   0  0  0  0  0  2  0  0  0  0  0  0
  161.5100  205.9770  148.3630 C   0  0  1  0  0  3  0  0  0  0  0  0
  162.3300  205.8130  145.9680 C   0  0  0  0  0  2  0  0  0  0  0  0
  161.1770  205.4240  143.6420 N   0  0  0  0  0  1  0  0  0  0  0  0
  160.8180  204.3670  144.5710 C   0  0  0  0  0  2  0  0  0  0  0  0
  1  6  1  6  0  0  0
  2 11  1  0  0  0  0
  2 12  1  0  0  0  0
  3 10  1  0  0  0  0
  4 15  1  6  0  0  0
  4  8  1  0  0  0  0
  5  1  1  0  0  0  0
  7  4  1  0  0  0  0
  7  9  1  1  0  0  0
  8  1  1  0  0  0  0
  9  5  1  0  0  0  0
 10 11  2  0  0  0  0
 11  7  1  0  0  0  0
 12 15  1  0  0  0  0
 13  2  2  0  0  0  0
 14  3  2  0  0  0  0
 14 13  1  0  0  0  0
 16  3  1  0  0  0  0
 17 16  2  0  0  0  0
 18 16  1  0  0  0  0
 19 18  1  0  0  0  0
 21 23  1  0  0  0  0
 22 26  1  6  0  0  0
 22 25  1  0  0  0  0
 22 27  1  0  0  0  0
 23 20  1  0  0  0  0
 23 19  1  1  0  0  0
 24 20  1  0  0  0  0
 25 28  1  6  0  0  0
 25 21  1  0  0  0  0
 26 25  1  0  0  0  0
 27 24  1  0  0  0  0
 29 28  1  0  0  0  0
 30 29  1  0  0  0  0
 31 30  1  0  0  0  0
 33 34  1  0  0  0  0
 34 32  1  0  0  0  0
 34 31  1  0  0  0  0
 35 13  1  0  0  0  0
 36 39  1  0  0  0  0
 37 43  1  6  0  0  0
 37 41  1  0  0  0  0
 37 36  1  0  0  0  0
 38 40  1  0  0  0  0
 39 40  1  0  0  0  0
 40 35  1  1  0  0  0
 41 38  1  0  0  0  0
 42 43  1  0  0  0  0
M  END
>  <MODEL>
3

>  <REMARK>
 VINA RESULT:      -7.4      3.180      6.146
  Name = 
  12 active torsions:
  status: ('A' for Active; 'I' for Inactive)
    1  A    between atoms: C_1  and  C_34
    2  A    between atoms: C_1  and  C_35
    3  A    between atoms: C_2  and  O_6
    4  A    between atoms: C_2  and  C_13
    5  A    between atoms: O_6  and  C_17
    6  A    between atoms: O_11  and  O_14
    7  A    between atoms: O_11  and  C_36
    8  A    between atoms: C_12  and  C_17
    9  A    between atoms: O_14  and  C_22
   10  A    between atoms: C_19  and  C_37
   11  A    between atoms: N_31  and  C_40
   12  A    between atoms: C_36  and  C_40
                            x       y       z     vdW  Elec       q    Type
                         _______ _______ _______ _____ _____    ______ ____

>  <TORSDO>
F 12

$$$$
=
 OpenBabel11062410273D

 43 48  0  0  1  0  0  0  0  0999 V2000
  160.3240  201.3370  145.5800 C   0  0  1  0  0  3  0  0  0  0  0  0
  161.8230  205.5090  148.2880 C   0  0  0  0  0  0  0  0  0  0  0  0
  161.3280  204.8690  150.9870 C   0  0  0  0  0  0  0  0  0  0  0  0
  161.4040  203.5880  146.1750 C   0  0  1  0  0  3  0  0  0  0  0  0
  161.2190  200.8590  146.7280 C   0  0  0  0  0  2  0  0  0  0  0  0
  159.0000  201.3220  145.9790 F   0  0  0  0  0  0  0  0  0  0  0  0
  160.8490  203.2610  147.5670 C   0  0  1  0  0  3  0  0  0  0  0  0
  160.7050  202.7480  145.1010 C   0  0  0  0  0  2  0  0  0  0  0  0
  161.1750  201.8050  147.9400 C   0  0  0  0  0  2  0  0  0  0  0  0
  161.0180  203.9540  149.9770 C   0  0  0  0  0  3  0  0  0  0  0  0
  161.2840  204.2450  148.6310 C   0  0  0  0  0  0  0  0  0  0  0  0
  162.1230  205.8530  146.8490 C   0  0  0  0  0  2  0  0  0  0  0  0
  162.1440  206.4270  149.3090 C   0  0  0  0  0  0  0  0  0  0  0  0
  161.8940  206.1010  150.6450 C   0  0  0  0  0  3  0  0  0  0  0  0
  161.2530  205.0680  145.8760 C   0  0  0  0  0  2  0  0  0  0  0  0
  161.0530  204.5350  152.3930 C   0  0  0  0  0  0  0  0  0  0  0  0
  160.6290  203.3870  152.7010 O   0  0  0  0  0  0  0  0  0  0  0  0
  161.2700  205.4960  153.3850 O   0  0  0  0  0  0  0  0  0  0  0  0
  160.8030  206.8310  153.2540 C   0  0  0  0  0  2  0  0  0  0  0  0
  160.4380  206.8160  155.7220 C   0  0  0  0  0  2  0  0  0  0  0  0
  160.4550  208.9920  154.4270 C   0  0  0  0  0  2  0  0  0  0  0  0
  161.5180  209.6070  156.8760 C   0  0  2  0  0  3  0  0  0  0  0  0
  161.0430  207.5870  154.5470 C   0  0  2  0  0  3  0  0  0  0  0  0
  160.6640  207.5320  157.0510 C   0  0  0  0  0  2  0  0  0  0  0  0
  160.8340  209.9810  155.5490 C   0  0  1  0  0  0  0  0  0  0  0  0
  162.3180  210.2070  155.7220 C   0  0  0  0  0  2  0  0  0  0  0  0
  161.8640  208.2500  157.0000 O   0  0  0  0  0  0  0  0  0  0  0  0
  160.1330  211.1940  155.5650 O   0  0  0  0  0  0  0  0  0  0  0  0
  159.1630  211.0530  154.6830 O   0  0  0  0  0  0  0  0  0  0  0  0
  158.6910  212.3500  154.4600 C   0  0  0  0  0  2  0  0  0  0  0  0
  157.1640  212.3830  154.5730 C   0  0  0  0  0  2  0  0  0  0  0  0
  155.4710  210.8360  154.7150 O   0  0  0  0  0  1  0  0  0  0  0  0
  156.2420  211.7030  156.6640 C   0  0  0  0  0  1  0  0  0  0  0  0
  156.6030  211.2560  155.3270 N   0  0  0  0  0  0  0  0  0  0  0  0
  162.7630  207.7560  149.0040 C   0  0  0  0  0  2  0  0  0  0  0  0
  161.6110  211.3890  149.0630 C   0  0  0  0  0  2  0  0  0  0  0  0
  161.7510  211.4400  150.5890 C   0  0  2  0  0  3  0  0  0  0  0  0
  161.0970  208.9910  150.4020 C   0  0  0  0  0  2  0  0  0  0  0  0
  162.3340  210.1760  148.4870 C   0  0  0  0  0  2  0  0  0  0  0  0
  161.7190  208.8630  149.0030 C   0  0  1  0  0  3  0  0  0  0  0  0
  161.8100  210.0480  151.2450 C   0  0  0  0  0  2  0  0  0  0  0  0
  160.3740  213.4360  150.3550 N   0  0  0  0  0  1  0  0  0  0  0  0
  160.6110  212.2580  151.1710 C   0  0  0  0  0  2  0  0  0  0  0  0
  1  6  1  1  0  0  0
  1  5  1  0  0  0  0
  2 11  2  0  0  0  0
  2 13  1  0  0  0  0
  3 16  1  0  0  0  0
  4  8  1  6  0  0  0
  4  7  1  0  0  0  0
  5  9  1  0  0  0  0
  7  9  1  1  0  0  0
  7 11  1  0  0  0  0
  8  1  1  0  0  0  0
 10  3  2  0  0  0  0
 11 10  1  0  0  0  0
 12  2  1  0  0  0  0
 13 14  2  0  0  0  0
 14  3  1  0  0  0  0
 15  4  1  0  0  0  0
 15 12  1  0  0  0  0
 16 17  2  0  0  0  0
 16 18  1  0  0  0  0
 19 18  1  0  0  0  0
 20 24  1  0  0  0  0
 21 23  1  0  0  0  0
 21 25  1  0  0  0  0
 22 26  1  6  0  0  0
 22 27  1  0  0  0  0
 23 19  1  6  0  0  0
 23 20  1  0  0  0  0
 25 28  1  1  0  0  0
 25 26  1  0  0  0  0
 25 22  1  0  0  0  0
 27 24  1  0  0  0  0
 29 28  1  0  0  0  0
 30 31  1  0  0  0  0
 30 29  1  0  0  0  0
 31 34  1  0  0  0  0
 32 34  1  0  0  0  0
 34 33  1  0  0  0  0
 35 13  1  0  0  0  0
 36 37  1  0  0  0  0
 37 43  1  1  0  0  0
 37 41  1  0  0  0  0
 38 41  1  0  0  0  0
 39 40  1  0  0  0  0
 39 36  1  0  0  0  0
 40 35  1  1  0  0  0
 40 38  1  0  0  0  0
 42 43  1  0  0  0  0
M  END
>  <MODEL>
4

>  <REMARK>
 VINA RESULT:      -7.2      5.273      9.036
  Name = 
  12 active torsions:
  status: ('A' for Active; 'I' for Inactive)
    1  A    between atoms: C_1  and  C_34
    2  A    between atoms: C_1  and  C_35
    3  A    between atoms: C_2  and  O_6
    4  A    between atoms: C_2  and  C_13
    5  A    between atoms: O_6  and  C_17
    6  A    between atoms: O_11  and  O_14
    7  A    between atoms: O_11  and  C_36
    8  A    between atoms: C_12  and  C_17
    9  A    between atoms: O_14  and  C_22
   10  A    between atoms: C_19  and  C_37
   11  A    between atoms: N_31  and  C_40
   12  A    between atoms: C_36  and  C_40
                            x       y       z     vdW  Elec       q    Type
                         _______ _______ _______ _____ _____    ______ ____

>  <TORSDO>
F 12

$$$$
=
 OpenBabel11062410273D

 43 48  0  0  1  0  0  0  0  0999 V2000
  161.4600  204.2470  147.6140 C   0  0  1  0  0  3  0  0  0  0  0  0
  161.6550  208.3640  150.7750 C   0  0  0  0  0  0  0  0  0  0  0  0
  162.0810  210.5830  149.0910 C   0  0  0  0  0  0  0  0  0  0  0  0
  161.2540  205.7110  149.7110 C   0  0  1  0  0  3  0  0  0  0  0  0
  160.5340  205.3250  147.0420 C   0  0  0  0  0  2  0  0  0  0  0  0
  162.7230  204.3730  147.0640 F   0  0  0  0  0  0  0  0  0  0  0  0
  161.7560  206.8010  148.7570 C   0  0  1  0  0  3  0  0  0  0  0  0
  161.5520  204.3180  149.1470 C   0  0  0  0  0  2  0  0  0  0  0  0
  160.9780  206.7460  147.4300 C   0  0  0  0  0  2  0  0  0  0  0  0
  161.9930  209.2960  148.5530 C   0  0  0  0  0  3  0  0  0  0  0  0
  161.7530  208.1840  149.3730 C   0  0  0  0  0  0  0  0  0  0  0  0
  161.3960  207.1880  151.6860 C   0  0  0  0  0  2  0  0  0  0  0  0
  161.7350  209.6640  151.3150 C   0  0  0  0  0  0  0  0  0  0  0  0
  161.9470  210.7580  150.4720 C   0  0  0  0  0  3  0  0  0  0  0  0
  161.8800  205.8760  151.0830 C   0  0  0  0  0  2  0  0  0  0  0  0
  162.3180  211.7360  148.2090 C   0  0  0  0  0  0  0  0  0  0  0  0
  163.4630  212.2640  148.1500 O   0  0  0  0  0  0  0  0  0  0  0  0
  161.2690  212.2390  147.4340 O   0  0  0  0  0  0  0  0  0  0  0  0
  161.3660  213.4810  146.7530 C   0  0  0  0  0  2  0  0  0  0  0  0
  162.9930  213.7280  144.8770 C   0  0  0  0  0  2  0  0  0  0  0  0
  160.5020  213.9360  144.4700 C   0  0  0  0  0  2  0  0  0  0  0  0
  161.5110  212.8090  142.1850 C   0  0  2  0  0  3  0  0  0  0  0  0
  161.5980  213.2390  145.2730 C   0  0  2  0  0  3  0  0  0  0  0  0
  163.2800  213.4950  143.3970 C   0  0  0  0  0  2  0  0  0  0  0  0
  160.4350  213.5810  142.9690 C   0  0  1  0  0  0  0  0  0  0  0  0
  160.2430  212.1120  142.6730 C   0  0  0  0  0  2  0  0  0  0  0  0
  162.5940  212.3560  142.9580 O   0  0  0  0  0  0  0  0  0  0  0  0
  159.5830  214.3700  142.1860 O   0  0  0  0  0  0  0  0  0  0  0  0
  158.3940  213.8080  142.2800 O   0  0  0  0  0  0  0  0  0  0  0  0
  157.7370  214.1590  141.0980 C   0  0  0  0  0  2  0  0  0  0  0  0
  157.5950  212.9340  140.1890 C   0  0  0  0  0  2  0  0  0  0  0  0
  159.2260  213.9480  138.9270 O   0  0  0  0  0  1  0  0  0  0  0  0
  158.2720  212.0770  138.0700 C   0  0  0  0  0  1  0  0  0  0  0  0
  158.7310  212.7380  139.2820 N   0  0  0  0  0  0  0  0  0  0  0  0
  161.5870  209.9140  152.7840 C   0  0  0  0  0  2  0  0  0  0  0  0
  158.2400  211.5610  153.5690 C   0  0  0  0  0  2  0  0  0  0  0  0
  158.7040  211.8940  154.9920 C   0  0  2  0  0  3  0  0  0  0  0  0
  160.0130  209.7320  154.7190 C   0  0  0  0  0  2  0  0  0  0  0  0
  159.4230  211.1830  152.6820 C   0  0  0  0  0  2  0  0  0  0  0  0
  160.1230  209.9130  153.1980 C   0  0  1  0  0  3  0  0  0  0  0  0
  159.9270  211.0750  155.4450 C   0  0  0  0  0  2  0  0  0  0  0  0
  156.4360  212.5620  155.5790 N   0  0  0  0  0  1  0  0  0  0  0  0
  157.5440  211.7030  155.9550 C   0  0  0  0  0  2  0  0  0  0  0  0
  1  6  1  6  0  0  0
  1  8  1  0  0  0  0
  2 13  1  0  0  0  0
  2 12  1  0  0  0  0
  3 14  1  0  0  0  0
  4  8  1  6  0  0  0
  4 15  1  0  0  0  0
  5  9  1  0  0  0  0
  5  1  1  0  0  0  0
  7  9  1  6  0  0  0
  7 11  1  0  0  0  0
  7  4  1  0  0  0  0
 10  3  2  0  0  0  0
 10 11  1  0  0  0  0
 11  2  2  0  0  0  0
 13 35  1  0  0  0  0
 14 13  2  0  0  0  0
 15 12  1  0  0  0  0
 16  3  1  0  0  0  0
 17 16  2  0  0  0  0
 18 16  1  0  0  0  0
 19 18  1  0  0  0  0
 20 23  1  0  0  0  0
 21 23  1  0  0  0  0
 22 26  1  1  0  0  0
 22 27  1  0  0  0  0
 22 25  1  0  0  0  0
 23 19  1  1  0  0  0
 24 20  1  0  0  0  0
 25 28  1  6  0  0  0
 25 21  1  0  0  0  0
 26 25  1  0  0  0  0
 27 24  1  0  0  0  0
 28 29  1  0  0  0  0
 30 29  1  0  0  0  0
 31 30  1  0  0  0  0
 32 34  1  0  0  0  0
 33 34  1  0  0  0  0
 34 31  1  0  0  0  0
 36 37  1  0  0  0  0
 37 41  1  0  0  0  0
 37 43  1  1  0  0  0
 38 41  1  0  0  0  0
 39 40  1  0  0  0  0
 39 36  1  0  0  0  0
 40 35  1  1  0  0  0
 40 38  1  0  0  0  0
 42 43  1  0  0  0  0
M  END
>  <MODEL>
5

>  <REMARK>
 VINA RESULT:      -7.2      1.757      2.478
  Name = 
  12 active torsions:
  status: ('A' for Active; 'I' for Inactive)
    1  A    between atoms: C_1  and  C_34
    2  A    between atoms: C_1  and  C_35
    3  A    between atoms: C_2  and  O_6
    4  A    between atoms: C_2  and  C_13
    5  A    between atoms: O_6  and  C_17
    6  A    between atoms: O_11  and  O_14
    7  A    between atoms: O_11  and  C_36
    8  A    between atoms: C_12  and  C_17
    9  A    between atoms: O_14  and  C_22
   10  A    between atoms: C_19  and  C_37
   11  A    between atoms: N_31  and  C_40
   12  A    between atoms: C_36  and  C_40
                            x       y       z     vdW  Elec       q    Type
                         _______ _______ _______ _____ _____    ______ ____

>  <TORSDO>
F 12

$$$$
=
 OpenBabel11062410273D

 43 48  0  0  1  0  0  0  0  0999 V2000
  160.6990  201.4570  148.8500 C   0  0  1  0  0  3  0  0  0  0  0  0
  161.6470  206.5640  148.9410 C   0  0  0  0  0  0  0  0  0  0  0  0
  161.1280  207.3760  151.5890 C   0  0  0  0  0  0  0  0  0  0  0  0
  161.5100  203.7910  148.1540 C   0  0  1  0  0  3  0  0  0  0  0  0
  161.5990  201.7490  150.0550 C   0  0  0  0  0  2  0  0  0  0  0  0
  159.3710  201.5070  149.2320 F   0  0  0  0  0  0  0  0  0  0  0  0
  160.9450  204.1790  149.5250 C   0  0  1  0  0  3  0  0  0  0  0  0
  160.9440  202.4420  147.6950 C   0  0  0  0  0  2  0  0  0  0  0  0
  161.4120  203.1770  150.5960 C   0  0  0  0  0  2  0  0  0  0  0  0
  160.9530  206.0410  151.2140 C   0  0  0  0  0  3  0  0  0  0  0  0
  161.2340  205.6140  149.9080 C   0  0  0  0  0  0  0  0  0  0  0  0
  161.9580  206.1370  147.5270 C   0  0  0  0  0  2  0  0  0  0  0  0
  161.8300  207.9080  149.3240 C   0  0  0  0  0  0  0  0  0  0  0  0
  161.5700  208.3020  150.6390 C   0  0  0  0  0  3  0  0  0  0  0  0
  161.2130  204.8700  147.1300 C   0  0  0  0  0  2  0  0  0  0  0  0
  160.8410  207.7970  152.9690 C   0  0  0  0  0  0  0  0  0  0  0  0
  160.7400  209.0230  153.2490 O   0  0  0  0  0  0  0  0  0  0  0  0
  160.6780  206.8300  153.9660 O   0  0  0  0  0  0  0  0  0  0  0  0
  160.2770  207.1710  155.2850 C   0  0  0  0  0  2  0  0  0  0  0  0
  162.0090  208.3580  156.6320 C   0  0  0  0  0  2  0  0  0  0  0  0
  159.7290  209.3910  156.2510 C   0  0  0  0  0  2  0  0  0  0  0  0
  161.4690  211.5060  156.3430 C   0  0  2  0  0  3  0  0  0  0  0  0
  160.8400  208.5290  155.6580 C   0  0  2  0  0  3  0  0  0  0  0  0
  162.6200  209.6990  157.0300 C   0  0  0  0  0  2  0  0  0  0  0  0
  160.0640  210.8850  156.4460 C   0  0  1  0  0  0  0  0  0  0  0  0
  160.4750  211.6130  155.1880 C   0  0  0  0  0  2  0  0  0  0  0  0
  162.4850  210.6090  155.9750 O   0  0  0  0  0  0  0  0  0  0  0  0
  159.1380  211.6340  157.1830 O   0  0  0  0  0  0  0  0  0  0  0  0
  158.1170  211.8330  156.3710 O   0  0  0  0  0  0  0  0  0  0  0  0
  157.6140  213.0870  156.7290 C   0  0  0  0  0  2  0  0  0  0  0  0
  156.7180  213.6350  155.6130 C   0  0  0  0  0  2  0  0  0  0  0  0
  158.3710  214.3600  154.1920 O   0  0  0  0  0  1  0  0  0  0  0  0
  156.3350  213.9500  153.2810 C   0  0  0  0  0  1  0  0  0  0  0  0
  157.3090  213.5240  154.2740 N   0  0  0  0  0  0  0  0  0  0  0  0
  162.3140  208.9420  148.3530 C   0  0  0  0  0  2  0  0  0  0  0  0
  160.7460  212.2600  147.3250 C   0  0  0  0  0  2  0  0  0  0  0  0
  162.1310  212.8930  147.1420 C   0  0  2  0  0  3  0  0  0  0  0  0
  162.7410  211.3100  149.0350 C   0  0  0  0  0  2  0  0  0  0  0  0
  160.8440  210.7400  147.3990 C   0  0  0  0  0  2  0  0  0  0  0  0
  161.6670  210.2930  148.6200 C   0  0  1  0  0  3  0  0  0  0  0  0
  163.2580  212.1090  147.8390 C   0  0  0  0  0  2  0  0  0  0  0  0
  161.1960  214.4480  148.7670 N   0  0  0  0  0  1  0  0  0  0  0  0
  162.0950  214.3300  147.6330 C   0  0  0  0  0  2  0  0  0  0  0  0
  1  6  1  1  0  0  0
  1  5  1  0  0  0  0
  2 13  2  0  0  0  0
  2 11  1  0  0  0  0
  3 16  1  0  0  0  0
  4 15  1  6  0  0  0
  4  7  1  0  0  0  0
  5  9  1  0  0  0  0
  7 11  1  0  0  0  0
  7  9  1  1  0  0  0
  8  4  1  0  0  0  0
  8  1  1  0  0  0  0
 10  3  1  0  0  0  0
 11 10  2  0  0  0  0
 12  2  1  0  0  0  0
 13 14  1  0  0  0  0
 14  3  2  0  0  0  0
 15 12  1  0  0  0  0
 16 17  2  0  0  0  0
 16 18  1  0  0  0  0
 18 19  1  0  0  0  0
 20 24  1  0  0  0  0
 21 25  1  0  0  0  0
 22 26  1  6  0  0  0
 22 25  1  0  0  0  0
 23 19  1  1  0  0  0
 23 21  1  0  0  0  0
 23 20  1  0  0  0  0
 25 28  1  1  0  0  0
 26 25  1  0  0  0  0
 27 22  1  0  0  0  0
 27 24  1  0  0  0  0
 29 30  1  0  0  0  0
 29 28  1  0  0  0  0
 31 30  1  0  0  0  0
 32 34  1  0  0  0  0
 33 34  1  0  0  0  0
 34 31  1  0  0  0  0
 35 13  1  0  0  0  0
 36 39  1  0  0  0  0
 37 36  1  0  0  0  0
 37 43  1  1  0  0  0
 37 41  1  0  0  0  0
 39 40  1  0  0  0  0
 40 35  1  6  0  0  0
 40 38  1  0  0  0  0
 41 38  1  0  0  0  0
 43 42  1  0  0  0  0
M  END
>  <MODEL>
6

>  <REMARK>
 VINA RESULT:      -7.0      4.580      9.103
  Name = 
  12 active torsions:
  status: ('A' for Active; 'I' for Inactive)
    1  A    between atoms: C_1  and  C_34
    2  A    between atoms: C_1  and  C_35
    3  A    between atoms: C_2  and  O_6
    4  A    between atoms: C_2  and  C_13
    5  A    between atoms: O_6  and  C_17
    6  A    between atoms: O_11  and  O_14
    7  A    between atoms: O_11  and  C_36
    8  A    between atoms: C_12  and  C_17
    9  A    between atoms: O_14  and  C_22
   10  A    between atoms: C_19  and  C_37
   11  A    between atoms: N_31  and  C_40
   12  A    between atoms: C_36  and  C_40
                            x       y       z     vdW  Elec       q    Type
                         _______ _______ _______ _____ _____    ______ ____

>  <TORSDO>
F 12

$$$$
=
 OpenBabel11062410273D

 43 48  0  0  1  0  0  0  0  0999 V2000
  161.4220  212.9770  147.2980 C   0  0  1  0  0  3  0  0  0  0  0  0
  160.4570  211.5920  152.2110 C   0  0  0  0  0  0  0  0  0  0  0  0
  161.2180  208.8840  152.3900 C   0  0  0  0  0  0  0  0  0  0  0  0
  160.8720  213.1240  149.8010 C   0  0  1  0  0  3  0  0  0  0  0  0
  162.6670  212.2690  147.8430 C   0  0  0  0  0  2  0  0  0  0  0  0
  160.5930  212.0600  146.6790 F   0  0  0  0  0  0  0  0  0  0  0  0
  161.0480  211.6030  149.7260 C   0  0  1  0  0  3  0  0  0  0  0  0
  160.6470  213.7130  148.4030 C   0  0  0  0  0  2  0  0  0  0  0  0
  162.3290  211.2540  148.9480 C   0  0  0  0  0  2  0  0  0  0  0  0
  161.3350  209.5710  151.1780 C   0  0  0  0  0  3  0  0  0  0  0  0
  160.9890  210.9260  151.0790 C   0  0  0  0  0  0  0  0  0  0  0  0
  160.0750  213.0510  152.1380 C   0  0  0  0  0  2  0  0  0  0  0  0
  160.3480  210.8990  153.4340 C   0  0  0  0  0  0  0  0  0  0  0  0
  160.7270  209.5570  153.5130 C   0  0  0  0  0  3  0  0  0  0  0  0
  159.7200  213.4820  150.7210 C   0  0  0  0  0  2  0  0  0  0  0  0
  161.6020  207.4670  152.4740 C   0  0  0  0  0  0  0  0  0  0  0  0
  161.8170  206.9340  153.5980 O   0  0  0  0  0  0  0  0  0  0  0  0
  161.7240  206.7140  151.3020 O   0  0  0  0  0  0  0  0  0  0  0  0
  160.5960  206.1450  150.6530 C   0  0  0  0  0  2  0  0  0  0  0  0
  161.7690  204.1740  151.6340 C   0  0  0  0  0  2  0  0  0  0  0  0
  161.1450  204.2230  149.1810 C   0  0  0  0  0  2  0  0  0  0  0  0
  160.9220  201.5960  149.9260 C   0  0  2  0  0  3  0  0  0  0  0  0
  160.7450  204.6370  150.5950 C   0  0  2  0  0  3  0  0  0  0  0  0
  161.9470  202.6580  151.6240 C   0  0  0  0  0  2  0  0  0  0  0  0
  161.0880  202.7110  148.8780 C   0  0  1  0  0  0  0  0  0  0  0  0
  159.7360  202.0710  149.0890 C   0  0  0  0  0  2  0  0  0  0  0  0
  160.7460  202.0470  151.2450 O   0  0  0  0  0  0  0  0  0  0  0  0
  161.6550  202.3030  147.6630 O   0  0  0  0  0  0  0  0  0  0  0  0
  160.6760  202.3530  146.7810 O   0  0  0  0  0  0  0  0  0  0  0  0
  161.2950  202.6990  145.5770 C   0  0  0  0  0  2  0  0  0  0  0  0
  160.5900  203.9040  144.9460 C   0  0  0  0  0  2  0  0  0  0  0  0
  160.4410  206.1940  144.8350 O   0  0  0  0  0  1  0  0  0  0  0  0
  162.3370  205.3260  145.7280 C   0  0  0  0  0  1  0  0  0  0  0  0
  160.8940  205.1780  145.6080 N   0  0  0  0  0  0  0  0  0  0  0  0
  159.8410  211.5710  154.6740 C   0  0  0  0  0  2  0  0  0  0  0  0
  156.0500  211.8840  154.9220 C   0  0  0  0  0  2  0  0  0  0  0  0
  156.1710  212.6820  156.2260 C   0  0  2  0  0  3  0  0  0  0  0  0
  158.2230  211.2160  156.5470 C   0  0  0  0  0  2  0  0  0  0  0  0
  157.3880  211.8190  154.1930 C   0  0  0  0  0  2  0  0  0  0  0  0
  158.4460  211.0820  155.0340 C   0  0  1  0  0  3  0  0  0  0  0  0
  157.5450  212.5390  156.9050 C   0  0  0  0  0  2  0  0  0  0  0  0
  154.8020  210.8430  157.0480 N   0  0  0  0  0  1  0  0  0  0  0  0
  155.0590  212.2660  157.1730 C   0  0  0  0  0  2  0  0  0  0  0  0
  1  6  1  1  0  0  0
  1  5  1  0  0  0  0
  1  8  1  0  0  0  0
  2 13  1  0  0  0  0
  3 16  1  0  0  0  0
  3 14  1  0  0  0  0
  4  8  1  6  0  0  0
  4 15  1  0  0  0  0
  5  9  1  0  0  0  0
  7  9  1  1  0  0  0
  7  4  1  0  0  0  0
  7 11  1  0  0  0  0
 10  3  2  0  0  0  0
 11 10  1  0  0  0  0
 11  2  2  0  0  0  0
 12  2  1  0  0  0  0
 13 14  2  0  0  0  0
 13 35  1  0  0  0  0
 15 12  1  0  0  0  0
 16 17  2  0  0  0  0
 18 16  1  0  0  0  0
 19 18  1  0  0  0  0
 21 23  1  0  0  0  0
 22 26  1  6  0  0  0
 22 27  1  0  0  0  0
 23 19  1  6  0  0  0
 23 20  1  0  0  0  0
 24 20  1  0  0  0  0
 25 28  1  6  0  0  0
 25 26  1  0  0  0  0
 25 21  1  0  0  0  0
 25 22  1  0  0  0  0
 27 24  1  0  0  0  0
 29 28  1  0  0  0  0
 30 29  1  0  0  0  0
 31 30  1  0  0  0  0
 31 34  1  0  0  0  0
 32 34  1  0  0  0  0
 34 33  1  0  0  0  0
 36 37  1  0  0  0  0
 37 41  1  0  0  0  0
 37 43  1  1  0  0  0
 38 41  1  0  0  0  0
 39 36  1  0  0  0  0
 39 40  1  0  0  0  0
 40 35  1  1  0  0  0
 40 38  1  0  0  0  0
 42 43  1  0  0  0  0
M  END
>  <MODEL>
7

>  <REMARK>
 VINA RESULT:      -6.9      3.939      7.637
  Name = 
  12 active torsions:
  status: ('A' for Active; 'I' for Inactive)
    1  A    between atoms: C_1  and  C_34
    2  A    between atoms: C_1  and  C_35
    3  A    between atoms: C_2  and  O_6
    4  A    between atoms: C_2  and  C_13
    5  A    between atoms: O_6  and  C_17
    6  A    between atoms: O_11  and  O_14
    7  A    between atoms: O_11  and  C_36
    8  A    between atoms: C_12  and  C_17
    9  A    between atoms: O_14  and  C_22
   10  A    between atoms: C_19  and  C_37
   11  A    between atoms: N_31  and  C_40
   12  A    between atoms: C_36  and  C_40
                            x       y       z     vdW  Elec       q    Type
                         _______ _______ _______ _____ _____    ______ ____

>  <TORSDO>
F 12

$$$$
=
 OpenBabel11062410273D

 43 48  0  0  1  0  0  0  0  0999 V2000
  161.0140  200.6990  149.2140 C   0  0  1  0  0  3  0  0  0  0  0  0
  161.0890  205.3420  151.5430 C   0  0  0  0  0  0  0  0  0  0  0  0
  161.5710  207.2060  149.4850 C   0  0  0  0  0  0  0  0  0  0  0  0
  160.7300  202.5330  150.9880 C   0  0  1  0  0  3  0  0  0  0  0  0
  160.1070  201.6420  148.4170 C   0  0  0  0  0  2  0  0  0  0  0  0
  162.2960  200.7300  148.6950 F   0  0  0  0  0  0  0  0  0  0  0  0
  161.2640  203.4270  149.8620 C   0  0  1  0  0  3  0  0  0  0  0  0
  161.0510  201.0600  150.7080 C   0  0  0  0  0  2  0  0  0  0  0  0
  160.5340  203.1150  148.5440 C   0  0  0  0  0  2  0  0  0  0  0  0
  161.5040  205.8390  149.1980 C   0  0  0  0  0  3  0  0  0  0  0  0
  161.2370  204.9010  150.2050 C   0  0  0  0  0  0  0  0  0  0  0  0
  160.7990  204.3580  152.6510 C   0  0  0  0  0  2  0  0  0  0  0  0
  161.1480  206.7220  151.8290 C   0  0  0  0  0  0  0  0  0  0  0  0
  161.3880  207.6380  150.8020 C   0  0  0  0  0  3  0  0  0  0  0  0
  161.3060  202.9590  152.3250 C   0  0  0  0  0  2  0  0  0  0  0  0
  161.8370  208.1730  148.4090 C   0  0  0  0  0  0  0  0  0  0  0  0
  162.3340  207.7830  147.3160 O   0  0  0  0  0  0  0  0  0  0  0  0
  161.5330  209.5230  148.6040 O   0  0  0  0  0  0  0  0  0  0  0  0
  162.5430  210.5190  148.6770 C   0  0  0  0  0  2  0  0  0  0  0  0
  161.5910  212.7310  149.3290 C   0  0  0  0  0  2  0  0  0  0  0  0
  160.8340  211.5660  147.2120 C   0  0  0  0  0  2  0  0  0  0  0  0
  160.7260  214.2430  146.6370 C   0  0  2  0  0  3  0  0  0  0  0  0
  162.0030  211.8370  148.1570 C   0  0  2  0  0  3  0  0  0  0  0  0
  161.0510  214.0780  148.8580 C   0  0  0  0  0  2  0  0  0  0  0  0
  160.3330  212.7750  146.3930 C   0  0  1  0  0  0  0  0  0  0  0  0
  161.3790  213.4290  145.5210 C   0  0  0  0  0  2  0  0  0  0  0  0
  161.6730  214.4390  147.6570 O   0  0  0  0  0  0  0  0  0  0  0  0
  159.1340  212.5920  145.6930 O   0  0  0  0  0  0  0  0  0  0  0  0
  158.3480  213.5800  146.0720 O   0  0  0  0  0  0  0  0  0  0  0  0
  157.5140  213.0230  147.0450 C   0  0  0  0  0  2  0  0  0  0  0  0
  157.3660  213.9860  148.2280 C   0  0  0  0  0  2  0  0  0  0  0  0
  155.6590  213.6920  149.7380 O   0  0  0  0  0  1  0  0  0  0  0  0
  157.7660  213.8000  150.5710 C   0  0  0  0  0  1  0  0  0  0  0  0
  156.9370  213.3330  149.4700 N   0  0  0  0  0  0  0  0  0  0  0  0
  160.9460  207.2440  153.2190 C   0  0  0  0  0  2  0  0  0  0  0  0
  161.1790  210.6350  154.9440 C   0  0  0  0  0  2  0  0  0  0  0  0
  159.7800  211.0180  154.4460 C   0  0  2  0  0  3  0  0  0  0  0  0
  160.4500  209.5760  152.4630 C   0  0  0  0  0  2  0  0  0  0  0  0
  161.4190  209.1350  154.8020 C   0  0  0  0  0  2  0  0  0  0  0  0
  161.3720  208.7010  153.3260 C   0  0  1  0  0  3  0  0  0  0  0  0
  159.2880  210.1480  153.2750 C   0  0  0  0  0  2  0  0  0  0  0  0
  158.4870  213.0820  154.3970 N   0  0  0  0  0  1  0  0  0  0  0  0
  159.7700  212.4880  154.0630 C   0  0  0  0  0  2  0  0  0  0  0  0
  1  6  1  6  0  0  0
  1  8  1  0  0  0  0
  2 13  1  0  0  0  0
  2 12  1  0  0  0  0
  3 14  1  0  0  0  0
  4  8  1  6  0  0  0
  4 15  1  0  0  0  0
  5  9  1  0  0  0  0
  5  1  1  0  0  0  0
  7  9  1  6  0  0  0
  7 11  1  0  0  0  0
  7  4  1  0  0  0  0
 10  3  2  0  0  0  0
 10 11  1  0  0  0  0
 11  2  2  0  0  0  0
 13 35  1  0  0  0  0
 14 13  2  0  0  0  0
 15 12  1  0  0  0  0
 16 18  1  0  0  0  0
 16  3  1  0  0  0  0
 17 16  2  0  0  0  0
 18 19  1  0  0  0  0
 21 23  1  0  0  0  0
 22 26  1  6  0  0  0
 22 27  1  0  0  0  0
 23 19  1  1  0  0  0
 23 20  1  0  0  0  0
 24 20  1  0  0  0  0
 25 28  1  6  0  0  0
 25 22  1  0  0  0  0
 25 21  1  0  0  0  0
 26 25  1  0  0  0  0
 27 24  1  0  0  0  0
 28 29  1  0  0  0  0
 29 30  1  0  0  0  0
 30 31  1  0  0  0  0
 31 34  1  0  0  0  0
 34 32  1  0  0  0  0
 34 33  1  0  0  0  0
 37 43  1  6  0  0  0
 37 36  1  0  0  0  0
 38 41  1  0  0  0  0
 38 40  1  0  0  0  0
 39 36  1  0  0  0  0
 40 35  1  1  0  0  0
 40 39  1  0  0  0  0
 41 37  1  0  0  0  0
 43 42  1  0  0  0  0
M  END
>  <MODEL>
8

>  <REMARK>
 VINA RESULT:      -6.8      2.971      4.613
  Name = 
  12 active torsions:
  status: ('A' for Active; 'I' for Inactive)
    1  A    between atoms: C_1  and  C_34
    2  A    between atoms: C_1  and  C_35
    3  A    between atoms: C_2  and  O_6
    4  A    between atoms: C_2  and  C_13
    5  A    between atoms: O_6  and  C_17
    6  A    between atoms: O_11  and  O_14
    7  A    between atoms: O_11  and  C_36
    8  A    between atoms: C_12  and  C_17
    9  A    between atoms: O_14  and  C_22
   10  A    between atoms: C_19  and  C_37
   11  A    between atoms: N_31  and  C_40
   12  A    between atoms: C_36  and  C_40
                            x       y       z     vdW  Elec       q    Type
                         _______ _______ _______ _____ _____    ______ ____

>  <TORSDO>
F 12

$$$$
=
 OpenBabel11062410273D

 43 48  0  0  1  0  0  0  0  0999 V2000
  161.7450  213.7230  146.6840 C   0  0  1  0  0  3  0  0  0  0  0  0
  160.6510  212.0160  151.4670 C   0  0  0  0  0  0  0  0  0  0  0  0
  161.4050  209.3010  151.4850 C   0  0  0  0  0  0  0  0  0  0  0  0
  161.1300  213.7040  149.1760 C   0  0  1  0  0  3  0  0  0  0  0  0
  162.9750  212.9770  147.2120 C   0  0  0  0  0  2  0  0  0  0  0  0
  160.9320  212.8510  145.9840 F   0  0  0  0  0  0  0  0  0  0  0  0
  161.3070  212.1910  149.0050 C   0  0  1  0  0  3  0  0  0  0  0  0
  160.9430  214.3860  147.8160 C   0  0  0  0  0  2  0  0  0  0  0  0
  162.6080  211.8920  148.2390 C   0  0  0  0  0  2  0  0  0  0  0  0
  161.5550  210.0670  150.3250 C   0  0  0  0  0  3  0  0  0  0  0  0
  161.2120  211.4260  150.3070 C   0  0  0  0  0  0  0  0  0  0  0  0
  160.2730  213.4770  151.4810 C   0  0  0  0  0  2  0  0  0  0  0  0
  160.5090  211.2440  152.6380 C   0  0  0  0  0  0  0  0  0  0  0  0
  160.8850  209.8980  152.6380 C   0  0  0  0  0  3  0  0  0  0  0  0
  159.9550  214.0030  150.0880 C   0  0  0  0  0  2  0  0  0  0  0  0
  161.7860  207.8800  151.4840 C   0  0  0  0  0  0  0  0  0  0  0  0
  161.7310  207.2090  152.5520 O   0  0  0  0  0  0  0  0  0  0  0  0
  162.2050  207.2780  150.2940 O   0  0  0  0  0  0  0  0  0  0  0  0
  161.8680  205.9370  149.9700 C   0  0  0  0  0  2  0  0  0  0  0  0
  160.6340  206.6420  147.9200 C   0  0  0  0  0  2  0  0  0  0  0  0
  161.5880  204.3050  148.1210 C   0  0  0  0  0  2  0  0  0  0  0  0
  161.7880  204.9360  145.4620 C   0  0  2  0  0  3  0  0  0  0  0  0
  161.7760  205.7800  148.4640 C   0  0  2  0  0  3  0  0  0  0  0  0
  160.5070  206.5280  146.4030 C   0  0  0  0  0  2  0  0  0  0  0  0
  161.7330  203.9340  146.6290 C   0  0  1  0  0  0  0  0  0  0  0  0
  163.0630  204.2980  146.0110 C   0  0  0  0  0  2  0  0  0  0  0  0
  161.7670  206.2880  145.8430 O   0  0  0  0  0  0  0  0  0  0  0  0
  161.3520  202.6340  146.2760 O   0  0  0  0  0  0  0  0  0  0  0  0
  160.5650  202.2190  147.2510 O   0  0  0  0  0  0  0  0  0  0  0  0
  160.9660  200.9040  147.5010 C   0  0  0  0  0  2  0  0  0  0  0  0
  161.5170  200.7820  148.9250 C   0  0  0  0  0  2  0  0  0  0  0  0
  159.3320  201.3260  149.3810 O   0  0  0  0  0  1  0  0  0  0  0  0
  160.9130  202.1420  150.7880 C   0  0  0  0  0  1  0  0  0  0  0  0
  160.5110  201.0090  149.9690 N   0  0  0  0  0  0  0  0  0  0  0  0
  159.9710  211.8330  153.9060 C   0  0  0  0  0  2  0  0  0  0  0  0
  156.2450  211.8300  154.7120 C   0  0  0  0  0  2  0  0  0  0  0  0
  156.5260  212.2730  156.1530 C   0  0  2  0  0  3  0  0  0  0  0  0
  158.6420  210.9070  155.8120 C   0  0  0  0  0  2  0  0  0  0  0  0
  157.4690  212.0400  153.8260 C   0  0  0  0  0  2  0  0  0  0  0  0
  158.6540  211.1800  154.3010 C   0  0  1  0  0  3  0  0  0  0  0  0
  157.9850  212.0480  156.5890 C   0  0  0  0  0  2  0  0  0  0  0  0
  154.8240  210.5430  156.3700 N   0  0  0  0  0  1  0  0  0  0  0  0
  155.5700  211.5580  157.0920 C   0  0  0  0  0  2  0  0  0  0  0  0
  1  6  1  1  0  0  0
  1  5  1  0  0  0  0
  1  8  1  0  0  0  0
  2 12  1  0  0  0  0
  2 13  1  0  0  0  0
  3 14  1  0  0  0  0
  4  8  1  6  0  0  0
  4 15  1  0  0  0  0
  5  9  1  0  0  0  0
  7  9  1  1  0  0  0
  7  4  1  0  0  0  0
  7 11  1  0  0  0  0
 10  3  2  0  0  0  0
 11 10  1  0  0  0  0
 11  2  2  0  0  0  0
 13 35  1  0  0  0  0
 14 13  2  0  0  0  0
 15 12  1  0  0  0  0
 16  3  1  0  0  0  0
 16 17  2  0  0  0  0
 18 16  1  0  0  0  0
 19 18  1  0  0  0  0
 20 23  1  0  0  0  0
 21 23  1  0  0  0  0
 22 27  1  0  0  0  0
 22 26  1  1  0  0  0
 22 25  1  0  0  0  0
 23 19  1  1  0  0  0
 24 20  1  0  0  0  0
 25 28  1  6  0  0  0
 25 21  1  0  0  0  0
 26 25  1  0  0  0  0
 27 24  1  0  0  0  0
 28 29  1  0  0  0  0
 29 30  1  0  0  0  0
 30 31  1  0  0  0  0
 31 34  1  0  0  0  0
 32 34  1  0  0  0  0
 34 33  1  0  0  0  0
 36 37  1  0  0  0  0
 37 41  1  0  0  0  0
 37 43  1  1  0  0  0
 38 41  1  0  0  0  0
 39 40  1  0  0  0  0
 39 36  1  0  0  0  0
 40 35  1  1  0  0  0
 40 38  1  0  0  0  0
 42 43  1  0  0  0  0
M  END
>  <MODEL>
9

>  <REMARK>
 VINA RESULT:      -6.6      4.285      7.727
  Name = 
  12 active torsions:
  status: ('A' for Active; 'I' for Inactive)
    1  A    between atoms: C_1  and  C_34
    2  A    between atoms: C_1  and  C_35
    3  A    between atoms: C_2  and  O_6
    4  A    between atoms: C_2  and  C_13
    5  A    between atoms: O_6  and  C_17
    6  A    between atoms: O_11  and  O_14
    7  A    between atoms: O_11  and  C_36
    8  A    between atoms: C_12  and  C_17
    9  A    between atoms: O_14  and  C_22
   10  A    between atoms: C_19  and  C_37
   11  A    between atoms: N_31  and  C_40
   12  A    between atoms: C_36  and  C_40
                            x       y       z     vdW  Elec       q    Type
                         _______ _______ _______ _____ _____    ______ ____

>  <TORSDO>
F 12

$$$$
