=
 OpenBabel11062410443D

 32 36  0  0  1  0  0  0  0  0999 V2000
  161.2110  203.6730  149.6180 C   0  0  0  0  0  3  0  0  0  0  0  0
  161.0310  208.4370  151.9780 C   0  0  0  0  0  0  0  0  0  0  0  0
  160.3230  207.0200  156.5010 C   0  0  0  0  0  3  0  0  0  0  0  0
  160.3040  208.3560  156.9040 C   0  0  0  0  0  3  0  0  0  0  0  0
  161.2440  206.8310  150.1640 C   0  0  0  0  0  0  0  0  0  0  0  0
  160.8890  206.0650  152.4440 C   0  0  0  0  0  3  0  0  0  0  0  0
  161.0380  204.3130  150.7780 C   0  0  0  0  0  3  0  0  0  0  0  0
  160.5060  206.7190  155.1880 N   0  0  0  0  0  0  0  0  0  0  0  0
  160.8630  207.3870  152.9000 C   0  0  0  0  0  0  0  0  0  0  0  0
  160.6720  207.6970  154.2550 C   0  0  0  0  0  0  0  0  0  0  0  0
  160.8260  210.0590  153.7080 C   0  0  0  0  0  0  0  0  0  0  0  0
  160.7700  205.5420  148.0620 C   0  0  0  0  0  2  0  0  0  0  0  0
  161.0840  205.7610  151.0910 C   0  0  0  0  0  0  0  0  0  0  0  0
  161.5320  206.6750  148.7050 C   0  0  0  0  0  2  0  0  0  0  0  0
  161.5640  204.2800  148.3040 C   0  0  2  0  0  3  0  0  0  0  0  0
  160.4690  209.3390  155.9800 N   0  0  0  0  0  0  0  0  0  0  0  0
  160.6540  209.0460  154.6640 C   0  0  0  0  0  0  0  0  0  0  0  0
  161.2250  208.1510  150.6290 C   0  0  0  0  0  3  0  0  0  0  0  0
  161.0110  209.7290  152.4010 N   0  0  0  0  0  0  0  0  0  0  0  0
  161.2980  203.2650  147.2030 C   0  0  0  0  0  2  0  0  0  0  0  0
  161.6130  203.8320  145.8550 C   0  0  0  0  0  0  0  0  0  0  0  0
  160.8150  203.7260  144.9380 O   0  0  0  0  0  0  0  0  0  0  0  0
  162.9230  204.5010  145.6240 C   0  0  0  0  0  1  0  0  0  0  0  0
  160.8460  211.5010  154.1040 C   0  0  0  0  0  2  0  0  0  0  0  0
  158.5120  212.4470  154.2310 C   0  0  0  0  0  0  0  0  0  0  0  0
  159.4380  212.6670  152.2200 C   0  0  0  0  0  0  0  0  0  0  0  0
  158.2640  213.1750  152.0510 N   0  0  0  0  0  0  0  0  0  0  0  0
  157.5320  213.1010  153.3120 C   0  0  0  0  0  3  0  0  0  0  0  0
  160.3570  212.5890  151.2270 F   0  0  0  0  0  0  0  0  0  0  0  0
  159.6360  212.2040  153.5770 C   0  0  2  0  0  3  0  0  0  0  0  0
  158.2510  212.1070  155.6040 C   0  0  0  0  0  0  0  0  0  0  0  0
  158.0320  211.8200  156.7540 C   0  0  0  0  0  3  0  0  0  0  0  0
  1  7  2  0  0  0  0
  2 19  2  0  0  0  0
  2  9  1  0  0  0  0
  3  4  1  0  0  0  0
  5 18  2  0  0  0  0
  5 13  1  0  0  0  0
  6  9  1  0  0  0  0
  7 13  1  0  0  0  0
  8  3  2  0  0  0  0
  9 10  2  0  0  0  0
 10 17  1  0  0  0  0
 10  8  1  0  0  0  0
 11 24  1  0  0  0  0
 11 17  2  0  0  0  0
 12 15  1  0  0  0  0
 12 14  1  0  0  0  0
 13  6  2  0  0  0  0
 14  5  1  0  0  0  0
 15 20  1  6  0  0  0
 15  1  1  0  0  0  0
 16  4  2  0  0  0  0
 17 16  1  0  0  0  0
 18  2  1  0  0  0  0
 19 11  1  0  0  0  0
 21 20  1  0  0  0  0
 22 21  2  0  0  0  0
 23 21  1  0  0  0  0
 25 31  1  0  0  0  0
 26 30  1  0  0  0  0
 27 26  2  0  0  0  0
 27 28  1  0  0  0  0
 28 25  2  0  0  0  0
 29 26  1  0  0  0  0
 30 24  1  6  0  0  0
 30 25  1  0  0  0  0
 31 32  3  0  0  0  0
M  END
>  <MODEL>
1

>  <REMARK>
 VINA RESULT:      -9.7      0.000      0.000
  Name = 
  5 active torsions:
  status: ('A' for Active; 'I' for Inactive)
    1  A    between atoms: C_1  and  C_10
    2  A    between atoms: C_6  and  C_7
    3  A    between atoms: C_10  and  C_24
    4  A    between atoms: C_16  and  C_27
    5  A    between atoms: C_27  and  C_32
                            x       y       z     vdW  Elec       q    Type
                         _______ _______ _______ _____ _____    ______ ____

>  <TORSDO>
F 5

$$$$
=
 OpenBabel11062410443D

 32 36  0  0  1  0  0  0  0  0999 V2000
  161.2540  203.8820  149.8310 C   0  0  0  0  0  3  0  0  0  0  0  0
  160.9410  208.5900  152.2870 C   0  0  0  0  0  0  0  0  0  0  0  0
  160.4050  207.0630  156.7970 C   0  0  0  0  0  3  0  0  0  0  0  0
  160.3430  208.3890  157.2270 C   0  0  0  0  0  3  0  0  0  0  0  0
  161.1730  207.0280  150.4380 C   0  0  0  0  0  0  0  0  0  0  0  0
  160.9070  206.2060  152.7100 C   0  0  0  0  0  3  0  0  0  0  0  0
  161.0850  204.4930  151.0070 C   0  0  0  0  0  3  0  0  0  0  0  0
  160.5670  206.7930  155.4750 N   0  0  0  0  0  0  0  0  0  0  0  0
  160.8390  207.5170  153.1920 C   0  0  0  0  0  0  0  0  0  0  0  0
  160.6710  207.7940  154.5570 C   0  0  0  0  0  0  0  0  0  0  0  0
  160.7150  210.1710  154.0530 C   0  0  0  0  0  0  0  0  0  0  0  0
  160.6990  205.7600  148.3230 C   0  0  0  0  0  2  0  0  0  0  0  0
  161.0810  205.9350  151.3470 C   0  0  0  0  0  0  0  0  0  0  0  0
  161.4310  206.9110  148.9690 C   0  0  0  0  0  2  0  0  0  0  0  0
  161.5490  204.5270  148.5210 C   0  0  2  0  0  3  0  0  0  0  0  0
  160.4450  209.3940  156.3180 N   0  0  0  0  0  0  0  0  0  0  0  0
  160.6080  209.1340  154.9930 C   0  0  0  0  0  0  0  0  0  0  0  0
  161.1130  208.3370  150.9280 C   0  0  0  0  0  3  0  0  0  0  0  0
  160.8800  209.8720  152.7350 N   0  0  0  0  0  0  0  0  0  0  0  0
  161.2970  203.5220  147.4070 C   0  0  0  0  0  2  0  0  0  0  0  0
  161.7390  204.0580  146.0830 C   0  0  0  0  0  0  0  0  0  0  0  0
  161.0450  203.9060  145.0910 O   0  0  0  0  0  0  0  0  0  0  0  0
  163.0520  204.7530  145.9690 C   0  0  0  0  0  1  0  0  0  0  0  0
  160.6860  211.6050  154.4760 C   0  0  0  0  0  2  0  0  0  0  0  0
  158.7800  212.7810  153.3190 C   0  0  0  0  0  0  0  0  0  0  0  0
  158.3020  212.1850  155.4090 C   0  0  0  0  0  0  0  0  0  0  0  0
  157.2240  212.7860  155.0300 N   0  0  0  0  0  0  0  0  0  0  0  0
  157.3950  213.2350  153.6510 C   0  0  0  0  0  3  0  0  0  0  0  0
  158.4530  211.6550  156.6470 F   0  0  0  0  0  0  0  0  0  0  0  0
  159.3000  212.1550  154.3610 C   0  0  2  0  0  3  0  0  0  0  0  0
  159.4460  213.0240  152.0680 C   0  0  0  0  0  0  0  0  0  0  0  0
  160.0060  213.2260  151.0200 C   0  0  0  0  0  3  0  0  0  0  0  0
  1  7  2  0  0  0  0
  2 19  2  0  0  0  0
  2  9  1  0  0  0  0
  3  4  1  0  0  0  0
  5 18  2  0  0  0  0
  5 13  1  0  0  0  0
  6  9  1  0  0  0  0
  7 13  1  0  0  0  0
  8  3  2  0  0  0  0
  9 10  2  0  0  0  0
 10 17  1  0  0  0  0
 10  8  1  0  0  0  0
 11 24  1  0  0  0  0
 11 17  2  0  0  0  0
 12 15  1  0  0  0  0
 12 14  1  0  0  0  0
 13  6  2  0  0  0  0
 14  5  1  0  0  0  0
 15 20  1  6  0  0  0
 15  1  1  0  0  0  0
 16  4  2  0  0  0  0
 17 16  1  0  0  0  0
 18  2  1  0  0  0  0
 19 11  1  0  0  0  0
 21 20  1  0  0  0  0
 22 21  2  0  0  0  0
 23 21  1  0  0  0  0
 25 28  2  0  0  0  0
 25 30  1  0  0  0  0
 26 29  1  0  0  0  0
 27 26  2  0  0  0  0
 28 27  1  0  0  0  0
 30 24  1  1  0  0  0
 30 26  1  0  0  0  0
 31 25  1  0  0  0  0
 32 31  3  0  0  0  0
M  END
>  <MODEL>
2

>  <REMARK>
 VINA RESULT:      -9.6      1.262      1.887
  Name = 
  5 active torsions:
  status: ('A' for Active; 'I' for Inactive)
    1  A    between atoms: C_1  and  C_10
    2  A    between atoms: C_6  and  C_7
    3  A    between atoms: C_10  and  C_24
    4  A    between atoms: C_16  and  C_27
    5  A    between atoms: C_27  and  C_32
                            x       y       z     vdW  Elec       q    Type
                         _______ _______ _______ _____ _____    ______ ____

>  <TORSDO>
F 5

$$$$
=
 OpenBabel11062410443D

 32 36  0  0  1  0  0  0  0  0999 V2000
  161.2210  203.4660  150.2320 C   0  0  0  0  0  3  0  0  0  0  0  0
  161.0050  208.3550  152.3190 C   0  0  0  0  0  0  0  0  0  0  0  0
  160.4600  207.1900  156.9350 C   0  0  0  0  0  3  0  0  0  0  0  0
  160.4240  208.5470  157.2610 C   0  0  0  0  0  3  0  0  0  0  0  0
  161.2010  206.6500  150.5950 C   0  0  0  0  0  0  0  0  0  0  0  0
  160.9290  206.0120  152.9250 C   0  0  0  0  0  3  0  0  0  0  0  0
  161.0680  204.1690  151.3590 C   0  0  0  0  0  3  0  0  0  0  0  0
  160.6120  206.8170  155.6370 N   0  0  0  0  0  0  0  0  0  0  0  0
  160.8870  207.3570  153.3030 C   0  0  0  0  0  0  0  0  0  0  0  0
  160.7290  207.7420  154.6430 C   0  0  0  0  0  0  0  0  0  0  0  0
  160.8150  210.0710  153.9570 C   0  0  0  0  0  0  0  0  0  0  0  0
  160.6940  205.2320  148.5850 C   0  0  0  0  0  2  0  0  0  0  0  0
  161.0920  205.6340  151.5860 C   0  0  0  0  0  0  0  0  0  0  0  0
  161.4500  206.4160  149.1380 C   0  0  0  0  0  2  0  0  0  0  0  0
  161.5230  204.0030  148.8760 C   0  0  2  0  0  3  0  0  0  0  0  0
  160.5400  209.4770  156.2770 N   0  0  0  0  0  0  0  0  0  0  0  0
  160.6930  209.1120  154.9750 C   0  0  0  0  0  0  0  0  0  0  0  0
  161.1660  207.9950  150.9830 C   0  0  0  0  0  3  0  0  0  0  0  0
  160.9690  209.6690  152.6670 N   0  0  0  0  0  0  0  0  0  0  0  0
  161.2480  202.9200  147.8440 C   0  0  0  0  0  2  0  0  0  0  0  0
  160.9160  201.6170  148.4990 C   0  0  0  0  0  0  0  0  0  0  0  0
  161.7080  200.6900  148.4700 O   0  0  0  0  0  0  0  0  0  0  0  0
  159.5950  201.4420  149.1640 C   0  0  0  0  0  1  0  0  0  0  0  0
  160.8150  211.5340  154.2690 C   0  0  0  0  0  2  0  0  0  0  0  0
  158.4480  212.3960  154.3840 C   0  0  0  0  0  0  0  0  0  0  0  0
  159.3610  212.6090  152.3660 C   0  0  0  0  0  0  0  0  0  0  0  0
  158.1680  213.0710  152.1900 N   0  0  0  0  0  0  0  0  0  0  0  0
  157.4430  212.9960  153.4550 C   0  0  0  0  0  3  0  0  0  0  0  0
  160.2790  212.5450  151.3720 F   0  0  0  0  0  0  0  0  0  0  0  0
  159.5780  212.1820  153.7310 C   0  0  2  0  0  3  0  0  0  0  0  0
  158.2030  212.0740  155.7640 C   0  0  0  0  0  0  0  0  0  0  0  0
  157.9980  211.8040  156.9210 C   0  0  0  0  0  3  0  0  0  0  0  0
  1  7  2  0  0  0  0
  2 19  2  0  0  0  0
  2  9  1  0  0  0  0
  3  4  1  0  0  0  0
  5 18  2  0  0  0  0
  5 13  1  0  0  0  0
  6  9  1  0  0  0  0
  7 13  1  0  0  0  0
  8  3  2  0  0  0  0
  9 10  2  0  0  0  0
 10 17  1  0  0  0  0
 10  8  1  0  0  0  0
 11 24  1  0  0  0  0
 11 17  2  0  0  0  0
 12 15  1  0  0  0  0
 12 14  1  0  0  0  0
 13  6  2  0  0  0  0
 14  5  1  0  0  0  0
 15 20  1  6  0  0  0
 15  1  1  0  0  0  0
 16  4  2  0  0  0  0
 17 16  1  0  0  0  0
 18  2  1  0  0  0  0
 19 11  1  0  0  0  0
 20 21  1  0  0  0  0
 21 23  1  0  0  0  0
 22 21  2  0  0  0  0
 25 31  1  0  0  0  0
 26 30  1  0  0  0  0
 27 26  2  0  0  0  0
 27 28  1  0  0  0  0
 28 25  2  0  0  0  0
 29 26  1  0  0  0  0
 30 24  1  6  0  0  0
 30 25  1  0  0  0  0
 31 32  3  0  0  0  0
M  END
>  <MODEL>
3

>  <REMARK>
 VINA RESULT:      -9.0      1.154      1.508
  Name = 
  5 active torsions:
  status: ('A' for Active; 'I' for Inactive)
    1  A    between atoms: C_1  and  C_10
    2  A    between atoms: C_6  and  C_7
    3  A    between atoms: C_10  and  C_24
    4  A    between atoms: C_16  and  C_27
    5  A    between atoms: C_27  and  C_32
                            x       y       z     vdW  Elec       q    Type
                         _______ _______ _______ _____ _____    ______ ____

>  <TORSDO>
F 5

$$$$
=
 OpenBabel11062410443D

 32 36  0  0  1  0  0  0  0  0999 V2000
  161.4760  203.5750  147.9020 C   0  0  0  0  0  3  0  0  0  0  0  0
  161.3950  208.2080  150.5150 C   0  0  0  0  0  0  0  0  0  0  0  0
  160.5730  206.5720  154.9430 C   0  0  0  0  0  3  0  0  0  0  0  0
  160.5870  207.8840  155.4180 C   0  0  0  0  0  3  0  0  0  0  0  0
  161.5910  206.6960  148.6200 C   0  0  0  0  0  0  0  0  0  0  0  0
  161.1770  205.8200  150.8490 C   0  0  0  0  0  3  0  0  0  0  0  0
  161.3030  204.1570  149.0930 C   0  0  0  0  0  3  0  0  0  0  0  0
  160.7690  206.3360  153.6190 N   0  0  0  0  0  0  0  0  0  0  0  0
  161.1820  207.1160  151.3750 C   0  0  0  0  0  0  0  0  0  0  0  0
  160.9790  207.3570  152.7420 C   0  0  0  0  0  0  0  0  0  0  0  0
  161.2090  209.7410  152.3270 C   0  0  0  0  0  0  0  0  0  0  0  0
  161.1140  205.5370  146.4440 C   0  0  0  0  0  2  0  0  0  0  0  0
  161.3860  205.5840  149.4850 C   0  0  0  0  0  0  0  0  0  0  0  0
  161.8980  206.6110  147.1580 C   0  0  0  0  0  2  0  0  0  0  0  0
  161.8680  204.2410  146.6290 C   0  0  2  0  0  3  0  0  0  0  0  0
  160.7950  208.9100  154.5510 N   0  0  0  0  0  0  0  0  0  0  0  0
  160.9930  208.6830  153.2240 C   0  0  0  0  0  0  0  0  0  0  0  0
  161.6030  207.9890  149.1550 C   0  0  0  0  0  3  0  0  0  0  0  0
  161.4060  209.4750  151.0070 N   0  0  0  0  0  0  0  0  0  0  0  0
  161.5910  203.2950  145.4710 C   0  0  0  0  0  2  0  0  0  0  0  0
  160.8250  202.0930  145.9230 C   0  0  0  0  0  0  0  0  0  0  0  0
  161.2130  201.4320  146.8720 O   0  0  0  0  0  0  0  0  0  0  0  0
  159.5960  201.6820  145.1890 C   0  0  0  0  0  1  0  0  0  0  0  0
  161.2650  211.1580  152.8010 C   0  0  0  0  0  2  0  0  0  0  0  0
  159.5630  212.5600  151.5780 C   0  0  0  0  0  0  0  0  0  0  0  0
  158.8540  211.8610  153.5670 C   0  0  0  0  0  0  0  0  0  0  0  0
  157.8630  212.5710  153.1440 N   0  0  0  0  0  0  0  0  0  0  0  0
  158.1910  213.0990  151.8230 C   0  0  0  0  0  3  0  0  0  0  0  0
  158.8520  211.2360  154.7700 F   0  0  0  0  0  0  0  0  0  0  0  0
  159.9390  211.8240  152.6100 C   0  0  2  0  0  3  0  0  0  0  0  0
  160.3580  212.8350  150.4100 C   0  0  0  0  0  0  0  0  0  0  0  0
  161.0240  213.0640  149.4320 C   0  0  0  0  0  3  0  0  0  0  0  0
  1  7  2  0  0  0  0
  2 19  2  0  0  0  0
  2  9  1  0  0  0  0
  3  4  1  0  0  0  0
  5 18  2  0  0  0  0
  5 13  1  0  0  0  0
  6  9  1  0  0  0  0
  7 13  1  0  0  0  0
  8  3  2  0  0  0  0
  9 10  2  0  0  0  0
 10 17  1  0  0  0  0
 10  8  1  0  0  0  0
 11 24  1  0  0  0  0
 11 17  2  0  0  0  0
 12 15  1  0  0  0  0
 12 14  1  0  0  0  0
 13  6  2  0  0  0  0
 14  5  1  0  0  0  0
 15 20  1  6  0  0  0
 15  1  1  0  0  0  0
 16  4  2  0  0  0  0
 17 16  1  0  0  0  0
 18  2  1  0  0  0  0
 19 11  1  0  0  0  0
 20 21  1  0  0  0  0
 21 22  2  0  0  0  0
 23 21  1  0  0  0  0
 25 28  2  0  0  0  0
 25 30  1  0  0  0  0
 26 29  1  0  0  0  0
 27 26  2  0  0  0  0
 28 27  1  0  0  0  0
 30 24  1  1  0  0  0
 30 26  1  0  0  0  0
 31 25  1  0  0  0  0
 32 31  3  0  0  0  0
M  END
>  <MODEL>
4

>  <REMARK>
 VINA RESULT:      -8.3      1.654      2.591
  Name = 
  5 active torsions:
  status: ('A' for Active; 'I' for Inactive)
    1  A    between atoms: C_1  and  C_10
    2  A    between atoms: C_6  and  C_7
    3  A    between atoms: C_10  and  C_24
    4  A    between atoms: C_16  and  C_27
    5  A    between atoms: C_27  and  C_32
                            x       y       z     vdW  Elec       q    Type
                         _______ _______ _______ _____ _____    ______ ____

>  <TORSDO>
F 5

$$$$
=
 OpenBabel11062410443D

 32 36  0  0  1  0  0  0  0  0999 V2000
  161.1920  203.2400  148.2870 C   0  0  0  0  0  3  0  0  0  0  0  0
  161.3510  207.4280  151.5650 C   0  0  0  0  0  0  0  0  0  0  0  0
  162.1360  210.8870  148.3430 C   0  0  0  0  0  3  0  0  0  0  0  0
  162.1450  211.8290  149.3730 C   0  0  0  0  0  3  0  0  0  0  0  0
  161.1310  205.0990  150.8980 C   0  0  0  0  0  0  0  0  0  0  0  0
  161.5260  206.8210  149.2270 C   0  0  0  0  0  3  0  0  0  0  0  0
  161.3740  204.5620  148.3660 C   0  0  0  0  0  3  0  0  0  0  0  0
  161.9380  209.5750  148.6360 N   0  0  0  0  0  0  0  0  0  0  0  0
  161.5430  207.8030  150.2220 C   0  0  0  0  0  0  0  0  0  0  0  0
  161.7480  209.1570  149.9190 C   0  0  0  0  0  0  0  0  0  0  0  0
  161.5610  209.6880  152.2820 C   0  0  0  0  0  0  0  0  0  0  0  0
  161.5910  202.6430  150.6520 C   0  0  0  0  0  2  0  0  0  0  0  0
  161.3150  205.4710  149.5350 C   0  0  0  0  0  0  0  0  0  0  0  0
  160.8250  203.7180  151.3840 C   0  0  0  0  0  2  0  0  0  0  0  0
  160.8140  202.3210  149.3970 C   0  0  2  0  0  3  0  0  0  0  0  0
  161.9560  211.4220  150.6560 N   0  0  0  0  0  0  0  0  0  0  0  0
  161.7570  210.1100  150.9580 C   0  0  0  0  0  0  0  0  0  0  0  0
  161.1420  206.0890  151.8870 C   0  0  0  0  0  3  0  0  0  0  0  0
  161.3620  208.3680  152.5470 N   0  0  0  0  0  0  0  0  0  0  0  0
  161.0760  200.8870  148.9620 C   0  0  0  0  0  2  0  0  0  0  0  0
  160.8620  200.7190  147.4920 C   0  0  0  0  0  0  0  0  0  0  0  0
  160.0830  201.4420  146.8930 O   0  0  0  0  0  0  0  0  0  0  0  0
  161.5810  199.6390  146.7610 C   0  0  0  0  0  1  0  0  0  0  0  0
  161.5300  210.6690  153.4110 C   0  0  0  0  0  2  0  0  0  0  0  0
  159.6200  210.3640  155.0280 C   0  0  0  0  0  0  0  0  0  0  0  0
  159.0520  211.5100  153.2070 C   0  0  0  0  0  0  0  0  0  0  0  0
  157.9410  211.4450  153.8630 N   0  0  0  0  0  0  0  0  0  0  0  0
  158.1690  210.7120  155.1050 C   0  0  0  0  0  2  0  0  0  0  0  0
  159.1640  212.1290  152.0070 F   0  0  0  0  0  0  0  0  0  0  0  0
  160.1310  210.8480  153.9090 C   0  0  0  0  0  0  0  0  0  0  0  0
  160.3330  209.5910  156.0100 C   0  0  0  0  0  0  0  0  0  0  0  0
  160.9310  208.9450  156.8330 C   0  0  0  0  0  3  0  0  0  0  0  0
  1  7  2  0  0  0  0
  1 15  1  0  0  0  0
  2 18  2  0  0  0  0
  2 19  1  0  0  0  0
  3  8  2  0  0  0  0
  3  4  1  0  0  0  0
  4 16  2  0  0  0  0
  5 14  1  0  0  0  0
  5 18  1  0  0  0  0
  6 13  1  0  0  0  0
  6  9  2  0  0  0  0
  7 13  1  0  0  0  0
  8 10  1  0  0  0  0
  9  2  1  0  0  0  0
 10  9  1  0  0  0  0
 10 17  2  0  0  0  0
 11 19  2  0  0  0  0
 11 24  1  0  0  0  0
 12 14  1  0  0  0  0
 13  5  2  0  0  0  0
 15 20  1  6  0  0  0
 15 12  1  0  0  0  0
 16 17  1  0  0  0  0
 17 11  1  0  0  0  0
 21 20  1  0  0  0  0
 22 21  2  0  0  0  0
 23 21  1  0  0  0  0
 24 30  1  0  0  0  0
 25 28  1  0  0  0  0
 25 31  1  0  0  0  0
 26 27  2  0  0  0  0
 26 30  1  0  0  0  0
 27 28  1  0  0  0  0
 29 26  1  0  0  0  0
 30 25  2  0  0  0  0
 31 32  3  0  0  0  0
M  END
>  <MODEL>
5

>  <REMARK>
 VINA RESULT:      -8.0      2.018      3.881
  Name = 
  5 active torsions:
  status: ('A' for Active; 'I' for Inactive)
    1  A    between atoms: C_1  and  C_10
    2  A    between atoms: C_6  and  C_7
    3  A    between atoms: C_10  and  C_24
    4  A    between atoms: C_16  and  C_27
    5  A    between atoms: C_27  and  C_32
                            x       y       z     vdW  Elec       q    Type
                         _______ _______ _______ _____ _____    ______ ____

>  <TORSDO>
F 5

$$$$
=
 OpenBabel11062410443D

 32 36  0  0  1  0  0  0  0  0999 V2000
  161.1720  203.2520  148.2880 C   0  0  0  0  0  3  0  0  0  0  0  0
  161.3510  207.4380  151.5660 C   0  0  0  0  0  0  0  0  0  0  0  0
  162.1240  210.8980  148.3420 C   0  0  0  0  0  3  0  0  0  0  0  0
  162.1390  211.8390  149.3730 C   0  0  0  0  0  3  0  0  0  0  0  0
  161.1250  205.1100  150.8990 C   0  0  0  0  0  0  0  0  0  0  0  0
  161.5140  206.8320  149.2270 C   0  0  0  0  0  3  0  0  0  0  0  0
  161.3550  204.5740  148.3660 C   0  0  0  0  0  3  0  0  0  0  0  0
  161.9260  209.5860  148.6360 N   0  0  0  0  0  0  0  0  0  0  0  0
  161.5370  207.8140  150.2230 C   0  0  0  0  0  0  0  0  0  0  0  0
  161.7420  209.1680  149.9190 C   0  0  0  0  0  0  0  0  0  0  0  0
  161.5660  209.6980  152.2840 C   0  0  0  0  0  0  0  0  0  0  0  0
  161.5810  202.6530  150.6510 C   0  0  0  0  0  2  0  0  0  0  0  0
  161.3030  205.4820  149.5360 C   0  0  0  0  0  0  0  0  0  0  0  0
  160.8200  203.7290  151.3860 C   0  0  0  0  0  2  0  0  0  0  0  0
  160.7980  202.3330  149.3990 C   0  0  2  0  0  3  0  0  0  0  0  0
  161.9560  211.4320  150.6560 N   0  0  0  0  0  0  0  0  0  0  0  0
  161.7570  210.1200  150.9590 C   0  0  0  0  0  0  0  0  0  0  0  0
  161.1410  206.1000  151.8890 C   0  0  0  0  0  3  0  0  0  0  0  0
  161.3670  208.3780  152.5490 N   0  0  0  0  0  0  0  0  0  0  0  0
  161.0560  200.8990  148.9630 C   0  0  0  0  0  2  0  0  0  0  0  0
  160.8580  200.7370  147.4890 C   0  0  0  0  0  0  0  0  0  0  0  0
  160.0900  201.4660  146.8840 O   0  0  0  0  0  0  0  0  0  0  0  0
  161.5810  199.6560  146.7630 C   0  0  0  0  0  1  0  0  0  0  0  0
  161.5420  210.6780  153.4130 C   0  0  0  0  0  2  0  0  0  0  0  0
  159.1320  211.3340  153.7560 C   0  0  0  0  0  0  0  0  0  0  0  0
  159.8930  209.9460  155.3200 C   0  0  0  0  0  0  0  0  0  0  0  0
  158.6810  210.1710  155.7030 N   0  0  0  0  0  0  0  0  0  0  0  0
  158.0470  211.0790  154.7510 C   0  0  0  0  0  2  0  0  0  0  0  0
  160.7430  209.1400  156.0010 F   0  0  0  0  0  0  0  0  0  0  0  0
  160.2130  210.6530  154.0980 C   0  0  0  0  0  0  0  0  0  0  0  0
  159.0190  212.2140  152.6240 C   0  0  0  0  0  0  0  0  0  0  0  0
  158.9240  212.9520  151.6750 C   0  0  0  0  0  3  0  0  0  0  0  0
  1  7  2  0  0  0  0
  1 15  1  0  0  0  0
  2 18  2  0  0  0  0
  2 19  1  0  0  0  0
  3  8  2  0  0  0  0
  3  4  1  0  0  0  0
  4 16  2  0  0  0  0
  5 14  1  0  0  0  0
  5 18  1  0  0  0  0
  6 13  1  0  0  0  0
  6  9  2  0  0  0  0
  7 13  1  0  0  0  0
  8 10  1  0  0  0  0
  9  2  1  0  0  0  0
 10  9  1  0  0  0  0
 10 17  2  0  0  0  0
 11 19  2  0  0  0  0
 11 24  1  0  0  0  0
 12 14  1  0  0  0  0
 13  5  2  0  0  0  0
 15 20  1  6  0  0  0
 15 12  1  0  0  0  0
 16 17  1  0  0  0  0
 17 11  1  0  0  0  0
 21 20  1  0  0  0  0
 22 21  2  0  0  0  0
 23 21  1  0  0  0  0
 24 30  1  0  0  0  0
 25 30  2  0  0  0  0
 25 28  1  0  0  0  0
 26 27  2  0  0  0  0
 26 29  1  0  0  0  0
 28 27  1  0  0  0  0
 30 26  1  0  0  0  0
 31 25  1  0  0  0  0
 32 31  3  0  0  0  0
M  END
>  <MODEL>
6

>  <REMARK>
 VINA RESULT:      -8.0      2.214      4.140
  Name = 
  5 active torsions:
  status: ('A' for Active; 'I' for Inactive)
    1  A    between atoms: C_1  and  C_10
    2  A    between atoms: C_6  and  C_7
    3  A    between atoms: C_10  and  C_24
    4  A    between atoms: C_16  and  C_27
    5  A    between atoms: C_27  and  C_32
                            x       y       z     vdW  Elec       q    Type
                         _______ _______ _______ _____ _____    ______ ____

>  <TORSDO>
F 5

$$$$
=
 OpenBabel11062410443D

 32 36  0  0  1  0  0  0  0  0999 V2000
  160.8180  208.5670  153.4290 C   0  0  0  0  0  3  0  0  0  0  0  0
  161.7820  205.7910  148.9940 C   0  0  0  0  0  0  0  0  0  0  0  0
  160.6290  201.4140  150.5690 C   0  0  0  0  0  3  0  0  0  0  0  0
  160.9470  200.8920  149.3140 C   0  0  0  0  0  3  0  0  0  0  0  0
  161.6220  207.7420  150.4380 C   0  0  0  0  0  0  0  0  0  0  0  0
  161.0230  205.5410  151.2800 C   0  0  0  0  0  3  0  0  0  0  0  0
  160.8310  207.3470  152.8830 C   0  0  0  0  0  3  0  0  0  0  0  0
  160.7590  202.7490  150.7920 N   0  0  0  0  0  0  0  0  0  0  0  0
  161.3280  204.9680  150.0410 C   0  0  0  0  0  0  0  0  0  0  0  0
  161.1950  203.5900  149.8130 C   0  0  0  0  0  0  0  0  0  0  0  0
  161.9640  203.9210  147.5320 C   0  0  0  0  0  0  0  0  0  0  0  0
  162.2680  209.7440  151.8100 C   0  0  0  0  0  2  0  0  0  0  0  0
  161.1530  206.9180  151.5010 C   0  0  0  0  0  0  0  0  0  0  0  0
  161.7470  209.2310  150.4890 C   0  0  0  0  0  2  0  0  0  0  0  0
  161.0810  209.8600  152.7380 C   0  0  2  0  0  3  0  0  0  0  0  0
  161.3830  201.7230  148.3320 N   0  0  0  0  0  0  0  0  0  0  0  0
  161.5150  203.0600  148.5460 C   0  0  0  0  0  0  0  0  0  0  0  0
  161.9180  207.1620  149.1990 C   0  0  0  0  0  3  0  0  0  0  0  0
  162.0820  205.2530  147.7820 N   0  0  0  0  0  0  0  0  0  0  0  0
  161.3280  210.9370  153.7830 C   0  0  0  0  0  2  0  0  0  0  0  0
  160.1150  211.7900  153.9790 C   0  0  0  0  0  0  0  0  0  0  0  0
  160.0000  212.4830  154.9770 O   0  0  0  0  0  0  0  0  0  0  0  0
  159.0260  211.7690  152.9630 C   0  0  0  0  0  1  0  0  0  0  0  0
  162.2840  203.4060  146.1650 C   0  0  0  0  0  2  0  0  0  0  0  0
  160.1800  203.9490  144.8850 C   0  0  0  0  0  0  0  0  0  0  0  0
  160.4560  201.7680  145.2320 C   0  0  0  0  0  0  0  0  0  0  0  0
  159.3280  201.8180  144.6060 N   0  0  0  0  0  0  0  0  0  0  0  0
  159.0170  203.2120  144.3040 C   0  0  0  0  0  3  0  0  0  0  0  0
  161.0160  200.6070  145.6510 F   0  0  0  0  0  0  0  0  0  0  0  0
  161.0260  203.0850  145.4210 C   0  0  2  0  0  3  0  0  0  0  0  0
  160.3300  205.3790  144.8860 C   0  0  0  0  0  0  0  0  0  0  0  0
  160.4560  206.5780  144.8860 C   0  0  0  0  0  3  0  0  0  0  0  0
  2 18  2  0  0  0  0
  2  9  1  0  0  0  0
  3  8  1  0  0  0  0
  4  3  2  0  0  0  0
  5 14  1  0  0  0  0
  5 13  2  0  0  0  0
  6 13  1  0  0  0  0
  7  1  2  0  0  0  0
  9  6  2  0  0  0  0
 10  9  1  0  0  0  0
 10  8  2  0  0  0  0
 11 19  2  0  0  0  0
 11 17  1  0  0  0  0
 12 15  1  0  0  0  0
 13  7  1  0  0  0  0
 14 12  1  0  0  0  0
 15  1  1  0  0  0  0
 15 20  1  1  0  0  0
 16 17  2  0  0  0  0
 16  4  1  0  0  0  0
 17 10  1  0  0  0  0
 18  5  1  0  0  0  0
 19  2  1  0  0  0  0
 20 21  1  0  0  0  0
 21 22  2  0  0  0  0
 23 21  1  0  0  0  0
 24 11  1  0  0  0  0
 25 31  1  0  0  0  0
 25 30  1  0  0  0  0
 26 30  1  0  0  0  0
 26 29  1  0  0  0  0
 27 26  2  0  0  0  0
 28 27  1  0  0  0  0
 28 25  2  0  0  0  0
 30 24  1  1  0  0  0
 32 31  3  0  0  0  0
M  END
>  <MODEL>
7

>  <REMARK>
 VINA RESULT:      -7.9      4.662      9.314
  Name = 
  5 active torsions:
  status: ('A' for Active; 'I' for Inactive)
    1  A    between atoms: C_1  and  C_10
    2  A    between atoms: C_6  and  C_7
    3  A    between atoms: C_10  and  C_24
    4  A    between atoms: C_16  and  C_27
    5  A    between atoms: C_27  and  C_32
                            x       y       z     vdW  Elec       q    Type
                         _______ _______ _______ _____ _____    ______ ____

>  <TORSDO>
F 5

$$$$
=
 OpenBabel11062410443D

 32 36  0  0  1  0  0  0  0  0999 V2000
  160.8080  208.4610  153.8000 C   0  0  0  0  0  3  0  0  0  0  0  0
  161.6940  205.9130  149.2150 C   0  0  0  0  0  0  0  0  0  0  0  0
  160.7070  201.4410  150.6260 C   0  0  0  0  0  3  0  0  0  0  0  0
  160.9960  200.9840  149.3390 C   0  0  0  0  0  3  0  0  0  0  0  0
  161.5330  207.7920  150.7510 C   0  0  0  0  0  0  0  0  0  0  0  0
  161.0190  205.5410  151.5110 C   0  0  0  0  0  3  0  0  0  0  0  0
  160.8340  207.2680  153.1990 C   0  0  0  0  0  3  0  0  0  0  0  0
  160.8100  202.7670  150.9050 N   0  0  0  0  0  0  0  0  0  0  0  0
  161.2960  205.0320  150.2380 C   0  0  0  0  0  0  0  0  0  0  0  0
  161.1910  203.6630  149.9520 C   0  0  0  0  0  0  0  0  0  0  0  0
  161.8750  204.1160  147.6640 C   0  0  0  0  0  0  0  0  0  0  0  0
  162.1720  209.7480  152.1900 C   0  0  0  0  0  2  0  0  0  0  0  0
  161.1200  206.9090  151.7900 C   0  0  0  0  0  0  0  0  0  0  0  0
  161.6210  209.2810  150.8650 C   0  0  0  0  0  2  0  0  0  0  0  0
  161.0150  209.7910  153.1610 C   0  0  2  0  0  3  0  0  0  0  0  0
  161.3770  201.8700  148.3820 N   0  0  0  0  0  0  0  0  0  0  0  0
  161.4820  203.1990  148.6520 C   0  0  0  0  0  0  0  0  0  0  0  0
  161.8010  207.2770  149.4770 C   0  0  0  0  0  3  0  0  0  0  0  0
  161.9660  205.4380  147.9710 N   0  0  0  0  0  0  0  0  0  0  0  0
  161.2690  210.8260  154.2450 C   0  0  0  0  0  2  0  0  0  0  0  0
  160.1460  211.8100  154.3290 C   0  0  0  0  0  0  0  0  0  0  0  0
  159.9780  212.4740  155.3390 O   0  0  0  0  0  0  0  0  0  0  0  0
  159.2070  211.9570  153.1820 C   0  0  0  0  0  1  0  0  0  0  0  0
  162.1610  203.6710  146.2660 C   0  0  0  0  0  2  0  0  0  0  0  0
  160.2000  202.7180  145.0000 C   0  0  0  0  0  0  0  0  0  0  0  0
  160.3340  204.9350  144.8660 C   0  0  0  0  0  0  0  0  0  0  0  0
  159.3040  204.6660  144.1360 N   0  0  0  0  0  0  0  0  0  0  0  0
  159.0900  203.2220  144.1360 C   0  0  0  0  0  3  0  0  0  0  0  0
  160.7900  206.1960  145.0630 F   0  0  0  0  0  0  0  0  0  0  0  0
  160.9210  203.7380  145.4320 C   0  0  2  0  0  3  0  0  0  0  0  0
  160.4560  201.3310  145.2830 C   0  0  0  0  0  0  0  0  0  0  0  0
  160.6700  200.1680  145.5200 C   0  0  0  0  0  3  0  0  0  0  0  0
  2 18  2  0  0  0  0
  2  9  1  0  0  0  0
  3  8  1  0  0  0  0
  4  3  2  0  0  0  0
  5 14  1  0  0  0  0
  5 13  2  0  0  0  0
  6 13  1  0  0  0  0
  7  1  2  0  0  0  0
  9  6  2  0  0  0  0
 10  9  1  0  0  0  0
 10  8  2  0  0  0  0
 11 19  2  0  0  0  0
 11 17  1  0  0  0  0
 12 15  1  0  0  0  0
 13  7  1  0  0  0  0
 14 12  1  0  0  0  0
 15  1  1  0  0  0  0
 15 20  1  1  0  0  0
 16 17  2  0  0  0  0
 16  4  1  0  0  0  0
 17 10  1  0  0  0  0
 18  5  1  0  0  0  0
 19  2  1  0  0  0  0
 20 21  1  0  0  0  0
 21 22  2  0  0  0  0
 23 21  1  0  0  0  0
 24 11  1  0  0  0  0
 25 31  1  0  0  0  0
 25 30  1  0  0  0  0
 26 29  1  0  0  0  0
 26 30  1  0  0  0  0
 27 26  2  0  0  0  0
 28 27  1  0  0  0  0
 28 25  2  0  0  0  0
 30 24  1  6  0  0  0
 31 32  3  0  0  0  0
M  END
>  <MODEL>
8

>  <REMARK>
 VINA RESULT:      -7.6      4.227      9.270
  Name = 
  5 active torsions:
  status: ('A' for Active; 'I' for Inactive)
    1  A    between atoms: C_1  and  C_10
    2  A    between atoms: C_6  and  C_7
    3  A    between atoms: C_10  and  C_24
    4  A    between atoms: C_16  and  C_27
    5  A    between atoms: C_27  and  C_32
                            x       y       z     vdW  Elec       q    Type
                         _______ _______ _______ _____ _____    ______ ____

>  <TORSDO>
F 5

$$$$
=
 OpenBabel11062410443D

 32 36  0  0  1  0  0  0  0  0999 V2000
  161.3050  208.6090  155.8190 C   0  0  0  0  0  3  0  0  0  0  0  0
  160.7450  206.9170  150.8060 C   0  0  0  0  0  0  0  0  0  0  0  0
  161.2200  202.2050  151.5340 C   0  0  0  0  0  3  0  0  0  0  0  0
  161.0530  201.9880  150.1650 C   0  0  0  0  0  3  0  0  0  0  0  0
  160.8700  208.5040  152.6450 C   0  0  0  0  0  0  0  0  0  0  0  0
  161.1130  206.1210  153.0630 C   0  0  0  0  0  3  0  0  0  0  0  0
  161.3050  207.5380  155.0180 C   0  0  0  0  0  3  0  0  0  0  0  0
  161.1850  203.4730  152.0210 N   0  0  0  0  0  0  0  0  0  0  0  0
  160.9510  205.8510  151.7010 C   0  0  0  0  0  0  0  0  0  0  0  0
  160.9890  204.5420  151.1990 C   0  0  0  0  0  0  0  0  0  0  0  0
  160.6170  205.4160  148.9630 C   0  0  0  0  0  0  0  0  0  0  0  0
  161.6630  210.3720  154.1240 C   0  0  0  0  0  2  0  0  0  0  0  0
  161.0690  207.4300  153.5590 C   0  0  0  0  0  0  0  0  0  0  0  0
  160.7260  209.9450  153.0210 C   0  0  0  0  0  2  0  0  0  0  0  0
  160.9990  210.0140  155.4330 C   0  0  2  0  0  3  0  0  0  0  0  0
  160.8580  203.0480  149.3370 N   0  0  0  0  0  0  0  0  0  0  0  0
  160.8200  204.3210  149.8160 C   0  0  0  0  0  0  0  0  0  0  0  0
  160.7000  208.2250  151.2840 C   0  0  0  0  0  3  0  0  0  0  0  0
  160.5830  206.6750  149.4780 N   0  0  0  0  0  0  0  0  0  0  0  0
  161.4700  210.9440  156.5400 C   0  0  0  0  0  2  0  0  0  0  0  0
  160.3570  211.8180  157.0250 C   0  0  0  0  0  0  0  0  0  0  0  0
  159.2560  211.3470  157.2560 O   0  0  0  0  0  0  0  0  0  0  0  0
  160.5890  213.2800  157.1960 C   0  0  0  0  0  1  0  0  0  0  0  0
  160.4010  205.2240  147.4950 C   0  0  0  0  0  2  0  0  0  0  0  0
  161.9410  203.8960  146.0040 C   0  0  0  0  0  0  0  0  0  0  0  0
  162.9460  205.6200  146.9890 C   0  0  0  0  0  0  0  0  0  0  0  0
  163.9050  205.0740  146.3180 N   0  0  0  0  0  0  0  0  0  0  0  0
  163.3800  203.9130  145.6050 C   0  0  0  0  0  3  0  0  0  0  0  0
  163.1190  206.7210  147.7590 F   0  0  0  0  0  0  0  0  0  0  0  0
  161.6950  204.9130  146.8130 C   0  0  2  0  0  3  0  0  0  0  0  0
  160.9850  202.9030  145.5930 C   0  0  0  0  0  0  0  0  0  0  0  0
  160.1860  202.0690  145.2490 C   0  0  0  0  0  3  0  0  0  0  0  0
  2 18  2  0  0  0  0
  2  9  1  0  0  0  0
  3  8  1  0  0  0  0
  4  3  2  0  0  0  0
  5 14  1  0  0  0  0
  5 13  2  0  0  0  0
  6 13  1  0  0  0  0
  7  1  2  0  0  0  0
  9  6  2  0  0  0  0
 10  9  1  0  0  0  0
 10  8  2  0  0  0  0
 11 19  2  0  0  0  0
 11 17  1  0  0  0  0
 12 15  1  0  0  0  0
 13  7  1  0  0  0  0
 14 12  1  0  0  0  0
 15  1  1  0  0  0  0
 15 20  1  1  0  0  0
 16 17  2  0  0  0  0
 16  4  1  0  0  0  0
 17 10  1  0  0  0  0
 18  5  1  0  0  0  0
 19  2  1  0  0  0  0
 20 21  1  0  0  0  0
 21 23  1  0  0  0  0
 21 22  2  0  0  0  0
 24 11  1  0  0  0  0
 25 30  1  0  0  0  0
 26 29  1  0  0  0  0
 27 26  2  0  0  0  0
 28 25  2  0  0  0  0
 28 27  1  0  0  0  0
 30 26  1  0  0  0  0
 30 24  1  1  0  0  0
 31 25  1  0  0  0  0
 32 31  3  0  0  0  0
M  END
>  <MODEL>
9

>  <REMARK>
 VINA RESULT:      -7.5      3.922      9.084
  Name = 
  5 active torsions:
  status: ('A' for Active; 'I' for Inactive)
    1  A    between atoms: C_1  and  C_10
    2  A    between atoms: C_6  and  C_7
    3  A    between atoms: C_10  and  C_24
    4  A    between atoms: C_16  and  C_27
    5  A    between atoms: C_27  and  C_32
                            x       y       z     vdW  Elec       q    Type
                         _______ _______ _______ _____ _____    ______ ____

>  <TORSDO>
F 5

$$$$
