=
 OpenBabel11052422573D

 28 32  0  0  1  0  0  0  0  0999 V2000
  161.5300  206.8130  152.7440 N   0  0  0  0  0  0  0  0  0  0  0  0
  162.0850  211.0420  149.8250 C   0  0  0  0  0  3  0  0  0  0  0  0
  161.1710  210.5130  155.2200 O   0  0  0  0  0  1  0  0  0  0  0  0
  160.3770  212.4530  150.8270 C   0  0  0  0  0  0  0  0  0  0  0  0
  161.3180  210.5060  152.1620 C   0  0  2  0  0  3  0  0  0  0  0  0
  161.2100  212.9380  148.6020 C   0  0  0  0  0  0  0  0  0  0  0  0
  161.2230  211.3200  150.8950 C   0  0  0  0  0  0  0  0  0  0  0  0
  159.7920  212.1720  153.2720 C   0  0  0  0  0  2  0  0  0  0  0  0
  160.3650  213.2400  149.6720 C   0  0  0  0  0  3  0  0  0  0  0  0
  160.6590  208.5240  154.0560 C   0  0  0  0  0  0  0  0  0  0  0  0
  161.5730  209.0820  151.8890 N   0  0  0  0  0  2  0  0  0  0  0  0
  159.4070  212.7910  151.9300 C   0  0  0  0  0  2  0  0  0  0  0  0
  160.5410  207.3780  154.7220 C   0  0  0  0  0  0  0  0  0  0  0  0
  160.2140  209.9130  154.3980 C   0  0  2  0  0  3  0  0  0  0  0  0
  159.9150  207.2240  156.0630 C   0  0  0  0  0  1  0  0  0  0  0  0
  161.1940  213.7280  147.4610 O   0  0  0  0  0  1  0  0  0  0  0  0
  162.0720  211.8420  148.6800 C   0  0  0  0  0  3  0  0  0  0  0  0
  160.0770  210.6910  153.0710 C   0  0  2  0  0  3  0  0  0  0  0  0
  161.0850  206.2860  153.9660 N   0  0  0  0  0  0  0  0  0  0  0  0
  161.3140  208.2090  152.8120 C   0  0  0  0  0  0  0  0  0  0  0  0
  162.4390  206.1230  151.8410 C   0  0  0  0  0  2  0  0  0  0  0  0
  161.7420  204.9820  151.1810 C   0  0  0  0  0  0  0  0  0  0  0  0
  160.4920  202.8220  149.9180 C   0  0  0  0  0  0  0  0  0  0  0  0
  161.5940  203.7650  151.8570 C   0  0  0  0  0  3  0  0  0  0  0  0
  161.2730  205.1130  149.8700 C   0  0  0  0  0  3  0  0  0  0  0  0
  160.6470  204.0340  149.2390 C   0  0  0  0  0  3  0  0  0  0  0  0
  159.8840  201.7760  149.3080 F   0  0  0  0  0  0  0  0  0  0  0  0
  160.9670  202.6870  151.2270 C   0  0  0  0  0  3  0  0  0  0  0  0
  1 20  1  0  0  0  0
  1 19  1  0  0  0  0
  2  7  1  0  0  0  0
  4  7  2  0  0  0  0
  4 12  1  0  0  0  0
  5  7  1  6  0  0  0
  5 18  1  0  0  0  0
  6 17  1  0  0  0  0
  6  9  2  0  0  0  0
  9  4  1  0  0  0  0
 10 14  1  0  0  0  0
 10 13  1  0  0  0  0
 11  5  1  0  0  0  0
 11 20  1  0  0  0  0
 12  8  1  0  0  0  0
 13 15  1  0  0  0  0
 14  3  1  1  0  0  0
 16  6  1  0  0  0  0
 17  2  2  0  0  0  0
 18  8  1  1  0  0  0
 18 14  1  0  0  0  0
 19 13  2  0  0  0  0
 20 10  2  0  0  0  0
 21  1  1  0  0  0  0
 22 21  1  0  0  0  0
 22 24  1  0  0  0  0
 23 28  1  0  0  0  0
 25 22  2  0  0  0  0
 26 25  1  0  0  0  0
 26 23  2  0  0  0  0
 27 23  1  0  0  0  0
 28 24  2  0  0  0  0
M  END
>  <MODEL>
1

>  <REMARK>
 VINA RESULT:      -8.9      0.000      0.000
  Name = 
  2 active torsions:
  status: ('A' for Active; 'I' for Inactive)
    1  A    between atoms: N_1  and  C_2
    2  A    between atoms: C_2  and  C_3
                            x       y       z     vdW  Elec       q    Type
                         _______ _______ _______ _____ _____    ______ ____

>  <TORSDO>
F 2

$$$$
=
 OpenBabel11052422573D

 28 32  0  0  1  0  0  0  0  0999 V2000
  160.9970  206.6450  149.7050 N   0  0  0  0  0  0  0  0  0  0  0  0
  160.6600  210.9140  152.5980 C   0  0  0  0  0  3  0  0  0  0  0  0
  162.6180  205.9210  153.8030 O   0  0  0  0  0  1  0  0  0  0  0  0
  159.9950  209.9180  154.7140 C   0  0  0  0  0  0  0  0  0  0  0  0
  161.1460  208.4730  152.9690 C   0  0  2  0  0  3  0  0  0  0  0  0
  159.6150  212.2780  154.3010 C   0  0  0  0  0  0  0  0  0  0  0  0
  160.5450  209.7830  153.4160 C   0  0  0  0  0  0  0  0  0  0  0  0
  160.7330  207.5670  155.2810 C   0  0  0  0  0  2  0  0  0  0  0  0
  159.5170  211.1630  155.1360 C   0  0  0  0  0  3  0  0  0  0  0  0
  161.2440  205.8720  151.8840 C   0  0  0  0  0  0  0  0  0  0  0  0
  160.9740  208.2480  151.5250 N   0  0  0  0  0  2  0  0  0  0  0  0
  159.8170  208.7370  155.6320 C   0  0  0  0  0  2  0  0  0  0  0  0
  161.2970  204.8310  151.0570 C   0  0  0  0  0  0  0  0  0  0  0  0
  161.2870  205.9460  153.3790 C   0  0  2  0  0  3  0  0  0  0  0  0
  161.4460  203.4100  151.4730 C   0  0  0  0  0  1  0  0  0  0  0  0
  159.1420  213.5100  154.7320 O   0  0  0  0  0  1  0  0  0  0  0  0
  160.1900  212.1550  153.0350 C   0  0  0  0  0  3  0  0  0  0  0  0
  160.6130  207.2730  153.7940 C   0  0  2  0  0  3  0  0  0  0  0  0
  161.1720  205.2530  149.6910 N   0  0  0  0  0  0  0  0  0  0  0  0
  161.0890  207.0430  151.0590 C   0  0  0  0  0  0  0  0  0  0  0  0
  161.1680  207.5000  148.5390 C   0  0  0  0  0  2  0  0  0  0  0  0
  161.2840  206.6720  147.3050 C   0  0  0  0  0  0  0  0  0  0  0  0
  161.5230  205.1700  144.9580 C   0  0  0  0  0  0  0  0  0  0  0  0
  162.4770  205.9960  147.0250 C   0  0  0  0  0  3  0  0  0  0  0  0
  160.2150  206.6040  146.4060 C   0  0  0  0  0  3  0  0  0  0  0  0
  160.3340  205.8520  145.2330 C   0  0  0  0  0  3  0  0  0  0  0  0
  161.6380  204.4410  143.8220 F   0  0  0  0  0  0  0  0  0  0  0  0
  162.5950  205.2430  145.8530 C   0  0  0  0  0  3  0  0  0  0  0  0
  1 20  1  0  0  0  0
  2 17  2  0  0  0  0
  2  7  1  0  0  0  0
  4  9  1  0  0  0  0
  4 12  1  0  0  0  0
  5 11  1  6  0  0  0
  5  7  1  0  0  0  0
  5 18  1  0  0  0  0
  6 16  1  0  0  0  0
  6  9  2  0  0  0  0
  7  4  2  0  0  0  0
  8 12  1  0  0  0  0
 10 14  1  0  0  0  0
 13 15  1  0  0  0  0
 13 10  1  0  0  0  0
 14 18  1  0  0  0  0
 14  3  1  6  0  0  0
 17  6  1  0  0  0  0
 18  8  1  1  0  0  0
 19  1  1  0  0  0  0
 19 13  2  0  0  0  0
 20 11  1  0  0  0  0
 20 10  2  0  0  0  0
 21  1  1  0  0  0  0
 22 21  1  0  0  0  0
 23 26  2  0  0  0  0
 23 28  1  0  0  0  0
 24 22  1  0  0  0  0
 25 22  2  0  0  0  0
 26 25  1  0  0  0  0
 27 23  1  0  0  0  0
 28 24  2  0  0  0  0
M  END
>  <MODEL>
2

>  <REMARK>
 VINA RESULT:      -8.8      2.792      4.700
  Name = 
  2 active torsions:
  status: ('A' for Active; 'I' for Inactive)
    1  A    between atoms: N_1  and  C_2
    2  A    between atoms: C_2  and  C_3
                            x       y       z     vdW  Elec       q    Type
                         _______ _______ _______ _____ _____    ______ ____

>  <TORSDO>
F 2

$$$$
=
 OpenBabel11052422573D

 28 32  0  0  1  0  0  0  0  0999 V2000
  161.4810  210.3190  152.7480 N   0  0  0  0  0  0  0  0  0  0  0  0
  160.6160  206.7020  149.1590 C   0  0  0  0  0  3  0  0  0  0  0  0
  159.8590  206.5940  154.6030 O   0  0  0  0  0  1  0  0  0  0  0  0
  161.3840  204.7380  150.3700 C   0  0  0  0  0  0  0  0  0  0  0  0
  160.7150  206.8150  151.6720 C   0  0  2  0  0  3  0  0  0  0  0  0
  161.2060  204.6890  147.9520 C   0  0  0  0  0  0  0  0  0  0  0  0
  160.9560  206.0870  150.3720 C   0  0  0  0  0  0  0  0  0  0  0  0
  161.2060  204.6690  152.8920 C   0  0  0  0  0  2  0  0  0  0  0  0
  161.5240  204.0580  149.1560 C   0  0  0  0  0  3  0  0  0  0  0  0
  161.3080  208.3450  153.9650 C   0  0  0  0  0  0  0  0  0  0  0  0
  161.0160  208.2520  151.5670 N   0  0  0  0  0  2  0  0  0  0  0  0
  161.7920  204.0280  151.6360 C   0  0  0  0  0  2  0  0  0  0  0  0
  161.5540  209.3430  154.8100 C   0  0  0  0  0  0  0  0  0  0  0  0
  161.1660  206.8720  154.1950 C   0  0  2  0  0  3  0  0  0  0  0  0
  161.7300  209.2000  156.2810 C   0  0  0  0  0  1  0  0  0  0  0  0
  161.3430  204.0050  146.7530 O   0  0  0  0  0  1  0  0  0  0  0  0
  160.7490  206.0090  147.9530 C   0  0  0  0  0  3  0  0  0  0  0  0
  161.4750  206.1660  152.8560 C   0  0  2  0  0  3  0  0  0  0  0  0
  161.6480  210.5940  154.1140 N   0  0  0  0  0  0  0  0  0  0  0  0
  161.2210  208.9320  152.6520 C   0  0  0  0  0  0  0  0  0  0  0  0
  161.1730  211.3270  151.7450 C   0  0  0  0  0  2  0  0  0  0  0  0
  159.9240  212.0540  152.1110 C   0  0  0  0  0  0  0  0  0  0  0  0
  157.6100  213.4400  152.8490 C   0  0  0  0  0  0  0  0  0  0  0  0
  159.7060  213.3540  151.6390 C   0  0  0  0  0  3  0  0  0  0  0  0
  158.9890  211.4530  152.9600 C   0  0  0  0  0  3  0  0  0  0  0  0
  157.8320  212.1450  153.3280 C   0  0  0  0  0  3  0  0  0  0  0  0
  156.4880  214.1110  153.2050 F   0  0  0  0  0  0  0  0  0  0  0  0
  158.5480  214.0450  152.0070 C   0  0  0  0  0  3  0  0  0  0  0  0
  1 19  1  0  0  0  0
  2  7  1  0  0  0  0
  4  7  2  0  0  0  0
  4 12  1  0  0  0  0
  5  7  1  6  0  0  0
  5 18  1  0  0  0  0
  6 17  1  0  0  0  0
  6  9  2  0  0  0  0
  9  4  1  0  0  0  0
 10 14  1  0  0  0  0
 10 13  1  0  0  0  0
 11  5  1  0  0  0  0
 11 20  1  0  0  0  0
 12  8  1  0  0  0  0
 13 15  1  0  0  0  0
 14  3  1  6  0  0  0
 16  6  1  0  0  0  0
 17  2  2  0  0  0  0
 18  8  1  1  0  0  0
 18 14  1  0  0  0  0
 19 13  2  0  0  0  0
 20  1  1  0  0  0  0
 20 10  2  0  0  0  0
 21 22  1  0  0  0  0
 21  1  1  0  0  0  0
 22 25  1  0  0  0  0
 23 27  1  0  0  0  0
 23 26  1  0  0  0  0
 24 28  1  0  0  0  0
 24 22  2  0  0  0  0
 25 26  2  0  0  0  0
 28 23  2  0  0  0  0
M  END
>  <MODEL>
3

>  <REMARK>
 VINA RESULT:      -8.3      3.602      7.107
  Name = 
  2 active torsions:
  status: ('A' for Active; 'I' for Inactive)
    1  A    between atoms: N_1  and  C_2
    2  A    between atoms: C_2  and  C_3
                            x       y       z     vdW  Elec       q    Type
                         _______ _______ _______ _____ _____    ______ ____

>  <TORSDO>
F 2

$$$$
=
 OpenBabel11052422573D

 28 32  0  0  1  0  0  0  0  0999 V2000
  161.4790  205.0860  149.0160 N   0  0  0  0  0  0  0  0  0  0  0  0
  162.2040  210.2030  149.0560 C   0  0  0  0  0  3  0  0  0  0  0  0
  162.3560  206.5360  153.1480 O   0  0  0  0  0  1  0  0  0  0  0  0
  161.0440  210.7600  151.1190 C   0  0  0  0  0  0  0  0  0  0  0  0
  161.8560  208.3800  150.7560 C   0  0  2  0  0  3  0  0  0  0  0  0
  161.4690  212.4740  149.4560 C   0  0  0  0  0  0  0  0  0  0  0  0
  161.6540  209.7970  150.2800 C   0  0  0  0  0  0  0  0  0  0  0  0
  160.9410  209.0700  152.9970 C   0  0  0  0  0  2  0  0  0  0  0  0
  160.9400  212.0870  150.6890 C   0  0  0  0  0  3  0  0  0  0  0  0
  161.2430  205.6730  151.2530 C   0  0  0  0  0  0  0  0  0  0  0  0
  161.7730  207.4070  149.6540 N   0  0  0  0  0  2  0  0  0  0  0  0
  160.4080  210.3850  152.4330 C   0  0  0  0  0  2  0  0  0  0  0  0
  161.0520  204.3620  151.1370 C   0  0  0  0  0  0  0  0  0  0  0  0
  161.1520  206.5810  152.4410 C   0  0  2  0  0  3  0  0  0  0  0  0
  160.7020  203.4420  152.2540 C   0  0  0  0  0  1  0  0  0  0  0  0
  161.3650  213.7940  149.0400 O   0  0  0  0  0  1  0  0  0  0  0  0
  162.1050  211.5330  148.6410 C   0  0  0  0  0  3  0  0  0  0  0  0
  160.8910  208.0070  151.9100 C   0  0  2  0  0  3  0  0  0  0  0  0
  161.2080  203.9380  149.7750 N   0  0  0  0  0  0  0  0  0  0  0  0
  161.5510  206.1600  149.9330 C   0  0  0  0  0  0  0  0  0  0  0  0
  162.0310  205.0610  147.6690 C   0  0  0  0  0  2  0  0  0  0  0  0
  161.4350  203.9400  146.8880 C   0  0  0  0  0  0  0  0  0  0  0  0
  160.3760  201.8210  145.4010 C   0  0  0  0  0  0  0  0  0  0  0  0
  161.3320  202.6660  147.4590 C   0  0  0  0  0  3  0  0  0  0  0  0
  161.0180  204.1500  145.5700 C   0  0  0  0  0  3  0  0  0  0  0  0
  160.4870  203.0920  144.8270 C   0  0  0  0  0  3  0  0  0  0  0  0
  159.8610  200.7950  144.6810 F   0  0  0  0  0  0  0  0  0  0  0  0
  160.7990  201.6080  146.7160 C   0  0  0  0  0  3  0  0  0  0  0  0
  1 19  1  0  0  0  0
  1 20  1  0  0  0  0
  2  7  1  0  0  0  0
  4 12  1  0  0  0  0
  5 11  1  6  0  0  0
  5 18  1  0  0  0  0
  6  9  2  0  0  0  0
  7  5  1  0  0  0  0
  7  4  2  0  0  0  0
  9  4  1  0  0  0  0
 10 14  1  0  0  0  0
 11 20  1  0  0  0  0
 12  8  1  0  0  0  0
 13 10  1  0  0  0  0
 13 15  1  0  0  0  0
 14  3  1  6  0  0  0
 16  6  1  0  0  0  0
 17  2  2  0  0  0  0
 17  6  1  0  0  0  0
 18 14  1  0  0  0  0
 18  8  1  1  0  0  0
 19 13  2  0  0  0  0
 20 10  2  0  0  0  0
 21  1  1  0  0  0  0
 22 24  1  0  0  0  0
 22 21  1  0  0  0  0
 23 28  1  0  0  0  0
 25 22  2  0  0  0  0
 26 23  2  0  0  0  0
 26 25  1  0  0  0  0
 27 23  1  0  0  0  0
 28 24  2  0  0  0  0
M  END
>  <MODEL>
4

>  <REMARK>
 VINA RESULT:      -8.3      2.600      3.673
  Name = 
  2 active torsions:
  status: ('A' for Active; 'I' for Inactive)
    1  A    between atoms: N_1  and  C_2
    2  A    between atoms: C_2  and  C_3
                            x       y       z     vdW  Elec       q    Type
                         _______ _______ _______ _____ _____    ______ ____

>  <TORSDO>
F 2

$$$$
=
 OpenBabel11052422573D

 28 32  0  0  1  0  0  0  0  0999 V2000
  161.5120  206.9900  152.8760 N   0  0  0  0  0  0  0  0  0  0  0  0
  161.8660  211.2840  150.0220 C   0  0  0  0  0  3  0  0  0  0  0  0
  161.0780  210.6330  155.4230 O   0  0  0  0  0  1  0  0  0  0  0  0
  160.1310  212.6180  151.0820 C   0  0  0  0  0  0  0  0  0  0  0  0
  161.1650  210.6830  152.3630 C   0  0  2  0  0  3  0  0  0  0  0  0
  160.9030  213.1690  148.8490 C   0  0  0  0  0  0  0  0  0  0  0  0
  161.0160  211.5140  151.1130 C   0  0  0  0  0  0  0  0  0  0  0  0
  159.6050  212.2770  153.5320 C   0  0  0  0  0  2  0  0  0  0  0  0
  160.0700  213.4240  149.9400 C   0  0  0  0  0  3  0  0  0  0  0  0
  160.6100  208.6470  154.2350 C   0  0  0  0  0  0  0  0  0  0  0  0
  161.4620  209.2730  152.0600 N   0  0  0  0  0  2  0  0  0  0  0  0
  159.1720  212.9040  152.2090 C   0  0  0  0  0  2  0  0  0  0  0  0
  160.5440  207.4880  154.8830 C   0  0  0  0  0  0  0  0  0  0  0  0
  160.1260  210.0150  154.6100 C   0  0  2  0  0  3  0  0  0  0  0  0
  159.9500  207.2890  156.2330 C   0  0  0  0  0  1  0  0  0  0  0  0
  160.8380  213.9770  147.7230 O   0  0  0  0  0  1  0  0  0  0  0  0
  161.8040  212.1020  148.8910 C   0  0  0  0  0  3  0  0  0  0  0  0
  159.9350  210.8100  153.2990 C   0  0  2  0  0  3  0  0  0  0  0  0
  161.1100  206.4270  154.0980 N   0  0  0  0  0  0  0  0  0  0  0  0
  161.2500  208.3770  152.9730 C   0  0  0  0  0  0  0  0  0  0  0  0
  162.4260  206.3460  151.9440 C   0  0  0  0  0  2  0  0  0  0  0  0
  161.8780  206.4090  150.5600 C   0  0  0  0  0  0  0  0  0  0  0  0
  160.9000  206.4890  147.9400 C   0  0  0  0  0  0  0  0  0  0  0  0
  160.9510  205.4530  150.1280 C   0  0  0  0  0  3  0  0  0  0  0  0
  162.3230  207.3970  149.6760 C   0  0  0  0  0  3  0  0  0  0  0  0
  161.8330  207.4390  148.3670 C   0  0  0  0  0  3  0  0  0  0  0  0
  160.4240  206.5290  146.6720 F   0  0  0  0  0  0  0  0  0  0  0  0
  160.4600  205.4950  148.8200 C   0  0  0  0  0  3  0  0  0  0  0  0
  1 20  1  0  0  0  0
  1 19  1  0  0  0  0
  2  7  1  0  0  0  0
  4  7  2  0  0  0  0
  4 12  1  0  0  0  0
  5  7  1  6  0  0  0
  5 18  1  0  0  0  0
  6 17  1  0  0  0  0
  6  9  2  0  0  0  0
  9  4  1  0  0  0  0
 10 14  1  0  0  0  0
 10 13  1  0  0  0  0
 11  5  1  0  0  0  0
 11 20  1  0  0  0  0
 12  8  1  0  0  0  0
 13 15  1  0  0  0  0
 14  3  1  1  0  0  0
 16  6  1  0  0  0  0
 17  2  2  0  0  0  0
 18  8  1  1  0  0  0
 18 14  1  0  0  0  0
 19 13  2  0  0  0  0
 20 10  2  0  0  0  0
 21  1  1  0  0  0  0
 22 21  1  0  0  0  0
 23 26  2  0  0  0  0
 23 28  1  0  0  0  0
 24 22  1  0  0  0  0
 25 22  2  0  0  0  0
 26 25  1  0  0  0  0
 27 23  1  0  0  0  0
 28 24  2  0  0  0  0
M  END
>  <MODEL>
5

>  <REMARK>
 VINA RESULT:      -8.2      1.451      1.816
  Name = 
  2 active torsions:
  status: ('A' for Active; 'I' for Inactive)
    1  A    between atoms: N_1  and  C_2
    2  A    between atoms: C_2  and  C_3
                            x       y       z     vdW  Elec       q    Type
                         _______ _______ _______ _____ _____    ______ ____

>  <TORSDO>
F 2

$$$$
=
 OpenBabel11052422573D

 28 32  0  0  1  0  0  0  0  0999 V2000
  161.6940  206.9790  149.6140 N   0  0  0  0  0  0  0  0  0  0  0  0
  160.5890  202.6680  146.9870 C   0  0  0  0  0  3  0  0  0  0  0  0
  159.8230  203.9260  152.2830 O   0  0  0  0  0  1  0  0  0  0  0  0
  161.2220  201.0090  148.6470 C   0  0  0  0  0  0  0  0  0  0  0  0
  160.6940  203.3770  149.4000 C   0  0  2  0  0  3  0  0  0  0  0  0
  161.0420  200.3900  146.3090 C   0  0  0  0  0  0  0  0  0  0  0  0
  160.8860  202.3440  148.3180 C   0  0  0  0  0  0  0  0  0  0  0  0
  161.0390  201.5610  151.1080 C   0  0  0  0  0  2  0  0  0  0  0  0
  161.3160  200.0490  147.6350 C   0  0  0  0  0  3  0  0  0  0  0  0
  161.3880  205.3730  151.2670 C   0  0  0  0  0  0  0  0  0  0  0  0
  161.0910  204.7240  148.9570 N   0  0  0  0  0  2  0  0  0  0  0  0
  161.5810  200.6000  150.0530 C   0  0  0  0  0  2  0  0  0  0  0  0
  161.7000  206.5260  151.8520 C   0  0  0  0  0  0  0  0  0  0  0  0
  161.1460  204.0110  151.8420 C   0  0  2  0  0  3  0  0  0  0  0  0
  161.8650  206.7310  153.3160 C   0  0  0  0  0  1  0  0  0  0  0  0
  161.1340  199.4290  145.3120 O   0  0  0  0  0  1  0  0  0  0  0  0
  160.6750  201.6980  145.9850 C   0  0  0  0  0  3  0  0  0  0  0  0
  161.4080  202.9840  150.7180 C   0  0  2  0  0  3  0  0  0  0  0  0
  161.8790  207.5640  150.8760 N   0  0  0  0  0  0  0  0  0  0  0  0
  161.3410  205.6300  149.8510 C   0  0  0  0  0  0  0  0  0  0  0  0
  161.4560  207.7340  148.3930 C   0  0  0  0  0  2  0  0  0  0  0  0
  161.4890  206.8270  147.2110 C   0  0  0  0  0  0  0  0  0  0  0  0
  161.5700  205.1740  144.9560 C   0  0  0  0  0  0  0  0  0  0  0  0
  162.6660  206.1410  146.8870 C   0  0  0  0  0  3  0  0  0  0  0  0
  160.3570  206.6930  146.4000 C   0  0  0  0  0  3  0  0  0  0  0  0
  160.3970  205.8660  145.2740 C   0  0  0  0  0  3  0  0  0  0  0  0
  161.6080  204.3720  143.8650 F   0  0  0  0  0  0  0  0  0  0  0  0
  162.7040  205.3130  145.7620 C   0  0  0  0  0  3  0  0  0  0  0  0
  1 20  1  0  0  0  0
  1 19  1  0  0  0  0
  2  7  1  0  0  0  0
  4 12  1  0  0  0  0
  5  7  1  6  0  0  0
  5 18  1  0  0  0  0
  6  9  2  0  0  0  0
  7  4  2  0  0  0  0
  9  4  1  0  0  0  0
 10 14  1  0  0  0  0
 10 13  1  0  0  0  0
 11  5  1  0  0  0  0
 11 20  1  0  0  0  0
 12  8  1  0  0  0  0
 13 15  1  0  0  0  0
 14  3  1  6  0  0  0
 16  6  1  0  0  0  0
 17  6  1  0  0  0  0
 17  2  2  0  0  0  0
 18  8  1  1  0  0  0
 18 14  1  0  0  0  0
 19 13  2  0  0  0  0
 20 10  2  0  0  0  0
 21  1  1  0  0  0  0
 22 21  1  0  0  0  0
 23 26  2  0  0  0  0
 23 28  1  0  0  0  0
 24 22  1  0  0  0  0
 25 22  2  0  0  0  0
 26 25  1  0  0  0  0
 27 23  1  0  0  0  0
 28 24  2  0  0  0  0
M  END
>  <MODEL>
6

>  <REMARK>
 VINA RESULT:      -8.1      4.331      7.974
  Name = 
  2 active torsions:
  status: ('A' for Active; 'I' for Inactive)
    1  A    between atoms: N_1  and  C_2
    2  A    between atoms: C_2  and  C_3
                            x       y       z     vdW  Elec       q    Type
                         _______ _______ _______ _____ _____    ______ ____

>  <TORSDO>
F 2

$$$$
=
 OpenBabel11052422573D

 28 32  0  0  1  0  0  0  0  0999 V2000
  161.2110  208.9330  152.3310 N   0  0  0  0  0  0  0  0  0  0  0  0
  161.4060  203.8830  151.2540 C   0  0  0  0  0  3  0  0  0  0  0  0
  163.3610  208.2100  148.4850 O   0  0  0  0  0  1  0  0  0  0  0  0
  161.0100  203.9650  148.8560 C   0  0  0  0  0  0  0  0  0  0  0  0
  161.8650  206.0420  150.0440 C   0  0  2  0  0  3  0  0  0  0  0  0
  160.6470  201.9050  150.0840 C   0  0  0  0  0  0  0  0  0  0  0  0
  161.3710  204.6160  150.0600 C   0  0  0  0  0  0  0  0  0  0  0  0
  161.7490  205.9880  147.5310 C   0  0  0  0  0  2  0  0  0  0  0  0
  160.6330  202.6190  148.8840 C   0  0  0  0  0  3  0  0  0  0  0  0
  161.7340  208.8580  150.0670 C   0  0  0  0  0  0  0  0  0  0  0  0
  161.4880  206.7730  151.2650 N   0  0  0  0  0  2  0  0  0  0  0  0
  160.9250  204.7020  147.5440 C   0  0  0  0  0  2  0  0  0  0  0  0
  161.6410  210.1330  150.4370 C   0  0  0  0  0  0  0  0  0  0  0  0
  161.9860  208.2380  148.7270 C   0  0  2  0  0  3  0  0  0  0  0  0
  161.8030  211.3050  149.5350 C   0  0  0  0  0  1  0  0  0  0  0  0
  160.2750  200.5680  150.1010 O   0  0  0  0  0  1  0  0  0  0  0  0
  161.0370  202.5350  151.2680 C   0  0  0  0  0  3  0  0  0  0  0  0
  161.4160  206.8030  148.7710 C   0  0  2  0  0  3  0  0  0  0  0  0
  161.3410  210.2400  151.8370 N   0  0  0  0  0  0  0  0  0  0  0  0
  161.5020  208.0700  151.2500 C   0  0  0  0  0  0  0  0  0  0  0  0
  161.2440  208.5900  153.7450 C   0  0  0  0  0  2  0  0  0  0  0  0
  160.9250  209.7860  154.5740 C   0  0  0  0  0  0  0  0  0  0  0  0
  160.3050  211.9920  156.1780 C   0  0  0  0  0  0  0  0  0  0  0  0
  161.9020  210.3440  155.4070 C   0  0  0  0  0  3  0  0  0  0  0  0
  159.6350  210.3270  154.5540 C   0  0  0  0  0  3  0  0  0  0  0  0
  159.3260  211.4310  155.3540 C   0  0  0  0  0  3  0  0  0  0  0  0
  160.0060  213.0620  156.9540 F   0  0  0  0  0  0  0  0  0  0  0  0
  161.5930  211.4480  156.2060 C   0  0  0  0  0  3  0  0  0  0  0  0
  1 21  1  0  0  0  0
  2 17  1  0  0  0  0
  4  9  2  0  0  0  0
  4  7  1  0  0  0  0
  5  7  1  1  0  0  0
  5 11  1  0  0  0  0
  6 16  1  0  0  0  0
  6 17  2  0  0  0  0
  7  2  2  0  0  0  0
  8 12  1  0  0  0  0
  9  6  1  0  0  0  0
 10 13  1  0  0  0  0
 10 20  2  0  0  0  0
 12  4  1  0  0  0  0
 13 19  2  0  0  0  0
 14  3  1  1  0  0  0
 14 18  1  0  0  0  0
 14 10  1  0  0  0  0
 15 13  1  0  0  0  0
 18  8  1  6  0  0  0
 18  5  1  0  0  0  0
 19  1  1  0  0  0  0
 20 11  1  0  0  0  0
 20  1  1  0  0  0  0
 21 22  1  0  0  0  0
 22 24  1  0  0  0  0
 23 28  1  0  0  0  0
 23 27  1  0  0  0  0
 24 28  2  0  0  0  0
 25 22  2  0  0  0  0
 25 26  1  0  0  0  0
 26 23  2  0  0  0  0
M  END
>  <MODEL>
7

>  <REMARK>
 VINA RESULT:      -8.0      3.840      8.027
  Name = 
  2 active torsions:
  status: ('A' for Active; 'I' for Inactive)
    1  A    between atoms: N_1  and  C_2
    2  A    between atoms: C_2  and  C_3
                            x       y       z     vdW  Elec       q    Type
                         _______ _______ _______ _____ _____    ______ ____

>  <TORSDO>
F 2

$$$$
=
 OpenBabel11052422573D

 28 32  0  0  1  0  0  0  0  0999 V2000
  161.3480  208.3740  151.8640 N   0  0  0  0  0  0  0  0  0  0  0  0
  160.6010  206.6220  147.0600 C   0  0  0  0  0  3  0  0  0  0  0  0
  159.6830  204.2300  151.9230 O   0  0  0  0  0  1  0  0  0  0  0  0
  161.3390  204.3230  147.3480 C   0  0  0  0  0  0  0  0  0  0  0  0
  160.6250  205.6610  149.3860 C   0  0  2  0  0  3  0  0  0  0  0  0
  161.2320  205.3030  145.1310 C   0  0  0  0  0  0  0  0  0  0  0  0
  160.9070  205.5490  147.9080 C   0  0  0  0  0  0  0  0  0  0  0  0
  161.0870  203.1960  149.5980 C   0  0  0  0  0  2  0  0  0  0  0  0
  161.5160  204.2190  145.9640 C   0  0  0  0  0  3  0  0  0  0  0  0
  161.1450  206.0730  152.1270 C   0  0  0  0  0  0  0  0  0  0  0  0
  160.9240  207.0050  149.9070 N   0  0  0  0  0  2  0  0  0  0  0  0
  161.7120  203.1410  148.2050 C   0  0  0  0  0  2  0  0  0  0  0  0
  161.3630  206.6170  153.3210 C   0  0  0  0  0  0  0  0  0  0  0  0
  161.0010  204.6410  151.7080 C   0  0  2  0  0  3  0  0  0  0  0  0
  161.4960  205.8640  154.5980 C   0  0  0  0  0  1  0  0  0  0  0  0
  161.4070  205.1880  143.7590 O   0  0  0  0  0  1  0  0  0  0  0  0
  160.7710  206.5030  145.6780 C   0  0  0  0  0  3  0  0  0  0  0  0
  161.3520  204.5650  150.2060 C   0  0  2  0  0  3  0  0  0  0  0  0
  161.4740  208.0450  153.2220 N   0  0  0  0  0  0  0  0  0  0  0  0
  161.0950  207.1600  151.1840 C   0  0  0  0  0  0  0  0  0  0  0  0
  161.0660  209.7150  151.3730 C   0  0  0  0  0  2  0  0  0  0  0  0
  160.5150  210.5600  152.4700 C   0  0  0  0  0  0  0  0  0  0  0  0
  159.4560  212.0920  154.5570 C   0  0  0  0  0  0  0  0  0  0  0  0
  161.2930  210.8370  153.6000 C   0  0  0  0  0  3  0  0  0  0  0  0
  159.2040  211.0410  152.3910 C   0  0  0  0  0  3  0  0  0  0  0  0
  158.6750  211.8090  153.4320 C   0  0  0  0  0  3  0  0  0  0  0  0
  158.9440  212.8360  155.5670 F   0  0  0  0  0  0  0  0  0  0  0  0
  160.7640  211.6050  154.6420 C   0  0  0  0  0  3  0  0  0  0  0  0
  1 19  1  0  0  0  0
  2  7  1  0  0  0  0
  4  7  2  0  0  0  0
  4 12  1  0  0  0  0
  5  7  1  6  0  0  0
  5 11  1  0  0  0  0
  5 18  1  0  0  0  0
  6 17  1  0  0  0  0
  6  9  2  0  0  0  0
  9  4  1  0  0  0  0
 10 13  1  0  0  0  0
 11 20  1  0  0  0  0
 12  8  1  0  0  0  0
 13 15  1  0  0  0  0
 14  3  1  6  0  0  0
 14 10  1  0  0  0  0
 16  6  1  0  0  0  0
 17  2  2  0  0  0  0
 18  8  1  6  0  0  0
 18 14  1  0  0  0  0
 19 13  2  0  0  0  0
 20  1  1  0  0  0  0
 20 10  2  0  0  0  0
 21  1  1  0  0  0  0
 21 22  1  0  0  0  0
 22 24  1  0  0  0  0
 23 28  1  0  0  0  0
 23 27  1  0  0  0  0
 24 28  2  0  0  0  0
 25 22  2  0  0  0  0
 25 26  1  0  0  0  0
 26 23  2  0  0  0  0
M  END
>  <MODEL>
8

>  <REMARK>
 VINA RESULT:      -7.5      3.821      7.197
  Name = 
  2 active torsions:
  status: ('A' for Active; 'I' for Inactive)
    1  A    between atoms: N_1  and  C_2
    2  A    between atoms: C_2  and  C_3
                            x       y       z     vdW  Elec       q    Type
                         _______ _______ _______ _____ _____    ______ ____

>  <TORSDO>
F 2

$$$$
=
 OpenBabel11052422573D

 28 32  0  0  1  0  0  0  0  0999 V2000
  162.0530  209.8360  149.0160 N   0  0  0  0  0  0  0  0  0  0  0  0
  161.4480  210.8670  154.0440 C   0  0  0  0  0  3  0  0  0  0  0  0
  163.0300  206.2570  151.5030 O   0  0  0  0  0  1  0  0  0  0  0  0
  160.4460  208.7740  154.7690 C   0  0  0  0  0  0  0  0  0  0  0  0
  161.7880  208.8260  152.6120 C   0  0  2  0  0  3  0  0  0  0  0  0
  160.2130  210.7740  156.1230 C   0  0  0  0  0  0  0  0  0  0  0  0
  161.1740  209.5140  153.8070 C   0  0  0  0  0  0  0  0  0  0  0  0
  161.0090  206.6270  153.5580 C   0  0  0  0  0  2  0  0  0  0  0  0
  159.9550  209.4180  155.9100 C   0  0  0  0  0  3  0  0  0  0  0  0
  161.9510  207.7390  150.0150 C   0  0  0  0  0  0  0  0  0  0  0  0
  161.8210  209.6970  151.4270 N   0  0  0  0  0  2  0  0  0  0  0  0
  160.0930  207.3240  154.5620 C   0  0  0  0  0  2  0  0  0  0  0  0
  162.0870  207.5750  148.7020 C   0  0  0  0  0  0  0  0  0  0  0  0
  161.7770  206.7410  151.1200 C   0  0  2  0  0  3  0  0  0  0  0  0
  162.1230  206.2650  147.9980 C   0  0  0  0  0  1  0  0  0  0  0  0
  159.7260  211.4020  157.2610 O   0  0  0  0  0  1  0  0  0  0  0  0
  160.9630  211.4970  155.1930 C   0  0  0  0  0  3  0  0  0  0  0  0
  161.0980  207.4740  152.2980 C   0  0  2  0  0  3  0  0  0  0  0  0
  162.1790  208.8420  148.0340 N   0  0  0  0  0  0  0  0  0  0  0  0
  161.9600  209.1590  150.2550 C   0  0  0  0  0  0  0  0  0  0  0  0
  162.4230  211.2290  148.8180 C   0  0  0  0  0  2  0  0  0  0  0  0
  161.2290  212.0290  148.4240 C   0  0  0  0  0  0  0  0  0  0  0  0
  159.0270  213.5770  147.6630 C   0  0  0  0  0  0  0  0  0  0  0  0
  160.6960  211.9040  147.1350 C   0  0  0  0  0  3  0  0  0  0  0  0
  160.6660  212.9370  149.3260 C   0  0  0  0  0  3  0  0  0  0  0  0
  159.5640  213.7090  148.9470 C   0  0  0  0  0  3  0  0  0  0  0  0
  157.9600  214.3260  147.2950 F   0  0  0  0  0  0  0  0  0  0  0  0
  159.5940  212.6760  146.7570 C   0  0  0  0  0  3  0  0  0  0  0  0
  1 20  1  0  0  0  0
  2 17  1  0  0  0  0
  4  9  2  0  0  0  0
  5 11  1  6  0  0  0
  5  7  1  0  0  0  0
  6 16  1  0  0  0  0
  7  2  2  0  0  0  0
  7  4  1  0  0  0  0
  8 12  1  0  0  0  0
  9  6  1  0  0  0  0
 10 20  2  0  0  0  0
 10 14  1  0  0  0  0
 12  4  1  0  0  0  0
 13 10  1  0  0  0  0
 14  3  1  1  0  0  0
 14 18  1  0  0  0  0
 15 13  1  0  0  0  0
 17  6  2  0  0  0  0
 18  5  1  0  0  0  0
 18  8  1  1  0  0  0
 19 13  2  0  0  0  0
 19  1  1  0  0  0  0
 20 11  1  0  0  0  0
 21  1  1  0  0  0  0
 22 21  1  0  0  0  0
 22 25  1  0  0  0  0
 23 26  1  0  0  0  0
 24 22  2  0  0  0  0
 26 25  2  0  0  0  0
 27 23  1  0  0  0  0
 28 24  1  0  0  0  0
 28 23  2  0  0  0  0
M  END
>  <MODEL>
9

>  <REMARK>
 VINA RESULT:      -7.4      3.660      7.115
  Name = 
  2 active torsions:
  status: ('A' for Active; 'I' for Inactive)
    1  A    between atoms: N_1  and  C_2
    2  A    between atoms: C_2  and  C_3
                            x       y       z     vdW  Elec       q    Type
                         _______ _______ _______ _____ _____    ______ ____

>  <TORSDO>
F 2

$$$$
