=
 OpenBabel11062408223D

 32 38  0  0  1  0  0  0  0  0999 V2000
  161.6770  209.4290  151.0370 C   0  0  0  0  0  0  0  0  0  0  0  0
  161.3490  207.1060  150.3350 C   0  0  0  0  0  0  0  0  0  0  0  0
  161.7740  210.3690  152.0740 C   0  0  0  0  0  3  0  0  0  0  0  0
  161.4610  208.0660  151.3580 C   0  0  0  0  0  0  0  0  0  0  0  0
  160.9670  205.6720  150.6630 C   0  0  1  0  0  3  0  0  0  0  0  0
  160.7260  205.6840  145.6360 C   0  0  0  0  0  2  0  0  0  0  0  0
  161.5240  207.4950  148.9880 C   0  0  0  0  0  0  0  0  0  0  0  0
  161.6800  204.0060  147.2910 C   0  0  0  0  0  2  0  0  0  0  0  0
  161.2060  205.0500  148.3070 C   0  0  1  0  0  3  0  0  0  0  0  0
  161.4010  207.6670  152.7050 C   0  0  0  0  0  0  0  0  0  0  0  0
  161.6680  204.7080  149.7140 C   0  0  0  0  0  2  0  0  0  0  0  0
  161.2720  206.2470  153.0580 C   0  0  0  0  0  3  0  0  0  0  0  0
  161.5080  208.6180  153.7230 C   0  0  0  0  0  3  0  0  0  0  0  0
  161.7690  208.8380  148.6870 C   0  0  0  0  0  3  0  0  0  0  0  0
  161.8130  209.8150  149.6900 C   0  0  0  0  0  0  0  0  0  0  0  0
  161.6620  206.4570  147.8950 C   0  0  1  0  0  3  0  0  0  0  0  0
  161.1140  205.2990  152.1310 C   0  0  0  0  0  0  0  0  0  0  0  0
  161.6850  209.9670  153.4090 C   0  0  0  0  0  3  0  0  0  0  0  0
  161.7340  204.5520  145.8540 C   0  0  0  0  0  2  0  0  0  0  0  0
  160.9870  206.8720  146.5770 C   0  0  0  0  0  2  0  0  0  0  0  0
  160.9850  213.1450  148.2640 N   0  0  0  0  0  0  0  0  0  0  0  0
  159.6910  213.4700  147.6820 C   0  0  0  0  0  1  0  0  0  0  0  0
  161.8320  212.6720  147.1710 C   0  0  2  0  0  3  0  0  0  0  0  0
  162.0600  211.2530  149.3200 C   0  0  1  0  0  3  0  0  0  0  0  0
  162.9700  211.3790  147.7650 S   0  0  0  0  0  0  0  0  0  0  0  0
  160.7680  212.0290  149.1750 C   0  0  1  0  0  3  0  0  0  0  0  0
  160.3370  212.5460  150.5390 C   0  0  0  0  0  1  0  0  0  0  0  0
  163.0520  213.5090  145.1760 C   0  0  0  0  0  2  0  0  0  0  0  0
  162.6450  213.8270  146.6020 C   0  0  0  0  0  3  0  0  0  0  0  0
  161.8990  214.4530  145.4390 C   0  0  0  0  0  2  0  0  0  0  0  0
  160.9080  203.9570  152.5900 N   0  0  0  0  0  2  0  0  0  0  0  0
  161.1010  202.7750  151.7670 C   0  0  0  0  0  1  0  0  0  0  0  0
  1  4  1  0  0  0  0
  1  3  2  0  0  0  0
  2  5  1  0  0  0  0
  2  4  1  0  0  0  0
  3 18  1  0  0  0  0
  4 10  2  0  0  0  0
  5 11  1  6  0  0  0
  5 17  1  0  0  0  0
  6 19  1  0  0  0  0
  6 20  1  0  0  0  0
  7  2  2  0  0  0  0
  9  8  1  6  0  0  0
  9 11  1  0  0  0  0
 10 12  1  0  0  0  0
 10 13  1  0  0  0  0
 14  7  1  0  0  0  0
 14 15  2  0  0  0  0
 15  1  1  0  0  0  0
 16 20  1  6  0  0  0
 16  9  1  0  0  0  0
 16  7  1  0  0  0  0
 17 31  1  0  0  0  0
 17 12  2  0  0  0  0
 18 13  2  0  0  0  0
 19  8  1  0  0  0  0
 21 26  1  0  0  0  0
 22 21  1  0  0  0  0
 23 29  1  1  0  0  0
 23 25  1  0  0  0  0
 23 21  1  0  0  0  0
 24 15  1  6  0  0  0
 25 24  1  0  0  0  0
 26 24  1  0  0  0  0
 26 27  1  1  0  0  0
 28 30  1  0  0  0  0
 28 29  1  0  0  0  0
 30 29  1  0  0  0  0
 32 31  1  0  0  0  0
M  END
>  <MODEL>
1

>  <REMARK>
 VINA RESULT:      -9.1      0.000      0.000
  Name = 
  3 active torsions:
  status: ('A' for Active; 'I' for Inactive)
    1  A    between atoms: N_13  and  C_29
    2  A    between atoms: C_15  and  C_19
    3  A    between atoms: C_16  and  C_27
                            x       y       z     vdW  Elec       q    Type
                         _______ _______ _______ _____ _____    ______ ____

>  <TORSDO>
F 3

$$$$
=
 OpenBabel11062408223D

 32 38  0  0  1  0  0  0  0  0999 V2000
  160.7530  209.0000  154.4170 C   0  0  0  0  0  0  0  0  0  0  0  0
  159.6530  211.1850  154.2990 C   0  0  0  0  0  0  0  0  0  0  0  0
  161.1810  207.9090  155.1880 C   0  0  0  0  0  3  0  0  0  0  0  0
  160.0820  210.0740  155.0510 C   0  0  0  0  0  0  0  0  0  0  0  0
  159.0710  212.4050  154.9940 C   0  0  1  0  0  3  0  0  0  0  0  0
  159.5780  214.0460  150.2620 C   0  0  0  0  0  2  0  0  0  0  0  0
  159.8330  211.1930  152.8980 C   0  0  0  0  0  0  0  0  0  0  0  0
  157.7050  214.3030  151.9630 C   0  0  0  0  0  2  0  0  0  0  0  0
  158.6490  213.4600  152.8240 C   0  0  1  0  0  3  0  0  0  0  0  0
  159.8060  210.0100  156.4280 C   0  0  0  0  0  0  0  0  0  0  0  0
  157.9900  213.0390  154.1270 C   0  0  0  0  0  2  0  0  0  0  0  0
  159.0280  211.0690  157.0840 C   0  0  0  0  0  3  0  0  0  0  0  0
  160.2330  208.9100  157.1770 C   0  0  0  0  0  3  0  0  0  0  0  0
  160.4680  210.1110  152.2800 C   0  0  0  0  0  3  0  0  0  0  0  0
  160.9620  209.0320  153.0250 C   0  0  0  0  0  0  0  0  0  0  0  0
  159.1630  212.2440  152.0390 C   0  0  1  0  0  3  0  0  0  0  0  0
  158.6380  212.1670  156.4320 C   0  0  0  0  0  0  0  0  0  0  0  0
  160.9270  207.8670  156.5610 C   0  0  0  0  0  3  0  0  0  0  0  0
  158.0800  214.2860  150.4710 C   0  0  0  0  0  2  0  0  0  0  0  0
  160.0310  212.7010  150.8540 C   0  0  0  0  0  2  0  0  0  0  0  0
  161.4750  206.4930  150.3610 N   0  0  0  0  0  0  0  0  0  0  0  0
  160.6060  206.3600  149.2010 C   0  0  0  0  0  1  0  0  0  0  0  0
  160.9490  205.5930  151.3860 C   0  0  2  0  0  3  0  0  0  0  0  0
  161.6570  207.8980  152.3220 C   0  0  1  0  0  3  0  0  0  0  0  0
  161.2020  206.3060  153.0440 S   0  0  0  0  0  0  0  0  0  0  0  0
  161.3240  207.8580  150.8450 C   0  0  1  0  0  3  0  0  0  0  0  0
  162.2650  208.7860  150.0930 C   0  0  0  0  0  1  0  0  0  0  0  0
  160.8200  203.1950  152.0170 C   0  0  0  0  0  2  0  0  0  0  0  0
  161.6540  204.2460  151.3100 C   0  0  0  0  0  3  0  0  0  0  0  0
  160.8120  203.2730  150.5070 C   0  0  0  0  0  2  0  0  0  0  0  0
  157.9630  213.1780  157.1910 N   0  0  0  0  0  2  0  0  0  0  0  0
  156.5180  213.3180  157.2610 C   0  0  0  0  0  1  0  0  0  0  0  0
  1  4  1  0  0  0  0
  1  3  2  0  0  0  0
  2  5  1  0  0  0  0
  2  4  1  0  0  0  0
  3 18  1  0  0  0  0
  4 10  2  0  0  0  0
  5 11  1  6  0  0  0
  5 17  1  0  0  0  0
  6 19  1  0  0  0  0
  6 20  1  0  0  0  0
  7  2  2  0  0  0  0
  9  8  1  6  0  0  0
  9 11  1  0  0  0  0
 10 12  1  0  0  0  0
 10 13  1  0  0  0  0
 14  7  1  0  0  0  0
 14 15  2  0  0  0  0
 15  1  1  0  0  0  0
 16 20  1  6  0  0  0
 16  9  1  0  0  0  0
 16  7  1  0  0  0  0
 17 12  2  0  0  0  0
 17 31  1  0  0  0  0
 18 13  2  0  0  0  0
 19  8  1  0  0  0  0
 21 26  1  0  0  0  0
 21 23  1  0  0  0  0
 22 21  1  0  0  0  0
 23 29  1  1  0  0  0
 23 25  1  0  0  0  0
 24 15  1  1  0  0  0
 24 25  1  0  0  0  0
 26 27  1  6  0  0  0
 26 24  1  0  0  0  0
 29 28  1  0  0  0  0
 30 29  1  0  0  0  0
 30 28  1  0  0  0  0
 31 32  1  0  0  0  0
M  END
>  <MODEL>
2

>  <REMARK>
 VINA RESULT:      -8.7      3.501      7.991
  Name = 
  3 active torsions:
  status: ('A' for Active; 'I' for Inactive)
    1  A    between atoms: N_13  and  C_29
    2  A    between atoms: C_15  and  C_19
    3  A    between atoms: C_16  and  C_27
                            x       y       z     vdW  Elec       q    Type
                         _______ _______ _______ _____ _____    ______ ____

>  <TORSDO>
F 3

$$$$
=
 OpenBabel11062408223D

 32 38  0  0  1  0  0  0  0  0999 V2000
  161.7170  208.4460  150.9940 C   0  0  0  0  0  0  0  0  0  0  0  0
  161.5750  206.3870  149.6760 C   0  0  0  0  0  0  0  0  0  0  0  0
  161.9060  209.8360  151.0370 C   0  0  0  0  0  3  0  0  0  0  0  0
  161.7500  207.7820  149.7430 C   0  0  1  0  0  3  0  0  0  0  0  0
  161.7600  205.6510  148.3600 C   0  0  0  0  0  0  0  0  0  0  0  0
  161.3580  201.8450  151.6300 C   0  0  0  0  0  2  0  0  0  0  0  0
  161.2950  205.6600  150.8550 C   0  0  0  0  0  0  0  0  0  0  0  0
  160.3650  202.2170  149.3190 C   0  0  0  0  0  2  0  0  0  0  0  0
  161.1260  203.5410  149.4300 C   0  0  1  0  0  3  0  0  0  0  0  0
  161.9160  208.5270  148.5620 C   0  0  0  0  0  0  0  0  0  0  0  0
  160.7980  204.4720  148.2750 C   0  0  0  0  0  2  0  0  0  0  0  0
  161.8580  207.8670  147.2500 C   0  0  0  0  0  3  0  0  0  0  0  0
  162.0940  209.9100  148.6250 C   0  0  0  0  0  3  0  0  0  0  0  0
  161.2340  206.3320  152.0790 C   0  0  0  0  0  3  0  0  0  0  0  0
  161.4760  207.7090  152.1690 C   0  0  0  0  0  0  0  0  0  0  0  0
  160.8540  204.2130  150.7850 C   0  0  1  0  0  3  0  0  0  0  0  0
  161.7420  206.5430  147.1280 C   0  0  0  0  0  0  0  0  0  0  0  0
  162.0980  210.5630  149.8600 C   0  0  0  0  0  3  0  0  0  0  0  0
  160.2170  201.4960  150.6700 C   0  0  0  0  0  2  0  0  0  0  0  0
  161.4130  203.3530  151.9300 C   0  0  0  0  0  2  0  0  0  0  0  0
  160.1600  208.3950  155.5750 N   0  0  0  0  0  0  0  0  0  0  0  0
  159.0500  207.6650  156.1690 C   0  0  0  0  0  1  0  0  0  0  0  0
  159.5880  209.5630  154.9090 C   0  0  2  0  0  3  0  0  0  0  0  0
  161.4190  208.3900  153.5100 C   0  0  1  0  0  3  0  0  0  0  0  0
  160.5360  209.9630  153.4060 S   0  0  0  0  0  0  0  0  0  0  0  0
  160.7310  207.5310  154.5510 C   0  0  1  0  0  3  0  0  0  0  0  0
  161.7480  206.5860  155.1720 C   0  0  0  0  0  1  0  0  0  0  0  0
  158.8870  211.9280  155.1980 C   0  0  0  0  0  2  0  0  0  0  0  0
  159.6100  210.7630  155.8460 C   0  0  0  0  0  3  0  0  0  0  0  0
  158.1950  211.1100  156.2670 C   0  0  0  0  0  2  0  0  0  0  0  0
  161.7870  205.9970  145.8040 N   0  0  0  0  0  2  0  0  0  0  0  0
  160.6260  205.8540  144.9410 C   0  0  0  0  0  1  0  0  0  0  0  0
  1  3  1  0  0  0  0
  1 15  2  0  0  0  0
  2  4  1  0  0  0  0
  2  7  1  0  0  0  0
  4 10  1  6  0  0  0
  4  1  1  0  0  0  0
  5  2  2  0  0  0  0
  6 20  1  0  0  0  0
  7 14  2  0  0  0  0
  8  9  1  0  0  0  0
  8 19  1  0  0  0  0
  9 11  1  6  0  0  0
  9 16  1  0  0  0  0
 10 13  2  0  0  0  0
 11  5  1  0  0  0  0
 12 10  1  0  0  0  0
 13 18  1  0  0  0  0
 14 15  1  0  0  0  0
 16  7  1  0  0  0  0
 16 20  1  1  0  0  0
 17 12  2  0  0  0  0
 17  5  1  0  0  0  0
 18  3  2  0  0  0  0
 19  6  1  0  0  0  0
 21 22  1  0  0  0  0
 23 21  1  0  0  0  0
 23 29  1  1  0  0  0
 24 15  1  6  0  0  0
 24 26  1  0  0  0  0
 25 24  1  0  0  0  0
 25 23  1  0  0  0  0
 26 27  1  1  0  0  0
 26 21  1  0  0  0  0
 28 29  1  0  0  0  0
 28 30  1  0  0  0  0
 29 30  1  0  0  0  0
 31 17  1  0  0  0  0
 32 31  1  0  0  0  0
M  END
>  <MODEL>
3

>  <REMARK>
 VINA RESULT:      -8.7      2.875      6.206
  Name = 
  3 active torsions:
  status: ('A' for Active; 'I' for Inactive)
    1  A    between atoms: N_13  and  C_29
    2  A    between atoms: C_15  and  C_19
    3  A    between atoms: C_16  and  C_27
                            x       y       z     vdW  Elec       q    Type
                         _______ _______ _______ _____ _____    ______ ____

>  <TORSDO>
F 3

$$$$
=
 OpenBabel11062408223D

 32 38  0  0  1  0  0  0  0  0999 V2000
  161.7620  209.0360  150.0550 C   0  0  0  0  0  0  0  0  0  0  0  0
  161.4290  207.6710  152.0610 C   0  0  0  0  0  0  0  0  0  0  0  0
  161.9490  209.1080  148.6660 C   0  0  0  0  0  3  0  0  0  0  0  0
  161.6060  207.7680  150.6680 C   0  0  1  0  0  3  0  0  0  0  0  0
  161.4150  206.3120  152.7410 C   0  0  0  0  0  0  0  0  0  0  0  0
  161.5320  209.4440  156.6800 C   0  0  0  0  0  2  0  0  0  0  0  0
  161.3360  208.8470  152.8380 C   0  0  0  0  0  0  0  0  0  0  0  0
  160.1970  207.3280  156.2250 C   0  0  0  0  0  2  0  0  0  0  0  0
  160.9600  207.3780  154.8990 C   0  0  1  0  0  3  0  0  0  0  0  0
  161.5880  206.6070  149.8740 C   0  0  0  0  0  0  0  0  0  0  0  0
  160.4560  206.3250  153.9250 C   0  0  0  0  0  2  0  0  0  0  0  0
  161.3330  205.2940  150.4800 C   0  0  0  0  0  3  0  0  0  0  0  0
  161.7670  206.7010  148.4920 C   0  0  0  0  0  3  0  0  0  0  0  0
  161.4590  210.0930  152.2170 C   0  0  0  0  0  3  0  0  0  0  0  0
  161.7050  210.2030  150.8420 C   0  0  0  0  0  0  0  0  0  0  0  0
  160.8950  208.7850  154.2850 C   0  0  1  0  0  3  0  0  0  0  0  0
  161.2060  205.1360  151.8000 C   0  0  0  0  0  0  0  0  0  0  0  0
  161.9570  207.9460  147.8900 C   0  0  0  0  0  3  0  0  0  0  0  0
  160.2600  208.6550  157.0020 C   0  0  0  0  0  2  0  0  0  0  0  0
  161.6260  209.7940  155.1850 C   0  0  0  0  0  2  0  0  0  0  0  0
  160.6290  213.1730  148.8860 N   0  0  0  0  0  0  0  0  0  0  0  0
  159.3020  213.3140  148.3050 C   0  0  0  0  0  1  0  0  0  0  0  0
  161.4750  212.5640  147.8620 C   0  0  2  0  0  3  0  0  0  0  0  0
  161.8500  211.5640  150.2170 C   0  0  1  0  0  3  0  0  0  0  0  0
  162.7090  211.4660  148.6300 S   0  0  0  0  0  0  0  0  0  0  0  0
  160.5080  212.2260  149.9860 C   0  0  1  0  0  3  0  0  0  0  0  0
  160.0810  212.9490  151.2530 C   0  0  0  0  0  1  0  0  0  0  0  0
  162.3190  213.2180  145.6200 C   0  0  0  0  0  2  0  0  0  0  0  0
  162.1970  213.6460  147.0700 C   0  0  0  0  0  3  0  0  0  0  0  0
  161.2630  214.2230  146.0230 C   0  0  0  0  0  2  0  0  0  0  0  0
  161.0510  203.7980  152.2910 N   0  0  0  0  0  2  0  0  0  0  0  0
  161.2060  202.6070  151.4730 C   0  0  0  0  0  1  0  0  0  0  0  0
  1  4  1  0  0  0  0
  1 15  2  0  0  0  0
  2  5  2  0  0  0  0
  2  7  1  0  0  0  0
  3  1  1  0  0  0  0
  4 10  1  6  0  0  0
  4  2  1  0  0  0  0
  5 11  1  0  0  0  0
  6 19  1  0  0  0  0
  7 16  1  0  0  0  0
  8 19  1  0  0  0  0
  9 11  1  6  0  0  0
  9  8  1  0  0  0  0
 10 12  1  0  0  0  0
 12 17  2  0  0  0  0
 13 10  2  0  0  0  0
 14  7  2  0  0  0  0
 15 14  1  0  0  0  0
 16  9  1  0  0  0  0
 16 20  1  1  0  0  0
 17 31  1  0  0  0  0
 17  5  1  0  0  0  0
 18 13  1  0  0  0  0
 18  3  2  0  0  0  0
 20  6  1  0  0  0  0
 21 26  1  0  0  0  0
 22 21  1  0  0  0  0
 23 29  1  1  0  0  0
 23 25  1  0  0  0  0
 23 21  1  0  0  0  0
 24 15  1  6  0  0  0
 25 24  1  0  0  0  0
 26 24  1  0  0  0  0
 26 27  1  1  0  0  0
 28 30  1  0  0  0  0
 28 29  1  0  0  0  0
 30 29  1  0  0  0  0
 32 31  1  0  0  0  0
M  END
>  <MODEL>
4

>  <REMARK>
 VINA RESULT:      -8.6      1.292      4.740
  Name = 
  3 active torsions:
  status: ('A' for Active; 'I' for Inactive)
    1  A    between atoms: N_13  and  C_29
    2  A    between atoms: C_15  and  C_19
    3  A    between atoms: C_16  and  C_27
                            x       y       z     vdW  Elec       q    Type
                         _______ _______ _______ _____ _____    ______ ____

>  <TORSDO>
F 3

$$$$
=
 OpenBabel11062408223D

 32 38  0  0  1  0  0  0  0  0999 V2000
  161.3780  207.9510  151.0090 C   0  0  0  0  0  0  0  0  0  0  0  0
  161.5470  205.9760  149.5710 C   0  0  0  0  0  0  0  0  0  0  0  0
  161.5290  209.3360  151.1730 C   0  0  0  0  0  3  0  0  0  0  0  0
  161.6800  207.3650  149.7550 C   0  0  1  0  0  3  0  0  0  0  0  0
  162.0140  205.3230  148.2800 C   0  0  0  0  0  0  0  0  0  0  0  0
  161.0100  201.3220  151.1640 C   0  0  0  0  0  2  0  0  0  0  0  0
  161.0430  205.1760  150.6200 C   0  0  0  0  0  0  0  0  0  0  0  0
  160.5110  201.8300  148.7230 C   0  0  0  0  0  2  0  0  0  0  0  0
  161.2090  203.1490  149.0690 C   0  0  1  0  0  3  0  0  0  0  0  0
  162.0750  208.1820  148.6800 C   0  0  0  0  0  0  0  0  0  0  0  0
  161.1110  204.1470  147.9270 C   0  0  0  0  0  2  0  0  0  0  0  0
  162.3010  207.6040  147.3490 C   0  0  0  0  0  3  0  0  0  0  0  0
  162.2110  209.5600  148.8610 C   0  0  0  0  0  3  0  0  0  0  0  0
  160.7170  205.7710  151.8430 C   0  0  0  0  0  3  0  0  0  0  0  0
  160.9110  207.1420  152.0630 C   0  0  0  0  0  0  0  0  0  0  0  0
  160.6510  203.7350  150.3750 C   0  0  1  0  0  3  0  0  0  0  0  0
  162.2360  206.2890  147.1270 C   0  0  0  0  0  0  0  0  0  0  0  0
  161.9490  210.1350  150.1060 C   0  0  0  0  0  3  0  0  0  0  0  0
  160.0990  201.0270  149.9690 C   0  0  0  0  0  2  0  0  0  0  0  0
  160.9760  202.8080  151.5580 C   0  0  0  0  0  2  0  0  0  0  0  0
  161.1700  209.5610  154.8710 N   0  0  0  0  0  0  0  0  0  0  0  0
  162.0720  210.7040  154.8650 C   0  0  0  0  0  1  0  0  0  0  0  0
  161.8930  208.4570  155.5000 C   0  0  2  0  0  3  0  0  0  0  0  0
  160.5660  207.7380  153.4000 C   0  0  1  0  0  3  0  0  0  0  0  0
  161.4150  206.8720  154.7390 S   0  0  0  0  0  0  0  0  0  0  0  0
  160.9350  209.2040  153.4780 C   0  0  1  0  0  3  0  0  0  0  0  0
  159.7980  210.0390  152.9100 C   0  0  0  0  0  1  0  0  0  0  0  0
  160.1260  208.7810  157.2150 C   0  0  0  0  0  2  0  0  0  0  0  0
  161.5790  208.4100  156.9890 C   0  0  0  0  0  3  0  0  0  0  0  0
  160.5500  207.3300  157.2600 C   0  0  0  0  0  2  0  0  0  0  0  0
  162.5630  205.8270  145.8110 N   0  0  0  0  0  2  0  0  0  0  0  0
  161.5790  205.5310  144.7820 C   0  0  0  0  0  1  0  0  0  0  0  0
  1  3  1  0  0  0  0
  1 15  2  0  0  0  0
  2  4  1  0  0  0  0
  2  7  1  0  0  0  0
  4 10  1  6  0  0  0
  4  1  1  0  0  0  0
  5  2  2  0  0  0  0
  6 20  1  0  0  0  0
  7 14  2  0  0  0  0
  8  9  1  0  0  0  0
  8 19  1  0  0  0  0
  9 11  1  6  0  0  0
  9 16  1  0  0  0  0
 10 13  2  0  0  0  0
 11  5  1  0  0  0  0
 12 10  1  0  0  0  0
 13 18  1  0  0  0  0
 14 15  1  0  0  0  0
 16  7  1  0  0  0  0
 16 20  1  1  0  0  0
 17 12  2  0  0  0  0
 17  5  1  0  0  0  0
 18  3  2  0  0  0  0
 19  6  1  0  0  0  0
 21 23  1  0  0  0  0
 22 21  1  0  0  0  0
 23 29  1  1  0  0  0
 24 15  1  6  0  0  0
 24 26  1  0  0  0  0
 24 25  1  0  0  0  0
 25 23  1  0  0  0  0
 26 27  1  1  0  0  0
 26 21  1  0  0  0  0
 28 30  1  0  0  0  0
 29 28  1  0  0  0  0
 29 30  1  0  0  0  0
 31 17  1  0  0  0  0
 32 31  1  0  0  0  0
M  END
>  <MODEL>
5

>  <REMARK>
 VINA RESULT:      -8.3      3.182      6.357
  Name = 
  3 active torsions:
  status: ('A' for Active; 'I' for Inactive)
    1  A    between atoms: N_13  and  C_29
    2  A    between atoms: C_15  and  C_19
    3  A    between atoms: C_16  and  C_27
                            x       y       z     vdW  Elec       q    Type
                         _______ _______ _______ _____ _____    ______ ____

>  <TORSDO>
F 3

$$$$
=
 OpenBabel11062408223D

 32 38  0  0  1  0  0  0  0  0999 V2000
  161.2800  207.8000  152.5350 C   0  0  0  0  0  0  0  0  0  0  0  0
  160.8110  210.2020  152.4580 C   0  0  0  0  0  0  0  0  0  0  0  0
  161.3170  206.6040  153.2680 C   0  0  0  0  0  3  0  0  0  0  0  0
  160.8460  208.9890  153.1710 C   0  0  1  0  0  3  0  0  0  0  0  0
  160.4940  211.5050  153.1730 C   0  0  0  0  0  0  0  0  0  0  0  0
  161.9410  213.1350  148.6360 C   0  0  0  0  0  2  0  0  0  0  0  0
  161.1420  210.2170  151.0850 C   0  0  0  0  0  0  0  0  0  0  0  0
  160.0220  213.8170  150.1590 C   0  0  0  0  0  2  0  0  0  0  0  0
  160.6100  212.7190  151.0490 C   0  0  1  0  0  3  0  0  0  0  0  0
  160.4110  208.9460  154.5070 C   0  0  0  0  0  0  0  0  0  0  0  0
  159.7210  212.4390  152.2500 C   0  0  0  0  0  2  0  0  0  0  0  0
  159.8690  210.1490  155.1540 C   0  0  0  0  0  3  0  0  0  0  0  0
  160.4480  207.7450  155.2180 C   0  0  0  0  0  3  0  0  0  0  0  0
  161.5370  209.0300  150.4600 C   0  0  0  0  0  3  0  0  0  0  0  0
  161.6440  207.8290  151.1750 C   0  0  0  0  0  0  0  0  0  0  0  0
  160.8720  211.4420  150.2370 C   0  0  1  0  0  3  0  0  0  0  0  0
  159.8560  211.3360  154.5430 C   0  0  0  0  0  0  0  0  0  0  0  0
  160.9090  206.5780  154.6040 C   0  0  0  0  0  3  0  0  0  0  0  0
  160.5440  213.7590  148.7130 C   0  0  0  0  0  2  0  0  0  0  0  0
  161.9560  211.6960  149.1770 C   0  0  0  0  0  2  0  0  0  0  0  0
  161.6470  205.2640  148.4870 N   0  0  0  0  0  0  0  0  0  0  0  0
  160.7910  205.3320  147.3120 C   0  0  0  0  0  1  0  0  0  0  0  0
  160.9230  204.4890  149.4920 C   0  0  2  0  0  3  0  0  0  0  0  0
  162.0920  206.5790  150.4680 C   0  0  1  0  0  3  0  0  0  0  0  0
  161.2930  205.1150  151.1620 S   0  0  0  0  0  0  0  0  0  0  0  0
  161.7840  206.6260  148.9860 C   0  0  1  0  0  3  0  0  0  0  0  0
  162.9160  207.3370  148.2610 C   0  0  0  0  0  1  0  0  0  0  0  0
  160.0790  202.1560  149.3860 C   0  0  0  0  0  2  0  0  0  0  0  0
  161.3230  203.0230  149.4090 C   0  0  0  0  0  3  0  0  0  0  0  0
  160.8310  202.4310  148.1030 C   0  0  0  0  0  2  0  0  0  0  0  0
  159.3890  212.4600  155.2990 N   0  0  0  0  0  2  0  0  0  0  0  0
  160.0410  212.9650  156.4970 C   0  0  0  0  0  1  0  0  0  0  0  0
  1  4  1  0  0  0  0
  1  3  2  0  0  0  0
  2  5  1  0  0  0  0
  3 18  1  0  0  0  0
  4  2  1  6  0  0  0
  4 10  1  0  0  0  0
  5 17  2  0  0  0  0
  6 19  1  0  0  0  0
  6 20  1  0  0  0  0
  7  2  2  0  0  0  0
  9  8  1  6  0  0  0
  9 11  1  0  0  0  0
 10 12  2  0  0  0  0
 10 13  1  0  0  0  0
 11  5  1  0  0  0  0
 14  7  1  0  0  0  0
 14 15  2  0  0  0  0
 15  1  1  0  0  0  0
 16 20  1  6  0  0  0
 16  9  1  0  0  0  0
 16  7  1  0  0  0  0
 17 12  1  0  0  0  0
 17 31  1  0  0  0  0
 18 13  2  0  0  0  0
 19  8  1  0  0  0  0
 21 26  1  0  0  0  0
 21 23  1  0  0  0  0
 22 21  1  0  0  0  0
 23 29  1  1  0  0  0
 23 25  1  0  0  0  0
 24 25  1  0  0  0  0
 24 15  1  1  0  0  0
 26 27  1  6  0  0  0
 26 24  1  0  0  0  0
 28 29  1  0  0  0  0
 30 28  1  0  0  0  0
 30 29  1  0  0  0  0
 31 32  1  0  0  0  0
M  END
>  <MODEL>
6

>  <REMARK>
 VINA RESULT:      -7.9      2.544      7.181
  Name = 
  3 active torsions:
  status: ('A' for Active; 'I' for Inactive)
    1  A    between atoms: N_13  and  C_29
    2  A    between atoms: C_15  and  C_19
    3  A    between atoms: C_16  and  C_27
                            x       y       z     vdW  Elec       q    Type
                         _______ _______ _______ _____ _____    ______ ____

>  <TORSDO>
F 3

$$$$
=
 OpenBabel11062408223D

 32 38  0  0  1  0  0  0  0  0999 V2000
  161.4690  210.0510  150.9500 C   0  0  0  0  0  0  0  0  0  0  0  0
  161.5690  207.7100  150.2390 C   0  0  0  0  0  0  0  0  0  0  0  0
  161.6110  211.4110  150.6340 C   0  0  0  0  0  3  0  0  0  0  0  0
  161.6940  209.0800  149.9430 C   0  0  1  0  0  3  0  0  0  0  0  0
  161.9570  206.6620  149.2090 C   0  0  0  0  0  0  0  0  0  0  0  0
  161.2070  203.8520  153.3170 C   0  0  0  0  0  2  0  0  0  0  0  0
  161.1480  207.3080  151.5260 C   0  0  0  0  0  0  0  0  0  0  0  0
  160.5370  203.5270  150.8860 C   0  0  0  0  0  2  0  0  0  0  0  0
  161.2370  204.8790  150.7260 C   0  0  1  0  0  3  0  0  0  0  0  0
  162.0040  209.4910  148.6340 C   0  0  0  0  0  0  0  0  0  0  0  0
  161.0490  205.4440  149.3280 C   0  0  0  0  0  2  0  0  0  0  0  0
  162.1480  208.5030  147.5570 C   0  0  0  0  0  3  0  0  0  0  0  0
  162.1320  210.8500  148.3380 C   0  0  0  0  0  3  0  0  0  0  0  0
  160.8970  208.2780  152.5010 C   0  0  0  0  0  3  0  0  0  0  0  0
  161.0850  209.6410  152.2410 C   0  0  0  0  0  0  0  0  0  0  0  0
  160.7600  205.8700  151.7990 C   0  0  1  0  0  3  0  0  0  0  0  0
  162.0870  207.1890  147.7880 C   0  0  0  0  0  0  0  0  0  0  0  0
  161.9460  211.8080  149.3370 C   0  0  0  0  0  3  0  0  0  0  0  0
  160.2210  203.1860  152.3520 C   0  0  0  0  0  2  0  0  0  0  0  0
  161.1780  205.3850  153.1970 C   0  0  0  0  0  2  0  0  0  0  0  0
  160.3590  210.8030  155.6950 N   0  0  0  0  0  0  0  0  0  0  0  0
  160.2350  209.9060  156.8340 C   0  0  0  0  0  1  0  0  0  0  0  0
  159.0160  210.9760  155.1470 C   0  0  2  0  0  3  0  0  0  0  0  0
  160.8220  210.6510  153.3260 C   0  0  1  0  0  3  0  0  0  0  0  0
  159.0890  211.1600  153.3360 S   0  0  0  0  0  0  0  0  0  0  0  0
  161.1620  210.1080  154.6980 C   0  0  1  0  0  3  0  0  0  0  0  0
  162.6410  210.3280  154.9720 C   0  0  0  0  0  1  0  0  0  0  0  0
  156.8530  212.0660  155.6960 C   0  0  0  0  0  2  0  0  0  0  0  0
  158.3620  212.2130  155.7470 C   0  0  0  0  0  3  0  0  0  0  0  0
  157.5910  211.8290  156.9950 C   0  0  0  0  0  2  0  0  0  0  0  0
  162.3310  206.3140  146.6800 N   0  0  0  0  0  2  0  0  0  0  0  0
  161.3000  205.8370  145.7740 C   0  0  0  0  0  1  0  0  0  0  0  0
  1 15  2  0  0  0  0
  2  7  1  0  0  0  0
  3  1  1  0  0  0  0
  4 10  1  6  0  0  0
  4  2  1  0  0  0  0
  4  1  1  0  0  0  0
  5 11  1  0  0  0  0
  5  2  2  0  0  0  0
  7 16  1  0  0  0  0
  7 14  2  0  0  0  0
  8 19  1  0  0  0  0
  9 11  1  6  0  0  0
  9  8  1  0  0  0  0
  9 16  1  0  0  0  0
 12 17  2  0  0  0  0
 12 10  1  0  0  0  0
 13 10  2  0  0  0  0
 13 18  1  0  0  0  0
 15 14  1  0  0  0  0
 16 20  1  1  0  0  0
 17  5  1  0  0  0  0
 18  3  2  0  0  0  0
 19  6  1  0  0  0  0
 20  6  1  0  0  0  0
 21 22  1  0  0  0  0
 23 21  1  0  0  0  0
 23 29  1  1  0  0  0
 24 15  1  6  0  0  0
 24 25  1  0  0  0  0
 24 26  1  0  0  0  0
 25 23  1  0  0  0  0
 26 27  1  1  0  0  0
 26 21  1  0  0  0  0
 28 29  1  0  0  0  0
 28 30  1  0  0  0  0
 29 30  1  0  0  0  0
 31 17  1  0  0  0  0
 32 31  1  0  0  0  0
M  END
>  <MODEL>
7

>  <REMARK>
 VINA RESULT:      -7.9      2.983      6.202
  Name = 
  3 active torsions:
  status: ('A' for Active; 'I' for Inactive)
    1  A    between atoms: N_13  and  C_29
    2  A    between atoms: C_15  and  C_19
    3  A    between atoms: C_16  and  C_27
                            x       y       z     vdW  Elec       q    Type
                         _______ _______ _______ _____ _____    ______ ____

>  <TORSDO>
F 3

$$$$
=
 OpenBabel11062408223D

 32 38  0  0  1  0  0  0  0  0999 V2000
  160.8730  205.9010  151.2980 C   0  0  0  0  0  0  0  0  0  0  0  0
  160.9620  204.4970  149.2940 C   0  0  0  0  0  0  0  0  0  0  0  0
  160.8310  205.9990  152.6970 C   0  0  0  0  0  3  0  0  0  0  0  0
  160.9310  204.6200  150.6960 C   0  0  0  0  0  0  0  0  0  0  0  0
  160.8700  203.1280  148.6400 C   0  0  1  0  0  3  0  0  0  0  0  0
  160.4380  206.2040  144.6780 C   0  0  0  0  0  2  0  0  0  0  0  0
  161.0080  205.6580  148.4900 C   0  0  0  0  0  0  0  0  0  0  0  0
  161.7540  204.0570  145.0320 C   0  0  0  0  0  2  0  0  0  0  0  0
  161.1310  204.1480  146.4290 C   0  0  1  0  0  3  0  0  0  0  0  0
  160.9980  203.4710  151.5040 C   0  0  0  0  0  0  0  0  0  0  0  0
  161.7030  203.0960  147.3640 C   0  0  0  0  0  2  0  0  0  0  0  0
  161.1540  202.1420  150.8980 C   0  0  0  0  0  3  0  0  0  0  0  0
  160.9630  203.5900  152.8950 C   0  0  0  0  0  3  0  0  0  0  0  0
  160.9840  206.9170  149.0990 C   0  0  0  0  0  3  0  0  0  0  0  0
  160.8810  207.0540  150.4890 C   0  0  0  0  0  0  0  0  0  0  0  0
  161.2970  205.5610  147.0070 C   0  0  1  0  0  3  0  0  0  0  0  0
  161.1420  201.9600  149.5750 C   0  0  0  0  0  0  0  0  0  0  0  0
  160.8700  204.8500  153.4910 C   0  0  0  0  0  3  0  0  0  0  0  0
  161.6490  205.3730  144.2430 C   0  0  0  0  0  2  0  0  0  0  0  0
  160.5060  206.5780  146.1680 C   0  0  0  0  0  2  0  0  0  0  0  0
  162.2860  210.1390  152.0090 N   0  0  0  0  0  0  0  0  0  0  0  0
  163.7120  210.3640  152.1980 C   0  0  0  0  0  1  0  0  0  0  0  0
  161.7900  209.5270  153.2400 C   0  0  2  0  0  3  0  0  0  0  0  0
  160.8380  208.4270  151.1020 C   0  0  1  0  0  3  0  0  0  0  0  0
  160.4560  208.3440  152.8650 S   0  0  0  0  0  0  0  0  0  0  0  0
  162.1530  209.1610  150.9380 C   0  0  1  0  0  3  0  0  0  0  0  0
  162.1740  209.8590  149.5880 C   0  0  0  0  0  1  0  0  0  0  0  0
  160.8300  209.9650  155.4880 C   0  0  0  0  0  2  0  0  0  0  0  0
  161.2550  210.6000  154.1780 C   0  0  0  0  0  3  0  0  0  0  0  0
  162.1470  210.7030  155.4000 C   0  0  0  0  0  2  0  0  0  0  0  0
  161.2090  200.6120  149.0950 N   0  0  0  0  0  2  0  0  0  0  0  0
  161.5810  200.2470  147.7390 C   0  0  0  0  0  1  0  0  0  0  0  0
  1  3  2  0  0  0  0
  2  4  1  0  0  0  0
  3 18  1  0  0  0  0
  4  1  1  0  0  0  0
  4 10  2  0  0  0  0
  5 11  1  6  0  0  0
  5  2  1  0  0  0  0
  5 17  1  0  0  0  0
  6 20  1  0  0  0  0
  7 14  1  0  0  0  0
  7  2  2  0  0  0  0
  9  8  1  6  0  0  0
  9 16  1  0  0  0  0
  9 11  1  0  0  0  0
 10 13  1  0  0  0  0
 12 10  1  0  0  0  0
 13 18  2  0  0  0  0
 14 15  2  0  0  0  0
 15  1  1  0  0  0  0
 16 20  1  6  0  0  0
 16  7  1  0  0  0  0
 17 12  2  0  0  0  0
 19  6  1  0  0  0  0
 19  8  1  0  0  0  0
 21 22  1  0  0  0  0
 21 23  1  0  0  0  0
 23 29  1  1  0  0  0
 24 15  1  1  0  0  0
 24 25  1  0  0  0  0
 25 23  1  0  0  0  0
 26 27  1  6  0  0  0
 26 24  1  0  0  0  0
 26 21  1  0  0  0  0
 29 30  1  0  0  0  0
 29 28  1  0  0  0  0
 30 28  1  0  0  0  0
 31 17  1  0  0  0  0
 32 31  1  0  0  0  0
M  END
>  <MODEL>
8

>  <REMARK>
 VINA RESULT:      -7.6      2.864      4.899
  Name = 
  3 active torsions:
  status: ('A' for Active; 'I' for Inactive)
    1  A    between atoms: N_13  and  C_29
    2  A    between atoms: C_15  and  C_19
    3  A    between atoms: C_16  and  C_27
                            x       y       z     vdW  Elec       q    Type
                         _______ _______ _______ _____ _____    ______ ____

>  <TORSDO>
F 3

$$$$
=
 OpenBabel11062408223D

 32 38  0  0  1  0  0  0  0  0999 V2000
  160.9450  206.9980  152.1520 C   0  0  0  0  0  0  0  0  0  0  0  0
  161.0000  205.3750  150.3190 C   0  0  0  0  0  0  0  0  0  0  0  0
  160.8760  207.2550  153.5300 C   0  0  0  0  0  3  0  0  0  0  0  0
  160.9430  205.6570  151.6980 C   0  0  0  0  0  0  0  0  0  0  0  0
  160.8450  203.9490  149.8180 C   0  0  1  0  0  3  0  0  0  0  0  0
  160.6810  206.5780  145.5300 C   0  0  0  0  0  2  0  0  0  0  0  0
  161.1310  206.4340  149.3940 C   0  0  0  0  0  0  0  0  0  0  0  0
  161.8640  204.4170  146.1580 C   0  0  0  0  0  2  0  0  0  0  0  0
  161.2160  204.6980  147.5170 C   0  0  1  0  0  3  0  0  0  0  0  0
  160.9260  204.6040  152.6290 C   0  0  0  0  0  0  0  0  0  0  0  0
  161.7040  203.7280  148.5800 C   0  0  0  0  0  2  0  0  0  0  0  0
  161.0190  203.2080  152.1800 C   0  0  0  0  0  3  0  0  0  0  0  0
  160.8660  204.8800  153.9970 C   0  0  0  0  0  3  0  0  0  0  0  0
  161.1640  207.7530  149.8580 C   0  0  0  0  0  3  0  0  0  0  0  0
  161.0370  208.0510  151.2210 C   0  0  0  0  0  0  0  0  0  0  0  0
  161.4490  206.1560  147.9400 C   0  0  1  0  0  3  0  0  0  0  0  0
  161.0280  202.8800  150.8860 C   0  0  0  0  0  0  0  0  0  0  0  0
  160.8310  206.2020  154.4470 C   0  0  0  0  0  3  0  0  0  0  0  0
  161.8530  205.6400  145.2250 C   0  0  0  0  0  2  0  0  0  0  0  0
  160.7370  207.1140  146.9700 C   0  0  0  0  0  2  0  0  0  0  0  0
  161.7420  210.8680  153.5380 N   0  0  0  0  0  0  0  0  0  0  0  0
  162.4110  210.7050  154.8210 C   0  0  0  0  0  1  0  0  0  0  0  0
  160.3080  210.7630  153.7950 C   0  0  2  0  0  3  0  0  0  0  0  0
  161.0590  209.4850  151.6760 C   0  0  1  0  0  3  0  0  0  0  0  0
  159.4700  209.9680  152.3860 S   0  0  0  0  0  0  0  0  0  0  0  0
  162.1340  209.7330  152.7130 C   0  0  1  0  0  3  0  0  0  0  0  0
  163.4500  210.0280  152.0110 C   0  0  0  0  0  1  0  0  0  0  0  0
  158.4700  212.0360  154.8750 C   0  0  0  0  0  2  0  0  0  0  0  0
  159.7130  212.1470  154.0120 C   0  0  0  0  0  3  0  0  0  0  0  0
  159.7720  212.5030  155.4850 C   0  0  0  0  0  2  0  0  0  0  0  0
  161.0290  201.4850  150.5600 N   0  0  0  0  0  2  0  0  0  0  0  0
  160.4390  200.9280  149.3550 C   0  0  0  0  0  1  0  0  0  0  0  0
  1  3  2  0  0  0  0
  2  4  1  0  0  0  0
  3 18  1  0  0  0  0
  4  1  1  0  0  0  0
  4 10  2  0  0  0  0
  5 11  1  6  0  0  0
  5  2  1  0  0  0  0
  5 17  1  0  0  0  0
  6 20  1  0  0  0  0
  7 14  1  0  0  0  0
  7  2  2  0  0  0  0
  9  8  1  6  0  0  0
  9 16  1  0  0  0  0
  9 11  1  0  0  0  0
 10 13  1  0  0  0  0
 12 10  1  0  0  0  0
 13 18  2  0  0  0  0
 14 15  2  0  0  0  0
 15  1  1  0  0  0  0
 16 20  1  6  0  0  0
 16  7  1  0  0  0  0
 17 12  2  0  0  0  0
 19  6  1  0  0  0  0
 19  8  1  0  0  0  0
 21 23  1  0  0  0  0
 21 22  1  0  0  0  0
 23 29  1  6  0  0  0
 24 15  1  1  0  0  0
 24 25  1  0  0  0  0
 24 26  1  0  0  0  0
 25 23  1  0  0  0  0
 26 27  1  6  0  0  0
 26 21  1  0  0  0  0
 28 30  1  0  0  0  0
 29 28  1  0  0  0  0
 29 30  1  0  0  0  0
 31 17  1  0  0  0  0
 32 31  1  0  0  0  0
M  END
>  <MODEL>
9

>  <REMARK>
 VINA RESULT:      -7.5      3.311      4.520
  Name = 
  3 active torsions:
  status: ('A' for Active; 'I' for Inactive)
    1  A    between atoms: N_13  and  C_29
    2  A    between atoms: C_15  and  C_19
    3  A    between atoms: C_16  and  C_27
                            x       y       z     vdW  Elec       q    Type
                         _______ _______ _______ _____ _____    ______ ____

>  <TORSDO>
F 3

$$$$
