=
 OpenBabel11062409433D

 34 39  0  0  1  0  0  0  0  0999 V2000
  160.0780  209.7050  153.5740 C   0  0  0  0  0  0  0  0  0  0  0  0
  158.3030  212.4450  155.1810 C   0  0  0  0  0  3  0  0  0  0  0  0
  159.3540  210.5540  156.1440 O   0  0  0  0  0  0  0  0  0  0  0  0
  161.3280  207.1760  153.2600 N   0  0  0  0  0  0  0  0  0  0  0  0
  160.4560  209.1760  152.3020 N   0  0  0  0  0  2  0  0  0  0  0  0
  161.2810  207.6970  154.6320 C   0  0  2  0  0  3  0  0  0  0  0  0
  160.2120  207.0580  156.9050 C   0  0  0  0  0  2  0  0  0  0  0  0
  160.9340  206.5790  155.6310 C   0  0  0  0  0  2  0  0  0  0  0  0
  161.0220  207.8600  152.1910 C   0  0  0  0  0  0  0  0  0  0  0  0
  160.0600  209.3520  155.9950 C   0  0  0  0  0  0  0  0  0  0  0  0
  160.4150  208.9220  154.7750 C   0  0  0  0  0  0  0  0  0  0  0  0
  160.4380  208.5430  157.1980 C   0  0  0  0  0  2  0  0  0  0  0  0
  157.8920  213.2600  154.0240 C   0  0  0  0  0  0  0  0  0  0  0  0
  158.2170  212.8910  152.7760 C   0  0  0  0  0  3  0  0  0  0  0  0
  158.9990  211.3200  155.0270 C   0  0  0  0  0  0  0  0  0  0  0  0
  159.0280  211.6620  152.4560 C   0  0  0  0  0  2  0  0  0  0  0  0
  159.3960  210.8570  153.6770 C   0  0  0  0  0  0  0  0  0  0  0  0
  161.7660  207.5080  148.5020 C   0  0  0  0  0  3  0  0  0  0  0  0
  161.0250  205.8820  150.6600 C   0  0  0  0  0  3  0  0  0  0  0  0
  161.5940  204.1950  146.8550 C   0  0  0  0  0  0  0  0  0  0  0  0
  161.7610  205.5760  147.0420 C   0  0  0  0  0  3  0  0  0  0  0  0
  161.5800  206.1380  148.3080 C   0  0  0  0  0  0  0  0  0  0  0  0
  161.0290  203.9450  149.2020 C   0  0  0  0  0  3  0  0  0  0  0  0
  161.2110  205.3170  149.3960 C   0  0  0  0  0  0  0  0  0  0  0  0
  161.2190  203.3870  147.9340 C   0  0  0  0  0  3  0  0  0  0  0  0
  161.2080  207.2600  150.8570 C   0  0  0  0  0  0  0  0  0  0  0  0
  161.5800  208.0650  149.7700 C   0  0  0  0  0  3  0  0  0  0  0  0
  161.7380  203.5830  145.4990 C   0  0  0  0  0  3  0  0  0  0  0  0
  160.8060  202.5530  145.3440 O   0  0  0  0  0  1  0  0  0  0  0  0
  161.5480  204.5430  144.5000 O   0  0  0  0  0  1  0  0  0  0  0  0
  157.1210  214.4440  154.2640 N   0  0  0  0  0  2  0  0  0  0  0  0
  155.6880  214.4520  154.5360 C   0  0  0  0  0  3  0  0  0  0  0  0
  154.9790  213.5970  153.5080 C   0  0  0  0  0  1  0  0  0  0  0  0
  155.4120  213.8910  155.9200 C   0  0  0  0  0  1  0  0  0  0  0  0
  1 17  2  0  0  0  0
  1 11  1  0  0  0  0
  4  6  1  0  0  0  0
  5  1  1  0  0  0  0
  6 11  1  0  0  0  0
  6  8  1  1  0  0  0
  7 12  1  0  0  0  0
  8  7  1  0  0  0  0
  9  5  1  0  0  0  0
  9  4  2  0  0  0  0
 10  3  1  0  0  0  0
 10 12  1  0  0  0  0
 11 10  2  0  0  0  0
 13 31  1  0  0  0  0
 13  2  1  0  0  0  0
 14 13  2  0  0  0  0
 15  2  2  0  0  0  0
 15  3  1  0  0  0  0
 16 14  1  0  0  0  0
 16 17  1  0  0  0  0
 17 15  1  0  0  0  0
 18 27  1  0  0  0  0
 19 26  1  0  0  0  0
 20 21  2  0  0  0  0
 20 25  1  0  0  0  0
 21 22  1  0  0  0  0
 22 18  2  0  0  0  0
 22 24  1  0  0  0  0
 23 24  1  0  0  0  0
 24 19  2  0  0  0  0
 25 23  2  0  0  0  0
 26  9  1  0  0  0  0
 27 26  2  0  0  0  0
 28 20  1  0  0  0  0
 29 28  1  0  0  0  0
 30 28  1  0  0  0  0
 31 32  1  0  0  0  0
 32 34  1  0  0  0  0
 33 32  1  0  0  0  0
M  END
>  <MODEL>
1

>  <REMARK>
 VINA RESULT:     -10.1      0.000      0.000
  Name = 
  4 active torsions:
  status: ('A' for Active; 'I' for Inactive)
    1  A    between atoms: C_3  and  N_25
    2  A    between atoms: C_7  and  C_11
    3  A    between atoms: C_18  and  C_30
    4  A    between atoms: C_23  and  N_25
                            x       y       z     vdW  Elec       q    Type
                         _______ _______ _______ _____ _____    ______ ____

>  <TORSDO>
F 4

$$$$
=
 OpenBabel11062409433D

 34 39  0  0  1  0  0  0  0  0999 V2000
  161.6590  208.0990  151.1310 C   0  0  0  0  0  0  0  0  0  0  0  0
  161.7070  211.7060  150.6510 C   0  0  0  0  0  3  0  0  0  0  0  0
  161.4710  210.4500  152.6440 O   0  0  0  0  0  0  0  0  0  0  0  0
  161.2620  205.5990  152.4150 N   0  0  0  0  0  0  0  0  0  0  0  0
  161.7050  206.8510  150.4370 N   0  0  0  0  0  2  0  0  0  0  0  0
  161.4790  206.7450  153.3060 C   0  0  2  0  0  3  0  0  0  0  0  0
  160.1730  208.0570  155.1200 C   0  0  0  0  0  2  0  0  0  0  0  0
  160.5310  206.6850  154.5180 C   0  0  0  0  0  2  0  0  0  0  0  0
  161.4280  205.6190  151.1200 C   0  0  0  0  0  0  0  0  0  0  0  0
  161.3750  209.2100  153.2920 C   0  0  0  0  0  0  0  0  0  0  0  0
  161.4570  208.0700  152.5900 C   0  0  0  0  0  0  0  0  0  0  0  0
  161.1940  209.1460  154.7790 C   0  0  0  0  0  2  0  0  0  0  0  0
  161.8630  211.8150  149.1890 C   0  0  0  0  0  0  0  0  0  0  0  0
  161.9570  210.7160  148.4260 C   0  0  0  0  0  3  0  0  0  0  0  0
  161.6450  210.5210  151.2570 C   0  0  0  0  0  0  0  0  0  0  0  0
  161.9360  209.3140  148.9790 C   0  0  0  0  0  2  0  0  0  0  0  0
  161.7480  209.2680  150.4750 C   0  0  0  0  0  0  0  0  0  0  0  0
  160.9360  201.9680  150.2750 C   0  0  0  0  0  3  0  0  0  0  0  0
  161.3160  204.4000  148.9380 C   0  0  0  0  0  3  0  0  0  0  0  0
  160.8520  200.8470  146.7460 C   0  0  0  0  0  0  0  0  0  0  0  0
  160.8310  200.8140  148.1490 C   0  0  0  0  0  3  0  0  0  0  0  0
  160.9780  201.9950  148.8800 C   0  0  0  0  0  0  0  0  0  0  0  0
  161.2010  203.2490  146.8090 C   0  0  0  0  0  3  0  0  0  0  0  0
  161.1640  203.2210  148.2050 C   0  0  0  0  0  0  0  0  0  0  0  0
  161.0470  202.0630  146.0820 C   0  0  0  0  0  3  0  0  0  0  0  0
  161.2780  204.3750  150.3420 C   0  0  0  0  0  0  0  0  0  0  0  0
  161.0860  203.1520  151.0010 C   0  0  0  0  0  3  0  0  0  0  0  0
  160.7420  199.5890  145.9470 C   0  0  0  0  0  3  0  0  0  0  0  0
  160.3170  199.8880  144.6500 O   0  0  0  0  0  1  0  0  0  0  0  0
  161.9730  198.9270  145.8970 O   0  0  0  0  0  1  0  0  0  0  0  0
  161.8930  213.1220  148.6030 N   0  0  0  0  0  2  0  0  0  0  0  0
  161.3030  213.4600  147.3130 C   0  0  0  0  0  3  0  0  0  0  0  0
  159.9770  214.1560  147.5370 C   0  0  0  0  0  1  0  0  0  0  0  0
  162.2230  214.3870  146.5390 C   0  0  0  0  0  1  0  0  0  0  0  0
  1 11  1  0  0  0  0
  2 15  2  0  0  0  0
  3 10  1  0  0  0  0
  4  6  1  0  0  0  0
  5  9  1  0  0  0  0
  5  1  1  0  0  0  0
  6  8  1  1  0  0  0
  8  7  1  0  0  0  0
  9  4  2  0  0  0  0
 10 12  1  0  0  0  0
 11 10  2  0  0  0  0
 11  6  1  0  0  0  0
 12  7  1  0  0  0  0
 13  2  1  0  0  0  0
 14 16  1  0  0  0  0
 14 13  2  0  0  0  0
 15  3  1  0  0  0  0
 16 17  1  0  0  0  0
 17  1  2  0  0  0  0
 17 15  1  0  0  0  0
 18 27  1  0  0  0  0
 19 26  1  0  0  0  0
 20 21  2  0  0  0  0
 21 22  1  0  0  0  0
 22 18  2  0  0  0  0
 23 24  1  0  0  0  0
 24 22  1  0  0  0  0
 24 19  2  0  0  0  0
 25 20  1  0  0  0  0
 25 23  2  0  0  0  0
 26 27  2  0  0  0  0
 26  9  1  0  0  0  0
 28 20  1  0  0  0  0
 29 28  1  0  0  0  0
 30 28  1  0  0  0  0
 31 13  1  0  0  0  0
 32 33  1  0  0  0  0
 32 31  1  0  0  0  0
 34 32  1  0  0  0  0
M  END
>  <MODEL>
2

>  <REMARK>
 VINA RESULT:      -9.4      3.515      4.844
  Name = 
  4 active torsions:
  status: ('A' for Active; 'I' for Inactive)
    1  A    between atoms: C_3  and  N_25
    2  A    between atoms: C_7  and  C_11
    3  A    between atoms: C_18  and  C_30
    4  A    between atoms: C_23  and  N_25
                            x       y       z     vdW  Elec       q    Type
                         _______ _______ _______ _____ _____    ______ ____

>  <TORSDO>
F 4

$$$$
=
 OpenBabel11062409433D

 34 39  0  0  1  0  0  0  0  0999 V2000
  160.8440  208.5760  153.0540 C   0  0  0  0  0  0  0  0  0  0  0  0
  160.1100  212.1280  153.3430 C   0  0  0  0  0  3  0  0  0  0  0  0
  160.4650  210.5150  155.0410 O   0  0  0  0  0  0  0  0  0  0  0  0
  161.1630  205.8620  153.8230 N   0  0  0  0  0  0  0  0  0  0  0  0
  161.0130  207.5150  152.1130 N   0  0  0  0  0  2  0  0  0  0  0  0
  161.3030  206.8490  154.9000 C   0  0  2  0  0  3  0  0  0  0  0  0
  160.0960  207.4900  157.1020 C   0  0  0  0  0  2  0  0  0  0  0  0
  160.6050  206.3630  156.1830 C   0  0  0  0  0  2  0  0  0  0  0  0
  161.1000  206.1490  152.5510 C   0  0  0  0  0  0  0  0  0  0  0  0
  160.7220  209.1900  155.4200 C   0  0  0  0  0  0  0  0  0  0  0  0
  160.9030  208.2420  154.4880 C   0  0  0  0  0  0  0  0  0  0  0  0
  160.8120  208.8220  156.8700 C   0  0  0  0  0  2  0  0  0  0  0  0
  159.9910  212.5290  151.9300 C   0  0  0  0  0  0  0  0  0  0  0  0
  160.1650  211.6330  150.9470 C   0  0  0  0  0  3  0  0  0  0  0  0
  160.3830  210.8710  153.6890 C   0  0  0  0  0  0  0  0  0  0  0  0
  160.5110  210.1870  151.1900 C   0  0  0  0  0  2  0  0  0  0  0  0
  160.5920  209.8320  152.6540 C   0  0  0  0  0  0  0  0  0  0  0  0
  160.7630  202.7090  151.0230 C   0  0  0  0  0  3  0  0  0  0  0  0
  161.2750  205.3350  150.1910 C   0  0  0  0  0  3  0  0  0  0  0  0
  161.1310  202.2270  147.3690 C   0  0  0  0  0  0  0  0  0  0  0  0
  160.9370  201.9480  148.7310 C   0  0  0  0  0  3  0  0  0  0  0  0
  160.9770  202.9810  149.6710 C   0  0  0  0  0  0  0  0  0  0  0  0
  161.4380  204.5770  147.8960 C   0  0  0  0  0  3  0  0  0  0  0  0
  161.2300  204.3040  149.2500 C   0  0  0  0  0  0  0  0  0  0  0  0
  161.3900  203.5390  146.9580 C   0  0  0  0  0  3  0  0  0  0  0  0
  161.0640  205.0640  151.5540 C   0  0  0  0  0  0  0  0  0  0  0  0
  160.8080  203.7460  151.9590 C   0  0  0  0  0  3  0  0  0  0  0  0
  161.1370  201.1300  146.3550 C   0  0  0  0  0  3  0  0  0  0  0  0
  161.4590  199.9170  146.9720 O   0  0  0  0  0  1  0  0  0  0  0  0
  159.8880  201.0230  145.7340 O   0  0  0  0  0  1  0  0  0  0  0  0
  159.6670  213.8930  151.6340 N   0  0  0  0  0  2  0  0  0  0  0  0
  159.5470  214.4360  150.2850 C   0  0  0  0  0  3  0  0  0  0  0  0
  160.8780  214.3110  149.5750 C   0  0  0  0  0  1  0  0  0  0  0  0
  158.4950  213.6710  149.5010 C   0  0  0  0  0  1  0  0  0  0  0  0
  1 11  1  0  0  0  0
  2 15  2  0  0  0  0
  3 10  1  0  0  0  0
  4  6  1  0  0  0  0
  5  9  1  0  0  0  0
  5  1  1  0  0  0  0
  6  8  1  1  0  0  0
  8  7  1  0  0  0  0
  9  4  2  0  0  0  0
 10 12  1  0  0  0  0
 11  6  1  0  0  0  0
 11 10  2  0  0  0  0
 12  7  1  0  0  0  0
 13  2  1  0  0  0  0
 14 16  1  0  0  0  0
 14 13  2  0  0  0  0
 15  3  1  0  0  0  0
 16 17  1  0  0  0  0
 17  1  2  0  0  0  0
 17 15  1  0  0  0  0
 18 27  1  0  0  0  0
 19 26  1  0  0  0  0
 20 21  2  0  0  0  0
 21 22  1  0  0  0  0
 22 18  2  0  0  0  0
 23 24  1  0  0  0  0
 24 22  1  0  0  0  0
 24 19  2  0  0  0  0
 25 20  1  0  0  0  0
 25 23  2  0  0  0  0
 26 27  2  0  0  0  0
 26  9  1  0  0  0  0
 28 29  1  0  0  0  0
 28 20  1  0  0  0  0
 30 28  1  0  0  0  0
 31 13  1  0  0  0  0
 32 31  1  0  0  0  0
 33 32  1  0  0  0  0
 34 32  1  0  0  0  0
M  END
>  <MODEL>
3

>  <REMARK>
 VINA RESULT:      -7.6      2.340      3.136
  Name = 
  4 active torsions:
  status: ('A' for Active; 'I' for Inactive)
    1  A    between atoms: C_3  and  N_25
    2  A    between atoms: C_7  and  C_11
    3  A    between atoms: C_18  and  C_30
    4  A    between atoms: C_23  and  N_25
                            x       y       z     vdW  Elec       q    Type
                         _______ _______ _______ _____ _____    ______ ____

>  <TORSDO>
F 4

$$$$
