=
 OpenBabel11052421493D

 30 33  0  0  1  0  0  0  0  0999 V2000
  161.2650  213.4580  148.2720 C   0  0  1  0  0  0  0  0  0  0  0  0
  160.5080  212.3900  150.4520 C   0  0  0  0  0  0  0  0  0  0  0  0
  160.1410  214.4530  147.9620 C   0  0  2  0  0  3  0  0  0  0  0  0
  157.2750  213.5090  150.3310 C   0  0  0  0  0  3  0  0  0  0  0  0
  159.5620  211.6460  153.9660 C   0  0  0  0  0  1  0  0  0  0  0  0
  158.5770  213.7760  149.8690 C   0  0  0  0  0  0  0  0  0  0  0  0
  157.6590  214.2010  147.6620 C   0  0  0  0  0  3  0  0  0  0  0  0
  158.7740  214.0750  148.5010 C   0  0  0  0  0  0  0  0  0  0  0  0
  159.7750  213.6600  150.7880 C   0  0  1  0  0  3  0  0  0  0  0  0
  159.7800  212.2220  152.6070 C   0  0  0  0  0  0  0  0  0  0  0  0
  156.1800  213.5960  149.4720 C   0  0  0  0  0  3  0  0  0  0  0  0
  162.5820  214.1740  148.5200 C   0  0  0  0  0  1  0  0  0  0  0  0
  156.3720  213.9520  148.1380 C   0  0  0  0  0  3  0  0  0  0  0  0
  161.0060  212.1240  149.0320 C   0  0  2  0  0  3  0  0  0  0  0  0
  160.4360  211.5490  151.4950 C   0  0  0  0  0  0  0  0  0  0  0  0
  158.7720  214.4530  153.1060 C   0  0  0  0  0  1  0  0  0  0  0  0
  160.7550  213.5850  146.8340 C   0  0  2  0  0  3  0  0  0  0  0  0
  159.4210  213.4360  152.2270 C   0  0  0  0  0  0  0  0  0  0  0  0
  162.9870  211.1960  150.0570 F   0  0  0  0  0  0  0  0  0  0  0  0
  163.0210  211.5130  147.8380 F   0  0  0  0  0  0  0  0  0  0  0  0
  161.7620  209.8630  148.6850 O   0  0  0  0  0  1  0  0  0  0  0  0
  162.2150  211.1620  148.9090 C   0  0  0  0  0  0  0  0  0  0  0  0
  161.9770  209.9480  152.5800 C   0  0  0  0  0  1  0  0  0  0  0  0
  160.8810  210.1240  151.5460 C   0  0  0  0  0  2  0  0  0  0  0  0
  160.4360  211.2380  146.3090 O   0  0  0  0  0  1  0  0  0  0  0  0
  159.8100  212.4860  146.2990 C   0  0  2  0  0  3  0  0  0  0  0  0
  159.3360  212.7890  144.8720 C   0  0  1  0  0  3  0  0  0  0  0  0
  159.3980  214.2740  144.5540 C   0  0  0  0  0  1  0  0  0  0  0  0
  160.0960  212.0030  143.8460 C   0  0  0  0  0  3  0  0  0  0  0  0
  161.1240  212.4490  143.3620 O   0  0  0  0  0  0  0  0  0  0  0  0
  1 12  1  1  0  0  0
  1 14  1  0  0  0  0
  2  9  1  0  0  0  0
  2 15  2  0  0  0  0
  3  1  1  0  0  0  0
  3  8  1  1  0  0  0
  6  4  1  0  0  0  0
  7 13  2  0  0  0  0
  7  8  1  0  0  0  0
  8  6  2  0  0  0  0
  9  6  1  6  0  0  0
  9 18  1  0  0  0  0
 10  5  1  0  0  0  0
 11  4  2  0  0  0  0
 13 11  1  0  0  0  0
 14 22  1  1  0  0  0
 14  2  1  0  0  0  0
 15 24  1  0  0  0  0
 15 10  1  0  0  0  0
 17 26  1  1  0  0  0
 17  3  1  0  0  0  0
 17  1  1  0  0  0  0
 18 10  2  0  0  0  0
 18 16  1  0  0  0  0
 20 22  1  0  0  0  0
 21 22  1  0  0  0  0
 22 19  1  0  0  0  0
 24 23  1  0  0  0  0
 26 25  1  6  0  0  0
 27 28  1  6  0  0  0
 27 26  1  0  0  0  0
 29 27  1  0  0  0  0
 30 29  2  0  0  0  0
M  END
>  <MODEL>
1

>  <REMARK>
 VINA RESULT:      -3.5      0.000      0.000
  Name = 
  5 active torsions:
  status: ('A' for Active; 'I' for Inactive)
    1  A    between atoms: C_2  and  C_14
    2  A    between atoms: C_2  and  C_22
    3  A    between atoms: C_11  and  C_25
    4  A    between atoms: C_22  and  C_29
    5  A    between atoms: C_23  and  C_26
                            x       y       z     vdW  Elec       q    Type
                         _______ _______ _______ _____ _____    ______ ____

>  <TORSDO>
F 5

$$$$
=
 OpenBabel11052421493D

 30 33  0  0  1  0  0  0  0  0999 V2000
  162.4580  204.8630  146.9340 C   0  0  1  0  0  0  0  0  0  0  0  0
  160.9950  203.0820  145.8600 C   0  0  0  0  0  0  0  0  0  0  0  0
  162.6350  204.3500  148.3680 C   0  0  2  0  0  3  0  0  0  0  0  0
  160.0360  201.5580  148.7700 C   0  0  0  0  0  3  0  0  0  0  0  0
  159.5890  199.9760  144.3860 C   0  0  0  0  0  1  0  0  0  0  0  0
  161.0410  202.3570  148.1960 C   0  0  0  0  0  0  0  0  0  0  0  0
  161.0130  203.7440  150.1890 C   0  0  0  0  0  3  0  0  0  0  0  0
  161.4970  203.4980  148.8960 C   0  0  0  0  0  0  0  0  0  0  0  0
  161.5760  202.0700  146.8080 C   0  0  1  0  0  3  0  0  0  0  0  0
  160.2810  201.0200  145.1980 C   0  0  0  0  0  0  0  0  0  0  0  0
  159.5340  201.8430  150.0390 C   0  0  0  0  0  3  0  0  0  0  0  0
  163.7850  204.9040  146.1950 C   0  0  0  0  0  1  0  0  0  0  0  0
  160.0300  202.9320  150.7530 C   0  0  0  0  0  3  0  0  0  0  0  0
  161.1700  204.5810  146.1050 C   0  0  2  0  0  3  0  0  0  0  0  0
  160.1950  202.4570  144.9810 C   0  0  0  0  0  0  0  0  0  0  0  0
  161.4700  199.4270  146.7110 C   0  0  0  0  0  1  0  0  0  0  0  0
  162.3690  205.8530  148.0990 C   0  0  2  0  0  3  0  0  0  0  0  0
  161.0850  200.7830  146.2190 C   0  0  0  0  0  0  0  0  0  0  0  0
  161.2340  204.7320  143.6950 F   0  0  0  0  0  0  0  0  0  0  0  0
  162.1100  206.4330  144.8630 F   0  0  0  0  0  0  0  0  0  0  0  0
  159.8840  206.1670  144.8270 O   0  0  0  0  0  1  0  0  0  0  0  0
  161.1000  205.4850  144.8480 C   0  0  0  0  0  0  0  0  0  0  0  0
  157.9630  203.4490  144.5980 C   0  0  0  0  0  1  0  0  0  0  0  0
  159.2930  203.0820  143.9680 C   0  0  0  0  0  2  0  0  0  0  0  0
  160.2450  206.8310  147.4520 O   0  0  0  0  0  1  0  0  0  0  0  0
  160.9670  206.3330  148.5370 C   0  0  2  0  0  3  0  0  0  0  0  0
  161.0520  207.4210  149.6160 C   0  0  1  0  0  3  0  0  0  0  0  0
  161.1830  206.8330  151.0100 C   0  0  0  0  0  1  0  0  0  0  0  0
  162.1640  208.3920  149.3520 C   0  0  0  0  0  3  0  0  0  0  0  0
  161.9720  209.3780  148.6580 O   0  0  0  0  0  0  0  0  0  0  0  0
  1 12  1  6  0  0  0
  1 17  1  0  0  0  0
  1  3  1  0  0  0  0
  2 14  1  0  0  0  0
  3  8  1  1  0  0  0
  4 11  1  0  0  0  0
  5 10  1  0  0  0  0
  6  4  2  0  0  0  0
  6  8  1  0  0  0  0
  7 13  1  0  0  0  0
  8  7  2  0  0  0  0
  9  2  1  6  0  0  0
  9  6  1  0  0  0  0
 10 18  2  0  0  0  0
 11 13  2  0  0  0  0
 14 22  1  6  0  0  0
 14  1  1  0  0  0  0
 15 10  1  0  0  0  0
 15  2  2  0  0  0  0
 17  3  1  0  0  0  0
 17 26  1  1  0  0  0
 18 16  1  0  0  0  0
 18  9  1  0  0  0  0
 19 22  1  0  0  0  0
 21 22  1  0  0  0  0
 22 20  1  0  0  0  0
 24 23  1  0  0  0  0
 24 15  1  0  0  0  0
 26 25  1  6  0  0  0
 26 27  1  0  0  0  0
 27 28  1  1  0  0  0
 29 27  1  0  0  0  0
 30 29  2  0  0  0  0
M  END
>  <MODEL>
2

>  <REMARK>
 VINA RESULT:      -3.0      7.678     10.401
  Name = 
  5 active torsions:
  status: ('A' for Active; 'I' for Inactive)
    1  A    between atoms: C_2  and  C_14
    2  A    between atoms: C_2  and  C_22
    3  A    between atoms: C_11  and  C_25
    4  A    between atoms: C_22  and  C_29
    5  A    between atoms: C_23  and  C_26
                            x       y       z     vdW  Elec       q    Type
                         _______ _______ _______ _____ _____    ______ ____

>  <TORSDO>
F 5

$$$$
=
 OpenBabel11052421493D

 30 33  0  0  1  0  0  0  0  0999 V2000
  161.3540  209.4760  154.9000 C   0  0  1  0  0  0  0  0  0  0  0  0
  159.1510  210.6740  155.3210 C   0  0  0  0  0  0  0  0  0  0  0  0
  162.0180  210.3370  153.8190 C   0  0  2  0  0  3  0  0  0  0  0  0
  159.2470  212.6580  152.5340 C   0  0  0  0  0  3  0  0  0  0  0  0
  156.4660  213.0560  156.2790 C   0  0  0  0  0  1  0  0  0  0  0  0
  160.0550  211.9290  153.4260 C   0  0  0  0  0  0  0  0  0  0  0  0
  161.2990  211.0700  151.5250 C   0  0  0  0  0  3  0  0  0  0  0  0
  161.0620  211.0830  152.9070 C   0  0  0  0  0  0  0  0  0  0  0  0
  159.8070  211.9660  154.9190 C   0  0  1  0  0  3  0  0  0  0  0  0
  157.6990  212.3680  155.7940 C   0  0  0  0  0  0  0  0  0  0  0  0
  159.4690  212.6010  151.1580 C   0  0  0  0  0  3  0  0  0  0  0  0
  162.1610  209.4880  156.1870 C   0  0  0  0  0  1  0  0  0  0  0  0
  160.5020  211.8130  150.6550 C   0  0  0  0  0  3  0  0  0  0  0  0
  159.8080  209.3290  155.0100 C   0  0  2  0  0  3  0  0  0  0  0  0
  157.9070  210.9270  155.7590 C   0  0  0  0  0  0  0  0  0  0  0  0
  158.9750  214.4530  155.2800 C   0  0  0  0  0  1  0  0  0  0  0  0
  162.0670  208.7900  153.7310 C   0  0  2  0  0  3  0  0  0  0  0  0
  158.7830  212.9740  155.3430 C   0  0  0  0  0  0  0  0  0  0  0  0
  158.1940  207.6240  155.5790 F   0  0  0  0  0  0  0  0  0  0  0  0
  159.3300  208.5770  157.2600 F   0  0  0  0  0  0  0  0  0  0  0  0
  160.3980  207.1640  155.8860 O   0  0  0  0  0  1  0  0  0  0  0  0
  159.4190  208.1550  155.9440 C   0  0  0  0  0  0  0  0  0  0  0  0
  155.6710  210.0620  155.1540 C   0  0  0  0  0  1  0  0  0  0  0  0
  156.8460  209.9360  156.1050 C   0  0  0  0  0  2  0  0  0  0  0  0
  160.4520  207.1090  153.0590 O   0  0  0  0  0  1  0  0  0  0  0  0
  161.1980  208.1950  152.6000 C   0  0  2  0  0  3  0  0  0  0  0  0
  162.0510  207.7410  151.4090 C   0  0  1  0  0  3  0  0  0  0  0  0
  162.6580  206.3660  151.6330 C   0  0  0  0  0  1  0  0  0  0  0  0
  161.2830  207.7700  150.1210 C   0  0  0  0  0  3  0  0  0  0  0  0
  161.8590  207.9620  149.0620 O   0  0  0  0  0  0  0  0  0  0  0  0
  1 14  1  0  0  0  0
  1 12  1  1  0  0  0
  2 15  2  0  0  0  0
  3  8  1  6  0  0  0
  3  1  1  0  0  0  0
  4  6  1  0  0  0  0
  7  8  1  0  0  0  0
  8  6  2  0  0  0  0
  9  6  1  6  0  0  0
  9  2  1  0  0  0  0
  9 18  1  0  0  0  0
 10  5  1  0  0  0  0
 11  4  2  0  0  0  0
 13 11  1  0  0  0  0
 13  7  2  0  0  0  0
 14  2  1  0  0  0  0
 14 22  1  1  0  0  0
 15 10  1  0  0  0  0
 15 24  1  0  0  0  0
 16 18  1  0  0  0  0
 17 26  1  6  0  0  0
 17  3  1  0  0  0  0
 17  1  1  0  0  0  0
 18 10  2  0  0  0  0
 19 22  1  0  0  0  0
 21 22  1  0  0  0  0
 22 20  1  0  0  0  0
 23 24  1  0  0  0  0
 26 25  1  1  0  0  0
 27 28  1  1  0  0  0
 27 26  1  0  0  0  0
 29 27  1  0  0  0  0
 30 29  2  0  0  0  0
M  END
>  <MODEL>
3

>  <REMARK>
 VINA RESULT:      -2.2      4.232      6.822
  Name = 
  5 active torsions:
  status: ('A' for Active; 'I' for Inactive)
    1  A    between atoms: C_2  and  C_14
    2  A    between atoms: C_2  and  C_22
    3  A    between atoms: C_11  and  C_25
    4  A    between atoms: C_22  and  C_29
    5  A    between atoms: C_23  and  C_26
                            x       y       z     vdW  Elec       q    Type
                         _______ _______ _______ _____ _____    ______ ____

>  <TORSDO>
F 5

$$$$
=
 OpenBabel11052421493D

 30 33  0  0  1  0  0  0  0  0999 V2000
  162.0810  211.6630  149.1940 C   0  0  1  0  0  0  0  0  0  0  0  0
  161.3110  210.1330  151.0740 C   0  0  0  0  0  0  0  0  0  0  0  0
  161.4120  213.0000  149.5370 C   0  0  2  0  0  3  0  0  0  0  0  0
  158.8150  212.1670  152.2350 C   0  0  0  0  0  3  0  0  0  0  0  0
  160.7090  208.4260  154.3180 C   0  0  0  0  0  1  0  0  0  0  0  0
  160.0270  212.1670  151.5190 C   0  0  0  0  0  0  0  0  0  0  0  0
  159.0210  213.6780  149.9060 C   0  0  0  0  0  3  0  0  0  0  0  0
  160.1100  212.8930  150.3090 C   0  0  0  0  0  0  0  0  0  0  0  0
  161.2070  211.3340  151.9730 C   0  0  1  0  0  3  0  0  0  0  0  0
  160.9240  209.3830  153.1930 C   0  0  0  0  0  0  0  0  0  0  0  0
  157.7260  212.9200  151.7970 C   0  0  0  0  0  3  0  0  0  0  0  0
  163.5950  211.7730  149.2540 C   0  0  0  0  0  1  0  0  0  0  0  0
  157.8330  213.6840  150.6360 C   0  0  0  0  0  3  0  0  0  0  0  0
  161.4350  210.2940  149.5590 C   0  0  2  0  0  3  0  0  0  0  0  0
  161.0750  209.0230  151.7900 C   0  0  0  0  0  0  0  0  0  0  0  0
  160.9780  211.4410  154.6080 C   0  0  0  0  0  1  0  0  0  0  0  0
  161.4460  212.4900  148.0730 C   0  0  2  0  0  3  0  0  0  0  0  0
  161.0230  210.6950  153.3160 C   0  0  0  0  0  0  0  0  0  0  0  0
  162.9570  208.4220  149.6600 F   0  0  0  0  0  0  0  0  0  0  0  0
  162.8900  209.6000  147.7550 F   0  0  0  0  0  0  0  0  0  0  0  0
  161.1600  208.2730  148.2780 O   0  0  0  0  0  1  0  0  0  0  0  0
  162.1260  209.1270  148.8090 C   0  0  0  0  0  0  0  0  0  0  0  0
  162.0030  206.7310  151.8460 C   0  0  0  0  0  1  0  0  0  0  0  0
  160.9180  207.6280  151.2800 C   0  0  0  0  0  2  0  0  0  0  0  0
  160.2110  211.0220  146.5870 O   0  0  0  0  0  1  0  0  0  0  0  0
  160.0710  212.0410  147.5300 C   0  0  2  0  0  3  0  0  0  0  0  0
  159.3060  213.2060  146.8880 C   0  0  1  0  0  3  0  0  0  0  0  0
  160.2360  214.1760  146.1790 C   0  0  0  0  0  1  0  0  0  0  0  0
  158.2350  212.7310  145.9520 C   0  0  0  0  0  3  0  0  0  0  0  0
  157.1590  212.3530  146.3860 O   0  0  0  0  0  0  0  0  0  0  0  0
  1 12  1  1  0  0  0
  1  3  1  0  0  0  0
  1 14  1  0  0  0  0
  2 15  2  0  0  0  0
  3  8  1  1  0  0  0
  6  9  1  0  0  0  0
  6  4  2  0  0  0  0
  7  8  2  0  0  0  0
  7 13  1  0  0  0  0
  8  6  1  0  0  0  0
  9  2  1  6  0  0  0
  9 18  1  0  0  0  0
 10 18  2  0  0  0  0
 10  5  1  0  0  0  0
 11  4  1  0  0  0  0
 13 11  2  0  0  0  0
 14 22  1  1  0  0  0
 14  2  1  0  0  0  0
 15 10  1  0  0  0  0
 17 26  1  1  0  0  0
 17  1  1  0  0  0  0
 17  3  1  0  0  0  0
 18 16  1  0  0  0  0
 20 22  1  0  0  0  0
 21 22  1  0  0  0  0
 22 19  1  0  0  0  0
 24 15  1  0  0  0  0
 24 23  1  0  0  0  0
 26 25  1  6  0  0  0
 27 28  1  6  0  0  0
 27 26  1  0  0  0  0
 29 30  2  0  0  0  0
 29 27  1  0  0  0  0
M  END
>  <MODEL>
4

>  <REMARK>
 VINA RESULT:      -1.4      1.717      2.711
  Name = 
  5 active torsions:
  status: ('A' for Active; 'I' for Inactive)
    1  A    between atoms: C_2  and  C_14
    2  A    between atoms: C_2  and  C_22
    3  A    between atoms: C_11  and  C_25
    4  A    between atoms: C_22  and  C_29
    5  A    between atoms: C_23  and  C_26
                            x       y       z     vdW  Elec       q    Type
                         _______ _______ _______ _____ _____    ______ ____

>  <TORSDO>
F 5

$$$$
=
 OpenBabel11052421493D

 30 33  0  0  1  0  0  0  0  0999 V2000
  161.6460  210.2190  153.0560 C   0  0  1  0  0  0  0  0  0  0  0  0
  160.3650  211.7490  151.4800 C   0  0  0  0  0  0  0  0  0  0  0  0
  162.6460  209.5200  152.1270 C   0  0  2  0  0  3  0  0  0  0  0  0
  161.4330  210.2950  148.5720 C   0  0  0  0  0  3  0  0  0  0  0  0
  159.2770  214.4130  149.1310 C   0  0  0  0  0  1  0  0  0  0  0  0
  161.7650  210.4800  149.9260 C   0  0  0  0  0  0  0  0  0  0  0  0
  162.3790  208.1340  150.0480 C   0  0  0  0  0  3  0  0  0  0  0  0
  162.1950  209.3680  150.6870 C   0  0  0  0  0  0  0  0  0  0  0  0
  161.5840  211.8220  150.6030 C   0  0  1  0  0  3  0  0  0  0  0  0
  159.9830  213.3390  149.8910 C   0  0  0  0  0  0  0  0  0  0  0  0
  161.5810  209.0490  147.9620 C   0  0  0  0  0  3  0  0  0  0  0  0
  162.3580  211.0780  154.0870 C   0  0  0  0  0  1  0  0  0  0  0  0
  162.0640  207.9700  148.7000 C   0  0  0  0  0  3  0  0  0  0  0  0
  160.2420  210.6810  152.5670 C   0  0  2  0  0  3  0  0  0  0  0  0
  159.4280  212.5850  151.0060 C   0  0  0  0  0  0  0  0  0  0  0  0
  162.1390  213.5100  148.6400 C   0  0  0  0  0  1  0  0  0  0  0  0
  161.8980  208.7180  153.2230 C   0  0  2  0  0  3  0  0  0  0  0  0
  161.2200  212.9340  149.6660 C   0  0  0  0  0  0  0  0  0  0  0  0
  157.9870  210.8970  153.4050 F   0  0  0  0  0  0  0  0  0  0  0  0
  159.5210  212.3380  154.1750 F   0  0  0  0  0  0  0  0  0  0  0  0
  159.6040  210.1990  154.8390 O   0  0  0  0  0  1  0  0  0  0  0  0
  159.3170  211.0330  153.7590 C   0  0  0  0  0  0  0  0  0  0  0  0
  157.7940  214.0670  152.1230 C   0  0  0  0  0  1  0  0  0  0  0  0
  158.0130  212.7180  151.4630 C   0  0  0  0  0  2  0  0  0  0  0  0
  159.9260  207.3760  153.6670 O   0  0  0  0  0  1  0  0  0  0  0  0
  160.8370  207.7380  152.6740 C   0  0  2  0  0  3  0  0  0  0  0  0
  161.4800  206.4650  152.1070 C   0  0  1  0  0  3  0  0  0  0  0  0
  162.3400  205.7530  153.1360 C   0  0  0  0  0  1  0  0  0  0  0  0
  160.4610  205.5250  151.5360 C   0  0  0  0  0  3  0  0  0  0  0  0
  160.5110  205.1980  150.3610 O   0  0  0  0  0  0  0  0  0  0  0  0
  1 17  1  0  0  0  0
  1 12  1  1  0  0  0
  2 14  1  0  0  0  0
  3  8  1  6  0  0  0
  3  1  1  0  0  0  0
  3 17  1  0  0  0  0
  4  6  1  0  0  0  0
  5 10  1  0  0  0  0
  6  9  1  0  0  0  0
  6  8  2  0  0  0  0
  7  8  1  0  0  0  0
  9 18  1  6  0  0  0
  9  2  1  0  0  0  0
 10 15  1  0  0  0  0
 11  4  2  0  0  0  0
 11 13  1  0  0  0  0
 13  7  2  0  0  0  0
 14  1  1  0  0  0  0
 14 22  1  1  0  0  0
 15 24  1  0  0  0  0
 15  2  2  0  0  0  0
 16 18  1  0  0  0  0
 17 26  1  6  0  0  0
 18 10  2  0  0  0  0
 19 22  1  0  0  0  0
 22 20  1  0  0  0  0
 22 21  1  0  0  0  0
 24 23  1  0  0  0  0
 26 25  1  1  0  0  0
 27 26  1  0  0  0  0
 27 28  1  1  0  0  0
 29 27  1  0  0  0  0
 30 29  2  0  0  0  0
M  END
>  <MODEL>
5

>  <REMARK>
 VINA RESULT:      -0.9      3.628      6.767
  Name = 
  5 active torsions:
  status: ('A' for Active; 'I' for Inactive)
    1  A    between atoms: C_2  and  C_14
    2  A    between atoms: C_2  and  C_22
    3  A    between atoms: C_11  and  C_25
    4  A    between atoms: C_22  and  C_29
    5  A    between atoms: C_23  and  C_26
                            x       y       z     vdW  Elec       q    Type
                         _______ _______ _______ _____ _____    ______ ____

>  <TORSDO>
F 5

$$$$
