=
 OpenBabel11062408453D

 55 60  0  0  1  0  0  0  0  0999 V2000
  162.4420  207.7210  151.5760 C   0  0  1  0  0  3  0  0  0  0  0  0
  162.6890  206.6750  150.4950 C   0  0  0  0  0  2  0  0  0  0  0  0
  161.4550  206.3030  149.8220 N   0  0  0  0  0  2  0  0  0  0  0  0
  161.8530  204.1770  151.3440 O   0  0  0  0  0  0  0  0  0  0  0  0
  161.1480  204.6130  150.0870 S   0  0  0  0  0  0  0  0  0  0  0  0
  159.6680  204.4200  150.2700 O   0  0  0  0  0  0  0  0  0  0  0  0
  160.8820  202.0420  145.6630 O   0  0  0  0  0  1  0  0  0  0  0  0
  161.6980  203.6050  148.7060 C   0  0  1  0  0  0  0  0  0  0  0  0
  162.3840  204.4270  147.7830 O   0  0  0  0  0  0  0  0  0  0  0  0
  162.1500  203.8960  146.4950 C   0  0  2  0  0  3  0  0  0  0  0  0
  160.9250  204.5260  145.8480 C   0  0  1  0  0  0  0  0  0  0  0  0
  160.8180  203.1570  146.5060 C   0  0  1  0  0  0  0  0  0  0  0  0
  162.5750  202.6140  149.1690 O   0  0  0  0  0  1  0  0  0  0  0  0
  160.3550  205.6100  146.5410 O   0  0  0  0  0  1  0  0  0  0  0  0
  160.4940  203.0000  147.9790 C   0  0  1  0  0  3  0  0  0  0  0  0
  160.1390  201.5950  148.4140 C   0  0  0  0  0  0  0  0  0  0  0  0
  159.0280  201.3500  148.9580 O   0  0  0  0  0  1  0  0  0  0  0  0
  160.9980  200.5520  148.0920 O   0  0  0  0  0  0  0  0  0  0  0  0
  160.9820  204.5410  144.4340 O   0  0  0  0  0  0  0  0  0  0  0  0
  161.5290  205.7560  144.0090 C   0  0  0  0  0  1  0  0  0  0  0  0
  161.6040  208.8830  151.0070 C   0  0  0  0  0  2  0  0  0  0  0  0
  162.4240  209.8580  150.2920 N   0  0  0  0  0  2  0  0  0  0  0  0
  162.7270  212.2920  148.9380 O   0  0  0  0  0  0  0  0  0  0  0  0
  161.1090  211.7660  147.3380 N   0  0  0  0  0  2  0  0  0  0  0  0
  161.6680  210.2220  149.1740 N   0  0  0  0  0  2  0  0  0  0  0  0
  161.8690  211.4760  148.5110 C   0  0  0  0  0  0  0  0  0  0  0  0
  160.5770  213.0900  147.0470 C   0  0  2  0  0  3  0  0  0  0  0  0
  156.9110  213.1800  148.0160 N   0  0  0  0  0  0  0  0  0  0  0  0
  158.0200  214.4460  151.1380 O   0  0  0  0  0  0  0  0  0  0  0  0
  158.0520  213.0110  147.2890 C   0  0  0  0  0  3  0  0  0  0  0  0
  159.3850  213.8380  149.1520 C   0  0  0  0  0  0  0  0  0  0  0  0
  156.9930  213.6510  149.2870 C   0  0  0  0  0  0  0  0  0  0  0  0
  160.5720  214.1630  149.7300 F   0  0  0  0  0  0  0  0  0  0  0  0
  155.8820  213.9430  150.2210 C   0  0  0  0  0  2  0  0  0  0  0  0
  156.6320  214.4530  151.4750 C   0  0  1  0  0  3  0  0  0  0  0  0
  159.3210  213.3310  147.8390 C   0  0  0  0  0  0  0  0  0  0  0  0
  158.1880  213.9800  149.8520 C   0  0  0  0  0  0  0  0  0  0  0  0
  156.3790  213.5390  152.6700 C   0  0  0  0  0  2  0  0  0  0  0  0
  157.6240  213.3610  153.4690 C   0  0  0  0  0  0  0  0  0  0  0  0
  158.1910  212.2380  153.5070 O   0  0  0  0  0  0  0  0  0  0  0  0
  158.1650  214.4530  154.2080 N   0  0  0  0  0  1  0  0  0  0  0  0
  159.2940  212.6830  144.9500 C   0  0  0  0  0  3  0  0  0  0  0  0
  159.1300  212.7970  143.5660 C   0  0  0  0  0  3  0  0  0  0  0  0
  161.2820  214.0720  144.8200 C   0  0  0  0  0  3  0  0  0  0  0  0
  161.1140  214.1810  143.4340 C   0  0  0  0  0  3  0  0  0  0  0  0
  160.0440  213.5340  142.8060 C   0  0  0  0  0  3  0  0  0  0  0  0
  160.3710  213.3170  145.5830 C   0  0  0  0  0  0  0  0  0  0  0  0
  161.7870  207.0470  152.7830 C   0  0  0  0  0  2  0  0  0  0  0  0
  160.5130  207.7550  153.2480 C   0  0  0  0  0  2  0  0  0  0  0  0
  161.2450  209.5350  157.0610 C   0  0  0  0  0  3  0  0  0  0  0  0
  160.7280  208.3990  154.5810 C   0  0  0  0  0  0  0  0  0  0  0  0
  161.3290  209.6220  154.6720 N   0  0  0  0  0  0  0  0  0  0  0  0
  160.6080  208.2970  156.9840 C   0  0  0  0  0  3  0  0  0  0  0  0
  161.5910  210.1980  155.8740 C   0  0  0  0  0  3  0  0  0  0  0  0
  160.3410  207.7260  155.7420 C   0  0  0  0  0  3  0  0  0  0  0  0
  1  2  1  6  0  0  0
  1 48  1  0  0  0  0
  3  5  1  0  0  0  0
  3  2  1  0  0  0  0
  5  6  2  0  0  0  0
  5  4  2  0  0  0  0
  8 13  1  1  0  0  0
  8  5  1  0  0  0  0
  9  8  1  0  0  0  0
 10 12  1  0  0  0  0
 10  9  1  1  0  0  0
 11 10  1  0  0  0  0
 11 12  1  0  0  0  0
 11 14  1  1  0  0  0
 12  7  1  6  0  0  0
 12 15  1  0  0  0  0
 15 16  1  1  0  0  0
 15  8  1  0  0  0  0
 16 17  1  0  0  0  0
 18 16  2  0  0  0  0
 19 11  1  0  0  0  0
 20 19  1  0  0  0  0
 21  1  1  0  0  0  0
 22 21  1  0  0  0  0
 24 26  1  0  0  0  0
 25 22  1  0  0  0  0
 26 23  2  0  0  0  0
 26 25  1  0  0  0  0
 27 24  1  6  0  0  0
 27 36  1  0  0  0  0
 28 32  1  0  0  0  0
 29 35  1  0  0  0  0
 30 36  1  0  0  0  0
 30 28  2  0  0  0  0
 31 33  1  0  0  0  0
 31 37  1  0  0  0  0
 32 37  2  0  0  0  0
 32 34  1  0  0  0  0
 34 35  1  0  0  0  0
 35 38  1  1  0  0  0
 36 31  2  0  0  0  0
 37 29  1  0  0  0  0
 38 39  1  0  0  0  0
 39 40  2  0  0  0  0
 39 41  1  0  0  0  0
 42 47  1  0  0  0  0
 43 42  2  0  0  0  0
 44 47  2  0  0  0  0
 45 44  1  0  0  0  0
 46 45  2  0  0  0  0
 46 43  1  0  0  0  0
 47 27  1  0  0  0  0
 48 49  1  0  0  0  0
 49 51  1  0  0  0  0
 51 52  2  0  0  0  0
 51 55  1  0  0  0  0
 52 54  1  0  0  0  0
 53 50  1  0  0  0  0
 54 50  2  0  0  0  0
 55 53  2  0  0  0  0
M  END
>  <MODEL>
1

>  <REMARK>
 VINA RESULT:      -4.9      0.000      0.000
  Name = 
  17 active torsions:
  status: ('A' for Active; 'I' for Inactive)
    1  A    between atoms: C_1  and  C_53
    2  A    between atoms: N_4  and  C_35
    3  A    between atoms: N_4  and  N_37
    4  A    between atoms: C_6  and  S_20
    5  A    between atoms: C_8  and  N_22
    6  A    between atoms: C_8  and  C_43
    7  A    between atoms: C_10  and  C_32
    8  A    between atoms: O_11  and  C_29
    9  A    between atoms: N_19  and  C_45
   10  A    between atoms: S_20  and  N_22
   11  A    between atoms: C_26  and  C_45
   12  A    between atoms: C_27  and  C_51
   13  A    between atoms: C_32  and  C_48
   14  A    between atoms: C_35  and  C_43
   15  A    between atoms: C_43  and  C_54
   16  A    between atoms: C_45  and  C_49
   17  A    between atoms: C_51  and  C_54
                            x       y       z     vdW  Elec       q    Type
                         _______ _______ _______ _____ _____    ______ ____

>  <TORSDO>
F 17

$$$$
=
 OpenBabel11062408453D

 55 60  0  0  1  0  0  0  0  0999 V2000
  162.5550  209.5920  151.0470 C   0  0  1  0  0  3  0  0  0  0  0  0
  162.3260  208.0890  150.9370 C   0  0  0  0  0  2  0  0  0  0  0  0
  161.5050  207.7590  149.7840 N   0  0  0  0  0  2  0  0  0  0  0  0
  160.7990  205.8740  151.4990 O   0  0  0  0  0  0  0  0  0  0  0  0
  160.7810  206.1980  150.0290 S   0  0  0  0  0  0  0  0  0  0  0  0
  159.3520  206.2570  149.5630 O   0  0  0  0  0  0  0  0  0  0  0  0
  161.4510  202.3750  146.6830 O   0  0  0  0  0  1  0  0  0  0  0  0
  161.6360  204.9090  149.1150 C   0  0  1  0  0  0  0  0  0  0  0  0
  162.3510  205.5000  148.0490 O   0  0  0  0  0  0  0  0  0  0  0  0
  162.3670  204.5670  146.9880 C   0  0  2  0  0  3  0  0  0  0  0  0
  161.1850  204.7700  146.0510 C   0  0  1  0  0  0  0  0  0  0  0  0
  161.1400  203.6730  147.1060 C   0  0  1  0  0  0  0  0  0  0  0  0
  162.5420  204.2570  149.9630 O   0  0  0  0  0  1  0  0  0  0  0  0
  160.4020  205.9140  146.2900 O   0  0  0  0  0  1  0  0  0  0  0  0
  160.6260  203.9310  148.5090 C   0  0  1  0  0  3  0  0  0  0  0  0
  160.3730  202.6930  149.3400 C   0  0  0  0  0  0  0  0  0  0  0  0
  160.9400  202.5380  150.4560 O   0  0  0  0  0  1  0  0  0  0  0  0
  159.4080  201.7850  148.9210 O   0  0  0  0  0  0  0  0  0  0  0  0
  161.4440  204.3550  144.7230 O   0  0  0  0  0  0  0  0  0  0  0  0
  161.4650  205.4760  143.8870 C   0  0  0  0  0  1  0  0  0  0  0  0
  161.8720  210.3210  149.8730 C   0  0  0  0  0  2  0  0  0  0  0  0
  162.2270  211.7360  149.8190 N   0  0  0  0  0  2  0  0  0  0  0  0
  160.1550  212.4220  148.0610 O   0  0  0  0  0  0  0  0  0  0  0  0
  161.5970  212.7010  146.2450 N   0  0  0  0  0  2  0  0  0  0  0  0
  162.4210  212.0140  148.4630 N   0  0  0  0  0  2  0  0  0  0  0  0
  161.3280  212.3690  147.6070 C   0  0  0  0  0  0  0  0  0  0  0  0
  160.7280  212.3010  145.1470 C   0  0  2  0  0  3  0  0  0  0  0  0
  163.1050  213.7910  142.5950 N   0  0  0  0  0  0  0  0  0  0  0  0
  161.2510  211.9800  140.1740 O   0  0  0  0  0  0  0  0  0  0  0  0
  162.4910  213.5080  143.7800 C   0  0  0  0  0  3  0  0  0  0  0  0
  160.8760  212.0960  142.6280 C   0  0  0  0  0  0  0  0  0  0  0  0
  162.6340  213.2340  141.4500 C   0  0  0  0  0  0  0  0  0  0  0  0
  159.7980  211.2670  142.6140 F   0  0  0  0  0  0  0  0  0  0  0  0
  163.1250  213.4430  140.0700 C   0  0  0  0  0  2  0  0  0  0  0  0
  162.1730  212.5470  139.2410 C   0  0  1  0  0  3  0  0  0  0  0  0
  161.3630  212.6480  143.8290 C   0  0  0  0  0  0  0  0  0  0  0  0
  161.5490  212.4110  141.4490 C   0  0  0  0  0  0  0  0  0  0  0  0
  162.9460  211.4420  138.5300 C   0  0  0  0  0  2  0  0  0  0  0  0
  162.0360  210.6340  137.6680 C   0  0  0  0  0  0  0  0  0  0  0  0
  162.3030  209.4280  137.4280 O   0  0  0  0  0  0  0  0  0  0  0  0
  160.8740  211.2290  137.0980 N   0  0  0  0  0  1  0  0  0  0  0  0
  158.4160  212.1840  146.0680 C   0  0  0  0  0  3  0  0  0  0  0  0
  157.0930  212.6300  146.1310 C   0  0  0  0  0  3  0  0  0  0  0  0
  158.9460  213.9980  144.5430 C   0  0  0  0  0  3  0  0  0  0  0  0
  157.6180  214.4390  144.6080 C   0  0  0  0  0  3  0  0  0  0  0  0
  156.6890  213.7480  145.3930 C   0  0  0  0  0  3  0  0  0  0  0  0
  159.3480  212.8630  145.2730 C   0  0  0  0  0  0  0  0  0  0  0  0
  162.0630  210.0730  152.4150 C   0  0  0  0  0  2  0  0  0  0  0  0
  160.5390  210.0620  152.5430 C   0  0  0  0  0  2  0  0  0  0  0  0
  159.1330  213.1610  155.1230 C   0  0  0  0  0  3  0  0  0  0  0  0
  160.0780  211.1760  153.4280 C   0  0  0  0  0  0  0  0  0  0  0  0
  160.6390  211.3610  154.6590 N   0  0  0  0  0  0  0  0  0  0  0  0
  158.5670  213.0000  153.8590 C   0  0  0  0  0  3  0  0  0  0  0  0
  160.1950  212.3260  155.5050 C   0  0  0  0  0  3  0  0  0  0  0  0
  159.0410  212.0090  153.0030 C   0  0  0  0  0  3  0  0  0  0  0  0
  1 21  1  6  0  0  0
  1 48  1  0  0  0  0
  2  1  1  0  0  0  0
  3  5  1  0  0  0  0
  3  2  1  0  0  0  0
  5  4  2  0  0  0  0
  6  5  2  0  0  0  0
  8 13  1  1  0  0  0
  8  5  1  0  0  0  0
  9  8  1  0  0  0  0
 10 12  1  0  0  0  0
 10  9  1  1  0  0  0
 11 14  1  1  0  0  0
 11 10  1  0  0  0  0
 11 12  1  0  0  0  0
 12  7  1  6  0  0  0
 12 15  1  0  0  0  0
 15  8  1  0  0  0  0
 15 16  1  1  0  0  0
 16 17  1  0  0  0  0
 18 16  2  0  0  0  0
 19 11  1  0  0  0  0
 20 19  1  0  0  0  0
 22 21  1  0  0  0  0
 24 26  1  0  0  0  0
 25 22  1  0  0  0  0
 26 23  2  0  0  0  0
 26 25  1  0  0  0  0
 27 47  1  0  0  0  0
 27 24  1  1  0  0  0
 28 30  1  0  0  0  0
 29 37  1  0  0  0  0
 30 36  2  0  0  0  0
 31 36  1  0  0  0  0
 32 28  2  0  0  0  0
 33 31  1  0  0  0  0
 34 32  1  0  0  0  0
 35 38  1  1  0  0  0
 35 34  1  0  0  0  0
 35 29  1  0  0  0  0
 36 27  1  0  0  0  0
 37 32  1  0  0  0  0
 37 31  2  0  0  0  0
 39 38  1  0  0  0  0
 40 39  2  0  0  0  0
 41 39  1  0  0  0  0
 42 43  1  0  0  0  0
 44 45  2  0  0  0  0
 44 47  1  0  0  0  0
 45 46  1  0  0  0  0
 46 43  2  0  0  0  0
 47 42  2  0  0  0  0
 48 49  1  0  0  0  0
 49 51  1  0  0  0  0
 50 54  1  0  0  0  0
 51 52  1  0  0  0  0
 52 54  2  0  0  0  0
 53 50  2  0  0  0  0
 55 51  2  0  0  0  0
 55 53  1  0  0  0  0
M  END
>  <MODEL>
2

>  <REMARK>
 VINA RESULT:      -4.6      3.243      6.387
  Name = 
  17 active torsions:
  status: ('A' for Active; 'I' for Inactive)
    1  A    between atoms: C_1  and  C_53
    2  A    between atoms: N_4  and  C_35
    3  A    between atoms: N_4  and  N_37
    4  A    between atoms: C_6  and  S_20
    5  A    between atoms: C_8  and  N_22
    6  A    between atoms: C_8  and  C_43
    7  A    between atoms: C_10  and  C_32
    8  A    between atoms: O_11  and  C_29
    9  A    between atoms: N_19  and  C_45
   10  A    between atoms: S_20  and  N_22
   11  A    between atoms: C_26  and  C_45
   12  A    between atoms: C_27  and  C_51
   13  A    between atoms: C_32  and  C_48
   14  A    between atoms: C_35  and  C_43
   15  A    between atoms: C_43  and  C_54
   16  A    between atoms: C_45  and  C_49
   17  A    between atoms: C_51  and  C_54
                            x       y       z     vdW  Elec       q    Type
                         _______ _______ _______ _____ _____    ______ ____

>  <TORSDO>
F 17

$$$$
=
 OpenBabel11062408453D

 55 60  0  0  1  0  0  0  0  0999 V2000
  161.7080  212.0460  148.3280 C   0  0  1  0  0  3  0  0  0  0  0  0
  162.2660  210.8510  149.0930 C   0  0  0  0  0  2  0  0  0  0  0  0
  161.3240  209.7450  149.1160 N   0  0  0  0  0  2  0  0  0  0  0  0
  162.7810  209.3250  151.2820 O   0  0  0  0  0  0  0  0  0  0  0  0
  161.7430  208.6670  150.4120 S   0  0  0  0  0  0  0  0  0  0  0  0
  160.5120  208.4110  151.2370 O   0  0  0  0  0  0  0  0  0  0  0  0
  161.6410  203.9150  148.4970 O   0  0  0  0  0  1  0  0  0  0  0  0
  162.3710  207.0970  149.8050 C   0  0  1  0  0  0  0  0  0  0  0  0
  162.7760  207.2550  148.4600 O   0  0  0  0  0  0  0  0  0  0  0  0
  162.5460  206.0230  147.8070 C   0  0  2  0  0  3  0  0  0  0  0  0
  161.1600  205.9750  147.1810 C   0  0  1  0  0  0  0  0  0  0  0  0
  161.4130  205.2960  148.5200 C   0  0  1  0  0  0  0  0  0  0  0  0
  163.4800  206.7090  150.5700 O   0  0  0  0  0  1  0  0  0  0  0  0
  160.4330  207.1800  147.2070 O   0  0  0  0  0  1  0  0  0  0  0  0
  161.2660  206.0380  149.8340 C   0  0  1  0  0  3  0  0  0  0  0  0
  161.2650  205.1640  151.0700 C   0  0  0  0  0  0  0  0  0  0  0  0
  162.1280  205.3270  151.9760 O   0  0  0  0  0  1  0  0  0  0  0  0
  160.2250  204.2630  151.2570 O   0  0  0  0  0  0  0  0  0  0  0  0
  161.0840  205.1270  146.0510 O   0  0  0  0  0  0  0  0  0  0  0  0
  160.6870  205.8780  144.9390 C   0  0  0  0  0  1  0  0  0  0  0  0
  161.2910  213.1570  149.3110 C   0  0  0  0  0  2  0  0  0  0  0  0
  159.8410  213.3090  149.3910 N   0  0  0  0  0  2  0  0  0  0  0  0
  159.2560  212.3180  151.9460 O   0  0  0  0  0  0  0  0  0  0  0  0
  159.1750  214.4450  152.9080 N   0  0  0  0  0  2  0  0  0  0  0  0
  159.6190  214.1230  150.5060 N   0  0  0  0  0  2  0  0  0  0  0  0
  159.3320  213.5650  151.7940 C   0  0  0  0  0  0  0  0  0  0  0  0
  158.1810  214.2330  153.9500 C   0  0  2  0  0  3  0  0  0  0  0  0
  157.7650  210.6290  155.0590 N   0  0  0  0  0  0  0  0  0  0  0  0
  160.8210  211.0710  156.8030 O   0  0  0  0  0  0  0  0  0  0  0  0
  157.5260  211.8380  154.4740 C   0  0  0  0  0  3  0  0  0  0  0  0
  159.5750  212.7330  155.4390 C   0  0  0  0  0  0  0  0  0  0  0  0
  158.8860  210.4600  155.8060 C   0  0  0  0  0  0  0  0  0  0  0  0
  160.4730  213.7350  155.6390 F   0  0  0  0  0  0  0  0  0  0  0  0
  159.3060  209.2530  156.5530 C   0  0  0  0  0  2  0  0  0  0  0  0
  160.6410  209.7080  157.1900 C   0  0  1  0  0  3  0  0  0  0  0  0
  158.4280  212.9210  154.6440 C   0  0  0  0  0  0  0  0  0  0  0  0
  159.7740  211.4750  156.0040 C   0  0  0  0  0  0  0  0  0  0  0  0
  161.8030  208.8610  156.6820 C   0  0  0  0  0  2  0  0  0  0  0  0
  161.3700  208.0040  155.5410 C   0  0  0  0  0  0  0  0  0  0  0  0
  161.6670  208.3300  154.3620 O   0  0  0  0  0  0  0  0  0  0  0  0
  160.6020  206.8280  155.7780 N   0  0  0  0  0  1  0  0  0  0  0  0
  155.7330  214.4440  154.3620 C   0  0  0  0  0  3  0  0  0  0  0  0
  154.4070  214.4530  153.9200 C   0  0  0  0  0  3  0  0  0  0  0  0
  156.4900  214.2590  152.0630 C   0  0  0  0  0  3  0  0  0  0  0  0
  155.1600  214.2660  151.6250 C   0  0  0  0  0  3  0  0  0  0  0  0
  154.1180  214.3520  152.5550 C   0  0  0  0  0  3  0  0  0  0  0  0
  156.7800  214.3440  153.4380 C   0  0  0  0  0  0  0  0  0  0  0  0
  162.7450  212.5120  147.3030 C   0  0  0  0  0  2  0  0  0  0  0  0
  162.3190  213.7720  146.5480 C   0  0  0  0  0  2  0  0  0  0  0  0
  162.3500  212.9490  142.3580 C   0  0  0  0  0  3  0  0  0  0  0  0
  162.3020  213.5200  145.0750 C   0  0  0  0  0  0  0  0  0  0  0  0
  161.3670  212.6920  144.5230 N   0  0  0  0  0  0  0  0  0  0  0  0
  163.2970  213.8170  142.9020 C   0  0  0  0  0  3  0  0  0  0  0  0
  161.3690  212.3980  143.1970 C   0  0  0  0  0  3  0  0  0  0  0  0
  163.2730  214.1100  144.2630 C   0  0  0  0  0  3  0  0  0  0  0  0
  1 48  1  6  0  0  0
  1  2  1  0  0  0  0
  1 21  1  0  0  0  0
  2  3  1  0  0  0  0
  3  5  1  0  0  0  0
  5  6  2  0  0  0  0
  5  4  2  0  0  0  0
  8 15  1  0  0  0  0
  8  5  1  0  0  0  0
  8 13  1  1  0  0  0
  9  8  1  0  0  0  0
 10  9  1  1  0  0  0
 10 12  1  0  0  0  0
 11 14  1  6  0  0  0
 11 10  1  0  0  0  0
 11 12  1  0  0  0  0
 12  7  1  1  0  0  0
 12 15  1  0  0  0  0
 15 16  1  1  0  0  0
 16 18  2  0  0  0  0
 16 17  1  0  0  0  0
 19 11  1  0  0  0  0
 20 19  1  0  0  0  0
 21 22  1  0  0  0  0
 22 25  1  0  0  0  0
 25 26  1  0  0  0  0
 26 23  2  0  0  0  0
 26 24  1  0  0  0  0
 27 24  1  6  0  0  0
 27 36  1  0  0  0  0
 28 32  1  0  0  0  0
 29 35  1  0  0  0  0
 30 36  1  0  0  0  0
 30 28  2  0  0  0  0
 31 33  1  0  0  0  0
 31 37  1  0  0  0  0
 32 37  2  0  0  0  0
 32 34  1  0  0  0  0
 34 35  1  0  0  0  0
 35 38  1  6  0  0  0
 36 31  2  0  0  0  0
 37 29  1  0  0  0  0
 39 41  1  0  0  0  0
 39 38  1  0  0  0  0
 40 39  2  0  0  0  0
 43 42  1  0  0  0  0
 44 47  1  0  0  0  0
 45 44  2  0  0  0  0
 45 46  1  0  0  0  0
 46 43  2  0  0  0  0
 47 27  1  0  0  0  0
 47 42  2  0  0  0  0
 49 48  1  0  0  0  0
 50 53  2  0  0  0  0
 50 54  1  0  0  0  0
 51 49  1  0  0  0  0
 52 51  1  0  0  0  0
 53 55  1  0  0  0  0
 54 52  2  0  0  0  0
 55 51  2  0  0  0  0
M  END
>  <MODEL>
3

>  <REMARK>
 VINA RESULT:      -4.6      2.446      7.447
  Name = 
  17 active torsions:
  status: ('A' for Active; 'I' for Inactive)
    1  A    between atoms: C_1  and  C_53
    2  A    between atoms: N_4  and  C_35
    3  A    between atoms: N_4  and  N_37
    4  A    between atoms: C_6  and  S_20
    5  A    between atoms: C_8  and  N_22
    6  A    between atoms: C_8  and  C_43
    7  A    between atoms: C_10  and  C_32
    8  A    between atoms: O_11  and  C_29
    9  A    between atoms: N_19  and  C_45
   10  A    between atoms: S_20  and  N_22
   11  A    between atoms: C_26  and  C_45
   12  A    between atoms: C_27  and  C_51
   13  A    between atoms: C_32  and  C_48
   14  A    between atoms: C_35  and  C_43
   15  A    between atoms: C_43  and  C_54
   16  A    between atoms: C_45  and  C_49
   17  A    between atoms: C_51  and  C_54
                            x       y       z     vdW  Elec       q    Type
                         _______ _______ _______ _____ _____    ______ ____

>  <TORSDO>
F 17

$$$$
=
 OpenBabel11062408453D

 55 60  0  0  1  0  0  0  0  0999 V2000
  162.0240  205.7390  151.3930 C   0  0  1  0  0  3  0  0  0  0  0  0
  161.4840  204.9400  150.2130 C   0  0  0  0  0  2  0  0  0  0  0  0
  160.4050  204.0550  150.6170 N   0  0  0  0  0  2  0  0  0  0  0  0
  161.1460  201.5180  150.6970 O   0  0  0  0  0  0  0  0  0  0  0  0
  160.5560  202.5460  149.7680 S   0  0  0  0  0  0  0  0  0  0  0  0
  159.1830  202.0920  149.3530 O   0  0  0  0  0  0  0  0  0  0  0  0
  161.7750  203.4760  144.8790 O   0  0  0  0  0  1  0  0  0  0  0  0
  161.5850  202.6980  148.3030 C   0  0  1  0  0  0  0  0  0  0  0  0
  162.2560  203.9410  148.3420 O   0  0  0  0  0  0  0  0  0  0  0  0
  162.4150  204.3720  147.0060 C   0  0  2  0  0  3  0  0  0  0  0  0
  161.2470  205.2390  146.5590 C   0  0  1  0  0  0  0  0  0  0  0  0
  161.3000  203.7690  146.1630 C   0  0  1  0  0  0  0  0  0  0  0  0
  162.5360  201.6690  148.2900 O   0  0  0  0  0  1  0  0  0  0  0  0
  160.3260  205.5930  147.5630 O   0  0  0  0  0  1  0  0  0  0  0  0
  160.7160  202.6810  147.0420 C   0  0  1  0  0  3  0  0  0  0  0  0
  160.5870  201.3240  146.3870 C   0  0  0  0  0  0  0  0  0  0  0  0
  160.0070  201.1970  145.2740 O   0  0  0  0  0  0  0  0  0  0  0  0
  161.2260  200.2330  146.9640 O   0  0  0  0  0  1  0  0  0  0  0  0
  161.5930  206.1730  145.5550 O   0  0  0  0  0  0  0  0  0  0  0  0
  160.9800  205.8050  144.3520 C   0  0  0  0  0  1  0  0  0  0  0  0
  162.4130  207.1590  150.9380 C   0  0  0  0  0  2  0  0  0  0  0  0
  162.3820  207.3030  149.4850 N   0  0  0  0  0  2  0  0  0  0  0  0
  163.2770  209.6580  148.2600 O   0  0  0  0  0  0  0  0  0  0  0  0
  161.1710  210.6650  148.3310 N   0  0  0  0  0  2  0  0  0  0  0  0
  161.5640  208.4110  149.2450 N   0  0  0  0  0  2  0  0  0  0  0  0
  162.0690  209.5890  148.6050 C   0  0  0  0  0  0  0  0  0  0  0  0
  161.5460  212.0640  148.4750 C   0  0  2  0  0  3  0  0  0  0  0  0
  159.1110  214.4530  150.1350 N   0  0  0  0  0  0  0  0  0  0  0  0
  159.5250  212.4650  153.0430 O   0  0  0  0  0  0  0  0  0  0  0  0
  159.9250  213.8740  149.2050 C   0  0  0  0  0  3  0  0  0  0  0  0
  160.6150  212.1930  150.8260 C   0  0  0  0  0  0  0  0  0  0  0  0
  159.0320  213.9140  151.3790 C   0  0  0  0  0  0  0  0  0  0  0  0
  161.3300  211.0950  151.1890 F   0  0  0  0  0  0  0  0  0  0  0  0
  158.2500  214.4090  152.5350 C   0  0  0  0  0  2  0  0  0  0  0  0
  158.5950  213.3740  153.6330 C   0  0  1  0  0  3  0  0  0  0  0  0
  160.6940  212.7250  149.5250 C   0  0  0  0  0  0  0  0  0  0  0  0
  159.7600  212.8180  151.7320 C   0  0  0  0  0  0  0  0  0  0  0  0
  157.3460  212.6260  154.0860 C   0  0  0  0  0  2  0  0  0  0  0  0
  157.1880  212.7130  155.5660 C   0  0  0  0  0  0  0  0  0  0  0  0
  157.3800  213.8090  156.1550 O   0  0  0  0  0  0  0  0  0  0  0  0
  156.8420  211.5560  156.3210 N   0  0  0  0  0  1  0  0  0  0  0  0
  160.4680  212.5420  146.2800 C   0  0  0  0  0  3  0  0  0  0  0  0
  160.4600  213.1440  145.0190 C   0  0  0  0  0  3  0  0  0  0  0  0
  162.5490  213.6790  146.8010 C   0  0  0  0  0  3  0  0  0  0  0  0
  162.5380  214.2780  145.5340 C   0  0  0  0  0  3  0  0  0  0  0  0
  161.4980  214.0020  144.6390 C   0  0  0  0  0  3  0  0  0  0  0  0
  161.5130  212.8040  147.1750 C   0  0  0  0  0  0  0  0  0  0  0  0
  160.9840  205.7350  152.5160 C   0  0  0  0  0  2  0  0  0  0  0  0
  161.5860  206.0160  153.8930 C   0  0  0  0  0  2  0  0  0  0  0  0
  159.7020  209.4710  155.5520 C   0  0  0  0  0  3  0  0  0  0  0  0
  160.9640  207.2330  154.5000 C   0  0  0  0  0  0  0  0  0  0  0  0
  160.2110  207.1350  155.6350 N   0  0  0  0  0  0  0  0  0  0  0  0
  160.4890  209.5920  154.4070 C   0  0  0  0  0  3  0  0  0  0  0  0
  159.5850  208.2160  156.1680 C   0  0  0  0  0  3  0  0  0  0  0  0
  161.1280  208.4730  153.8790 C   0  0  0  0  0  3  0  0  0  0  0  0
  1  2  1  6  0  0  0
  1 48  1  0  0  0  0
  2  3  1  0  0  0  0
  5  3  1  0  0  0  0
  5  4  2  0  0  0  0
  6  5  2  0  0  0  0
  8 13  1  6  0  0  0
  8  9  1  0  0  0  0
  8  5  1  0  0  0  0
 10  9  1  1  0  0  0
 11 10  1  0  0  0  0
 11 14  1  1  0  0  0
 12  7  1  6  0  0  0
 12 11  1  0  0  0  0
 12 10  1  0  0  0  0
 12 15  1  0  0  0  0
 15 16  1  6  0  0  0
 15  8  1  0  0  0  0
 16 18  1  0  0  0  0
 17 16  2  0  0  0  0
 19 11  1  0  0  0  0
 20 19  1  0  0  0  0
 21  1  1  0  0  0  0
 22 21  1  0  0  0  0
 23 26  2  0  0  0  0
 24 26  1  0  0  0  0
 25 22  1  0  0  0  0
 26 25  1  0  0  0  0
 27 24  1  6  0  0  0
 27 36  1  0  0  0  0
 28 32  1  0  0  0  0
 29 35  1  0  0  0  0
 30 36  1  0  0  0  0
 30 28  2  0  0  0  0
 31 33  1  0  0  0  0
 31 37  1  0  0  0  0
 32 37  2  0  0  0  0
 32 34  1  0  0  0  0
 34 35  1  0  0  0  0
 35 38  1  6  0  0  0
 36 31  2  0  0  0  0
 37 29  1  0  0  0  0
 38 39  1  0  0  0  0
 39 40  2  0  0  0  0
 39 41  1  0  0  0  0
 42 47  1  0  0  0  0
 43 42  2  0  0  0  0
 44 47  2  0  0  0  0
 45 44  1  0  0  0  0
 46 43  1  0  0  0  0
 46 45  2  0  0  0  0
 47 27  1  0  0  0  0
 48 49  1  0  0  0  0
 49 51  1  0  0  0  0
 50 54  1  0  0  0  0
 51 52  1  0  0  0  0
 52 54  2  0  0  0  0
 53 50  2  0  0  0  0
 55 53  1  0  0  0  0
 55 51  2  0  0  0  0
M  END
>  <MODEL>
4

>  <REMARK>
 VINA RESULT:      -4.4      1.841      2.325
  Name = 
  17 active torsions:
  status: ('A' for Active; 'I' for Inactive)
    1  A    between atoms: C_1  and  C_53
    2  A    between atoms: N_4  and  C_35
    3  A    between atoms: N_4  and  N_37
    4  A    between atoms: C_6  and  S_20
    5  A    between atoms: C_8  and  N_22
    6  A    between atoms: C_8  and  C_43
    7  A    between atoms: C_10  and  C_32
    8  A    between atoms: O_11  and  C_29
    9  A    between atoms: N_19  and  C_45
   10  A    between atoms: S_20  and  N_22
   11  A    between atoms: C_26  and  C_45
   12  A    between atoms: C_27  and  C_51
   13  A    between atoms: C_32  and  C_48
   14  A    between atoms: C_35  and  C_43
   15  A    between atoms: C_43  and  C_54
   16  A    between atoms: C_45  and  C_49
   17  A    between atoms: C_51  and  C_54
                            x       y       z     vdW  Elec       q    Type
                         _______ _______ _______ _____ _____    ______ ____

>  <TORSDO>
F 17

$$$$
=
 OpenBabel11062408453D

 55 60  0  0  1  0  0  0  0  0999 V2000
  162.4760  209.9080  151.1130 C   0  0  1  0  0  3  0  0  0  0  0  0
  162.3910  208.3980  150.9300 C   0  0  0  0  0  2  0  0  0  0  0  0
  161.1960  208.0170  150.1960 N   0  0  0  0  0  2  0  0  0  0  0  0
  161.2340  208.4870  147.5940 O   0  0  0  0  0  0  0  0  0  0  0  0
  161.6510  207.4600  148.6140 S   0  0  0  0  0  0  0  0  0  0  0  0
  163.1480  207.3150  148.5710 O   0  0  0  0  0  0  0  0  0  0  0  0
  161.2780  202.3860  148.0110 O   0  0  0  0  0  1  0  0  0  0  0  0
  160.9030  205.8760  148.2170 C   0  0  1  0  0  0  0  0  0  0  0  0
  160.1200  205.4510  149.3150 O   0  0  0  0  0  0  0  0  0  0  0  0
  160.1720  204.0400  149.3440 C   0  0  2  0  0  3  0  0  0  0  0  0
  161.3150  203.5430  150.2160 C   0  0  1  0  0  0  0  0  0  0  0  0
  161.4770  203.5860  148.7030 C   0  0  1  0  0  0  0  0  0  0  0  0
  160.0720  206.0180  147.0960 O   0  0  0  0  0  1  0  0  0  0  0  0
  161.9960  204.5280  150.9560 O   0  0  0  0  0  1  0  0  0  0  0  0
  161.9880  204.8210  147.9870 C   0  0  1  0  0  3  0  0  0  0  0  0
  162.3650  204.6140  146.5360 C   0  0  0  0  0  0  0  0  0  0  0  0
  163.4750  205.0190  146.0940 O   0  0  0  0  0  1  0  0  0  0  0  0
  161.5300  203.8590  145.7230 O   0  0  0  0  0  0  0  0  0  0  0  0
  161.0750  202.2710  150.7870 O   0  0  0  0  0  0  0  0  0  0  0  0
  160.7640  202.4260  152.1420 C   0  0  0  0  0  1  0  0  0  0  0  0
  161.4760  210.6140  150.1770 C   0  0  0  0  0  2  0  0  0  0  0  0
  161.6070  212.0670  150.2220 N   0  0  0  0  0  2  0  0  0  0  0  0
  159.5320  212.6360  148.4270 O   0  0  0  0  0  0  0  0  0  0  0  0
  160.9940  213.1990  146.6940 N   0  0  0  0  0  2  0  0  0  0  0  0
  161.8150  212.4580  148.8960 N   0  0  0  0  0  2  0  0  0  0  0  0
  160.7180  212.7460  148.0200 C   0  0  0  0  0  0  0  0  0  0  0  0
  160.2150  212.7810  145.5370 C   0  0  2  0  0  3  0  0  0  0  0  0
  162.8540  214.0770  143.1410 N   0  0  0  0  0  0  0  0  0  0  0  0
  161.3280  211.9850  140.7170 O   0  0  0  0  0  0  0  0  0  0  0  0
  162.1080  213.8950  144.2690 C   0  0  0  0  0  3  0  0  0  0  0  0
  160.6630  212.3320  143.0860 C   0  0  0  0  0  0  0  0  0  0  0  0
  162.5300  213.3970  142.0110 C   0  0  0  0  0  0  0  0  0  0  0  0
  159.6080  211.4770  143.0310 F   0  0  0  0  0  0  0  0  0  0  0  0
  163.1780  213.4820  140.6830 C   0  0  0  0  0  2  0  0  0  0  0  0
  162.3440  212.4830  139.8450 C   0  0  1  0  0  3  0  0  0  0  0  0
  160.9960  213.0140  144.2730 C   0  0  0  0  0  0  0  0  0  0  0  0
  161.4660  212.5480  141.9680 C   0  0  0  0  0  0  0  0  0  0  0  0
  163.2130  211.3340  139.3440 C   0  0  0  0  0  2  0  0  0  0  0  0
  162.4040  210.3730  138.5420 C   0  0  0  0  0  0  0  0  0  0  0  0
  162.1300  210.6300  137.3410 O   0  0  0  0  0  0  0  0  0  0  0  0
  161.9190  209.1730  139.1370 N   0  0  0  0  0  1  0  0  0  0  0  0
  158.0770  213.4120  146.6500 C   0  0  0  0  0  3  0  0  0  0  0  0
  156.7750  213.9180  146.6150 C   0  0  0  0  0  3  0  0  0  0  0  0
  158.3410  213.9500  144.2970 C   0  0  0  0  0  3  0  0  0  0  0  0
  157.0340  214.4530  144.2660 C   0  0  0  0  0  3  0  0  0  0  0  0
  156.2470  214.4270  145.4230 C   0  0  0  0  0  3  0  0  0  0  0  0
  158.8650  213.4230  145.4920 C   0  0  0  0  0  0  0  0  0  0  0  0
  162.2530  210.2450  152.5890 C   0  0  0  0  0  2  0  0  0  0  0  0
  162.0350  209.0080  153.4620 C   0  0  0  0  0  2  0  0  0  0  0  0
  160.0420  210.1620  157.0580 C   0  0  0  0  0  3  0  0  0  0  0  0
  161.3630  209.3810  154.7440 C   0  0  0  0  0  0  0  0  0  0  0  0
  160.2320  208.7320  155.1500 N   0  0  0  0  0  0  0  0  0  0  0  0
  161.2090  210.8190  156.6700 C   0  0  0  0  0  3  0  0  0  0  0  0
  159.5690  209.0950  156.2780 C   0  0  0  0  0  3  0  0  0  0  0  0
  161.8790  210.4270  155.5130 C   0  0  0  0  0  3  0  0  0  0  0  0
  1 21  1  6  0  0  0
  1 48  1  0  0  0  0
  2  1  1  0  0  0  0
  3  2  1  0  0  0  0
  4  5  2  0  0  0  0
  5  3  1  0  0  0  0
  6  5  2  0  0  0  0
  8 13  1  6  0  0  0
  8  5  1  0  0  0  0
  8  9  1  0  0  0  0
 10  9  1  1  0  0  0
 10 11  1  0  0  0  0
 11 19  1  0  0  0  0
 11 14  1  1  0  0  0
 12  7  1  6  0  0  0
 12 10  1  0  0  0  0
 12 11  1  0  0  0  0
 15 16  1  6  0  0  0
 15  8  1  0  0  0  0
 15 12  1  0  0  0  0
 17 16  1  0  0  0  0
 18 16  2  0  0  0  0
 19 20  1  0  0  0  0
 21 22  1  0  0  0  0
 24 26  1  0  0  0  0
 25 22  1  0  0  0  0
 26 23  2  0  0  0  0
 26 25  1  0  0  0  0
 27 24  1  1  0  0  0
 28 30  1  0  0  0  0
 29 37  1  0  0  0  0
 30 36  2  0  0  0  0
 31 36  1  0  0  0  0
 32 28  2  0  0  0  0
 33 31  1  0  0  0  0
 34 32  1  0  0  0  0
 35 38  1  1  0  0  0
 35 34  1  0  0  0  0
 35 29  1  0  0  0  0
 36 27  1  0  0  0  0
 37 32  1  0  0  0  0
 37 31  2  0  0  0  0
 39 41  1  0  0  0  0
 39 38  1  0  0  0  0
 40 39  2  0  0  0  0
 43 42  1  0  0  0  0
 44 47  1  0  0  0  0
 45 44  2  0  0  0  0
 45 46  1  0  0  0  0
 46 43  2  0  0  0  0
 47 27  1  0  0  0  0
 47 42  2  0  0  0  0
 48 49  1  0  0  0  0
 49 51  1  0  0  0  0
 51 52  2  0  0  0  0
 51 55  1  0  0  0  0
 52 54  1  0  0  0  0
 53 50  1  0  0  0  0
 54 50  2  0  0  0  0
 55 53  2  0  0  0  0
M  END
>  <MODEL>
5

>  <REMARK>
 VINA RESULT:      -3.5      3.193      6.553
  Name = 
  17 active torsions:
  status: ('A' for Active; 'I' for Inactive)
    1  A    between atoms: C_1  and  C_53
    2  A    between atoms: N_4  and  C_35
    3  A    between atoms: N_4  and  N_37
    4  A    between atoms: C_6  and  S_20
    5  A    between atoms: C_8  and  N_22
    6  A    between atoms: C_8  and  C_43
    7  A    between atoms: C_10  and  C_32
    8  A    between atoms: O_11  and  C_29
    9  A    between atoms: N_19  and  C_45
   10  A    between atoms: S_20  and  N_22
   11  A    between atoms: C_26  and  C_45
   12  A    between atoms: C_27  and  C_51
   13  A    between atoms: C_32  and  C_48
   14  A    between atoms: C_35  and  C_43
   15  A    between atoms: C_43  and  C_54
   16  A    between atoms: C_45  and  C_49
   17  A    between atoms: C_51  and  C_54
                            x       y       z     vdW  Elec       q    Type
                         _______ _______ _______ _____ _____    ______ ____

>  <TORSDO>
F 17

$$$$
=
 OpenBabel11062408453D

 55 60  0  0  1  0  0  0  0  0999 V2000
  162.2660  207.8120  151.6030 C   0  0  1  0  0  3  0  0  0  0  0  0
  162.0590  206.3840  151.1130 C   0  0  0  0  0  2  0  0  0  0  0  0
  160.6610  205.9960  151.1740 N   0  0  0  0  0  2  0  0  0  0  0  0
  161.0390  203.5590  152.1280 O   0  0  0  0  0  0  0  0  0  0  0  0
  160.5310  204.2830  150.9100 S   0  0  0  0  0  0  0  0  0  0  0  0
  159.0800  203.9390  150.7120 O   0  0  0  0  0  0  0  0  0  0  0  0
  161.4270  203.0580  146.0160 O   0  0  0  0  0  1  0  0  0  0  0  0
  161.4550  203.7540  149.4630 C   0  0  1  0  0  0  0  0  0  0  0  0
  162.1820  204.8540  148.9560 O   0  0  0  0  0  0  0  0  0  0  0  0
  162.2610  204.6930  147.5550 C   0  0  2  0  0  3  0  0  0  0  0  0
  161.1030  205.3830  146.8490 C   0  0  1  0  0  0  0  0  0  0  0  0
  161.0610  203.8800  147.0880 C   0  0  1  0  0  0  0  0  0  0  0  0
  162.3560  202.7430  149.8270 O   0  0  0  0  0  1  0  0  0  0  0  0
  160.2760  206.1790  147.6630 O   0  0  0  0  0  1  0  0  0  0  0  0
  160.4960  203.2870  148.3640 C   0  0  1  0  0  3  0  0  0  0  0  0
  160.2580  201.7940  148.3300 C   0  0  0  0  0  0  0  0  0  0  0  0
  160.8840  201.0590  147.5190 O   0  0  0  0  0  0  0  0  0  0  0  0
  159.4340  201.2210  149.2910 O   0  0  0  0  0  1  0  0  0  0  0  0
  161.4160  205.8020  145.5340 O   0  0  0  0  0  0  0  0  0  0  0  0
  160.7140  205.0100  144.6200 C   0  0  0  0  0  1  0  0  0  0  0  0
  162.1250  208.8010  150.4290 C   0  0  0  0  0  2  0  0  0  0  0  0
  162.5450  210.1520  150.7910 N   0  0  0  0  0  2  0  0  0  0  0  0
  160.4400  211.4830  149.5060 O   0  0  0  0  0  0  0  0  0  0  0  0
  161.7940  212.2300  147.7560 N   0  0  0  0  0  2  0  0  0  0  0  0
  162.6840  210.8300  149.5770 N   0  0  0  0  0  2  0  0  0  0  0  0
  161.5760  211.5030  148.9650 C   0  0  0  0  0  0  0  0  0  0  0  0
  160.8330  212.2510  146.6610 C   0  0  2  0  0  3  0  0  0  0  0  0
  163.0770  214.3790  144.4660 N   0  0  0  0  0  0  0  0  0  0  0  0
  161.4880  212.7890  141.7230 O   0  0  0  0  0  0  0  0  0  0  0  0
  162.4760  213.8450  145.5680 C   0  0  0  0  0  3  0  0  0  0  0  0
  161.0530  212.4690  144.1490 C   0  0  0  0  0  0  0  0  0  0  0  0
  162.6950  213.9640  143.2310 C   0  0  0  0  0  0  0  0  0  0  0  0
  160.0760  211.5410  143.9640 F   0  0  0  0  0  0  0  0  0  0  0  0
  163.1870  214.4440  141.9190 C   0  0  0  0  0  2  0  0  0  0  0  0
  162.3580  213.5940  140.9260 C   0  0  1  0  0  3  0  0  0  0  0  0
  161.4510  212.8710  145.4380 C   0  0  0  0  0  0  0  0  0  0  0  0
  161.7100  213.0390  143.0600 C   0  0  0  0  0  0  0  0  0  0  0  0
  163.2650  212.7070  140.0800 C   0  0  0  0  0  2  0  0  0  0  0  0
  163.8810  213.4900  138.9710 C   0  0  0  0  0  0  0  0  0  0  0  0
  165.1280  213.4680  138.8030 O   0  0  0  0  0  0  0  0  0  0  0  0
  163.0650  214.2800  138.1110 N   0  0  0  0  0  1  0  0  0  0  0  0
  159.5210  213.7310  148.1760 C   0  0  0  0  0  3  0  0  0  0  0  0
  158.3150  214.2870  148.6120 C   0  0  0  0  0  3  0  0  0  0  0  0
  158.3540  212.6580  146.3370 C   0  0  0  0  0  3  0  0  0  0  0  0
  157.1470  213.2160  146.7800 C   0  0  0  0  0  3  0  0  0  0  0  0
  157.1260  214.0220  147.9240 C   0  0  0  0  0  3  0  0  0  0  0  0
  159.5460  212.9130  147.0400 C   0  0  0  0  0  0  0  0  0  0  0  0
  161.2850  208.0950  152.7430 C   0  0  0  0  0  2  0  0  0  0  0  0
  160.5550  209.4300  152.5910 C   0  0  0  0  0  2  0  0  0  0  0  0
  160.1220  211.2640  156.4240 C   0  0  0  0  0  3  0  0  0  0  0  0
  160.3580  210.0760  153.9250 C   0  0  0  0  0  0  0  0  0  0  0  0
  160.4310  211.4330  154.0580 N   0  0  0  0  0  0  0  0  0  0  0  0
  160.0200  209.8790  156.3020 C   0  0  0  0  0  3  0  0  0  0  0  0
  160.3170  212.0370  155.2690 C   0  0  0  0  0  3  0  0  0  0  0  0
  160.1320  209.2790  155.0500 C   0  0  0  0  0  3  0  0  0  0  0  0
  1 21  1  6  0  0  0
  1 48  1  0  0  0  0
  2  3  1  0  0  0  0
  2  1  1  0  0  0  0
  5  3  1  0  0  0  0
  5  4  2  0  0  0  0
  6  5  2  0  0  0  0
  8 13  1  1  0  0  0
  8  5  1  0  0  0  0
  9  8  1  0  0  0  0
 10  9  1  1  0  0  0
 11 12  1  0  0  0  0
 11 10  1  0  0  0  0
 11 14  1  1  0  0  0
 12  7  1  6  0  0  0
 12 10  1  0  0  0  0
 12 15  1  0  0  0  0
 15 16  1  6  0  0  0
 15  8  1  0  0  0  0
 16 18  1  0  0  0  0
 17 16  2  0  0  0  0
 19 11  1  0  0  0  0
 20 19  1  0  0  0  0
 21 22  1  0  0  0  0
 24 26  1  0  0  0  0
 25 22  1  0  0  0  0
 26 23  2  0  0  0  0
 26 25  1  0  0  0  0
 27 47  1  0  0  0  0
 27 24  1  1  0  0  0
 28 30  1  0  0  0  0
 29 37  1  0  0  0  0
 31 36  1  0  0  0  0
 32 28  2  0  0  0  0
 33 31  1  0  0  0  0
 34 32  1  0  0  0  0
 35 38  1  1  0  0  0
 35 29  1  0  0  0  0
 35 34  1  0  0  0  0
 36 30  2  0  0  0  0
 36 27  1  0  0  0  0
 37 32  1  0  0  0  0
 37 31  2  0  0  0  0
 39 38  1  0  0  0  0
 40 39  2  0  0  0  0
 41 39  1  0  0  0  0
 42 43  1  0  0  0  0
 44 45  2  0  0  0  0
 44 47  1  0  0  0  0
 45 46  1  0  0  0  0
 46 43  2  0  0  0  0
 47 42  2  0  0  0  0
 49 48  1  0  0  0  0
 49 51  1  0  0  0  0
 51 52  2  0  0  0  0
 51 55  1  0  0  0  0
 52 54  1  0  0  0  0
 53 50  1  0  0  0  0
 54 50  2  0  0  0  0
 55 53  2  0  0  0  0
M  END
>  <MODEL>
6

>  <REMARK>
 VINA RESULT:      -3.0      2.876      5.800
  Name = 
  17 active torsions:
  status: ('A' for Active; 'I' for Inactive)
    1  A    between atoms: C_1  and  C_53
    2  A    between atoms: N_4  and  C_35
    3  A    between atoms: N_4  and  N_37
    4  A    between atoms: C_6  and  S_20
    5  A    between atoms: C_8  and  N_22
    6  A    between atoms: C_8  and  C_43
    7  A    between atoms: C_10  and  C_32
    8  A    between atoms: O_11  and  C_29
    9  A    between atoms: N_19  and  C_45
   10  A    between atoms: S_20  and  N_22
   11  A    between atoms: C_26  and  C_45
   12  A    between atoms: C_27  and  C_51
   13  A    between atoms: C_32  and  C_48
   14  A    between atoms: C_35  and  C_43
   15  A    between atoms: C_43  and  C_54
   16  A    between atoms: C_45  and  C_49
   17  A    between atoms: C_51  and  C_54
                            x       y       z     vdW  Elec       q    Type
                         _______ _______ _______ _____ _____    ______ ____

>  <TORSDO>
F 17

$$$$
=
 OpenBabel11062408453D

 55 60  0  0  1  0  0  0  0  0999 V2000
  161.7650  208.2870  138.8430 C   0  0  1  0  0  3  0  0  0  0  0  0
  162.1980  209.6650  138.3540 C   0  0  0  0  0  2  0  0  0  0  0  0
  162.9470  210.3800  139.3720 N   0  0  0  0  0  2  0  0  0  0  0  0
  164.9770  212.0310  138.9880 O   0  0  0  0  0  0  0  0  0  0  0  0
  163.5020  211.8910  138.7170 S   0  0  0  0  0  0  0  0  0  0  0  0
  163.2830  211.8750  137.2280 O   0  0  0  0  0  0  0  0  0  0  0  0
  160.0280  214.4250  141.5020 O   0  0  0  0  0  1  0  0  0  0  0  0
  162.6230  213.2920  139.4170 C   0  0  1  0  0  0  0  0  0  0  0  0
  163.3540  213.7870  140.5200 O   0  0  0  0  0  0  0  0  0  0  0  0
  162.4190  214.2960  141.4480 C   0  0  2  0  0  3  0  0  0  0  0  0
  161.9970  213.2330  142.4530 C   0  0  1  0  0  0  0  0  0  0  0  0
  161.1000  213.5560  141.2670 C   0  0  1  0  0  0  0  0  0  0  0  0
  162.5130  214.3050  138.4540 O   0  0  0  0  0  1  0  0  0  0  0  0
  162.7100  212.0210  142.3980 O   0  0  0  0  0  1  0  0  0  0  0  0
  161.2500  212.8520  139.9330 C   0  0  1  0  0  3  0  0  0  0  0  0
  160.1140  213.0690  138.9580 C   0  0  0  0  0  0  0  0  0  0  0  0
  160.2110  212.6890  137.7590 O   0  0  0  0  0  0  0  0  0  0  0  0
  158.9090  213.5760  139.4290 O   0  0  0  0  0  1  0  0  0  0  0  0
  161.6040  213.7670  143.7030 O   0  0  0  0  0  0  0  0  0  0  0  0
  162.7220  213.8540  144.5390 C   0  0  0  0  0  1  0  0  0  0  0  0
  162.1140  208.1200  140.3350 C   0  0  0  0  0  2  0  0  0  0  0  0
  161.6560  206.8410  140.8690 N   0  0  0  0  0  2  0  0  0  0  0  0
  160.9220  204.8410  142.6890 O   0  0  0  0  0  0  0  0  0  0  0  0
  161.9630  205.9000  144.4920 N   0  0  0  0  0  2  0  0  0  0  0  0
  161.9610  206.8840  142.2330 N   0  0  0  0  0  2  0  0  0  0  0  0
  161.5700  205.8290  143.1210 C   0  0  0  0  0  0  0  0  0  0  0  0
  161.0950  205.4860  145.5850 C   0  0  2  0  0  3  0  0  0  0  0  0
  162.6400  208.0220  147.9460 N   0  0  0  0  0  0  0  0  0  0  0  0
  160.9590  206.2720  150.5320 O   0  0  0  0  0  0  0  0  0  0  0  0
  162.3220  207.3400  146.8070 C   0  0  0  0  0  3  0  0  0  0  0  0
  160.9850  205.7660  148.0990 C   0  0  0  0  0  0  0  0  0  0  0  0
  162.1360  207.6040  149.1350 C   0  0  0  0  0  0  0  0  0  0  0  0
  160.1780  204.6780  148.2040 F   0  0  0  0  0  0  0  0  0  0  0  0
  162.3900  208.1730  150.4780 C   0  0  0  0  0  2  0  0  0  0  0  0
  161.5450  207.2520  151.3910 C   0  0  1  0  0  3  0  0  0  0  0  0
  161.4820  206.1970  146.8530 C   0  0  0  0  0  0  0  0  0  0  0  0
  161.3340  206.5070  149.2270 C   0  0  0  0  0  0  0  0  0  0  0  0
  160.4530  208.0440  152.1030 C   0  0  0  0  0  2  0  0  0  0  0  0
  161.0380  209.2060  152.8320 C   0  0  0  0  0  0  0  0  0  0  0  0
  161.8710  209.0140  153.7560 O   0  0  0  0  0  0  0  0  0  0  0  0
  160.6400  210.5330  152.5010 N   0  0  0  0  0  1  0  0  0  0  0  0
  160.1000  203.2640  145.0560 C   0  0  0  0  0  3  0  0  0  0  0  0
  159.9790  201.8880  145.2700 C   0  0  0  0  0  3  0  0  0  0  0  0
  161.9050  203.3490  146.6780 C   0  0  0  0  0  3  0  0  0  0  0  0
  161.7780  201.9700  146.8900 C   0  0  0  0  0  3  0  0  0  0  0  0
  160.8070  201.2410  146.1940 C   0  0  0  0  0  3  0  0  0  0  0  0
  161.0610  204.0010  145.7600 C   0  0  0  0  0  0  0  0  0  0  0  0
  160.2730  208.1020  138.5540 C   0  0  0  0  0  2  0  0  0  0  0  0
  159.6820  209.2250  137.7010 C   0  0  0  0  0  2  0  0  0  0  0  0
  155.4900  209.7210  138.3520 C   0  0  0  0  0  3  0  0  0  0  0  0
  158.2170  209.3680  137.9640 C   0  0  0  0  0  0  0  0  0  0  0  0
  157.3160  208.5600  137.3310 N   0  0  0  0  0  0  0  0  0  0  0  0
  156.3990  210.5390  139.0240 C   0  0  0  0  0  3  0  0  0  0  0  0
  155.9780  208.7130  137.5060 C   0  0  0  0  0  3  0  0  0  0  0  0
  157.7670  210.3620  138.8370 C   0  0  0  0  0  3  0  0  0  0  0  0
  1  2  1  1  0  0  0
  1 21  1  0  0  0  0
  2  3  1  0  0  0  0
  5  4  2  0  0  0  0
  5  3  1  0  0  0  0
  5  8  1  0  0  0  0
  6  5  2  0  0  0  0
  8 13  1  6  0  0  0
  8 15  1  0  0  0  0
  8  9  1  0  0  0  0
 10  9  1  6  0  0  0
 10 11  1  0  0  0  0
 11 14  1  6  0  0  0
 11 19  1  0  0  0  0
 12 10  1  0  0  0  0
 12  7  1  1  0  0  0
 12 11  1  0  0  0  0
 15 16  1  6  0  0  0
 15 12  1  0  0  0  0
 16 18  1  0  0  0  0
 17 16  2  0  0  0  0
 19 20  1  0  0  0  0
 21 22  1  0  0  0  0
 22 25  1  0  0  0  0
 23 26  2  0  0  0  0
 25 26  1  0  0  0  0
 26 24  1  0  0  0  0
 27 24  1  6  0  0  0
 27 47  1  0  0  0  0
 27 36  1  0  0  0  0
 28 32  1  0  0  0  0
 29 35  1  0  0  0  0
 30 36  1  0  0  0  0
 30 28  2  0  0  0  0
 31 33  1  0  0  0  0
 31 37  1  0  0  0  0
 32 37  2  0  0  0  0
 32 34  1  0  0  0  0
 34 35  1  0  0  0  0
 35 38  1  6  0  0  0
 36 31  2  0  0  0  0
 37 29  1  0  0  0  0
 38 39  1  0  0  0  0
 39 40  2  0  0  0  0
 41 39  1  0  0  0  0
 42 43  2  0  0  0  0
 42 47  1  0  0  0  0
 43 46  1  0  0  0  0
 44 45  1  0  0  0  0
 46 45  2  0  0  0  0
 47 44  2  0  0  0  0
 48  1  1  0  0  0  0
 49 51  1  0  0  0  0
 49 48  1  0  0  0  0
 50 53  1  0  0  0  0
 51 55  1  0  0  0  0
 52 54  1  0  0  0  0
 52 51  2  0  0  0  0
 54 50  2  0  0  0  0
 55 53  2  0  0  0  0
M  END
>  <MODEL>
7

>  <REMARK>
 VINA RESULT:      -2.6      5.915     11.942
  Name = 
  17 active torsions:
  status: ('A' for Active; 'I' for Inactive)
    1  A    between atoms: C_1  and  C_53
    2  A    between atoms: N_4  and  C_35
    3  A    between atoms: N_4  and  N_37
    4  A    between atoms: C_6  and  S_20
    5  A    between atoms: C_8  and  N_22
    6  A    between atoms: C_8  and  C_43
    7  A    between atoms: C_10  and  C_32
    8  A    between atoms: O_11  and  C_29
    9  A    between atoms: N_19  and  C_45
   10  A    between atoms: S_20  and  N_22
   11  A    between atoms: C_26  and  C_45
   12  A    between atoms: C_27  and  C_51
   13  A    between atoms: C_32  and  C_48
   14  A    between atoms: C_35  and  C_43
   15  A    between atoms: C_43  and  C_54
   16  A    between atoms: C_45  and  C_49
   17  A    between atoms: C_51  and  C_54
                            x       y       z     vdW  Elec       q    Type
                         _______ _______ _______ _____ _____    ______ ____

>  <TORSDO>
F 17

$$$$
=
 OpenBabel11062408453D

 55 60  0  0  1  0  0  0  0  0999 V2000
  160.1390  210.2060  153.1240 C   0  0  1  0  0  3  0  0  0  0  0  0
  159.8950  211.6160  152.5990 C   0  0  0  0  0  2  0  0  0  0  0  0
  160.4220  211.7830  151.2550 N   0  0  0  0  0  2  0  0  0  0  0  0
  158.2810  213.0910  150.4200 O   0  0  0  0  0  0  0  0  0  0  0  0
  159.7730  213.2400  150.5650 S   0  0  0  0  0  0  0  0  0  0  0  0
  160.0570  214.3810  151.5030 O   0  0  0  0  0  0  0  0  0  0  0  0
  161.1000  212.5580  145.6630 O   0  0  0  0  0  1  0  0  0  0  0  0
  160.5020  213.6090  148.9650 C   0  0  1  0  0  0  0  0  0  0  0  0
  159.6250  214.4530  148.2460 O   0  0  0  0  0  0  0  0  0  0  0  0
  159.7750  214.1420  146.8760 C   0  0  2  0  0  3  0  0  0  0  0  0
  158.7890  213.0690  146.4380 C   0  0  1  0  0  0  0  0  0  0  0  0
  160.2310  212.6940  146.7520 C   0  0  1  0  0  0  0  0  0  0  0  0
  161.7220  214.2750  149.1490 O   0  0  0  0  0  1  0  0  0  0  0  0
  157.8170  212.7040  147.3890 O   0  0  0  0  0  1  0  0  0  0  0  0
  160.6760  212.3240  148.1530 C   0  0  1  0  0  3  0  0  0  0  0  0
  162.0520  211.7020  148.2480 C   0  0  0  0  0  0  0  0  0  0  0  0
  162.1960  210.5100  148.6350 O   0  0  0  0  0  1  0  0  0  0  0  0
  163.1480  212.4170  147.7820 O   0  0  0  0  0  0  0  0  0  0  0  0
  158.4430  213.1490  145.0690 O   0  0  0  0  0  0  0  0  0  0  0  0
  157.3670  214.0290  144.9160 C   0  0  0  0  0  1  0  0  0  0  0  0
  161.0930  209.4470  152.1810 C   0  0  0  0  0  2  0  0  0  0  0  0
  160.5040  208.2080  151.6780 N   0  0  0  0  0  2  0  0  0  0  0  0
  160.2200  206.9310  149.2000 O   0  0  0  0  0  0  0  0  0  0  0  0
  162.4690  206.3070  149.1050 N   0  0  0  0  0  2  0  0  0  0  0  0
  161.5460  207.5460  151.0240 N   0  0  0  0  0  2  0  0  0  0  0  0
  161.3510  206.9160  149.7520 C   0  0  0  0  0  0  0  0  0  0  0  0
  162.3700  205.0560  148.3660 C   0  0  2  0  0  3  0  0  0  0  0  0
  160.0730  206.0540  145.5180 N   0  0  0  0  0  0  0  0  0  0  0  0
  162.8220  205.3670  143.3860 O   0  0  0  0  0  0  0  0  0  0  0  0
  160.5320  205.7720  146.7720 C   0  0  0  0  0  3  0  0  0  0  0  0
  162.6980  205.1390  145.8570 C   0  0  0  0  0  0  0  0  0  0  0  0
  160.9020  205.9010  144.4540 C   0  0  0  0  0  0  0  0  0  0  0  0
  163.9780  204.7000  145.9920 F   0  0  0  0  0  0  0  0  0  0  0  0
  160.5900  206.1100  143.0220 C   0  0  0  0  0  2  0  0  0  0  0  0
  161.9340  205.7630  142.3380 C   0  0  1  0  0  3  0  0  0  0  0  0
  161.8590  205.3120  146.9750 C   0  0  0  0  0  0  0  0  0  0  0  0
  162.1800  205.4530  144.6020 C   0  0  0  0  0  0  0  0  0  0  0  0
  162.5000  206.9730  141.6030 C   0  0  0  0  0  2  0  0  0  0  0  0
  162.2010  206.8890  140.1440 C   0  0  0  0  0  0  0  0  0  0  0  0
  162.2970  205.7860  139.5460 O   0  0  0  0  0  0  0  0  0  0  0  0
  161.8290  208.0580  139.4200 N   0  0  0  0  0  1  0  0  0  0  0  0
  161.5310  204.0500  150.4850 C   0  0  0  0  0  3  0  0  0  0  0  0
  160.8580  203.0470  151.1900 C   0  0  0  0  0  3  0  0  0  0  0  0
  160.8960  202.9960  148.3920 C   0  0  0  0  0  3  0  0  0  0  0  0
  160.2250  201.9920  149.1030 C   0  0  0  0  0  3  0  0  0  0  0  0
  160.2160  202.0120  150.5020 C   0  0  0  0  0  3  0  0  0  0  0  0
  161.5550  204.0280  149.0850 C   0  0  0  0  0  0  0  0  0  0  0  0
  160.6610  210.2910  154.5600 C   0  0  0  0  0  2  0  0  0  0  0  0
  160.5590  211.6970  155.1540 C   0  0  0  0  0  2  0  0  0  0  0  0
  156.6650  212.3200  156.7950 C   0  0  0  0  0  3  0  0  0  0  0  0
  159.1850  211.9400  155.6910 C   0  0  0  0  0  0  0  0  0  0  0  0
  158.9350  213.0150  156.4960 N   0  0  0  0  0  0  0  0  0  0  0  0
  156.8980  211.2310  155.9540 C   0  0  0  0  0  3  0  0  0  0  0  0
  157.7100  213.2220  157.0470 C   0  0  0  0  0  3  0  0  0  0  0  0
  158.1590  211.0400  155.3940 C   0  0  0  0  0  3  0  0  0  0  0  0
  1 21  1  6  0  0  0
  1 48  1  0  0  0  0
  2  1  1  0  0  0  0
  3  2  1  0  0  0  0
  4  5  2  0  0  0  0
  5  3  1  0  0  0  0
  5  6  2  0  0  0  0
  8 13  1  1  0  0  0
  8  5  1  0  0  0  0
  9  8  1  0  0  0  0
 10  9  1  1  0  0  0
 11 12  1  0  0  0  0
 11 10  1  0  0  0  0
 11 14  1  1  0  0  0
 12  7  1  6  0  0  0
 12 10  1  0  0  0  0
 12 15  1  0  0  0  0
 15 16  1  6  0  0  0
 15  8  1  0  0  0  0
 16 17  1  0  0  0  0
 18 16  2  0  0  0  0
 19 11  1  0  0  0  0
 20 19  1  0  0  0  0
 22 21  1  0  0  0  0
 23 26  2  0  0  0  0
 24 26  1  0  0  0  0
 25 22  1  0  0  0  0
 26 25  1  0  0  0  0
 27 47  1  0  0  0  0
 27 24  1  1  0  0  0
 28 30  1  0  0  0  0
 29 37  1  0  0  0  0
 30 36  2  0  0  0  0
 31 33  1  0  0  0  0
 31 36  1  0  0  0  0
 32 37  1  0  0  0  0
 32 28  2  0  0  0  0
 34 32  1  0  0  0  0
 35 38  1  1  0  0  0
 35 34  1  0  0  0  0
 35 29  1  0  0  0  0
 36 27  1  0  0  0  0
 37 31  2  0  0  0  0
 39 38  1  0  0  0  0
 40 39  2  0  0  0  0
 41 39  1  0  0  0  0
 42 43  1  0  0  0  0
 44 47  1  0  0  0  0
 44 45  2  0  0  0  0
 45 46  1  0  0  0  0
 46 43  2  0  0  0  0
 47 42  2  0  0  0  0
 48 49  1  0  0  0  0
 49 51  1  0  0  0  0
 50 54  1  0  0  0  0
 51 52  1  0  0  0  0
 52 54  2  0  0  0  0
 53 50  2  0  0  0  0
 55 51  2  0  0  0  0
 55 53  1  0  0  0  0
M  END
>  <MODEL>
8

>  <REMARK>
 VINA RESULT:      -2.4      3.431      9.586
  Name = 
  17 active torsions:
  status: ('A' for Active; 'I' for Inactive)
    1  A    between atoms: C_1  and  C_53
    2  A    between atoms: N_4  and  C_35
    3  A    between atoms: N_4  and  N_37
    4  A    between atoms: C_6  and  S_20
    5  A    between atoms: C_8  and  N_22
    6  A    between atoms: C_8  and  C_43
    7  A    between atoms: C_10  and  C_32
    8  A    between atoms: O_11  and  C_29
    9  A    between atoms: N_19  and  C_45
   10  A    between atoms: S_20  and  N_22
   11  A    between atoms: C_26  and  C_45
   12  A    between atoms: C_27  and  C_51
   13  A    between atoms: C_32  and  C_48
   14  A    between atoms: C_35  and  C_43
   15  A    between atoms: C_43  and  C_54
   16  A    between atoms: C_45  and  C_49
   17  A    between atoms: C_51  and  C_54
                            x       y       z     vdW  Elec       q    Type
                         _______ _______ _______ _____ _____    ______ ____

>  <TORSDO>
F 17

$$$$
=
 OpenBabel11062408453D

 55 60  0  0  1  0  0  0  0  0999 V2000
  160.9490  209.9160  151.6770 C   0  0  1  0  0  3  0  0  0  0  0  0
  159.8050  210.8810  151.9660 C   0  0  0  0  0  2  0  0  0  0  0  0
  159.2820  210.7010  153.3090 N   0  0  0  0  0  2  0  0  0  0  0  0
  160.5470  211.4290  155.5140 O   0  0  0  0  0  0  0  0  0  0  0  0
  159.8370  212.0030  154.3170 S   0  0  0  0  0  0  0  0  0  0  0  0
  160.8130  212.8340  153.5290 O   0  0  0  0  0  0  0  0  0  0  0  0
  155.0180  213.6240  154.9510 O   0  0  0  0  0  1  0  0  0  0  0  0
  158.4880  213.0560  154.8610 C   0  0  1  0  0  0  0  0  0  0  0  0
  158.1980  212.7650  156.2140 O   0  0  0  0  0  0  0  0  0  0  0  0
  156.8120  212.9700  156.3980 C   0  0  2  0  0  3  0  0  0  0  0  0
  156.0240  211.6900  156.1570 C   0  0  1  0  0  0  0  0  0  0  0  0
  156.1050  212.7500  155.0660 C   0  0  1  0  0  0  0  0  0  0  0  0
  158.8710  214.4000  154.7580 O   0  0  0  0  0  1  0  0  0  0  0  0
  156.7900  210.5250  155.9680 O   0  0  0  0  0  1  0  0  0  0  0  0
  157.2260  212.7640  154.0450 C   0  0  1  0  0  3  0  0  0  0  0  0
  157.0120  213.6880  152.8670 C   0  0  0  0  0  0  0  0  0  0  0  0
  157.9690  213.9940  152.1040 O   0  0  0  0  0  0  0  0  0  0  0  0
  155.7210  214.0970  152.5570 O   0  0  0  0  0  1  0  0  0  0  0  0
  154.8130  211.6300  156.8860 O   0  0  0  0  0  0  0  0  0  0  0  0
  154.3200  210.3220  156.8520 C   0  0  0  0  0  1  0  0  0  0  0  0
  161.9610  210.5660  150.7140 C   0  0  0  0  0  2  0  0  0  0  0  0
  161.9270  209.9620  149.3850 N   0  0  0  0  0  2  0  0  0  0  0  0
  163.4530  207.7020  148.7410 O   0  0  0  0  0  0  0  0  0  0  0  0
  161.8440  206.2110  149.5420 N   0  0  0  0  0  2  0  0  0  0  0  0
  161.4930  208.6490  149.5910 N   0  0  0  0  0  2  0  0  0  0  0  0
  162.3170  207.5270  149.2520 C   0  0  0  0  0  0  0  0  0  0  0  0
  162.0560  205.0800  148.6500 C   0  0  2  0  0  3  0  0  0  0  0  0
  160.0270  206.5340  145.7940 N   0  0  0  0  0  0  0  0  0  0  0  0
  162.5320  205.2040  143.6630 O   0  0  0  0  0  0  0  0  0  0  0  0
  160.4190  206.1730  147.0500 C   0  0  0  0  0  3  0  0  0  0  0  0
  162.3770  205.0480  146.1390 C   0  0  0  0  0  0  0  0  0  0  0  0
  160.7930  206.1790  144.7300 C   0  0  0  0  0  0  0  0  0  0  0  0
  163.5240  204.3310  146.2760 F   0  0  0  0  0  0  0  0  0  0  0  0
  160.5270  206.4320  143.2960 C   0  0  0  0  0  2  0  0  0  0  0  0
  161.7510  205.7770  142.6130 C   0  0  1  0  0  3  0  0  0  0  0  0
  161.6070  205.4250  147.2570 C   0  0  0  0  0  0  0  0  0  0  0  0
  161.9350  205.4530  144.8810 C   0  0  0  0  0  0  0  0  0  0  0  0
  162.5730  206.8150  141.8560 C   0  0  0  0  0  2  0  0  0  0  0  0
  162.1280  206.9030  140.4350 C   0  0  0  0  0  0  0  0  0  0  0  0
  162.5200  206.0470  139.6000 O   0  0  0  0  0  0  0  0  0  0  0  0
  161.2790  207.9660  140.0140 N   0  0  0  0  0  1  0  0  0  0  0  0
  160.8730  203.8190  150.4430 C   0  0  0  0  0  3  0  0  0  0  0  0
  160.3550  202.6370  150.9800 C   0  0  0  0  0  3  0  0  0  0  0  0
  161.4340  202.6370  148.3980 C   0  0  0  0  0  3  0  0  0  0  0  0
  160.9160  201.4540  148.9410 C   0  0  0  0  0  3  0  0  0  0  0  0
  160.3860  201.4520  150.2360 C   0  0  0  0  0  3  0  0  0  0  0  0
  161.4170  203.8250  149.1530 C   0  0  0  0  0  0  0  0  0  0  0  0
  161.5800  209.4790  153.0010 C   0  0  0  0  0  2  0  0  0  0  0  0
  161.4580  207.9770  153.2590 C   0  0  0  0  0  2  0  0  0  0  0  0
  160.0990  207.3620  157.2610 C   0  0  0  0  0  3  0  0  0  0  0  0
  161.0020  207.7190  154.6590 C   0  0  0  0  0  0  0  0  0  0  0  0
  159.7880  207.1410  154.8990 N   0  0  0  0  0  0  0  0  0  0  0  0
  161.3520  207.9310  157.0330 C   0  0  0  0  0  3  0  0  0  0  0  0
  159.3260  206.9550  156.1630 C   0  0  0  0  0  3  0  0  0  0  0  0
  161.8110  208.1070  155.7300 C   0  0  0  0  0  3  0  0  0  0  0  0
  1 21  1  6  0  0  0
  1  2  1  0  0  0  0
  1 48  1  0  0  0  0
  2  3  1  0  0  0  0
  3  5  1  0  0  0  0
  5  8  1  0  0  0  0
  5  4  2  0  0  0  0
  6  5  2  0  0  0  0
  8 13  1  6  0  0  0
  8  9  1  0  0  0  0
 10  9  1  6  0  0  0
 11 14  1  6  0  0  0
 11 10  1  0  0  0  0
 11 19  1  0  0  0  0
 12  7  1  6  0  0  0
 12 11  1  0  0  0  0
 12 10  1  0  0  0  0
 15 16  1  6  0  0  0
 15  8  1  0  0  0  0
 15 12  1  0  0  0  0
 17 16  2  0  0  0  0
 18 16  1  0  0  0  0
 20 19  1  0  0  0  0
 22 25  1  0  0  0  0
 22 21  1  0  0  0  0
 23 26  2  0  0  0  0
 26 24  1  0  0  0  0
 26 25  1  0  0  0  0
 27 47  1  0  0  0  0
 27 24  1  1  0  0  0
 28 30  1  0  0  0  0
 29 37  1  0  0  0  0
 30 36  2  0  0  0  0
 31 33  1  0  0  0  0
 31 36  1  0  0  0  0
 32 37  1  0  0  0  0
 32 28  2  0  0  0  0
 34 32  1  0  0  0  0
 35 38  1  1  0  0  0
 35 34  1  0  0  0  0
 35 29  1  0  0  0  0
 36 27  1  0  0  0  0
 37 31  2  0  0  0  0
 39 38  1  0  0  0  0
 40 39  2  0  0  0  0
 41 39  1  0  0  0  0
 42 43  1  0  0  0  0
 44 45  2  0  0  0  0
 44 47  1  0  0  0  0
 45 46  1  0  0  0  0
 46 43  2  0  0  0  0
 47 42  2  0  0  0  0
 48 49  1  0  0  0  0
 49 51  1  0  0  0  0
 51 52  2  0  0  0  0
 51 55  1  0  0  0  0
 52 54  1  0  0  0  0
 53 50  1  0  0  0  0
 54 50  2  0  0  0  0
 55 53  2  0  0  0  0
M  END
>  <MODEL>
9

>  <REMARK>
 VINA RESULT:      -2.2      4.166     10.480
  Name = 
  17 active torsions:
  status: ('A' for Active; 'I' for Inactive)
    1  A    between atoms: C_1  and  C_53
    2  A    between atoms: N_4  and  C_35
    3  A    between atoms: N_4  and  N_37
    4  A    between atoms: C_6  and  S_20
    5  A    between atoms: C_8  and  N_22
    6  A    between atoms: C_8  and  C_43
    7  A    between atoms: C_10  and  C_32
    8  A    between atoms: O_11  and  C_29
    9  A    between atoms: N_19  and  C_45
   10  A    between atoms: S_20  and  N_22
   11  A    between atoms: C_26  and  C_45
   12  A    between atoms: C_27  and  C_51
   13  A    between atoms: C_32  and  C_48
   14  A    between atoms: C_35  and  C_43
   15  A    between atoms: C_43  and  C_54
   16  A    between atoms: C_45  and  C_49
   17  A    between atoms: C_51  and  C_54
                            x       y       z     vdW  Elec       q    Type
                         _______ _______ _______ _____ _____    ______ ____

>  <TORSDO>
F 17

$$$$
