=
 OpenBabel11062408233D

 32 36  0  0  1  0  0  0  0  0999 V2000
  160.8110  207.1580  151.2240 C   0  0  1  0  0  3  0  0  0  0  0  0
  161.6980  209.4780  151.5450 C   0  0  1  0  0  3  0  0  0  0  0  0
  160.8150  205.7100  151.7520 C   0  0  0  0  0  2  0  0  0  0  0  0
  161.5790  208.0880  152.1510 C   0  0  1  0  0  3  0  0  0  0  0  0
  162.5420  210.3590  152.4690 C   0  0  0  0  0  2  0  0  0  0  0  0
  162.3250  209.3950  150.1400 C   0  0  1  0  0  3  0  0  0  0  0  0
  160.9000  208.1360  153.5150 C   0  0  2  0  0  3  0  0  0  0  0  0
  161.7410  208.9870  154.4650 C   0  0  0  0  0  2  0  0  0  0  0  0
  160.6400  206.7320  154.0900 C   0  0  0  0  0  2  0  0  0  0  0  0
  162.4910  208.0660  149.6620 O   0  0  0  0  0  0  0  0  0  0  0  0
  161.2630  207.3660  149.7590 C   0  0  1  0  0  3  0  0  0  0  0  0
  161.9720  210.3970  153.8970 C   0  0  2  0  0  3  0  0  0  0  0  0
  161.2290  205.6020  153.2310 C   0  0  0  0  0  2  0  0  0  0  0  0
  162.5330  204.6960  147.2160 C   0  0  2  0  0  3  0  0  0  0  0  0
  161.9850  201.9220  148.4310 F   0  0  0  0  0  0  0  0  0  0  0  0
  163.1770  204.8550  146.0010 F   0  0  0  0  0  0  0  0  0  0  0  0
  161.0410  203.7810  149.5760 C   0  0  0  0  0  2  0  0  0  0  0  0
  161.2890  206.1400  148.9590 N   0  0  0  0  0  0  0  0  0  0  0  0
  161.3560  203.7500  147.0310 C   0  0  0  0  0  2  0  0  0  0  0  0
  160.3350  205.1070  149.3520 C   0  0  0  0  0  2  0  0  0  0  0  0
  162.0950  206.0320  147.7610 C   0  0  0  0  0  0  0  0  0  0  0  0
  162.5260  207.0790  147.2050 O   0  0  0  0  0  0  0  0  0  0  0  0
  161.0640  202.9430  148.2980 C   0  0  1  0  0  3  0  0  0  0  0  0
  160.7430  211.2000  153.9530 C   0  0  0  0  0  0  0  0  0  0  0  0
  159.7350  211.8610  153.9980 C   0  0  0  0  0  3  0  0  0  0  0  0
  161.5610  210.2770  149.1530 C   0  0  0  0  0  2  0  0  0  0  0  0
  162.7180  212.0610  147.8420 C   0  0  0  0  0  2  0  0  0  0  0  0
  160.6400  213.7700  147.9930 S   0  0  0  0  0  0  0  0  0  0  0  0
  160.9470  212.6590  149.3490 C   0  0  0  0  0  0  0  0  0  0  0  0
  160.3440  212.7580  150.4060 O   0  0  0  0  0  0  0  0  0  0  0  0
  162.3710  213.5060  147.5140 C   0  0  0  0  0  2  0  0  0  0  0  0
  162.0770  211.7090  149.1780 C   0  0  1  0  0  3  0  0  0  0  0  0
  1  3  1  1  0  0  0
  1  4  1  0  0  0  0
  2  4  1  0  0  0  0
  2  5  1  1  0  0  0
  3 13  1  0  0  0  0
  4  7  1  0  0  0  0
  5 12  1  0  0  0  0
  6  2  1  0  0  0  0
  7  9  1  0  0  0  0
  7  8  1  0  0  0  0
 10 11  1  0  0  0  0
 10  6  1  0  0  0  0
 11  1  1  0  0  0  0
 12 24  1  0  0  0  0
 12  8  1  0  0  0  0
 13  9  1  0  0  0  0
 14 21  1  0  0  0  0
 16 14  1  0  0  0  0
 18 20  1  0  0  0  0
 18 11  1  0  0  0  0
 19 14  1  0  0  0  0
 19 23  1  0  0  0  0
 20 17  1  0  0  0  0
 21 18  1  0  0  0  0
 22 21  2  0  0  0  0
 23 15  1  0  0  0  0
 23 17  1  0  0  0  0
 24 25  3  0  0  0  0
 26 32  1  0  0  0  0
 26  6  1  0  0  0  0
 27 32  1  0  0  0  0
 28 29  1  0  0  0  0
 29 30  2  0  0  0  0
 31 27  1  0  0  0  0
 31 28  1  0  0  0  0
 32 29  1  0  0  0  0
M  END
>  <MODEL>
1

>  <REMARK>
 VINA RESULT:      -8.4      0.000      0.000
  Name = 
  4 active torsions:
  status: ('A' for Active; 'I' for Inactive)
    1  A    between atoms: C_10  and  C_28
    2  A    between atoms: C_13  and  C_29
    3  A    between atoms: N_16  and  C_27
    4  A    between atoms: C_28  and  C_32
                            x       y       z     vdW  Elec       q    Type
                         _______ _______ _______ _____ _____    ______ ____

>  <TORSDO>
F 4

$$$$
=
 OpenBabel11062408233D

 32 36  0  0  1  0  0  0  0  0999 V2000
  160.8460  206.8720  149.3370 C   0  0  1  0  0  3  0  0  0  0  0  0
  161.6390  208.9990  150.3960 C   0  0  1  0  0  3  0  0  0  0  0  0
  160.8770  205.3320  149.3980 C   0  0  0  0  0  2  0  0  0  0  0  0
  161.5430  207.4880  150.5410 C   0  0  1  0  0  3  0  0  0  0  0  0
  162.4150  209.5710  151.5850 C   0  0  0  0  0  2  0  0  0  0  0  0
  162.3250  209.3640  149.0650 C   0  0  1  0  0  3  0  0  0  0  0  0
  160.8080  207.1020  151.8200 C   0  0  2  0  0  3  0  0  0  0  0  0
  161.5800  207.6370  153.0240 C   0  0  0  0  0  2  0  0  0  0  0  0
  160.5740  205.5840  151.9240 C   0  0  0  0  0  2  0  0  0  0  0  0
  162.5550  208.2490  148.2120 O   0  0  0  0  0  0  0  0  0  0  0  0
  161.3490  207.5290  148.0300 C   0  0  1  0  0  3  0  0  0  0  0  0
  161.7860  209.1570  152.9260 C   0  0  2  0  0  3  0  0  0  0  0  0
  161.2340  204.7840  150.7910 C   0  0  0  0  0  2  0  0  0  0  0  0
  162.4270  204.4140  145.9460 C   0  0  2  0  0  3  0  0  0  0  0  0
  159.9570  203.4370  144.3920 F   0  0  0  0  0  0  0  0  0  0  0  0
  163.6420  203.7550  145.8890 F   0  0  0  0  0  0  0  0  0  0  0  0
  159.7390  205.5200  145.5190 C   0  0  0  0  0  2  0  0  0  0  0  0
  161.4490  206.6070  146.8970 N   0  0  0  0  0  0  0  0  0  0  0  0
  161.9660  204.7210  144.5290 C   0  0  0  0  0  2  0  0  0  0  0  0
  160.4770  206.8110  145.8270 C   0  0  0  0  0  2  0  0  0  0  0  0
  162.5430  205.6670  146.7780 C   0  0  0  0  0  0  0  0  0  0  0  0
  163.5910  205.8420  147.4590 O   0  0  0  0  0  0  0  0  0  0  0  0
  160.4400  204.7320  144.4130 C   0  0  1  0  0  3  0  0  0  0  0  0
  160.5290  209.8800  153.1650 C   0  0  0  0  0  0  0  0  0  0  0  0
  159.4990  210.4750  153.3620 C   0  0  0  0  0  3  0  0  0  0  0  0
  161.5720  210.4900  148.3590 C   0  0  0  0  0  2  0  0  0  0  0  0
  162.8280  212.4600  147.4740 C   0  0  0  0  0  2  0  0  0  0  0  0
  160.8440  214.1990  148.0240 S   0  0  0  0  0  0  0  0  0  0  0  0
  161.0860  212.7960  149.0920 C   0  0  0  0  0  0  0  0  0  0  0  0
  160.4850  212.6860  150.1480 O   0  0  0  0  0  0  0  0  0  0  0  0
  162.5600  213.9580  147.4830 C   0  0  0  0  0  2  0  0  0  0  0  0
  162.1640  211.8500  148.7010 C   0  0  1  0  0  3  0  0  0  0  0  0
  1  3  1  6  0  0  0
  1  4  1  0  0  0  0
  2  4  1  0  0  0  0
  2  5  1  1  0  0  0
  3 13  1  0  0  0  0
  4  7  1  0  0  0  0
  5 12  1  0  0  0  0
  6  2  1  0  0  0  0
  7  9  1  0  0  0  0
  7  8  1  0  0  0  0
 10  6  1  0  0  0  0
 11 10  1  0  0  0  0
 11  1  1  0  0  0  0
 12  8  1  0  0  0  0
 12 24  1  0  0  0  0
 13  9  1  0  0  0  0
 14 21  1  0  0  0  0
 15 23  1  0  0  0  0
 16 14  1  0  0  0  0
 17 20  1  0  0  0  0
 18 11  1  0  0  0  0
 19 14  1  0  0  0  0
 20 18  1  0  0  0  0
 21 18  1  0  0  0  0
 21 22  2  0  0  0  0
 23 19  1  0  0  0  0
 23 17  1  0  0  0  0
 24 25  3  0  0  0  0
 26 32  1  0  0  0  0
 26  6  1  0  0  0  0
 27 31  1  0  0  0  0
 27 32  1  0  0  0  0
 28 29  1  0  0  0  0
 29 30  2  0  0  0  0
 31 28  1  0  0  0  0
 32 29  1  0  0  0  0
M  END
>  <MODEL>
2

>  <REMARK>
 VINA RESULT:      -8.1      1.567      2.154
  Name = 
  4 active torsions:
  status: ('A' for Active; 'I' for Inactive)
    1  A    between atoms: C_10  and  C_28
    2  A    between atoms: C_13  and  C_29
    3  A    between atoms: N_16  and  C_27
    4  A    between atoms: C_28  and  C_32
                            x       y       z     vdW  Elec       q    Type
                         _______ _______ _______ _____ _____    ______ ____

>  <TORSDO>
F 4

$$$$
=
 OpenBabel11062408233D

 32 36  0  0  1  0  0  0  0  0999 V2000
  160.9430  206.8520  149.6890 C   0  0  1  0  0  3  0  0  0  0  0  0
  161.6040  209.1850  150.3150 C   0  0  1  0  0  3  0  0  0  0  0  0
  161.0570  205.3580  150.0490 C   0  0  0  0  0  2  0  0  0  0  0  0
  161.5890  207.7280  150.7520 C   0  0  1  0  0  3  0  0  0  0  0  0
  162.3310  210.0200  151.3730 C   0  0  0  0  0  2  0  0  0  0  0  0
  162.2870  209.3220  148.9410 C   0  0  1  0  0  3  0  0  0  0  0  0
  160.8580  207.5570  152.0790 C   0  0  2  0  0  3  0  0  0  0  0  0
  161.5830  208.3590  153.1590 C   0  0  0  0  0  2  0  0  0  0  0  0
  160.7050  206.0780  152.4770 C   0  0  0  0  0  2  0  0  0  0  0  0
  162.5900  208.0780  148.3230 O   0  0  0  0  0  0  0  0  0  0  0  0
  161.4280  207.2700  148.2810 C   0  0  1  0  0  3  0  0  0  0  0  0
  161.7070  209.8400  152.7670 C   0  0  2  0  0  3  0  0  0  0  0  0
  161.4240  205.1120  151.5230 C   0  0  0  0  0  2  0  0  0  0  0  0
  161.1320  205.1840  144.9990 C   0  0  2  0  0  3  0  0  0  0  0  0
  163.8530  203.8310  144.5110 F   0  0  0  0  0  0  0  0  0  0  0  0
  160.0760  205.0560  144.1140 F   0  0  0  0  0  0  0  0  0  0  0  0
  163.5790  204.9240  146.6050 C   0  0  0  0  0  2  0  0  0  0  0  0
  161.5930  206.1530  147.3490 N   0  0  0  0  0  0  0  0  0  0  0  0
  161.6290  203.7970  145.3780 C   0  0  0  0  0  2  0  0  0  0  0  0
  162.5830  205.1500  147.7300 C   0  0  0  0  0  2  0  0  0  0  0  0
  160.7150  205.9770  146.2110 C   0  0  0  0  0  0  0  0  0  0  0  0
  159.6050  206.5780  146.1840 O   0  0  0  0  0  0  0  0  0  0  0  0
  163.1280  203.7890  145.6870 C   0  0  1  0  0  3  0  0  0  0  0  0
  160.4090  210.5240  152.8570 C   0  0  0  0  0  0  0  0  0  0  0  0
  159.3440  211.0840  152.9290 C   0  0  0  0  0  3  0  0  0  0  0  0
  161.4840  210.2460  148.0270 C   0  0  0  0  0  2  0  0  0  0  0  0
  163.0850  212.1500  148.2600 C   0  0  0  0  0  2  0  0  0  0  0  0
  161.7410  213.7260  146.5360 S   0  0  0  0  0  0  0  0  0  0  0  0
  160.8320  212.5770  147.5470 C   0  0  0  0  0  0  0  0  0  0  0  0
  159.6130  212.5960  147.5970 O   0  0  0  0  0  0  0  0  0  0  0  0
  163.0810  213.5840  147.7530 C   0  0  0  0  0  2  0  0  0  0  0  0
  161.6400  211.7030  148.4380 C   0  0  1  0  0  3  0  0  0  0  0  0
  1  3  1  1  0  0  0
  1  4  1  0  0  0  0
  2  4  1  0  0  0  0
  2  5  1  1  0  0  0
  3 13  1  0  0  0  0
  4  7  1  0  0  0  0
  5 12  1  0  0  0  0
  6  2  1  0  0  0  0
  7  9  1  0  0  0  0
  7  8  1  0  0  0  0
 10  6  1  0  0  0  0
 11 10  1  0  0  0  0
 11  1  1  0  0  0  0
 12 24  1  0  0  0  0
 12  8  1  0  0  0  0
 13  9  1  0  0  0  0
 14 19  1  0  0  0  0
 14 21  1  0  0  0  0
 15 23  1  0  0  0  0
 16 14  1  0  0  0  0
 17 20  1  0  0  0  0
 18 20  1  0  0  0  0
 18 11  1  0  0  0  0
 19 23  1  0  0  0  0
 21 18  1  0  0  0  0
 22 21  2  0  0  0  0
 23 17  1  0  0  0  0
 24 25  3  0  0  0  0
 26 32  1  0  0  0  0
 26  6  1  0  0  0  0
 27 32  1  0  0  0  0
 28 29  1  0  0  0  0
 28 31  1  0  0  0  0
 29 30  2  0  0  0  0
 29 32  1  0  0  0  0
 31 27  1  0  0  0  0
M  END
>  <MODEL>
3

>  <REMARK>
 VINA RESULT:      -8.1      1.613      2.155
  Name = 
  4 active torsions:
  status: ('A' for Active; 'I' for Inactive)
    1  A    between atoms: C_10  and  C_28
    2  A    between atoms: C_13  and  C_29
    3  A    between atoms: N_16  and  C_27
    4  A    between atoms: C_28  and  C_32
                            x       y       z     vdW  Elec       q    Type
                         _______ _______ _______ _____ _____    ______ ____

>  <TORSDO>
F 4

$$$$
=
 OpenBabel11062408233D

 32 36  0  0  1  0  0  0  0  0999 V2000
  160.8220  205.7290  149.5320 C   0  0  1  0  0  3  0  0  0  0  0  0
  161.5770  207.5730  151.0510 C   0  0  1  0  0  3  0  0  0  0  0  0
  160.9390  204.2300  149.1960 C   0  0  0  0  0  2  0  0  0  0  0  0
  161.5710  206.0700  150.8110 C   0  0  1  0  0  3  0  0  0  0  0  0
  162.4050  207.8800  152.3000 C   0  0  0  0  0  2  0  0  0  0  0  0
  162.1430  208.3060  149.8200 C   0  0  1  0  0  3  0  0  0  0  0  0
  160.9520  205.3260  151.9890 C   0  0  2  0  0  3  0  0  0  0  0  0
  161.7810  205.5930  153.2440 C   0  0  0  0  0  2  0  0  0  0  0  0
  160.8060  203.8180  151.7160 C   0  0  0  0  0  2  0  0  0  0  0  0
  162.3700  207.4600  148.7000 O   0  0  0  0  0  0  0  0  0  0  0  0
  161.1940  206.7270  148.4090 C   0  0  1  0  0  3  0  0  0  0  0  0
  161.8980  207.1000  153.5250 C   0  0  2  0  0  3  0  0  0  0  0  0
  161.4240  203.3760  150.3800 C   0  0  0  0  0  2  0  0  0  0  0  0
  162.2780  204.3160  145.5420 C   0  0  2  0  0  3  0  0  0  0  0  0
  159.7570  203.5960  143.9310 F   0  0  0  0  0  0  0  0  0  0  0  0
  163.5180  203.7750  145.2510 F   0  0  0  0  0  0  0  0  0  0  0  0
  159.5130  205.3090  145.5630 C   0  0  0  0  0  2  0  0  0  0  0  0
  161.2590  206.1290  147.0740 N   0  0  0  0  0  0  0  0  0  0  0  0
  161.7020  204.9370  144.2780 C   0  0  0  0  0  2  0  0  0  0  0  0
  160.2040  206.5290  146.1480 C   0  0  0  0  0  2  0  0  0  0  0  0
  162.3880  205.3240  146.6580 C   0  0  0  0  0  0  0  0  0  0  0  0
  163.4720  205.3930  147.3010 O   0  0  0  0  0  0  0  0  0  0  0  0
  160.1730  204.8740  144.2540 C   0  0  1  0  0  3  0  0  0  0  0  0
  160.6260  207.6510  154.0120 C   0  0  0  0  0  0  0  0  0  0  0  0
  159.5810  208.1040  154.4100 C   0  0  0  0  0  3  0  0  0  0  0  0
  161.2830  209.5190  149.4690 C   0  0  0  0  0  2  0  0  0  0  0  0
  162.5240  211.3810  148.3580 C   0  0  0  0  0  2  0  0  0  0  0  0
  160.8330  213.2800  149.2490 S   0  0  0  0  0  0  0  0  0  0  0  0
  161.1420  211.8510  150.2640 C   0  0  0  0  0  0  0  0  0  0  0  0
  160.7360  211.7830  151.4130 O   0  0  0  0  0  0  0  0  0  0  0  0
  162.3940  212.8960  148.4060 C   0  0  0  0  0  2  0  0  0  0  0  0
  162.0440  210.8190  149.6890 C   0  0  1  0  0  3  0  0  0  0  0  0
  1  3  1  6  0  0  0
  1  4  1  0  0  0  0
  2  5  1  1  0  0  0
  3 13  1  0  0  0  0
  4  2  1  0  0  0  0
  4  7  1  0  0  0  0
  5 12  1  0  0  0  0
  6  2  1  0  0  0  0
  7  8  1  0  0  0  0
  8 12  1  0  0  0  0
  9  7  1  0  0  0  0
 10  6  1  0  0  0  0
 11 10  1  0  0  0  0
 11  1  1  0  0  0  0
 12 24  1  0  0  0  0
 13  9  1  0  0  0  0
 14 21  1  0  0  0  0
 15 23  1  0  0  0  0
 16 14  1  0  0  0  0
 17 20  1  0  0  0  0
 18 11  1  0  0  0  0
 19 14  1  0  0  0  0
 20 18  1  0  0  0  0
 21 18  1  0  0  0  0
 21 22  2  0  0  0  0
 23 19  1  0  0  0  0
 23 17  1  0  0  0  0
 24 25  3  0  0  0  0
 26 32  1  0  0  0  0
 26  6  1  0  0  0  0
 27 31  1  0  0  0  0
 27 32  1  0  0  0  0
 28 29  1  0  0  0  0
 29 30  2  0  0  0  0
 31 28  1  0  0  0  0
 32 29  1  0  0  0  0
M  END
>  <MODEL>
4

>  <REMARK>
 VINA RESULT:      -6.3      1.746      2.722
  Name = 
  4 active torsions:
  status: ('A' for Active; 'I' for Inactive)
    1  A    between atoms: C_10  and  C_28
    2  A    between atoms: C_13  and  C_29
    3  A    between atoms: N_16  and  C_27
    4  A    between atoms: C_28  and  C_32
                            x       y       z     vdW  Elec       q    Type
                         _______ _______ _______ _____ _____    ______ ____

>  <TORSDO>
F 4

$$$$
=
 OpenBabel11062408233D

 32 36  0  0  1  0  0  0  0  0999 V2000
  160.9690  207.2630  151.4600 C   0  0  1  0  0  3  0  0  0  0  0  0
  161.4290  209.6670  151.9940 C   0  0  1  0  0  3  0  0  0  0  0  0
  161.2140  205.7990  151.8730 C   0  0  0  0  0  2  0  0  0  0  0  0
  161.5410  208.2310  152.4840 C   0  0  1  0  0  3  0  0  0  0  0  0
  162.0850  210.5990  153.0150 C   0  0  0  0  0  2  0  0  0  0  0  0
  162.0910  209.8110  150.6110 C   0  0  1  0  0  3  0  0  0  0  0  0
  160.8340  208.0470  153.8220 C   0  0  2  0  0  3  0  0  0  0  0  0
  161.4920  208.9480  154.8660 C   0  0  0  0  0  2  0  0  0  0  0  0
  160.8110  206.5760  154.2750 C   0  0  0  0  0  2  0  0  0  0  0  0
  162.4980  208.5750  150.0370 O   0  0  0  0  0  0  0  0  0  0  0  0
  161.4100  207.6680  150.0330 C   0  0  1  0  0  3  0  0  0  0  0  0
  161.4850  210.4190  154.4190 C   0  0  2  0  0  3  0  0  0  0  0  0
  161.6070  205.6400  153.3520 C   0  0  0  0  0  2  0  0  0  0  0  0
  160.8270  204.3040  148.1480 C   0  0  2  0  0  3  0  0  0  0  0  0
  161.8300  204.6710  145.2620 F   0  0  0  0  0  0  0  0  0  0  0  0
  160.2340  203.1300  148.5790 F   0  0  0  0  0  0  0  0  0  0  0  0
  162.3310  206.4280  146.7850 C   0  0  0  0  0  2  0  0  0  0  0  0
  161.6680  206.5360  149.1410 N   0  0  0  0  0  0  0  0  0  0  0  0
  162.1730  203.9760  147.5210 C   0  0  0  0  0  2  0  0  0  0  0  0
  162.7790  206.7010  148.2100 C   0  0  0  0  0  2  0  0  0  0  0  0
  160.9670  205.2780  149.2910 C   0  0  0  0  0  0  0  0  0  0  0  0
  160.3740  205.0210  150.3750 O   0  0  0  0  0  0  0  0  0  0  0  0
  162.5440  204.9620  146.4100 C   0  0  1  0  0  3  0  0  0  0  0  0
  160.1330  210.9910  154.4930 C   0  0  0  0  0  0  0  0  0  0  0  0
  159.0250  211.4610  154.5560 C   0  0  0  0  0  3  0  0  0  0  0  0
  161.2080  210.6270  149.6690 C   0  0  0  0  0  2  0  0  0  0  0  0
  162.7500  211.8180  148.1050 C   0  0  0  0  0  2  0  0  0  0  0  0
  160.8590  213.5460  147.2710 S   0  0  0  0  0  0  0  0  0  0  0  0
  160.8090  212.9530  148.9490 C   0  0  0  0  0  0  0  0  0  0  0  0
  160.0430  213.4270  149.7720 O   0  0  0  0  0  0  0  0  0  0  0  0
  162.6110  213.0760  147.2600 C   0  0  0  0  0  2  0  0  0  0  0  0
  161.8520  211.9630  149.3260 C   0  0  1  0  0  3  0  0  0  0  0  0
  1  3  1  1  0  0  0
  1  4  1  0  0  0  0
  2  4  1  0  0  0  0
  2  5  1  1  0  0  0
  3 13  1  0  0  0  0
  4  7  1  0  0  0  0
  5 12  1  0  0  0  0
  6  2  1  0  0  0  0
  7  9  1  0  0  0  0
  7  8  1  0  0  0  0
 10  6  1  0  0  0  0
 11 10  1  0  0  0  0
 11  1  1  0  0  0  0
 12 24  1  0  0  0  0
 12  8  1  0  0  0  0
 13  9  1  0  0  0  0
 14 16  1  0  0  0  0
 14 21  1  0  0  0  0
 15 23  1  0  0  0  0
 17 20  1  0  0  0  0
 18 21  1  0  0  0  0
 18 11  1  0  0  0  0
 19 14  1  0  0  0  0
 20 18  1  0  0  0  0
 21 22  2  0  0  0  0
 23 17  1  0  0  0  0
 23 19  1  0  0  0  0
 24 25  3  0  0  0  0
 26  6  1  0  0  0  0
 27 32  1  0  0  0  0
 28 29  1  0  0  0  0
 29 32  1  0  0  0  0
 29 30  2  0  0  0  0
 31 28  1  0  0  0  0
 31 27  1  0  0  0  0
 32 26  1  0  0  0  0
M  END
>  <MODEL>
5

>  <REMARK>
 VINA RESULT:      -6.2      1.054      1.840
  Name = 
  4 active torsions:
  status: ('A' for Active; 'I' for Inactive)
    1  A    between atoms: C_10  and  C_28
    2  A    between atoms: C_13  and  C_29
    3  A    between atoms: N_16  and  C_27
    4  A    between atoms: C_28  and  C_32
                            x       y       z     vdW  Elec       q    Type
                         _______ _______ _______ _____ _____    ______ ____

>  <TORSDO>
F 4

$$$$
=
 OpenBabel11062408233D

 32 36  0  0  1  0  0  0  0  0999 V2000
  160.3750  209.9580  154.4100 C   0  0  1  0  0  3  0  0  0  0  0  0
  159.5020  212.3060  154.4070 C   0  0  1  0  0  3  0  0  0  0  0  0
  161.4240  208.9920  154.9930 C   0  0  0  0  0  2  0  0  0  0  0  0
  160.4340  211.3170  155.0910 C   0  0  1  0  0  3  0  0  0  0  0  0
  159.6500  213.6780  155.0690 C   0  0  0  0  0  2  0  0  0  0  0  0
  159.8190  212.3840  152.9020 C   0  0  1  0  0  3  0  0  0  0  0  0
  160.0960  211.1720  156.5700 C   0  0  2  0  0  3  0  0  0  0  0  0
  160.2650  212.5250  157.2600 C   0  0  0  0  0  2  0  0  0  0  0  0
  160.9310  210.0760  157.2560 C   0  0  0  0  0  2  0  0  0  0  0  0
  160.7690  211.4200  152.4630 O   0  0  0  0  0  0  0  0  0  0  0  0
  160.3610  210.1270  152.8720 C   0  0  1  0  0  3  0  0  0  0  0  0
  159.4070  213.6070  156.5860 C   0  0  2  0  0  3  0  0  0  0  0  0
  162.0010  209.4600  156.3410 C   0  0  0  0  0  2  0  0  0  0  0  0
  161.1930  206.6270  151.3680 C   0  0  2  0  0  3  0  0  0  0  0  0
  162.3480  207.0780  148.5510 F   0  0  0  0  0  0  0  0  0  0  0  0
  160.9900  205.3600  151.8880 F   0  0  0  0  0  0  0  0  0  0  0  0
  162.0320  209.0210  149.8860 C   0  0  0  0  0  2  0  0  0  0  0  0
  161.0950  209.0870  152.1490 N   0  0  0  0  0  0  0  0  0  0  0  0
  162.6350  206.7420  150.8980 C   0  0  0  0  0  2  0  0  0  0  0  0
  162.1860  209.5540  151.3000 C   0  0  0  0  0  2  0  0  0  0  0  0
  160.8540  207.6800  152.3920 C   0  0  0  0  0  0  0  0  0  0  0  0
  160.2590  207.3240  153.4470 O   0  0  0  0  0  0  0  0  0  0  0  0
  162.7760  207.6970  149.7100 C   0  0  1  0  0  3  0  0  0  0  0  0
  157.9800  213.4150  156.8830 C   0  0  0  0  0  0  0  0  0  0  0  0
  156.8100  213.2560  157.1280 C   0  0  0  0  0  3  0  0  0  0  0  0
  158.5350  212.3540  152.0740 C   0  0  0  0  0  2  0  0  0  0  0  0
  159.2530  213.4220  149.9330 C   0  0  0  0  0  2  0  0  0  0  0  0
  156.7400  213.6130  148.9780 S   0  0  0  0  0  0  0  0  0  0  0  0
  157.0130  213.7560  150.7310 C   0  0  0  0  0  0  0  0  0  0  0  0
  156.1200  214.0950  151.4920 O   0  0  0  0  0  0  0  0  0  0  0  0
  158.4910  214.0430  148.7710 C   0  0  0  0  0  2  0  0  0  0  0  0
  158.4150  213.5900  151.1940 C   0  0  1  0  0  3  0  0  0  0  0  0
  1  3  1  6  0  0  0
  1  4  1  0  0  0  0
  2  5  1  1  0  0  0
  2  4  1  0  0  0  0
  3 13  1  0  0  0  0
  4  7  1  0  0  0  0
  5 12  1  0  0  0  0
  6  2  1  0  0  0  0
  7  9  1  0  0  0  0
  7  8  1  0  0  0  0
 10 11  1  0  0  0  0
 10  6  1  0  0  0  0
 11  1  1  0  0  0  0
 12 24  1  0  0  0  0
 12  8  1  0  0  0  0
 13  9  1  0  0  0  0
 14 16  1  0  0  0  0
 14 21  1  0  0  0  0
 15 23  1  0  0  0  0
 17 20  1  0  0  0  0
 18 21  1  0  0  0  0
 18 11  1  0  0  0  0
 19 14  1  0  0  0  0
 20 18  1  0  0  0  0
 21 22  2  0  0  0  0
 23 17  1  0  0  0  0
 23 19  1  0  0  0  0
 24 25  3  0  0  0  0
 26  6  1  0  0  0  0
 27 32  1  0  0  0  0
 28 29  1  0  0  0  0
 29 32  1  0  0  0  0
 29 30  2  0  0  0  0
 31 28  1  0  0  0  0
 31 27  1  0  0  0  0
 32 26  1  0  0  0  0
M  END
>  <MODEL>
6

>  <REMARK>
 VINA RESULT:      -6.1      3.044      4.823
  Name = 
  4 active torsions:
  status: ('A' for Active; 'I' for Inactive)
    1  A    between atoms: C_10  and  C_28
    2  A    between atoms: C_13  and  C_29
    3  A    between atoms: N_16  and  C_27
    4  A    between atoms: C_28  and  C_32
                            x       y       z     vdW  Elec       q    Type
                         _______ _______ _______ _____ _____    ______ ____

>  <TORSDO>
F 4

$$$$
=
 OpenBabel11062408233D

 32 36  0  0  1  0  0  0  0  0999 V2000
  161.8980  206.1420  150.9350 C   0  0  1  0  0  3  0  0  0  0  0  0
  161.5500  206.7640  148.5340 C   0  0  1  0  0  3  0  0  0  0  0  0
  161.4440  205.2280  152.0900 C   0  0  0  0  0  2  0  0  0  0  0  0
  161.2130  205.7650  149.6300 C   0  0  1  0  0  3  0  0  0  0  0  0
  160.7820  206.3960  147.2630 C   0  0  0  0  0  2  0  0  0  0  0  0
  161.2040  208.1940  148.9910 C   0  0  1  0  0  3  0  0  0  0  0  0
  161.6090  204.3490  149.2270 C   0  0  2  0  0  3  0  0  0  0  0  0
  160.8310  203.9470  147.9750 C   0  0  0  0  0  2  0  0  0  0  0  0
  161.4080  203.3380  150.3690 C   0  0  0  0  0  2  0  0  0  0  0  0
  160.8180  208.2830  150.3570 O   0  0  0  0  0  0  0  0  0  0  0  0
  161.7990  207.6670  151.1720 C   0  0  1  0  0  3  0  0  0  0  0  0
  161.0590  204.9460  146.8300 C   0  0  2  0  0  3  0  0  0  0  0  0
  160.7410  203.9450  151.6130 C   0  0  0  0  0  2  0  0  0  0  0  0
  160.9380  209.8570  154.2830 C   0  0  2  0  0  3  0  0  0  0  0  0
  159.4990  208.0520  156.3190 F   0  0  0  0  0  0  0  0  0  0  0  0
  161.1390  211.2070  154.5070 F   0  0  0  0  0  0  0  0  0  0  0  0
  160.4560  206.9620  154.4340 C   0  0  0  0  0  2  0  0  0  0  0  0
  161.6330  208.0460  152.5770 N   0  0  0  0  0  0  0  0  0  0  0  0
  161.4830  209.0730  155.4680 C   0  0  0  0  0  2  0  0  0  0  0  0
  161.6840  206.9490  153.5390 C   0  0  0  0  0  2  0  0  0  0  0  0
  161.5860  209.4330  152.9890 C   0  0  0  0  0  0  0  0  0  0  0  0
  162.0120  210.3280  152.2080 O   0  0  0  0  0  0  0  0  0  0  0  0
  160.7060  207.7760  155.7030 C   0  0  1  0  0  3  0  0  0  0  0  0
  162.4120  204.8130  146.2690 C   0  0  0  0  0  0  0  0  0  0  0  0
  163.5220  204.7030  145.8110 C   0  0  0  0  0  3  0  0  0  0  0  0
  162.3320  209.1630  148.6410 C   0  0  0  0  0  2  0  0  0  0  0  0
  163.0860  211.4520  149.3010 C   0  0  0  0  0  2  0  0  0  0  0  0
  162.4310  212.5470  146.9280 S   0  0  0  0  0  0  0  0  0  0  0  0
  161.4550  211.1990  147.5580 C   0  0  0  0  0  0  0  0  0  0  0  0
  160.4080  210.8650  147.0260 O   0  0  0  0  0  0  0  0  0  0  0  0
  162.9820  212.8160  148.6360 C   0  0  0  0  0  2  0  0  0  0  0  0
  161.9020  210.6090  148.8460 C   0  0  1  0  0  3  0  0  0  0  0  0
  1 11  1  0  0  0  0
  1  3  1  1  0  0  0
  2  5  1  6  0  0  0
  2  6  1  0  0  0  0
  2  4  1  0  0  0  0
  4  1  1  0  0  0  0
  6 10  1  0  0  0  0
  7  4  1  0  0  0  0
  7  9  1  0  0  0  0
  8  7  1  0  0  0  0
  9 13  1  0  0  0  0
 10 11  1  0  0  0  0
 11 18  1  0  0  0  0
 12  5  1  0  0  0  0
 12  8  1  0  0  0  0
 13  3  1  0  0  0  0
 14 16  1  0  0  0  0
 14 19  1  0  0  0  0
 17 23  1  0  0  0  0
 18 21  1  0  0  0  0
 18 20  1  0  0  0  0
 19 23  1  0  0  0  0
 20 17  1  0  0  0  0
 21 14  1  0  0  0  0
 22 21  2  0  0  0  0
 23 15  1  0  0  0  0
 24 12  1  0  0  0  0
 25 24  3  0  0  0  0
 26 32  1  0  0  0  0
 26  6  1  0  0  0  0
 28 29  1  0  0  0  0
 28 31  1  0  0  0  0
 29 32  1  0  0  0  0
 30 29  2  0  0  0  0
 31 27  1  0  0  0  0
 32 27  1  0  0  0  0
M  END
>  <MODEL>
7

>  <REMARK>
 VINA RESULT:      -6.0      3.142      6.121
  Name = 
  4 active torsions:
  status: ('A' for Active; 'I' for Inactive)
    1  A    between atoms: C_10  and  C_28
    2  A    between atoms: C_13  and  C_29
    3  A    between atoms: N_16  and  C_27
    4  A    between atoms: C_28  and  C_32
                            x       y       z     vdW  Elec       q    Type
                         _______ _______ _______ _____ _____    ______ ____

>  <TORSDO>
F 4

$$$$
=
 OpenBabel11062408233D

 32 36  0  0  1  0  0  0  0  0999 V2000
  161.7590  205.0380  150.7200 C   0  0  1  0  0  3  0  0  0  0  0  0
  161.1290  203.8820  148.5890 C   0  0  1  0  0  3  0  0  0  0  0  0
  161.3770  205.2890  152.1920 C   0  0  0  0  0  2  0  0  0  0  0  0
  160.8410  204.0090  150.0780 C   0  0  1  0  0  3  0  0  0  0  0  0
  160.1350  202.8980  147.9670 C   0  0  0  0  0  2  0  0  0  0  0  0
  161.0370  205.2610  147.9090 C   0  0  1  0  0  3  0  0  0  0  0  0
  160.9920  202.6670  150.7860 C   0  0  2  0  0  3  0  0  0  0  0  0
  159.9880  201.6750  150.2010 C   0  0  0  0  0  2  0  0  0  0  0  0
  160.8430  202.7910  152.3130 C   0  0  0  0  0  2  0  0  0  0  0  0
  160.8780  206.3420  148.8200 O   0  0  0  0  0  0  0  0  0  0  0  0
  161.8880  206.2840  149.8120 C   0  0  1  0  0  3  0  0  0  0  0  0
  160.1610  201.5360  148.6800 C   0  0  2  0  0  3  0  0  0  0  0  0
  160.4550  204.2040  152.7760 C   0  0  0  0  0  2  0  0  0  0  0  0
  161.7480  210.1210  150.4930 C   0  0  2  0  0  3  0  0  0  0  0  0
  160.4950  210.5250  153.2750 F   0  0  0  0  0  0  0  0  0  0  0  0
  162.1070  211.1850  149.6840 F   0  0  0  0  0  0  0  0  0  0  0  0
  161.0300  208.2870  152.6730 C   0  0  0  0  0  2  0  0  0  0  0  0
  161.9870  207.5500  150.5410 N   0  0  0  0  0  0  0  0  0  0  0  0
  162.4020  210.2940  151.8550 C   0  0  0  0  0  2  0  0  0  0  0  0
  162.0910  207.4390  151.9930 C   0  0  0  0  0  2  0  0  0  0  0  0
  162.1360  208.8130  149.8500 C   0  0  0  0  0  0  0  0  0  0  0  0
  162.5120  208.8240  148.6450 O   0  0  0  0  0  0  0  0  0  0  0  0
  161.5560  209.6890  152.9780 C   0  0  1  0  0  3  0  0  0  0  0  0
  161.3840  200.7910  148.3510 C   0  0  0  0  0  0  0  0  0  0  0  0
  162.3870  200.1790  148.0790 C   0  0  0  0  0  3  0  0  0  0  0  0
  162.2100  205.4730  146.9540 C   0  0  0  0  0  2  0  0  0  0  0  0
  161.7270  203.5260  145.4650 C   0  0  0  0  0  2  0  0  0  0  0  0
  159.2450  204.3800  144.8550 S   0  0  0  0  0  0  0  0  0  0  0  0
  160.5230  205.5810  145.1560 C   0  0  0  0  0  0  0  0  0  0  0  0
  160.3480  206.7700  144.9390 O   0  0  0  0  0  0  0  0  0  0  0  0
  160.5760  203.1910  144.5270 C   0  0  0  0  0  2  0  0  0  0  0  0
  161.8550  205.0420  145.5380 C   0  0  1  0  0  3  0  0  0  0  0  0
  1  3  1  1  0  0  0
  2  5  1  6  0  0  0
  2  4  1  0  0  0  0
  3 13  1  0  0  0  0
  4  1  1  0  0  0  0
  4  7  1  0  0  0  0
  5 12  1  0  0  0  0
  6  2  1  0  0  0  0
  6 10  1  0  0  0  0
  7  9  1  0  0  0  0
  8  7  1  0  0  0  0
  9 13  1  0  0  0  0
 10 11  1  0  0  0  0
 11 18  1  0  0  0  0
 11  1  1  0  0  0  0
 12  8  1  0  0  0  0
 14 19  1  0  0  0  0
 16 14  1  0  0  0  0
 17 23  1  0  0  0  0
 18 20  1  0  0  0  0
 19 23  1  0  0  0  0
 20 17  1  0  0  0  0
 21 14  1  0  0  0  0
 21 18  1  0  0  0  0
 22 21  2  0  0  0  0
 23 15  1  0  0  0  0
 24 12  1  0  0  0  0
 25 24  3  0  0  0  0
 26  6  1  0  0  0  0
 27 32  1  0  0  0  0
 28 29  1  0  0  0  0
 29 32  1  0  0  0  0
 30 29  2  0  0  0  0
 31 28  1  0  0  0  0
 31 27  1  0  0  0  0
 32 26  1  0  0  0  0
M  END
>  <MODEL>
8

>  <REMARK>
 VINA RESULT:      -6.0      3.367      7.198
  Name = 
  4 active torsions:
  status: ('A' for Active; 'I' for Inactive)
    1  A    between atoms: C_10  and  C_28
    2  A    between atoms: C_13  and  C_29
    3  A    between atoms: N_16  and  C_27
    4  A    between atoms: C_28  and  C_32
                            x       y       z     vdW  Elec       q    Type
                         _______ _______ _______ _____ _____    ______ ____

>  <TORSDO>
F 4

$$$$
=
 OpenBabel11062408233D

 32 36  0  0  1  0  0  0  0  0999 V2000
  160.9730  208.5560  151.3050 C   0  0  1  0  0  3  0  0  0  0  0  0
  161.8340  206.6590  149.9140 C   0  0  1  0  0  3  0  0  0  0  0  0
  161.1700  210.0310  151.7060 C   0  0  0  0  0  2  0  0  0  0  0  0
  161.9320  208.1500  150.1960 C   0  0  1  0  0  3  0  0  0  0  0  0
  162.8680  206.2780  148.8530 C   0  0  0  0  0  2  0  0  0  0  0  0
  162.0540  205.8560  151.2100 C   0  0  1  0  0  3  0  0  0  0  0  0
  161.6510  208.9690  148.9420 C   0  0  2  0  0  3  0  0  0  0  0  0
  162.6910  208.6270  147.8750 C   0  0  0  0  0  2  0  0  0  0  0  0
  161.6080  210.4810  149.2270 C   0  0  0  0  0  2  0  0  0  0  0  0
  162.1280  206.6610  152.3800 O   0  0  0  0  0  0  0  0  0  0  0  0
  160.9990  207.5130  152.4470 C   0  0  1  0  0  3  0  0  0  0  0  0
  162.7090  207.1200  147.5760 C   0  0  2  0  0  3  0  0  0  0  0  0
  161.9770  210.8400  150.6750 C   0  0  0  0  0  2  0  0  0  0  0  0
  160.8630  207.7020  156.3400 C   0  0  2  0  0  3  0  0  0  0  0  0
  162.2760  210.3000  157.1920 F   0  0  0  0  0  0  0  0  0  0  0  0
  160.3580  206.8020  157.2610 F   0  0  0  0  0  0  0  0  0  0  0  0
  161.8900  210.0250  154.8620 C   0  0  0  0  0  2  0  0  0  0  0  0
  160.8470  208.0870  153.7860 N   0  0  0  0  0  0  0  0  0  0  0  0
  160.2980  209.0830  156.6390 C   0  0  0  0  0  2  0  0  0  0  0  0
  160.8580  209.5440  153.8560 C   0  0  0  0  0  2  0  0  0  0  0  0
  160.5420  207.2600  154.9350 C   0  0  0  0  0  0  0  0  0  0  0  0
  160.0800  206.0980  154.7610 O   0  0  0  0  0  0  0  0  0  0  0  0
  161.2710  210.1980  156.2490 C   0  0  1  0  0  3  0  0  0  0  0  0
  161.5150  206.7140  146.8200 C   0  0  0  0  0  0  0  0  0  0  0  0
  160.5370  206.3790  146.2000 C   0  0  0  0  0  3  0  0  0  0  0  0
  161.0200  204.7380  151.3380 C   0  0  0  0  0  2  0  0  0  0  0  0
  161.2070  202.2660  151.6440 C   0  0  0  0  0  2  0  0  0  0  0  0
  159.8100  201.7040  149.4090 S   0  0  0  0  0  0  0  0  0  0  0  0
  160.8280  203.1630  149.4490 C   0  0  0  0  0  0  0  0  0  0  0  0
  161.0360  203.8250  148.4450 O   0  0  0  0  0  0  0  0  0  0  0  0
  160.8280  201.0760  150.7740 C   0  0  0  0  0  2  0  0  0  0  0  0
  161.5300  203.4400  150.7300 C   0  0  1  0  0  3  0  0  0  0  0  0
  1  3  1  1  0  0  0
  1 11  1  0  0  0  0
  2  5  1  6  0  0  0
  2  4  1  0  0  0  0
  2  6  1  0  0  0  0
  4  1  1  0  0  0  0
  6 26  1  0  0  0  0
  6 10  1  0  0  0  0
  7  9  1  0  0  0  0
  7  4  1  0  0  0  0
  8  7  1  0  0  0  0
  9 13  1  0  0  0  0
 10 11  1  0  0  0  0
 11 18  1  0  0  0  0
 12  8  1  0  0  0  0
 12  5  1  0  0  0  0
 13  3  1  0  0  0  0
 14 19  1  0  0  0  0
 14 16  1  0  0  0  0
 17 23  1  0  0  0  0
 18 20  1  0  0  0  0
 18 21  1  0  0  0  0
 20 17  1  0  0  0  0
 21 14  1  0  0  0  0
 22 21  2  0  0  0  0
 23 19  1  0  0  0  0
 23 15  1  0  0  0  0
 24 12  1  0  0  0  0
 25 24  3  0  0  0  0
 28 29  1  0  0  0  0
 28 31  1  0  0  0  0
 29 32  1  0  0  0  0
 30 29  2  0  0  0  0
 31 27  1  0  0  0  0
 32 26  1  0  0  0  0
 32 27  1  0  0  0  0
M  END
>  <MODEL>
9

>  <REMARK>
 VINA RESULT:      -5.7      4.180      7.970
  Name = 
  4 active torsions:
  status: ('A' for Active; 'I' for Inactive)
    1  A    between atoms: C_10  and  C_28
    2  A    between atoms: C_13  and  C_29
    3  A    between atoms: N_16  and  C_27
    4  A    between atoms: C_28  and  C_32
                            x       y       z     vdW  Elec       q    Type
                         _______ _______ _______ _____ _____    ______ ____

>  <TORSDO>
F 4

$$$$
