=
 OpenBabel11052422503D

 28 31  0  0  1  0  0  0  0  0999 V2000
  160.8380  204.2900  149.6350 C   0  0  1  0  0  3  0  0  0  0  0  0
  161.9200  204.7300  148.6410 C   0  0  2  0  0  3  0  0  0  0  0  0
  161.1600  206.1270  151.9010 C   0  0  0  0  0  2  0  0  0  0  0  0
  160.0580  206.4130  148.7680 O   0  0  0  0  0  1  0  0  0  0  0  0
  161.0770  204.6070  152.1290 C   0  0  0  0  0  2  0  0  0  0  0  0
  161.8210  206.4950  150.5720 C   0  0  1  0  0  3  0  0  0  0  0  0
  161.4980  203.7740  150.9130 C   0  0  0  0  0  2  0  0  0  0  0  0
  161.1180  205.7710  149.4170 C   0  0  1  0  0  0  0  0  0  0  0  0
  161.4650  204.5610  147.2140 C   0  0  0  0  0  0  0  0  0  0  0  0
  160.7500  204.2930  144.5120 C   0  0  0  0  0  3  0  0  0  0  0  0
  161.4020  205.6860  146.3780 C   0  0  0  0  0  3  0  0  0  0  0  0
  161.3190  202.1410  147.4490 O   0  0  0  0  0  1  0  0  0  0  0  0
  161.2070  203.2860  146.6690 C   0  0  0  0  0  0  0  0  0  0  0  0
  160.8390  203.1620  145.3260 C   0  0  0  0  0  3  0  0  0  0  0  0
  161.0370  205.5550  145.0370 C   0  0  0  0  0  3  0  0  0  0  0  0
  161.8230  208.0010  150.3670 C   0  0  0  0  0  2  0  0  0  0  0  0
  162.6590  208.6140  151.3140 O   0  0  0  0  0  0  0  0  0  0  0  0
  161.8850  210.5390  150.2660 F   0  0  0  0  0  0  0  0  0  0  0  0
  162.2420  209.9510  151.4730 C   0  0  1  0  0  3  0  0  0  0  0  0
  161.1330  210.0850  152.5140 C   0  0  0  0  0  2  0  0  0  0  0  0
  160.6340  208.7050  154.3330 C   0  0  0  0  0  2  0  0  0  0  0  0
  161.5860  210.8270  154.6760 C   0  0  0  0  0  2  0  0  0  0  0  0
  161.4010  208.6690  156.7700 C   0  0  1  0  0  3  0  0  0  0  0  0
  161.6130  209.6530  153.8160 N   0  0  0  0  0  0  0  0  0  0  0  0
  162.4980  209.7000  156.7080 C   0  0  0  0  0  3  0  0  0  0  0  0
  162.5800  210.6700  155.7850 C   0  0  0  0  0  3  0  0  0  0  0  0
  160.0910  209.2680  157.2610 C   0  0  0  0  0  1  0  0  0  0  0  0
  161.2310  207.8750  155.4700 C   0  0  0  0  0  2  0  0  0  0  0  0
  1  7  1  1  0  0  0
  2  9  1  6  0  0  0
  2  8  1  0  0  0  0
  2  1  1  0  0  0  0
  3  5  1  0  0  0  0
  6 16  1  6  0  0  0
  6  3  1  0  0  0  0
  7  5  1  0  0  0  0
  8  4  1  6  0  0  0
  8  1  1  0  0  0  0
  8  6  1  0  0  0  0
 10 15  2  0  0  0  0
 10 14  1  0  0  0  0
 11  9  2  0  0  0  0
 13  9  1  0  0  0  0
 13 12  1  0  0  0  0
 14 13  2  0  0  0  0
 15 11  1  0  0  0  0
 16 17  1  0  0  0  0
 17 19  1  0  0  0  0
 19 18  1  6  0  0  0
 19 20  1  0  0  0  0
 20 24  1  0  0  0  0
 21 28  1  0  0  0  0
 22 26  1  0  0  0  0
 23 27  1  6  0  0  0
 24 21  1  0  0  0  0
 24 22  1  0  0  0  0
 25 23  1  0  0  0  0
 26 25  2  0  0  0  0
 28 23  1  0  0  0  0
M  END
>  <MODEL>
1

>  <REMARK>
 VINA RESULT:      -8.7      0.000      0.000
  Name = 
  6 active torsions:
  status: ('A' for Active; 'I' for Inactive)
    1  A    between atoms: C_2  and  C_3
    2  A    between atoms: C_5  and  O_20
    3  A    between atoms: C_5  and  C_21
    4  A    between atoms: C_10  and  N_13
    5  A    between atoms: C_10  and  C_25
    6  A    between atoms: O_20  and  C_25
                            x       y       z     vdW  Elec       q    Type
                         _______ _______ _______ _____ _____    ______ ____

>  <TORSDO>
F 6

$$$$
=
 OpenBabel11052422503D

 28 31  0  0  1  0  0  0  0  0999 V2000
  161.8050  206.3050  149.8210 C   0  0  1  0  0  3  0  0  0  0  0  0
  160.5840  205.4240  150.1100 C   0  0  2  0  0  3  0  0  0  0  0  0
  161.8460  208.2210  152.0430 C   0  0  0  0  0  2  0  0  0  0  0  0
  162.4490  204.9570  151.7280 O   0  0  0  0  0  1  0  0  0  0  0  0
  161.9570  208.7070  150.5870 C   0  0  0  0  0  2  0  0  0  0  0  0
  160.9880  206.9630  152.1880 C   0  0  1  0  0  3  0  0  0  0  0  0
  161.3500  207.7410  149.5640 C   0  0  0  0  0  2  0  0  0  0  0  0
  161.5010  205.8660  151.2470 C   0  0  1  0  0  0  0  0  0  0  0  0
  160.8110  203.9990  149.6730 C   0  0  0  0  0  0  0  0  0  0  0  0
  161.0930  201.3190  148.8860 C   0  0  0  0  0  3  0  0  0  0  0  0
  160.6130  202.9610  150.5950 C   0  0  0  0  0  3  0  0  0  0  0  0
  161.2550  204.6760  147.3760 O   0  0  0  0  0  1  0  0  0  0  0  0
  161.1120  203.6780  148.3330 C   0  0  0  0  0  0  0  0  0  0  0  0
  161.2630  202.3420  147.9520 C   0  0  0  0  0  3  0  0  0  0  0  0
  160.7620  201.6280  150.2070 C   0  0  0  0  0  3  0  0  0  0  0  0
  160.9600  206.4900  153.6330 C   0  0  0  0  0  2  0  0  0  0  0  0
  161.3860  207.5220  154.4850 O   0  0  0  0  0  0  0  0  0  0  0  0
  160.4330  206.9010  156.5120 F   0  0  0  0  0  0  0  0  0  0  0  0
  160.3670  207.7660  155.4270 C   0  0  1  0  0  3  0  0  0  0  0  0
  160.3390  209.2260  155.8720 C   0  0  0  0  0  2  0  0  0  0  0  0
  160.0110  210.7350  154.1180 C   0  0  0  0  0  2  0  0  0  0  0  0
  158.7220  210.8920  156.0770 C   0  0  0  0  0  2  0  0  0  0  0  0
  158.1010  212.3130  153.4930 C   0  0  1  0  0  3  0  0  0  0  0  0
  159.3190  209.9550  155.1360 N   0  0  0  0  0  0  0  0  0  0  0  0
  157.0600  211.8580  154.4840 C   0  0  0  0  0  3  0  0  0  0  0  0
  157.3300  211.2340  155.6400 C   0  0  0  0  0  3  0  0  0  0  0  0
  158.8580  213.5340  153.9920 C   0  0  0  0  0  1  0  0  0  0  0  0
  159.0380  211.1920  153.0300 C   0  0  0  0  0  2  0  0  0  0  0  0
  1  7  1  1  0  0  0
  1  2  1  0  0  0  0
  1  8  1  0  0  0  0
  2  9  1  6  0  0  0
  2  8  1  0  0  0  0
  3  6  1  0  0  0  0
  5  3  1  0  0  0  0
  6 16  1  1  0  0  0
  7  5  1  0  0  0  0
  8  4  1  1  0  0  0
  8  6  1  0  0  0  0
  9 11  1  0  0  0  0
 10 15  1  0  0  0  0
 12 13  1  0  0  0  0
 13  9  2  0  0  0  0
 14 13  1  0  0  0  0
 14 10  2  0  0  0  0
 15 11  2  0  0  0  0
 16 17  1  0  0  0  0
 17 19  1  0  0  0  0
 19 20  1  0  0  0  0
 19 18  1  1  0  0  0
 21 24  1  0  0  0  0
 23 27  1  1  0  0  0
 23 25  1  0  0  0  0
 24 20  1  0  0  0  0
 24 22  1  0  0  0  0
 25 26  2  0  0  0  0
 26 22  1  0  0  0  0
 28 23  1  0  0  0  0
 28 21  1  0  0  0  0
M  END
>  <MODEL>
2

>  <REMARK>
 VINA RESULT:      -8.6      2.729      4.179
  Name = 
  6 active torsions:
  status: ('A' for Active; 'I' for Inactive)
    1  A    between atoms: C_2  and  C_3
    2  A    between atoms: C_5  and  O_20
    3  A    between atoms: C_5  and  C_21
    4  A    between atoms: C_10  and  N_13
    5  A    between atoms: C_10  and  C_25
    6  A    between atoms: O_20  and  C_25
                            x       y       z     vdW  Elec       q    Type
                         _______ _______ _______ _____ _____    ______ ____

>  <TORSDO>
F 6

$$$$
=
 OpenBabel11052422503D

 28 31  0  0  1  0  0  0  0  0999 V2000
  160.6800  203.9540  150.4420 C   0  0  1  0  0  3  0  0  0  0  0  0
  161.8480  204.0570  149.4530 C   0  0  2  0  0  3  0  0  0  0  0  0
  161.0390  206.2660  152.2130 C   0  0  0  0  0  2  0  0  0  0  0  0
  160.1350  205.8470  149.0320 O   0  0  0  0  0  1  0  0  0  0  0  0
  160.8120  204.8600  152.7950 C   0  0  0  0  0  2  0  0  0  0  0  0
  161.8000  206.2460  150.8860 C   0  0  1  0  0  3  0  0  0  0  0  0
  161.2230  203.7250  151.8510 C   0  0  0  0  0  2  0  0  0  0  0  0
  161.0990  205.3120  149.8930 C   0  0  1  0  0  0  0  0  0  0  0  0
  161.4570  203.5730  148.0800 C   0  0  0  0  0  0  0  0  0  0  0  0
  160.8690  202.6890  145.4810 C   0  0  0  0  0  3  0  0  0  0  0  0
  161.5990  204.4360  146.9840 C   0  0  0  0  0  3  0  0  0  0  0  0
  160.9630  201.3360  148.9070 O   0  0  0  0  0  1  0  0  0  0  0  0
  161.0560  202.2390  147.8550 C   0  0  0  0  0  0  0  0  0  0  0  0
  160.7520  201.8100  146.5600 C   0  0  0  0  0  3  0  0  0  0  0  0
  161.2980  204.0010  145.6920 C   0  0  0  0  0  3  0  0  0  0  0  0
  161.9430  207.6520  150.3230 C   0  0  0  0  0  2  0  0  0  0  0  0
  161.1960  208.5570  151.0940 O   0  0  0  0  0  0  0  0  0  0  0  0
  162.3100  210.2140  149.9050 F   0  0  0  0  0  0  0  0  0  0  0  0
  161.9050  209.7730  151.1580 C   0  0  1  0  0  3  0  0  0  0  0  0
  161.1250  210.8500  151.9090 C   0  0  0  0  0  2  0  0  0  0  0  0
  159.7070  211.3470  153.6990 C   0  0  0  0  0  2  0  0  0  0  0  0
  161.5460  209.9140  154.0020 C   0  0  0  0  0  2  0  0  0  0  0  0
  159.2780  210.2350  155.9590 C   0  0  1  0  0  3  0  0  0  0  0  0
  160.4800  210.2780  153.0790 N   0  0  0  0  0  0  0  0  0  0  0  0
  160.0640  208.9630  155.7710 C   0  0  0  0  0  3  0  0  0  0  0  0
  161.0810  208.8160  154.9090 C   0  0  0  0  0  3  0  0  0  0  0  0
  160.0820  211.2890  156.7050 C   0  0  0  0  0  1  0  0  0  0  0  0
  158.6660  210.7750  154.6620 C   0  0  0  0  0  2  0  0  0  0  0  0
  1  7  1  1  0  0  0
  2  9  1  6  0  0  0
  2  8  1  0  0  0  0
  2  1  1  0  0  0  0
  3  5  1  0  0  0  0
  6 16  1  6  0  0  0
  6  3  1  0  0  0  0
  7  5  1  0  0  0  0
  8  4  1  6  0  0  0
  8  1  1  0  0  0  0
  8  6  1  0  0  0  0
 10 15  2  0  0  0  0
 10 14  1  0  0  0  0
 11  9  2  0  0  0  0
 13  9  1  0  0  0  0
 13 12  1  0  0  0  0
 14 13  2  0  0  0  0
 15 11  1  0  0  0  0
 16 17  1  0  0  0  0
 17 19  1  0  0  0  0
 19 18  1  6  0  0  0
 19 20  1  0  0  0  0
 20 24  1  0  0  0  0
 21 28  1  0  0  0  0
 22 26  1  0  0  0  0
 23 27  1  6  0  0  0
 24 21  1  0  0  0  0
 24 22  1  0  0  0  0
 25 23  1  0  0  0  0
 26 25  2  0  0  0  0
 28 23  1  0  0  0  0
M  END
>  <MODEL>
3

>  <REMARK>
 VINA RESULT:      -8.4      1.288      1.697
  Name = 
  6 active torsions:
  status: ('A' for Active; 'I' for Inactive)
    1  A    between atoms: C_2  and  C_3
    2  A    between atoms: C_5  and  O_20
    3  A    between atoms: C_5  and  C_21
    4  A    between atoms: C_10  and  N_13
    5  A    between atoms: C_10  and  C_25
    6  A    between atoms: O_20  and  C_25
                            x       y       z     vdW  Elec       q    Type
                         _______ _______ _______ _____ _____    ______ ____

>  <TORSDO>
F 6

$$$$
=
 OpenBabel11052422503D

 28 31  0  0  1  0  0  0  0  0999 V2000
  161.8360  206.0800  149.6890 C   0  0  1  0  0  3  0  0  0  0  0  0
  160.5990  205.2110  149.9480 C   0  0  2  0  0  3  0  0  0  0  0  0
  161.8380  208.0020  151.9070 C   0  0  0  0  0  2  0  0  0  0  0  0
  162.4190  204.7320  151.6150 O   0  0  0  0  0  1  0  0  0  0  0  0
  161.9910  208.4820  150.4530 C   0  0  0  0  0  2  0  0  0  0  0  0
  160.9650  206.7520  152.0320 C   0  0  1  0  0  3  0  0  0  0  0  0
  161.4010  207.5190  149.4160 C   0  0  0  0  0  2  0  0  0  0  0  0
  161.4910  205.6480  151.1070 C   0  0  1  0  0  0  0  0  0  0  0  0
  160.8240  203.7830  149.5210 C   0  0  0  0  0  0  0  0  0  0  0  0
  161.1010  201.0980  148.7490 C   0  0  0  0  0  3  0  0  0  0  0  0
  160.6010  202.7500  150.4430 C   0  0  0  0  0  3  0  0  0  0  0  0
  161.3160  204.4480  147.2300 O   0  0  0  0  0  1  0  0  0  0  0  0
  161.1470  203.4550  148.1880 C   0  0  0  0  0  0  0  0  0  0  0  0
  161.2960  202.1160  147.8140 C   0  0  0  0  0  3  0  0  0  0  0  0
  160.7480  201.4150  150.0630 C   0  0  0  0  0  3  0  0  0  0  0  0
  160.8960  206.2830  153.4770 C   0  0  0  0  0  2  0  0  0  0  0  0
  161.6630  207.1290  154.2940 O   0  0  0  0  0  0  0  0  0  0  0  0
  160.0610  206.8720  155.9580 F   0  0  0  0  0  0  0  0  0  0  0  0
  160.7970  207.7740  155.2000 C   0  0  1  0  0  3  0  0  0  0  0  0
  161.5370  208.7780  156.0810 C   0  0  0  0  0  2  0  0  0  0  0  0
  159.8300  210.1720  156.8600 C   0  0  0  0  0  2  0  0  0  0  0  0
  160.4110  210.1630  154.5820 C   0  0  0  0  0  2  0  0  0  0  0  0
  158.6890  212.2500  155.9070 C   0  0  1  0  0  3  0  0  0  0  0  0
  160.9520  210.1000  155.9320 N   0  0  0  0  0  0  0  0  0  0  0  0
  159.5860  212.5140  154.7250 C   0  0  0  0  0  3  0  0  0  0  0  0
  160.3470  211.5880  154.1240 C   0  0  0  0  0  3  0  0  0  0  0  0
  157.4470  211.4680  155.5090 C   0  0  0  0  0  1  0  0  0  0  0  0
  159.4170  211.6240  157.1020 C   0  0  0  0  0  2  0  0  0  0  0  0
  1  7  1  1  0  0  0
  1  2  1  0  0  0  0
  1  8  1  0  0  0  0
  2  9  1  6  0  0  0
  2  8  1  0  0  0  0
  3  6  1  0  0  0  0
  5  3  1  0  0  0  0
  6 16  1  1  0  0  0
  7  5  1  0  0  0  0
  8  4  1  1  0  0  0
  8  6  1  0  0  0  0
  9 11  1  0  0  0  0
 10 15  1  0  0  0  0
 12 13  1  0  0  0  0
 13  9  2  0  0  0  0
 14 13  1  0  0  0  0
 14 10  2  0  0  0  0
 15 11  2  0  0  0  0
 16 17  1  0  0  0  0
 17 19  1  0  0  0  0
 19 18  1  1  0  0  0
 19 20  1  0  0  0  0
 21 28  1  0  0  0  0
 22 24  1  0  0  0  0
 23 27  1  6  0  0  0
 23 28  1  0  0  0  0
 24 20  1  0  0  0  0
 24 21  1  0  0  0  0
 25 23  1  0  0  0  0
 26 22  1  0  0  0  0
 26 25  2  0  0  0  0
M  END
>  <MODEL>
4

>  <REMARK>
 VINA RESULT:      -8.4      2.431      3.771
  Name = 
  6 active torsions:
  status: ('A' for Active; 'I' for Inactive)
    1  A    between atoms: C_2  and  C_3
    2  A    between atoms: C_5  and  O_20
    3  A    between atoms: C_5  and  C_21
    4  A    between atoms: C_10  and  N_13
    5  A    between atoms: C_10  and  C_25
    6  A    between atoms: O_20  and  C_25
                            x       y       z     vdW  Elec       q    Type
                         _______ _______ _______ _____ _____    ______ ____

>  <TORSDO>
F 6

$$$$
=
 OpenBabel11052422503D

 28 31  0  0  1  0  0  0  0  0999 V2000
  161.8650  206.3350  149.7660 C   0  0  1  0  0  3  0  0  0  0  0  0
  160.6120  205.4910  150.0300 C   0  0  2  0  0  3  0  0  0  0  0  0
  161.8590  208.3190  151.9290 C   0  0  0  0  0  2  0  0  0  0  0  0
  162.3990  205.0350  151.7380 O   0  0  0  0  0  1  0  0  0  0  0  0
  162.0410  208.7560  150.4640 C   0  0  0  0  0  2  0  0  0  0  0  0
  160.9670  207.0850  152.0760 C   0  0  1  0  0  3  0  0  0  0  0  0
  161.4540  207.7720  149.4460 C   0  0  0  0  0  2  0  0  0  0  0  0
  161.4920  205.9490  151.1910 C   0  0  1  0  0  0  0  0  0  0  0  0
  160.8240  204.0480  149.6470 C   0  0  0  0  0  0  0  0  0  0  0  0
  161.0770  201.3380  148.9610 C   0  0  0  0  0  3  0  0  0  0  0  0
  160.6190  203.0480  150.6080 C   0  0  0  0  0  3  0  0  0  0  0  0
  161.2660  204.6340  147.3240 O   0  0  0  0  0  1  0  0  0  0  0  0
  161.1170  203.6740  148.3190 C   0  0  0  0  0  0  0  0  0  0  0  0
  161.2530  202.3230  147.9880 C   0  0  0  0  0  3  0  0  0  0  0  0
  160.7540  201.7000  150.2710 C   0  0  0  0  0  3  0  0  0  0  0  0
  160.8700  206.6580  153.5320 C   0  0  0  0  0  2  0  0  0  0  0  0
  161.4220  207.6480  154.3610 O   0  0  0  0  0  0  0  0  0  0  0  0
  159.8480  206.8600  155.8790 F   0  0  0  0  0  0  0  0  0  0  0  0
  160.4700  207.9820  155.3450 C   0  0  1  0  0  3  0  0  0  0  0  0
  161.0630  208.8700  156.4370 C   0  0  0  0  0  2  0  0  0  0  0  0
  159.2900  210.0720  155.5020 C   0  0  0  0  0  2  0  0  0  0  0  0
  161.2010  211.1920  156.2910 C   0  0  0  0  0  2  0  0  0  0  0  0
  158.5900  212.5270  155.6000 C   0  0  1  0  0  3  0  0  0  0  0  0
  160.2870  210.0920  156.5650 N   0  0  0  0  0  0  0  0  0  0  0  0
  159.5450  213.0230  156.6560 C   0  0  0  0  0  3  0  0  0  0  0  0
  160.7130  212.4390  156.9610 C   0  0  0  0  0  3  0  0  0  0  0  0
  159.1100  212.8010  154.1970 C   0  0  0  0  0  1  0  0  0  0  0  0
  158.1670  211.0670  155.7930 C   0  0  0  0  0  2  0  0  0  0  0  0
  1  7  1  1  0  0  0
  1  2  1  0  0  0  0
  1  8  1  0  0  0  0
  2  9  1  6  0  0  0
  2  8  1  0  0  0  0
  3  6  1  0  0  0  0
  5  3  1  0  0  0  0
  6 16  1  1  0  0  0
  7  5  1  0  0  0  0
  8  4  1  1  0  0  0
  8  6  1  0  0  0  0
  9 11  1  0  0  0  0
 10 15  1  0  0  0  0
 12 13  1  0  0  0  0
 13  9  2  0  0  0  0
 14 13  1  0  0  0  0
 14 10  2  0  0  0  0
 15 11  2  0  0  0  0
 16 17  1  0  0  0  0
 17 19  1  0  0  0  0
 19 18  1  1  0  0  0
 19 20  1  0  0  0  0
 20 24  1  0  0  0  0
 21 28  1  0  0  0  0
 21 24  1  0  0  0  0
 22 24  1  0  0  0  0
 22 26  1  0  0  0  0
 23 27  1  6  0  0  0
 23 28  1  0  0  0  0
 23 25  1  0  0  0  0
 25 26  2  0  0  0  0
M  END
>  <MODEL>
5

>  <REMARK>
 VINA RESULT:      -8.3      2.542      3.879
  Name = 
  6 active torsions:
  status: ('A' for Active; 'I' for Inactive)
    1  A    between atoms: C_2  and  C_3
    2  A    between atoms: C_5  and  O_20
    3  A    between atoms: C_5  and  C_21
    4  A    between atoms: C_10  and  N_13
    5  A    between atoms: C_10  and  C_25
    6  A    between atoms: O_20  and  C_25
                            x       y       z     vdW  Elec       q    Type
                         _______ _______ _______ _____ _____    ______ ____

>  <TORSDO>
F 6

$$$$
=
 OpenBabel11052422503D

 28 31  0  0  1  0  0  0  0  0999 V2000
  161.9060  206.2650  148.8960 C   0  0  1  0  0  3  0  0  0  0  0  0
  160.6420  205.5280  149.3560 C   0  0  2  0  0  3  0  0  0  0  0  0
  161.8910  208.7500  150.4570 C   0  0  0  0  0  2  0  0  0  0  0  0
  162.4020  205.5290  151.1510 O   0  0  0  0  0  1  0  0  0  0  0  0
  162.0960  208.7830  148.9320 C   0  0  0  0  0  2  0  0  0  0  0  0
  160.9860  207.6050  150.9120 C   0  0  1  0  0  3  0  0  0  0  0  0
  161.5130  207.5680  148.2020 C   0  0  0  0  0  2  0  0  0  0  0  0
  161.5110  206.2710  150.3670 C   0  0  1  0  0  0  0  0  0  0  0  0
  160.8450  204.0340  149.3710 C   0  0  0  0  0  0  0  0  0  0  0  0
  161.0800  201.2370  149.4340 C   0  0  0  0  0  3  0  0  0  0  0  0
  160.6370  203.3280  150.5650 C   0  0  0  0  0  3  0  0  0  0  0  0
  161.2820  203.9750  146.9760 O   0  0  0  0  0  1  0  0  0  0  0  0
  161.1300  203.3170  148.1910 C   0  0  0  0  0  0  0  0  0  0  0  0
  161.2590  201.9260  148.2320 C   0  0  0  0  0  3  0  0  0  0  0  0
  160.7640  201.9380  150.5990 C   0  0  0  0  0  3  0  0  0  0  0  0
  160.8650  207.5790  152.4280 C   0  0  0  0  0  2  0  0  0  0  0  0
  161.6160  208.6250  152.9870 O   0  0  0  0  0  0  0  0  0  0  0  0
  160.4080  208.7230  154.9700 F   0  0  0  0  0  0  0  0  0  0  0  0
  160.7640  209.3920  153.8060 C   0  0  1  0  0  3  0  0  0  0  0  0
  161.3490  210.7710  154.1060 C   0  0  0  0  0  2  0  0  0  0  0  0
  159.7060  212.0840  155.1260 C   0  0  0  0  0  2  0  0  0  0  0  0
  159.3600  211.2080  152.9720 C   0  0  0  0  0  2  0  0  0  0  0  0
  157.6840  213.3680  154.2370 C   0  0  1  0  0  3  0  0  0  0  0  0
  160.3560  211.8020  153.8520 N   0  0  0  0  0  0  0  0  0  0  0  0
  157.9340  213.2450  152.7560 C   0  0  0  0  0  3  0  0  0  0  0  0
  158.6710  212.2800  152.1850 C   0  0  0  0  0  3  0  0  0  0  0  0
  156.7100  212.3110  154.7340 C   0  0  0  0  0  1  0  0  0  0  0  0
  158.9670  213.4210  155.0730 C   0  0  0  0  0  2  0  0  0  0  0  0
  1  7  1  6  0  0  0
  1  2  1  0  0  0  0
  1  8  1  0  0  0  0
  2  9  1  1  0  0  0
  2  8  1  0  0  0  0
  3  6  1  0  0  0  0
  5  3  1  0  0  0  0
  6 16  1  1  0  0  0
  7  5  1  0  0  0  0
  8  6  1  0  0  0  0
  8  4  1  1  0  0  0
  9 11  1  0  0  0  0
 10 15  1  0  0  0  0
 11 15  2  0  0  0  0
 12 13  1  0  0  0  0
 13 14  1  0  0  0  0
 13  9  2  0  0  0  0
 14 10  2  0  0  0  0
 16 17  1  0  0  0  0
 17 19  1  0  0  0  0
 19 20  1  0  0  0  0
 19 18  1  1  0  0  0
 22 24  1  0  0  0  0
 23 27  1  1  0  0  0
 23 28  1  0  0  0  0
 24 20  1  0  0  0  0
 24 21  1  0  0  0  0
 25 23  1  0  0  0  0
 26 25  2  0  0  0  0
 26 22  1  0  0  0  0
 28 21  1  0  0  0  0
M  END
>  <MODEL>
6

>  <REMARK>
 VINA RESULT:      -8.2      2.597      4.082
  Name = 
  6 active torsions:
  status: ('A' for Active; 'I' for Inactive)
    1  A    between atoms: C_2  and  C_3
    2  A    between atoms: C_5  and  O_20
    3  A    between atoms: C_5  and  C_21
    4  A    between atoms: C_10  and  N_13
    5  A    between atoms: C_10  and  C_25
    6  A    between atoms: O_20  and  C_25
                            x       y       z     vdW  Elec       q    Type
                         _______ _______ _______ _____ _____    ______ ____

>  <TORSDO>
F 6

$$$$
=
 OpenBabel11052422503D

 28 31  0  0  1  0  0  0  0  0999 V2000
  160.6540  203.5100  149.3790 C   0  0  1  0  0  3  0  0  0  0  0  0
  161.8140  204.1330  148.5930 C   0  0  2  0  0  3  0  0  0  0  0  0
  161.0530  204.4690  152.1230 C   0  0  0  0  0  2  0  0  0  0  0  0
  160.1180  205.8680  149.2460 O   0  0  0  0  0  1  0  0  0  0  0  0
  160.8160  202.9740  151.8410 C   0  0  0  0  0  2  0  0  0  0  0  0
  161.8020  205.1770  150.9930 C   0  0  1  0  0  3  0  0  0  0  0  0
  161.2060  202.5410  150.4240 C   0  0  0  0  0  2  0  0  0  0  0  0
  161.0830  204.9430  149.6590 C   0  0  1  0  0  0  0  0  0  0  0  0
  161.4060  204.4830  147.1850 C   0  0  0  0  0  0  0  0  0  0  0  0
  160.7810  205.1930  144.5410 C   0  0  0  0  0  3  0  0  0  0  0  0
  161.3830  205.8300  146.7950 C   0  0  0  0  0  3  0  0  0  0  0  0
  161.2290  202.1380  146.5520 O   0  0  0  0  0  1  0  0  0  0  0  0
  161.1550  203.4850  146.2200 C   0  0  0  0  0  0  0  0  0  0  0  0
  160.8310  203.8470  144.9090 C   0  0  0  0  0  3  0  0  0  0  0  0
  161.0630  206.1850  145.4830 C   0  0  0  0  0  3  0  0  0  0  0  0
  161.9560  206.6600  151.2920 C   0  0  0  0  0  2  0  0  0  0  0  0
  160.7800  207.1570  151.8750 O   0  0  0  0  0  0  0  0  0  0  0  0
  161.7690  207.1490  153.9780 F   0  0  0  0  0  0  0  0  0  0  0  0
  161.1350  207.9150  153.0090 C   0  0  1  0  0  3  0  0  0  0  0  0
  161.9560  209.1480  152.6390 C   0  0  0  0  0  2  0  0  0  0  0  0
  161.0870  210.1140  154.5820 C   0  0  0  0  0  2  0  0  0  0  0  0
  160.0260  210.4480  152.5110 C   0  0  0  0  0  2  0  0  0  0  0  0
  159.4550  212.0320  155.0090 C   0  0  1  0  0  3  0  0  0  0  0  0
  161.3240  210.3470  153.1620 N   0  0  0  0  0  0  0  0  0  0  0  0
  159.3310  212.5780  153.6100 C   0  0  0  0  0  3  0  0  0  0  0  0
  159.5740  211.8750  152.4930 C   0  0  0  0  0  3  0  0  0  0  0  0
  158.3180  211.0780  155.3440 C   0  0  0  0  0  1  0  0  0  0  0  0
  160.8310  211.4320  155.3130 C   0  0  0  0  0  2  0  0  0  0  0  0
  1  8  1  0  0  0  0
  1  7  1  1  0  0  0
  2  9  1  6  0  0  0
  2  1  1  0  0  0  0
  2  8  1  0  0  0  0
  5  3  1  0  0  0  0
  6 16  1  1  0  0  0
  6  3  1  0  0  0  0
  7  5  1  0  0  0  0
  8  4  1  6  0  0  0
  8  6  1  0  0  0  0
 10 14  2  0  0  0  0
 10 15  1  0  0  0  0
 11  9  1  0  0  0  0
 13 12  1  0  0  0  0
 13  9  2  0  0  0  0
 14 13  1  0  0  0  0
 15 11  2  0  0  0  0
 16 17  1  0  0  0  0
 17 19  1  0  0  0  0
 19 18  1  1  0  0  0
 20 19  1  0  0  0  0
 20 24  1  0  0  0  0
 21 28  1  0  0  0  0
 22 24  1  0  0  0  0
 23 28  1  0  0  0  0
 23 27  1  6  0  0  0
 24 21  1  0  0  0  0
 25 23  1  0  0  0  0
 26 22  1  0  0  0  0
 26 25  2  0  0  0  0
M  END
>  <MODEL>
7

>  <REMARK>
 VINA RESULT:      -7.9      1.713      2.384
  Name = 
  6 active torsions:
  status: ('A' for Active; 'I' for Inactive)
    1  A    between atoms: C_2  and  C_3
    2  A    between atoms: C_5  and  O_20
    3  A    between atoms: C_5  and  C_21
    4  A    between atoms: C_10  and  N_13
    5  A    between atoms: C_10  and  C_25
    6  A    between atoms: O_20  and  C_25
                            x       y       z     vdW  Elec       q    Type
                         _______ _______ _______ _____ _____    ______ ____

>  <TORSDO>
F 6

$$$$
=
 OpenBabel11052422503D

 28 31  0  0  1  0  0  0  0  0999 V2000
  160.8900  208.4400  154.6710 C   0  0  1  0  0  3  0  0  0  0  0  0
  159.8020  209.2700  153.9780 C   0  0  2  0  0  3  0  0  0  0  0  0
  161.9560  206.7340  152.5340 C   0  0  0  0  0  2  0  0  0  0  0  0
  162.0990  209.9860  153.2520 O   0  0  0  0  0  1  0  0  0  0  0  0
  161.5380  206.1280  153.8860 C   0  0  0  0  0  2  0  0  0  0  0  0
  161.1130  207.9470  152.1390 C   0  0  1  0  0  3  0  0  0  0  0  0
  160.5000  206.9620  154.6440 C   0  0  0  0  0  2  0  0  0  0  0  0
  161.1230  208.9840  153.2680 C   0  0  1  0  0  0  0  0  0  0  0  0
  159.7160  210.6610  154.5520 C   0  0  0  0  0  0  0  0  0  0  0  0
  159.7020  213.2520  155.6340 C   0  0  0  0  0  3  0  0  0  0  0  0
  160.1530  210.8870  155.8650 C   0  0  0  0  0  3  0  0  0  0  0  0
  158.9290  211.5840  152.4400 O   0  0  0  0  0  1  0  0  0  0  0  0
  159.3100  211.7590  153.7650 C   0  0  0  0  0  0  0  0  0  0  0  0
  159.2940  213.0440  154.3140 C   0  0  0  0  0  3  0  0  0  0  0  0
  160.1370  212.1740  156.4080 C   0  0  0  0  0  3  0  0  0  0  0  0
  161.6050  208.5440  150.8290 C   0  0  0  0  0  2  0  0  0  0  0  0
  162.3520  207.5920  150.1180 O   0  0  0  0  0  0  0  0  0  0  0  0
  162.7510  207.1380  147.8730 F   0  0  0  0  0  0  0  0  0  0  0  0
  161.7970  207.4670  148.8290 C   0  0  1  0  0  3  0  0  0  0  0  0
  160.6180  206.4970  148.8050 C   0  0  0  0  0  2  0  0  0  0  0  0
  160.8310  204.2870  148.0760 C   0  0  0  0  0  2  0  0  0  0  0  0
  160.1520  204.7520  150.2780 C   0  0  0  0  0  2  0  0  0  0  0  0
  161.0530  202.0510  149.2930 C   0  0  1  0  0  3  0  0  0  0  0  0
  161.0520  205.1710  149.2130 N   0  0  0  0  0  0  0  0  0  0  0  0
  161.2390  202.5460  150.7040 C   0  0  0  0  0  3  0  0  0  0  0  0
  160.8310  203.7430  151.1520 C   0  0  0  0  0  3  0  0  0  0  0  0
  159.6050  201.6790  149.0120 C   0  0  0  0  0  1  0  0  0  0  0  0
  161.6310  202.9930  148.2310 C   0  0  0  0  0  2  0  0  0  0  0  0
  1  7  1  6  0  0  0
  2  9  1  1  0  0  0
  2  1  1  0  0  0  0
  3  5  1  0  0  0  0
  5  7  1  0  0  0  0
  6 16  1  6  0  0  0
  6  3  1  0  0  0  0
  6  8  1  0  0  0  0
  8  4  1  6  0  0  0
  8  2  1  0  0  0  0
  8  1  1  0  0  0  0
  9 11  1  0  0  0  0
 10 15  1  0  0  0  0
 11 15  2  0  0  0  0
 12 13  1  0  0  0  0
 13 14  1  0  0  0  0
 13  9  2  0  0  0  0
 14 10  2  0  0  0  0
 17 16  1  0  0  0  0
 19 18  1  6  0  0  0
 19 17  1  0  0  0  0
 20 19  1  0  0  0  0
 20 24  1  0  0  0  0
 21 28  1  0  0  0  0
 21 24  1  0  0  0  0
 22 26  1  0  0  0  0
 23 27  1  6  0  0  0
 23 25  1  0  0  0  0
 24 22  1  0  0  0  0
 25 26  2  0  0  0  0
 28 23  1  0  0  0  0
M  END
>  <MODEL>
8

>  <REMARK>
 VINA RESULT:      -7.9      2.635      8.231
  Name = 
  6 active torsions:
  status: ('A' for Active; 'I' for Inactive)
    1  A    between atoms: C_2  and  C_3
    2  A    between atoms: C_5  and  O_20
    3  A    between atoms: C_5  and  C_21
    4  A    between atoms: C_10  and  N_13
    5  A    between atoms: C_10  and  C_25
    6  A    between atoms: O_20  and  C_25
                            x       y       z     vdW  Elec       q    Type
                         _______ _______ _______ _____ _____    ______ ____

>  <TORSDO>
F 6

$$$$
=
 OpenBabel11052422503D

 28 31  0  0  1  0  0  0  0  0999 V2000
  160.8820  203.9780  149.8020 C   0  0  1  0  0  3  0  0  0  0  0  0
  162.0050  204.6690  149.0190 C   0  0  2  0  0  3  0  0  0  0  0  0
  160.7040  205.5080  152.2990 C   0  0  0  0  0  2  0  0  0  0  0  0
  159.9400  206.0990  149.1080 O   0  0  0  0  0  1  0  0  0  0  0  0
  160.7920  203.9720  152.3260 C   0  0  0  0  0  2  0  0  0  0  0  0
  161.4600  206.1280  151.1230 C   0  0  1  0  0  3  0  0  0  0  0  0
  161.4520  203.3670  151.0820 C   0  0  0  0  0  2  0  0  0  0  0  0
  160.9920  205.4960  149.8060 C   0  0  1  0  0  0  0  0  0  0  0  0
  161.7410  204.6480  147.5350 C   0  0  0  0  0  0  0  0  0  0  0  0
  161.1090  204.5850  144.8000 C   0  0  0  0  0  3  0  0  0  0  0  0
  161.2510  203.4750  146.9440 C   0  0  0  0  0  3  0  0  0  0  0  0
  162.2960  207.0090  147.3090 O   0  0  0  0  0  1  0  0  0  0  0  0
  161.8720  205.8110  146.7470 C   0  0  0  0  0  0  0  0  0  0  0  0
  161.5670  205.7680  145.3830 C   0  0  0  0  0  3  0  0  0  0  0  0
  160.9450  203.4400  145.5820 C   0  0  0  0  0  3  0  0  0  0  0  0
  161.2910  207.6390  151.1070 C   0  0  0  0  0  2  0  0  0  0  0  0
  162.2060  208.2340  151.9900 O   0  0  0  0  0  0  0  0  0  0  0  0
  162.0490  209.9310  150.4090 F   0  0  0  0  0  0  0  0  0  0  0  0
  162.2090  209.6240  151.7540 C   0  0  1  0  0  3  0  0  0  0  0  0
  161.1870  210.3530  152.6240 C   0  0  0  0  0  2  0  0  0  0  0  0
  159.9270  209.6560  154.4650 C   0  0  0  0  0  2  0  0  0  0  0  0
  161.8180  211.0190  154.7660 C   0  0  0  0  0  2  0  0  0  0  0  0
  160.4030  209.5340  156.9720 C   0  0  1  0  0  3  0  0  0  0  0  0
  161.2870  209.9000  154.0010 N   0  0  0  0  0  0  0  0  0  0  0  0
  161.8770  209.8440  156.9670 C   0  0  0  0  0  3  0  0  0  0  0  0
  162.5120  210.5140  155.9940 C   0  0  0  0  0  3  0  0  0  0  0  0
  159.5670  210.7720  157.2590 C   0  0  0  0  0  1  0  0  0  0  0  0
  159.9300  208.7850  155.7210 C   0  0  0  0  0  2  0  0  0  0  0  0
  1  8  1  0  0  0  0
  1  7  1  1  0  0  0
  2  9  1  6  0  0  0
  2  1  1  0  0  0  0
  2  8  1  0  0  0  0
  3  5  1  0  0  0  0
  6 16  1  6  0  0  0
  6  3  1  0  0  0  0
  7  5  1  0  0  0  0
  8  4  1  6  0  0  0
  8  6  1  0  0  0  0
 10 14  2  0  0  0  0
 10 15  1  0  0  0  0
 11  9  1  0  0  0  0
 13 12  1  0  0  0  0
 13  9  2  0  0  0  0
 14 13  1  0  0  0  0
 15 11  2  0  0  0  0
 16 17  1  0  0  0  0
 19 18  1  6  0  0  0
 19 17  1  0  0  0  0
 19 20  1  0  0  0  0
 20 24  1  0  0  0  0
 21 28  1  0  0  0  0
 22 26  1  0  0  0  0
 23 27  1  6  0  0  0
 24 21  1  0  0  0  0
 24 22  1  0  0  0  0
 25 23  1  0  0  0  0
 26 25  2  0  0  0  0
 28 23  1  0  0  0  0
M  END
>  <MODEL>
9

>  <REMARK>
 VINA RESULT:      -7.8      1.099      1.509
  Name = 
  6 active torsions:
  status: ('A' for Active; 'I' for Inactive)
    1  A    between atoms: C_2  and  C_3
    2  A    between atoms: C_5  and  O_20
    3  A    between atoms: C_5  and  C_21
    4  A    between atoms: C_10  and  N_13
    5  A    between atoms: C_10  and  C_25
    6  A    between atoms: O_20  and  C_25
                            x       y       z     vdW  Elec       q    Type
                         _______ _______ _______ _____ _____    ______ ____

>  <TORSDO>
F 6

$$$$
