=
 OpenBabel11062408423D

 55 59  0  0  1  0  0  0  0  0999 V2000
  159.9640  207.8270  156.2810 C   0  0  0  0  0  2  0  0  0  0  0  0
  162.1840  211.5980  151.6650 O   0  0  0  0  0  0  0  0  0  0  0  0
  159.3010  213.5390  150.5880 N   0  0  0  0  0  2  0  0  0  0  0  0
  156.3410  214.0610  151.0090 C   0  0  0  0  0  3  0  0  0  0  0  0
  155.2430  214.4520  151.7780 C   0  0  0  0  0  3  0  0  0  0  0  0
  156.7260  212.1800  152.4990 C   0  0  0  0  0  0  0  0  0  0  0  0
  155.6180  212.5820  153.2640 C   0  0  0  0  0  3  0  0  0  0  0  0
  157.8650  212.2330  149.0970 C   0  0  0  0  0  1  0  0  0  0  0  0
  154.8810  213.7120  152.9050 C   0  0  0  0  0  3  0  0  0  0  0  0
  157.0830  212.9210  151.3580 C   0  0  0  0  0  0  0  0  0  0  0  0
  162.1670  208.4680  155.7970 C   0  0  1  0  0  3  0  0  0  0  0  0
  157.7220  208.0910  155.1530 C   0  0  0  0  0  2  0  0  0  0  0  0
  162.9310  209.7930  155.7730 C   0  0  0  0  0  2  0  0  0  0  0  0
  158.0730  209.0340  154.0070 C   0  0  0  0  0  2  0  0  0  0  0  0
  163.1410  210.3540  154.3690 C   0  0  0  0  0  2  0  0  0  0  0  0
  157.4830  211.0560  152.8570 O   0  0  0  0  0  0  0  0  0  0  0  0
  161.1690  212.5590  151.8090 C   0  0  0  0  0  2  0  0  0  0  0  0
  160.5890  212.8760  150.4430 C   0  0  0  0  0  2  0  0  0  0  0  0
  161.9140  210.5190  152.5370 C   0  0  1  0  0  3  0  0  0  0  0  0
  158.5530  208.3820  156.3970 C   0  0  0  0  0  2  0  0  0  0  0  0
  158.2700  212.5100  150.5370 C   0  0  2  0  0  3  0  0  0  0  0  0
  160.7760  208.6690  155.4150 N   0  0  0  0  0  2  0  0  0  0  0  0
  161.9590  210.9130  153.8790 O   0  0  0  0  0  0  0  0  0  0  0  0
  157.3300  210.3640  154.0940 C   0  0  2  0  0  3  0  0  0  0  0  0
  158.9950  214.1960  156.5740 C   0  0  0  0  0  2  0  0  0  0  0  0
  157.8580  211.2080  155.2120 C   0  0  0  0  0  0  0  0  0  0  0  0
  161.3800  213.5570  156.3220 C   0  0  0  0  0  1  0  0  0  0  0  0
  159.0400  212.6880  156.5060 C   0  0  2  0  0  0  0  0  0  0  0  0
  157.3300  211.2100  156.4310 C   0  0  0  0  0  3  0  0  0  0  0  0
  158.0120  212.0880  157.2590 O   0  0  0  0  0  0  0  0  0  0  0  0
  160.1560  213.4370  157.2100 C   0  0  2  0  0  3  0  0  0  0  0  0
  159.0220  212.1430  155.0920 C   0  0  0  0  0  2  0  0  0  0  0  0
  160.6020  209.8070  152.2180 C   0  0  0  0  0  2  0  0  0  0  0  0
  160.6890  209.0860  150.8830 C   0  0  0  0  0  2  0  0  0  0  0  0
  159.5540  206.5030  149.1860 C   0  0  0  0  0  1  0  0  0  0  0  0
  162.4290  208.3050  149.4510 C   0  0  0  0  0  2  0  0  0  0  0  0
  161.6630  205.8560  150.1930 C   0  0  2  0  0  3  0  0  0  0  0  0
  161.9020  208.2790  150.8220 N   0  0  0  0  0  0  0  0  0  0  0  0
  161.5970  206.9180  151.2990 C   0  0  0  0  0  2  0  0  0  0  0  0
  160.9780  206.2810  148.9570 N   0  0  0  0  0  0  0  0  0  0  0  0
  161.5330  207.5440  148.4450 C   0  0  2  0  0  3  0  0  0  0  0  0
  162.0950  204.0730  151.9210 C   0  0  0  0  0  1  0  0  0  0  0  0
  161.4870  203.3720  149.6070 C   0  0  0  0  0  1  0  0  0  0  0  0
  161.3120  204.4400  150.6740 C   0  0  0  0  0  3  0  0  0  0  0  0
  162.2480  207.2980  147.2720 O   0  0  0  0  0  0  0  0  0  0  0  0
  162.8650  206.0590  147.4740 C   0  0  0  0  0  2  0  0  0  0  0  0
  163.0370  205.3240  146.1520 C   0  0  2  0  0  3  0  0  0  0  0  0
  162.5460  206.1080  145.1050 O   0  0  0  0  0  1  0  0  0  0  0  0
  162.3570  204.1040  146.1830 O   0  0  0  0  0  0  0  0  0  0  0  0
  160.5520  203.4130  144.7980 C   0  0  0  0  0  1  0  0  0  0  0  0
  161.0450  204.4150  145.8210 C   0  0  0  0  0  2  0  0  0  0  0  0
  162.8360  207.4210  154.9070 C   0  0  0  0  0  2  0  0  0  0  0  0
  161.9940  207.0570  153.8220 O   0  0  0  0  0  0  0  0  0  0  0  0
  160.3910  205.1130  154.0260 N   0  0  0  0  0  0  0  0  0  0  0  0
  161.1260  206.0040  153.9310 C   0  0  0  0  0  0  0  0  0  0  0  0
  1 20  1  0  0  0  0
  2 17  1  0  0  0  0
  2 19  1  0  0  0  0
  4 10  2  0  0  0  0
  4  5  1  0  0  0  0
  5  9  2  0  0  0  0
  6 16  1  0  0  0  0
  6  7  2  0  0  0  0
  9  7  1  0  0  0  0
 10  6  1  0  0  0  0
 11 52  1  6  0  0  0
 12 20  1  0  0  0  0
 13 11  1  0  0  0  0
 14 24  1  0  0  0  0
 14 12  1  0  0  0  0
 15 13  1  0  0  0  0
 16 24  1  0  0  0  0
 18  3  1  0  0  0  0
 18 17  1  0  0  0  0
 19 33  1  6  0  0  0
 19 23  1  0  0  0  0
 21  8  1  6  0  0  0
 21  3  1  0  0  0  0
 21 10  1  0  0  0  0
 22 11  1  0  0  0  0
 22  1  1  0  0  0  0
 23 15  1  0  0  0  0
 24 26  1  1  0  0  0
 25 31  1  0  0  0  0
 26 29  2  0  0  0  0
 28 32  1  6  0  0  0
 28 25  1  0  0  0  0
 28 31  1  0  0  0  0
 28 30  1  0  0  0  0
 29 30  1  0  0  0  0
 31 27  1  6  0  0  0
 32 26  1  0  0  0  0
 34 33  1  0  0  0  0
 36 38  1  0  0  0  0
 37 44  1  1  0  0  0
 37 39  1  0  0  0  0
 38 34  1  0  0  0  0
 38 39  1  0  0  0  0
 40 35  1  0  0  0  0
 40 37  1  0  0  0  0
 41 45  1  6  0  0  0
 41 40  1  0  0  0  0
 41 36  1  0  0  0  0
 43 44  1  0  0  0  0
 44 42  1  0  0  0  0
 45 46  1  0  0  0  0
 47 48  1  6  0  0  0
 47 49  1  0  0  0  0
 47 46  1  0  0  0  0
 50 51  1  0  0  0  0
 51 49  1  0  0  0  0
 53 55  1  0  0  0  0
 53 52  1  0  0  0  0
 55 54  3  0  0  0  0
M  END
>  <MODEL>
1

>  <REMARK>
 VINA RESULT:      14.5      0.000      0.000
  Name = 
  13 active torsions:
  status: ('A' for Active; 'I' for Inactive)
    1  A    between atoms: C_3  and  C_6
    2  A    between atoms: C_3  and  O_21
    3  A    between atoms: C_6  and  O_25
    4  A    between atoms: C_8  and  N_20
    5  A    between atoms: C_8  and  C_22
    6  A    between atoms: C_12  and  C_50
    7  A    between atoms: C_13  and  C_52
    8  A    between atoms: O_21  and  C_53
    9  A    between atoms: C_22  and  C_43
   10  A    between atoms: O_25  and  C_38
   11  A    between atoms: C_27  and  C_54
   12  A    between atoms: C_41  and  O_55
   13  A    between atoms: C_54  and  O_55
                            x       y       z     vdW  Elec       q    Type
                         _______ _______ _______ _____ _____    ______ ____

>  <TORSDO>
F 13

$$$$
=
 OpenBabel11062408423D

 55 59  0  0  1  0  0  0  0  0999 V2000
  161.3000  205.5360  154.3410 C   0  0  0  0  0  2  0  0  0  0  0  0
  162.4480  209.5540  149.5470 O   0  0  0  0  0  0  0  0  0  0  0  0
  160.7020  212.6120  150.4630 N   0  0  0  0  0  2  0  0  0  0  0  0
  158.9670  213.9700  152.5500 C   0  0  0  0  0  3  0  0  0  0  0  0
  158.7140  214.4530  153.8360 C   0  0  0  0  0  3  0  0  0  0  0  0
  159.0990  211.7040  153.4190 C   0  0  0  0  0  0  0  0  0  0  0  0
  158.8430  212.2010  154.7070 C   0  0  0  0  0  3  0  0  0  0  0  0
  158.3050  212.4340  149.9970 C   0  0  0  0  0  1  0  0  0  0  0  0
  158.6510  213.5680  154.9150 C   0  0  0  0  0  3  0  0  0  0  0  0
  159.1520  212.5950  152.3330 C   0  0  0  0  0  0  0  0  0  0  0  0
  162.9890  205.4880  152.7150 C   0  0  1  0  0  3  0  0  0  0  0  0
  159.2200  206.9070  154.7380 C   0  0  0  0  0  2  0  0  0  0  0  0
  164.1590  206.3980  152.3400 C   0  0  0  0  0  2  0  0  0  0  0  0
  159.3590  207.9810  153.6630 C   0  0  0  0  0  2  0  0  0  0  0  0
  163.8920  207.2660  151.1130 C   0  0  0  0  0  2  0  0  0  0  0  0
  159.3080  210.3350  153.1990 O   0  0  0  0  0  0  0  0  0  0  0  0
  162.2180  210.7100  150.3120 C   0  0  0  0  0  2  0  0  0  0  0  0
  161.2710  211.6250  149.5580 C   0  0  0  0  0  2  0  0  0  0  0  0
  162.1710  208.4200  150.3430 C   0  0  1  0  0  3  0  0  0  0  0  0
  160.5750  206.4800  155.2880 C   0  0  0  0  0  2  0  0  0  0  0  0
  159.4360  212.0800  150.9520 C   0  0  2  0  0  3  0  0  0  0  0  0
  161.8710  206.2710  153.2220 N   0  0  0  0  0  2  0  0  0  0  0  0
  163.0420  208.3260  151.4340 O   0  0  0  0  0  0  0  0  0  0  0  0
  159.4750  209.3850  154.2500 C   0  0  2  0  0  3  0  0  0  0  0  0
  163.3940  211.5650  156.1190 C   0  0  0  0  0  2  0  0  0  0  0  0
  160.8040  209.5910  154.9080 C   0  0  0  0  0  0  0  0  0  0  0  0
  164.7820  211.2200  154.0900 C   0  0  0  0  0  1  0  0  0  0  0  0
  162.9150  210.2870  155.4720 C   0  0  2  0  0  0  0  0  0  0  0  0
  161.1600  208.9750  156.0300 C   0  0  0  0  0  3  0  0  0  0  0  0
  162.4360  209.3570  156.4150 O   0  0  0  0  0  0  0  0  0  0  0  0
  164.3920  210.6350  155.4330 C   0  0  2  0  0  3  0  0  0  0  0  0
  161.8710  210.5070  154.3950 C   0  0  0  0  0  2  0  0  0  0  0  0
  160.7140  208.3500  150.7960 C   0  0  0  0  0  2  0  0  0  0  0  0
  160.2710  206.9080  150.9740 C   0  0  0  0  0  2  0  0  0  0  0  0
  162.5640  205.4200  149.1370 C   0  0  0  0  0  1  0  0  0  0  0  0
  159.2690  205.0310  149.8950 C   0  0  0  0  0  2  0  0  0  0  0  0
  160.6270  205.8070  147.7300 C   0  0  2  0  0  3  0  0  0  0  0  0
  159.4490  206.4880  149.8440 N   0  0  0  0  0  0  0  0  0  0  0  0
  160.0790  206.9500  148.5940 C   0  0  0  0  0  2  0  0  0  0  0  0
  161.3900  204.8170  148.5160 N   0  0  0  0  0  0  0  0  0  0  0  0
  160.5720  204.2510  149.6010 C   0  0  2  0  0  3  0  0  0  0  0  0
  160.3340  206.3610  145.2890 C   0  0  0  0  0  1  0  0  0  0  0  0
  162.5230  205.4430  146.0500 C   0  0  0  0  0  1  0  0  0  0  0  0
  161.3170  206.2810  146.4420 C   0  0  0  0  0  3  0  0  0  0  0  0
  160.2670  202.9200  149.3090 O   0  0  0  0  0  0  0  0  0  0  0  0
  160.5320  202.7760  147.9440 C   0  0  0  0  0  2  0  0  0  0  0  0
  160.7550  201.3110  147.5930 C   0  0  2  0  0  3  0  0  0  0  0  0
  161.5490  200.7050  148.5700 O   0  0  0  0  0  1  0  0  0  0  0  0
  161.3770  201.2000  146.3470 O   0  0  0  0  0  0  0  0  0  0  0  0
  159.8520  201.6240  144.5720 C   0  0  0  0  0  1  0  0  0  0  0  0
  160.8180  202.2210  145.5750 C   0  0  0  0  0  2  0  0  0  0  0  0
  162.5600  204.6150  151.5370 C   0  0  0  0  0  2  0  0  0  0  0  0
  162.3330  203.2740  151.9480 O   0  0  0  0  0  0  0  0  0  0  0  0
  160.0290  202.5050  152.6470 N   0  0  0  0  0  0  0  0  0  0  0  0
  161.0850  202.8580  152.3280 C   0  0  0  0  0  0  0  0  0  0  0  0
  1 20  1  0  0  0  0
  2 17  1  0  0  0  0
  2 19  1  0  0  0  0
  3 21  1  0  0  0  0
  4  5  1  0  0  0  0
  5  9  2  0  0  0  0
  6  7  2  0  0  0  0
  7  9  1  0  0  0  0
 10  4  2  0  0  0  0
 10  6  1  0  0  0  0
 11 52  1  6  0  0  0
 11 22  1  0  0  0  0
 12 20  1  0  0  0  0
 13 11  1  0  0  0  0
 14 24  1  0  0  0  0
 14 12  1  0  0  0  0
 15 23  1  0  0  0  0
 15 13  1  0  0  0  0
 16  6  1  0  0  0  0
 16 24  1  0  0  0  0
 18 17  1  0  0  0  0
 18  3  1  0  0  0  0
 19 33  1  1  0  0  0
 19 23  1  0  0  0  0
 21  8  1  6  0  0  0
 21 10  1  0  0  0  0
 22  1  1  0  0  0  0
 24 26  1  6  0  0  0
 26 29  2  0  0  0  0
 28 32  1  6  0  0  0
 28 25  1  0  0  0  0
 28 30  1  0  0  0  0
 29 30  1  0  0  0  0
 31 27  1  6  0  0  0
 31 28  1  0  0  0  0
 31 25  1  0  0  0  0
 32 26  1  0  0  0  0
 33 34  1  0  0  0  0
 37 44  1  6  0  0  0
 37 40  1  0  0  0  0
 37 39  1  0  0  0  0
 38 36  1  0  0  0  0
 38 34  1  0  0  0  0
 39 38  1  0  0  0  0
 40 35  1  0  0  0  0
 40 41  1  0  0  0  0
 41 45  1  6  0  0  0
 41 36  1  0  0  0  0
 42 44  1  0  0  0  0
 43 44  1  0  0  0  0
 46 45  1  0  0  0  0
 47 46  1  0  0  0  0
 47 48  1  1  0  0  0
 49 47  1  0  0  0  0
 50 51  1  0  0  0  0
 51 49  1  0  0  0  0
 52 53  1  0  0  0  0
 53 55  1  0  0  0  0
 55 54  3  0  0  0  0
M  END
>  <MODEL>
2

>  <REMARK>
 VINA RESULT:      16.4      2.275      3.712
  Name = 
  13 active torsions:
  status: ('A' for Active; 'I' for Inactive)
    1  A    between atoms: C_3  and  C_6
    2  A    between atoms: C_3  and  O_21
    3  A    between atoms: C_6  and  O_25
    4  A    between atoms: C_8  and  N_20
    5  A    between atoms: C_8  and  C_22
    6  A    between atoms: C_12  and  C_50
    7  A    between atoms: C_13  and  C_52
    8  A    between atoms: O_21  and  C_53
    9  A    between atoms: C_22  and  C_43
   10  A    between atoms: O_25  and  C_38
   11  A    between atoms: C_27  and  C_54
   12  A    between atoms: C_41  and  O_55
   13  A    between atoms: C_54  and  O_55
                            x       y       z     vdW  Elec       q    Type
                         _______ _______ _______ _____ _____    ______ ____

>  <TORSDO>
F 13

$$$$
