=
 OpenBabel11062409073D

 37 41  0  0  1  0  0  0  0  0999 V2000
  161.5170  210.4750  155.4010 C   0  0  0  0  0  0  0  0  0  0  0  0
  158.8010  212.1240  156.2550 C   0  0  0  0  0  0  0  0  0  0  0  0
  160.0220  211.3240  152.3040 C   0  0  2  0  0  3  0  0  0  0  0  0
  160.3880  209.9730  156.2530 C   0  0  2  0  0  0  0  0  0  0  0  0
  161.5620  209.6860  151.2440 C   0  0  1  0  0  3  0  0  0  0  0  0
  157.9700  213.7550  154.4380 C   0  0  0  0  0  3  0  0  0  0  0  0
  162.9140  210.3350  153.3400 C   0  0  0  0  0  2  0  0  0  0  0  0
  159.2110  209.7440  155.2960 C   0  0  2  0  0  3  0  0  0  0  0  0
  160.1060  212.7550  154.2660 O   0  0  0  0  0  0  0  0  0  0  0  0
  158.1030  214.3080  153.2310 C   0  0  0  0  0  3  0  0  0  0  0  0
  159.6210  207.2730  154.8710 C   0  0  0  0  0  2  0  0  0  0  0  0
  162.1070  211.5410  155.7230 O   0  0  0  0  0  0  0  0  0  0  0  0
  159.0100  210.6090  156.5240 C   0  0  2  0  0  3  0  0  0  0  0  0
  159.0530  213.7230  152.2190 C   0  0  0  0  0  2  0  0  0  0  0  0
  159.8150  212.9390  157.0460 C   0  0  0  0  0  1  0  0  0  0  0  0
  160.5250  207.7610  153.7360 C   0  0  0  0  0  2  0  0  0  0  0  0
  162.9220  209.6850  151.9520 C   0  0  0  0  0  2  0  0  0  0  0  0
  160.0800  212.7490  152.8500 C   0  0  2  0  0  3  0  0  0  0  0  0
  161.9810  209.7000  154.2720 N   0  0  0  0  0  0  0  0  0  0  0  0
  158.7990  212.5370  154.7520 C   0  0  1  0  0  3  0  0  0  0  0  0
  160.9660  211.1010  151.1220 C   0  0  1  0  0  3  0  0  0  0  0  0
  157.4410  212.4200  156.8740 C   0  0  0  0  0  1  0  0  0  0  0  0
  161.8700  208.2370  154.2880 C   0  0  0  0  0  2  0  0  0  0  0  0
  158.6350  208.3340  155.3870 C   0  0  0  0  0  2  0  0  0  0  0  0
  158.7150  210.8960  152.0440 O   0  0  0  0  0  1  0  0  0  0  0  0
  162.3310  209.4150  148.8450 C   0  0  0  0  0  3  0  0  0  0  0  0
  161.6480  208.9080  149.9620 C   0  0  0  0  0  0  0  0  0  0  0  0
  161.0170  207.6620  149.8790 C   0  0  0  0  0  3  0  0  0  0  0  0
  160.4610  205.7170  148.6170 F   0  0  0  0  0  0  0  0  0  0  0  0
  161.7560  207.4310  147.5840 C   0  0  0  0  0  3  0  0  0  0  0  0
  161.0710  206.9240  148.6920 C   0  0  0  0  0  0  0  0  0  0  0  0
  162.3850  208.6770  147.6600 C   0  0  0  0  0  3  0  0  0  0  0  0
  162.2300  208.6140  157.2610 C   0  0  0  0  0  1  0  0  0  0  0  0
  160.7370  208.8760  157.2610 C   0  0  0  0  0  2  0  0  0  0  0  0
  160.2860  211.4060  149.7810 C   0  0  0  0  0  2  0  0  0  0  0  0
  160.7410  212.6180  147.7760 O   0  0  0  0  0  1  0  0  0  0  0  0
  160.8470  212.6760  149.1660 C   0  0  0  0  0  2  0  0  0  0  0  0
  1 12  2  0  0  0  0
  1  4  1  0  0  0  0
  2 22  1  0  0  0  0
  2 15  1  0  0  0  0
  3 25  1  6  0  0  0
  3 18  1  0  0  0  0
  4 13  1  0  0  0  0
  4 34  1  1  0  0  0
  5 27  1  6  0  0  0
  5 17  1  0  0  0  0
  7 19  1  0  0  0  0
  8 24  1  1  0  0  0
  8  4  1  0  0  0  0
  8 13  1  0  0  0  0
  9 20  1  0  0  0  0
 10  6  2  0  0  0  0
 11 24  1  0  0  0  0
 13  2  1  6  0  0  0
 14 10  1  0  0  0  0
 16 23  1  0  0  0  0
 16 11  1  0  0  0  0
 17  7  1  0  0  0  0
 18 14  1  1  0  0  0
 18  9  1  0  0  0  0
 19 23  1  0  0  0  0
 19  1  1  0  0  0  0
 20  6  1  1  0  0  0
 20  2  1  0  0  0  0
 21 35  1  6  0  0  0
 21  5  1  0  0  0  0
 21  3  1  0  0  0  0
 26 27  1  0  0  0  0
 28 27  2  0  0  0  0
 29 31  1  0  0  0  0
 30 32  1  0  0  0  0
 30 31  2  0  0  0  0
 31 28  1  0  0  0  0
 32 26  2  0  0  0  0
 33 34  1  0  0  0  0
 36 37  1  0  0  0  0
 37 35  1  0  0  0  0
M  END
>  <MODEL>
1

>  <REMARK>
 VINA RESULT:       1.6      0.000      0.000
  Name = 
  4 active torsions:
  status: ('A' for Active; 'I' for Inactive)
    1  A    between atoms: C_5  and  C_23
    2  A    between atoms: C_6  and  C_7
    3  A    between atoms: C_14  and  C_31
    4  A    between atoms: C_14  and  C_37
                            x       y       z     vdW  Elec       q    Type
                         _______ _______ _______ _____ _____    ______ ____

>  <TORSDO>
F 4

$$$$
=
 OpenBabel11062409073D

 37 41  0  0  1  0  0  0  0  0999 V2000
  160.7100  211.1410  139.8810 C   0  0  0  0  0  0  0  0  0  0  0  0
  158.7650  213.0450  138.0330 C   0  0  0  0  0  0  0  0  0  0  0  0
  158.8950  213.0570  142.2440 C   0  0  2  0  0  3  0  0  0  0  0  0
  161.1430  212.1240  138.8330 C   0  0  2  0  0  0  0  0  0  0  0  0
  160.5380  212.2980  143.9480 C   0  0  1  0  0  3  0  0  0  0  0  0
  156.6300  213.8310  139.2520 C   0  0  0  0  0  3  0  0  0  0  0  0
  160.6730  210.3630  142.2500 C   0  0  0  0  0  2  0  0  0  0  0  0
  160.9010  213.5140  139.4370 C   0  0  2  0  0  3  0  0  0  0  0  0
  157.9900  212.1350  140.1850 O   0  0  0  0  0  0  0  0  0  0  0  0
  155.8610  213.8500  140.3420 C   0  0  0  0  0  3  0  0  0  0  0  0
  163.2420  213.8780  140.3510 C   0  0  0  0  0  2  0  0  0  0  0  0
  159.8910  210.2330  139.5750 O   0  0  0  0  0  0  0  0  0  0  0  0
  160.3100  213.1820  138.0810 C   0  0  2  0  0  3  0  0  0  0  0  0
  156.3900  213.3560  141.6630 C   0  0  0  0  0  2  0  0  0  0  0  0
  158.3780  211.6950  137.4460 C   0  0  0  0  0  1  0  0  0  0  0  0
  162.7130  213.1760  141.6040 C   0  0  0  0  0  2  0  0  0  0  0  0
  160.9820  210.8580  143.6670 C   0  0  0  0  0  2  0  0  0  0  0  0
  157.6730  212.5000  141.5160 C   0  0  2  0  0  3  0  0  0  0  0  0
  161.2910  211.1790  141.2040 N   0  0  0  0  0  0  0  0  0  0  0  0
  158.0340  213.2980  139.3880 C   0  0  1  0  0  3  0  0  0  0  0  0
  159.0390  212.5150  143.6660 C   0  0  1  0  0  3  0  0  0  0  0  0
  158.3380  214.0920  137.0120 C   0  0  0  0  0  1  0  0  0  0  0  0
  162.6640  211.6620  141.3910 C   0  0  0  0  0  2  0  0  0  0  0  0
  162.1430  214.3990  139.4130 C   0  0  0  0  0  2  0  0  0  0  0  0
  158.9710  214.4530  142.1840 O   0  0  0  0  0  1  0  0  0  0  0  0
  161.5040  214.0210  145.5340 C   0  0  0  0  0  3  0  0  0  0  0  0
  161.0080  212.7280  145.3080 C   0  0  0  0  0  0  0  0  0  0  0  0
  160.9650  211.8100  146.3640 C   0  0  0  0  0  3  0  0  0  0  0  0
  161.3630  211.2910  148.6560 F   0  0  0  0  0  0  0  0  0  0  0  0
  161.8990  213.4720  147.8580 C   0  0  0  0  0  3  0  0  0  0  0  0
  161.4090  212.1820  147.6370 C   0  0  0  0  0  0  0  0  0  0  0  0
  161.9470  214.3920  146.8060 C   0  0  0  0  0  3  0  0  0  0  0  0
  162.4040  210.5800  137.3230 C   0  0  0  0  0  1  0  0  0  0  0  0
  162.4860  211.8440  138.1570 C   0  0  0  0  0  2  0  0  0  0  0  0
  158.3060  213.3910  144.6900 C   0  0  0  0  0  2  0  0  0  0  0  0
  157.1360  213.1830  146.7590 O   0  0  0  0  0  1  0  0  0  0  0  0
  157.3520  212.5600  145.5300 C   0  0  0  0  0  2  0  0  0  0  0  0
  1 19  1  0  0  0  0
  2 20  1  0  0  0  0
  3 25  1  1  0  0  0
  3 21  1  0  0  0  0
  4 34  1  6  0  0  0
  4  8  1  0  0  0  0
  4  1  1  0  0  0  0
  5 27  1  1  0  0  0
  6 10  2  0  0  0  0
  7 17  1  0  0  0  0
  8 24  1  6  0  0  0
  9 18  1  0  0  0  0
 10 14  1  0  0  0  0
 11 16  1  0  0  0  0
 12  1  2  0  0  0  0
 13  2  1  1  0  0  0
 13  4  1  0  0  0  0
 13  8  1  0  0  0  0
 15  2  1  0  0  0  0
 17  5  1  0  0  0  0
 18 14  1  6  0  0  0
 18  3  1  0  0  0  0
 19 23  1  0  0  0  0
 19  7  1  0  0  0  0
 20  6  1  6  0  0  0
 20  9  1  0  0  0  0
 21  5  1  0  0  0  0
 21 35  1  1  0  0  0
 22  2  1  0  0  0  0
 23 16  1  0  0  0  0
 24 11  1  0  0  0  0
 26 32  1  0  0  0  0
 27 26  2  0  0  0  0
 27 28  1  0  0  0  0
 28 31  2  0  0  0  0
 31 30  1  0  0  0  0
 31 29  1  0  0  0  0
 32 30  2  0  0  0  0
 33 34  1  0  0  0  0
 35 37  1  0  0  0  0
 37 36  1  0  0  0  0
M  END
>  <MODEL>
2

>  <REMARK>
 VINA RESULT:       4.0      8.093     13.129
  Name = 
  4 active torsions:
  status: ('A' for Active; 'I' for Inactive)
    1  A    between atoms: C_5  and  C_23
    2  A    between atoms: C_6  and  C_7
    3  A    between atoms: C_14  and  C_31
    4  A    between atoms: C_14  and  C_37
                            x       y       z     vdW  Elec       q    Type
                         _______ _______ _______ _____ _____    ______ ____

>  <TORSDO>
F 4

$$$$
=
 OpenBabel11062409073D

 37 41  0  0  1  0  0  0  0  0999 V2000
  160.0870  213.9790  150.1090 C   0  0  0  0  0  0  0  0  0  0  0  0
  161.3590  211.4820  148.3850 C   0  0  0  0  0  0  0  0  0  0  0  0
  159.8880  211.2210  152.3230 C   0  0  2  0  0  3  0  0  0  0  0  0
  159.6010  213.4540  148.7900 C   0  0  2  0  0  0  0  0  0  0  0  0
  158.3610  212.6000  153.7180 C   0  0  1  0  0  3  0  0  0  0  0  0
  162.3320  209.6000  149.8580 C   0  0  0  0  0  3  0  0  0  0  0  0
  159.7260  214.4380  152.5340 C   0  0  0  0  0  2  0  0  0  0  0  0
  158.9380  212.1040  149.0950 C   0  0  2  0  0  3  0  0  0  0  0  0
  161.7330  211.6810  150.8090 O   0  0  0  0  0  0  0  0  0  0  0  0
  162.5980  209.0960  151.0640 C   0  0  0  0  0  3  0  0  0  0  0  0
  156.5570  212.9610  149.3180 C   0  0  0  0  0  2  0  0  0  0  0  0
  161.2890  214.3390  150.2250 O   0  0  0  0  0  0  0  0  0  0  0  0
  160.0160  212.1770  148.0320 C   0  0  2  0  0  3  0  0  0  0  0  0
  161.9770  209.6930  152.3000 C   0  0  0  0  0  2  0  0  0  0  0  0
  162.5110  212.4660  148.2360 C   0  0  0  0  0  1  0  0  0  0  0  0
  156.9210  213.1810  150.7880 C   0  0  0  0  0  2  0  0  0  0  0  0
  158.7790  214.0750  153.6830 C   0  0  0  0  0  2  0  0  0  0  0  0
  161.3870  211.1050  152.0560 C   0  0  2  0  0  3  0  0  0  0  0  0
  159.1680  214.1520  151.2110 N   0  0  0  0  0  0  0  0  0  0  0  0
  161.3970  210.7800  149.7770 C   0  0  1  0  0  3  0  0  0  0  0  0
  159.5710  211.6480  153.7570 C   0  0  1  0  0  3  0  0  0  0  0  0
  161.5350  210.4480  147.2790 C   0  0  0  0  0  1  0  0  0  0  0  0
  157.7550  214.4530  150.9500 C   0  0  0  0  0  2  0  0  0  0  0  0
  157.5080  212.0110  148.5720 C   0  0  0  0  0  2  0  0  0  0  0  0
  159.1770  210.0840  151.9250 O   0  0  0  0  0  1  0  0  0  0  0  0
  157.2720  213.2070  155.9230 C   0  0  0  0  0  3  0  0  0  0  0  0
  157.3320  212.3810  154.7900 C   0  0  0  0  0  0  0  0  0  0  0  0
  156.4300  211.3190  154.6600 C   0  0  0  0  0  3  0  0  0  0  0  0
  154.5970  210.0590  155.5190 F   0  0  0  0  0  0  0  0  0  0  0  0
  155.4120  211.9140  156.7760 C   0  0  0  0  0  3  0  0  0  0  0  0
  155.4700  211.0870  155.6500 C   0  0  0  0  0  0  0  0  0  0  0  0
  156.3130  212.9740  156.9120 C   0  0  0  0  0  3  0  0  0  0  0  0
  159.3550  214.3550  146.4690 C   0  0  0  0  0  1  0  0  0  0  0  0
  158.8570  214.4510  147.8980 C   0  0  0  0  0  2  0  0  0  0  0  0
  159.4200  210.4420  154.6930 C   0  0  0  0  0  2  0  0  0  0  0  0
  160.6740  209.0560  156.1770 O   0  0  0  0  0  1  0  0  0  0  0  0
  160.5990  210.3440  155.6440 C   0  0  0  0  0  2  0  0  0  0  0  0
  1 12  2  0  0  0  0
  1 19  1  0  0  0  0
  2 20  1  0  0  0  0
  3 25  1  1  0  0  0
  3 21  1  0  0  0  0
  4 34  1  6  0  0  0
  4  8  1  0  0  0  0
  4  1  1  0  0  0  0
  5 21  1  0  0  0  0
  5 27  1  1  0  0  0
  6 10  2  0  0  0  0
  7 17  1  0  0  0  0
  8 24  1  6  0  0  0
  9 18  1  0  0  0  0
 10 14  1  0  0  0  0
 11 16  1  0  0  0  0
 13  2  1  1  0  0  0
 13  4  1  0  0  0  0
 13  8  1  0  0  0  0
 15  2  1  0  0  0  0
 16 23  1  0  0  0  0
 17  5  1  0  0  0  0
 18 14  1  6  0  0  0
 18  3  1  0  0  0  0
 19  7  1  0  0  0  0
 20  6  1  6  0  0  0
 20  9  1  0  0  0  0
 21 35  1  1  0  0  0
 22  2  1  0  0  0  0
 23 19  1  0  0  0  0
 24 11  1  0  0  0  0
 26 32  1  0  0  0  0
 27 26  2  0  0  0  0
 28 27  1  0  0  0  0
 28 31  2  0  0  0  0
 29 31  1  0  0  0  0
 30 32  2  0  0  0  0
 31 30  1  0  0  0  0
 33 34  1  0  0  0  0
 35 37  1  0  0  0  0
 37 36  1  0  0  0  0
M  END
>  <MODEL>
3

>  <REMARK>
 VINA RESULT:       4.2      2.757      7.777
  Name = 
  4 active torsions:
  status: ('A' for Active; 'I' for Inactive)
    1  A    between atoms: C_5  and  C_23
    2  A    between atoms: C_6  and  C_7
    3  A    between atoms: C_14  and  C_31
    4  A    between atoms: C_14  and  C_37
                            x       y       z     vdW  Elec       q    Type
                         _______ _______ _______ _____ _____    ______ ____

>  <TORSDO>
F 4

$$$$
=
 OpenBabel11062409073D

 37 41  0  0  1  0  0  0  0  0999 V2000
  162.6980  209.7160  151.6450 C   0  0  0  0  0  0  0  0  0  0  0  0
  160.8500  208.8390  154.2220 C   0  0  0  0  0  0  0  0  0  0  0  0
  159.7960  211.7230  151.3380 C   0  0  2  0  0  3  0  0  0  0  0  0
  162.1890  208.3410  151.9630 C   0  0  2  0  0  0  0  0  0  0  0  0
  160.5370  212.2380  149.0220 C   0  0  1  0  0  3  0  0  0  0  0  0
  159.1900  210.6670  154.9700 C   0  0  0  0  0  3  0  0  0  0  0  0
  162.7950  211.7080  150.1470 C   0  0  0  0  0  2  0  0  0  0  0  0
  160.6820  208.3750  151.6700 C   0  0  2  0  0  3  0  0  0  0  0  0
  160.9090  211.1680  153.4260 O   0  0  0  0  0  0  0  0  0  0  0  0
  158.6670  211.8860  154.8240 C   0  0  0  0  0  3  0  0  0  0  0  0
  160.7970  207.4830  149.2950 C   0  0  0  0  0  2  0  0  0  0  0  0
  163.3740  210.3390  152.5080 O   0  0  0  0  0  0  0  0  0  0  0  0
  161.1640  207.8990  153.0270 C   0  0  2  0  0  3  0  0  0  0  0  0
  158.9370  212.6920  153.5800 C   0  0  0  0  0  2  0  0  0  0  0  0
  162.1320  209.1770  154.9710 C   0  0  0  0  0  1  0  0  0  0  0  0
  160.9670  208.9520  148.8990 C   0  0  0  0  0  2  0  0  0  0  0  0
  162.0660  212.3310  148.9520 C   0  0  0  0  0  2  0  0  0  0  0  0
  160.1390  212.1540  152.7630 C   0  0  2  0  0  3  0  0  0  0  0  0
  162.4930  210.2870  150.3330 N   0  0  0  0  0  0  0  0  0  0  0  0
  160.0560  210.1310  153.8590 C   0  0  1  0  0  3  0  0  0  0  0  0
  159.9720  212.8490  150.3180 C   0  0  1  0  0  3  0  0  0  0  0  0
  160.0230  207.9710  155.1620 C   0  0  0  0  0  1  0  0  0  0  0  0
  162.4020  209.4150  149.1570 C   0  0  0  0  0  2  0  0  0  0  0  0
  160.2360  207.2760  150.7110 C   0  0  0  0  0  2  0  0  0  0  0  0
  158.5480  211.0980  151.2470 O   0  0  0  0  0  1  0  0  0  0  0  0
  160.6660  213.5460  146.8570 C   0  0  0  0  0  3  0  0  0  0  0  0
  159.9300  212.7500  147.7480 C   0  0  0  0  0  0  0  0  0  0  0  0
  158.5970  212.4380  147.4560 C   0  0  0  0  0  3  0  0  0  0  0  0
  156.7150  212.6070  146.0030 F   0  0  0  0  0  0  0  0  0  0  0  0
  158.7420  213.7040  145.3960 C   0  0  0  0  0  3  0  0  0  0  0  0
  158.0040  212.9130  146.2820 C   0  0  0  0  0  0  0  0  0  0  0  0
  160.0730  214.0210  145.6840 C   0  0  0  0  0  3  0  0  0  0  0  0
  162.6970  205.9020  152.1850 C   0  0  0  0  0  1  0  0  0  0  0  0
  163.0130  207.1720  151.4200 C   0  0  0  0  0  2  0  0  0  0  0  0
  158.6870  213.6690  150.1430 C   0  0  0  0  0  2  0  0  0  0  0  0
  156.9930  214.4530  151.6300 O   0  0  0  0  0  1  0  0  0  0  0  0
  158.3700  214.4530  151.4040 C   0  0  0  0  0  2  0  0  0  0  0  0
  1  4  1  0  0  0  0
  1 12  2  0  0  0  0
  2 15  1  0  0  0  0
  2 22  1  0  0  0  0
  3 25  1  1  0  0  0
  3 18  1  0  0  0  0
  4 34  1  6  0  0  0
  4 13  1  0  0  0  0
  5 27  1  6  0  0  0
  5 21  1  0  0  0  0
  7 19  1  0  0  0  0
  8 24  1  6  0  0  0
  8  4  1  0  0  0  0
  8 13  1  0  0  0  0
  9 20  1  0  0  0  0
 10  6  2  0  0  0  0
 11 24  1  0  0  0  0
 13  2  1  1  0  0  0
 14 10  1  0  0  0  0
 16 23  1  0  0  0  0
 16 11  1  0  0  0  0
 17  5  1  0  0  0  0
 17  7  1  0  0  0  0
 18  9  1  0  0  0  0
 18 14  1  1  0  0  0
 19  1  1  0  0  0  0
 20  2  1  0  0  0  0
 20  6  1  1  0  0  0
 21 35  1  6  0  0  0
 21  3  1  0  0  0  0
 23 19  1  0  0  0  0
 26 27  1  0  0  0  0
 28 27  2  0  0  0  0
 29 31  1  0  0  0  0
 30 32  1  0  0  0  0
 30 31  2  0  0  0  0
 31 28  1  0  0  0  0
 32 26  2  0  0  0  0
 34 33  1  0  0  0  0
 35 37  1  0  0  0  0
 37 36  1  0  0  0  0
M  END
>  <MODEL>
4

>  <REMARK>
 VINA RESULT:       4.3      2.538      4.648
  Name = 
  4 active torsions:
  status: ('A' for Active; 'I' for Inactive)
    1  A    between atoms: C_5  and  C_23
    2  A    between atoms: C_6  and  C_7
    3  A    between atoms: C_14  and  C_31
    4  A    between atoms: C_14  and  C_37
                            x       y       z     vdW  Elec       q    Type
                         _______ _______ _______ _____ _____    ______ ____

>  <TORSDO>
F 4

$$$$
=
 OpenBabel11062409073D

 37 41  0  0  1  0  0  0  0  0999 V2000
  158.7170  210.1540  154.9380 C   0  0  0  0  0  0  0  0  0  0  0  0
  160.4350  207.6960  156.2900 C   0  0  0  0  0  0  0  0  0  0  0  0
  161.0830  209.2920  152.4470 C   0  0  2  0  0  3  0  0  0  0  0  0
  159.4980  210.1980  156.2180 C   0  0  2  0  0  0  0  0  0  0  0  0
  160.4920  211.4230  151.3120 C   0  0  1  0  0  3  0  0  0  0  0  0
  161.5310  206.1280  154.5600 C   0  0  0  0  0  3  0  0  0  0  0  0
  158.3150  210.9440  152.6060 C   0  0  0  0  0  2  0  0  0  0  0  0
  160.9770  210.1910  155.8060 C   0  0  2  0  0  3  0  0  0  0  0  0
  159.9160  207.7190  153.8850 O   0  0  0  0  0  0  0  0  0  0  0  0
  161.7660  205.7890  153.2910 C   0  0  0  0  0  3  0  0  0  0  0  0
  161.3270  212.7070  155.8280 C   0  0  0  0  0  2  0  0  0  0  0  0
  157.8270  209.2740  154.7870 O   0  0  0  0  0  0  0  0  0  0  0  0
  160.4790  209.1620  156.8010 C   0  0  2  0  0  3  0  0  0  0  0  0
  161.4480  206.7440  152.1700 C   0  0  0  0  0  2  0  0  0  0  0  0
  159.0380  207.1200  156.4760 C   0  0  0  0  0  1  0  0  0  0  0  0
  160.8610  212.6450  154.3720 C   0  0  0  0  0  2  0  0  0  0  0  0
  159.0000  211.7330  151.4850 C   0  0  0  0  0  2  0  0  0  0  0  0
  160.5000  207.8900  152.6060 C   0  0  2  0  0  3  0  0  0  0  0  0
  158.9210  211.1610  153.9210 N   0  0  0  0  0  0  0  0  0  0  0  0
  160.9380  207.4870  154.8290 C   0  0  1  0  0  3  0  0  0  0  0  0
  160.7580  209.9220  151.0920 C   0  0  1  0  0  3  0  0  0  0  0  0
  161.3380  206.9450  157.2610 C   0  0  0  0  0  1  0  0  0  0  0  0
  159.3380  212.5160  154.3010 C   0  0  0  0  0  2  0  0  0  0  0  0
  161.7670  211.3510  156.4030 C   0  0  0  0  0  2  0  0  0  0  0  0
  162.4460  209.3510  152.7590 O   0  0  0  0  0  1  0  0  0  0  0  0
  160.5660  213.6220  150.0550 C   0  0  0  0  0  3  0  0  0  0  0  0
  161.0940  212.3420  150.2880 C   0  0  0  0  0  0  0  0  0  0  0  0
  162.1940  211.9020  149.5420 C   0  0  0  0  0  3  0  0  0  0  0  0
  163.8300  212.3050  147.8560 F   0  0  0  0  0  0  0  0  0  0  0  0
  162.2370  214.0090  148.3480 C   0  0  0  0  0  3  0  0  0  0  0  0
  162.7650  212.7340  148.5740 C   0  0  0  0  0  0  0  0  0  0  0  0
  161.1370  214.4530  149.0880 C   0  0  0  0  0  3  0  0  0  0  0  0
  157.5340  211.4250  157.1630 C   0  0  0  0  0  1  0  0  0  0  0  0
  159.0330  211.2180  157.2590 C   0  0  0  0  0  2  0  0  0  0  0  0
  161.8250  209.5980  150.0390 C   0  0  0  0  0  2  0  0  0  0  0  0
  162.4760  207.6910  148.7610 O   0  0  0  0  0  1  0  0  0  0  0  0
  161.3750  208.4570  149.1440 C   0  0  0  0  0  2  0  0  0  0  0  0
  1  4  1  0  0  0  0
  2 15  1  0  0  0  0
  2 22  1  0  0  0  0
  3 18  1  0  0  0  0
  3 25  1  6  0  0  0
  4 13  1  0  0  0  0
  4 34  1  1  0  0  0
  5 27  1  6  0  0  0
  5 17  1  0  0  0  0
  7 19  1  0  0  0  0
  8  4  1  0  0  0  0
  8 24  1  1  0  0  0
  8 13  1  0  0  0  0
  9 20  1  0  0  0  0
 10  6  2  0  0  0  0
 11 24  1  0  0  0  0
 12  1  2  0  0  0  0
 13  2  1  6  0  0  0
 14 10  1  0  0  0  0
 16 11  1  0  0  0  0
 17  7  1  0  0  0  0
 18 14  1  1  0  0  0
 18  9  1  0  0  0  0
 19 23  1  0  0  0  0
 19  1  1  0  0  0  0
 20  6  1  1  0  0  0
 20  2  1  0  0  0  0
 21 35  1  6  0  0  0
 21  5  1  0  0  0  0
 21  3  1  0  0  0  0
 23 16  1  0  0  0  0
 26 27  1  0  0  0  0
 28 27  2  0  0  0  0
 29 31  1  0  0  0  0
 30 31  2  0  0  0  0
 30 32  1  0  0  0  0
 31 28  1  0  0  0  0
 32 26  2  0  0  0  0
 33 34  1  0  0  0  0
 36 37  1  0  0  0  0
 37 35  1  0  0  0  0
M  END
>  <MODEL>
5

>  <REMARK>
 VINA RESULT:       4.4      2.339      5.028
  Name = 
  4 active torsions:
  status: ('A' for Active; 'I' for Inactive)
    1  A    between atoms: C_5  and  C_23
    2  A    between atoms: C_6  and  C_7
    3  A    between atoms: C_14  and  C_31
    4  A    between atoms: C_14  and  C_37
                            x       y       z     vdW  Elec       q    Type
                         _______ _______ _______ _____ _____    ______ ____

>  <TORSDO>
F 4

$$$$
