=
 OpenBabel11052422113D

 25 29  0  0  1  0  0  0  0  0999 V2000
  161.4080  205.3820  149.2800 C   0  0  0  0  0  0  0  0  0  0  0  0
  161.4140  206.3310  150.3200 C   0  0  0  0  0  0  0  0  0  0  0  0
  161.9600  207.1240  147.6810 C   0  0  0  0  0  3  0  0  0  0  0  0
  161.1550  203.9990  149.3490 C   0  0  0  0  0  0  0  0  0  0  0  0
  160.7150  201.2510  149.0860 C   0  0  0  0  0  3  0  0  0  0  0  0
  161.9650  208.0330  148.6950 N   0  0  0  0  0  0  0  0  0  0  0  0
  161.2370  203.3760  148.1040 C   0  0  0  0  0  0  0  0  0  0  0  0
  161.0230  202.0090  147.9470 C   0  0  0  0  0  3  0  0  0  0  0  0
  161.7170  208.6420  151.0100 C   0  0  0  0  0  0  0  0  0  0  0  0
  162.0090  210.0050  150.7160 N   0  0  0  0  0  1  0  0  0  0  0  0
  161.1490  205.9940  151.6510 C   0  0  0  0  0  3  0  0  0  0  0  0
  160.6280  201.8650  150.3480 C   0  0  0  0  0  3  0  0  0  0  0  0
  161.6810  205.7950  147.9790 C   0  0  0  0  0  0  0  0  0  0  0  0
  161.6180  204.4960  146.9060 S   0  0  0  0  0  0  0  0  0  0  0  0
  161.4560  208.2740  152.2930 N   0  0  0  0  0  0  0  0  0  0  0  0
  160.8480  203.2460  150.4870 C   0  0  0  0  0  3  0  0  0  0  0  0
  161.1690  206.9880  152.6300 C   0  0  0  0  0  0  0  0  0  0  0  0
  161.7020  207.6800  149.9900 C   0  0  0  0  0  0  0  0  0  0  0  0
  160.9150  206.6320  154.0510 C   0  0  0  0  0  2  0  0  0  0  0  0
  161.2560  207.7570  154.9050 N   0  0  0  0  0  2  0  0  0  0  0  0
  160.0960  208.0260  155.7400 C   0  0  1  0  0  3  0  0  0  0  0  0
  160.0810  207.0590  156.9090 C   0  0  0  0  0  1  0  0  0  0  0  0
  160.1640  209.4510  156.2600 C   0  0  0  0  0  3  0  0  0  0  0  0
  159.0400  210.2650  155.6500 C   0  0  0  0  0  2  0  0  0  0  0  0
  160.4480  210.3970  155.1100 C   0  0  0  0  0  2  0  0  0  0  0  0
  1  4  1  0  0  0  0
  1  2  2  0  0  0  0
  2 11  1  0  0  0  0
  3 13  2  0  0  0  0
  3  6  1  0  0  0  0
  4 16  1  0  0  0  0
  5 12  1  0  0  0  0
  6 18  2  0  0  0  0
  7  4  2  0  0  0  0
  8  7  1  0  0  0  0
  8  5  2  0  0  0  0
  9 15  2  0  0  0  0
 10  9  1  0  0  0  0
 11 17  2  0  0  0  0
 12 16  2  0  0  0  0
 13  1  1  0  0  0  0
 14 13  1  0  0  0  0
 14  7  1  0  0  0  0
 15 17  1  0  0  0  0
 17 19  1  0  0  0  0
 18  2  1  0  0  0  0
 18  9  1  0  0  0  0
 19 20  1  0  0  0  0
 20 21  1  0  0  0  0
 21 23  1  0  0  0  0
 21 22  1  1  0  0  0
 24 23  1  0  0  0  0
 25 24  1  0  0  0  0
 25 23  1  0  0  0  0
M  END
>  <MODEL>
1

>  <REMARK>
 VINA RESULT:      -9.8      0.000      0.000
  Name = 
  4 active torsions:
  status: ('A' for Active; 'I' for Inactive)
    1  A    between atoms: C_2  and  C_21
    2  A    between atoms: C_6  and  N_15
    3  A    between atoms: C_6  and  C_23
    4  A    between atoms: N_15  and  C_21
                            x       y       z     vdW  Elec       q    Type
                         _______ _______ _______ _____ _____    ______ ____

>  <TORSDO>
F 4

$$$$
=
 OpenBabel11052422113D

 25 29  0  0  1  0  0  0  0  0999 V2000
  161.4630  205.0870  148.9750 C   0  0  0  0  0  0  0  0  0  0  0  0
  161.5340  206.1520  149.8930 C   0  0  0  0  0  0  0  0  0  0  0  0
  161.8830  206.6290  147.1470 C   0  0  0  0  0  3  0  0  0  0  0  0
  161.2290  203.7210  149.2230 C   0  0  0  0  0  0  0  0  0  0  0  0
  160.7980  200.9610  149.3170 C   0  0  0  0  0  3  0  0  0  0  0  0
  161.9510  207.6520  148.0440 N   0  0  0  0  0  0  0  0  0  0  0  0
  161.2290  202.9560  148.0570 C   0  0  0  0  0  0  0  0  0  0  0  0
  161.0160  201.5800  148.0770 C   0  0  0  0  0  3  0  0  0  0  0  0
  161.8640  208.5280  150.2830 C   0  0  0  0  0  0  0  0  0  0  0  0
  162.1210  209.8480  149.8110 N   0  0  0  0  0  1  0  0  0  0  0  0
  161.3680  205.9730  151.2700 C   0  0  0  0  0  3  0  0  0  0  0  0
  160.7950  201.7200  150.5020 C   0  0  0  0  0  3  0  0  0  0  0  0
  161.6380  205.3440  147.6170 C   0  0  0  0  0  0  0  0  0  0  0  0
  161.5120  203.9280  146.7120 S   0  0  0  0  0  0  0  0  0  0  0  0
  161.6980  208.3140  151.6160 N   0  0  0  0  0  0  0  0  0  0  0  0
  161.0110  203.1070  150.4610 C   0  0  0  0  0  3  0  0  0  0  0  0
  161.4480  207.0760  152.1210 C   0  0  0  0  0  0  0  0  0  0  0  0
  161.7850  207.4530  149.3860 C   0  0  0  0  0  0  0  0  0  0  0  0
  161.3000  206.8900  153.5890 C   0  0  0  0  0  2  0  0  0  0  0  0
  160.5120  207.9770  154.1430 N   0  0  0  0  0  2  0  0  0  0  0  0
  161.2040  208.4430  155.3330 C   0  0  1  0  0  3  0  0  0  0  0  0
  161.5820  209.9030  155.1580 C   0  0  0  0  0  1  0  0  0  0  0  0
  160.2960  208.2960  156.5410 C   0  0  0  0  0  3  0  0  0  0  0  0
  160.6210  207.0010  157.2610 C   0  0  0  0  0  2  0  0  0  0  0  0
  159.4070  207.0810  156.3590 C   0  0  0  0  0  2  0  0  0  0  0  0
  1  4  1  0  0  0  0
  1  2  2  0  0  0  0
  2 11  1  0  0  0  0
  3 13  2  0  0  0  0
  3  6  1  0  0  0  0
  4 16  1  0  0  0  0
  5 12  1  0  0  0  0
  6 18  2  0  0  0  0
  7  8  1  0  0  0  0
  7  4  2  0  0  0  0
  8  5  2  0  0  0  0
  9 15  2  0  0  0  0
 10  9  1  0  0  0  0
 11 17  2  0  0  0  0
 13  1  1  0  0  0  0
 14 13  1  0  0  0  0
 14  7  1  0  0  0  0
 15 17  1  0  0  0  0
 16 12  2  0  0  0  0
 17 19  1  0  0  0  0
 18  2  1  0  0  0  0
 18  9  1  0  0  0  0
 19 20  1  0  0  0  0
 20 21  1  0  0  0  0
 21 22  1  6  0  0  0
 21 23  1  0  0  0  0
 23 24  1  0  0  0  0
 25 23  1  0  0  0  0
 25 24  1  0  0  0  0
M  END
>  <MODEL>
2

>  <REMARK>
 VINA RESULT:      -9.2      0.845      1.460
  Name = 
  4 active torsions:
  status: ('A' for Active; 'I' for Inactive)
    1  A    between atoms: C_2  and  C_21
    2  A    between atoms: C_6  and  N_15
    3  A    between atoms: C_6  and  C_23
    4  A    between atoms: N_15  and  C_21
                            x       y       z     vdW  Elec       q    Type
                         _______ _______ _______ _____ _____    ______ ____

>  <TORSDO>
F 4

$$$$
=
 OpenBabel11052422113D

 25 29  0  0  1  0  0  0  0  0999 V2000
  161.3410  205.9710  151.0150 C   0  0  0  0  0  0  0  0  0  0  0  0
  161.5280  207.3660  151.0050 C   0  0  0  0  0  0  0  0  0  0  0  0
  161.2250  205.9990  153.4400 C   0  0  0  0  0  3  0  0  0  0  0  0
  161.2770  205.0820  149.9260 C   0  0  0  0  0  0  0  0  0  0  0  0
  161.0950  203.0260  148.0400 C   0  0  0  0  0  3  0  0  0  0  0  0
  161.4040  207.3490  153.4190 N   0  0  0  0  0  0  0  0  0  0  0  0
  161.0800  203.7600  150.3230 C   0  0  0  0  0  0  0  0  0  0  0  0
  160.9870  202.7180  149.4040 C   0  0  0  0  0  3  0  0  0  0  0  0
  161.7370  209.4340  152.2660 C   0  0  0  0  0  0  0  0  0  0  0  0
  161.7640  210.1490  153.4970 N   0  0  0  0  0  1  0  0  0  0  0  0
  161.6850  208.0990  149.8240 C   0  0  0  0  0  3  0  0  0  0  0  0
  161.2920  204.3550  147.6230 C   0  0  0  0  0  3  0  0  0  0  0  0
  161.1930  205.3120  152.2320 C   0  0  0  0  0  0  0  0  0  0  0  0
  160.9840  203.6550  152.0010 S   0  0  0  0  0  0  0  0  0  0  0  0
  161.8840  210.1120  151.0950 N   0  0  0  0  0  0  0  0  0  0  0  0
  161.3850  205.3930  148.5660 C   0  0  0  0  0  3  0  0  0  0  0  0
  161.8700  209.4810  149.8910 C   0  0  0  0  0  0  0  0  0  0  0  0
  161.5550  208.0440  152.2510 C   0  0  0  0  0  0  0  0  0  0  0  0
  162.0090  210.2690  148.6380 C   0  0  0  0  0  2  0  0  0  0  0  0
  162.3910  211.6330  148.9580 N   0  0  0  0  0  2  0  0  0  0  0  0
  161.3340  212.5010  148.4640 C   0  0  1  0  0  3  0  0  0  0  0  0
  160.5690  213.0830  149.6390 C   0  0  0  0  0  1  0  0  0  0  0  0
  161.9410  213.6260  147.6460 C   0  0  0  0  0  3  0  0  0  0  0  0
  161.2880  213.6640  146.2780 C   0  0  0  0  0  2  0  0  0  0  0  0
  162.6610  213.0470  146.4440 C   0  0  0  0  0  2  0  0  0  0  0  0
  1 13  1  0  0  0  0
  2  1  2  0  0  0  0
  2 18  1  0  0  0  0
  4  7  1  0  0  0  0
  4  1  1  0  0  0  0
  5  8  1  0  0  0  0
  6  3  1  0  0  0  0
  7 14  1  0  0  0  0
  8  7  2  0  0  0  0
  9 10  1  0  0  0  0
 11 17  2  0  0  0  0
 11  2  1  0  0  0  0
 12  5  2  0  0  0  0
 12 16  1  0  0  0  0
 13  3  2  0  0  0  0
 14 13  1  0  0  0  0
 15  9  2  0  0  0  0
 16  4  2  0  0  0  0
 17 15  1  0  0  0  0
 18  9  1  0  0  0  0
 18  6  2  0  0  0  0
 19 20  1  0  0  0  0
 19 17  1  0  0  0  0
 21 20  1  0  0  0  0
 21 22  1  1  0  0  0
 23 21  1  0  0  0  0
 24 25  1  0  0  0  0
 24 23  1  0  0  0  0
 25 23  1  0  0  0  0
M  END
>  <MODEL>
3

>  <REMARK>
 VINA RESULT:      -8.6      2.999      5.415
  Name = 
  4 active torsions:
  status: ('A' for Active; 'I' for Inactive)
    1  A    between atoms: C_2  and  C_21
    2  A    between atoms: C_6  and  N_15
    3  A    between atoms: C_6  and  C_23
    4  A    between atoms: N_15  and  C_21
                            x       y       z     vdW  Elec       q    Type
                         _______ _______ _______ _____ _____    ______ ____

>  <TORSDO>
F 4

$$$$
=
 OpenBabel11052422113D

 25 29  0  0  1  0  0  0  0  0999 V2000
  161.4480  206.2480  149.8050 C   0  0  0  0  0  0  0  0  0  0  0  0
  161.6110  207.5880  150.2040 C   0  0  0  0  0  0  0  0  0  0  0  0
  161.6850  206.9070  147.4800 C   0  0  0  0  0  3  0  0  0  0  0  0
  161.2380  205.1080  150.6040 C   0  0  0  0  0  0  0  0  0  0  0  0
  160.8150  202.6390  151.8430 C   0  0  0  0  0  3  0  0  0  0  0  0
  161.8440  208.2000  147.8770 N   0  0  0  0  0  0  0  0  0  0  0  0
  161.1200  203.9400  149.8520 C   0  0  0  0  0  0  0  0  0  0  0  0
  160.9090  202.6980  150.4460 C   0  0  0  0  0  3  0  0  0  0  0  0
  161.9820  209.9050  149.5690 C   0  0  0  0  0  0  0  0  0  0  0  0
  162.1920  210.9120  148.5840 N   0  0  0  0  0  1  0  0  0  0  0  0
  161.5830  207.9850  151.5450 C   0  0  0  0  0  3  0  0  0  0  0  0
  160.9310  203.8090  152.6160 C   0  0  0  0  0  3  0  0  0  0  0  0
  161.4870  205.9310  148.4500 C   0  0  0  0  0  0  0  0  0  0  0  0
  161.2700  204.2760  148.2090 S   0  0  0  0  0  0  0  0  0  0  0  0
  161.9490  210.2510  150.8840 N   0  0  0  0  0  0  0  0  0  0  0  0
  161.1440  205.0530  151.9990 C   0  0  0  0  0  3  0  0  0  0  0  0
  161.7490  209.3330  151.8670 C   0  0  0  0  0  0  0  0  0  0  0  0
  161.8130  208.5650  149.1950 C   0  0  0  0  0  0  0  0  0  0  0  0
  161.7480  209.7580  153.2910 C   0  0  0  0  0  2  0  0  0  0  0  0
  160.3930  209.7240  153.8110 N   0  0  0  0  0  2  0  0  0  0  0  0
  160.4890  209.4940  155.2430 C   0  0  1  0  0  3  0  0  0  0  0  0
  159.8920  210.6760  155.9860 C   0  0  0  0  0  1  0  0  0  0  0  0
  159.7310  208.2300  155.6080 C   0  0  0  0  0  3  0  0  0  0  0  0
  160.5650  207.3990  156.5640 C   0  0  0  0  0  2  0  0  0  0  0  0
  160.4910  207.0200  155.1000 C   0  0  0  0  0  2  0  0  0  0  0  0
  1  2  1  0  0  0  0
  1  4  1  0  0  0  0
  2 11  1  0  0  0  0
  3  6  2  0  0  0  0
  3 13  1  0  0  0  0
  4 16  1  0  0  0  0
  5 12  1  0  0  0  0
  6 18  1  0  0  0  0
  7  8  1  0  0  0  0
  7  4  2  0  0  0  0
  8  5  2  0  0  0  0
  9 15  2  0  0  0  0
 10  9  1  0  0  0  0
 11 17  2  0  0  0  0
 13  1  2  0  0  0  0
 14 13  1  0  0  0  0
 14  7  1  0  0  0  0
 15 17  1  0  0  0  0
 16 12  2  0  0  0  0
 17 19  1  0  0  0  0
 18  9  1  0  0  0  0
 18  2  2  0  0  0  0
 19 20  1  0  0  0  0
 20 21  1  0  0  0  0
 21 23  1  0  0  0  0
 21 22  1  1  0  0  0
 23 24  1  0  0  0  0
 25 23  1  0  0  0  0
 25 24  1  0  0  0  0
M  END
>  <MODEL>
4

>  <REMARK>
 VINA RESULT:      -8.6      1.282      2.266
  Name = 
  4 active torsions:
  status: ('A' for Active; 'I' for Inactive)
    1  A    between atoms: C_2  and  C_21
    2  A    between atoms: C_6  and  N_15
    3  A    between atoms: C_6  and  C_23
    4  A    between atoms: N_15  and  C_21
                            x       y       z     vdW  Elec       q    Type
                         _______ _______ _______ _____ _____    ______ ____

>  <TORSDO>
F 4

$$$$
=
 OpenBabel11052422113D

 25 29  0  0  1  0  0  0  0  0999 V2000
  161.3160  208.4990  152.6980 C   0  0  0  0  0  0  0  0  0  0  0  0
  161.3930  207.6320  151.5930 C   0  0  0  0  0  0  0  0  0  0  0  0
  162.0510  210.3470  151.3060 C   0  0  0  0  0  3  0  0  0  0  0  0
  160.9350  208.2100  154.0220 C   0  0  0  0  0  0  0  0  0  0  0  0
  160.2440  208.0280  156.7250 C   0  0  0  0  0  3  0  0  0  0  0  0
  162.1220  209.5000  150.2420 N   0  0  0  0  0  0  0  0  0  0  0  0
  160.9790  209.3310  154.8500 C   0  0  0  0  0  0  0  0  0  0  0  0
  160.6400  209.2660  156.2000 C   0  0  0  0  0  3  0  0  0  0  0  0
  161.8900  207.3280  149.2320 C   0  0  0  0  0  0  0  0  0  0  0  0
  162.2970  207.8370  147.9660 N   0  0  0  0  0  1  0  0  0  0  0  0
  161.0790  206.2720  151.6760 C   0  0  0  0  0  3  0  0  0  0  0  0
  160.1940  206.8880  155.9010 C   0  0  0  0  0  3  0  0  0  0  0  0
  161.6460  209.8420  152.5360 C   0  0  0  0  0  0  0  0  0  0  0  0
  161.4810  210.6860  153.9860 S   0  0  0  0  0  0  0  0  0  0  0  0
  161.5740  206.0100  149.3540 N   0  0  0  0  0  0  0  0  0  0  0  0
  160.5400  206.9730  154.5430 C   0  0  0  0  0  3  0  0  0  0  0  0
  161.1820  205.4700  150.5390 C   0  0  0  0  0  0  0  0  0  0  0  0
  161.8090  208.1730  150.3480 C   0  0  0  0  0  0  0  0  0  0  0  0
  160.8220  204.0290  150.6150 C   0  0  0  0  0  2  0  0  0  0  0  0
  160.7920  203.4620  149.2780 N   0  0  0  0  0  2  0  0  0  0  0  0
  161.2230  202.0780  149.3910 C   0  0  1  0  0  3  0  0  0  0  0  0
  160.9450  201.5770  150.7970 C   0  0  0  0  0  1  0  0  0  0  0  0
  160.4660  201.2250  148.3890 C   0  0  0  0  0  3  0  0  0  0  0  0
  161.4500  200.3990  147.5840 C   0  0  0  0  0  2  0  0  0  0  0  0
  160.8400  201.6460  146.9820 C   0  0  0  0  0  2  0  0  0  0  0  0
  1  4  1  0  0  0  0
  2 11  1  0  0  0  0
  2  1  1  0  0  0  0
  3 13  1  0  0  0  0
  4 16  2  0  0  0  0
  4  7  1  0  0  0  0
  6 18  1  0  0  0  0
  6  3  2  0  0  0  0
  7  8  2  0  0  0  0
  8  5  1  0  0  0  0
  9 15  2  0  0  0  0
  9 18  1  0  0  0  0
 10  9  1  0  0  0  0
 12  5  2  0  0  0  0
 13  1  2  0  0  0  0
 13 14  1  0  0  0  0
 14  7  1  0  0  0  0
 15 17  1  0  0  0  0
 16 12  1  0  0  0  0
 17 19  1  0  0  0  0
 17 11  2  0  0  0  0
 18  2  2  0  0  0  0
 20 21  1  0  0  0  0
 20 19  1  0  0  0  0
 21 22  1  1  0  0  0
 23 21  1  0  0  0  0
 24 23  1  0  0  0  0
 25 24  1  0  0  0  0
 25 23  1  0  0  0  0
M  END
>  <MODEL>
5

>  <REMARK>
 VINA RESULT:      -8.5      2.438      7.223
  Name = 
  4 active torsions:
  status: ('A' for Active; 'I' for Inactive)
    1  A    between atoms: C_2  and  C_21
    2  A    between atoms: C_6  and  N_15
    3  A    between atoms: C_6  and  C_23
    4  A    between atoms: N_15  and  C_21
                            x       y       z     vdW  Elec       q    Type
                         _______ _______ _______ _____ _____    ______ ____

>  <TORSDO>
F 4

$$$$
=
 OpenBabel11052422113D

 25 29  0  0  1  0  0  0  0  0999 V2000
  161.3050  205.2830  149.2510 C   0  0  0  0  0  0  0  0  0  0  0  0
  161.4790  206.5860  149.7550 C   0  0  0  0  0  0  0  0  0  0  0  0
  160.8490  204.4720  151.4940 C   0  0  0  0  0  3  0  0  0  0  0  0
  161.4010  204.8300  147.9220 C   0  0  0  0  0  0  0  0  0  0  0  0
  161.5020  203.5670  145.4310 C   0  0  0  0  0  3  0  0  0  0  0  0
  161.0190  205.7370  151.9710 N   0  0  0  0  0  0  0  0  0  0  0  0
  161.1620  203.4620  147.8020 C   0  0  0  0  0  0  0  0  0  0  0  0
  161.2060  202.8090  146.5730 C   0  0  0  0  0  3  0  0  0  0  0  0
  161.4920  208.0770  151.6750 C   0  0  0  0  0  0  0  0  0  0  0  0
  161.3400  208.3180  153.0700 N   0  0  0  0  0  1  0  0  0  0  0  0
  161.7940  207.6760  148.9370 C   0  0  0  0  0  3  0  0  0  0  0  0
  161.7450  204.9490  145.5350 C   0  0  0  0  0  3  0  0  0  0  0  0
  160.9930  204.2490  150.1300 C   0  0  0  0  0  0  0  0  0  0  0  0
  160.8310  202.7860  149.3080 S   0  0  0  0  0  0  0  0  0  0  0  0
  161.7970  209.1120  150.8460 N   0  0  0  0  0  0  0  0  0  0  0  0
  161.6960  205.5890  146.7840 C   0  0  0  0  0  3  0  0  0  0  0  0
  161.9560  208.9390  149.5070 C   0  0  0  0  0  0  0  0  0  0  0  0
  161.3260  206.7870  151.1510 C   0  0  0  0  0  0  0  0  0  0  0  0
  162.2630  210.1070  148.6390 C   0  0  0  0  0  2  0  0  0  0  0  0
  161.9320  211.3370  149.3380 N   0  0  0  0  0  2  0  0  0  0  0  0
  162.1120  212.4270  148.3940 C   0  0  1  0  0  3  0  0  0  0  0  0
  163.5020  212.3470  147.7900 C   0  0  0  0  0  1  0  0  0  0  0  0
  161.0730  212.3230  147.2920 C   0  0  0  0  0  3  0  0  0  0  0  0
  160.6910  213.7150  146.8260 C   0  0  0  0  0  2  0  0  0  0  0  0
  159.7750  212.9530  147.7600 C   0  0  0  0  0  2  0  0  0  0  0  0
  1  2  2  0  0  0  0
  1 13  1  0  0  0  0
  2 18  1  0  0  0  0
  3  6  1  0  0  0  0
  4  1  1  0  0  0  0
  5 12  2  0  0  0  0
  5  8  1  0  0  0  0
  7  4  1  0  0  0  0
  7 14  1  0  0  0  0
  8  7  2  0  0  0  0
  9 10  1  0  0  0  0
 11 17  2  0  0  0  0
 11  2  1  0  0  0  0
 12 16  1  0  0  0  0
 13  3  2  0  0  0  0
 14 13  1  0  0  0  0
 15  9  2  0  0  0  0
 16  4  2  0  0  0  0
 17 15  1  0  0  0  0
 18  9  1  0  0  0  0
 18  6  2  0  0  0  0
 19 20  1  0  0  0  0
 19 17  1  0  0  0  0
 21 22  1  6  0  0  0
 21 20  1  0  0  0  0
 23 25  1  0  0  0  0
 23 21  1  0  0  0  0
 24 23  1  0  0  0  0
 24 25  1  0  0  0  0
M  END
>  <MODEL>
6

>  <REMARK>
 VINA RESULT:      -8.5      2.900      5.314
  Name = 
  4 active torsions:
  status: ('A' for Active; 'I' for Inactive)
    1  A    between atoms: C_2  and  C_21
    2  A    between atoms: C_6  and  N_15
    3  A    between atoms: C_6  and  C_23
    4  A    between atoms: N_15  and  C_21
                            x       y       z     vdW  Elec       q    Type
                         _______ _______ _______ _____ _____    ______ ____

>  <TORSDO>
F 4

$$$$
=
 OpenBabel11052422113D

 25 29  0  0  1  0  0  0  0  0999 V2000
  161.2060  204.1230  149.1480 C   0  0  0  0  0  0  0  0  0  0  0  0
  161.3390  205.1360  150.1170 C   0  0  0  0  0  0  0  0  0  0  0  0
  160.8320  202.4870  150.9030 C   0  0  0  0  0  3  0  0  0  0  0  0
  161.2920  204.2260  147.7470 C   0  0  0  0  0  0  0  0  0  0  0  0
  161.3910  204.0310  144.9600 C   0  0  0  0  0  3  0  0  0  0  0  0
  160.9600  203.4750  151.8320 N   0  0  0  0  0  0  0  0  0  0  0  0
  161.1060  203.0010  147.1070 C   0  0  0  0  0  0  0  0  0  0  0  0
  161.1500  202.8780  145.7200 C   0  0  0  0  0  3  0  0  0  0  0  0
  161.3320  205.7660  152.4650 C   0  0  0  0  0  0  0  0  0  0  0  0
  161.2000  205.4400  153.8450 N   0  0  0  0  0  1  0  0  0  0  0  0
  161.5920  206.4710  149.7850 C   0  0  0  0  0  3  0  0  0  0  0  0
  161.5800  205.2750  145.5920 C   0  0  0  0  0  3  0  0  0  0  0  0
  160.9550  202.8160  149.5580 C   0  0  0  0  0  0  0  0  0  0  0  0
  160.8350  201.7800  148.2340 S   0  0  0  0  0  0  0  0  0  0  0  0
  161.5770  207.0540  152.1010 N   0  0  0  0  0  0  0  0  0  0  0  0
  161.5320  205.3790  146.9920 C   0  0  0  0  0  3  0  0  0  0  0  0
  161.7140  207.4210  150.7990 C   0  0  0  0  0  0  0  0  0  0  0  0
  161.2070  204.7740  151.4830 C   0  0  0  0  0  0  0  0  0  0  0  0
  161.9560  208.8460  150.4510 C   0  0  0  0  0  2  0  0  0  0  0  0
  162.3520  209.5800  151.6410 N   0  0  0  0  0  2  0  0  0  0  0  0
  161.5210  210.7720  151.7050 C   0  0  1  0  0  3  0  0  0  0  0  0
  161.2520  211.2740  150.2980 C   0  0  0  0  0  1  0  0  0  0  0  0
  160.2060  210.4400  152.3860 C   0  0  0  0  0  3  0  0  0  0  0  0
  159.9740  211.4050  153.5320 C   0  0  0  0  0  2  0  0  0  0  0  0
  160.4720  210.0040  153.8130 C   0  0  0  0  0  2  0  0  0  0  0  0
  1 13  1  0  0  0  0
  1  2  2  0  0  0  0
  2 18  1  0  0  0  0
  3  6  1  0  0  0  0
  4  1  1  0  0  0  0
  5 12  2  0  0  0  0
  5  8  1  0  0  0  0
  7  4  1  0  0  0  0
  7 14  1  0  0  0  0
  8  7  2  0  0  0  0
  9 10  1  0  0  0  0
 11  2  1  0  0  0  0
 11 17  2  0  0  0  0
 12 16  1  0  0  0  0
 13  3  2  0  0  0  0
 14 13  1  0  0  0  0
 15  9  2  0  0  0  0
 16  4  2  0  0  0  0
 17 15  1  0  0  0  0
 18  6  2  0  0  0  0
 18  9  1  0  0  0  0
 19 17  1  0  0  0  0
 19 20  1  0  0  0  0
 20 21  1  0  0  0  0
 21 22  1  6  0  0  0
 21 23  1  0  0  0  0
 23 24  1  0  0  0  0
 23 25  1  0  0  0  0
 24 25  1  0  0  0  0
M  END
>  <MODEL>
7

>  <REMARK>
 VINA RESULT:      -8.3      1.997      3.929
  Name = 
  4 active torsions:
  status: ('A' for Active; 'I' for Inactive)
    1  A    between atoms: C_2  and  C_21
    2  A    between atoms: C_6  and  N_15
    3  A    between atoms: C_6  and  C_23
    4  A    between atoms: N_15  and  C_21
                            x       y       z     vdW  Elec       q    Type
                         _______ _______ _______ _____ _____    ______ ____

>  <TORSDO>
F 4

$$$$
=
 OpenBabel11052422113D

 25 29  0  0  1  0  0  0  0  0999 V2000
  161.4560  207.0310  151.1580 C   0  0  0  0  0  0  0  0  0  0  0  0
  161.2950  205.6730  150.8250 C   0  0  0  0  0  0  0  0  0  0  0  0
  161.2030  206.4880  153.5110 C   0  0  0  0  0  3  0  0  0  0  0  0
  161.6720  208.1300  150.3050 C   0  0  0  0  0  0  0  0  0  0  0  0
  162.1080  210.5350  148.9480 C   0  0  0  0  0  3  0  0  0  0  0  0
  161.0490  205.1770  153.1780 N   0  0  0  0  0  0  0  0  0  0  0  0
  161.7860  209.3340  150.9990 C   0  0  0  0  0  0  0  0  0  0  0  0
  162.0020  210.5450  150.3460 C   0  0  0  0  0  3  0  0  0  0  0  0
  160.9280  203.3890  151.5720 C   0  0  0  0  0  0  0  0  0  0  0  0
  160.7250  202.4310  152.6060 N   0  0  0  0  0  1  0  0  0  0  0  0
  161.3310  205.2100  149.5060 C   0  0  0  0  0  3  0  0  0  0  0  0
  161.9960  209.3270  148.2340 C   0  0  0  0  0  3  0  0  0  0  0  0
  161.4070  207.4150  152.4960 C   0  0  0  0  0  0  0  0  0  0  0  0
  161.6240  209.0790  152.6550 S   0  0  0  0  0  0  0  0  0  0  0  0
  160.9710  202.9780  150.2760 N   0  0  0  0  0  0  0  0  0  0  0  0
  161.7770  208.1160  148.9100 C   0  0  0  0  0  3  0  0  0  0  0  0
  161.1590  203.8490  149.2490 C   0  0  0  0  0  0  0  0  0  0  0  0
  161.0880  204.7470  151.8800 C   0  0  0  0  0  0  0  0  0  0  0  0
  161.2240  203.3460  147.8510 C   0  0  0  0  0  2  0  0  0  0  0  0
  161.5340  204.4430  146.9510 N   0  0  0  0  0  2  0  0  0  0  0  0
  161.4900  203.9120  145.5980 C   0  0  1  0  0  3  0  0  0  0  0  0
  161.0300  202.4650  145.6400 C   0  0  0  0  0  1  0  0  0  0  0  0
  160.5220  204.7280  144.7620 C   0  0  0  0  0  3  0  0  0  0  0  0
  161.2850  205.8000  144.0090 C   0  0  0  0  0  2  0  0  0  0  0  0
  160.5090  206.1610  145.2580 C   0  0  0  0  0  2  0  0  0  0  0  0
  1 13  1  0  0  0  0
  2  1  2  0  0  0  0
  2 18  1  0  0  0  0
  4  7  1  0  0  0  0
  4  1  1  0  0  0  0
  5  8  1  0  0  0  0
  6  3  1  0  0  0  0
  7 14  1  0  0  0  0
  8  7  2  0  0  0  0
  9 18  1  0  0  0  0
  9 10  1  0  0  0  0
 11  2  1  0  0  0  0
 12 16  1  0  0  0  0
 12  5  2  0  0  0  0
 13 14  1  0  0  0  0
 13  3  2  0  0  0  0
 15  9  2  0  0  0  0
 16  4  2  0  0  0  0
 17 11  2  0  0  0  0
 17 15  1  0  0  0  0
 18  6  2  0  0  0  0
 19 17  1  0  0  0  0
 20 19  1  0  0  0  0
 21 22  1  1  0  0  0
 21 20  1  0  0  0  0
 23 25  1  0  0  0  0
 23 21  1  0  0  0  0
 24 23  1  0  0  0  0
 24 25  1  0  0  0  0
M  END
>  <MODEL>
8

>  <REMARK>
 VINA RESULT:      -8.2      2.977      7.628
  Name = 
  4 active torsions:
  status: ('A' for Active; 'I' for Inactive)
    1  A    between atoms: C_2  and  C_21
    2  A    between atoms: C_6  and  N_15
    3  A    between atoms: C_6  and  C_23
    4  A    between atoms: N_15  and  C_21
                            x       y       z     vdW  Elec       q    Type
                         _______ _______ _______ _____ _____    ______ ____

>  <TORSDO>
F 4

$$$$
=
 OpenBabel11052422113D

 25 29  0  0  1  0  0  0  0  0999 V2000
  161.1560  205.4640  150.3840 C   0  0  0  0  0  0  0  0  0  0  0  0
  161.1460  206.4980  151.3390 C   0  0  0  0  0  0  0  0  0  0  0  0
  161.0290  203.8150  152.1620 C   0  0  0  0  0  3  0  0  0  0  0  0
  161.2200  205.5590  148.9810 C   0  0  0  0  0  0  0  0  0  0  0  0
  161.3320  205.3440  146.1970 C   0  0  0  0  0  3  0  0  0  0  0  0
  161.0180  204.8230  153.0770 N   0  0  0  0  0  0  0  0  0  0  0  0
  161.2080  204.3120  148.3580 C   0  0  0  0  0  0  0  0  0  0  0  0
  161.2640  204.1780  146.9730 C   0  0  0  0  0  3  0  0  0  0  0  0
  161.0600  207.1530  153.6790 C   0  0  0  0  0  0  0  0  0  0  0  0
  160.9830  206.8300  155.0640 N   0  0  0  0  0  1  0  0  0  0  0  0
  161.2030  207.8510  150.9880 C   0  0  0  0  0  3  0  0  0  0  0  0
  161.3440  206.6100  146.8110 C   0  0  0  0  0  3  0  0  0  0  0  0
  161.0970  204.1410  150.8120 C   0  0  0  0  0  0  0  0  0  0  0  0
  161.1220  203.0800  149.5020 S   0  0  0  0  0  0  0  0  0  0  0  0
  161.1150  208.4570  153.2970 N   0  0  0  0  0  0  0  0  0  0  0  0
  161.2880  206.7240  148.2100 C   0  0  0  0  0  3  0  0  0  0  0  0
  161.1920  208.8230  151.9900 C   0  0  0  0  0  0  0  0  0  0  0  0
  161.0740  206.1390  152.7100 C   0  0  0  0  0  0  0  0  0  0  0  0
  161.2240  210.2630  151.6230 C   0  0  0  0  0  2  0  0  0  0  0  0
  161.1460  211.0760  152.8240 N   0  0  0  0  0  2  0  0  0  0  0  0
  160.0840  212.0460  152.6150 C   0  0  1  0  0  3  0  0  0  0  0  0
  160.0640  212.4670  151.1560 C   0  0  0  0  0  1  0  0  0  0  0  0
  158.7480  211.4250  152.9820 C   0  0  0  0  0  3  0  0  0  0  0  0
  158.0570  212.2900  154.0170 C   0  0  0  0  0  2  0  0  0  0  0  0
  158.7630  211.0210  154.4430 C   0  0  0  0  0  2  0  0  0  0  0  0
  1 13  1  0  0  0  0
  1  2  2  0  0  0  0
  2 18  1  0  0  0  0
  3  6  1  0  0  0  0
  4  1  1  0  0  0  0
  5 12  2  0  0  0  0
  5  8  1  0  0  0  0
  7  4  1  0  0  0  0
  7 14  1  0  0  0  0
  8  7  2  0  0  0  0
  9 10  1  0  0  0  0
 11  2  1  0  0  0  0
 11 17  2  0  0  0  0
 12 16  1  0  0  0  0
 13  3  2  0  0  0  0
 14 13  1  0  0  0  0
 15  9  2  0  0  0  0
 16  4  2  0  0  0  0
 17 15  1  0  0  0  0
 18  6  2  0  0  0  0
 18  9  1  0  0  0  0
 19 17  1  0  0  0  0
 19 20  1  0  0  0  0
 21 22  1  6  0  0  0
 21 20  1  0  0  0  0
 21 23  1  0  0  0  0
 23 24  1  0  0  0  0
 23 25  1  0  0  0  0
 24 25  1  0  0  0  0
M  END
>  <MODEL>
9

>  <REMARK>
 VINA RESULT:      -8.1      2.013      3.910
  Name = 
  4 active torsions:
  status: ('A' for Active; 'I' for Inactive)
    1  A    between atoms: C_2  and  C_21
    2  A    between atoms: C_6  and  N_15
    3  A    between atoms: C_6  and  C_23
    4  A    between atoms: N_15  and  C_21
                            x       y       z     vdW  Elec       q    Type
                         _______ _______ _______ _____ _____    ______ ____

>  <TORSDO>
F 4

$$$$
