=
 OpenBabel11062407413D

 27 30  0  0  1  0  0  0  0  0999 V2000
  161.4890  206.0420  150.2330 C   0  0  2  0  0  3  0  0  0  0  0  0
  160.8880  205.6330  151.4380 O   0  0  0  0  0  0  0  0  0  0  0  0
  160.7200  207.8380  151.4190 C   0  0  1  0  0  3  0  0  0  0  0  0
  162.0960  209.7600  149.7280 C   0  0  0  0  0  0  0  0  0  0  0  0
  162.4750  210.7500  148.8320 O   0  0  0  0  0  1  0  0  0  0  0  0
  161.2770  207.4540  150.1550 N   0  0  0  0  0  0  0  0  0  0  0  0
  160.8410  206.7020  152.2420 O   0  0  0  0  0  0  0  0  0  0  0  0
  161.8310  210.0730  150.9990 C   0  0  0  0  0  3  0  0  0  0  0  0
  162.4140  207.9870  148.1780 O   0  0  0  0  0  0  0  0  0  0  0  0
  161.9570  208.3670  149.2890 C   0  0  0  0  0  0  0  0  0  0  0  0
  161.5060  209.0160  152.0270 C   0  0  1  0  0  3  0  0  0  0  0  0
  160.7350  209.6550  153.1730 C   0  0  0  0  0  2  0  0  0  0  0  0
  160.5490  209.6190  156.9350 C   0  0  0  0  0  2  0  0  0  0  0  0
  161.9760  209.9640  157.2600 C   0  0  0  0  0  3  0  0  0  0  0  0
  162.7580  210.4830  156.3100 C   0  0  0  0  0  3  0  0  0  0  0  0
  161.4340  209.4290  154.5050 C   0  0  1  0  0  3  0  0  0  0  0  0
  162.1970  210.6880  154.9340 C   0  0  0  0  0  2  0  0  0  0  0  0
  160.4150  208.9400  155.5560 C   0  0  1  0  0  3  0  0  0  0  0  0
  160.0330  206.9800  157.0530 C   0  0  0  0  0  1  0  0  0  0  0  0
  160.5210  207.4280  155.6880 C   0  0  0  0  0  2  0  0  0  0  0  0
  160.8510  205.3180  149.0440 C   0  0  0  0  0  2  0  0  0  0  0  0
  161.1370  201.0410  149.3120 C   0  0  0  0  0  3  0  0  0  0  0  0
  160.9650  203.8290  149.1400 C   0  0  0  0  0  0  0  0  0  0  0  0
  160.8040  203.1910  150.3750 C   0  0  0  0  0  3  0  0  0  0  0  0
  160.8920  201.7980  150.4610 C   0  0  0  0  0  3  0  0  0  0  0  0
  161.2960  201.6770  148.0770 C   0  0  0  0  0  3  0  0  0  0  0  0
  161.2090  203.0690  147.9910 C   0  0  0  0  0  3  0  0  0  0  0  0
  1 21  1  6  0  0  0
  1  2  1  0  0  0  0
  2  7  1  0  0  0  0
  3 11  1  0  0  0  0
  3  7  1  1  0  0  0
  4  8  2  0  0  0  0
  5  4  1  0  0  0  0
  6  1  1  0  0  0  0
  6  3  1  0  0  0  0
  8 11  1  0  0  0  0
  9 10  2  0  0  0  0
 10  4  1  0  0  0  0
 10  6  1  0  0  0  0
 11 12  1  1  0  0  0
 13 14  1  0  0  0  0
 15 14  2  0  0  0  0
 16 12  1  6  0  0  0
 16 17  1  0  0  0  0
 16 18  1  0  0  0  0
 17 15  1  0  0  0  0
 18 20  1  1  0  0  0
 18 13  1  0  0  0  0
 20 19  1  0  0  0  0
 21 23  1  0  0  0  0
 22 25  1  0  0  0  0
 23 24  1  0  0  0  0
 24 25  2  0  0  0  0
 26 22  2  0  0  0  0
 27 26  1  0  0  0  0
 27 23  2  0  0  0  0
M  END
>  <MODEL>
1

>  <REMARK>
 VINA RESULT:      -9.2      0.000      0.000
  Name = 
  5 active torsions:
  status: ('A' for Active; 'I' for Inactive)
    1  A    between atoms: C_1  and  C_15
    2  A    between atoms: C_9  and  C_15
    3  A    between atoms: C_12  and  C_14
    4  A    between atoms: C_12  and  C_26
    5  A    between atoms: C_17  and  C_21
                            x       y       z     vdW  Elec       q    Type
                         _______ _______ _______ _____ _____    ______ ____

>  <TORSDO>
F 5

$$$$
=
 OpenBabel11062407413D

 27 30  0  0  1  0  0  0  0  0999 V2000
  162.2510  209.4780  149.5780 C   0  0  2  0  0  3  0  0  0  0  0  0
  161.9090  209.0330  148.2880 O   0  0  0  0  0  0  0  0  0  0  0  0
  160.9310  207.6160  149.6750 C   0  0  1  0  0  3  0  0  0  0  0  0
  161.4010  207.2220  152.5160 C   0  0  0  0  0  0  0  0  0  0  0  0
  161.3360  207.1120  153.8990 O   0  0  0  0  0  1  0  0  0  0  0  0
  161.5250  208.6420  150.4820 N   0  0  0  0  0  0  0  0  0  0  0  0
  161.5090  207.7600  148.4010 O   0  0  0  0  0  0  0  0  0  0  0  0
  161.1040  206.1720  151.7480 C   0  0  0  0  0  3  0  0  0  0  0  0
  162.2770  209.4310  152.5550 O   0  0  0  0  0  0  0  0  0  0  0  0
  161.7690  208.4930  151.8830 C   0  0  0  0  0  0  0  0  0  0  0  0
  161.2500  206.2200  150.2460 C   0  0  1  0  0  3  0  0  0  0  0  0
  160.3560  205.1570  149.6230 C   0  0  0  0  0  2  0  0  0  0  0  0
  160.7730  201.9920  147.6220 C   0  0  0  0  0  2  0  0  0  0  0  0
  161.3610  201.1020  148.6820 C   0  0  0  0  0  3  0  0  0  0  0  0
  161.2700  201.4600  149.9660 C   0  0  0  0  0  3  0  0  0  0  0  0
  161.1180  203.8610  149.3880 C   0  0  1  0  0  3  0  0  0  0  0  0
  160.6000  202.7550  150.3150 C   0  0  0  0  0  2  0  0  0  0  0  0
  161.0620  203.4840  147.8920 C   0  0  1  0  0  3  0  0  0  0  0  0
  162.0950  205.0060  146.2060 C   0  0  0  0  0  1  0  0  0  0  0  0
  162.3590  203.9110  147.2210 C   0  0  0  0  0  2  0  0  0  0  0  0
  161.8700  210.9510  149.7550 C   0  0  0  0  0  2  0  0  0  0  0  0
  161.9500  213.1850  146.0880 C   0  0  0  0  0  3  0  0  0  0  0  0
  161.8990  211.7170  148.4700 C   0  0  0  0  0  0  0  0  0  0  0  0
  160.7210  211.9120  147.7410 C   0  0  0  0  0  3  0  0  0  0  0  0
  160.7460  212.6440  146.5500 C   0  0  0  0  0  3  0  0  0  0  0  0
  163.1280  212.9930  146.8170 C   0  0  0  0  0  3  0  0  0  0  0  0
  163.1030  212.2610  148.0060 C   0  0  0  0  0  3  0  0  0  0  0  0
  1 21  1  6  0  0  0
  1  6  1  0  0  0  0
  2  7  1  0  0  0  0
  2  1  1  0  0  0  0
  3  7  1  6  0  0  0
  3 11  1  0  0  0  0
  3  6  1  0  0  0  0
  4  5  1  0  0  0  0
  6 10  1  0  0  0  0
  8  4  2  0  0  0  0
 10  4  1  0  0  0  0
 10  9  2  0  0  0  0
 11 12  1  6  0  0  0
 11  8  1  0  0  0  0
 13 18  1  0  0  0  0
 13 14  1  0  0  0  0
 14 15  2  0  0  0  0
 15 17  1  0  0  0  0
 16 12  1  6  0  0  0
 16 17  1  0  0  0  0
 18 20  1  1  0  0  0
 18 16  1  0  0  0  0
 19 20  1  0  0  0  0
 22 25  2  0  0  0  0
 22 26  1  0  0  0  0
 23 21  1  0  0  0  0
 24 23  2  0  0  0  0
 25 24  1  0  0  0  0
 26 27  2  0  0  0  0
 27 23  1  0  0  0  0
M  END
>  <MODEL>
2

>  <REMARK>
 VINA RESULT:      -9.2      2.582      8.073
  Name = 
  5 active torsions:
  status: ('A' for Active; 'I' for Inactive)
    1  A    between atoms: C_1  and  C_15
    2  A    between atoms: C_9  and  C_15
    3  A    between atoms: C_12  and  C_14
    4  A    between atoms: C_12  and  C_26
    5  A    between atoms: C_17  and  C_21
                            x       y       z     vdW  Elec       q    Type
                         _______ _______ _______ _____ _____    ______ ____

>  <TORSDO>
F 5

$$$$
=
 OpenBabel11062407413D

 27 30  0  0  1  0  0  0  0  0999 V2000
  161.7390  207.5540  148.8260 C   0  0  2  0  0  3  0  0  0  0  0  0
  161.9650  208.9420  148.7660 O   0  0  0  0  0  0  0  0  0  0  0  0
  162.0770  208.4220  150.9120 C   0  0  1  0  0  3  0  0  0  0  0  0
  161.2190  205.9880  152.2490 C   0  0  0  0  0  0  0  0  0  0  0  0
  161.1000  204.8030  152.9640 O   0  0  0  0  0  1  0  0  0  0  0  0
  161.9300  207.1890  150.1940 N   0  0  0  0  0  0  0  0  0  0  0  0
  161.7440  209.4330  149.9920 O   0  0  0  0  0  0  0  0  0  0  0  0
  161.0870  207.1610  152.8720 C   0  0  0  0  0  3  0  0  0  0  0  0
  161.4190  204.9040  150.1440 O   0  0  0  0  0  0  0  0  0  0  0  0
  161.5160  205.9680  150.8120 C   0  0  0  0  0  0  0  0  0  0  0  0
  161.1180  208.4690  152.1180 C   0  0  1  0  0  3  0  0  0  0  0  0
  161.4990  209.5890  153.0760 C   0  0  0  0  0  2  0  0  0  0  0  0
  159.6450  212.3320  154.8730 C   0  0  0  0  0  2  0  0  0  0  0  0
  159.0210  211.5300  155.9810 C   0  0  0  0  0  3  0  0  0  0  0  0
  159.4870  210.3060  156.2470 C   0  0  0  0  0  3  0  0  0  0  0  0
  160.3160  210.0090  153.9350 C   0  0  1  0  0  3  0  0  0  0  0  0
  160.6090  209.7560  155.4190 C   0  0  0  0  0  2  0  0  0  0  0  0
  159.9360  211.4730  153.6250 C   0  0  1  0  0  3  0  0  0  0  0  0
  158.7270  212.7800  151.8760 C   0  0  0  0  0  1  0  0  0  0  0  0
  158.7500  211.4890  152.6730 C   0  0  0  0  0  2  0  0  0  0  0  0
  162.7180  206.8130  147.9110 C   0  0  0  0  0  2  0  0  0  0  0  0
  160.7710  204.6440  144.7560 C   0  0  0  0  0  3  0  0  0  0  0  0
  162.0310  206.0500  146.8210 C   0  0  0  0  0  0  0  0  0  0  0  0
  160.8300  206.5230  146.2820 C   0  0  0  0  0  3  0  0  0  0  0  0
  160.1990  205.8190  145.2510 C   0  0  0  0  0  3  0  0  0  0  0  0
  161.9730  204.1710  145.2920 C   0  0  0  0  0  3  0  0  0  0  0  0
  162.6030  204.8740  146.3220 C   0  0  0  0  0  3  0  0  0  0  0  0
  1 21  1  6  0  0  0
  1  6  1  0  0  0  0
  2  1  1  0  0  0  0
  2  7  1  0  0  0  0
  3  7  1  6  0  0  0
  3 11  1  0  0  0  0
  4  8  2  0  0  0  0
  4  5  1  0  0  0  0
  6 10  1  0  0  0  0
  6  3  1  0  0  0  0
  9 10  2  0  0  0  0
 10  4  1  0  0  0  0
 11  8  1  0  0  0  0
 11 12  1  1  0  0  0
 13 14  1  0  0  0  0
 14 15  2  0  0  0  0
 16 12  1  6  0  0  0
 16 17  1  0  0  0  0
 17 15  1  0  0  0  0
 18 20  1  6  0  0  0
 18 16  1  0  0  0  0
 18 13  1  0  0  0  0
 19 20  1  0  0  0  0
 22 25  2  0  0  0  0
 22 26  1  0  0  0  0
 23 21  1  0  0  0  0
 24 23  2  0  0  0  0
 25 24  1  0  0  0  0
 26 27  2  0  0  0  0
 27 23  1  0  0  0  0
M  END
>  <MODEL>
3

>  <REMARK>
 VINA RESULT:      -9.1      2.303      4.041
  Name = 
  5 active torsions:
  status: ('A' for Active; 'I' for Inactive)
    1  A    between atoms: C_1  and  C_15
    2  A    between atoms: C_9  and  C_15
    3  A    between atoms: C_12  and  C_14
    4  A    between atoms: C_12  and  C_26
    5  A    between atoms: C_17  and  C_21
                            x       y       z     vdW  Elec       q    Type
                         _______ _______ _______ _____ _____    ______ ____

>  <TORSDO>
F 5

$$$$
=
 OpenBabel11062407413D

 27 30  0  0  1  0  0  0  0  0999 V2000
  161.7600  207.0450  149.0270 C   0  0  2  0  0  3  0  0  0  0  0  0
  162.1110  208.2690  149.6240 O   0  0  0  0  0  0  0  0  0  0  0  0
  162.1760  206.7800  151.2570 C   0  0  1  0  0  3  0  0  0  0  0  0
  161.1030  204.0800  151.3110 C   0  0  0  0  0  0  0  0  0  0  0  0
  160.8770  202.7110  151.3810 O   0  0  0  0  0  1  0  0  0  0  0  0
  161.9180  206.0560  150.0470 N   0  0  0  0  0  0  0  0  0  0  0  0
  161.9360  208.1310  150.9440 O   0  0  0  0  0  0  0  0  0  0  0  0
  161.0780  204.8190  152.4230 C   0  0  0  0  0  3  0  0  0  0  0  0
  161.2020  204.1220  148.9370 O   0  0  0  0  0  0  0  0  0  0  0  0
  161.3960  204.7250  150.0260 C   0  0  0  0  0  0  0  0  0  0  0  0
  161.2260  206.3210  152.3810 C   0  0  1  0  0  3  0  0  0  0  0  0
  161.7070  206.8130  153.7390 C   0  0  0  0  0  2  0  0  0  0  0  0
  160.9680  210.0800  155.4620 C   0  0  0  0  0  2  0  0  0  0  0  0
  159.7970  209.6590  156.3060 C   0  0  0  0  0  3  0  0  0  0  0  0
  159.5620  208.3580  156.5010 C   0  0  0  0  0  3  0  0  0  0  0  0
  160.6870  207.7370  154.3860 C   0  0  1  0  0  3  0  0  0  0  0  0
  160.4630  207.3500  155.8530 C   0  0  0  0  0  2  0  0  0  0  0  0
  161.1170  209.2070  154.1980 C   0  0  1  0  0  3  0  0  0  0  0  0
  160.5090  211.3160  153.0100 C   0  0  0  0  0  1  0  0  0  0  0  0
  160.3430  209.8090  153.0350 C   0  0  0  0  0  2  0  0  0  0  0  0
  162.6670  206.7550  147.8270 C   0  0  0  0  0  2  0  0  0  0  0  0
  160.6330  204.7890  144.5960 C   0  0  0  0  0  3  0  0  0  0  0  0
  161.9520  206.0620  146.7110 C   0  0  0  0  0  0  0  0  0  0  0  0
  160.6790  206.4910  146.3180 C   0  0  0  0  0  3  0  0  0  0  0  0
  160.0190  205.8540  145.2620 C   0  0  0  0  0  3  0  0  0  0  0  0
  161.9060  204.3610  144.9860 C   0  0  0  0  0  3  0  0  0  0  0  0
  162.5650  204.9960  146.0410 C   0  0  0  0  0  3  0  0  0  0  0  0
  1 21  1  6  0  0  0
  1  2  1  0  0  0  0
  1  6  1  0  0  0  0
  2  7  1  0  0  0  0
  3  7  1  6  0  0  0
  3 11  1  0  0  0  0
  4  5  1  0  0  0  0
  4  8  2  0  0  0  0
  6  3  1  0  0  0  0
  9 10  2  0  0  0  0
 10  6  1  0  0  0  0
 10  4  1  0  0  0  0
 11  8  1  0  0  0  0
 11 12  1  1  0  0  0
 13 14  1  0  0  0  0
 14 15  2  0  0  0  0
 16 12  1  1  0  0  0
 16 17  1  0  0  0  0
 17 15  1  0  0  0  0
 18 20  1  6  0  0  0
 18 16  1  0  0  0  0
 18 13  1  0  0  0  0
 19 20  1  0  0  0  0
 22 26  2  0  0  0  0
 22 25  1  0  0  0  0
 23 21  1  0  0  0  0
 24 23  1  0  0  0  0
 25 24  2  0  0  0  0
 26 27  1  0  0  0  0
 27 23  2  0  0  0  0
M  END
>  <MODEL>
4

>  <REMARK>
 VINA RESULT:      -9.1      2.203      4.117
  Name = 
  5 active torsions:
  status: ('A' for Active; 'I' for Inactive)
    1  A    between atoms: C_1  and  C_15
    2  A    between atoms: C_9  and  C_15
    3  A    between atoms: C_12  and  C_14
    4  A    between atoms: C_12  and  C_26
    5  A    between atoms: C_17  and  C_21
                            x       y       z     vdW  Elec       q    Type
                         _______ _______ _______ _____ _____    ______ ____

>  <TORSDO>
F 5

$$$$
=
 OpenBabel11062407413D

 27 30  0  0  1  0  0  0  0  0999 V2000
  161.3220  206.0190  152.0850 C   0  0  2  0  0  3  0  0  0  0  0  0
  161.5350  204.6290  152.0470 O   0  0  0  0  0  0  0  0  0  0  0  0
  162.1710  205.3740  150.0640 C   0  0  1  0  0  3  0  0  0  0  0  0
  161.6560  207.9550  148.8320 C   0  0  0  0  0  0  0  0  0  0  0  0
  161.7100  209.2120  148.2430 O   0  0  0  0  0  1  0  0  0  0  0  0
  161.8430  206.5250  150.8540 N   0  0  0  0  0  0  0  0  0  0  0  0
  161.6280  204.2770  150.7580 O   0  0  0  0  0  0  0  0  0  0  0  0
  161.6890  206.8590  148.0710 C   0  0  0  0  0  3  0  0  0  0  0  0
  161.3220  208.8020  151.0270 O   0  0  0  0  0  0  0  0  0  0  0  0
  161.5880  207.8150  150.2910 C   0  0  0  0  0  0  0  0  0  0  0  0
  161.5400  205.4770  148.6620 C   0  0  1  0  0  3  0  0  0  0  0  0
  162.1530  204.4590  147.7110 C   0  0  0  0  0  2  0  0  0  0  0  0
  161.0800  200.9880  146.7140 C   0  0  0  0  0  2  0  0  0  0  0  0
  160.1610  201.3270  145.5730 C   0  0  0  0  0  3  0  0  0  0  0  0
  160.2160  202.5460  145.0260 C   0  0  0  0  0  3  0  0  0  0  0  0
  161.0890  203.5510  147.1120 C   0  0  1  0  0  3  0  0  0  0  0  0
  161.1800  203.5510  145.5810 C   0  0  0  0  0  2  0  0  0  0  0  0
  161.1920  202.1420  147.7330 C   0  0  1  0  0  3  0  0  0  0  0  0
  160.6690  201.1410  149.9580 C   0  0  0  0  0  1  0  0  0  0  0  0
  160.1420  201.9990  148.8240 C   0  0  0  0  0  2  0  0  0  0  0  0
  162.0400  206.6380  153.2890 C   0  0  0  0  0  2  0  0  0  0  0  0
  159.4160  208.7910  155.9200 C   0  0  0  0  0  3  0  0  0  0  0  0
  161.1150  207.3860  154.1960 C   0  0  0  0  0  0  0  0  0  0  0  0
  160.3820  206.7000  155.1720 C   0  0  0  0  0  3  0  0  0  0  0  0
  159.5320  207.4030  156.0320 C   0  0  0  0  0  3  0  0  0  0  0  0
  160.1500  209.4780  154.9470 C   0  0  0  0  0  3  0  0  0  0  0  0
  160.9990  208.7760  154.0870 C   0  0  0  0  0  3  0  0  0  0  0  0
  1 21  1  1  0  0  0
  2  1  1  0  0  0  0
  3  7  1  1  0  0  0
  3  6  1  0  0  0  0
  4 10  1  0  0  0  0
  5  4  1  0  0  0  0
  6  1  1  0  0  0  0
  7  2  1  0  0  0  0
  8 11  1  0  0  0  0
  8  4  2  0  0  0  0
 10  6  1  0  0  0  0
 10  9  2  0  0  0  0
 11 12  1  6  0  0  0
 11  3  1  0  0  0  0
 13 18  1  0  0  0  0
 14 13  1  0  0  0  0
 15 14  2  0  0  0  0
 15 17  1  0  0  0  0
 16 12  1  1  0  0  0
 16 18  1  0  0  0  0
 17 16  1  0  0  0  0
 18 20  1  1  0  0  0
 20 19  1  0  0  0  0
 21 23  1  0  0  0  0
 22 25  1  0  0  0  0
 23 24  1  0  0  0  0
 24 25  2  0  0  0  0
 26 22  2  0  0  0  0
 27 23  2  0  0  0  0
 27 26  1  0  0  0  0
M  END
>  <MODEL>
5

>  <REMARK>
 VINA RESULT:      -8.9      1.666      7.888
  Name = 
  5 active torsions:
  status: ('A' for Active; 'I' for Inactive)
    1  A    between atoms: C_1  and  C_15
    2  A    between atoms: C_9  and  C_15
    3  A    between atoms: C_12  and  C_14
    4  A    between atoms: C_12  and  C_26
    5  A    between atoms: C_17  and  C_21
                            x       y       z     vdW  Elec       q    Type
                         _______ _______ _______ _____ _____    ______ ____

>  <TORSDO>
F 5

$$$$
=
 OpenBabel11062407413D

 27 30  0  0  1  0  0  0  0  0999 V2000
  161.8000  207.6450  148.9800 C   0  0  2  0  0  3  0  0  0  0  0  0
  162.1140  208.9870  148.7000 O   0  0  0  0  0  0  0  0  0  0  0  0
  162.2440  208.8020  150.9000 C   0  0  1  0  0  3  0  0  0  0  0  0
  161.2630  206.6700  152.6140 C   0  0  0  0  0  0  0  0  0  0  0  0
  161.0850  205.6220  153.5080 O   0  0  0  0  0  1  0  0  0  0  0  0
  162.0000  207.4850  150.3860 N   0  0  0  0  0  0  0  0  0  0  0  0
  161.9560  209.6770  149.8360 O   0  0  0  0  0  0  0  0  0  0  0  0
  161.2230  207.9320  153.0470 C   0  0  0  0  0  3  0  0  0  0  0  0
  161.3410  205.2600  150.7030 O   0  0  0  0  0  0  0  0  0  0  0  0
  161.5230  206.4060  151.1950 C   0  0  0  0  0  0  0  0  0  0  0  0
  161.3200  209.1010  152.0970 C   0  0  1  0  0  3  0  0  0  0  0  0
  161.7960  210.3280  152.8610 C   0  0  0  0  0  2  0  0  0  0  0  0
  159.0510  210.1250  155.4330 C   0  0  0  0  0  2  0  0  0  0  0  0
  158.0760  211.1010  154.8360 C   0  0  0  0  0  3  0  0  0  0  0  0
  158.2160  211.4720  153.5600 C   0  0  0  0  0  3  0  0  0  0  0  0
  160.6460  211.0080  153.5880 C   0  0  1  0  0  3  0  0  0  0  0  0
  159.3570  210.9190  152.7610 C   0  0  0  0  0  2  0  0  0  0  0  0
  160.5050  210.4240  155.0100 C   0  0  1  0  0  3  0  0  0  0  0  0
  162.4180  210.7200  156.5840 C   0  0  0  0  0  1  0  0  0  0  0  0
  161.1720  211.3620  156.0030 C   0  0  0  0  0  2  0  0  0  0  0  0
  162.7060  206.7040  148.1800 C   0  0  0  0  0  2  0  0  0  0  0  0
  160.7220  204.9190  144.8150 C   0  0  0  0  0  3  0  0  0  0  0  0
  162.0070  206.0740  147.0160 C   0  0  0  0  0  0  0  0  0  0  0  0
  160.7770  206.5780  146.5780 C   0  0  0  0  0  3  0  0  0  0  0  0
  160.1340  206.0000  145.4790 C   0  0  0  0  0  3  0  0  0  0  0  0
  161.9510  204.4150  145.2510 C   0  0  0  0  0  3  0  0  0  0  0  0
  162.5940  204.9920  146.3490 C   0  0  0  0  0  3  0  0  0  0  0  0
  1 21  1  6  0  0  0
  1  6  1  0  0  0  0
  2  1  1  0  0  0  0
  2  7  1  0  0  0  0
  3  7  1  6  0  0  0
  3 11  1  0  0  0  0
  4  8  2  0  0  0  0
  4  5  1  0  0  0  0
  6  3  1  0  0  0  0
  6 10  1  0  0  0  0
  9 10  2  0  0  0  0
 10  4  1  0  0  0  0
 11 12  1  1  0  0  0
 11  8  1  0  0  0  0
 14 13  1  0  0  0  0
 15 14  2  0  0  0  0
 16 12  1  6  0  0  0
 16 18  1  0  0  0  0
 17 15  1  0  0  0  0
 17 16  1  0  0  0  0
 18 13  1  0  0  0  0
 18 20  1  1  0  0  0
 20 19  1  0  0  0  0
 22 26  2  0  0  0  0
 22 25  1  0  0  0  0
 23 21  1  0  0  0  0
 24 23  1  0  0  0  0
 25 24  2  0  0  0  0
 26 27  1  0  0  0  0
 27 23  2  0  0  0  0
M  END
>  <MODEL>
6

>  <REMARK>
 VINA RESULT:      -8.9      2.381      3.866
  Name = 
  5 active torsions:
  status: ('A' for Active; 'I' for Inactive)
    1  A    between atoms: C_1  and  C_15
    2  A    between atoms: C_9  and  C_15
    3  A    between atoms: C_12  and  C_14
    4  A    between atoms: C_12  and  C_26
    5  A    between atoms: C_17  and  C_21
                            x       y       z     vdW  Elec       q    Type
                         _______ _______ _______ _____ _____    ______ ____

>  <TORSDO>
F 5

$$$$
=
 OpenBabel11062407413D

 27 30  0  0  1  0  0  0  0  0999 V2000
  161.3640  206.0760  150.8960 C   0  0  2  0  0  3  0  0  0  0  0  0
  161.3160  205.9020  152.2910 O   0  0  0  0  0  0  0  0  0  0  0  0
  161.3090  208.0900  151.9730 C   0  0  1  0  0  3  0  0  0  0  0  0
  161.9480  209.5880  149.5660 C   0  0  0  0  0  0  0  0  0  0  0  0
  161.9700  210.4020  148.4410 O   0  0  0  0  0  1  0  0  0  0  0  0
  161.2380  207.4830  150.6760 N   0  0  0  0  0  0  0  0  0  0  0  0
  161.6940  207.0580  152.8490 O   0  0  0  0  0  0  0  0  0  0  0  0
  162.2800  210.0880  150.7590 C   0  0  0  0  0  3  0  0  0  0  0  0
  161.4430  207.6130  148.3470 O   0  0  0  0  0  0  0  0  0  0  0  0
  161.5370  208.1830  149.4660 C   0  0  0  0  0  0  0  0  0  0  0  0
  162.3590  209.2190  151.9910 C   0  0  1  0  0  3  0  0  0  0  0  0
  162.2040  210.0910  153.2280 C   0  0  0  0  0  2  0  0  0  0  0  0
  159.3720  211.9260  154.9020 C   0  0  0  0  0  2  0  0  0  0  0  0
  158.6700  210.7650  155.5520 C   0  0  0  0  0  3  0  0  0  0  0  0
  159.3100  209.5980  155.6780 C   0  0  0  0  0  3  0  0  0  0  0  0
  160.7710  210.0770  153.7390 C   0  0  1  0  0  3  0  0  0  0  0  0
  160.7060  209.4710  155.1470 C   0  0  0  0  0  2  0  0  0  0  0  0
  160.1700  211.4970  153.6540 C   0  0  1  0  0  3  0  0  0  0  0  0
  159.7370  212.7870  151.5620 C   0  0  0  0  0  1  0  0  0  0  0  0
  159.3100  211.5990  152.4040 C   0  0  0  0  0  2  0  0  0  0  0  0
  160.2280  205.3040  150.2200 C   0  0  0  0  0  2  0  0  0  0  0  0
  161.3830  201.3880  148.8860 C   0  0  0  0  0  3  0  0  0  0  0  0
  160.6430  203.9420  149.7590 C   0  0  0  0  0  0  0  0  0  0  0  0
  160.6330  202.8650  150.6530 C   0  0  0  0  0  3  0  0  0  0  0  0
  161.0040  201.5880  150.2170 C   0  0  0  0  0  3  0  0  0  0  0  0
  161.3920  202.4630  147.9920 C   0  0  0  0  0  3  0  0  0  0  0  0
  161.0220  203.7380  148.4280 C   0  0  0  0  0  3  0  0  0  0  0  0
  1 21  1  6  0  0  0
  1  2  1  0  0  0  0
  2  7  1  0  0  0  0
  3 11  1  0  0  0  0
  3  7  1  1  0  0  0
  4  8  2  0  0  0  0
  5  4  1  0  0  0  0
  6  1  1  0  0  0  0
  6  3  1  0  0  0  0
  8 11  1  0  0  0  0
  9 10  2  0  0  0  0
 10  4  1  0  0  0  0
 10  6  1  0  0  0  0
 11 12  1  1  0  0  0
 13 14  1  0  0  0  0
 14 15  2  0  0  0  0
 16 12  1  1  0  0  0
 16 17  1  0  0  0  0
 17 15  1  0  0  0  0
 18 20  1  6  0  0  0
 18 16  1  0  0  0  0
 18 13  1  0  0  0  0
 19 20  1  0  0  0  0
 22 25  1  0  0  0  0
 23 21  1  0  0  0  0
 23 24  1  0  0  0  0
 25 24  2  0  0  0  0
 26 27  1  0  0  0  0
 26 22  2  0  0  0  0
 27 23  2  0  0  0  0
M  END
>  <MODEL>
7

>  <REMARK>
 VINA RESULT:      -8.7      1.411      2.440
  Name = 
  5 active torsions:
  status: ('A' for Active; 'I' for Inactive)
    1  A    between atoms: C_1  and  C_15
    2  A    between atoms: C_9  and  C_15
    3  A    between atoms: C_12  and  C_14
    4  A    between atoms: C_12  and  C_26
    5  A    between atoms: C_17  and  C_21
                            x       y       z     vdW  Elec       q    Type
                         _______ _______ _______ _____ _____    ______ ____

>  <TORSDO>
F 5

$$$$
=
 OpenBabel11062407413D

 27 30  0  0  1  0  0  0  0  0999 V2000
  161.5330  205.6310  150.7130 C   0  0  2  0  0  3  0  0  0  0  0  0
  161.0380  204.9540  151.8430 O   0  0  0  0  0  0  0  0  0  0  0  0
  160.8350  207.1050  152.3140 C   0  0  1  0  0  3  0  0  0  0  0  0
  162.0380  209.3880  150.9780 C   0  0  0  0  0  0  0  0  0  0  0  0
  162.3270  210.5600  150.2910 O   0  0  0  0  0  1  0  0  0  0  0  0
  161.2930  207.0190  150.9580 N   0  0  0  0  0  0  0  0  0  0  0  0
  161.0410  205.8240  152.8600 O   0  0  0  0  0  0  0  0  0  0  0  0
  161.8730  209.4140  152.3030 C   0  0  0  0  0  3  0  0  0  0  0  0
  162.2560  208.0010  149.0620 O   0  0  0  0  0  0  0  0  0  0  0  0
  161.8850  208.1180  150.2600 C   0  0  0  0  0  0  0  0  0  0  0  0
  161.6490  208.1510  153.1000 C   0  0  1  0  0  3  0  0  0  0  0  0
  160.9640  208.5040  154.4120 C   0  0  0  0  0  2  0  0  0  0  0  0
  160.8350  211.3410  156.8880 C   0  0  0  0  0  2  0  0  0  0  0  0
  160.2440  212.4110  156.0130 C   0  0  0  0  0  3  0  0  0  0  0  0
  159.6540  212.0680  154.8640 C   0  0  0  0  0  3  0  0  0  0  0  0
  161.0030  210.0020  154.6730 C   0  0  1  0  0  3  0  0  0  0  0  0
  159.6160  210.6220  154.4670 C   0  0  0  0  0  2  0  0  0  0  0  0
  161.5970  210.2770  156.0710 C   0  0  1  0  0  3  0  0  0  0  0  0
  163.6280  211.1130  157.2570 C   0  0  0  0  0  1  0  0  0  0  0  0
  163.0620  210.6590  155.9240 C   0  0  0  0  0  2  0  0  0  0  0  0
  160.8120  205.1580  149.4470 C   0  0  0  0  0  2  0  0  0  0  0  0
  161.1070  200.9110  148.8810 C   0  0  0  0  0  3  0  0  0  0  0  0
  160.9010  203.6780  149.2470 C   0  0  0  0  0  0  0  0  0  0  0  0
  161.1350  203.1540  147.9700 C   0  0  0  0  0  3  0  0  0  0  0  0
  161.2370  201.7710  147.7870 C   0  0  0  0  0  3  0  0  0  0  0  0
  160.8740  201.4320  150.1580 C   0  0  0  0  0  3  0  0  0  0  0  0
  160.7720  202.8140  150.3400 C   0  0  0  0  0  3  0  0  0  0  0  0
  1 21  1  6  0  0  0
  1  6  1  0  0  0  0
  1  2  1  0  0  0  0
  2  7  1  0  0  0  0
  3  7  1  1  0  0  0
  3 11  1  0  0  0  0
  4  8  2  0  0  0  0
  5  4  1  0  0  0  0
  6  3  1  0  0  0  0
  8 11  1  0  0  0  0
  9 10  2  0  0  0  0
 10  6  1  0  0  0  0
 10  4  1  0  0  0  0
 11 12  1  1  0  0  0
 14 13  1  0  0  0  0
 15 14  2  0  0  0  0
 16 12  1  1  0  0  0
 16 18  1  0  0  0  0
 17 16  1  0  0  0  0
 17 15  1  0  0  0  0
 18 20  1  6  0  0  0
 18 13  1  0  0  0  0
 20 19  1  0  0  0  0
 22 26  1  0  0  0  0
 23 21  1  0  0  0  0
 23 27  1  0  0  0  0
 24 23  2  0  0  0  0
 25 24  1  0  0  0  0
 25 22  2  0  0  0  0
 26 27  2  0  0  0  0
M  END
>  <MODEL>
8

>  <REMARK>
 VINA RESULT:      -8.7      1.229      2.167
  Name = 
  5 active torsions:
  status: ('A' for Active; 'I' for Inactive)
    1  A    between atoms: C_1  and  C_15
    2  A    between atoms: C_9  and  C_15
    3  A    between atoms: C_12  and  C_14
    4  A    between atoms: C_12  and  C_26
    5  A    between atoms: C_17  and  C_21
                            x       y       z     vdW  Elec       q    Type
                         _______ _______ _______ _____ _____    ______ ____

>  <TORSDO>
F 5

$$$$
=
 OpenBabel11062407413D

 27 30  0  0  1  0  0  0  0  0999 V2000
  161.3170  205.6340  147.6760 C   0  0  2  0  0  3  0  0  0  0  0  0
  161.6340  206.9910  147.4840 O   0  0  0  0  0  0  0  0  0  0  0  0
  161.9490  206.6160  149.6400 C   0  0  1  0  0  3  0  0  0  0  0  0
  161.0750  204.3570  151.2470 C   0  0  0  0  0  0  0  0  0  0  0  0
  160.9520  203.2390  152.0620 O   0  0  0  0  0  1  0  0  0  0  0  0
  161.6340  205.3520  149.0410 N   0  0  0  0  0  0  0  0  0  0  0  0
  161.5890  207.5830  148.6840 O   0  0  0  0  0  0  0  0  0  0  0  0
  161.0980  205.5780  151.7870 C   0  0  0  0  0  3  0  0  0  0  0  0
  160.9580  203.1170  149.2240 O   0  0  0  0  0  0  0  0  0  0  0  0
  161.2060  204.2130  149.7930 C   0  0  0  0  0  0  0  0  0  0  0  0
  161.1380  206.8230  150.9340 C   0  0  1  0  0  3  0  0  0  0  0  0
  161.7030  207.9730  151.7560 C   0  0  0  0  0  2  0  0  0  0  0  0
  161.0790  210.0530  154.8340 C   0  0  0  0  0  2  0  0  0  0  0  0
  160.3520  209.0420  155.6770 C   0  0  0  0  0  3  0  0  0  0  0  0
  160.4130  207.7480  155.3480 C   0  0  0  0  0  3  0  0  0  0  0  0
  160.8310  208.2710  152.9650 C   0  0  1  0  0  3  0  0  0  0  0  0
  161.1890  207.3410  154.1310 C   0  0  0  0  0  2  0  0  0  0  0  0
  160.9250  209.7700  153.3250 C   0  0  1  0  0  3  0  0  0  0  0  0
  160.0030  211.9770  152.6150 C   0  0  0  0  0  1  0  0  0  0  0  0
  159.7130  210.4950  152.7620 C   0  0  0  0  0  2  0  0  0  0  0  0
  162.1320  204.7540  146.7230 C   0  0  0  0  0  2  0  0  0  0  0  0
  159.6640  202.0080  144.5280 C   0  0  0  0  0  3  0  0  0  0  0  0
  161.2830  203.7940  145.9500 C   0  0  0  0  0  0  0  0  0  0  0  0
  161.2520  202.4410  146.3050 C   0  0  0  0  0  3  0  0  0  0  0  0
  160.4440  201.5480  145.5930 C   0  0  0  0  0  3  0  0  0  0  0  0
  159.6930  203.3610  144.1730 C   0  0  0  0  0  3  0  0  0  0  0  0
  160.5010  204.2530  144.8840 C   0  0  0  0  0  3  0  0  0  0  0  0
  1 21  1  6  0  0  0
  1  6  1  0  0  0  0
  2  1  1  0  0  0  0
  2  7  1  0  0  0  0
  3  7  1  6  0  0  0
  3 11  1  0  0  0  0
  4  8  2  0  0  0  0
  4  5  1  0  0  0  0
  6  3  1  0  0  0  0
  6 10  1  0  0  0  0
  9 10  2  0  0  0  0
 10  4  1  0  0  0  0
 11 12  1  1  0  0  0
 11  8  1  0  0  0  0
 13 14  1  0  0  0  0
 15 14  2  0  0  0  0
 16 12  1  6  0  0  0
 16 18  1  0  0  0  0
 16 17  1  0  0  0  0
 17 15  1  0  0  0  0
 18 20  1  1  0  0  0
 18 13  1  0  0  0  0
 19 20  1  0  0  0  0
 22 25  1  0  0  0  0
 23 24  1  0  0  0  0
 23 21  1  0  0  0  0
 25 24  2  0  0  0  0
 26 22  2  0  0  0  0
 26 27  1  0  0  0  0
 27 23  2  0  0  0  0
M  END
>  <MODEL>
9

>  <REMARK>
 VINA RESULT:      -8.5      2.066      4.122
  Name = 
  5 active torsions:
  status: ('A' for Active; 'I' for Inactive)
    1  A    between atoms: C_1  and  C_15
    2  A    between atoms: C_9  and  C_15
    3  A    between atoms: C_12  and  C_14
    4  A    between atoms: C_12  and  C_26
    5  A    between atoms: C_17  and  C_21
                            x       y       z     vdW  Elec       q    Type
                         _______ _______ _______ _____ _____    ______ ____

>  <TORSDO>
F 5

$$$$
