=
 OpenBabel11052422513D

 28 31  0  0  1  0  0  0  0  0999 V2000
  161.1130  207.5520  150.5470 C   0  0  2  0  0  3  0  0  0  0  0  0
  162.2210  211.5650  149.2860 C   0  0  0  0  0  1  0  0  0  0  0  0
  160.7000  209.5170  153.8500 C   0  0  1  0  0  3  0  0  0  0  0  0
  161.5620  209.9630  151.1430 C   0  0  0  0  0  0  0  0  0  0  0  0
  160.4330  208.4260  152.8200 C   0  0  0  0  0  2  0  0  0  0  0  0
  161.9600  209.1490  148.8160 C   0  0  0  0  0  2  0  0  0  0  0  0
  161.1840  211.0150  151.9000 C   0  0  0  0  0  3  0  0  0  0  0  0
  162.3690  210.1690  149.8760 C   0  0  1  0  0  3  0  0  0  0  0  0
  160.4120  210.8610  153.1820 C   0  0  0  0  0  2  0  0  0  0  0  0
  162.0600  207.7300  149.3600 C   0  0  0  0  0  2  0  0  0  0  0  0
  161.4440  208.5420  151.6760 C   0  0  1  0  0  3  0  0  0  0  0  0
  159.8220  210.5370  156.0380 C   0  0  0  0  0  2  0  0  0  0  0  0
  161.0260  208.1380  157.1180 C   0  0  0  0  0  2  0  0  0  0  0  0
  162.2480  210.3480  156.8280 C   0  0  0  0  0  0  0  0  0  0  0  0
  159.8330  209.3170  155.1060 C   0  0  2  0  0  3  0  0  0  0  0  0
  159.8120  206.9830  155.4740 O   0  0  0  0  0  0  0  0  0  0  0  0
  162.3390  208.8430  156.8220 C   0  0  0  0  0  2  0  0  0  0  0  0
  160.2030  208.0690  155.8680 C   0  0  0  0  0  0  0  0  0  0  0  0
  163.4830  211.0970  157.1860 C   0  0  0  0  0  1  0  0  0  0  0  0
  161.1840  211.0660  156.4200 C   0  0  0  0  0  3  0  0  0  0  0  0
  161.1330  206.1250  151.0250 C   0  0  0  0  0  0  0  0  0  0  0  0
  161.3670  205.8430  152.3810 C   0  0  0  0  0  3  0  0  0  0  0  0
  160.9040  203.7390  150.5960 C   0  0  0  0  0  0  0  0  0  0  0  0
  161.3710  204.5250  152.8390 C   0  0  0  0  0  3  0  0  0  0  0  0
  160.6410  205.3310  148.6770 C   0  0  0  0  0  1  0  0  0  0  0  0
  160.8980  205.0630  150.1260 C   0  0  0  0  0  0  0  0  0  0  0  0
  160.6740  202.6790  149.7260 O   0  0  0  0  0  1  0  0  0  0  0  0
  161.1400  203.4760  151.9480 C   0  0  0  0  0  3  0  0  0  0  0  0
  1 21  1  1  0  0  0
  1 11  1  0  0  0  0
  3  5  1  6  0  0  0
  3 15  1  0  0  0  0
  4 11  1  0  0  0  0
  4  7  2  0  0  0  0
  6 10  1  0  0  0  0
  6  8  1  0  0  0  0
  7  9  1  0  0  0  0
  8  2  1  6  0  0  0
  8  4  1  0  0  0  0
  9  3  1  0  0  0  0
 10  1  1  0  0  0  0
 11  5  1  1  0  0  0
 12 20  1  0  0  0  0
 14 19  1  0  0  0  0
 15 18  1  0  0  0  0
 15 12  1  1  0  0  0
 16 18  2  0  0  0  0
 17 14  1  0  0  0  0
 17 13  1  0  0  0  0
 18 13  1  0  0  0  0
 20 14  2  0  0  0  0
 21 22  1  0  0  0  0
 22 24  2  0  0  0  0
 23 28  2  0  0  0  0
 25 26  1  0  0  0  0
 26 23  1  0  0  0  0
 26 21  2  0  0  0  0
 27 23  1  0  0  0  0
 28 24  1  0  0  0  0
M  END
>  <MODEL>
1

>  <REMARK>
 VINA RESULT:      -9.3      0.000      0.000
  Name = 
  2 active torsions:
  status: ('A' for Active; 'I' for Inactive)
    1  A    between atoms: C_1  and  C_2
    2  A    between atoms: C_10  and  C_13
                            x       y       z     vdW  Elec       q    Type
                         _______ _______ _______ _____ _____    ______ ____

>  <TORSDO>
F 2

$$$$
=
 OpenBabel11052422513D

 28 31  0  0  1  0  0  0  0  0999 V2000
  161.4910  208.3600  152.8870 C   0  0  2  0  0  3  0  0  0  0  0  0
  160.2080  206.9870  156.8100 C   0  0  0  0  0  1  0  0  0  0  0  0
  159.3210  211.3400  154.0520 C   0  0  1  0  0  3  0  0  0  0  0  0
  160.1010  208.7250  154.9620 C   0  0  0  0  0  0  0  0  0  0  0  0
  160.4390  210.6210  153.3050 C   0  0  0  0  0  2  0  0  0  0  0  0
  161.3830  206.6020  154.6660 C   0  0  0  0  0  2  0  0  0  0  0  0
  159.6450  209.6290  155.8550 C   0  0  0  0  0  3  0  0  0  0  0  0
  160.1600  207.2510  155.3110 C   0  0  1  0  0  3  0  0  0  0  0  0
  159.5360  211.0980  155.5450 C   0  0  0  0  0  2  0  0  0  0  0  0
  161.4050  206.8590  153.1640 C   0  0  0  0  0  2  0  0  0  0  0  0
  160.2970  209.1090  153.5020 C   0  0  1  0  0  3  0  0  0  0  0  0
  159.0910  213.7340  154.9540 C   0  0  0  0  0  2  0  0  0  0  0  0
  157.0040  213.8110  152.9510 C   0  0  0  0  0  2  0  0  0  0  0  0
  156.6480  213.0970  155.3650 C   0  0  0  0  0  0  0  0  0  0  0  0
  159.3130  212.8430  153.7230 C   0  0  2  0  0  3  0  0  0  0  0  0
  158.6200  212.9750  151.4680 O   0  0  0  0  0  0  0  0  0  0  0  0
  156.2470  212.9210  153.9220 C   0  0  0  0  0  2  0  0  0  0  0  0
  158.3290  213.1880  152.6330 C   0  0  0  0  0  0  0  0  0  0  0  0
  155.6140  212.8030  156.3930 C   0  0  0  0  0  1  0  0  0  0  0  0
  157.8920  213.3760  155.7980 C   0  0  0  0  0  3  0  0  0  0  0  0
  161.6150  208.6140  151.4080 C   0  0  0  0  0  0  0  0  0  0  0  0
  162.0480  209.8670  150.9470 C   0  0  0  0  0  3  0  0  0  0  0  0
  161.4600  207.8490  149.1020 C   0  0  0  0  0  0  0  0  0  0  0  0
  162.1840  210.1110  149.5790 C   0  0  0  0  0  3  0  0  0  0  0  0
  160.8620  206.2480  150.9370 C   0  0  0  0  0  1  0  0  0  0  0  0
  161.3200  207.5960  150.4770 C   0  0  0  0  0  0  0  0  0  0  0  0
  161.1750  206.8580  148.1680 O   0  0  0  0  0  1  0  0  0  0  0  0
  161.8900  209.1020  148.6590 C   0  0  0  0  0  3  0  0  0  0  0  0
  1 21  1  6  0  0  0
  1 10  1  0  0  0  0
  1 11  1  0  0  0  0
  3  5  1  6  0  0  0
  3  9  1  0  0  0  0
  4  8  1  0  0  0  0
  4  7  2  0  0  0  0
  6  8  1  0  0  0  0
  8  2  1  1  0  0  0
  9  7  1  0  0  0  0
 10  6  1  0  0  0  0
 11  5  1  1  0  0  0
 11  4  1  0  0  0  0
 12 20  1  0  0  0  0
 13 17  1  0  0  0  0
 14 20  2  0  0  0  0
 14 19  1  0  0  0  0
 15  3  1  0  0  0  0
 15 12  1  1  0  0  0
 16 18  2  0  0  0  0
 17 14  1  0  0  0  0
 18 13  1  0  0  0  0
 18 15  1  0  0  0  0
 22 21  1  0  0  0  0
 23 26  1  0  0  0  0
 24 22  2  0  0  0  0
 26 25  1  0  0  0  0
 26 21  2  0  0  0  0
 27 23  1  0  0  0  0
 28 23  2  0  0  0  0
 28 24  1  0  0  0  0
M  END
>  <MODEL>
2

>  <REMARK>
 VINA RESULT:      -6.6      2.750      5.283
  Name = 
  2 active torsions:
  status: ('A' for Active; 'I' for Inactive)
    1  A    between atoms: C_1  and  C_2
    2  A    between atoms: C_10  and  C_13
                            x       y       z     vdW  Elec       q    Type
                         _______ _______ _______ _____ _____    ______ ____

>  <TORSDO>
F 2

$$$$
