=
 OpenBabel11052422213D

 25 27  0  0  1  0  0  0  0  0999 V2000
  160.8390  207.1940  147.9120 C   0  0  1  0  0  3  0  0  0  0  0  0
  161.8670  207.2370  149.0420 C   0  0  1  0  0  0  0  0  0  0  0  0
  161.4240  203.9230  149.9920 O   0  0  0  0  0  0  0  0  0  0  0  0
  162.2840  206.7090  147.6590 C   0  0  1  0  0  3  0  0  0  0  0  0
  161.6100  209.1180  150.2860 C   0  0  1  0  0  3  0  0  0  0  0  0
  160.8850  205.1650  150.3480 C   0  0  0  0  0  2  0  0  0  0  0  0
  161.2950  203.0730  147.7440 C   0  0  0  0  0  2  0  0  0  0  0  0
  161.5940  204.3290  146.9300 C   0  0  1  0  0  3  0  0  0  0  0  0
  162.0650  206.9670  151.5260 N   0  0  0  0  0  0  0  0  0  0  0  0
  162.5100  206.2620  152.7190 C   0  0  0  0  0  1  0  0  0  0  0  0
  162.3860  208.5250  149.2690 O   0  0  0  0  0  0  0  0  0  0  0  0
  159.9100  206.1660  148.0600 O   0  0  0  0  0  1  0  0  0  0  0  0
  160.5470  203.3960  149.0370 C   0  0  0  0  0  2  0  0  0  0  0  0
  161.7850  208.3720  151.5830 C   0  0  0  0  0  0  0  0  0  0  0  0
  162.5910  205.2000  147.6830 C   0  0  0  0  0  2  0  0  0  0  0  0
  161.6330  208.9520  152.6930 O   0  0  0  0  0  0  0  0  0  0  0  0
  161.9680  206.2430  150.2560 C   0  0  2  0  0  3  0  0  0  0  0  0
  162.1550  203.9340  145.5750 C   0  0  0  0  0  2  0  0  0  0  0  0
  161.5210  204.7700  144.4780 C   0  0  0  0  0  1  0  0  0  0  0  0
  161.9360  210.6090  150.4080 C   0  0  0  0  0  2  0  0  0  0  0  0
  162.2930  211.2430  149.0700 C   0  0  0  0  0  2  0  0  0  0  0  0
  161.4370  212.4720  148.8210 C   0  0  0  0  0  2  0  0  0  0  0  0
  161.2210  212.6530  147.3600 C   0  0  0  0  0  0  0  0  0  0  0  0
  162.2770  213.0340  146.5420 O   0  0  0  0  0  1  0  0  0  0  0  0
  160.0210  212.4560  146.8380 C   0  0  0  0  0  2  0  0  0  0  0  0
  1 12  1  1  0  0  0
  1  2  1  0  0  0  0
  2 11  1  1  0  0  0
  2 17  1  0  0  0  0
  3  6  1  0  0  0  0
  4 15  1  1  0  0  0
  4  1  1  0  0  0  0
  4  2  1  0  0  0  0
  5 20  1  1  0  0  0
  5 14  1  0  0  0  0
  7 13  1  0  0  0  0
  8 18  1  6  0  0  0
  8 15  1  0  0  0  0
  8  7  1  0  0  0  0
  9 14  1  0  0  0  0
  9 10  1  0  0  0  0
 11  5  1  0  0  0  0
 13  3  1  0  0  0  0
 14 16  2  0  0  0  0
 17  6  1  1  0  0  0
 17  9  1  0  0  0  0
 19 18  1  0  0  0  0
 21 20  1  0  0  0  0
 22 21  1  0  0  0  0
 23 22  1  0  0  0  0
 24 23  1  0  0  0  0
 25 23  2  0  0  0  0
M  END
>  <MODEL>
1

>  <REMARK>
 VINA RESULT:      -6.6      0.000      0.000
  Name = 
  5 active torsions:
  status: ('A' for Active; 'I' for Inactive)
    1  A    between atoms: C_2  and  C_21
    2  A    between atoms: C_6  and  C_15
    3  A    between atoms: C_8  and  C_11
    4  A    between atoms: C_15  and  C_25
    5  A    between atoms: C_21  and  C_25
                            x       y       z     vdW  Elec       q    Type
                         _______ _______ _______ _____ _____    ______ ____

>  <TORSDO>
F 5

$$$$
=
 OpenBabel11052422213D

 25 27  0  0  1  0  0  0  0  0999 V2000
  162.3090  206.2170  152.3380 C   0  0  1  0  0  3  0  0  0  0  0  0
  161.2780  207.3320  152.5040 C   0  0  1  0  0  0  0  0  0  0  0  0
  161.5310  208.4790  149.2330 O   0  0  0  0  0  0  0  0  0  0  0  0
  160.8410  205.9780  151.9180 C   0  0  1  0  0  3  0  0  0  0  0  0
  161.6300  208.4650  154.4390 C   0  0  1  0  0  3  0  0  0  0  0  0
  162.1350  208.7670  150.4620 C   0  0  0  0  0  2  0  0  0  0  0  0
  161.6280  206.2860  148.2450 C   0  0  0  0  0  2  0  0  0  0  0  0
  161.4040  205.3970  149.4660 C   0  0  1  0  0  3  0  0  0  0  0  0
  161.0490  209.8250  152.3930 N   0  0  0  0  0  0  0  0  0  0  0  0
  160.5570  211.0530  151.7850 C   0  0  0  0  0  1  0  0  0  0  0  0
  160.8290  207.4770  153.8300 O   0  0  0  0  0  0  0  0  0  0  0  0
  163.1790  206.4340  151.2710 O   0  0  0  0  0  1  0  0  0  0  0  0
  162.3840  207.5650  148.6030 C   0  0  0  0  0  2  0  0  0  0  0  0
  161.4060  209.8020  153.7810 C   0  0  0  0  0  0  0  0  0  0  0  0
  160.4510  206.0880  150.4320 C   0  0  0  0  0  2  0  0  0  0  0  0
  161.5820  210.8770  154.4170 O   0  0  0  0  0  0  0  0  0  0  0  0
  161.1140  208.6010  151.5910 C   0  0  2  0  0  3  0  0  0  0  0  0
  160.8310  204.0620  149.0220 C   0  0  0  0  0  2  0  0  0  0  0  0
  161.5580  203.5610  147.7880 C   0  0  0  0  0  1  0  0  0  0  0  0
  161.3860  208.4960  155.9500 C   0  0  0  0  0  2  0  0  0  0  0  0
  159.9180  208.6980  156.3020 C   0  0  0  0  0  2  0  0  0  0  0  0
  159.7560  209.8770  157.2440 C   0  0  0  0  0  2  0  0  0  0  0  0
  158.9920  210.9630  156.5730 C   0  0  0  0  0  0  0  0  0  0  0  0
  158.3140  210.7080  155.3880 O   0  0  0  0  0  1  0  0  0  0  0  0
  158.9600  212.1760  157.1020 C   0  0  0  0  0  2  0  0  0  0  0  0
  1 12  1  6  0  0  0
  1  2  1  0  0  0  0
  2 11  1  1  0  0  0
  3  6  1  0  0  0  0
  4 15  1  6  0  0  0
  4  1  1  0  0  0  0
  4  2  1  0  0  0  0
  5 20  1  1  0  0  0
  7 13  1  0  0  0  0
  7  8  1  0  0  0  0
  8 18  1  6  0  0  0
  8 15  1  0  0  0  0
  9 14  1  0  0  0  0
 10  9  1  0  0  0  0
 11  5  1  0  0  0  0
 13  3  1  0  0  0  0
 14 16  2  0  0  0  0
 14  5  1  0  0  0  0
 17  6  1  6  0  0  0
 17  9  1  0  0  0  0
 17  2  1  0  0  0  0
 19 18  1  0  0  0  0
 20 21  1  0  0  0  0
 21 22  1  0  0  0  0
 23 25  2  0  0  0  0
 23 22  1  0  0  0  0
 24 23  1  0  0  0  0
M  END
>  <MODEL>
2

>  <REMARK>
 VINA RESULT:      -6.5      3.193      5.555
  Name = 
  5 active torsions:
  status: ('A' for Active; 'I' for Inactive)
    1  A    between atoms: C_2  and  C_21
    2  A    between atoms: C_6  and  C_15
    3  A    between atoms: C_8  and  C_11
    4  A    between atoms: C_15  and  C_25
    5  A    between atoms: C_21  and  C_25
                            x       y       z     vdW  Elec       q    Type
                         _______ _______ _______ _____ _____    ______ ____

>  <TORSDO>
F 5

$$$$
=
 OpenBabel11052422213D

 25 27  0  0  1  0  0  0  0  0999 V2000
  160.8410  207.5010  148.6500 C   0  0  1  0  0  3  0  0  0  0  0  0
  161.6860  207.3180  149.9090 C   0  0  1  0  0  0  0  0  0  0  0  0
  161.3990  203.8550  149.9770 O   0  0  0  0  0  0  0  0  0  0  0  0
  162.3440  207.1640  148.5270 C   0  0  1  0  0  3  0  0  0  0  0  0
  161.0900  208.8260  151.4980 C   0  0  1  0  0  3  0  0  0  0  0  0
  160.7090  204.9450  150.5200 C   0  0  0  0  0  2  0  0  0  0  0  0
  161.6710  203.5720  147.6020 C   0  0  0  0  0  2  0  0  0  0  0  0
  161.9750  205.0030  147.1630 C   0  0  1  0  0  3  0  0  0  0  0  0
  161.5450  206.4620  152.2600 N   0  0  0  0  0  0  0  0  0  0  0  0
  161.8720  205.5110  153.3120 C   0  0  0  0  0  1  0  0  0  0  0  0
  162.0550  208.5370  150.5100 O   0  0  0  0  0  0  0  0  0  0  0  0
  159.9930  206.4240  148.4020 O   0  0  0  0  0  1  0  0  0  0  0  0
  160.7180  203.5340  148.7970 C   0  0  0  0  0  2  0  0  0  0  0  0
  161.1390  207.7950  152.5970 C   0  0  0  0  0  0  0  0  0  0  0  0
  162.7740  205.7110  148.2490 C   0  0  0  0  0  2  0  0  0  0  0  0
  160.7790  208.0800  153.7720 O   0  0  0  0  0  0  0  0  0  0  0  0
  161.6960  206.0650  150.8580 C   0  0  2  0  0  3  0  0  0  0  0  0
  162.7580  204.9770  145.8610 C   0  0  0  0  0  2  0  0  0  0  0  0
  161.8250  205.1700  144.6810 C   0  0  0  0  0  1  0  0  0  0  0  0
  161.2650  210.2560  152.0150 C   0  0  0  0  0  2  0  0  0  0  0  0
  159.9450  210.8990  152.4200 C   0  0  0  0  0  2  0  0  0  0  0  0
  160.1770  211.9680  153.4720 C   0  0  0  0  0  2  0  0  0  0  0  0
  160.2820  211.3420  154.8180 C   0  0  0  0  0  0  0  0  0  0  0  0
  161.5210  211.2110  155.4310 O   0  0  0  0  0  1  0  0  0  0  0  0
  159.1940  210.9040  155.4320 C   0  0  0  0  0  2  0  0  0  0  0  0
  1 12  1  1  0  0  0
  1  2  1  0  0  0  0
  2 11  1  1  0  0  0
  2 17  1  0  0  0  0
  3  6  1  0  0  0  0
  4 15  1  1  0  0  0
  4  1  1  0  0  0  0
  4  2  1  0  0  0  0
  5 20  1  1  0  0  0
  5 14  1  0  0  0  0
  7 13  1  0  0  0  0
  8 18  1  6  0  0  0
  8  7  1  0  0  0  0
  8 15  1  0  0  0  0
  9 14  1  0  0  0  0
  9 10  1  0  0  0  0
 11  5  1  0  0  0  0
 13  3  1  0  0  0  0
 14 16  2  0  0  0  0
 17  6  1  6  0  0  0
 17  9  1  0  0  0  0
 19 18  1  0  0  0  0
 20 21  1  0  0  0  0
 21 22  1  0  0  0  0
 22 23  1  0  0  0  0
 23 24  1  0  0  0  0
 23 25  2  0  0  0  0
M  END
>  <MODEL>
3

>  <REMARK>
 VINA RESULT:      -6.5      2.338      3.338
  Name = 
  5 active torsions:
  status: ('A' for Active; 'I' for Inactive)
    1  A    between atoms: C_2  and  C_21
    2  A    between atoms: C_6  and  C_15
    3  A    between atoms: C_8  and  C_11
    4  A    between atoms: C_15  and  C_25
    5  A    between atoms: C_21  and  C_25
                            x       y       z     vdW  Elec       q    Type
                         _______ _______ _______ _____ _____    ______ ____

>  <TORSDO>
F 5

$$$$
=
 OpenBabel11052422213D

 25 27  0  0  1  0  0  0  0  0999 V2000
  161.6610  210.4560  152.7990 C   0  0  1  0  0  3  0  0  0  0  0  0
  161.0020  209.0950  152.5870 C   0  0  1  0  0  0  0  0  0  0  0  0
  160.3980  208.5120  155.9600 O   0  0  0  0  0  0  0  0  0  0  0  0
  160.1220  210.3480  152.7210 C   0  0  1  0  0  3  0  0  0  0  0  0
  162.2040  207.8450  151.1220 C   0  0  1  0  0  3  0  0  0  0  0  0
  161.4200  208.2320  155.0460 C   0  0  0  0  0  2  0  0  0  0  0  0
  159.6990  210.7640  156.4430 C   0  0  0  0  0  2  0  0  0  0  0  0
  159.7080  211.3870  155.0490 C   0  0  1  0  0  3  0  0  0  0  0  0
  161.2810  206.6700  153.1570 N   0  0  0  0  0  0  0  0  0  0  0  0
  160.8870  205.4500  153.8460 C   0  0  0  0  0  1  0  0  0  0  0  0
  161.0570  208.6550  151.2510 O   0  0  0  0  0  0  0  0  0  0  0  0
  162.1560  210.6270  154.0910 O   0  0  0  0  0  1  0  0  0  0  0  0
  160.7830  209.6980  156.5970 C   0  0  0  0  0  2  0  0  0  0  0  0
  162.0620  206.5980  151.9580 C   0  0  0  0  0  0  0  0  0  0  0  0
  159.2960  210.3410  154.0210 C   0  0  0  0  0  2  0  0  0  0  0  0
  162.6610  205.5330  151.6430 O   0  0  0  0  0  0  0  0  0  0  0  0
  160.8180  207.9640  153.6640 C   0  0  2  0  0  3  0  0  0  0  0  0
  158.7530  212.5670  155.0150 C   0  0  0  0  0  2  0  0  0  0  0  0
  157.3500  212.1010  154.6750 C   0  0  0  0  0  1  0  0  0  0  0  0
  162.4830  207.5440  149.6470 C   0  0  0  0  0  2  0  0  0  0  0  0
  161.2210  207.5640  148.7950 C   0  0  0  0  0  2  0  0  0  0  0  0
  160.4890  206.2380  148.9030 C   0  0  0  0  0  2  0  0  0  0  0  0
  161.2170  205.1920  148.1360 C   0  0  0  0  0  0  0  0  0  0  0  0
  161.8250  205.5090  146.9280 O   0  0  0  0  0  1  0  0  0  0  0  0
  161.2830  203.9540  148.6010 C   0  0  0  0  0  2  0  0  0  0  0  0
  1 12  1  1  0  0  0
  2 11  1  6  0  0  0
  2  4  1  0  0  0  0
  2  1  1  0  0  0  0
  2 17  1  0  0  0  0
  3 13  1  0  0  0  0
  4  1  1  0  0  0  0
  4 15  1  1  0  0  0
  5 20  1  6  0  0  0
  5 11  1  0  0  0  0
  5 14  1  0  0  0  0
  6  3  1  0  0  0  0
  7 13  1  0  0  0  0
  8 18  1  1  0  0  0
  8  7  1  0  0  0  0
  9 17  1  0  0  0  0
  9 10  1  0  0  0  0
 14  9  1  0  0  0  0
 15  8  1  0  0  0  0
 16 14  2  0  0  0  0
 17  6  1  1  0  0  0
 19 18  1  0  0  0  0
 21 22  1  0  0  0  0
 21 20  1  0  0  0  0
 23 25  2  0  0  0  0
 23 22  1  0  0  0  0
 24 23  1  0  0  0  0
M  END
>  <MODEL>
4

>  <REMARK>
 VINA RESULT:      -6.4      3.223      7.300
  Name = 
  5 active torsions:
  status: ('A' for Active; 'I' for Inactive)
    1  A    between atoms: C_2  and  C_21
    2  A    between atoms: C_6  and  C_15
    3  A    between atoms: C_8  and  C_11
    4  A    between atoms: C_15  and  C_25
    5  A    between atoms: C_21  and  C_25
                            x       y       z     vdW  Elec       q    Type
                         _______ _______ _______ _____ _____    ______ ____

>  <TORSDO>
F 5

$$$$
=
 OpenBabel11052422213D

 25 27  0  0  1  0  0  0  0  0999 V2000
  162.3870  206.6420  149.7090 C   0  0  1  0  0  3  0  0  0  0  0  0
  161.2620  205.6120  149.6340 C   0  0  1  0  0  0  0  0  0  0  0  0
  161.0660  205.1110  153.0680 O   0  0  0  0  0  0  0  0  0  0  0  0
  160.9200  207.0870  149.9030 C   0  0  1  0  0  3  0  0  0  0  0  0
  161.6760  204.0940  147.9980 C   0  0  1  0  0  3  0  0  0  0  0  0
  161.7530  204.5360  151.9930 C   0  0  0  0  0  2  0  0  0  0  0  0
  161.3040  207.4390  153.6360 C   0  0  0  0  0  2  0  0  0  0  0  0
  161.2990  208.0870  152.2530 C   0  0  1  0  0  3  0  0  0  0  0  0
  160.7520  203.2190  150.1780 N   0  0  0  0  0  0  0  0  0  0  0  0
  160.0730  202.1820  150.9420 C   0  0  0  0  0  1  0  0  0  0  0  0
  160.9310  205.2480  148.3150 O   0  0  0  0  0  0  0  0  0  0  0  0
  163.1190  206.5630  150.8920 O   0  0  0  0  0  1  0  0  0  0  0  0
  161.9480  206.0530  153.6120 C   0  0  0  0  0  2  0  0  0  0  0  0
  161.2440  202.9370  148.8620 C   0  0  0  0  0  0  0  0  0  0  0  0
  160.3760  207.3060  151.3270 C   0  0  0  0  0  2  0  0  0  0  0  0
  161.3640  201.7460  148.4620 O   0  0  0  0  0  0  0  0  0  0  0  0
  160.8720  204.5660  150.7420 C   0  0  2  0  0  3  0  0  0  0  0  0
  160.8350  209.5280  152.3710 C   0  0  0  0  0  2  0  0  0  0  0  0
  161.8260  210.3360  153.1870 C   0  0  0  0  0  1  0  0  0  0  0  0
  161.5790  203.7880  146.5010 C   0  0  0  0  0  2  0  0  0  0  0  0
  162.7680  204.3250  145.7150 C   0  0  0  0  0  2  0  0  0  0  0  0
  162.5170  205.7600  145.2900 C   0  0  0  0  0  2  0  0  0  0  0  0
  161.2430  205.8490  144.5270 C   0  0  0  0  0  0  0  0  0  0  0  0
  160.0680  206.2150  145.1720 O   0  0  0  0  0  1  0  0  0  0  0  0
  161.2250  205.5740  143.2330 C   0  0  0  0  0  2  0  0  0  0  0  0
  1  4  1  0  0  0  0
  1 12  1  1  0  0  0
  2 11  1  6  0  0  0
  2  1  1  0  0  0  0
  2  4  1  0  0  0  0
  2 17  1  0  0  0  0
  3 13  1  0  0  0  0
  4 15  1  1  0  0  0
  5 20  1  6  0  0  0
  5 11  1  0  0  0  0
  5 14  1  0  0  0  0
  6  3  1  0  0  0  0
  8 18  1  1  0  0  0
  8  7  1  0  0  0  0
  9 17  1  0  0  0  0
  9 10  1  0  0  0  0
 13  7  1  0  0  0  0
 14  9  1  0  0  0  0
 15  8  1  0  0  0  0
 16 14  2  0  0  0  0
 17  6  1  1  0  0  0
 18 19  1  0  0  0  0
 21 20  1  0  0  0  0
 22 21  1  0  0  0  0
 23 24  1  0  0  0  0
 23 22  1  0  0  0  0
 25 23  2  0  0  0  0
M  END
>  <MODEL>
5

>  <REMARK>
 VINA RESULT:      -6.2      3.080      6.109
  Name = 
  5 active torsions:
  status: ('A' for Active; 'I' for Inactive)
    1  A    between atoms: C_2  and  C_21
    2  A    between atoms: C_6  and  C_15
    3  A    between atoms: C_8  and  C_11
    4  A    between atoms: C_15  and  C_25
    5  A    between atoms: C_21  and  C_25
                            x       y       z     vdW  Elec       q    Type
                         _______ _______ _______ _____ _____    ______ ____

>  <TORSDO>
F 5

$$$$
=
 OpenBabel11052422213D

 25 27  0  0  1  0  0  0  0  0999 V2000
  160.8960  207.4160  148.4780 C   0  0  1  0  0  3  0  0  0  0  0  0
  161.8210  207.2600  149.6840 C   0  0  1  0  0  0  0  0  0  0  0  0
  161.4750  203.8080  149.8970 O   0  0  0  0  0  0  0  0  0  0  0  0
  162.3810  207.0440  148.2680 C   0  0  1  0  0  3  0  0  0  0  0  0
  161.3610  208.8340  151.2530 C   0  0  1  0  0  3  0  0  0  0  0  0
  160.8430  204.9300  150.4450 C   0  0  0  0  0  2  0  0  0  0  0  0
  161.5820  203.4360  147.5210 C   0  0  0  0  0  2  0  0  0  0  0  0
  161.8810  204.8440  147.0100 C   0  0  1  0  0  3  0  0  0  0  0  0
  161.8220  206.4900  152.0690 N   0  0  0  0  0  0  0  0  0  0  0  0
  162.2020  205.5690  153.1300 C   0  0  0  0  0  1  0  0  0  0  0  0
  162.2510  208.4900  150.2150 O   0  0  0  0  0  0  0  0  0  0  0  0
  160.0130  206.3480  148.3270 O   0  0  0  0  0  1  0  0  0  0  0  0
  160.7110  203.4600  148.7770 C   0  0  0  0  0  2  0  0  0  0  0  0
  161.4650  207.8410  152.3830 C   0  0  0  0  0  0  0  0  0  0  0  0
  162.7640  205.5730  148.0140 C   0  0  0  0  0  2  0  0  0  0  0  0
  161.1890  208.1740  153.5680 O   0  0  0  0  0  0  0  0  0  0  0  0
  161.8710  206.0400  150.6750 C   0  0  2  0  0  3  0  0  0  0  0  0
  162.5740  204.7560  145.6610 C   0  0  0  0  0  2  0  0  0  0  0  0
  161.6010  205.0920  144.5460 C   0  0  0  0  0  1  0  0  0  0  0  0
  161.5970  210.2770  151.7060 C   0  0  0  0  0  2  0  0  0  0  0  0
  160.3020  211.0020  152.0510 C   0  0  0  0  0  2  0  0  0  0  0  0
  160.3680  211.5610  153.4600 C   0  0  0  0  0  2  0  0  0  0  0  0
  159.2860  212.5620  153.6610 C   0  0  0  0  0  0  0  0  0  0  0  0
  159.1590  213.2180  154.8790 O   0  0  0  0  0  1  0  0  0  0  0  0
  158.4370  212.8270  152.6800 C   0  0  0  0  0  2  0  0  0  0  0  0
  1 12  1  1  0  0  0
  1  2  1  0  0  0  0
  2 11  1  1  0  0  0
  2 17  1  0  0  0  0
  3  6  1  0  0  0  0
  4 15  1  1  0  0  0
  4  1  1  0  0  0  0
  4  2  1  0  0  0  0
  5 20  1  1  0  0  0
  5 14  1  0  0  0  0
  7 13  1  0  0  0  0
  8 18  1  6  0  0  0
  8  7  1  0  0  0  0
  8 15  1  0  0  0  0
  9 14  1  0  0  0  0
  9 10  1  0  0  0  0
 11  5  1  0  0  0  0
 13  3  1  0  0  0  0
 14 16  2  0  0  0  0
 17  6  1  6  0  0  0
 17  9  1  0  0  0  0
 19 18  1  0  0  0  0
 20 21  1  0  0  0  0
 21 22  1  0  0  0  0
 22 23  1  0  0  0  0
 23 24  1  0  0  0  0
 25 23  2  0  0  0  0
M  END
>  <MODEL>
6

>  <REMARK>
 VINA RESULT:      -6.2      2.193      2.880
  Name = 
  5 active torsions:
  status: ('A' for Active; 'I' for Inactive)
    1  A    between atoms: C_2  and  C_21
    2  A    between atoms: C_6  and  C_15
    3  A    between atoms: C_8  and  C_11
    4  A    between atoms: C_15  and  C_25
    5  A    between atoms: C_21  and  C_25
                            x       y       z     vdW  Elec       q    Type
                         _______ _______ _______ _____ _____    ______ ____

>  <TORSDO>
F 5

$$$$
=
 OpenBabel11052422213D

 25 27  0  0  1  0  0  0  0  0999 V2000
  162.1480  206.2320  151.3320 C   0  0  1  0  0  3  0  0  0  0  0  0
  161.3860  207.4190  150.7470 C   0  0  1  0  0  0  0  0  0  0  0  0
  162.0510  206.6160  147.4320 O   0  0  0  0  0  0  0  0  0  0  0  0
  160.6870  206.0550  150.8620 C   0  0  1  0  0  3  0  0  0  0  0  0
  161.8860  209.3240  151.8760 C   0  0  1  0  0  3  0  0  0  0  0  0
  162.6430  207.4020  148.4270 C   0  0  0  0  0  2  0  0  0  0  0  0
  161.7030  204.2510  147.7120 C   0  0  0  0  0  2  0  0  0  0  0  0
  161.2250  204.1870  149.1610 C   0  0  1  0  0  3  0  0  0  0  0  0
  161.7270  209.4800  149.3610 N   0  0  0  0  0  0  0  0  0  0  0  0
  161.5540  210.2660  148.1490 C   0  0  0  0  0  1  0  0  0  0  0  0
  160.9150  208.3120  151.7280 O   0  0  0  0  0  0  0  0  0  0  0  0
  163.0960  205.7080  150.4550 O   0  0  0  0  0  1  0  0  0  0  0  0
  162.7080  205.3810  147.4930 C   0  0  0  0  0  2  0  0  0  0  0  0
  162.0000  210.1310  150.6080 C   0  0  0  0  0  0  0  0  0  0  0  0
  160.4050  205.4300  149.4820 C   0  0  0  0  0  2  0  0  0  0  0  0
  162.3810  211.3340  150.6350 O   0  0  0  0  0  0  0  0  0  0  0  0
  161.5560  208.0260  149.3060 C   0  0  2  0  0  3  0  0  0  0  0  0
  160.3910  202.9350  149.3650 C   0  0  0  0  0  2  0  0  0  0  0  0
  160.8720  201.8260  148.4470 C   0  0  0  0  0  1  0  0  0  0  0  0
  161.5800  210.1850  153.1050 C   0  0  0  0  0  2  0  0  0  0  0  0
  160.5330  209.5570  154.0140 C   0  0  0  0  0  2  0  0  0  0  0  0
  161.1980  208.8640  155.1890 C   0  0  0  0  0  2  0  0  0  0  0  0
  160.6030  207.5150  155.3870 C   0  0  0  0  0  0  0  0  0  0  0  0
  160.8250  206.5120  154.4520 O   0  0  0  0  0  1  0  0  0  0  0  0
  159.8570  207.2690  156.4520 C   0  0  0  0  0  2  0  0  0  0  0  0
  1 12  1  6  0  0  0
  2  4  1  0  0  0  0
  2  1  1  0  0  0  0
  2 11  1  1  0  0  0
  3 13  1  0  0  0  0
  3  6  1  0  0  0  0
  4 15  1  6  0  0  0
  4  1  1  0  0  0  0
  5 20  1  1  0  0  0
  7  8  1  0  0  0  0
  8 18  1  6  0  0  0
  8 15  1  0  0  0  0
  9 14  1  0  0  0  0
 10  9  1  0  0  0  0
 11  5  1  0  0  0  0
 13  7  1  0  0  0  0
 14 16  2  0  0  0  0
 14  5  1  0  0  0  0
 17  6  1  1  0  0  0
 17  9  1  0  0  0  0
 17  2  1  0  0  0  0
 19 18  1  0  0  0  0
 20 21  1  0  0  0  0
 21 22  1  0  0  0  0
 22 23  1  0  0  0  0
 23 25  2  0  0  0  0
 24 23  1  0  0  0  0
M  END
>  <MODEL>
7

>  <REMARK>
 VINA RESULT:      -5.7      2.201      5.020
  Name = 
  5 active torsions:
  status: ('A' for Active; 'I' for Inactive)
    1  A    between atoms: C_2  and  C_21
    2  A    between atoms: C_6  and  C_15
    3  A    between atoms: C_8  and  C_11
    4  A    between atoms: C_15  and  C_25
    5  A    between atoms: C_21  and  C_25
                            x       y       z     vdW  Elec       q    Type
                         _______ _______ _______ _____ _____    ______ ____

>  <TORSDO>
F 5

$$$$
=
 OpenBabel11052422213D

 25 27  0  0  1  0  0  0  0  0999 V2000
  161.5030  210.4070  152.6070 C   0  0  1  0  0  3  0  0  0  0  0  0
  160.6210  209.2070  152.9490 C   0  0  1  0  0  0  0  0  0  0  0  0
  159.7940  210.3250  156.1340 O   0  0  0  0  0  0  0  0  0  0  0  0
  159.9730  210.4930  152.4080 C   0  0  1  0  0  3  0  0  0  0  0  0
  161.6370  207.2700  152.3420 C   0  0  1  0  0  3  0  0  0  0  0  0
  160.7850  209.5180  155.5640 C   0  0  0  0  0  2  0  0  0  0  0  0
  159.4880  212.6220  155.4800 C   0  0  0  0  0  2  0  0  0  0  0  0
  159.6600  212.5290  153.9660 C   0  0  1  0  0  3  0  0  0  0  0  0
  160.4430  207.3010  154.5660 N   0  0  0  0  0  0  0  0  0  0  0  0
  159.8130  206.6010  155.6760 C   0  0  0  0  0  1  0  0  0  0  0  0
  160.6480  208.2020  151.9640 O   0  0  0  0  0  0  0  0  0  0  0  0
  161.9700  211.0790  153.7350 O   0  0  0  0  0  1  0  0  0  0  0  0
  160.3590  211.6040  156.2160 C   0  0  0  0  0  2  0  0  0  0  0  0
  161.2450  206.5790  153.6220 C   0  0  0  0  0  0  0  0  0  0  0  0
  159.1090  211.1980  153.4710 C   0  0  0  0  0  2  0  0  0  0  0  0
  161.6560  205.4160  153.8860 O   0  0  0  0  0  0  0  0  0  0  0  0
  160.1980  208.7340  154.3870 C   0  0  2  0  0  3  0  0  0  0  0  0
  158.9320  213.6840  153.3010 C   0  0  0  0  0  2  0  0  0  0  0  0
  157.4580  213.3590  153.1480 C   0  0  0  0  0  1  0  0  0  0  0  0
  161.9150  206.2910  151.1980 C   0  0  0  0  0  2  0  0  0  0  0  0
  160.6840  205.4880  150.8010 C   0  0  0  0  0  2  0  0  0  0  0  0
  161.0530  204.4160  149.7920 C   0  0  0  0  0  2  0  0  0  0  0  0
  160.8360  203.0670  150.3820 C   0  0  0  0  0  0  0  0  0  0  0  0
  161.1590  202.8280  151.7120 O   0  0  0  0  0  1  0  0  0  0  0  0
  160.3410  202.0910  149.6390 C   0  0  0  0  0  2  0  0  0  0  0  0
  1  2  1  0  0  0  0
  1 12  1  1  0  0  0
  2 11  1  6  0  0  0
  2 17  1  0  0  0  0
  3 13  1  0  0  0  0
  4  1  1  0  0  0  0
  4  2  1  0  0  0  0
  4 15  1  1  0  0  0
  5 20  1  6  0  0  0
  5 14  1  0  0  0  0
  6  3  1  0  0  0  0
  7 13  1  0  0  0  0
  8 18  1  6  0  0  0
  8  7  1  0  0  0  0
  9 10  1  0  0  0  0
 11  5  1  0  0  0  0
 14 16  2  0  0  0  0
 14  9  1  0  0  0  0
 15  8  1  0  0  0  0
 17  9  1  0  0  0  0
 17  6  1  1  0  0  0
 19 18  1  0  0  0  0
 21 20  1  0  0  0  0
 22 23  1  0  0  0  0
 22 21  1  0  0  0  0
 23 24  1  0  0  0  0
 25 23  2  0  0  0  0
M  END
>  <MODEL>
8

>  <REMARK>
 VINA RESULT:      -5.6      3.574      8.140
  Name = 
  5 active torsions:
  status: ('A' for Active; 'I' for Inactive)
    1  A    between atoms: C_2  and  C_21
    2  A    between atoms: C_6  and  C_15
    3  A    between atoms: C_8  and  C_11
    4  A    between atoms: C_15  and  C_25
    5  A    between atoms: C_21  and  C_25
                            x       y       z     vdW  Elec       q    Type
                         _______ _______ _______ _____ _____    ______ ____

>  <TORSDO>
F 5

$$$$
=
 OpenBabel11052422213D

 25 27  0  0  1  0  0  0  0  0999 V2000
  160.3220  207.5190  154.5880 C   0  0  1  0  0  3  0  0  0  0  0  0
  161.3520  207.6320  153.4650 C   0  0  1  0  0  0  0  0  0  0  0  0
  160.7900  211.0090  152.8650 O   0  0  0  0  0  0  0  0  0  0  0  0
  161.7480  208.0270  154.8970 C   0  0  1  0  0  3  0  0  0  0  0  0
  161.1650  205.8830  152.0300 C   0  0  1  0  0  3  0  0  0  0  0  0
  160.2970  209.7930  152.3790 C   0  0  0  0  0  2  0  0  0  0  0  0
  160.6280  211.6140  155.1900 C   0  0  0  0  0  2  0  0  0  0  0  0
  160.9720  210.2900  155.8690 C   0  0  1  0  0  3  0  0  0  0  0  0
  161.5430  208.1680  151.0240 N   0  0  0  0  0  0  0  0  0  0  0  0
  161.9630  209.0100  149.9130 C   0  0  0  0  0  1  0  0  0  0  0  0
  161.9180  206.3940  153.1070 O   0  0  0  0  0  0  0  0  0  0  0  0
  159.3570  208.5230  154.5440 O   0  0  0  0  0  1  0  0  0  0  0  0
  159.8930  211.4010  153.8660 C   0  0  0  0  0  2  0  0  0  0  0  0
  161.3140  206.7680  150.8190 C   0  0  0  0  0  0  0  0  0  0  0  0
  162.0010  209.5400  155.0330 C   0  0  0  0  0  2  0  0  0  0  0  0
  161.1840  206.3020  149.6530 O   0  0  0  0  0  0  0  0  0  0  0  0
  161.4180  208.7510  152.3620 C   0  0  2  0  0  3  0  0  0  0  0  0
  161.5160  210.5610  157.2600 C   0  0  0  0  0  2  0  0  0  0  0  0
  162.9910  210.9110  157.1900 C   0  0  0  0  0  1  0  0  0  0  0  0
  161.5450  204.4260  151.7530 C   0  0  0  0  0  2  0  0  0  0  0  0
  160.4830  203.6850  150.9520 C   0  0  0  0  0  2  0  0  0  0  0  0
  160.9650  202.2910  150.5960 C   0  0  0  0  0  2  0  0  0  0  0  0
  161.1370  202.1730  149.1230 C   0  0  0  0  0  0  0  0  0  0  0  0
  161.2390  203.3150  148.3400 O   0  0  0  0  0  1  0  0  0  0  0  0
  161.1880  200.9780  148.5550 C   0  0  0  0  0  2  0  0  0  0  0  0
  1 12  1  6  0  0  0
  1  4  1  0  0  0  0
  2 11  1  6  0  0  0
  2  1  1  0  0  0  0
  2  4  1  0  0  0  0
  3 13  1  0  0  0  0
  4 15  1  6  0  0  0
  5 20  1  6  0  0  0
  5 11  1  0  0  0  0
  6  3  1  0  0  0  0
  7  8  1  0  0  0  0
  8 18  1  1  0  0  0
  9 17  1  0  0  0  0
 10  9  1  0  0  0  0
 13  7  1  0  0  0  0
 14  9  1  0  0  0  0
 14  5  1  0  0  0  0
 15  8  1  0  0  0  0
 16 14  2  0  0  0  0
 17  6  1  6  0  0  0
 17  2  1  0  0  0  0
 19 18  1  0  0  0  0
 21 20  1  0  0  0  0
 22 21  1  0  0  0  0
 23 22  1  0  0  0  0
 24 23  1  0  0  0  0
 25 23  2  0  0  0  0
M  END
>  <MODEL>
9

>  <REMARK>
 VINA RESULT:      -5.5      3.082      8.199
  Name = 
  5 active torsions:
  status: ('A' for Active; 'I' for Inactive)
    1  A    between atoms: C_2  and  C_21
    2  A    between atoms: C_6  and  C_15
    3  A    between atoms: C_8  and  C_11
    4  A    between atoms: C_15  and  C_25
    5  A    between atoms: C_21  and  C_25
                            x       y       z     vdW  Elec       q    Type
                         _______ _______ _______ _____ _____    ______ ____

>  <TORSDO>
F 5

$$$$
