=
 OpenBabel11062409213D

 37 43  0  0  1  0  0  0  0  0999 V2000
  161.7520  208.3920  157.2240 O   0  0  0  0  0  1  0  0  0  0  0  0
  158.6870  211.7680  154.8580 C   0  0  0  0  0  2  0  0  0  0  0  0
  158.9270  209.2220  155.1210 C   0  0  0  0  0  2  0  0  0  0  0  0
  159.6310  211.0860  152.4210 C   0  0  2  0  0  3  0  0  0  0  0  0
  162.7460  210.7510  153.6070 O   0  0  0  0  0  1  0  0  0  0  0  0
  160.2490  211.8050  151.2310 C   0  0  0  0  0  2  0  0  0  0  0  0
  159.4860  210.6150  155.4550 C   0  0  1  0  0  0  0  0  0  0  0  0
  161.5760  210.1600  154.0840 C   0  0  1  0  0  0  0  0  0  0  0  0
  161.0700  208.9400  156.1390 C   0  0  2  0  0  0  0  0  0  0  0  0
  158.0470  212.9950  152.7580 C   0  0  0  0  0  2  0  0  0  0  0  0
  160.9430  211.0640  155.1120 C   0  0  2  0  0  3  0  0  0  0  0  0
  160.6850  210.3910  156.3940 C   0  0  1  0  0  3  0  0  0  0  0  0
  159.1420  212.1770  153.4250 C   0  0  1  0  0  3  0  0  0  0  0  0
  160.5800  209.9390  152.9130 C   0  0  2  0  0  3  0  0  0  0  0  0
  159.7650  208.2210  155.8930 C   0  0  0  0  0  2  0  0  0  0  0  0
  159.3620  212.8950  150.6810 C   0  0  0  0  0  0  0  0  0  0  0  0
  161.9210  208.8940  154.8650 C   0  0  0  0  0  2  0  0  0  0  0  0
  158.4380  213.4460  151.4190 N   0  0  0  0  0  0  0  0  0  0  0  0
  160.8920  213.9540  149.0050 C   0  0  0  0  0  3  0  0  0  0  0  0
  159.6300  213.4280  149.3280 C   0  0  0  0  0  0  0  0  0  0  0  0
  158.6290  213.4070  148.3440 C   0  0  0  0  0  3  0  0  0  0  0  0
  157.9110  213.8800  146.1210 F   0  0  0  0  0  0  0  0  0  0  0  0
  160.1430  214.4260  146.7520 C   0  0  0  0  0  3  0  0  0  0  0  0
  158.8840  213.9050  147.0630 C   0  0  0  0  0  0  0  0  0  0  0  0
  161.1470  214.4500  147.7240 C   0  0  0  0  0  3  0  0  0  0  0  0
  160.8580  208.7470  151.9800 C   0  0  2  0  0  3  0  0  0  0  0  0
  161.5040  207.5200  152.6350 C   0  0  0  0  0  2  0  0  0  0  0  0
  160.5540  206.3330  152.7650 C   0  0  2  0  0  3  0  0  0  0  0  0
  162.3560  205.2050  151.5770 O   0  0  0  0  0  1  0  0  0  0  0  0
  161.1890  205.2820  153.6500 C   0  0  0  0  0  2  0  0  0  0  0  0
  161.0960  205.0360  152.1590 C   0  0  1  0  0  3  0  0  0  0  0  0
  161.3450  209.1240  150.5720 C   0  0  2  0  0  3  0  0  0  0  0  0
  161.4830  207.8950  149.6680 C   0  0  2  0  0  3  0  0  0  0  0  0
  161.7510  208.2670  148.2180 C   0  0  0  0  0  1  0  0  0  0  0  0
  160.3340  207.1290  149.7400 F   0  0  0  0  0  0  0  0  0  0  0  0
  162.4050  210.7910  149.5550 C   0  0  0  0  0  1  0  0  0  0  0  0
  162.5250  209.8770  150.6050 O   0  0  0  0  0  0  0  0  0  0  0  0
  3  7  1  0  0  0  0
  3 15  1  0  0  0  0
  4  6  1  6  0  0  0
  4 14  1  0  0  0  0
  4 13  1  0  0  0  0
  7  2  1  1  0  0  0
  7 12  1  0  0  0  0
  8  5  1  6  0  0  0
  8 17  1  0  0  0  0
  8 11  1  0  0  0  0
  9 12  1  0  0  0  0
  9  1  1  1  0  0  0
 10 13  1  0  0  0  0
 11  7  1  0  0  0  0
 11 12  1  0  0  0  0
 13  2  1  0  0  0  0
 14  8  1  0  0  0  0
 15  9  1  0  0  0  0
 16  6  1  0  0  0  0
 16 18  2  0  0  0  0
 17  9  1  0  0  0  0
 18 10  1  0  0  0  0
 19 20  1  0  0  0  0
 20 16  1  0  0  0  0
 21 20  2  0  0  0  0
 22 24  1  0  0  0  0
 23 24  2  0  0  0  0
 23 25  1  0  0  0  0
 24 21  1  0  0  0  0
 25 19  2  0  0  0  0
 26 27  1  0  0  0  0
 26 14  1  0  0  0  0
 27 28  1  0  0  0  0
 28 30  1  0  0  0  0
 29 31  1  0  0  0  0
 31 28  1  0  0  0  0
 31 30  1  0  0  0  0
 32 37  1  0  0  0  0
 32 26  1  0  0  0  0
 33 35  1  0  0  0  0
 33 32  1  0  0  0  0
 34 33  1  0  0  0  0
 36 37  1  0  0  0  0
M  END
>  <MODEL>
1

>  <REMARK>
 VINA RESULT:      -4.7      0.000      0.000
  Name = 
  7 active torsions:
  status: ('A' for Active; 'I' for Inactive)
    1  A    between atoms: C_1  and  C_5
    2  A    between atoms: C_1  and  C_36
    3  A    between atoms: C_6  and  C_31
    4  A    between atoms: C_11  and  C_33
    5  A    between atoms: O_27  and  C_33
    6  A    between atoms: C_29  and  C_36
    7  A    between atoms: C_33  and  C_36
                            x       y       z     vdW  Elec       q    Type
                         _______ _______ _______ _____ _____    ______ ____

>  <TORSDO>
F 7

$$$$
=
 OpenBabel11062409213D

 37 43  0  0  1  0  0  0  0  0999 V2000
  157.8660  214.0020  156.8310 O   0  0  0  0  0  1  0  0  0  0  0  0
  160.0980  209.3860  157.1580 C   0  0  0  0  0  2  0  0  0  0  0  0
  160.7530  211.8250  156.6790 C   0  0  0  0  0  2  0  0  0  0  0  0
  160.5390  209.2870  154.4960 C   0  0  2  0  0  3  0  0  0  0  0  0
  157.5890  210.7370  153.8480 O   0  0  0  0  0  1  0  0  0  0  0  0
  160.2260  208.3290  153.3550 C   0  0  0  0  0  2  0  0  0  0  0  0
  159.6270  210.8270  156.9940 C   0  0  1  0  0  0  0  0  0  0  0  0
  158.5990  211.1850  154.6980 C   0  0  1  0  0  0  0  0  0  0  0  0
  158.6620  212.9450  156.3910 C   0  0  2  0  0  0  0  0  0  0  0  0
  161.0080  207.3450  156.0040 C   0  0  0  0  0  2  0  0  0  0  0  0
  158.3770  210.6210  156.0790 C   0  0  2  0  0  3  0  0  0  0  0  0
  158.3350  211.6530  157.1270 C   0  0  1  0  0  3  0  0  0  0  0  0
  160.1350  208.5780  155.8270 C   0  0  1  0  0  3  0  0  0  0  0  0
  159.9830  210.7160  154.1700 C   0  0  2  0  0  3  0  0  0  0  0  0
  160.1220  213.2050  156.6770 C   0  0  0  0  0  2  0  0  0  0  0  0
  160.7760  206.9440  153.5880 C   0  0  0  0  0  0  0  0  0  0  0  0
  158.4770  212.6950  154.8900 C   0  0  0  0  0  2  0  0  0  0  0  0
  161.0460  206.5200  154.7930 N   0  0  0  0  0  0  0  0  0  0  0  0
  160.7570  206.4790  151.1270 C   0  0  0  0  0  3  0  0  0  0  0  0
  160.8910  206.0120  152.4450 C   0  0  0  0  0  0  0  0  0  0  0  0
  161.1460  204.6480  152.6610 C   0  0  0  0  0  3  0  0  0  0  0  0
  161.5090  202.4560  151.8010 F   0  0  0  0  0  0  0  0  0  0  0  0
  161.1270  204.2450  150.2740 C   0  0  0  0  0  3  0  0  0  0  0  0
  161.2620  203.7690  151.5810 C   0  0  0  0  0  0  0  0  0  0  0  0
  160.8740  205.6000  150.0470 C   0  0  0  0  0  3  0  0  0  0  0  0
  160.5730  211.4950  152.9810 C   0  0  2  0  0  3  0  0  0  0  0  0
  159.5590  212.0420  151.9690 C   0  0  0  0  0  2  0  0  0  0  0  0
  159.6500  213.5530  151.7780 C   0  0  2  0  0  3  0  0  0  0  0  0
  159.4570  212.9190  149.4340 O   0  0  0  0  0  1  0  0  0  0  0  0
  158.3450  214.0620  151.2020 C   0  0  0  0  0  2  0  0  0  0  0  0
  159.5710  213.9990  150.3150 C   0  0  1  0  0  3  0  0  0  0  0  0
  161.8840  210.9240  152.4170 C   0  0  2  0  0  3  0  0  0  0  0  0
  161.6910  210.3270  151.0200 C   0  0  2  0  0  3  0  0  0  0  0  0
  162.4960  209.0530  150.8160 C   0  0  0  0  0  1  0  0  0  0  0  0
  162.0490  211.2550  150.0590 F   0  0  0  0  0  0  0  0  0  0  0  0
  163.4000  210.7600  154.0310 C   0  0  0  0  0  1  0  0  0  0  0  0
  162.4830  210.0100  153.2930 O   0  0  0  0  0  0  0  0  0  0  0  0
  4  6  1  6  0  0  0
  4 13  1  0  0  0  0
  6 16  1  0  0  0  0
  7  3  1  6  0  0  0
  7 12  1  0  0  0  0
  7  2  1  0  0  0  0
  8  5  1  6  0  0  0
  8 17  1  0  0  0  0
  8 11  1  0  0  0  0
  9 15  1  0  0  0  0
  9  1  1  1  0  0  0
  9 12  1  0  0  0  0
 11  7  1  0  0  0  0
 11 12  1  0  0  0  0
 13 10  1  0  0  0  0
 13  2  1  0  0  0  0
 14  4  1  0  0  0  0
 14  8  1  0  0  0  0
 15  3  1  0  0  0  0
 16 18  2  0  0  0  0
 17  9  1  0  0  0  0
 18 10  1  0  0  0  0
 19 20  1  0  0  0  0
 20 21  2  0  0  0  0
 20 16  1  0  0  0  0
 23 24  2  0  0  0  0
 24 22  1  0  0  0  0
 24 21  1  0  0  0  0
 25 23  1  0  0  0  0
 25 19  2  0  0  0  0
 26 14  1  0  0  0  0
 27 26  1  0  0  0  0
 28 27  1  0  0  0  0
 29 31  1  0  0  0  0
 30 28  1  0  0  0  0
 31 30  1  0  0  0  0
 31 28  1  0  0  0  0
 32 26  1  0  0  0  0
 32 37  1  0  0  0  0
 33 32  1  0  0  0  0
 34 33  1  0  0  0  0
 35 33  1  0  0  0  0
 37 36  1  0  0  0  0
M  END
>  <MODEL>
2

>  <REMARK>
 VINA RESULT:      -4.5      2.718      6.478
  Name = 
  7 active torsions:
  status: ('A' for Active; 'I' for Inactive)
    1  A    between atoms: C_1  and  C_5
    2  A    between atoms: C_1  and  C_36
    3  A    between atoms: C_6  and  C_31
    4  A    between atoms: C_11  and  C_33
    5  A    between atoms: O_27  and  C_33
    6  A    between atoms: C_29  and  C_36
    7  A    between atoms: C_33  and  C_36
                            x       y       z     vdW  Elec       q    Type
                         _______ _______ _______ _____ _____    ______ ____

>  <TORSDO>
F 7

$$$$
=
 OpenBabel11062409213D

 37 43  0  0  1  0  0  0  0  0999 V2000
  160.7600  208.2290  153.1450 O   0  0  0  0  0  1  0  0  0  0  0  0
  161.3770  203.2070  152.2520 C   0  0  0  0  0  2  0  0  0  0  0  0
  162.7670  205.3690  152.2030 C   0  0  0  0  0  2  0  0  0  0  0  0
  161.6260  203.5970  149.5920 C   0  0  2  0  0  3  0  0  0  0  0  0
  159.2830  205.9900  149.6180 O   0  0  0  0  0  1  0  0  0  0  0  0
  160.9610  203.0730  148.3270 C   0  0  0  0  0  2  0  0  0  0  0  0
  161.3940  204.7190  152.4430 C   0  0  1  0  0  0  0  0  0  0  0  0
  160.4250  205.8970  150.4120 C   0  0  1  0  0  0  0  0  0  0  0  0
  161.1450  207.1110  152.4060 C   0  0  2  0  0  0  0  0  0  0  0  0
  161.5120  201.3110  150.6050 C   0  0  0  0  0  2  0  0  0  0  0  0
  160.1010  205.1250  151.6660 C   0  0  2  0  0  3  0  0  0  0  0  0
  160.4510  205.8480  152.8980 C   0  0  1  0  0  3  0  0  0  0  0  0
  161.0810  202.7580  150.7900 C   0  0  1  0  0  3  0  0  0  0  0  0
  161.5520  205.1630  149.6340 C   0  0  2  0  0  3  0  0  0  0  0  0
  162.6220  206.8360  152.5580 C   0  0  0  0  0  2  0  0  0  0  0  0
  161.0390  201.5720  148.2050 C   0  0  0  0  0  0  0  0  0  0  0  0
  160.8130  207.2850  150.9190 C   0  0  0  0  0  2  0  0  0  0  0  0
  161.2170  200.8190  149.2560 N   0  0  0  0  0  0  0  0  0  0  0  0
  160.0450  201.6160  145.9070 C   0  0  0  0  0  3  0  0  0  0  0  0
  160.7860  200.9410  146.8920 C   0  0  0  0  0  0  0  0  0  0  0  0
  161.2920  199.6630  146.6070 C   0  0  0  0  0  3  0  0  0  0  0  0
  161.5510  197.8360  145.0980 F   0  0  0  0  0  0  0  0  0  0  0  0
  160.3200  199.7500  144.3900 C   0  0  0  0  0  3  0  0  0  0  0  0
  161.0590  199.0700  145.3620 C   0  0  0  0  0  0  0  0  0  0  0  0
  159.8140  201.0230  144.6630 C   0  0  0  0  0  3  0  0  0  0  0  0
  162.3030  205.9770  148.5650 C   0  0  2  0  0  3  0  0  0  0  0  0
  162.7010  207.4020  148.9660 C   0  0  0  0  0  2  0  0  0  0  0  0
  161.8350  208.4770  148.3160 C   0  0  2  0  0  3  0  0  0  0  0  0
  162.3900  209.6710  150.3650 O   0  0  0  0  0  1  0  0  0  0  0  0
  162.6920  209.6850  148.0040 C   0  0  0  0  0  2  0  0  0  0  0  0
  161.7040  209.7550  149.1490 C   0  0  1  0  0  3  0  0  0  0  0  0
  161.8080  205.7690  147.1250 C   0  0  2  0  0  3  0  0  0  0  0  0
  162.9370  205.3130  146.1950 C   0  0  2  0  0  3  0  0  0  0  0  0
  162.5040  204.1950  145.2590 C   0  0  0  0  0  1  0  0  0  0  0  0
  164.0200  204.8910  146.9440 F   0  0  0  0  0  0  0  0  0  0  0  0
  160.2340  206.4030  145.6920 C   0  0  0  0  0  1  0  0  0  0  0  0
  161.1480  206.8980  146.6230 O   0  0  0  0  0  0  0  0  0  0  0  0
  2  7  1  0  0  0  0
  3 15  1  0  0  0  0
  4  6  1  6  0  0  0
  4 14  1  0  0  0  0
  4 13  1  0  0  0  0
  7  3  1  6  0  0  0
  7 12  1  0  0  0  0
  8  5  1  6  0  0  0
  8 17  1  0  0  0  0
  8 11  1  0  0  0  0
  9 15  1  0  0  0  0
  9 12  1  0  0  0  0
  9  1  1  1  0  0  0
 10 13  1  0  0  0  0
 11  7  1  0  0  0  0
 11 12  1  0  0  0  0
 13  2  1  0  0  0  0
 14  8  1  0  0  0  0
 16  6  1  0  0  0  0
 16 18  2  0  0  0  0
 17  9  1  0  0  0  0
 18 10  1  0  0  0  0
 19 20  1  0  0  0  0
 20 16  1  0  0  0  0
 21 20  2  0  0  0  0
 22 24  1  0  0  0  0
 23 25  1  0  0  0  0
 23 24  2  0  0  0  0
 24 21  1  0  0  0  0
 25 19  2  0  0  0  0
 26 27  1  0  0  0  0
 26 14  1  0  0  0  0
 28 27  1  0  0  0  0
 28 31  1  0  0  0  0
 30 28  1  0  0  0  0
 30 31  1  0  0  0  0
 31 29  1  0  0  0  0
 32 26  1  0  0  0  0
 33 35  1  0  0  0  0
 33 32  1  0  0  0  0
 34 33  1  0  0  0  0
 36 37  1  0  0  0  0
 37 32  1  0  0  0  0
M  END
>  <MODEL>
3

>  <REMARK>
 VINA RESULT:      -3.7      5.011      8.898
  Name = 
  7 active torsions:
  status: ('A' for Active; 'I' for Inactive)
    1  A    between atoms: C_1  and  C_5
    2  A    between atoms: C_1  and  C_36
    3  A    between atoms: C_6  and  C_31
    4  A    between atoms: C_11  and  C_33
    5  A    between atoms: O_27  and  C_33
    6  A    between atoms: C_29  and  C_36
    7  A    between atoms: C_33  and  C_36
                            x       y       z     vdW  Elec       q    Type
                         _______ _______ _______ _____ _____    ______ ____

>  <TORSDO>
F 7

$$$$
=
 OpenBabel11062409213D

 37 43  0  0  1  0  0  0  0  0999 V2000
  161.7300  208.4810  157.2450 O   0  0  0  0  0  1  0  0  0  0  0  0
  159.0290  211.7230  154.3150 C   0  0  0  0  0  2  0  0  0  0  0  0
  159.2310  209.1930  154.7260 C   0  0  0  0  0  2  0  0  0  0  0  0
  160.3100  210.9380  152.0710 C   0  0  2  0  0  3  0  0  0  0  0  0
  163.2250  210.6800  153.7000 O   0  0  0  0  0  1  0  0  0  0  0  0
  161.0900  211.6060  150.9480 C   0  0  0  0  0  2  0  0  0  0  0  0
  159.7360  210.6050  155.0720 C   0  0  1  0  0  0  0  0  0  0  0  0
  162.0000  210.1030  154.0330 C   0  0  1  0  0  0  0  0  0  0  0  0
  161.2080  208.9740  156.0500 C   0  0  2  0  0  0  0  0  0  0  0  0
  158.6920  212.8480  152.0910 C   0  0  0  0  0  2  0  0  0  0  0  0
  161.2260  211.0480  154.9190 C   0  0  2  0  0  3  0  0  0  0  0  0
  160.7900  210.4320  156.1810 C   0  0  1  0  0  3  0  0  0  0  0  0
  159.6820  212.0700  152.9440 C   0  0  1  0  0  3  0  0  0  0  0  0
  161.1800  209.8210  152.7440 C   0  0  2  0  0  3  0  0  0  0  0  0
  159.9520  208.2350  155.6550 C   0  0  0  0  0  2  0  0  0  0  0  0
  160.2890  212.6630  150.2290 C   0  0  0  0  0  0  0  0  0  0  0  0
  162.2320  208.8760  154.9130 C   0  0  0  0  0  2  0  0  0  0  0  0
  159.2690  213.2410  150.8010 N   0  0  0  0  0  0  0  0  0  0  0  0
  162.0600  213.6010  148.7260 C   0  0  0  0  0  3  0  0  0  0  0  0
  160.7460  213.1360  148.9040 C   0  0  0  0  0  0  0  0  0  0  0  0
  159.8750  213.1180  147.8030 C   0  0  0  0  0  3  0  0  0  0  0  0
  159.4610  213.5370  145.4940 F   0  0  0  0  0  0  0  0  0  0  0  0
  161.6180  214.0190  146.3830 C   0  0  0  0  0  3  0  0  0  0  0  0
  160.3090  213.5590  146.5490 C   0  0  0  0  0  0  0  0  0  0  0  0
  162.4930  214.0400  147.4720 C   0  0  0  0  0  3  0  0  0  0  0  0
  161.5890  208.5900  151.9170 C   0  0  2  0  0  3  0  0  0  0  0  0
  161.0300  208.5260  150.4900 C   0  0  0  0  0  2  0  0  0  0  0  0
  162.0920  208.2220  149.4380 C   0  0  2  0  0  3  0  0  0  0  0  0
  160.4610  206.5370  148.7800 O   0  0  0  0  0  1  0  0  0  0  0  0
  161.5380  208.5360  148.0650 C   0  0  0  0  0  2  0  0  0  0  0  0
  161.7100  207.0910  148.4800 C   0  0  1  0  0  3  0  0  0  0  0  0
  161.6480  207.2700  152.7020 C   0  0  2  0  0  3  0  0  0  0  0  0
  162.5020  206.2190  151.9870 C   0  0  2  0  0  3  0  0  0  0  0  0
  161.6770  205.0470  151.4780 C   0  0  0  0  0  1  0  0  0  0  0  0
  163.4830  205.7510  152.8420 F   0  0  0  0  0  0  0  0  0  0  0  0
  160.5750  205.8470  154.0290 C   0  0  0  0  0  1  0  0  0  0  0  0
  160.3720  206.7790  153.0090 O   0  0  0  0  0  0  0  0  0  0  0  0
  3  7  1  0  0  0  0
  3 15  1  0  0  0  0
  4  6  1  6  0  0  0
  4 14  1  0  0  0  0
  4 13  1  0  0  0  0
  7  2  1  1  0  0  0
  7 12  1  0  0  0  0
  8  5  1  6  0  0  0
  8 17  1  0  0  0  0
  8 11  1  0  0  0  0
  9 12  1  0  0  0  0
  9  1  1  1  0  0  0
 10 13  1  0  0  0  0
 11  7  1  0  0  0  0
 11 12  1  0  0  0  0
 13  2  1  0  0  0  0
 14  8  1  0  0  0  0
 15  9  1  0  0  0  0
 16 18  2  0  0  0  0
 16  6  1  0  0  0  0
 17  9  1  0  0  0  0
 18 10  1  0  0  0  0
 19 20  1  0  0  0  0
 20 16  1  0  0  0  0
 21 20  2  0  0  0  0
 22 24  1  0  0  0  0
 23 24  2  0  0  0  0
 23 25  1  0  0  0  0
 24 21  1  0  0  0  0
 25 19  2  0  0  0  0
 26 32  1  0  0  0  0
 26 14  1  0  0  0  0
 27 26  1  0  0  0  0
 28 27  1  0  0  0  0
 30 31  1  0  0  0  0
 30 28  1  0  0  0  0
 31 29  1  0  0  0  0
 31 28  1  0  0  0  0
 32 37  1  0  0  0  0
 33 32  1  0  0  0  0
 33 35  1  0  0  0  0
 34 33  1  0  0  0  0
 37 36  1  0  0  0  0
M  END
>  <MODEL>
4

>  <REMARK>
 VINA RESULT:      -3.2      1.380      2.580
  Name = 
  7 active torsions:
  status: ('A' for Active; 'I' for Inactive)
    1  A    between atoms: C_1  and  C_5
    2  A    between atoms: C_1  and  C_36
    3  A    between atoms: C_6  and  C_31
    4  A    between atoms: C_11  and  C_33
    5  A    between atoms: O_27  and  C_33
    6  A    between atoms: C_29  and  C_36
    7  A    between atoms: C_33  and  C_36
                            x       y       z     vdW  Elec       q    Type
                         _______ _______ _______ _____ _____    ______ ____

>  <TORSDO>
F 7

$$$$
=
 OpenBabel11062409213D

 37 43  0  0  1  0  0  0  0  0999 V2000
  161.1950  204.3260  145.0630 O   0  0  0  0  0  1  0  0  0  0  0  0
  162.7190  208.3730  147.8380 C   0  0  0  0  0  2  0  0  0  0  0  0
  163.2970  205.8830  147.5640 C   0  0  0  0  0  2  0  0  0  0  0  0
  161.6750  207.3500  150.1080 C   0  0  2  0  0  3  0  0  0  0  0  0
  159.0160  206.1440  148.4670 O   0  0  0  0  0  1  0  0  0  0  0  0
  160.7010  207.8070  151.1850 C   0  0  0  0  0  2  0  0  0  0  0  0
  162.4010  207.0570  147.1360 C   0  0  1  0  0  0  0  0  0  0  0  0
  160.3660  205.9480  148.1780 C   0  0  1  0  0  0  0  0  0  0  0  0
  161.5130  205.0120  146.2340 C   0  0  2  0  0  0  0  0  0  0  0  0
  162.6430  209.6560  150.0000 C   0  0  0  0  0  2  0  0  0  0  0  0
  160.8430  207.0370  147.2500 C   0  0  2  0  0  3  0  0  0  0  0  0
  161.4770  206.5200  146.0280 C   0  0  1  0  0  3  0  0  0  0  0  0
  161.9560  208.5740  149.1810 C   0  0  1  0  0  3  0  0  0  0  0  0
  161.1990  205.9900  149.4890 C   0  0  2  0  0  3  0  0  0  0  0  0
  162.9220  204.7070  146.6820 C   0  0  0  0  0  2  0  0  0  0  0  0
  161.1280  209.0900  151.8530 C   0  0  0  0  0  0  0  0  0  0  0  0
  160.5370  204.6670  147.3650 C   0  0  0  0  0  2  0  0  0  0  0  0
  161.9420  209.9190  151.2600 N   0  0  0  0  0  0  0  0  0  0  0  0
  159.7290  210.6280  153.2500 C   0  0  0  0  0  3  0  0  0  0  0  0
  160.5160  209.4680  153.1450 C   0  0  0  0  0  0  0  0  0  0  0  0
  160.7040  208.6680  154.2830 C   0  0  0  0  0  3  0  0  0  0  0  0
  160.3070  208.2440  156.5940 F   0  0  0  0  0  0  0  0  0  0  0  0
  159.3390  210.1780  155.5960 C   0  0  0  0  0  3  0  0  0  0  0  0
  160.1200  209.0230  155.5030 C   0  0  0  0  0  0  0  0  0  0  0  0
  159.1440  210.9800  154.4680 C   0  0  0  0  0  3  0  0  0  0  0  0
  161.1580  204.7360  150.3790 C   0  0  2  0  0  3  0  0  0  0  0  0
  160.5200  203.4900  149.7520 C   0  0  0  0  0  2  0  0  0  0  0  0
  161.4980  202.3320  149.5790 C   0  0  2  0  0  3  0  0  0  0  0  0
  159.4480  201.0300  149.7630 O   0  0  0  0  0  1  0  0  0  0  0  0
  161.2060  201.6250  148.2730 C   0  0  0  0  0  2  0  0  0  0  0  0
  160.8320  200.9540  149.5770 C   0  0  1  0  0  3  0  0  0  0  0  0
  160.8570  205.0030  151.8630 C   0  0  2  0  0  3  0  0  0  0  0  0
  162.1400  205.1550  152.6860 C   0  0  2  0  0  3  0  0  0  0  0  0
  161.9560  206.0700  153.8860 C   0  0  0  0  0  1  0  0  0  0  0  0
  163.1550  205.6460  151.8860 F   0  0  0  0  0  0  0  0  0  0  0  0
  160.8310  202.9710  152.7610 C   0  0  0  0  0  1  0  0  0  0  0  0
  160.0020  204.0390  152.4110 O   0  0  0  0  0  0  0  0  0  0  0  0
  2 13  1  0  0  0  0
  4  6  1  1  0  0  0
  6 16  1  0  0  0  0
  7 11  1  0  0  0  0
  7  3  1  1  0  0  0
  7  2  1  0  0  0  0
  8  5  1  1  0  0  0
  8 14  1  0  0  0  0
  9  1  1  6  0  0  0
  9 15  1  0  0  0  0
  9 17  1  0  0  0  0
 10 18  1  0  0  0  0
 11  8  1  0  0  0  0
 12  9  1  0  0  0  0
 12  7  1  0  0  0  0
 12 11  1  0  0  0  0
 13 10  1  0  0  0  0
 13  4  1  0  0  0  0
 14  4  1  0  0  0  0
 14 26  1  0  0  0  0
 15  3  1  0  0  0  0
 16 20  1  0  0  0  0
 17  8  1  0  0  0  0
 18 16  2  0  0  0  0
 19 25  1  0  0  0  0
 20 19  2  0  0  0  0
 20 21  1  0  0  0  0
 21 24  2  0  0  0  0
 24 23  1  0  0  0  0
 24 22  1  0  0  0  0
 25 23  2  0  0  0  0
 26 32  1  0  0  0  0
 27 26  1  0  0  0  0
 28 27  1  0  0  0  0
 30 31  1  0  0  0  0
 30 28  1  0  0  0  0
 31 28  1  0  0  0  0
 31 29  1  0  0  0  0
 32 37  1  0  0  0  0
 32 33  1  0  0  0  0
 33 34  1  0  0  0  0
 35 33  1  0  0  0  0
 37 36  1  0  0  0  0
M  END
>  <MODEL>
5

>  <REMARK>
 VINA RESULT:      -2.8      3.862      7.570
  Name = 
  7 active torsions:
  status: ('A' for Active; 'I' for Inactive)
    1  A    between atoms: C_1  and  C_5
    2  A    between atoms: C_1  and  C_36
    3  A    between atoms: C_6  and  C_31
    4  A    between atoms: C_11  and  C_33
    5  A    between atoms: O_27  and  C_33
    6  A    between atoms: C_29  and  C_36
    7  A    between atoms: C_33  and  C_36
                            x       y       z     vdW  Elec       q    Type
                         _______ _______ _______ _____ _____    ______ ____

>  <TORSDO>
F 7

$$$$
