=
 OpenBabel11052422163D

 25 28  0  0  1  0  0  0  0  0999 V2000
  161.1230  206.5960  151.6430 C   0  0  0  0  0  0  0  0  0  0  0  0
  161.0400  207.8840  152.1960 C   0  0  0  0  0  0  0  0  0  0  0  0
  161.1400  205.6270  153.8900 C   0  0  0  0  0  3  0  0  0  0  0  0
  161.1690  206.2200  150.2900 C   0  0  0  0  0  0  0  0  0  0  0  0
  161.2870  205.0910  147.7370 C   0  0  0  0  0  3  0  0  0  0  0  0
  161.0350  206.9170  154.4330 C   0  0  0  0  0  3  0  0  0  0  0  0
  161.2600  204.8390  150.1210 C   0  0  0  0  0  0  0  0  0  0  0  0
  161.3210  204.2520  148.8610 C   0  0  0  0  0  3  0  0  0  0  0  0
  160.9120  209.4190  151.2960 S   0  0  0  0  0  0  0  0  0  0  0  0
  161.1960  206.4860  147.8910 C   0  0  0  0  0  3  0  0  0  0  0  0
  161.1790  205.4940  152.5000 C   0  0  0  0  0  0  0  0  0  0  0  0
  161.2860  204.0610  151.6170 S   0  0  0  0  0  0  0  0  0  0  0  0
  160.8190  209.4330  154.0440 C   0  0  1  0  0  3  0  0  0  0  0  0
  161.1360  207.0590  149.1730 C   0  0  0  0  0  3  0  0  0  0  0  0
  160.2370  210.1690  152.8230 C   0  0  1  0  0  3  0  0  0  0  0  0
  160.9830  208.0320  153.5770 C   0  0  0  0  0  0  0  0  0  0  0  0
  160.4300  211.6600  152.8530 C   0  0  0  0  0  3  0  0  0  0  0  0
  159.5810  212.5000  153.4600 C   0  0  0  0  0  3  0  0  0  0  0  0
  158.3440  212.0500  154.1790 C   0  0  2  0  0  3  0  0  0  0  0  0
  157.1810  212.9740  153.8620 C   0  0  0  0  0  1  0  0  0  0  0  0
  158.5850  212.0130  155.6520 C   0  0  0  0  0  0  0  0  0  0  0  0
  159.6920  212.6610  156.1810 O   0  0  0  0  0  0  0  0  0  0  0  0
  157.7940  211.4000  156.4190 O   0  0  0  0  0  1  0  0  0  0  0  0
  162.1780  209.9920  154.4640 C   0  0  0  0  0  2  0  0  0  0  0  0
  162.1840  210.2750  155.8890 N   0  0  0  0  0  1  0  0  0  0  0  0
  1  2  2  0  0  0  0
  1 11  1  0  0  0  0
  2 16  1  0  0  0  0
  3  6  1  0  0  0  0
  4  1  1  0  0  0  0
  5 10  2  0  0  0  0
  5  8  1  0  0  0  0
  7  4  1  0  0  0  0
  7 12  1  0  0  0  0
  8  7  2  0  0  0  0
  9  2  1  0  0  0  0
  9 15  1  0  0  0  0
 10 14  1  0  0  0  0
 11  3  2  0  0  0  0
 12 11  1  0  0  0  0
 13 24  1  6  0  0  0
 14  4  2  0  0  0  0
 15 17  1  1  0  0  0
 15 13  1  0  0  0  0
 16 13  1  0  0  0  0
 16  6  2  0  0  0  0
 17 18  2  0  0  0  0
 18 19  1  0  0  0  0
 19 20  1  1  0  0  0
 19 21  1  0  0  0  0
 21 22  2  0  0  0  0
 21 23  1  0  0  0  0
 24 25  1  0  0  0  0
M  END
>  <MODEL>
1

>  <REMARK>
 VINA RESULT:      -7.3      0.000      0.000
  Name = 
  4 active torsions:
  status: ('A' for Active; 'I' for Inactive)
    1  A    between atoms: C_2  and  C_21
    2  A    between atoms: C_6  and  C_23
    3  A    between atoms: C_13  and  C_20
    4  A    between atoms: C_15  and  C_21
                            x       y       z     vdW  Elec       q    Type
                         _______ _______ _______ _____ _____    ______ ____

>  <TORSDO>
F 4

$$$$
=
 OpenBabel11052422163D

 25 28  0  0  1  0  0  0  0  0999 V2000
  161.2750  204.9130  149.0180 C   0  0  0  0  0  0  0  0  0  0  0  0
  161.4250  206.0150  149.8740 C   0  0  0  0  0  0  0  0  0  0  0  0
  160.3310  203.6040  150.8570 C   0  0  0  0  0  3  0  0  0  0  0  0
  161.6050  204.8050  147.6560 C   0  0  0  0  0  0  0  0  0  0  0  0
  162.1280  204.2080  144.9770 C   0  0  0  0  0  3  0  0  0  0  0  0
  160.4650  204.7180  151.7010 C   0  0  0  0  0  3  0  0  0  0  0  0
  161.3210  203.5430  147.1350 C   0  0  0  0  0  0  0  0  0  0  0  0
  161.5720  203.2200  145.8040 C   0  0  0  0  0  3  0  0  0  0  0  0
  162.0390  207.6300  149.4290 S   0  0  0  0  0  0  0  0  0  0  0  0
  162.4210  205.4850  145.4890 C   0  0  0  0  0  3  0  0  0  0  0  0
  160.7390  203.7270  149.5270 C   0  0  0  0  0  0  0  0  0  0  0  0
  160.6660  202.5460  148.3260 S   0  0  0  0  0  0  0  0  0  0  0  0
  161.1440  207.1640  151.9880 C   0  0  1  0  0  3  0  0  0  0  0  0
  162.1600  205.7900  146.8350 C   0  0  0  0  0  3  0  0  0  0  0  0
  161.2010  208.2760  150.9230 C   0  0  1  0  0  3  0  0  0  0  0  0
  161.0090  205.9130  151.1970 C   0  0  0  0  0  0  0  0  0  0  0  0
  161.8170  209.5590  151.4050 C   0  0  0  0  0  3  0  0  0  0  0  0
  161.2760  210.3200  152.3670 C   0  0  0  0  0  3  0  0  0  0  0  0
  159.9980  209.9770  153.0720 C   0  0  2  0  0  3  0  0  0  0  0  0
  158.9460  211.0410  152.8090 C   0  0  0  0  0  1  0  0  0  0  0  0
  160.2350  209.8390  154.5390 C   0  0  0  0  0  0  0  0  0  0  0  0
  161.5360  209.8230  155.0240 O   0  0  0  0  0  0  0  0  0  0  0  0
  159.2680  209.7370  155.3410 O   0  0  0  0  0  1  0  0  0  0  0  0
  162.4200  207.1000  152.8270 C   0  0  0  0  0  2  0  0  0  0  0  0
  162.1190  206.5920  154.1550 N   0  0  0  0  0  1  0  0  0  0  0  0
  1 11  1  0  0  0  0
  1  2  2  0  0  0  0
  2 16  1  0  0  0  0
  3  6  1  0  0  0  0
  4  1  1  0  0  0  0
  5 10  2  0  0  0  0
  5  8  1  0  0  0  0
  7  4  1  0  0  0  0
  7 12  1  0  0  0  0
  8  7  2  0  0  0  0
  9  2  1  0  0  0  0
  9 15  1  0  0  0  0
 10 14  1  0  0  0  0
 11  3  2  0  0  0  0
 12 11  1  0  0  0  0
 13 24  1  6  0  0  0
 14  4  2  0  0  0  0
 15 17  1  1  0  0  0
 15 13  1  0  0  0  0
 16  6  2  0  0  0  0
 16 13  1  0  0  0  0
 17 18  2  0  0  0  0
 18 19  1  0  0  0  0
 19 20  1  1  0  0  0
 19 21  1  0  0  0  0
 21 22  2  0  0  0  0
 21 23  1  0  0  0  0
 24 25  1  0  0  0  0
M  END
>  <MODEL>
2

>  <REMARK>
 VINA RESULT:      -7.2      2.058      3.170
  Name = 
  4 active torsions:
  status: ('A' for Active; 'I' for Inactive)
    1  A    between atoms: C_2  and  C_21
    2  A    between atoms: C_6  and  C_23
    3  A    between atoms: C_13  and  C_20
    4  A    between atoms: C_15  and  C_21
                            x       y       z     vdW  Elec       q    Type
                         _______ _______ _______ _____ _____    ______ ____

>  <TORSDO>
F 4

$$$$
=
 OpenBabel11052422163D

 25 28  0  0  1  0  0  0  0  0999 V2000
  161.2610  207.4950  152.1120 C   0  0  0  0  0  0  0  0  0  0  0  0
  161.0580  208.5520  153.0140 C   0  0  0  0  0  0  0  0  0  0  0  0
  161.0190  205.8840  153.9370 C   0  0  0  0  0  3  0  0  0  0  0  0
  161.4990  207.5520  150.7290 C   0  0  0  0  0  0  0  0  0  0  0  0
  161.9930  207.2600  147.9940 C   0  0  0  0  0  3  0  0  0  0  0  0
  160.7950  206.9450  154.8280 C   0  0  0  0  0  3  0  0  0  0  0  0
  161.6630  206.2890  150.1610 C   0  0  0  0  0  0  0  0  0  0  0  0
  161.9100  206.1170  148.8020 C   0  0  0  0  0  3  0  0  0  0  0  0
  160.9920  210.2890  152.6160 S   0  0  0  0  0  0  0  0  0  0  0  0
  161.8300  208.5410  148.5520 C   0  0  0  0  0  3  0  0  0  0  0  0
  161.2460  206.1830  152.5920 C   0  0  0  0  0  0  0  0  0  0  0  0
  161.5210  205.0900  151.3380 S   0  0  0  0  0  0  0  0  0  0  0  0
  160.5390  209.4600  155.1990 C   0  0  1  0  0  3  0  0  0  0  0  0
  161.5820  208.6930  149.9260 C   0  0  0  0  0  3  0  0  0  0  0  0
  160.0950  210.5380  154.1920 C   0  0  1  0  0  3  0  0  0  0  0  0
  160.8150  208.2690  154.3540 C   0  0  0  0  0  0  0  0  0  0  0  0
  160.2260  211.9460  154.7010 C   0  0  0  0  0  3  0  0  0  0  0  0
  159.2250  212.8360  154.6740 C   0  0  0  0  0  3  0  0  0  0  0  0
  157.8600  212.5280  154.1340 C   0  0  2  0  0  3  0  0  0  0  0  0
  157.2750  213.7490  153.4440 C   0  0  0  0  0  1  0  0  0  0  0  0
  156.9570  212.0760  155.2340 C   0  0  0  0  0  0  0  0  0  0  0  0
  156.1190  210.9890  155.0290 O   0  0  0  0  0  0  0  0  0  0  0  0
  156.9490  212.6700  156.3460 O   0  0  0  0  0  1  0  0  0  0  0  0
  161.8090  209.8560  155.9500 C   0  0  0  0  0  2  0  0  0  0  0  0
  161.8990  209.1230  157.2020 N   0  0  0  0  0  1  0  0  0  0  0  0
  1 11  1  0  0  0  0
  1  2  2  0  0  0  0
  2 16  1  0  0  0  0
  3  6  1  0  0  0  0
  4  1  1  0  0  0  0
  5 10  2  0  0  0  0
  5  8  1  0  0  0  0
  7  4  1  0  0  0  0
  7 12  1  0  0  0  0
  8  7  2  0  0  0  0
  9  2  1  0  0  0  0
  9 15  1  0  0  0  0
 10 14  1  0  0  0  0
 11  3  2  0  0  0  0
 12 11  1  0  0  0  0
 13 24  1  6  0  0  0
 14  4  2  0  0  0  0
 15 17  1  1  0  0  0
 15 13  1  0  0  0  0
 16  6  2  0  0  0  0
 16 13  1  0  0  0  0
 18 17  2  0  0  0  0
 19 20  1  1  0  0  0
 19 18  1  0  0  0  0
 19 21  1  0  0  0  0
 21 23  1  0  0  0  0
 22 21  2  0  0  0  0
 24 25  1  0  0  0  0
M  END
>  <MODEL>
3

>  <REMARK>
 VINA RESULT:      -6.6      1.343      1.634
  Name = 
  4 active torsions:
  status: ('A' for Active; 'I' for Inactive)
    1  A    between atoms: C_2  and  C_21
    2  A    between atoms: C_6  and  C_23
    3  A    between atoms: C_13  and  C_20
    4  A    between atoms: C_15  and  C_21
                            x       y       z     vdW  Elec       q    Type
                         _______ _______ _______ _____ _____    ______ ____

>  <TORSDO>
F 4

$$$$
=
 OpenBabel11052422163D

 25 28  0  0  1  0  0  0  0  0999 V2000
  161.2820  205.7260  151.1930 C   0  0  0  0  0  0  0  0  0  0  0  0
  161.1430  204.7270  150.2160 C   0  0  0  0  0  0  0  0  0  0  0  0
  161.0450  204.0440  152.9540 C   0  0  0  0  0  3  0  0  0  0  0  0
  161.4750  207.1070  151.0190 C   0  0  0  0  0  0  0  0  0  0  0  0
  161.8550  209.8740  151.0790 C   0  0  0  0  0  3  0  0  0  0  0  0
  160.9280  203.0490  151.9700 C   0  0  0  0  0  3  0  0  0  0  0  0
  161.5610  207.7920  152.2300 C   0  0  0  0  0  0  0  0  0  0  0  0
  161.7490  209.1700  152.2880 C   0  0  0  0  0  3  0  0  0  0  0  0
  161.2320  204.9510  148.4490 S   0  0  0  0  0  0  0  0  0  0  0  0
  161.7690  209.1970  149.8490 C   0  0  0  0  0  3  0  0  0  0  0  0
  161.2230  205.3670  152.5420 C   0  0  0  0  0  0  0  0  0  0  0  0
  161.4030  206.7240  153.5260 S   0  0  0  0  0  0  0  0  0  0  0  0
  160.9220  202.4260  149.4930 C   0  0  1  0  0  3  0  0  0  0  0  0
  161.5790  207.8060  149.8140 C   0  0  0  0  0  3  0  0  0  0  0  0
  161.5920  203.1610  148.3170 C   0  0  1  0  0  3  0  0  0  0  0  0
  160.9810  203.4040  150.6110 C   0  0  0  0  0  0  0  0  0  0  0  0
  161.2350  202.6120  146.9640 C   0  0  0  0  0  3  0  0  0  0  0  0
  161.1370  203.3690  145.8640 C   0  0  0  0  0  3  0  0  0  0  0  0
  161.3740  204.8500  145.8550 C   0  0  2  0  0  3  0  0  0  0  0  0
  160.3650  205.5420  144.9540 C   0  0  0  0  0  1  0  0  0  0  0  0
  162.7630  205.1510  145.3990 C   0  0  0  0  0  0  0  0  0  0  0  0
  163.8380  204.5470  146.0370 O   0  0  0  0  0  1  0  0  0  0  0  0
  162.9700  205.9450  144.4430 O   0  0  0  0  0  0  0  0  0  0  0  0
  159.4630  202.0750  149.2020 C   0  0  0  0  0  2  0  0  0  0  0  0
  159.1230  200.8020  149.8140 N   0  0  0  0  0  1  0  0  0  0  0  0
  1 11  2  0  0  0  0
  2 16  2  0  0  0  0
  2  1  1  0  0  0  0
  4  1  1  0  0  0  0
  4  7  1  0  0  0  0
  5  8  1  0  0  0  0
  6  3  2  0  0  0  0
  7  8  2  0  0  0  0
  7 12  1  0  0  0  0
  9  2  1  0  0  0  0
 10  5  2  0  0  0  0
 11  3  1  0  0  0  0
 11 12  1  0  0  0  0
 13 24  1  6  0  0  0
 13 16  1  0  0  0  0
 14 10  1  0  0  0  0
 14  4  2  0  0  0  0
 15 17  1  6  0  0  0
 15  9  1  0  0  0  0
 15 13  1  0  0  0  0
 16  6  1  0  0  0  0
 18 17  2  0  0  0  0
 19 20  1  6  0  0  0
 19 18  1  0  0  0  0
 21 19  1  0  0  0  0
 21 22  1  0  0  0  0
 23 21  2  0  0  0  0
 24 25  1  0  0  0  0
M  END
>  <MODEL>
4

>  <REMARK>
 VINA RESULT:      -6.0      5.253      8.179
  Name = 
  4 active torsions:
  status: ('A' for Active; 'I' for Inactive)
    1  A    between atoms: C_2  and  C_21
    2  A    between atoms: C_6  and  C_23
    3  A    between atoms: C_13  and  C_20
    4  A    between atoms: C_15  and  C_21
                            x       y       z     vdW  Elec       q    Type
                         _______ _______ _______ _____ _____    ______ ____

>  <TORSDO>
F 4

$$$$
=
 OpenBabel11052422163D

 25 28  0  0  1  0  0  0  0  0999 V2000
  161.3980  206.1620  149.4390 C   0  0  0  0  0  0  0  0  0  0  0  0
  161.6420  207.5290  149.6460 C   0  0  0  0  0  0  0  0  0  0  0  0
  160.6120  205.9460  151.7460 C   0  0  0  0  0  3  0  0  0  0  0  0
  161.5960  205.3990  148.2760 C   0  0  0  0  0  0  0  0  0  0  0  0
  161.8570  203.5670  146.1820 C   0  0  0  0  0  3  0  0  0  0  0  0
  160.8400  207.3180  151.9380 C   0  0  0  0  0  3  0  0  0  0  0  0
  161.2470  204.0600  148.4480 C   0  0  0  0  0  0  0  0  0  0  0  0
  161.3680  203.1280  147.4210 C   0  0  0  0  0  3  0  0  0  0  0  0
  162.2340  208.6980  148.4360 S   0  0  0  0  0  0  0  0  0  0  0  0
  162.2150  204.9150  145.9940 C   0  0  0  0  0  3  0  0  0  0  0  0
  160.8950  205.3960  150.4940 C   0  0  0  0  0  0  0  0  0  0  0  0
  160.6930  203.7910  150.0170 S   0  0  0  0  0  0  0  0  0  0  0  0
  161.5770  209.5620  150.9630 C   0  0  1  0  0  3  0  0  0  0  0  0
  162.0850  205.8400  147.0430 C   0  0  0  0  0  3  0  0  0  0  0  0
  161.5500  210.0250  149.4940 C   0  0  1  0  0  3  0  0  0  0  0  0
  161.3500  208.0940  150.8830 C   0  0  0  0  0  0  0  0  0  0  0  0
  162.2250  211.3450  149.2530 C   0  0  0  0  0  3  0  0  0  0  0  0
  161.5630  212.5050  149.1570 C   0  0  0  0  0  3  0  0  0  0  0  0
  160.0720  212.6200  149.2820 C   0  0  2  0  0  3  0  0  0  0  0  0
  159.4960  213.3620  148.0890 C   0  0  0  0  0  1  0  0  0  0  0  0
  159.7100  213.3210  150.5500 C   0  0  0  0  0  0  0  0  0  0  0  0
  158.8310  212.7160  151.4380 O   0  0  0  0  0  1  0  0  0  0  0  0
  160.1930  214.4520  150.8210 O   0  0  0  0  0  0  0  0  0  0  0  0
  162.9250  209.8320  151.6310 C   0  0  0  0  0  2  0  0  0  0  0  0
  162.7230  210.3260  152.9820 N   0  0  0  0  0  1  0  0  0  0  0  0
  1  2  2  0  0  0  0
  1 11  1  0  0  0  0
  2 16  1  0  0  0  0
  3  6  1  0  0  0  0
  4  7  1  0  0  0  0
  4  1  1  0  0  0  0
  5  8  1  0  0  0  0
  7 12  1  0  0  0  0
  8  7  2  0  0  0  0
  9 15  1  0  0  0  0
  9  2  1  0  0  0  0
 10  5  2  0  0  0  0
 10 14  1  0  0  0  0
 11  3  2  0  0  0  0
 12 11  1  0  0  0  0
 13 24  1  6  0  0  0
 14  4  2  0  0  0  0
 15 17  1  1  0  0  0
 15 13  1  0  0  0  0
 16 13  1  0  0  0  0
 16  6  2  0  0  0  0
 18 17  2  0  0  0  0
 18 19  1  0  0  0  0
 19 20  1  6  0  0  0
 19 21  1  0  0  0  0
 21 23  2  0  0  0  0
 21 22  1  0  0  0  0
 24 25  1  0  0  0  0
M  END
>  <MODEL>
5

>  <REMARK>
 VINA RESULT:      -5.6      2.825      3.594
  Name = 
  4 active torsions:
  status: ('A' for Active; 'I' for Inactive)
    1  A    between atoms: C_2  and  C_21
    2  A    between atoms: C_6  and  C_23
    3  A    between atoms: C_13  and  C_20
    4  A    between atoms: C_15  and  C_21
                            x       y       z     vdW  Elec       q    Type
                         _______ _______ _______ _____ _____    ______ ____

>  <TORSDO>
F 4

$$$$
=
 OpenBabel11052422163D

 25 28  0  0  1  0  0  0  0  0999 V2000
  161.3060  204.8980  148.9920 C   0  0  0  0  0  0  0  0  0  0  0  0
  161.4770  205.9330  149.9250 C   0  0  0  0  0  0  0  0  0  0  0  0
  160.1780  203.5460  150.6920 C   0  0  0  0  0  3  0  0  0  0  0  0
  161.7030  204.8510  147.6450 C   0  0  0  0  0  0  0  0  0  0  0  0
  162.3350  204.3850  144.9640 C   0  0  0  0  0  3  0  0  0  0  0  0
  160.3360  204.5950  151.6120 C   0  0  0  0  0  3  0  0  0  0  0  0
  161.3680  203.6460  147.0300 C   0  0  0  0  0  0  0  0  0  0  0  0
  161.6720  203.3890  145.6960 C   0  0  0  0  0  3  0  0  0  0  0  0
  162.2180  207.5260  149.6180 S   0  0  0  0  0  0  0  0  0  0  0  0
  162.6810  205.6050  145.5720 C   0  0  0  0  0  3  0  0  0  0  0  0
  160.6670  203.7220  149.3950 C   0  0  0  0  0  0  0  0  0  0  0  0
  160.5850  202.6240  148.1180 S   0  0  0  0  0  0  0  0  0  0  0  0
  161.1540  206.9670  152.0910 C   0  0  1  0  0  3  0  0  0  0  0  0
  162.3650  205.8450  146.9190 C   0  0  0  0  0  3  0  0  0  0  0  0
  161.3420  208.1350  151.1050 C   0  0  1  0  0  3  0  0  0  0  0  0
  160.9820  205.7780  151.2150 C   0  0  0  0  0  0  0  0  0  0  0  0
  162.0100  209.3420  151.7000 C   0  0  0  0  0  3  0  0  0  0  0  0
  161.9960  210.5520  151.1250 C   0  0  0  0  0  3  0  0  0  0  0  0
  161.3090  210.8400  149.8230 C   0  0  2  0  0  3  0  0  0  0  0  0
  162.2950  210.7430  148.6710 C   0  0  0  0  0  1  0  0  0  0  0  0
  160.6850  212.1960  149.8540 C   0  0  0  0  0  0  0  0  0  0  0  0
  160.6560  212.9630  148.6980 O   0  0  0  0  0  0  0  0  0  0  0  0
  160.1840  212.6500  150.9180 O   0  0  0  0  0  1  0  0  0  0  0  0
  162.3740  206.7650  152.9890 C   0  0  0  0  0  2  0  0  0  0  0  0
  161.9520  206.4000  154.3310 N   0  0  0  0  0  1  0  0  0  0  0  0
  1 11  1  0  0  0  0
  1  2  2  0  0  0  0
  2 16  1  0  0  0  0
  3  6  1  0  0  0  0
  4  1  1  0  0  0  0
  5 10  2  0  0  0  0
  5  8  1  0  0  0  0
  7  4  1  0  0  0  0
  7 12  1  0  0  0  0
  8  7  2  0  0  0  0
  9  2  1  0  0  0  0
  9 15  1  0  0  0  0
 10 14  1  0  0  0  0
 11  3  2  0  0  0  0
 12 11  1  0  0  0  0
 13 24  1  1  0  0  0
 14  4  2  0  0  0  0
 15 17  1  1  0  0  0
 15 13  1  0  0  0  0
 16  6  2  0  0  0  0
 16 13  1  0  0  0  0
 18 17  2  0  0  0  0
 19 20  1  6  0  0  0
 19 21  1  0  0  0  0
 19 18  1  0  0  0  0
 21 23  1  0  0  0  0
 22 21  2  0  0  0  0
 24 25  1  0  0  0  0
M  END
>  <MODEL>
6

>  <REMARK>
 VINA RESULT:      -5.3      3.195      4.216
  Name = 
  4 active torsions:
  status: ('A' for Active; 'I' for Inactive)
    1  A    between atoms: C_2  and  C_21
    2  A    between atoms: C_6  and  C_23
    3  A    between atoms: C_13  and  C_20
    4  A    between atoms: C_15  and  C_21
                            x       y       z     vdW  Elec       q    Type
                         _______ _______ _______ _____ _____    ______ ____

>  <TORSDO>
F 4

$$$$
=
 OpenBabel11052422163D

 25 28  0  0  1  0  0  0  0  0999 V2000
  161.3980  207.4810  150.2040 C   0  0  0  0  0  0  0  0  0  0  0  0
  161.2460  208.4660  151.1920 C   0  0  0  0  0  0  0  0  0  0  0  0
  162.0880  209.1920  148.5970 C   0  0  0  0  0  3  0  0  0  0  0  0
  161.1830  206.0950  150.3010 C   0  0  0  0  0  0  0  0  0  0  0  0
  160.8610  203.3270  150.1010 C   0  0  0  0  0  3  0  0  0  0  0  0
  161.9530  210.1670  149.5980 C   0  0  0  0  0  3  0  0  0  0  0  0
  161.4290  205.4300  149.1000 C   0  0  0  0  0  0  0  0  0  0  0  0
  161.2760  204.0530  148.9740 C   0  0  0  0  0  3  0  0  0  0  0  0
  160.7800  208.1990  152.8940 S   0  0  0  0  0  0  0  0  0  0  0  0
  160.6080  203.9840  151.3190 C   0  0  0  0  0  3  0  0  0  0  0  0
  161.8080  207.8630  148.9240 C   0  0  0  0  0  0  0  0  0  0  0  0
  161.9100  206.5210  147.9080 S   0  0  0  0  0  0  0  0  0  0  0  0
  161.4130  210.7320  152.0300 C   0  0  1  0  0  3  0  0  0  0  0  0
  160.7690  205.3760  151.4240 C   0  0  0  0  0  3  0  0  0  0  0  0
  161.5230  209.8290  153.2720 C   0  0  1  0  0  3  0  0  0  0  0  0
  161.5360  209.7910  150.8860 C   0  0  0  0  0  0  0  0  0  0  0  0
  160.9520  210.4320  154.5250 C   0  0  0  0  0  3  0  0  0  0  0  0
  160.5190  209.7040  155.5630 C   0  0  0  0  0  3  0  0  0  0  0  0
  160.5560  208.2050  155.5940 C   0  0  2  0  0  3  0  0  0  0  0  0
  159.1490  207.6430  155.7080 C   0  0  0  0  0  1  0  0  0  0  0  0
  161.3940  207.7300  156.7340 C   0  0  0  0  0  0  0  0  0  0  0  0
  161.1800  206.4640  157.2610 O   0  0  0  0  0  1  0  0  0  0  0  0
  162.2940  208.4660  157.2220 O   0  0  0  0  0  0  0  0  0  0  0  0
  160.0670  211.4520  151.9540 C   0  0  0  0  0  2  0  0  0  0  0  0
  160.2460  212.7930  151.4260 N   0  0  0  0  0  1  0  0  0  0  0  0
  1  4  1  0  0  0  0
  1  2  2  0  0  0  0
  2  9  1  0  0  0  0
  3 11  2  0  0  0  0
  3  6  1  0  0  0  0
  4 14  1  0  0  0  0
  5 10  1  0  0  0  0
  6 16  2  0  0  0  0
  7  4  2  0  0  0  0
  8  7  1  0  0  0  0
  8  5  2  0  0  0  0
  9 15  1  0  0  0  0
 10 14  2  0  0  0  0
 11  1  1  0  0  0  0
 12 11  1  0  0  0  0
 12  7  1  0  0  0  0
 13 24  1  6  0  0  0
 13 15  1  0  0  0  0
 15 17  1  1  0  0  0
 16  2  1  0  0  0  0
 16 13  1  0  0  0  0
 17 18  2  0  0  0  0
 18 19  1  0  0  0  0
 19 20  1  1  0  0  0
 19 21  1  0  0  0  0
 21 23  2  0  0  0  0
 21 22  1  0  0  0  0
 25 24  1  0  0  0  0
M  END
>  <MODEL>
7

>  <REMARK>
 VINA RESULT:      -5.3      2.638      3.979
  Name = 
  4 active torsions:
  status: ('A' for Active; 'I' for Inactive)
    1  A    between atoms: C_2  and  C_21
    2  A    between atoms: C_6  and  C_23
    3  A    between atoms: C_13  and  C_20
    4  A    between atoms: C_15  and  C_21
                            x       y       z     vdW  Elec       q    Type
                         _______ _______ _______ _____ _____    ______ ____

>  <TORSDO>
F 4

$$$$
=
 OpenBabel11052422163D

 25 28  0  0  1  0  0  0  0  0999 V2000
  161.5500  207.2720  150.5720 C   0  0  0  0  0  0  0  0  0  0  0  0
  161.5970  206.2750  149.5850 C   0  0  0  0  0  0  0  0  0  0  0  0
  161.9400  208.9840  148.8680 C   0  0  0  0  0  3  0  0  0  0  0  0
  161.3470  207.1330  151.9550 C   0  0  0  0  0  0  0  0  0  0  0  0
  160.9830  207.2610  154.7220 C   0  0  0  0  0  3  0  0  0  0  0  0
  161.9650  207.9820  147.8850 C   0  0  0  0  0  3  0  0  0  0  0  0
  161.3730  208.3550  152.6250 C   0  0  0  0  0  0  0  0  0  0  0  0
  161.1950  208.4460  154.0030 C   0  0  0  0  0  3  0  0  0  0  0  0
  161.3490  204.5250  149.8310 S   0  0  0  0  0  0  0  0  0  0  0  0
  160.9550  206.0200  154.0600 C   0  0  0  0  0  3  0  0  0  0  0  0
  161.7300  208.6060  150.1960 C   0  0  0  0  0  0  0  0  0  0  0  0
  161.6440  209.6180  151.5420 S   0  0  0  0  0  0  0  0  0  0  0  0
  161.7450  205.5060  147.2920 C   0  0  1  0  0  3  0  0  0  0  0  0
  161.1370  205.9510  152.6690 C   0  0  0  0  0  3  0  0  0  0  0  0
  160.9740  204.4050  148.0440 C   0  0  1  0  0  3  0  0  0  0  0  0
  161.7900  206.6370  148.2560 C   0  0  0  0  0  0  0  0  0  0  0  0
  161.2050  203.0190  147.5100 C   0  0  0  0  0  3  0  0  0  0  0  0
  160.9270  201.9070  148.2030 C   0  0  0  0  0  3  0  0  0  0  0  0
  160.3520  201.9170  149.5870 C   0  0  2  0  0  3  0  0  0  0  0  0
  161.3660  201.3880  150.5870 C   0  0  0  0  0  1  0  0  0  0  0  0
  159.1040  201.0980  149.6370 C   0  0  0  0  0  0  0  0  0  0  0  0
  158.0980  201.3280  148.7090 O   0  0  0  0  0  0  0  0  0  0  0  0
  158.9560  200.2030  150.5110 O   0  0  0  0  0  1  0  0  0  0  0  0
  163.1700  205.0810  146.9420 C   0  0  0  0  0  2  0  0  0  0  0  0
  163.2560  204.7320  145.5340 N   0  0  0  0  0  1  0  0  0  0  0  0
  1  4  1  0  0  0  0
  2  9  1  0  0  0  0
  2  1  1  0  0  0  0
  3 11  1  0  0  0  0
  4  7  2  0  0  0  0
  4 14  1  0  0  0  0
  6 16  1  0  0  0  0
  6  3  2  0  0  0  0
  7  8  1  0  0  0  0
  8  5  2  0  0  0  0
 10  5  1  0  0  0  0
 11  1  2  0  0  0  0
 11 12  1  0  0  0  0
 12  7  1  0  0  0  0
 13 24  1  1  0  0  0
 13 15  1  0  0  0  0
 13 16  1  0  0  0  0
 14 10  2  0  0  0  0
 15 17  1  6  0  0  0
 15  9  1  0  0  0  0
 16  2  2  0  0  0  0
 17 18  2  0  0  0  0
 18 19  1  0  0  0  0
 19 21  1  0  0  0  0
 19 20  1  1  0  0  0
 21 23  1  0  0  0  0
 22 21  2  0  0  0  0
 25 24  1  0  0  0  0
M  END
>  <MODEL>
8

>  <REMARK>
 VINA RESULT:      -5.0      4.978      8.361
  Name = 
  4 active torsions:
  status: ('A' for Active; 'I' for Inactive)
    1  A    between atoms: C_2  and  C_21
    2  A    between atoms: C_6  and  C_23
    3  A    between atoms: C_13  and  C_20
    4  A    between atoms: C_15  and  C_21
                            x       y       z     vdW  Elec       q    Type
                         _______ _______ _______ _____ _____    ______ ____

>  <TORSDO>
F 4

$$$$
=
 OpenBabel11052422163D

 25 28  0  0  1  0  0  0  0  0999 V2000
  161.3180  208.0080  151.2360 C   0  0  0  0  0  0  0  0  0  0  0  0
  160.9790  209.0720  152.0870 C   0  0  0  0  0  0  0  0  0  0  0  0
  161.9510  209.5990  149.4880 C   0  0  0  0  0  3  0  0  0  0  0  0
  161.2460  206.6270  151.4820 C   0  0  0  0  0  0  0  0  0  0  0  0
  161.2420  203.8350  151.5930 C   0  0  0  0  0  3  0  0  0  0  0  0
  161.6290  210.6570  150.3540 C   0  0  0  0  0  3  0  0  0  0  0  0
  161.6610  205.8660  150.3900 C   0  0  0  0  0  0  0  0  0  0  0  0
  161.6680  204.4740  150.4190 C   0  0  0  0  0  3  0  0  0  0  0  0
  160.4060  208.9440  153.7710 S   0  0  0  0  0  0  0  0  0  0  0  0
  160.8200  204.5890  152.7030 C   0  0  0  0  0  3  0  0  0  0  0  0
  161.7890  208.2920  149.9510 C   0  0  0  0  0  0  0  0  0  0  0  0
  162.1190  206.8660  149.1130 S   0  0  0  0  0  0  0  0  0  0  0  0
  160.8320  211.4220  152.6570 C   0  0  1  0  0  3  0  0  0  0  0  0
  160.8200  205.9930  152.6520 C   0  0  0  0  0  3  0  0  0  0  0  0
  160.9350  210.6800  154.0030 C   0  0  1  0  0  3  0  0  0  0  0  0
  161.1500  210.3800  151.6460 C   0  0  0  0  0  0  0  0  0  0  0  0
  160.2010  211.3480  155.1320 C   0  0  0  0  0  3  0  0  0  0  0  0
  160.5780  211.2530  156.4140 C   0  0  0  0  0  3  0  0  0  0  0  0
  161.7740  210.4720  156.8690 C   0  0  2  0  0  3  0  0  0  0  0  0
  162.9470  210.7030  155.9320 C   0  0  0  0  0  1  0  0  0  0  0  0
  161.4480  209.0160  156.9370 C   0  0  0  0  0  0  0  0  0  0  0  0
  160.1580  208.6180  157.2610 O   0  0  0  0  0  1  0  0  0  0  0  0
  162.3300  208.1470  156.7030 O   0  0  0  0  0  0  0  0  0  0  0  0
  159.4270  211.9660  152.4020 C   0  0  0  0  0  2  0  0  0  0  0  0
  159.4900  213.3840  152.0880 N   0  0  0  0  0  1  0  0  0  0  0  0
  1  4  1  0  0  0  0
  1  2  2  0  0  0  0
  2  9  1  0  0  0  0
  3 11  2  0  0  0  0
  3  6  1  0  0  0  0
  4 14  1  0  0  0  0
  5 10  1  0  0  0  0
  6 16  2  0  0  0  0
  7  8  1  0  0  0  0
  7  4  2  0  0  0  0
  8  5  2  0  0  0  0
  9 15  1  0  0  0  0
 11  1  1  0  0  0  0
 12 11  1  0  0  0  0
 12  7  1  0  0  0  0
 13 24  1  6  0  0  0
 13 15  1  0  0  0  0
 14 10  2  0  0  0  0
 15 17  1  1  0  0  0
 16  2  1  0  0  0  0
 16 13  1  0  0  0  0
 17 18  2  0  0  0  0
 18 19  1  0  0  0  0
 19 20  1  6  0  0  0
 19 21  1  0  0  0  0
 21 22  1  0  0  0  0
 23 21  2  0  0  0  0
 25 24  1  0  0  0  0
M  END
>  <MODEL>
9

>  <REMARK>
 VINA RESULT:      -4.8      2.442      3.907
  Name = 
  4 active torsions:
  status: ('A' for Active; 'I' for Inactive)
    1  A    between atoms: C_2  and  C_21
    2  A    between atoms: C_6  and  C_23
    3  A    between atoms: C_13  and  C_20
    4  A    between atoms: C_15  and  C_21
                            x       y       z     vdW  Elec       q    Type
                         _______ _______ _______ _____ _____    ______ ____

>  <TORSDO>
F 4

$$$$
