=
 OpenBabel11052422143D

 25 29  0  0  1  0  0  0  0  0999 V2000
  161.3960  203.5610  148.0320 C   0  0  2  0  0  3  0  0  0  0  0  0
  161.1900  204.0240  149.4470 C   0  0  0  0  0  0  0  0  0  0  0  0
  161.1310  201.2140  148.6890 C   0  0  0  0  0  2  0  0  0  0  0  0
  160.9910  204.5150  146.9280 C   0  0  2  0  0  3  0  0  0  0  0  0
  161.8470  205.3260  144.3010 C   0  0  0  0  0  3  0  0  0  0  0  0
  160.8330  201.5880  150.1510 C   0  0  0  0  0  2  0  0  0  0  0  0
  160.8500  203.6890  145.7280 N   0  0  0  0  0  0  0  0  0  0  0  0
  161.1440  204.2000  144.4240 C   0  0  0  0  0  3  0  0  0  0  0  0
  160.9260  203.5050  151.7950 C   0  0  0  0  0  0  0  0  0  0  0  0
  160.7260  202.6010  152.8320 O   0  0  0  0  0  1  0  0  0  0  0  0
  161.3150  205.3410  149.7670 N   0  0  0  0  0  0  0  0  0  0  0  0
  162.3580  206.0110  145.5020 C   0  0  0  0  0  3  0  0  0  0  0  0
  160.5930  202.3050  147.7850 C   0  0  2  0  0  3  0  0  0  0  0  0
  160.7110  201.9490  146.0110 S   0  0  0  0  0  0  0  0  0  0  0  0
  161.0350  204.8650  152.0860 C   0  0  0  0  0  3  0  0  0  0  0  0
  162.0040  205.6140  146.7280 C   0  0  0  0  0  3  0  0  0  0  0  0
  161.2320  205.7880  151.0500 C   0  0  0  0  0  0  0  0  0  0  0  0
  161.0180  203.0620  150.4700 C   0  0  0  0  0  0  0  0  0  0  0  0
  161.0330  209.1370  152.8150 C   0  0  0  0  0  0  0  0  0  0  0  0
  161.3590  207.2330  151.3370 C   0  0  0  0  0  0  0  0  0  0  0  0
  160.9080  207.7710  152.5530 C   0  0  0  0  0  3  0  0  0  0  0  0
  160.5510  209.6940  154.1060 C   0  0  0  0  0  1  0  0  0  0  0  0
  161.9380  208.0890  150.3880 C   0  0  0  0  0  3  0  0  0  0  0  0
  161.6110  209.9810  151.8630 C   0  0  0  0  0  3  0  0  0  0  0  0
  162.0640  209.4570  150.6500 C   0  0  0  0  0  3  0  0  0  0  0  0
  1  2  1  1  0  0  0
  2 11  2  0  0  0  0
  2 18  1  0  0  0  0
  3  6  1  0  0  0  0
  4 16  1  6  0  0  0
  4  1  1  0  0  0  0
  5  8  2  0  0  0  0
  5 12  1  0  0  0  0
  6 18  1  0  0  0  0
  7 14  1  0  0  0  0
  7  4  1  0  0  0  0
  8  7  1  0  0  0  0
  9 15  1  0  0  0  0
  9 10  1  0  0  0  0
 11 17  1  0  0  0  0
 12 16  2  0  0  0  0
 13  1  1  0  0  0  0
 13  3  1  1  0  0  0
 14 13  1  0  0  0  0
 17 20  1  0  0  0  0
 17 15  2  0  0  0  0
 18  9  2  0  0  0  0
 19 22  1  0  0  0  0
 20 21  2  0  0  0  0
 21 19  1  0  0  0  0
 23 25  2  0  0  0  0
 23 20  1  0  0  0  0
 24 19  2  0  0  0  0
 25 24  1  0  0  0  0
M  END
>  <MODEL>
1

>  <REMARK>
 VINA RESULT:      -9.9      0.000      0.000
  Name = 
  1 active torsions:
  status: ('A' for Active; 'I' for Inactive)
    1  A    between atoms: C_6  and  C_23
                            x       y       z     vdW  Elec       q    Type
                         _______ _______ _______ _____ _____    ______ ____

>  <TORSDO>
F 1

$$$$
=
 OpenBabel11052422143D

 25 29  0  0  1  0  0  0  0  0999 V2000
  161.3080  208.7340  152.8350 C   0  0  2  0  0  3  0  0  0  0  0  0
  161.3950  207.9840  151.5350 C   0  0  0  0  0  0  0  0  0  0  0  0
  161.8980  210.8440  151.7350 C   0  0  0  0  0  2  0  0  0  0  0  0
  160.3580  208.1910  153.8820 C   0  0  2  0  0  3  0  0  0  0  0  0
  160.1700  207.9060  156.7410 C   0  0  0  0  0  3  0  0  0  0  0  0
  161.9390  210.1850  150.3460 C   0  0  0  0  0  2  0  0  0  0  0  0
  160.1140  209.3030  154.8030 N   0  0  0  0  0  0  0  0  0  0  0  0
  159.8700  209.0850  156.1970 C   0  0  0  0  0  3  0  0  0  0  0  0
  161.9670  207.9410  149.1850 C   0  0  0  0  0  0  0  0  0  0  0  0
  162.3280  208.5780  148.0030 O   0  0  0  0  0  1  0  0  0  0  0  0
  161.2390  206.6330  151.5070 N   0  0  0  0  0  0  0  0  0  0  0  0
  160.7940  206.8520  155.9210 C   0  0  0  0  0  3  0  0  0  0  0  0
  160.8460  210.1490  152.5760 C   0  0  2  0  0  3  0  0  0  0  0  0
  160.5450  210.9060  154.1960 S   0  0  0  0  0  0  0  0  0  0  0  0
  161.7760  206.5590  149.1860 C   0  0  0  0  0  3  0  0  0  0  0  0
  160.9290  206.9940  154.5990 C   0  0  0  0  0  3  0  0  0  0  0  0
  161.4060  205.9050  150.3680 C   0  0  0  0  0  0  0  0  0  0  0  0
  161.7950  208.6730  150.3660 C   0  0  0  0  0  0  0  0  0  0  0  0
  160.8170  202.3340  149.2410 C   0  0  0  0  0  0  0  0  0  0  0  0
  161.2070  204.4400  150.3930 C   0  0  0  0  0  0  0  0  0  0  0  0
  161.0040  203.7180  149.2060 C   0  0  0  0  0  3  0  0  0  0  0  0
  160.6030  201.5810  147.9780 C   0  0  0  0  0  1  0  0  0  0  0  0
  161.2200  203.7500  151.6160 C   0  0  0  0  0  3  0  0  0  0  0  0
  160.8320  201.6570  150.4630 C   0  0  0  0  0  3  0  0  0  0  0  0
  161.0330  202.3650  151.6500 C   0  0  0  0  0  3  0  0  0  0  0  0
  1  2  1  6  0  0  0
  1  4  1  0  0  0  0
  4 16  1  1  0  0  0
  4  7  1  0  0  0  0
  6 18  1  0  0  0  0
  6  3  1  0  0  0  0
  7  8  1  0  0  0  0
  8  5  2  0  0  0  0
  9 15  2  0  0  0  0
  9 18  1  0  0  0  0
 10  9  1  0  0  0  0
 11  2  1  0  0  0  0
 12  5  1  0  0  0  0
 13  3  1  1  0  0  0
 13  1  1  0  0  0  0
 13 14  1  0  0  0  0
 14  7  1  0  0  0  0
 15 17  1  0  0  0  0
 16 12  2  0  0  0  0
 17 20  1  0  0  0  0
 17 11  2  0  0  0  0
 18  2  2  0  0  0  0
 19 24  1  0  0  0  0
 20 23  2  0  0  0  0
 21 19  2  0  0  0  0
 21 20  1  0  0  0  0
 22 19  1  0  0  0  0
 23 25  1  0  0  0  0
 24 25  2  0  0  0  0
M  END
>  <MODEL>
2

>  <REMARK>
 VINA RESULT:      -9.3      3.696      8.108
  Name = 
  1 active torsions:
  status: ('A' for Active; 'I' for Inactive)
    1  A    between atoms: C_6  and  C_23
                            x       y       z     vdW  Elec       q    Type
                         _______ _______ _______ _____ _____    ______ ____

>  <TORSDO>
F 1

$$$$
=
 OpenBabel11052422143D

 25 29  0  0  1  0  0  0  0  0999 V2000
  161.0530  204.9380  148.5200 C   0  0  2  0  0  3  0  0  0  0  0  0
  161.3220  206.2360  149.2290 C   0  0  0  0  0  0  0  0  0  0  0  0
  161.4020  205.9840  146.3300 C   0  0  0  0  0  2  0  0  0  0  0  0
  161.3810  203.6630  149.2680 C   0  0  2  0  0  3  0  0  0  0  0  0
  160.3750  200.9850  149.5890 C   0  0  0  0  0  3  0  0  0  0  0  0
  161.7660  207.3390  146.9610 C   0  0  0  0  0  2  0  0  0  0  0  0
  161.4770  202.6220  148.2430 N   0  0  0  0  0  0  0  0  0  0  0  0
  161.1060  201.2660  148.5110 C   0  0  0  0  0  3  0  0  0  0  0  0
  161.7170  208.6210  149.1380 C   0  0  0  0  0  0  0  0  0  0  0  0
  161.9890  209.7890  148.4340 O   0  0  0  0  0  1  0  0  0  0  0  0
  161.1870  206.3250  150.5800 N   0  0  0  0  0  0  0  0  0  0  0  0
  159.9110  202.0720  150.4710 C   0  0  0  0  0  3  0  0  0  0  0  0
  161.8690  204.8740  147.2490 C   0  0  2  0  0  3  0  0  0  0  0  0
  161.6680  203.2000  146.5830 S   0  0  0  0  0  0  0  0  0  0  0  0
  161.5950  208.6730  150.5260 C   0  0  0  0  0  3  0  0  0  0  0  0
  160.3360  203.3270  150.3020 C   0  0  0  0  0  3  0  0  0  0  0  0
  161.3260  207.5030  151.2490 C   0  0  0  0  0  0  0  0  0  0  0  0
  161.5660  207.4020  148.4660 C   0  0  0  0  0  0  0  0  0  0  0  0
  160.9340  208.7770  154.7980 C   0  0  0  0  0  0  0  0  0  0  0  0
  161.1830  207.5360  152.7200 C   0  0  0  0  0  0  0  0  0  0  0  0
  161.0690  208.7560  153.4070 C   0  0  0  0  0  3  0  0  0  0  0  0
  160.8150  210.0740  155.5130 C   0  0  0  0  0  1  0  0  0  0  0  0
  161.1590  206.3390  153.4510 C   0  0  0  0  0  3  0  0  0  0  0  0
  160.9120  207.5790  155.5160 C   0  0  0  0  0  3  0  0  0  0  0  0
  161.0240  206.3600  154.8430 C   0  0  0  0  0  3  0  0  0  0  0  0
  1  2  1  1  0  0  0
  1  4  1  0  0  0  0
  2 11  1  0  0  0  0
  3  6  1  0  0  0  0
  4 16  1  1  0  0  0
  5 12  1  0  0  0  0
  6 18  1  0  0  0  0
  7  8  1  0  0  0  0
  7  4  1  0  0  0  0
  8  5  2  0  0  0  0
  9 15  2  0  0  0  0
 10  9  1  0  0  0  0
 11 17  2  0  0  0  0
 13  3  1  6  0  0  0
 13  1  1  0  0  0  0
 14 13  1  0  0  0  0
 14  7  1  0  0  0  0
 15 17  1  0  0  0  0
 16 12  2  0  0  0  0
 17 20  1  0  0  0  0
 18  9  1  0  0  0  0
 18  2  2  0  0  0  0
 19 22  1  0  0  0  0
 19 24  1  0  0  0  0
 20 21  1  0  0  0  0
 20 23  2  0  0  0  0
 21 19  2  0  0  0  0
 23 25  1  0  0  0  0
 25 24  2  0  0  0  0
M  END
>  <MODEL>
3

>  <REMARK>
 VINA RESULT:      -9.0      2.240      4.331
  Name = 
  1 active torsions:
  status: ('A' for Active; 'I' for Inactive)
    1  A    between atoms: C_6  and  C_23
                            x       y       z     vdW  Elec       q    Type
                         _______ _______ _______ _____ _____    ______ ____

>  <TORSDO>
F 1

$$$$
=
 OpenBabel11052422143D

 25 29  0  0  1  0  0  0  0  0999 V2000
  161.3340  207.7720  151.0930 C   0  0  2  0  0  3  0  0  0  0  0  0
  161.2700  206.2860  150.8730 C   0  0  0  0  0  0  0  0  0  0  0  0
  161.0360  207.4940  153.5110 C   0  0  0  0  0  2  0  0  0  0  0  0
  162.1460  208.5820  150.1040 C   0  0  2  0  0  3  0  0  0  0  0  0
  162.0930  211.1470  148.7970 C   0  0  0  0  0  3  0  0  0  0  0  0
  161.0330  205.9600  153.4010 C   0  0  0  0  0  2  0  0  0  0  0  0
  162.4290  209.8510  150.7770 N   0  0  0  0  0  0  0  0  0  0  0  0
  162.5460  211.0790  150.0490 C   0  0  0  0  0  3  0  0  0  0  0  0
  160.8730  204.0630  151.7390 C   0  0  0  0  0  0  0  0  0  0  0  0
  160.6640  203.1820  152.7940 O   0  0  0  0  0  1  0  0  0  0  0  0
  161.2960  205.7750  149.6120 N   0  0  0  0  0  0  0  0  0  0  0  0
  161.4320  209.9790  148.1870 C   0  0  0  0  0  3  0  0  0  0  0  0
  161.9500  208.0600  152.4430 C   0  0  2  0  0  3  0  0  0  0  0  0
  162.2020  209.8540  152.5300 S   0  0  0  0  0  0  0  0  0  0  0  0
  160.9280  203.5690  150.4360 C   0  0  0  0  0  3  0  0  0  0  0  0
  161.4100  208.7950  148.8060 C   0  0  0  0  0  3  0  0  0  0  0  0
  161.1430  204.4450  149.3640 C   0  0  0  0  0  0  0  0  0  0  0  0
  161.0280  205.4350  151.9750 C   0  0  0  0  0  0  0  0  0  0  0  0
  161.4240  204.3390  145.5850 C   0  0  0  0  0  0  0  0  0  0  0  0
  161.1960  203.9430  147.9740 C   0  0  0  0  0  0  0  0  0  0  0  0
  161.3760  204.8230  146.8950 C   0  0  0  0  0  3  0  0  0  0  0  0
  161.6140  205.2810  144.4510 C   0  0  0  0  0  1  0  0  0  0  0  0
  161.0660  202.5690  147.7180 C   0  0  0  0  0  3  0  0  0  0  0  0
  161.2930  202.9700  145.3400 C   0  0  0  0  0  3  0  0  0  0  0  0
  161.1150  202.0850  146.4070 C   0  0  0  0  0  3  0  0  0  0  0  0
  1  2  1  6  0  0  0
  1 13  1  0  0  0  0
  2 18  1  0  0  0  0
  4 16  1  6  0  0  0
  4  7  1  0  0  0  0
  4  1  1  0  0  0  0
  5  8  2  0  0  0  0
  6  3  1  0  0  0  0
  7 14  1  0  0  0  0
  8  7  1  0  0  0  0
  9 18  2  0  0  0  0
  9 10  1  0  0  0  0
 11  2  2  0  0  0  0
 12  5  1  0  0  0  0
 12 16  2  0  0  0  0
 13 14  1  0  0  0  0
 13  3  1  1  0  0  0
 15  9  1  0  0  0  0
 17 11  1  0  0  0  0
 17 15  2  0  0  0  0
 18  6  1  0  0  0  0
 19 21  1  0  0  0  0
 20 17  1  0  0  0  0
 21 20  2  0  0  0  0
 22 19  1  0  0  0  0
 23 20  1  0  0  0  0
 24 19  2  0  0  0  0
 24 25  1  0  0  0  0
 25 23  2  0  0  0  0
M  END
>  <MODEL>
4

>  <REMARK>
 VINA RESULT:      -8.8      2.561      6.424
  Name = 
  1 active torsions:
  status: ('A' for Active; 'I' for Inactive)
    1  A    between atoms: C_6  and  C_23
                            x       y       z     vdW  Elec       q    Type
                         _______ _______ _______ _____ _____    ______ ____

>  <TORSDO>
F 1

$$$$
=
 OpenBabel11052422143D

 25 29  0  0  1  0  0  0  0  0999 V2000
  161.5510  204.0260  149.0130 C   0  0  2  0  0  3  0  0  0  0  0  0
  161.3580  204.9150  150.2100 C   0  0  0  0  0  0  0  0  0  0  0  0
  161.3760  202.0100  150.3960 C   0  0  0  0  0  2  0  0  0  0  0  0
  161.0930  204.5640  147.6740 C   0  0  2  0  0  3  0  0  0  0  0  0
  161.8680  204.5070  144.9010 C   0  0  0  0  0  3  0  0  0  0  0  0
  161.0950  202.8270  151.6690 C   0  0  0  0  0  2  0  0  0  0  0  0
  160.9550  203.3920  146.8070 N   0  0  0  0  0  0  0  0  0  0  0  0
  161.2060  203.4640  145.3990 C   0  0  0  0  0  3  0  0  0  0  0  0
  161.1580  205.1720  152.6070 C   0  0  0  0  0  0  0  0  0  0  0  0
  161.0090  204.6450  153.8840 O   0  0  0  0  0  1  0  0  0  0  0  0
  161.4450  206.2670  150.0860 N   0  0  0  0  0  0  0  0  0  0  0  0
  162.3810  205.5550  145.8030 C   0  0  0  0  0  3  0  0  0  0  0  0
  160.7840  202.7380  149.2060 C   0  0  2  0  0  3  0  0  0  0  0  0
  160.8790  201.8330  147.6380 S   0  0  0  0  0  0  0  0  0  0  0  0
  161.2280  206.5560  152.4420 C   0  0  0  0  0  3  0  0  0  0  0  0
  162.0640  205.5650  147.1010 C   0  0  0  0  0  3  0  0  0  0  0  0
  161.3730  207.1010  151.1600 C   0  0  0  0  0  0  0  0  0  0  0  0
  161.2380  204.3290  151.4920 C   0  0  0  0  0  0  0  0  0  0  0  0
  161.9550  210.4890  149.5620 C   0  0  0  0  0  0  0  0  0  0  0  0
  161.4580  208.5640  150.9640 C   0  0  0  0  0  0  0  0  0  0  0  0
  161.8780  209.1050  149.7380 C   0  0  0  0  0  3  0  0  0  0  0  0
  162.4010  211.0500  148.2610 C   0  0  0  0  0  1  0  0  0  0  0  0
  161.1160  209.4350  152.0100 C   0  0  0  0  0  3  0  0  0  0  0  0
  161.6130  211.3470  150.6110 C   0  0  0  0  0  3  0  0  0  0  0  0
  161.1940  210.8190  151.8350 C   0  0  0  0  0  3  0  0  0  0  0  0
  1 13  1  0  0  0  0
  1  2  1  1  0  0  0
  2 18  1  0  0  0  0
  3  6  1  0  0  0  0
  4 16  1  6  0  0  0
  4  1  1  0  0  0  0
  5  8  2  0  0  0  0
  5 12  1  0  0  0  0
  7 14  1  0  0  0  0
  7  4  1  0  0  0  0
  8  7  1  0  0  0  0
  9 10  1  0  0  0  0
 11  2  2  0  0  0  0
 11 17  1  0  0  0  0
 12 16  2  0  0  0  0
 13  3  1  1  0  0  0
 14 13  1  0  0  0  0
 15  9  1  0  0  0  0
 17 15  2  0  0  0  0
 18  6  1  0  0  0  0
 18  9  2  0  0  0  0
 19 21  2  0  0  0  0
 19 24  1  0  0  0  0
 20 17  1  0  0  0  0
 20 23  2  0  0  0  0
 21 20  1  0  0  0  0
 22 19  1  0  0  0  0
 24 25  2  0  0  0  0
 25 23  1  0  0  0  0
M  END
>  <MODEL>
5

>  <REMARK>
 VINA RESULT:      -8.7      1.235      2.145
  Name = 
  1 active torsions:
  status: ('A' for Active; 'I' for Inactive)
    1  A    between atoms: C_6  and  C_23
                            x       y       z     vdW  Elec       q    Type
                         _______ _______ _______ _____ _____    ______ ____

>  <TORSDO>
F 1

$$$$
=
 OpenBabel11052422143D

 25 29  0  0  1  0  0  0  0  0999 V2000
  161.7230  208.1520  151.4580 C   0  0  2  0  0  3  0  0  0  0  0  0
  161.6350  207.2620  150.2490 C   0  0  0  0  0  0  0  0  0  0  0  0
  162.2250  210.1070  150.0660 C   0  0  0  0  0  2  0  0  0  0  0  0
  160.8930  207.7620  152.6630 C   0  0  2  0  0  3  0  0  0  0  0  0
  161.0440  207.7970  155.5380 C   0  0  0  0  0  3  0  0  0  0  0  0
  162.0840  209.3000  148.7650 C   0  0  0  0  0  2  0  0  0  0  0  0
  160.7880  208.9750  153.4760 N   0  0  0  0  0  0  0  0  0  0  0  0
  160.7090  208.9200  154.9040 C   0  0  0  0  0  3  0  0  0  0  0  0
  161.9180  206.9430  147.8680 C   0  0  0  0  0  0  0  0  0  0  0  0
  162.1490  207.4340  146.5880 O   0  0  0  0  0  1  0  0  0  0  0  0
  161.4440  205.9230  150.3920 N   0  0  0  0  0  0  0  0  0  0  0  0
  161.5390  206.6370  154.7750 C   0  0  0  0  0  3  0  0  0  0  0  0
  161.2660  209.5470  151.0970 C   0  0  2  0  0  3  0  0  0  0  0  0
  161.1810  210.4860  152.6460 S   0  0  0  0  0  0  0  0  0  0  0  0
  161.6960  205.5770  148.0470 C   0  0  0  0  0  3  0  0  0  0  0  0
  161.5170  206.6290  153.4390 C   0  0  0  0  0  3  0  0  0  0  0  0
  161.4550  205.0700  149.3310 C   0  0  0  0  0  0  0  0  0  0  0  0
  161.9070  207.8050  148.9720 C   0  0  0  0  0  0  0  0  0  0  0  0
  161.1120  201.3490  148.6920 C   0  0  0  0  0  0  0  0  0  0  0  0
  161.2260  203.6250  149.5440 C   0  0  0  0  0  0  0  0  0  0  0  0
  161.3300  202.7130  148.4810 C   0  0  0  0  0  3  0  0  0  0  0  0
  161.2250  200.3940  147.5600 C   0  0  0  0  0  1  0  0  0  0  0  0
  160.9010  203.1460  150.8220 C   0  0  0  0  0  3  0  0  0  0  0  0
  160.7880  200.8820  149.9690 C   0  0  0  0  0  3  0  0  0  0  0  0
  160.6820  201.7810  151.0340 C   0  0  0  0  0  3  0  0  0  0  0  0
  1  2  1  6  0  0  0
  1  4  1  0  0  0  0
  2 11  1  0  0  0  0
  4 16  1  1  0  0  0
  4  7  1  0  0  0  0
  6 18  1  0  0  0  0
  6  3  1  0  0  0  0
  7  8  1  0  0  0  0
  8  5  2  0  0  0  0
  9 15  2  0  0  0  0
  9 18  1  0  0  0  0
 10  9  1  0  0  0  0
 12  5  1  0  0  0  0
 13  3  1  6  0  0  0
 13  1  1  0  0  0  0
 13 14  1  0  0  0  0
 14  7  1  0  0  0  0
 15 17  1  0  0  0  0
 16 12  2  0  0  0  0
 17 20  1  0  0  0  0
 17 11  2  0  0  0  0
 18  2  2  0  0  0  0
 19 24  1  0  0  0  0
 20 23  2  0  0  0  0
 21 19  2  0  0  0  0
 21 20  1  0  0  0  0
 22 19  1  0  0  0  0
 23 25  1  0  0  0  0
 24 25  2  0  0  0  0
M  END
>  <MODEL>
6

>  <REMARK>
 VINA RESULT:      -8.6      3.277      7.694
  Name = 
  1 active torsions:
  status: ('A' for Active; 'I' for Inactive)
    1  A    between atoms: C_6  and  C_23
                            x       y       z     vdW  Elec       q    Type
                         _______ _______ _______ _____ _____    ______ ____

>  <TORSDO>
F 1

$$$$
=
 OpenBabel11052422143D

 25 29  0  0  1  0  0  0  0  0999 V2000
  161.9490  206.5830  149.6600 C   0  0  2  0  0  3  0  0  0  0  0  0
  161.8720  208.0270  150.0680 C   0  0  0  0  0  0  0  0  0  0  0  0
  161.9890  205.8540  152.0010 C   0  0  0  0  0  2  0  0  0  0  0  0
  161.3260  206.2070  148.3330 C   0  0  2  0  0  3  0  0  0  0  0  0
  161.7780  204.4200  146.1210 C   0  0  0  0  0  3  0  0  0  0  0  0
  161.8350  207.2930  152.5210 C   0  0  0  0  0  2  0  0  0  0  0  0
  161.1210  204.7580  148.3930 N   0  0  0  0  0  0  0  0  0  0  0  0
  161.2060  203.9370  147.2230 C   0  0  0  0  0  3  0  0  0  0  0  0
  161.9430  209.7130  151.8020 C   0  0  0  0  0  0  0  0  0  0  0  0
  161.9550  210.0900  153.1400 O   0  0  0  0  0  1  0  0  0  0  0  0
  161.9080  209.0120  149.1300 N   0  0  0  0  0  0  0  0  0  0  0  0
  162.3630  205.7730  146.1240 C   0  0  0  0  0  3  0  0  0  0  0  0
  161.2450  205.7250  150.6870 C   0  0  2  0  0  3  0  0  0  0  0  0
  161.1830  204.0450  150.0090 S   0  0  0  0  0  0  0  0  0  0  0  0
  161.9560  210.6980  150.8140 C   0  0  0  0  0  3  0  0  0  0  0  0
  162.1980  206.5940  147.1660 C   0  0  0  0  0  3  0  0  0  0  0  0
  161.9370  210.3320  149.4620 C   0  0  0  0  0  0  0  0  0  0  0  0
  161.9160  208.3600  151.4430 C   0  0  0  0  0  0  0  0  0  0  0  0
  160.9100  212.4830  146.5140 C   0  0  0  0  0  0  0  0  0  0  0  0
  161.9610  211.3590  148.3990 C   0  0  0  0  0  0  0  0  0  0  0  0
  160.8790  211.5090  147.5150 C   0  0  0  0  0  3  0  0  0  0  0  0
  159.7600  212.6310  145.5850 C   0  0  0  0  0  1  0  0  0  0  0  0
  163.0730  212.2030  148.2610 C   0  0  0  0  0  3  0  0  0  0  0  0
  162.0230  213.3180  146.3850 C   0  0  0  0  0  3  0  0  0  0  0  0
  163.1050  213.1780  147.2590 C   0  0  0  0  0  3  0  0  0  0  0  0
  1  2  1  1  0  0  0
  1 13  1  0  0  0  0
  2 18  1  0  0  0  0
  3  6  1  0  0  0  0
  4 16  1  6  0  0  0
  4  7  1  0  0  0  0
  4  1  1  0  0  0  0
  5 12  1  0  0  0  0
  5  8  2  0  0  0  0
  7 14  1  0  0  0  0
  8  7  1  0  0  0  0
  9 10  1  0  0  0  0
 11 17  1  0  0  0  0
 11  2  2  0  0  0  0
 12 16  2  0  0  0  0
 13  3  1  1  0  0  0
 14 13  1  0  0  0  0
 15  9  1  0  0  0  0
 17 15  2  0  0  0  0
 18  9  2  0  0  0  0
 18  6  1  0  0  0  0
 19 21  1  0  0  0  0
 20 17  1  0  0  0  0
 21 20  2  0  0  0  0
 22 19  1  0  0  0  0
 23 20  1  0  0  0  0
 24 19  2  0  0  0  0
 24 25  1  0  0  0  0
 25 23  2  0  0  0  0
M  END
>  <MODEL>
7

>  <REMARK>
 VINA RESULT:      -8.5      3.340      5.136
  Name = 
  1 active torsions:
  status: ('A' for Active; 'I' for Inactive)
    1  A    between atoms: C_6  and  C_23
                            x       y       z     vdW  Elec       q    Type
                         _______ _______ _______ _____ _____    ______ ____

>  <TORSDO>
F 1

$$$$
=
 OpenBabel11052422143D

 25 29  0  0  1  0  0  0  0  0999 V2000
  161.6200  206.1390  150.3680 C   0  0  2  0  0  3  0  0  0  0  0  0
  161.4800  207.5130  150.9620 C   0  0  0  0  0  0  0  0  0  0  0  0
  161.4300  205.0910  152.5770 C   0  0  0  0  0  2  0  0  0  0  0  0
  161.1410  205.9510  148.9440 C   0  0  2  0  0  3  0  0  0  0  0  0
  161.8420  204.4890  146.5650 C   0  0  0  0  0  3  0  0  0  0  0  0
  161.2040  206.4440  153.2720 C   0  0  0  0  0  2  0  0  0  0  0  0
  160.9510  204.5080  148.7820 N   0  0  0  0  0  0  0  0  0  0  0  0
  161.1670  203.8580  147.5250 C   0  0  0  0  0  3  0  0  0  0  0  0
  161.3500  208.9410  152.9100 C   0  0  0  0  0  0  0  0  0  0  0  0
  161.2210  209.1280  154.2810 O   0  0  0  0  0  1  0  0  0  0  0  0
  161.5980  208.6180  150.1770 N   0  0  0  0  0  0  0  0  0  0  0  0
  162.4040  205.8290  146.8160 C   0  0  0  0  0  3  0  0  0  0  0  0
  160.8260  205.1470  151.1880 C   0  0  2  0  0  3  0  0  0  0  0  0
  160.8570  203.5770  150.2820 S   0  0  0  0  0  0  0  0  0  0  0  0
  161.4500  210.0530  152.0750 C   0  0  0  0  0  3  0  0  0  0  0  0
  162.1220  206.4970  147.9380 C   0  0  0  0  0  3  0  0  0  0  0  0
  161.5750  209.8790  150.6900 C   0  0  0  0  0  0  0  0  0  0  0  0
  161.3800  207.6510  152.3660 C   0  0  0  0  0  0  0  0  0  0  0  0
  160.9890  213.2670  149.0940 C   0  0  0  0  0  0  0  0  0  0  0  0
  161.6920  211.0440  149.7880 C   0  0  0  0  0  0  0  0  0  0  0  0
  160.8700  212.1710  149.9520 C   0  0  0  0  0  3  0  0  0  0  0  0
  160.1130  214.4530  149.2770 C   0  0  0  0  0  1  0  0  0  0  0  0
  162.6350  211.0360  148.7480 C   0  0  0  0  0  3  0  0  0  0  0  0
  161.9310  213.2490  148.0620 C   0  0  0  0  0  3  0  0  0  0  0  0
  162.7540  212.1330  147.8890 C   0  0  0  0  0  3  0  0  0  0  0  0
  1  2  1  1  0  0  0
  1 13  1  0  0  0  0
  2 18  1  0  0  0  0
  3  6  1  0  0  0  0
  4 16  1  6  0  0  0
  4  1  1  0  0  0  0
  5 12  1  0  0  0  0
  5  8  2  0  0  0  0
  7  4  1  0  0  0  0
  7 14  1  0  0  0  0
  8  7  1  0  0  0  0
  9 10  1  0  0  0  0
 11 17  1  0  0  0  0
 11  2  2  0  0  0  0
 12 16  2  0  0  0  0
 13  3  1  1  0  0  0
 14 13  1  0  0  0  0
 15  9  1  0  0  0  0
 17 15  2  0  0  0  0
 18  9  2  0  0  0  0
 18  6  1  0  0  0  0
 19 22  1  0  0  0  0
 19 21  1  0  0  0  0
 20 21  2  0  0  0  0
 20 17  1  0  0  0  0
 23 20  1  0  0  0  0
 24 19  2  0  0  0  0
 25 24  1  0  0  0  0
 25 23  2  0  0  0  0
M  END
>  <MODEL>
8

>  <REMARK>
 VINA RESULT:      -8.4      2.785      4.450
  Name = 
  1 active torsions:
  status: ('A' for Active; 'I' for Inactive)
    1  A    between atoms: C_6  and  C_23
                            x       y       z     vdW  Elec       q    Type
                         _______ _______ _______ _____ _____    ______ ____

>  <TORSDO>
F 1

$$$$
=
 OpenBabel11052422143D

 25 29  0  0  1  0  0  0  0  0999 V2000
  161.5320  206.4570  150.9610 C   0  0  2  0  0  3  0  0  0  0  0  0
  161.2690  207.7860  151.6130 C   0  0  0  0  0  0  0  0  0  0  0  0
  161.4380  205.3030  153.1220 C   0  0  0  0  0  2  0  0  0  0  0  0
  161.0710  206.2890  149.5290 C   0  0  2  0  0  3  0  0  0  0  0  0
  161.9020  205.0000  147.0920 C   0  0  0  0  0  3  0  0  0  0  0  0
  161.0910  206.5980  153.8750 C   0  0  0  0  0  2  0  0  0  0  0  0
  161.0130  204.8430  149.3040 N   0  0  0  0  0  0  0  0  0  0  0  0
  161.2870  204.2690  148.0210 C   0  0  0  0  0  3  0  0  0  0  0  0
  161.0100  209.1110  153.6200 C   0  0  0  0  0  0  0  0  0  0  0  0
  160.8650  209.2270  154.9980 O   0  0  0  0  0  1  0  0  0  0  0  0
  161.2860  208.9300  150.8770 N   0  0  0  0  0  0  0  0  0  0  0  0
  162.3400  206.3730  147.4020 C   0  0  0  0  0  3  0  0  0  0  0  0
  160.8320  205.3640  151.7350 C   0  0  2  0  0  3  0  0  0  0  0  0
  161.0040  203.8430  150.7620 S   0  0  0  0  0  0  0  0  0  0  0  0
  161.0090  210.2630  152.8340 C   0  0  0  0  0  3  0  0  0  0  0  0
  161.9990  206.9640  148.5510 C   0  0  0  0  0  3  0  0  0  0  0  0
  161.1490  210.1610  151.4440 C   0  0  0  0  0  0  0  0  0  0  0  0
  161.1570  207.8540  153.0220 C   0  0  0  0  0  0  0  0  0  0  0  0
  161.9610  212.5800  148.6400 C   0  0  0  0  0  0  0  0  0  0  0  0
  161.1600  211.3700  150.5920 C   0  0  0  0  0  0  0  0  0  0  0  0
  161.9570  211.4330  149.4380 C   0  0  0  0  0  3  0  0  0  0  0  0
  162.8090  212.6350  147.4210 C   0  0  0  0  0  1  0  0  0  0  0  0
  160.3660  212.4760  150.9320 C   0  0  0  0  0  3  0  0  0  0  0  0
  161.1670  213.6760  148.9870 C   0  0  0  0  0  3  0  0  0  0  0  0
  160.3690  213.6240  150.1330 C   0  0  0  0  0  3  0  0  0  0  0  0
  1  2  1  1  0  0  0
  1 13  1  0  0  0  0
  2 18  1  0  0  0  0
  3  6  1  0  0  0  0
  4 16  1  6  0  0  0
  4  1  1  0  0  0  0
  5 12  1  0  0  0  0
  5  8  2  0  0  0  0
  7  4  1  0  0  0  0
  7 14  1  0  0  0  0
  8  7  1  0  0  0  0
  9 10  1  0  0  0  0
 11 17  1  0  0  0  0
 11  2  2  0  0  0  0
 12 16  2  0  0  0  0
 13  3  1  1  0  0  0
 14 13  1  0  0  0  0
 15  9  1  0  0  0  0
 17 15  2  0  0  0  0
 18  9  2  0  0  0  0
 18  6  1  0  0  0  0
 19 24  2  0  0  0  0
 19 21  1  0  0  0  0
 20 23  1  0  0  0  0
 20 17  1  0  0  0  0
 21 20  2  0  0  0  0
 22 19  1  0  0  0  0
 24 25  1  0  0  0  0
 25 23  2  0  0  0  0
M  END
>  <MODEL>
9

>  <REMARK>
 VINA RESULT:      -8.2      2.824      4.848
  Name = 
  1 active torsions:
  status: ('A' for Active; 'I' for Inactive)
    1  A    between atoms: C_6  and  C_23
                            x       y       z     vdW  Elec       q    Type
                         _______ _______ _______ _____ _____    ______ ____

>  <TORSDO>
F 1

$$$$
