=
 OpenBabel11062408253D

 32 37  0  0  1  0  0  0  0  0999 V2000
  161.5980  208.9950  150.1200 C   0  0  1  0  0  3  0  0  0  0  0  0
  161.8300  207.5140  152.2280 C   0  0  2  0  0  3  0  0  0  0  0  0
  161.9860  209.1220  148.6480 C   0  0  0  0  0  2  0  0  0  0  0  0
  162.1530  207.6860  150.7160 C   0  0  1  0  0  3  0  0  0  0  0  0
  160.9980  206.3430  152.5720 N   0  0  2  0  0  0  0  0  0  0  0  0
  160.2820  209.5630  156.4330 C   0  0  0  0  0  3  0  0  0  0  0  0
  161.1850  208.7780  152.8180 C   0  0  2  0  0  3  0  0  0  0  0  0
  160.4990  207.1640  156.1890 C   0  0  0  0  0  3  0  0  0  0  0  0
  160.8260  207.3250  154.8400 C   0  0  0  0  0  0  0  0  0  0  0  0
  161.7890  206.5060  149.8510 C   0  0  0  0  0  0  0  0  0  0  0  0
  161.1770  206.1150  154.0160 C   0  0  0  0  0  2  0  0  0  0  0  0
  161.4980  205.3240  150.3910 C   0  0  0  0  0  3  0  0  0  0  0  0
  161.9240  206.6220  148.3610 C   0  0  0  0  0  2  0  0  0  0  0  0
  162.0310  209.9980  152.4590 C   0  0  0  0  0  2  0  0  0  0  0  0
  162.0560  210.2230  150.9340 C   0  0  2  0  0  3  0  0  0  0  0  0
  160.9270  208.6190  154.2900 C   0  0  0  0  0  0  0  0  0  0  0  0
  161.4910  205.1390  151.8810 C   0  0  2  0  0  3  0  0  0  0  0  0
  161.3770  207.9610  147.8660 C   0  0  0  0  0  2  0  0  0  0  0  0
  160.2240  208.2800  156.9830 C   0  0  0  0  0  3  0  0  0  0  0  0
  160.6220  209.7320  155.0870 C   0  0  0  0  0  3  0  0  0  0  0  0
  160.8560  213.3720  149.1430 C   0  0  0  0  0  0  0  0  0  0  0  0
  161.1980  214.2360  147.9770 C   0  0  0  0  0  1  0  0  0  0  0  0
  161.2610  211.4460  150.5730 C   0  0  0  0  0  0  0  0  0  0  0  0
  159.7510  213.7150  149.9250 C   0  0  0  0  0  3  0  0  0  0  0  0
  160.1470  211.8040  151.3470 C   0  0  0  0  0  3  0  0  0  0  0  0
  161.6200  212.2340  149.4630 C   0  0  0  0  0  0  0  0  0  0  0  0
  163.0170  211.7950  148.4750 Cl  0  0  0  0  0  0  0  0  0  0  0  0
  159.3920  212.9340  151.0280 C   0  0  0  0  0  0  0  0  0  0  0  0
  158.0710  212.7630  152.9960 O   0  0  0  0  0  0  0  0  0  0  0  0
  158.2360  213.2790  151.8580 C   0  0  0  0  0  3  0  0  0  0  0  0
  160.6700  203.8910  152.2330 C   0  0  0  0  0  2  0  0  0  0  0  0
  161.1650  202.6510  151.5040 C   0  0  0  0  0  1  0  0  0  0  0  0
  1  3  1  6  0  0  0
  1  4  1  0  0  0  0
  1 15  1  0  0  0  0
  2  5  1  0  0  0  0
  2  7  1  0  0  0  0
  4  2  1  0  0  0  0
  5 11  1  0  0  0  0
  6 19  1  0  0  0  0
  7 16  1  0  0  0  0
  8 19  2  0  0  0  0
  9  8  1  0  0  0  0
 10 12  2  0  0  0  0
 10  4  1  0  0  0  0
 11  9  1  0  0  0  0
 12 17  1  0  0  0  0
 13 10  1  0  0  0  0
 14  7  1  0  0  0  0
 15 14  1  0  0  0  0
 16  9  2  0  0  0  0
 16 20  1  0  0  0  0
 17 31  1  0  0  0  0
 17  5  1  0  0  0  0
 18 13  1  0  0  0  0
 18  3  1  0  0  0  0
 20  6  2  0  0  0  0
 21 26  2  0  0  0  0
 21 24  1  0  0  0  0
 22 21  1  0  0  0  0
 23 15  1  0  0  0  0
 23 25  2  0  0  0  0
 24 28  2  0  0  0  0
 26 23  1  0  0  0  0
 27 26  1  0  0  0  0
 28 25  1  0  0  0  0
 28 30  1  0  0  0  0
 30 29  2  0  0  0  0
 32 31  1  0  0  0  0
M  END
>  <MODEL>
1

>  <REMARK>
 VINA RESULT:      -8.2      0.000      0.000
  Name = 
  3 active torsions:
  status: ('A' for Active; 'I' for Inactive)
    1  A    between atoms: C_13  and  C_29
    2  A    between atoms: C_15  and  C_26
    3  A    between atoms: C_16  and  C_27
                            x       y       z     vdW  Elec       q    Type
                         _______ _______ _______ _____ _____    ______ ____

>  <TORSDO>
F 3

$$$$
=
 OpenBabel11062408253D

 32 37  0  0  1  0  0  0  0  0999 V2000
  161.6410  208.7000  151.0610 C   0  0  1  0  0  3  0  0  0  0  0  0
  161.9540  206.5050  149.7300 C   0  0  2  0  0  3  0  0  0  0  0  0
  162.0010  210.1840  151.1040 C   0  0  0  0  0  2  0  0  0  0  0  0
  162.2460  208.0320  149.8120 C   0  0  1  0  0  3  0  0  0  0  0  0
  161.1650  206.0710  148.5590 N   0  0  2  0  0  0  0  0  0  0  0  0
  160.4110  202.4150  152.0000 C   0  0  0  0  0  3  0  0  0  0  0  0
  161.2790  205.9870  151.0090 C   0  0  2  0  0  3  0  0  0  0  0  0
  160.7000  202.5070  149.5980 C   0  0  0  0  0  3  0  0  0  0  0  0
  161.0000  203.8690  149.6810 C   0  0  0  0  0  0  0  0  0  0  0  0
  161.9050  208.8110  148.5670 C   0  0  0  0  0  0  0  0  0  0  0  0
  161.3750  204.6190  148.4300 C   0  0  0  0  0  2  0  0  0  0  0  0
  161.6610  208.1910  147.4150 C   0  0  0  0  0  3  0  0  0  0  0  0
  162.0130  210.3080  148.5900 C   0  0  0  0  0  2  0  0  0  0  0  0
  162.0800  206.4400  152.2280 C   0  0  0  0  0  2  0  0  0  0  0  0
  162.0730  207.9760  152.3530 C   0  0  2  0  0  3  0  0  0  0  0  0
  161.0500  204.5030  150.9380 C   0  0  0  0  0  0  0  0  0  0  0  0
  161.6850  206.6920  147.3270 C   0  0  2  0  0  3  0  0  0  0  0  0
  161.4160  210.8780  149.8770 C   0  0  0  0  0  2  0  0  0  0  0  0
  160.4030  201.7810  150.7550 C   0  0  0  0  0  3  0  0  0  0  0  0
  160.7240  203.7740  152.0910 C   0  0  0  0  0  3  0  0  0  0  0  0
  160.1640  207.9240  155.6590 C   0  0  0  0  0  0  0  0  0  0  0  0
  159.8380  207.0050  156.7860 C   0  0  0  0  0  1  0  0  0  0  0  0
  161.2340  208.4010  153.5260 C   0  0  0  0  0  0  0  0  0  0  0  0
  159.6720  209.2300  155.6980 C   0  0  0  0  0  3  0  0  0  0  0  0
  160.7320  209.7100  153.5840 C   0  0  0  0  0  3  0  0  0  0  0  0
  160.9490  207.4990  154.5700 C   0  0  0  0  0  0  0  0  0  0  0  0
  161.5760  205.8490  154.5160 Cl  0  0  0  0  0  0  0  0  0  0  0  0
  159.9540  210.1270  154.6630 C   0  0  0  0  0  0  0  0  0  0  0  0
  159.8360  212.3580  153.8540 O   0  0  0  0  0  0  0  0  0  0  0  0
  159.4460  211.5000  154.6910 C   0  0  0  0  0  3  0  0  0  0  0  0
  160.9090  206.2450  146.0810 C   0  0  0  0  0  2  0  0  0  0  0  0
  161.8020  205.5490  145.0650 C   0  0  0  0  0  1  0  0  0  0  0  0
  1  3  1  1  0  0  0
  1 15  1  0  0  0  0
  2  4  1  0  0  0  0
  2  7  1  0  0  0  0
  4  1  1  0  0  0  0
  5  2  1  0  0  0  0
  6 20  1  0  0  0  0
  7 14  1  0  0  0  0
  8  9  2  0  0  0  0
  8 19  1  0  0  0  0
  9 16  1  0  0  0  0
 10 13  1  0  0  0  0
 10  4  1  0  0  0  0
 11  5  1  0  0  0  0
 11  9  1  0  0  0  0
 12 10  2  0  0  0  0
 13 18  1  0  0  0  0
 14 15  1  0  0  0  0
 15 23  1  0  0  0  0
 16  7  1  0  0  0  0
 16 20  2  0  0  0  0
 17 12  1  0  0  0  0
 17  5  1  0  0  0  0
 18  3  1  0  0  0  0
 19  6  2  0  0  0  0
 21 24  1  0  0  0  0
 21 22  1  0  0  0  0
 23 25  2  0  0  0  0
 23 26  1  0  0  0  0
 25 28  1  0  0  0  0
 26 21  2  0  0  0  0
 27 26  1  0  0  0  0
 28 30  1  0  0  0  0
 28 24  2  0  0  0  0
 29 30  2  0  0  0  0
 31 17  1  0  0  0  0
 32 31  1  0  0  0  0
M  END
>  <MODEL>
2

>  <REMARK>
 VINA RESULT:      -7.7      2.332      5.698
  Name = 
  3 active torsions:
  status: ('A' for Active; 'I' for Inactive)
    1  A    between atoms: C_13  and  C_29
    2  A    between atoms: C_15  and  C_26
    3  A    between atoms: C_16  and  C_27
                            x       y       z     vdW  Elec       q    Type
                         _______ _______ _______ _____ _____    ______ ____

>  <TORSDO>
F 3

$$$$
=
 OpenBabel11062408253D

 32 37  0  0  1  0  0  0  0  0999 V2000
  160.8250  208.4560  153.7180 C   0  0  1  0  0  3  0  0  0  0  0  0
  160.4460  211.0060  153.9140 C   0  0  2  0  0  3  0  0  0  0  0  0
  161.2210  207.2000  154.4920 C   0  0  0  0  0  2  0  0  0  0  0  0
  160.8000  209.6820  154.6510 C   0  0  1  0  0  3  0  0  0  0  0  0
  159.2110  211.6760  154.3690 N   0  0  2  0  0  0  0  0  0  0  0  0
  159.8990  213.3990  149.6430 C   0  0  0  0  0  3  0  0  0  0  0  0
  160.3780  210.8090  152.3930 C   0  0  2  0  0  3  0  0  0  0  0  0
  159.1160  214.3320  151.7350 C   0  0  0  0  0  3  0  0  0  0  0  0
  159.4710  213.1550  152.4000 C   0  0  0  0  0  0  0  0  0  0  0  0
  159.9800  209.4030  155.8840 C   0  0  0  0  0  0  0  0  0  0  0  0
  159.2910  213.0670  153.8920 C   0  0  0  0  0  2  0  0  0  0  0  0
  159.2360  210.3550  156.4430 C   0  0  0  0  0  3  0  0  0  0  0  0
  160.1410  208.0850  156.5860 C   0  0  0  0  0  2  0  0  0  0  0  0
  161.6460  210.1060  151.9110 C   0  0  0  0  0  2  0  0  0  0  0  0
  161.7500  208.6880  152.5060 C   0  0  2  0  0  3  0  0  0  0  0  0
  160.0880  212.1050  151.6900 C   0  0  0  0  0  0  0  0  0  0  0  0
  159.1650  211.7280  155.8420 C   0  0  2  0  0  3  0  0  0  0  0  0
  160.1850  206.9340  155.5820 C   0  0  0  0  0  2  0  0  0  0  0  0
  159.3260  214.4530  150.3590 C   0  0  0  0  0  3  0  0  0  0  0  0
  160.2700  212.2240  150.3040 C   0  0  0  0  0  3  0  0  0  0  0  0
  161.4900  206.9880  149.0980 C   0  0  0  0  0  0  0  0  0  0  0  0
  161.6740  207.2800  147.6480 C   0  0  0  0  0  1  0  0  0  0  0  0
  161.5210  207.6550  151.4370 C   0  0  0  0  0  0  0  0  0  0  0  0
  161.0930  205.7030  149.4740 C   0  0  0  0  0  3  0  0  0  0  0  0
  161.1240  206.3590  151.7970 C   0  0  0  0  0  3  0  0  0  0  0  0
  161.7070  207.9750  150.0780 C   0  0  0  0  0  0  0  0  0  0  0  0
  162.2110  209.6010  149.6080 Cl  0  0  0  0  0  0  0  0  0  0  0  0
  160.9090  205.3830  150.8230 C   0  0  0  0  0  0  0  0  0  0  0  0
  160.8400  203.5620  152.3470 O   0  0  0  0  0  0  0  0  0  0  0  0
  160.4940  204.0410  151.2340 C   0  0  0  0  0  3  0  0  0  0  0  0
  157.9080  212.4420  156.3570 C   0  0  0  0  0  2  0  0  0  0  0  0
  156.6470  211.6190  156.1410 C   0  0  0  0  0  1  0  0  0  0  0  0
  1  3  1  1  0  0  0
  1  4  1  0  0  0  0
  2  5  1  0  0  0  0
  2  4  1  0  0  0  0
  3 18  1  0  0  0  0
  4 10  1  0  0  0  0
  5 17  1  0  0  0  0
  6 20  2  0  0  0  0
  6 19  1  0  0  0  0
  7  2  1  0  0  0  0
  8  9  1  0  0  0  0
  9 11  1  0  0  0  0
 10 12  2  0  0  0  0
 10 13  1  0  0  0  0
 11  5  1  0  0  0  0
 14  7  1  0  0  0  0
 14 15  1  0  0  0  0
 15  1  1  0  0  0  0
 16  7  1  0  0  0  0
 16  9  2  0  0  0  0
 17 31  1  0  0  0  0
 17 12  1  0  0  0  0
 18 13  1  0  0  0  0
 19  8  2  0  0  0  0
 20 16  1  0  0  0  0
 21 24  2  0  0  0  0
 21 26  1  0  0  0  0
 22 21  1  0  0  0  0
 23 25  1  0  0  0  0
 23 15  1  0  0  0  0
 24 28  1  0  0  0  0
 26 23  2  0  0  0  0
 27 26  1  0  0  0  0
 28 30  1  0  0  0  0
 28 25  2  0  0  0  0
 30 29  2  0  0  0  0
 32 31  1  0  0  0  0
M  END
>  <MODEL>
3

>  <REMARK>
 VINA RESULT:      -7.3      2.505      6.847
  Name = 
  3 active torsions:
  status: ('A' for Active; 'I' for Inactive)
    1  A    between atoms: C_13  and  C_29
    2  A    between atoms: C_15  and  C_26
    3  A    between atoms: C_16  and  C_27
                            x       y       z     vdW  Elec       q    Type
                         _______ _______ _______ _____ _____    ______ ____

>  <TORSDO>
F 3

$$$$
=
 OpenBabel11062408253D

 32 37  0  0  1  0  0  0  0  0999 V2000
  160.7370  208.7590  153.0040 C   0  0  1  0  0  3  0  0  0  0  0  0
  160.8980  211.2730  152.4220 C   0  0  2  0  0  3  0  0  0  0  0  0
  160.7320  207.7520  154.1530 C   0  0  0  0  0  2  0  0  0  0  0  0
  160.8440  210.1970  153.5450 C   0  0  1  0  0  3  0  0  0  0  0  0
  159.7850  212.2450  152.4170 N   0  0  2  0  0  0  0  0  0  0  0  0
  161.5180  212.3030  147.6440 C   0  0  0  0  0  3  0  0  0  0  0  0
  161.0130  210.6350  151.0300 C   0  0  2  0  0  3  0  0  0  0  0  0
  160.6590  213.9470  149.2010 C   0  0  0  0  0  3  0  0  0  0  0  0
  160.6480  212.9870  150.2170 C   0  0  0  0  0  0  0  0  0  0  0  0
  159.8110  210.4480  154.6140 C   0  0  0  0  0  0  0  0  0  0  0  0
  160.2360  213.3900  151.6080 C   0  0  0  0  0  2  0  0  0  0  0  0
  159.2180  211.6350  154.7310 C   0  0  0  0  0  3  0  0  0  0  0  0
  159.5760  209.4010  155.6630 C   0  0  0  0  0  2  0  0  0  0  0  0
  162.1540  209.6190  151.0250 C   0  0  0  0  0  2  0  0  0  0  0  0
  161.8580  208.4540  151.9890 C   0  0  2  0  0  3  0  0  0  0  0  0
  161.1180  211.6840  149.9580 C   0  0  0  0  0  0  0  0  0  0  0  0
  159.5370  212.7510  153.7790 C   0  0  2  0  0  3  0  0  0  0  0  0
  159.5150  208.0070  155.0390 C   0  0  0  0  0  2  0  0  0  0  0  0
  161.0900  213.6050  147.9160 C   0  0  0  0  0  3  0  0  0  0  0  0
  161.5220  211.3420  148.6600 C   0  0  0  0  0  3  0  0  0  0  0  0
  161.4280  204.7720  151.0770 C   0  0  0  0  0  0  0  0  0  0  0  0
  161.5630  203.4140  151.6760 C   0  0  0  0  0  1  0  0  0  0  0  0
  161.5690  207.1970  151.2160 C   0  0  0  0  0  0  0  0  0  0  0  0
  161.0140  204.8770  149.7480 C   0  0  0  0  0  3  0  0  0  0  0  0
  161.1490  207.2830  149.8800 C   0  0  0  0  0  3  0  0  0  0  0  0
  161.7100  205.9330  151.8210 C   0  0  0  0  0  0  0  0  0  0  0  0
  162.2320  205.8060  153.5040 Cl  0  0  0  0  0  0  0  0  0  0  0  0
  160.8720  206.1300  149.1450 C   0  0  0  0  0  0  0  0  0  0  0  0
  161.2420  206.6020  146.8460 O   0  0  0  0  0  0  0  0  0  0  0  0
  160.4370  206.2570  147.7520 C   0  0  0  0  0  3  0  0  0  0  0  0
  158.4040  213.7860  153.8140 C   0  0  0  0  0  2  0  0  0  0  0  0
  157.0290  213.1370  153.7850 C   0  0  0  0  0  1  0  0  0  0  0  0
  1  4  1  0  0  0  0
  1  3  1  1  0  0  0
  2  4  1  0  0  0  0
  3 18  1  0  0  0  0
  4 10  1  0  0  0  0
  5  2  1  0  0  0  0
  5 17  1  0  0  0  0
  6 19  2  0  0  0  0
  6 20  1  0  0  0  0
  7  2  1  0  0  0  0
  8  9  2  0  0  0  0
  9 11  1  0  0  0  0
 10 12  2  0  0  0  0
 10 13  1  0  0  0  0
 11  5  1  0  0  0  0
 14  7  1  0  0  0  0
 14 15  1  0  0  0  0
 15  1  1  0  0  0  0
 16  9  1  0  0  0  0
 16  7  1  0  0  0  0
 17 31  1  0  0  0  0
 17 12  1  0  0  0  0
 18 13  1  0  0  0  0
 19  8  1  0  0  0  0
 20 16  2  0  0  0  0
 21 22  1  0  0  0  0
 21 26  1  0  0  0  0
 23 26  2  0  0  0  0
 23 15  1  0  0  0  0
 24 21  2  0  0  0  0
 25 23  1  0  0  0  0
 26 27  1  0  0  0  0
 28 24  1  0  0  0  0
 28 25  2  0  0  0  0
 29 30  2  0  0  0  0
 30 28  1  0  0  0  0
 32 31  1  0  0  0  0
M  END
>  <MODEL>
4

>  <REMARK>
 VINA RESULT:      -6.9      2.709      7.457
  Name = 
  3 active torsions:
  status: ('A' for Active; 'I' for Inactive)
    1  A    between atoms: C_13  and  C_29
    2  A    between atoms: C_15  and  C_26
    3  A    between atoms: C_16  and  C_27
                            x       y       z     vdW  Elec       q    Type
                         _______ _______ _______ _____ _____    ______ ____

>  <TORSDO>
F 3

$$$$
=
 OpenBabel11062408253D

 32 37  0  0  1  0  0  0  0  0999 V2000
  161.2540  208.0220  152.4610 C   0  0  1  0  0  3  0  0  0  0  0  0
  161.2730  210.5970  152.2220 C   0  0  2  0  0  3  0  0  0  0  0  0
  161.4330  206.8680  153.4460 C   0  0  0  0  0  2  0  0  0  0  0  0
  161.4010  209.3760  153.1790 C   0  0  1  0  0  3  0  0  0  0  0  0
  160.1480  211.5110  152.5040 N   0  0  2  0  0  0  0  0  0  0  0  0
  161.1940  212.2930  147.5970 C   0  0  0  0  0  3  0  0  0  0  0  0
  161.2060  210.1590  150.7510 C   0  0  2  0  0  3  0  0  0  0  0  0
  160.5230  213.6710  149.4720 C   0  0  0  0  0  3  0  0  0  0  0  0
  160.6760  212.5830  150.3350 C   0  0  0  0  0  0  0  0  0  0  0  0
  160.5230  209.4350  154.4030 C   0  0  0  0  0  0  0  0  0  0  0  0
  160.4550  212.7740  151.8110 C   0  0  0  0  0  2  0  0  0  0  0  0
  159.9250  210.5680  154.7640 C   0  0  0  0  0  3  0  0  0  0  0  0
  160.4620  208.2450  155.3160 C   0  0  0  0  0  2  0  0  0  0  0  0
  162.3590  209.2030  150.4490 C   0  0  0  0  0  2  0  0  0  0  0  0
  162.2280  207.9050  151.2700 C   0  0  2  0  0  3  0  0  0  0  0  0
  161.1360  211.3480  149.8340 C   0  0  0  0  0  0  0  0  0  0  0  0
  160.0810  211.8160  153.9450 C   0  0  2  0  0  3  0  0  0  0  0  0
  160.3470  206.9480  154.5160 C   0  0  0  0  0  2  0  0  0  0  0  0
  160.7780  213.5270  148.1050 C   0  0  0  0  0  3  0  0  0  0  0  0
  161.3630  211.2040  148.4570 C   0  0  0  0  0  3  0  0  0  0  0  0
  161.6980  205.7500  148.1650 C   0  0  0  0  0  0  0  0  0  0  0  0
  161.8720  205.7990  146.6860 C   0  0  0  0  0  1  0  0  0  0  0  0
  161.8630  206.7550  150.3750 C   0  0  0  0  0  0  0  0  0  0  0  0
  161.1790  204.5870  148.7380 C   0  0  0  0  0  3  0  0  0  0  0  0
  161.3420  205.5780  150.9330 C   0  0  0  0  0  3  0  0  0  0  0  0
  162.0440  206.8440  148.9810 C   0  0  0  0  0  0  0  0  0  0  0  0
  162.7040  208.3160  148.2620 Cl  0  0  0  0  0  0  0  0  0  0  0  0
  160.9980  204.4960  150.1210 C   0  0  0  0  0  0  0  0  0  0  0  0
  160.6600  202.1470  150.2320 O   0  0  0  0  0  0  0  0  0  0  0  0
  160.4560  203.2830  150.7370 C   0  0  0  0  0  3  0  0  0  0  0  0
  158.9410  212.7870  154.2790 C   0  0  0  0  0  2  0  0  0  0  0  0
  159.1870  213.5410  155.5770 C   0  0  0  0  0  1  0  0  0  0  0  0
  1  4  1  0  0  0  0
  1  3  1  1  0  0  0
  2  5  1  0  0  0  0
  2  4  1  0  0  0  0
  3 18  1  0  0  0  0
  4 10  1  0  0  0  0
  5 17  1  0  0  0  0
  6 19  2  0  0  0  0
  6 20  1  0  0  0  0
  7  2  1  0  0  0  0
  8  9  2  0  0  0  0
  9 11  1  0  0  0  0
 10 12  2  0  0  0  0
 10 13  1  0  0  0  0
 11  5  1  0  0  0  0
 14  7  1  0  0  0  0
 14 15  1  0  0  0  0
 15  1  1  0  0  0  0
 16  9  1  0  0  0  0
 16  7  1  0  0  0  0
 17 31  1  0  0  0  0
 17 12  1  0  0  0  0
 18 13  1  0  0  0  0
 19  8  1  0  0  0  0
 20 16  2  0  0  0  0
 21 24  2  0  0  0  0
 21 26  1  0  0  0  0
 22 21  1  0  0  0  0
 23 25  1  0  0  0  0
 23 15  1  0  0  0  0
 24 28  1  0  0  0  0
 26 23  2  0  0  0  0
 27 26  1  0  0  0  0
 28 30  1  0  0  0  0
 28 25  2  0  0  0  0
 29 30  2  0  0  0  0
 31 32  1  0  0  0  0
M  END
>  <MODEL>
5

>  <REMARK>
 VINA RESULT:      -6.5      2.648      7.155
  Name = 
  3 active torsions:
  status: ('A' for Active; 'I' for Inactive)
    1  A    between atoms: C_13  and  C_29
    2  A    between atoms: C_15  and  C_26
    3  A    between atoms: C_16  and  C_27
                            x       y       z     vdW  Elec       q    Type
                         _______ _______ _______ _____ _____    ______ ____

>  <TORSDO>
F 3

$$$$
=
 OpenBabel11062408253D

 32 37  0  0  1  0  0  0  0  0999 V2000
  161.6560  208.8740  150.0850 C   0  0  1  0  0  3  0  0  0  0  0  0
  161.8620  207.4240  152.2160 C   0  0  2  0  0  3  0  0  0  0  0  0
  162.0380  208.9670  148.6090 C   0  0  0  0  0  2  0  0  0  0  0  0
  162.1800  207.5620  150.6990 C   0  0  1  0  0  3  0  0  0  0  0  0
  161.0020  206.2800  152.5840 N   0  0  2  0  0  0  0  0  0  0  0  0
  160.3910  209.5810  156.3940 C   0  0  0  0  0  3  0  0  0  0  0  0
  161.2530  208.7130  152.7870 C   0  0  2  0  0  3  0  0  0  0  0  0
  160.5450  207.1730  156.1890 C   0  0  0  0  0  3  0  0  0  0  0  0
  160.8690  207.3030  154.8350 C   0  0  0  0  0  0  0  0  0  0  0  0
  161.7810  206.3770  149.8560 C   0  0  0  0  0  0  0  0  0  0  0  0
  161.1840  206.0710  154.0310 C   0  0  0  0  0  2  0  0  0  0  0  0
  161.4630  205.2120  150.4170 C   0  0  0  0  0  3  0  0  0  0  0  0
  161.9100  206.4650  148.3630 C   0  0  0  0  0  2  0  0  0  0  0  0
  162.1280  209.9050  152.4040 C   0  0  0  0  0  2  0  0  0  0  0  0
  162.1490  210.1030  150.8750 C   0  0  2  0  0  3  0  0  0  0  0  0
  160.9990  208.5850  154.2630 C   0  0  0  0  0  0  0  0  0  0  0  0
  161.4610  205.0520  151.9100 C   0  0  2  0  0  3  0  0  0  0  0  0
  161.3950  207.8090  147.8490 C   0  0  0  0  0  2  0  0  0  0  0  0
  160.3040  208.3090  156.9660 C   0  0  0  0  0  3  0  0  0  0  0  0
  160.7280  209.7190  155.0430 C   0  0  0  0  0  3  0  0  0  0  0  0
  159.5180  212.8680  150.8250 C   0  0  0  0  0  0  0  0  0  0  0  0
  158.2780  213.2910  151.5350 C   0  0  0  0  0  1  0  0  0  0  0  0
  161.3830  211.3400  150.4980 C   0  0  0  0  0  0  0  0  0  0  0  0
  159.9860  213.6570  149.7710 C   0  0  0  0  0  3  0  0  0  0  0  0
  161.8390  212.1450  149.4430 C   0  0  0  0  0  3  0  0  0  0  0  0
  160.2150  211.7030  151.1960 C   0  0  0  0  0  0  0  0  0  0  0  0
  159.6300  210.7030  152.5290 Cl  0  0  0  0  0  0  0  0  0  0  0  0
  161.1460  213.3000  149.0770 C   0  0  0  0  0  0  0  0  0  0  0  0
  162.8790  214.3620  147.8470 O   0  0  0  0  0  0  0  0  0  0  0  0
  161.6490  214.1160  147.9710 C   0  0  0  0  0  3  0  0  0  0  0  0
  160.6100  203.8320  152.2870 C   0  0  0  0  0  2  0  0  0  0  0  0
  161.0290  202.5800  151.5310 C   0  0  0  0  0  1  0  0  0  0  0  0
  1  3  1  6  0  0  0
  1  4  1  0  0  0  0
  1 15  1  0  0  0  0
  2  5  1  0  0  0  0
  2  7  1  0  0  0  0
  4  2  1  0  0  0  0
  5 11  1  0  0  0  0
  6 19  1  0  0  0  0
  7 16  1  0  0  0  0
  8 19  2  0  0  0  0
  9  8  1  0  0  0  0
 10 12  2  0  0  0  0
 10  4  1  0  0  0  0
 11  9  1  0  0  0  0
 12 17  1  0  0  0  0
 13 10  1  0  0  0  0
 14  7  1  0  0  0  0
 15 14  1  0  0  0  0
 16  9  2  0  0  0  0
 16 20  1  0  0  0  0
 17 31  1  0  0  0  0
 17  5  1  0  0  0  0
 18 13  1  0  0  0  0
 18  3  1  0  0  0  0
 20  6  2  0  0  0  0
 21 26  1  0  0  0  0
 21 22  1  0  0  0  0
 23 15  1  0  0  0  0
 23 26  2  0  0  0  0
 24 21  2  0  0  0  0
 25 23  1  0  0  0  0
 26 27  1  0  0  0  0
 28 25  2  0  0  0  0
 28 24  1  0  0  0  0
 29 30  2  0  0  0  0
 30 28  1  0  0  0  0
 32 31  1  0  0  0  0
M  END
>  <MODEL>
6

>  <REMARK>
 VINA RESULT:      -6.5      1.603      2.201
  Name = 
  3 active torsions:
  status: ('A' for Active; 'I' for Inactive)
    1  A    between atoms: C_13  and  C_29
    2  A    between atoms: C_15  and  C_26
    3  A    between atoms: C_16  and  C_27
                            x       y       z     vdW  Elec       q    Type
                         _______ _______ _______ _____ _____    ______ ____

>  <TORSDO>
F 3

$$$$
=
 OpenBabel11062408253D

 32 37  0  0  1  0  0  0  0  0999 V2000
  158.6290  211.4200  153.8610 C   0  0  1  0  0  3  0  0  0  0  0  0
  159.0200  213.0410  151.8840 C   0  0  2  0  0  3  0  0  0  0  0  0
  157.9380  211.2620  155.2140 C   0  0  0  0  0  2  0  0  0  0  0  0
  158.3090  212.7970  153.2470 C   0  0  1  0  0  3  0  0  0  0  0  0
  158.1230  213.2440  150.7270 N   0  0  2  0  0  0  0  0  0  0  0  0
  162.4850  211.6590  148.6670 C   0  0  0  0  0  3  0  0  0  0  0  0
  160.0170  211.9200  151.5550 C   0  0  2  0  0  3  0  0  0  0  0  0
  160.7670  213.2600  148.0790 C   0  0  0  0  0  3  0  0  0  0  0  0
  160.1540  213.0660  149.3200 C   0  0  0  0  0  0  0  0  0  0  0  0
  156.8240  213.0520  153.2430 C   0  0  0  0  0  0  0  0  0  0  0  0
  158.9380  213.8790  149.6760 C   0  0  0  0  0  2  0  0  0  0  0  0
  156.2430  213.7110  152.2420 C   0  0  0  0  0  3  0  0  0  0  0  0
  156.0200  212.7090  154.4640 C   0  0  0  0  0  2  0  0  0  0  0  0
  160.9420  211.6930  152.7490 C   0  0  0  0  0  2  0  0  0  0  0  0
  160.1510  211.1930  153.9730 C   0  0  2  0  0  3  0  0  0  0  0  0
  160.7340  212.1950  150.2630 C   0  0  0  0  0  0  0  0  0  0  0  0
  157.0470  214.1920  151.0690 C   0  0  2  0  0  3  0  0  0  0  0  0
  156.4260  211.3440  155.0190 C   0  0  0  0  0  2  0  0  0  0  0  0
  161.9290  212.5560  147.7520 C   0  0  0  0  0  3  0  0  0  0  0  0
  161.8840  211.4700  149.9160 C   0  0  0  0  0  3  0  0  0  0  0  0
  160.8850  207.9210  155.7970 C   0  0  0  0  0  0  0  0  0  0  0  0
  161.0240  207.3790  157.1790 C   0  0  0  0  0  1  0  0  0  0  0  0
  160.4690  209.7490  154.2460 C   0  0  0  0  0  0  0  0  0  0  0  0
  161.0550  207.0510  154.7190 C   0  0  0  0  0  3  0  0  0  0  0  0
  160.6410  208.8600  153.1750 C   0  0  0  0  0  3  0  0  0  0  0  0
  160.5910  209.2790  155.5680 C   0  0  0  0  0  0  0  0  0  0  0  0
  160.3720  210.3830  156.9290 Cl  0  0  0  0  0  0  0  0  0  0  0  0
  160.9340  207.5150  153.4050 C   0  0  0  0  0  0  0  0  0  0  0  0
  161.2030  205.3690  152.4230 O   0  0  0  0  0  0  0  0  0  0  0  0
  161.1090  206.6150  152.2640 C   0  0  0  0  0  3  0  0  0  0  0  0
  156.1070  214.4530  149.8840 C   0  0  0  0  0  2  0  0  0  0  0  0
  154.6420  214.4140  150.2910 C   0  0  0  0  0  1  0  0  0  0  0  0
  1 15  1  0  0  0  0
  1  3  1  1  0  0  0
  2  4  1  0  0  0  0
  4  1  1  0  0  0  0
  5 17  1  0  0  0  0
  5  2  1  0  0  0  0
  6 20  1  0  0  0  0
  7  2  1  0  0  0  0
  7 14  1  0  0  0  0
  8  9  2  0  0  0  0
  9 11  1  0  0  0  0
  9 16  1  0  0  0  0
 10  4  1  0  0  0  0
 10 13  1  0  0  0  0
 11  5  1  0  0  0  0
 12 10  2  0  0  0  0
 13 18  1  0  0  0  0
 14 15  1  0  0  0  0
 15 23  1  0  0  0  0
 16  7  1  0  0  0  0
 17 12  1  0  0  0  0
 18  3  1  0  0  0  0
 19  8  1  0  0  0  0
 19  6  2  0  0  0  0
 20 16  2  0  0  0  0
 21 22  1  0  0  0  0
 23 26  2  0  0  0  0
 24 21  2  0  0  0  0
 25 28  2  0  0  0  0
 25 23  1  0  0  0  0
 26 21  1  0  0  0  0
 26 27  1  0  0  0  0
 28 24  1  0  0  0  0
 30 29  2  0  0  0  0
 30 28  1  0  0  0  0
 31 32  1  0  0  0  0
 31 17  1  0  0  0  0
M  END
>  <MODEL>
7

>  <REMARK>
 VINA RESULT:      -6.3      3.132      8.182
  Name = 
  3 active torsions:
  status: ('A' for Active; 'I' for Inactive)
    1  A    between atoms: C_13  and  C_29
    2  A    between atoms: C_15  and  C_26
    3  A    between atoms: C_16  and  C_27
                            x       y       z     vdW  Elec       q    Type
                         _______ _______ _______ _____ _____    ______ ____

>  <TORSDO>
F 3

$$$$
=
 OpenBabel11062408253D

 32 37  0  0  1  0  0  0  0  0999 V2000
  161.5230  210.2400  151.0740 C   0  0  1  0  0  3  0  0  0  0  0  0
  162.0730  207.8220  150.3380 C   0  0  2  0  0  3  0  0  0  0  0  0
  161.7660  211.7150  150.7610 C   0  0  0  0  0  2  0  0  0  0  0  0
  162.2430  209.3420  150.0500 C   0  0  1  0  0  3  0  0  0  0  0  0
  161.3830  207.0490  149.2850 N   0  0  2  0  0  0  0  0  0  0  0  0
  160.7260  204.2900  153.4960 C   0  0  0  0  0  3  0  0  0  0  0  0
  161.3720  207.5750  151.6820 C   0  0  2  0  0  3  0  0  0  0  0  0
  161.1350  203.8180  151.1570 C   0  0  0  0  0  3  0  0  0  0  0  0
  161.3260  205.1810  150.9100 C   0  0  0  0  0  0  0  0  0  0  0  0
  161.9120  209.7620  148.6410 C   0  0  0  0  0  0  0  0  0  0  0  0
  161.7100  205.6330  149.5260 C   0  0  0  0  0  2  0  0  0  0  0  0
  161.7770  208.8610  147.6700 C   0  0  0  0  0  3  0  0  0  0  0  0
  161.9040  211.2230  148.2960 C   0  0  0  0  0  2  0  0  0  0  0  0
  162.0700  208.3780  152.7780 C   0  0  0  0  0  2  0  0  0  0  0  0
  161.9400  209.8920  152.5190 C   0  0  2  0  0  3  0  0  0  0  0  0
  161.2610  206.1040  151.9730 C   0  0  0  0  0  0  0  0  0  0  0  0
  161.9200  207.3950  147.9560 C   0  0  2  0  0  3  0  0  0  0  0  0
  161.1970  212.0360  149.3810 C   0  0  0  0  0  2  0  0  0  0  0  0
  160.8330  203.3740  152.4470 C   0  0  0  0  0  3  0  0  0  0  0  0
  160.9290  205.6530  153.2590 C   0  0  0  0  0  3  0  0  0  0  0  0
  160.5890  211.5070  155.7030 C   0  0  0  0  0  0  0  0  0  0  0  0
  161.0440  211.9520  157.0510 C   0  0  0  0  0  1  0  0  0  0  0  0
  161.0090  210.5150  153.5210 C   0  0  0  0  0  0  0  0  0  0  0  0
  159.2470  211.6800  155.3610 C   0  0  0  0  0  3  0  0  0  0  0  0
  159.6570  210.6990  153.1940 C   0  0  0  0  0  3  0  0  0  0  0  0
  161.4810  210.9220  154.7840 C   0  0  0  0  0  0  0  0  0  0  0  0
  163.1810  210.7030  155.2110 Cl  0  0  0  0  0  0  0  0  0  0  0  0
  158.7750  211.2780  154.1080 C   0  0  0  0  0  0  0  0  0  0  0  0
  156.4560  211.4290  154.6000 O   0  0  0  0  0  0  0  0  0  0  0  0
  157.3710  211.4540  153.7340 C   0  0  0  0  0  3  0  0  0  0  0  0
  161.2480  206.5920  146.8340 C   0  0  0  0  0  2  0  0  0  0  0  0
  162.2560  205.8280  145.9880 C   0  0  0  0  0  1  0  0  0  0  0  0
  1  3  1  6  0  0  0
  1 15  1  0  0  0  0
  2  7  1  0  0  0  0
  4  2  1  0  0  0  0
  4  1  1  0  0  0  0
  5 11  1  0  0  0  0
  5  2  1  0  0  0  0
  7 16  1  0  0  0  0
  7 14  1  0  0  0  0
  8 19  1  0  0  0  0
  9  8  2  0  0  0  0
  9 16  1  0  0  0  0
 10  4  1  0  0  0  0
 11  9  1  0  0  0  0
 12 17  1  0  0  0  0
 12 10  2  0  0  0  0
 13 10  1  0  0  0  0
 13 18  1  0  0  0  0
 15 14  1  0  0  0  0
 15 23  1  0  0  0  0
 16 20  2  0  0  0  0
 17  5  1  0  0  0  0
 18  3  1  0  0  0  0
 19  6  2  0  0  0  0
 20  6  1  0  0  0  0
 21 22  1  0  0  0  0
 23 26  1  0  0  0  0
 24 21  1  0  0  0  0
 25 23  2  0  0  0  0
 25 28  1  0  0  0  0
 26 27  1  0  0  0  0
 26 21  2  0  0  0  0
 28 24  2  0  0  0  0
 30 28  1  0  0  0  0
 30 29  2  0  0  0  0
 31 17  1  0  0  0  0
 32 31  1  0  0  0  0
M  END
>  <MODEL>
8

>  <REMARK>
 VINA RESULT:      -6.3      2.128      4.642
  Name = 
  3 active torsions:
  status: ('A' for Active; 'I' for Inactive)
    1  A    between atoms: C_13  and  C_29
    2  A    between atoms: C_15  and  C_26
    3  A    between atoms: C_16  and  C_27
                            x       y       z     vdW  Elec       q    Type
                         _______ _______ _______ _____ _____    ______ ____

>  <TORSDO>
F 3

$$$$
=
 OpenBabel11062408253D

 32 37  0  0  1  0  0  0  0  0999 V2000
  160.4680  212.0350  150.7450 C   0  0  1  0  0  3  0  0  0  0  0  0
  161.7020  209.8270  151.2840 C   0  0  2  0  0  3  0  0  0  0  0  0
  160.5030  213.2920  149.8780 C   0  0  0  0  0  2  0  0  0  0  0  0
  161.6520  211.1090  150.4040 C   0  0  1  0  0  3  0  0  0  0  0  0
  161.5700  208.5490  150.5540 N   0  0  2  0  0  0  0  0  0  0  0  0
  160.1110  207.4390  155.2890 C   0  0  0  0  0  3  0  0  0  0  0  0
  160.6570  209.8700  152.4100 C   0  0  2  0  0  3  0  0  0  0  0  0
  161.3610  206.3130  153.5480 C   0  0  0  0  0  3  0  0  0  0  0  0
  161.3480  207.4790  152.7770 C   0  0  0  0  0  0  0  0  0  0  0  0
  161.7330  210.8640  148.9190 C   0  0  0  0  0  0  0  0  0  0  0  0
  162.0730  207.5000  151.4580 C   0  0  0  0  0  2  0  0  0  0  0  0
  162.1120  209.6810  148.4390 C   0  0  0  0  0  3  0  0  0  0  0  0
  161.5490  212.0170  147.9770 C   0  0  0  0  0  2  0  0  0  0  0  0
  160.7750  211.1920  153.1660 C   0  0  0  0  0  2  0  0  0  0  0  0
  160.4400  212.3840  152.2470 C   0  0  2  0  0  3  0  0  0  0  0  0
  160.7500  208.6510  153.2840 C   0  0  0  0  0  0  0  0  0  0  0  0
  162.4390  208.5440  149.3640 C   0  0  2  0  0  3  0  0  0  0  0  0
  160.3750  212.8940  148.4100 C   0  0  0  0  0  2  0  0  0  0  0  0
  160.7410  206.2920  154.8000 C   0  0  0  0  0  3  0  0  0  0  0  0
  160.1060  208.6120  154.5290 C   0  0  0  0  0  3  0  0  0  0  0  0
  157.5690  213.7800  154.3410 C   0  0  0  0  0  0  0  0  0  0  0  0
  157.1920  214.0210  155.7620 C   0  0  0  0  0  1  0  0  0  0  0  0
  159.1240  212.9940  152.6420 C   0  0  0  0  0  0  0  0  0  0  0  0
  156.6650  214.1400  153.3400 C   0  0  0  0  0  3  0  0  0  0  0  0
  158.2030  213.3620  151.6500 C   0  0  0  0  0  3  0  0  0  0  0  0
  158.8070  213.2040  153.9980 C   0  0  0  0  0  0  0  0  0  0  0  0
  159.9560  212.7500  155.2610 Cl  0  0  0  0  0  0  0  0  0  0  0  0
  156.9760  213.9330  151.9930 C   0  0  0  0  0  0  0  0  0  0  0  0
  156.0780  213.7500  149.8010 O   0  0  0  0  0  0  0  0  0  0  0  0
  156.0390  214.3050  150.9320 C   0  0  0  0  0  3  0  0  0  0  0  0
  162.3550  207.2220  148.5900 C   0  0  0  0  0  2  0  0  0  0  0  0
  160.9260  206.8730  148.1980 C   0  0  0  0  0  1  0  0  0  0  0  0
  1  3  1  6  0  0  0
  1 15  1  0  0  0  0
  2  7  1  0  0  0  0
  4  1  1  0  0  0  0
  4  2  1  0  0  0  0
  5  2  1  0  0  0  0
  5 11  1  0  0  0  0
  7 14  1  0  0  0  0
  7 16  1  0  0  0  0
  8 19  2  0  0  0  0
  9 16  2  0  0  0  0
  9  8  1  0  0  0  0
 10  4  1  0  0  0  0
 11  9  1  0  0  0  0
 12 10  2  0  0  0  0
 12 17  1  0  0  0  0
 13 18  1  0  0  0  0
 13 10  1  0  0  0  0
 15 23  1  0  0  0  0
 15 14  1  0  0  0  0
 16 20  1  0  0  0  0
 17  5  1  0  0  0  0
 18  3  1  0  0  0  0
 19  6  1  0  0  0  0
 20  6  2  0  0  0  0
 21 22  1  0  0  0  0
 23 26  2  0  0  0  0
 24 21  2  0  0  0  0
 25 28  2  0  0  0  0
 25 23  1  0  0  0  0
 26 21  1  0  0  0  0
 26 27  1  0  0  0  0
 28 24  1  0  0  0  0
 29 30  2  0  0  0  0
 30 28  1  0  0  0  0
 31 17  1  0  0  0  0
 32 31  1  0  0  0  0
M  END
>  <MODEL>
9

>  <REMARK>
 VINA RESULT:      -6.0      2.154      4.167
  Name = 
  3 active torsions:
  status: ('A' for Active; 'I' for Inactive)
    1  A    between atoms: C_13  and  C_29
    2  A    between atoms: C_15  and  C_26
    3  A    between atoms: C_16  and  C_27
                            x       y       z     vdW  Elec       q    Type
                         _______ _______ _______ _____ _____    ______ ____

>  <TORSDO>
F 3

$$$$
