=
 OpenBabel11062410393D

 32 37  0  0  1  0  0  0  0  0999 V2000
  160.8910  202.9960  147.1420 C   0  0  0  0  0  2  0  0  0  0  0  0
  161.3320  206.3790  150.9280 C   0  0  0  0  0  0  0  0  0  0  0  0
  161.6530  210.5500  148.3990 O   0  0  0  0  0  0  0  0  0  0  0  0
  162.3430  211.2000  149.4360 C   0  0  0  0  0  2  0  0  0  0  0  0
  160.9360  206.4380  153.4060 C   0  0  0  0  0  0  0  0  0  0  0  0
  160.8590  207.2320  154.4720 C   0  0  0  0  0  0  0  0  0  0  0  0
  161.2860  204.2610  149.7100 C   0  0  0  0  0  0  0  0  0  0  0  0
  161.7370  206.3220  148.4690 C   0  0  0  0  0  3  0  0  0  0  0  0
  160.8890  209.2190  155.7730 C   0  0  1  0  0  3  0  0  0  0  0  0
  161.7820  204.2380  147.1800 C   0  0  0  0  0  2  0  0  0  0  0  0
  162.1220  209.2240  148.3860 C   0  0  0  0  0  2  0  0  0  0  0  0
  161.6090  207.0740  149.6900 N   0  0  0  0  0  0  0  0  0  0  0  0
  161.7620  208.5040  149.6680 C   0  0  0  0  0  0  0  0  0  0  0  0
  161.3980  208.5220  152.0480 N   0  0  0  0  0  0  0  0  0  0  0  0
  160.5780  207.9770  156.6410 C   0  0  0  0  0  2  0  0  0  0  0  0
  161.1190  202.8000  149.6310 C   0  0  0  0  0  0  0  0  0  0  0  0
  161.5730  204.9980  148.4560 C   0  0  0  0  0  0  0  0  0  0  0  0
  160.5970  206.8440  155.7680 O   0  0  0  0  0  0  0  0  0  0  0  0
  161.0230  202.1050  150.6800 O   0  0  0  0  0  0  0  0  0  0  0  0
  161.0900  202.1780  148.3370 N   0  0  0  0  0  0  0  0  0  0  0  0
  161.8090  210.7140  150.7860 C   0  0  0  0  0  2  0  0  0  0  0  0
  161.6810  209.2060  150.8120 C   0  0  0  0  0  0  0  0  0  0  0  0
  161.2930  209.2830  153.2700 C   0  0  0  0  0  3  0  0  0  0  0  0
  161.1750  204.9120  150.8720 C   0  0  0  0  0  3  0  0  0  0  0  0
  160.7460  205.0680  153.5580 O   0  0  0  0  0  1  0  0  0  0  0  0
  162.0960  209.7830  156.1870 O   0  0  0  0  0  1  0  0  0  0  0  0
  161.2260  207.0760  152.0800 C   0  0  0  0  0  0  0  0  0  0  0  0
  161.0410  208.6480  154.4110 C   0  0  0  0  0  0  0  0  0  0  0  0
  161.1760  200.7300  148.1970 C   0  0  0  0  0  2  0  0  0  0  0  0
  161.1060  200.3440  146.7590 C   0  0  0  0  0  0  0  0  0  0  0  0
  160.4680  201.1740  145.8470 O   0  0  0  0  0  0  0  0  0  0  0  0
  161.6580  199.2850  146.3650 O   0  0  0  0  0  1  0  0  0  0  0  0
  1 10  1  0  0  0  0
  1 20  1  0  0  0  0
  2 27  2  0  0  0  0
  3  4  1  0  0  0  0
  4 21  1  0  0  0  0
  5 25  1  0  0  0  0
  5  6  2  0  0  0  0
  6 18  1  0  0  0  0
  7 24  2  0  0  0  0
  8 12  1  0  0  0  0
  9 26  1  1  0  0  0
  9 15  1  0  0  0  0
 10 17  1  0  0  0  0
 11  3  1  0  0  0  0
 11 13  1  0  0  0  0
 12  2  1  0  0  0  0
 13 12  1  0  0  0  0
 13 22  2  0  0  0  0
 14 27  1  0  0  0  0
 14 23  1  0  0  0  0
 16  7  1  0  0  0  0
 16 19  2  0  0  0  0
 17  8  2  0  0  0  0
 17  7  1  0  0  0  0
 18 15  1  0  0  0  0
 20 16  1  0  0  0  0
 21 22  1  0  0  0  0
 22 14  1  0  0  0  0
 23 28  2  0  0  0  0
 24  2  1  0  0  0  0
 27  5  1  0  0  0  0
 28  6  1  0  0  0  0
 28  9  1  0  0  0  0
 29 20  1  0  0  0  0
 30 29  1  0  0  0  0
 31 30  2  0  0  0  0
 32 30  1  0  0  0  0
M  END
>  <MODEL>
1

>  <REMARK>
 VINA RESULT:     -10.0      0.000      0.000
  Name = 
  2 active torsions:
  status: ('A' for Active; 'I' for Inactive)
    1  A    between atoms: C_1  and  C_10
    2  A    between atoms: C_10  and  N_24
                            x       y       z     vdW  Elec       q    Type
                         _______ _______ _______ _____ _____    ______ ____

>  <TORSDO>
F 2

$$$$
=
 OpenBabel11062410393D

 32 37  0  0  1  0  0  0  0  0999 V2000
  160.4790  208.7130  154.8230 C   0  0  0  0  0  2  0  0  0  0  0  0
  161.1080  206.1960  150.4370 C   0  0  0  0  0  0  0  0  0  0  0  0
  160.4420  201.5860  151.9200 O   0  0  0  0  0  0  0  0  0  0  0  0
  161.2060  201.0680  150.8610 C   0  0  0  0  0  2  0  0  0  0  0  0
  161.1360  206.7370  147.9850 C   0  0  0  0  0  0  0  0  0  0  0  0
  161.1370  206.2140  146.7610 C   0  0  0  0  0  0  0  0  0  0  0  0
  161.1350  207.9800  152.1050 C   0  0  0  0  0  0  0  0  0  0  0  0
  161.0920  205.6560  152.8690 C   0  0  0  0  0  3  0  0  0  0  0  0
  161.1250  204.5760  145.0400 C   0  0  1  0  0  3  0  0  0  0  0  0
  161.1920  207.3770  154.6110 C   0  0  0  0  0  2  0  0  0  0  0  0
  161.0720  202.7810  152.3110 C   0  0  0  0  0  2  0  0  0  0  0  0
  161.0760  205.2150  151.4990 N   0  0  0  0  0  0  0  0  0  0  0  0
  161.0330  203.8090  151.2010 C   0  0  0  0  0  0  0  0  0  0  0  0
  161.0810  204.3630  148.8580 N   0  0  0  0  0  0  0  0  0  0  0  0
  161.1330  206.0100  144.4590 C   0  0  0  0  0  2  0  0  0  0  0  0
  161.1510  209.3970  152.5060 C   0  0  0  0  0  0  0  0  0  0  0  0
  161.1050  206.9550  153.1750 C   0  0  0  0  0  0  0  0  0  0  0  0
  161.1530  206.9090  145.5710 O   0  0  0  0  0  0  0  0  0  0  0  0
  161.3270  210.3070  151.6490 O   0  0  0  0  0  0  0  0  0  0  0  0
  160.9850  209.7230  153.8950 N   0  0  0  0  0  0  0  0  0  0  0  0
  160.9780  201.9140  149.6070 C   0  0  0  0  0  2  0  0  0  0  0  0
  161.0560  203.3920  149.9220 C   0  0  0  0  0  0  0  0  0  0  0  0
  161.0850  203.9100  147.4870 C   0  0  0  0  0  3  0  0  0  0  0  0
  161.1380  207.6220  150.8180 C   0  0  0  0  0  3  0  0  0  0  0  0
  161.1560  208.1200  148.1390 O   0  0  0  0  0  1  0  0  0  0  0  0
  162.3000  203.9200  144.6720 O   0  0  0  0  0  1  0  0  0  0  0  0
  161.1080  205.7900  149.1480 C   0  0  0  0  0  0  0  0  0  0  0  0
  161.1170  204.8080  146.5060 C   0  0  0  0  0  0  0  0  0  0  0  0
  161.2360  211.0720  154.3850 C   0  0  0  0  0  2  0  0  0  0  0  0
  161.9300  211.0220  155.7030 C   0  0  0  0  0  0  0  0  0  0  0  0
  161.2340  211.3160  156.8670 O   0  0  0  0  0  1  0  0  0  0  0  0
  163.1390  210.6770  155.7640 O   0  0  0  0  0  0  0  0  0  0  0  0
  2 24  1  0  0  0  0
  2 12  1  0  0  0  0
  3 11  1  0  0  0  0
  4  3  1  0  0  0  0
  5 25  1  0  0  0  0
  5 27  1  0  0  0  0
  6  5  2  0  0  0  0
  7 16  1  0  0  0  0
  7 17  1  0  0  0  0
  8 17  2  0  0  0  0
  9 26  1  1  0  0  0
  9 28  1  0  0  0  0
 10  1  1  0  0  0  0
 12  8  1  0  0  0  0
 13 12  1  0  0  0  0
 13 11  1  0  0  0  0
 14 27  1  0  0  0  0
 14 22  1  0  0  0  0
 15  9  1  0  0  0  0
 15 18  1  0  0  0  0
 16 20  1  0  0  0  0
 17 10  1  0  0  0  0
 18  6  1  0  0  0  0
 19 16  2  0  0  0  0
 20 29  1  0  0  0  0
 20  1  1  0  0  0  0
 21 22  1  0  0  0  0
 21  4  1  0  0  0  0
 22 13  2  0  0  0  0
 23 14  1  0  0  0  0
 24  7  2  0  0  0  0
 27  2  2  0  0  0  0
 28  6  1  0  0  0  0
 28 23  2  0  0  0  0
 29 30  1  0  0  0  0
 30 32  2  0  0  0  0
 30 31  1  0  0  0  0
M  END
>  <MODEL>
2

>  <REMARK>
 VINA RESULT:      -9.3      2.242      8.831
  Name = 
  2 active torsions:
  status: ('A' for Active; 'I' for Inactive)
    1  A    between atoms: C_1  and  C_10
    2  A    between atoms: C_10  and  N_24
                            x       y       z     vdW  Elec       q    Type
                         _______ _______ _______ _____ _____    ______ ____

>  <TORSDO>
F 2

$$$$
=
 OpenBabel11062410393D

 32 37  0  0  1  0  0  0  0  0999 V2000
  161.6570  202.1340  151.5440 C   0  0  0  0  0  2  0  0  0  0  0  0
  161.3470  207.1980  151.0580 C   0  0  0  0  0  0  0  0  0  0  0  0
  161.2700  208.5670  155.7500 O   0  0  0  0  0  0  0  0  0  0  0  0
  160.6030  209.7680  155.4540 C   0  0  0  0  0  2  0  0  0  0  0  0
  161.7180  208.9060  149.2550 C   0  0  0  0  0  0  0  0  0  0  0  0
  161.8250  210.2080  149.0030 C   0  0  0  0  0  0  0  0  0  0  0  0
  161.2980  204.8140  150.5240 C   0  0  0  0  0  0  0  0  0  0  0  0
  160.9680  205.5050  152.8480 C   0  0  0  0  0  3  0  0  0  0  0  0
  161.8830  212.5520  149.3880 C   0  0  1  0  0  3  0  0  0  0  0  0
  160.8300  203.1010  152.3930 C   0  0  0  0  0  2  0  0  0  0  0  0
  160.7340  207.5960  154.8840 C   0  0  0  0  0  2  0  0  0  0  0  0
  161.1210  206.8810  152.4510 N   0  0  0  0  0  0  0  0  0  0  0  0
  161.0420  207.9230  153.4390 C   0  0  0  0  0  0  0  0  0  0  0  0
  161.3800  209.5350  151.6820 N   0  0  0  0  0  0  0  0  0  0  0  0
  162.1190  212.2150  147.8970 C   0  0  0  0  0  2  0  0  0  0  0  0
  161.3910  203.6800  149.5890 C   0  0  0  0  0  0  0  0  0  0  0  0
  161.0630  204.5170  151.9570 C   0  0  0  0  0  0  0  0  0  0  0  0
  162.0520  210.7910  147.7760 O   0  0  0  0  0  0  0  0  0  0  0  0
  161.4390  203.8760  148.3420 O   0  0  0  0  0  0  0  0  0  0  0  0
  161.4020  202.3460  150.1200 N   0  0  0  0  0  0  0  0  0  0  0  0
  161.0960  210.3060  154.1100 C   0  0  0  0  0  2  0  0  0  0  0  0
  161.1460  209.2110  153.0670 C   0  0  0  0  0  0  0  0  0  0  0  0
  161.5100  210.9180  151.2920 C   0  0  0  0  0  3  0  0  0  0  0  0
  161.4300  206.0750  150.1020 C   0  0  0  0  0  3  0  0  0  0  0  0
  161.8360  207.9940  148.2110 O   0  0  0  0  0  1  0  0  0  0  0  0
  160.7020  213.2830  149.5150 O   0  0  0  0  0  1  0  0  0  0  0  0
  161.4770  208.4870  150.6760 C   0  0  0  0  0  0  0  0  0  0  0  0
  161.7170  211.2150  150.0120 C   0  0  0  0  0  0  0  0  0  0  0  0
  161.2430  201.1890  149.2490 C   0  0  0  0  0  2  0  0  0  0  0  0
  159.9940  201.3150  148.4450 C   0  0  0  0  0  0  0  0  0  0  0  0
  160.0640  201.3950  147.0610 O   0  0  0  0  0  0  0  0  0  0  0  0
  158.8740  201.3120  149.0190 O   0  0  0  0  0  1  0  0  0  0  0  0
  1 10  1  0  0  0  0
  2 12  1  0  0  0  0
  4  3  1  0  0  0  0
  5 27  1  0  0  0  0
  6  5  2  0  0  0  0
  6 28  1  0  0  0  0
  7 17  1  0  0  0  0
  9 26  1  6  0  0  0
  9 28  1  0  0  0  0
 11  3  1  0  0  0  0
 12  8  1  0  0  0  0
 12 13  1  0  0  0  0
 13 11  1  0  0  0  0
 14 22  1  0  0  0  0
 15  9  1  0  0  0  0
 16 20  1  0  0  0  0
 16  7  1  0  0  0  0
 17 10  1  0  0  0  0
 17  8  2  0  0  0  0
 18 15  1  0  0  0  0
 18  6  1  0  0  0  0
 19 16  2  0  0  0  0
 20  1  1  0  0  0  0
 21  4  1  0  0  0  0
 22 13  2  0  0  0  0
 22 21  1  0  0  0  0
 23 14  1  0  0  0  0
 24  7  2  0  0  0  0
 24  2  1  0  0  0  0
 25  5  1  0  0  0  0
 27  2  2  0  0  0  0
 27 14  1  0  0  0  0
 28 23  2  0  0  0  0
 29 20  1  0  0  0  0
 30 32  1  0  0  0  0
 30 29  1  0  0  0  0
 31 30  2  0  0  0  0
M  END
>  <MODEL>
3

>  <REMARK>
 VINA RESULT:      -8.6      1.677      4.819
  Name = 
  2 active torsions:
  status: ('A' for Active; 'I' for Inactive)
    1  A    between atoms: C_1  and  C_10
    2  A    between atoms: C_10  and  N_24
                            x       y       z     vdW  Elec       q    Type
                         _______ _______ _______ _____ _____    ______ ____

>  <TORSDO>
F 2

$$$$
=
 OpenBabel11062410393D

 32 37  0  0  1  0  0  0  0  0999 V2000
  161.2410  204.5560  145.6390 C   0  0  0  0  0  2  0  0  0  0  0  0
  161.4420  207.1450  150.0240 C   0  0  0  0  0  0  0  0  0  0  0  0
  161.5000  211.7450  148.3730 O   0  0  0  0  0  0  0  0  0  0  0  0
  162.1410  212.2190  149.5300 C   0  0  0  0  0  2  0  0  0  0  0  0
  161.0310  206.6870  152.4590 C   0  0  0  0  0  0  0  0  0  0  0  0
  160.8970  207.2480  153.6580 C   0  0  0  0  0  0  0  0  0  0  0  0
  161.5410  205.3110  148.4130 C   0  0  0  0  0  0  0  0  0  0  0  0
  161.8610  207.6010  147.6100 C   0  0  0  0  0  3  0  0  0  0  0  0
  160.7900  208.9380  155.3260 C   0  0  1  0  0  3  0  0  0  0  0  0
  162.0490  205.8200  145.9370 C   0  0  0  0  0  2  0  0  0  0  0  0
  162.0550  210.4800  148.1070 C   0  0  0  0  0  2  0  0  0  0  0  0
  161.6780  208.0870  148.9530 N   0  0  0  0  0  0  0  0  0  0  0  0
  161.7370  209.5000  149.2150 C   0  0  0  0  0  0  0  0  0  0  0  0
  161.3610  209.0240  151.5460 N   0  0  0  0  0  0  0  0  0  0  0  0
  160.5570  207.5300  155.9260 C   0  0  0  0  0  2  0  0  0  0  0  0
  161.4700  203.8870  148.0450 C   0  0  0  0  0  0  0  0  0  0  0  0
  161.7840  206.2970  147.3330 C   0  0  0  0  0  0  0  0  0  0  0  0
  160.6550  206.5970  154.8470 O   0  0  0  0  0  0  0  0  0  0  0  0
  161.4150  202.9940  148.9350 O   0  0  0  0  0  0  0  0  0  0  0  0
  161.4880  203.5320  146.6530 N   0  0  0  0  0  0  0  0  0  0  0  0
  161.6340  211.4430  150.7470 C   0  0  0  0  0  2  0  0  0  0  0  0
  161.6040  209.9560  150.4740 C   0  0  0  0  0  0  0  0  0  0  0  0
  161.2000  209.5200  152.8920 C   0  0  0  0  0  3  0  0  0  0  0  0
  161.3810  205.7110  149.6780 C   0  0  0  0  0  3  0  0  0  0  0  0
  160.9300  205.3050  152.3340 O   0  0  0  0  0  1  0  0  0  0  0  0
  161.9550  209.4830  155.8640 O   0  0  0  0  0  1  0  0  0  0  0  0
  161.2840  207.5920  151.2890 C   0  0  0  0  0  0  0  0  0  0  0  0
  160.9850  208.6580  153.8810 C   0  0  0  0  0  0  0  0  0  0  0  0
  161.6700  202.1490  146.2330 C   0  0  0  0  0  2  0  0  0  0  0  0
  160.3480  201.5060  145.9840 C   0  0  0  0  0  0  0  0  0  0  0  0
  159.9140  201.2920  144.6830 O   0  0  0  0  0  0  0  0  0  0  0  0
  159.6420  201.1250  146.9530 O   0  0  0  0  0  1  0  0  0  0  0  0
  1 10  1  0  0  0  0
  1 20  1  0  0  0  0
  2 27  2  0  0  0  0
  3  4  1  0  0  0  0
  4 21  1  0  0  0  0
  5  6  2  0  0  0  0
  6 28  1  0  0  0  0
  6 18  1  0  0  0  0
  7 24  2  0  0  0  0
  8 12  1  0  0  0  0
  9 26  1  1  0  0  0
  9 15  1  0  0  0  0
 10 17  1  0  0  0  0
 11  3  1  0  0  0  0
 11 13  1  0  0  0  0
 12 13  1  0  0  0  0
 12  2  1  0  0  0  0
 13 22  2  0  0  0  0
 14 23  1  0  0  0  0
 16  7  1  0  0  0  0
 16 19  2  0  0  0  0
 17  8  2  0  0  0  0
 17  7  1  0  0  0  0
 18 15  1  0  0  0  0
 20 16  1  0  0  0  0
 22 21  1  0  0  0  0
 22 14  1  0  0  0  0
 23 28  2  0  0  0  0
 24  2  1  0  0  0  0
 25  5  1  0  0  0  0
 27 14  1  0  0  0  0
 27  5  1  0  0  0  0
 28  9  1  0  0  0  0
 29 20  1  0  0  0  0
 30 29  1  0  0  0  0
 30 32  1  0  0  0  0
 31 30  2  0  0  0  0
M  END
>  <MODEL>
4

>  <REMARK>
 VINA RESULT:      -8.4      1.303      1.446
  Name = 
  2 active torsions:
  status: ('A' for Active; 'I' for Inactive)
    1  A    between atoms: C_1  and  C_10
    2  A    between atoms: C_10  and  N_24
                            x       y       z     vdW  Elec       q    Type
                         _______ _______ _______ _____ _____    ______ ____

>  <TORSDO>
F 2

$$$$
=
 OpenBabel11062410393D

 32 37  0  0  1  0  0  0  0  0999 V2000
  160.9920  203.6230  147.9950 C   0  0  0  0  0  2  0  0  0  0  0  0
  161.2900  207.4460  151.3510 C   0  0  0  0  0  0  0  0  0  0  0  0
  161.4330  211.2980  148.3450 O   0  0  0  0  0  0  0  0  0  0  0  0
  162.0950  212.0950  149.2950 C   0  0  0  0  0  2  0  0  0  0  0  0
  160.8930  207.7820  153.8080 C   0  0  0  0  0  0  0  0  0  0  0  0
  160.7830  208.6920  154.7730 C   0  0  0  0  0  0  0  0  0  0  0  0
  161.3340  205.1990  150.3930 C   0  0  0  0  0  0  0  0  0  0  0  0
  161.6960  207.1160  148.9150 C   0  0  0  0  0  3  0  0  0  0  0  0
  160.7280  210.8200  155.8290 C   0  0  1  0  0  3  0  0  0  0  0  0
  161.8300  204.8980  147.8810 C   0  0  0  0  0  2  0  0  0  0  0  0
  161.9570  210.0000  148.4870 C   0  0  0  0  0  2  0  0  0  0  0  0
  161.5370  208.0010  150.0390 N   0  0  0  0  0  0  0  0  0  0  0  0
  161.6290  209.4230  149.8470 C   0  0  0  0  0  0  0  0  0  0  0  0
  161.2650  209.7080  152.2100 N   0  0  0  0  0  0  0  0  0  0  0  0
  160.4710  209.6760  156.8390 C   0  0  0  0  0  2  0  0  0  0  0  0
  161.2290  203.7340  150.4880 C   0  0  0  0  0  0  0  0  0  0  0  0
  161.5890  205.7930  149.0590 C   0  0  0  0  0  0  0  0  0  0  0  0
  160.5380  208.4510  156.1060 O   0  0  0  0  0  0  0  0  0  0  0  0
  161.1630  203.1640  151.6130 O   0  0  0  0  0  0  0  0  0  0  0  0
  161.2260  202.9610  149.2770 N   0  0  0  0  0  0  0  0  0  0  0  0
  161.5820  211.7500  150.6950 C   0  0  0  0  0  2  0  0  0  0  0  0
  161.5180  210.2520  150.9000 C   0  0  0  0  0  0  0  0  0  0  0  0
  161.1280  210.6030  153.3340 C   0  0  0  0  0  3  0  0  0  0  0  0
  161.1950  205.9780  151.4710 C   0  0  0  0  0  3  0  0  0  0  0  0
  160.7620  206.4330  154.1220 O   0  0  0  0  0  1  0  0  0  0  0  0
  161.9100  211.4780  156.1670 O   0  0  0  0  0  1  0  0  0  0  0  0
  161.1550  208.2700  152.4130 C   0  0  0  0  0  0  0  0  0  0  0  0
  160.9040  210.0980  154.5440 C   0  0  0  0  0  0  0  0  0  0  0  0
  161.3740  201.5120  149.3100 C   0  0  0  0  0  2  0  0  0  0  0  0
  160.5710  200.8860  148.2210 C   0  0  0  0  0  0  0  0  0  0  0  0
  161.2060  200.1950  147.1990 O   0  0  0  0  0  0  0  0  0  0  0  0
  159.3150  200.9540  148.2480 O   0  0  0  0  0  1  0  0  0  0  0  0
  1 20  1  0  0  0  0
  2 24  1  0  0  0  0
  2 27  2  0  0  0  0
  3 11  1  0  0  0  0
  3  4  1  0  0  0  0
  4 21  1  0  0  0  0
  5 25  1  0  0  0  0
  5  6  2  0  0  0  0
  6 18  1  0  0  0  0
  7 16  1  0  0  0  0
  7 24  2  0  0  0  0
  8 17  2  0  0  0  0
  8 12  1  0  0  0  0
  9 26  1  1  0  0  0
  9 15  1  0  0  0  0
 10  1  1  0  0  0  0
 10 17  1  0  0  0  0
 11 13  1  0  0  0  0
 12  2  1  0  0  0  0
 13 12  1  0  0  0  0
 13 22  2  0  0  0  0
 14 27  1  0  0  0  0
 14 23  1  0  0  0  0
 16 19  2  0  0  0  0
 17  7  1  0  0  0  0
 18 15  1  0  0  0  0
 20 29  1  0  0  0  0
 20 16  1  0  0  0  0
 21 22  1  0  0  0  0
 22 14  1  0  0  0  0
 23 28  2  0  0  0  0
 27  5  1  0  0  0  0
 28  6  1  0  0  0  0
 28  9  1  0  0  0  0
 30 32  1  0  0  0  0
 30 29  1  0  0  0  0
 31 30  2  0  0  0  0
M  END
>  <MODEL>
5

>  <REMARK>
 VINA RESULT:      -8.3      1.189      1.410
  Name = 
  2 active torsions:
  status: ('A' for Active; 'I' for Inactive)
    1  A    between atoms: C_1  and  C_10
    2  A    between atoms: C_10  and  N_24
                            x       y       z     vdW  Elec       q    Type
                         _______ _______ _______ _____ _____    ______ ____

>  <TORSDO>
F 2

$$$$
=
 OpenBabel11062410393D

 32 37  0  0  1  0  0  0  0  0999 V2000
  161.2970  201.1310  148.4350 C   0  0  0  0  0  2  0  0  0  0  0  0
  161.2670  206.0630  149.7190 C   0  0  0  0  0  0  0  0  0  0  0  0
  161.3440  205.7420  154.5960 O   0  0  0  0  0  0  0  0  0  0  0  0
  160.7410  207.0010  154.7520 C   0  0  0  0  0  2  0  0  0  0  0  0
  161.7040  208.2660  148.5970 C   0  0  0  0  0  0  0  0  0  0  0  0
  161.8800  209.5690  148.8010 C   0  0  0  0  0  0  0  0  0  0  0  0
  161.0740  204.0130  148.4040 C   0  0  0  0  0  0  0  0  0  0  0  0
  160.8220  203.8790  150.8350 C   0  0  0  0  0  3  0  0  0  0  0  0
  162.0770  211.6330  149.9610 C   0  0  1  0  0  3  0  0  0  0  0  0
  160.5400  201.7870  149.5910 C   0  0  0  0  0  2  0  0  0  0  0  0
  160.7400  205.1530  153.4700 C   0  0  0  0  0  2  0  0  0  0  0  0
  161.0450  205.2990  150.9270 N   0  0  0  0  0  0  0  0  0  0  0  0
  161.0420  205.9400  152.2140 C   0  0  0  0  0  0  0  0  0  0  0  0
  161.4420  208.0390  151.1030 N   0  0  0  0  0  0  0  0  0  0  0  0
  162.2700  211.8170  148.4370 C   0  0  0  0  0  2  0  0  0  0  0  0
  161.0870  203.2650  147.1350 C   0  0  0  0  0  0  0  0  0  0  0  0
  160.8460  203.2530  149.6570 C   0  0  0  0  0  0  0  0  0  0  0  0
  162.1200  210.5260  147.8400 O   0  0  0  0  0  0  0  0  0  0  0  0
  161.1260  203.8740  146.0300 O   0  0  0  0  0  0  0  0  0  0  0  0
  161.0310  201.8310  147.1780 N   0  0  0  0  0  0  0  0  0  0  0  0
  161.2420  207.9440  153.6560 C   0  0  0  0  0  2  0  0  0  0  0  0
  161.2130  207.2720  152.3010 C   0  0  0  0  0  0  0  0  0  0  0  0
  161.6440  209.4650  151.2040 C   0  0  0  0  0  3  0  0  0  0  0  0
  161.2700  205.3340  148.4350 C   0  0  0  0  0  3  0  0  0  0  0  0
  161.7530  207.7630  147.3000 O   0  0  0  0  0  1  0  0  0  0  0  0
  160.9420  212.3310  150.3720 O   0  0  0  0  0  1  0  0  0  0  0  0
  161.4630  207.3970  149.7960 C   0  0  0  0  0  0  0  0  0  0  0  0
  161.8460  210.1730  150.0960 C   0  0  0  0  0  0  0  0  0  0  0  0
  160.7920  201.0510  145.9710 C   0  0  0  0  0  2  0  0  0  0  0  0
  161.2780  199.6540  146.1530 C   0  0  0  0  0  0  0  0  0  0  0  0
  160.9060  198.6660  145.2520 O   0  0  0  0  0  0  0  0  0  0  0  0
  162.0560  199.3780  147.1020 O   0  0  0  0  0  1  0  0  0  0  0  0
  1 10  1  0  0  0  0
  2 27  2  0  0  0  0
  2 12  1  0  0  0  0
  3  4  1  0  0  0  0
  5  6  2  0  0  0  0
  5 27  1  0  0  0  0
  6 28  1  0  0  0  0
  7 24  2  0  0  0  0
  7 17  1  0  0  0  0
  8 12  1  0  0  0  0
  9 28  1  0  0  0  0
  9 26  1  6  0  0  0
 10 17  1  0  0  0  0
 11  3  1  0  0  0  0
 12 13  1  0  0  0  0
 13 22  2  0  0  0  0
 13 11  1  0  0  0  0
 14 23  1  0  0  0  0
 14 22  1  0  0  0  0
 15  9  1  0  0  0  0
 16 20  1  0  0  0  0
 16  7  1  0  0  0  0
 17  8  2  0  0  0  0
 18 15  1  0  0  0  0
 18  6  1  0  0  0  0
 19 16  2  0  0  0  0
 20  1  1  0  0  0  0
 21  4  1  0  0  0  0
 22 21  1  0  0  0  0
 24  2  1  0  0  0  0
 25  5  1  0  0  0  0
 27 14  1  0  0  0  0
 28 23  2  0  0  0  0
 29 30  1  0  0  0  0
 29 20  1  0  0  0  0
 30 32  1  0  0  0  0
 31 30  2  0  0  0  0
M  END
>  <MODEL>
6

>  <REMARK>
 VINA RESULT:      -8.3      1.642      4.607
  Name = 
  2 active torsions:
  status: ('A' for Active; 'I' for Inactive)
    1  A    between atoms: C_1  and  C_10
    2  A    between atoms: C_10  and  N_24
                            x       y       z     vdW  Elec       q    Type
                         _______ _______ _______ _____ _____    ______ ____

>  <TORSDO>
F 2

$$$$
=
 OpenBabel11062410393D

 32 37  0  0  1  0  0  0  0  0999 V2000
  161.8880  210.2790  155.0430 C   0  0  0  0  0  2  0  0  0  0  0  0
  161.1880  206.4270  151.7810 C   0  0  0  0  0  0  0  0  0  0  0  0
  162.5960  208.5080  147.5880 O   0  0  0  0  0  0  0  0  0  0  0  0
  161.8100  207.6350  146.8170 C   0  0  0  0  0  2  0  0  0  0  0  0
  160.8580  203.9410  151.9030 C   0  0  0  0  0  0  0  0  0  0  0  0
  160.8110  202.8190  151.1890 C   0  0  0  0  0  0  0  0  0  0  0  0
  161.0810  207.7980  153.8010 C   0  0  0  0  0  0  0  0  0  0  0  0
  161.5030  208.8960  151.6550 C   0  0  0  0  0  3  0  0  0  0  0  0
  160.8780  201.3780  149.3010 C   0  0  1  0  0  3  0  0  0  0  0  0
  161.3410  210.3560  153.6170 C   0  0  0  0  0  2  0  0  0  0  0  0
  161.8520  208.7830  148.7510 C   0  0  0  0  0  2  0  0  0  0  0  0
  161.4490  207.6160  151.0000 N   0  0  0  0  0  0  0  0  0  0  0  0
  161.6500  207.5320  149.5780 C   0  0  0  0  0  0  0  0  0  0  0  0
  161.3090  205.1530  149.7290 N   0  0  0  0  0  0  0  0  0  0  0  0
  160.6250  200.5900  150.6090 C   0  0  0  0  0  2  0  0  0  0  0  0
  160.9160  207.9780  155.2530 C   0  0  0  0  0  0  0  0  0  0  0  0
  161.3480  209.0000  152.9770 C   0  0  0  0  0  0  0  0  0  0  0  0
  160.5920  201.5470  151.6710 O   0  0  0  0  0  0  0  0  0  0  0  0
  160.5410  207.0180  155.9830 O   0  0  0  0  0  0  0  0  0  0  0  0
  161.1670  209.2730  155.8210 N   0  0  0  0  0  0  0  0  0  0  0  0
  161.8050  206.2490  147.4650 C   0  0  0  0  0  2  0  0  0  0  0  0
  161.5620  206.3430  148.9560 C   0  0  0  0  0  0  0  0  0  0  0  0
  161.2360  203.8760  149.0580 C   0  0  0  0  0  3  0  0  0  0  0  0
  161.0050  206.5880  153.2370 C   0  0  0  0  0  3  0  0  0  0  0  0
  160.6690  203.8850  153.2810 O   0  0  0  0  0  1  0  0  0  0  0  0
  159.7710  201.2490  148.4630 O   0  0  0  0  0  1  0  0  0  0  0  0
  161.1200  205.2240  151.1710 C   0  0  0  0  0  0  0  0  0  0  0  0
  160.9930  202.7810  149.7720 C   0  0  0  0  0  0  0  0  0  0  0  0
  160.7860  209.5780  157.1940 C   0  0  0  0  0  2  0  0  0  0  0  0
  160.0680  210.8820  157.2540 C   0  0  0  0  0  0  0  0  0  0  0  0
  160.7850  212.0710  157.2600 O   0  0  0  0  0  0  0  0  0  0  0  0
  158.8100  210.9070  157.2610 O   0  0  0  0  0  1  0  0  0  0  0  0
  1 20  1  0  0  0  0
  2 24  1  0  0  0  0
  3 11  1  0  0  0  0
  4 21  1  0  0  0  0
  4  3  1  0  0  0  0
  5 25  1  0  0  0  0
  6 18  1  0  0  0  0
  6  5  2  0  0  0  0
  7 16  1  0  0  0  0
  8 17  2  0  0  0  0
  9 26  1  6  0  0  0
  9 28  1  0  0  0  0
  9 15  1  0  0  0  0
 10  1  1  0  0  0  0
 11 13  1  0  0  0  0
 12  8  1  0  0  0  0
 12  2  1  0  0  0  0
 13 12  1  0  0  0  0
 14 27  1  0  0  0  0
 15 18  1  0  0  0  0
 16 20  1  0  0  0  0
 16 19  2  0  0  0  0
 17 10  1  0  0  0  0
 17  7  1  0  0  0  0
 20 29  1  0  0  0  0
 21 22  1  0  0  0  0
 22 13  2  0  0  0  0
 22 14  1  0  0  0  0
 23 14  1  0  0  0  0
 23 28  2  0  0  0  0
 24  7  2  0  0  0  0
 27  2  2  0  0  0  0
 27  5  1  0  0  0  0
 28  6  1  0  0  0  0
 29 30  1  0  0  0  0
 30 31  2  0  0  0  0
 30 32  1  0  0  0  0
M  END
>  <MODEL>
7

>  <REMARK>
 VINA RESULT:      -7.2      1.709      7.926
  Name = 
  2 active torsions:
  status: ('A' for Active; 'I' for Inactive)
    1  A    between atoms: C_1  and  C_10
    2  A    between atoms: C_10  and  N_24
                            x       y       z     vdW  Elec       q    Type
                         _______ _______ _______ _____ _____    ______ ____

>  <TORSDO>
F 2

$$$$
