=
 OpenBabel11052422503D

 28 30  0  0  1  0  0  0  0  0999 V2000
  159.4160  210.7630  152.6820 O   0  0  0  0  0  0  0  0  0  0  0  0
  159.8310  210.9320  154.0090 C   0  0  2  0  0  3  0  0  0  0  0  0
  162.2580  209.9890  152.4070 C   0  0  0  0  0  2  0  0  0  0  0  0
  161.6940  210.2100  155.5380 C   0  0  0  0  0  1  0  0  0  0  0  0
  161.3740  210.6050  151.3230 C   0  0  0  0  0  2  0  0  0  0  0  0
  161.5010  209.0380  153.3510 C   0  0  1  0  0  3  0  0  0  0  0  0
  160.3160  211.5180  151.9220 C   0  0  0  0  0  2  0  0  0  0  0  0
  160.7200  209.7530  154.4650 C   0  0  2  0  0  3  0  0  0  0  0  0
  158.5990  211.0800  154.9160 C   0  0  1  0  0  3  0  0  0  0  0  0
  156.4270  212.0450  156.4910 C   0  0  0  0  0  3  0  0  0  0  0  0
  158.9240  211.8020  156.2240 C   0  0  0  0  0  2  0  0  0  0  0  0
  157.8740  213.0410  153.7100 O   0  0  0  0  0  1  0  0  0  0  0  0
  157.4400  211.8130  154.2160 C   0  0  2  0  0  3  0  0  0  0  0  0
  156.2860  212.0500  155.1560 C   0  0  0  0  0  3  0  0  0  0  0  0
  157.7290  211.6950  157.1690 C   0  0  0  0  0  2  0  0  0  0  0  0
  160.6340  208.1160  152.6230 N   0  0  0  0  0  2  0  0  0  0  0  0
  161.4880  205.6290  153.1430 S   0  0  0  0  0  0  0  0  0  0  0  0
  161.0540  206.8380  152.1260 C   0  0  0  0  0  0  0  0  0  0  0  0
  160.7370  205.3920  150.1850 C   0  0  0  0  0  3  0  0  0  0  0  0
  161.0700  206.5770  150.6840 C   0  0  0  0  0  3  0  0  0  0  0  0
  161.6110  203.9210  148.4110 C   0  0  0  0  0  2  0  0  0  0  0  0
  161.3410  206.3770  148.0270 C   0  0  0  0  0  2  0  0  0  0  0  0
  162.0210  204.3270  145.9340 C   0  0  1  0  0  3  0  0  0  0  0  0
  160.7590  205.1500  148.7150 C   0  0  2  0  0  3  0  0  0  0  0  0
  161.1850  205.5480  145.6720 C   0  0  0  0  0  3  0  0  0  0  0  0
  160.8810  206.4630  146.6030 C   0  0  0  0  0  3  0  0  0  0  0  0
  163.3200  204.6730  146.2660 F   0  0  0  0  0  0  0  0  0  0  0  0
  161.3980  203.4120  146.9870 C   0  0  0  0  0  2  0  0  0  0  0  0
  2  1  1  6  0  0  0
  2  8  1  0  0  0  0
  2  9  1  0  0  0  0
  3  6  1  0  0  0  0
  5  7  1  0  0  0  0
  5  3  1  0  0  0  0
  6 16  1  6  0  0  0
  6  8  1  0  0  0  0
  7  1  1  0  0  0  0
  8  4  1  1  0  0  0
  9 11  1  1  0  0  0
 10 15  1  0  0  0  0
 11 15  1  0  0  0  0
 13 12  1  1  0  0  0
 13  9  1  0  0  0  0
 13 14  1  0  0  0  0
 14 10  2  0  0  0  0
 18 16  1  0  0  0  0
 18 17  2  0  0  0  0
 19 20  2  0  0  0  0
 20 18  1  0  0  0  0
 21 24  1  0  0  0  0
 22 24  1  0  0  0  0
 23 27  1  1  0  0  0
 23 28  1  0  0  0  0
 24 19  1  1  0  0  0
 25 23  1  0  0  0  0
 25 26  2  0  0  0  0
 26 22  1  0  0  0  0
 28 21  1  0  0  0  0
M  END
>  <MODEL>
1

>  <REMARK>
 VINA RESULT:      -7.9      0.000      0.000
  Name = 
  5 active torsions:
  status: ('A' for Active; 'I' for Inactive)
    1  A    between atoms: C_2  and  C_3
    2  A    between atoms: N_5  and  C_20
    3  A    between atoms: N_5  and  C_21
    4  A    between atoms: C_10  and  C_13
    5  A    between atoms: C_20  and  C_25
                            x       y       z     vdW  Elec       q    Type
                         _______ _______ _______ _____ _____    ______ ____

>  <TORSDO>
F 5

$$$$
=
 OpenBabel11052422503D

 28 30  0  0  1  0  0  0  0  0999 V2000
  160.7690  208.4580  151.8440 O   0  0  0  0  0  0  0  0  0  0  0  0
  160.8600  208.6940  153.2220 C   0  0  2  0  0  3  0  0  0  0  0  0
  162.7600  206.3910  152.5630 C   0  0  0  0  0  2  0  0  0  0  0  0
  161.6210  207.5270  155.3170 C   0  0  0  0  0  1  0  0  0  0  0  0
  162.6310  207.1010  151.2150 C   0  0  0  0  0  2  0  0  0  0  0  0
  161.4100  206.1440  153.2590 C   0  0  1  0  0  3  0  0  0  0  0  0
  162.0870  208.5110  151.3790 C   0  0  0  0  0  2  0  0  0  0  0  0
  160.8600  207.3660  154.0110 C   0  0  2  0  0  3  0  0  0  0  0  0
  159.7000  209.6010  153.6640 C   0  0  1  0  0  3  0  0  0  0  0  0
  158.0630  211.7690  154.5280 C   0  0  0  0  0  3  0  0  0  0  0  0
  159.8710  210.1040  155.0970 C   0  0  0  0  0  2  0  0  0  0  0  0
  160.7120  211.5140  152.5940 O   0  0  0  0  0  1  0  0  0  0  0  0
  159.5120  210.8100  152.7300 C   0  0  2  0  0  3  0  0  0  0  0  0
  158.4490  211.7470  153.2420 C   0  0  0  0  0  3  0  0  0  0  0  0
  158.5810  210.7860  155.5490 C   0  0  0  0  0  2  0  0  0  0  0  0
  160.4080  205.6090  152.3410 N   0  0  0  0  0  2  0  0  0  0  0  0
  161.1320  203.0480  152.0230 S   0  0  0  0  0  0  0  0  0  0  0  0
  160.6340  204.5030  151.4570 C   0  0  0  0  0  0  0  0  0  0  0  0
  161.3660  204.5260  149.1290 C   0  0  0  0  0  3  0  0  0  0  0  0
  160.3870  204.6460  150.0200 C   0  0  0  0  0  3  0  0  0  0  0  0
  162.2320  204.0480  146.8710 C   0  0  0  0  0  2  0  0  0  0  0  0
  160.9730  206.1560  147.3460 C   0  0  0  0  0  2  0  0  0  0  0  0
  161.8000  205.1670  144.6280 C   0  0  1  0  0  3  0  0  0  0  0  0
  161.0920  204.6730  147.6710 C   0  0  2  0  0  3  0  0  0  0  0  0
  160.5310  205.9270  144.8940 C   0  0  0  0  0  3  0  0  0  0  0  0
  160.1600  206.3690  146.1040 C   0  0  0  0  0  3  0  0  0  0  0  0
  162.9130  205.9540  144.8730 F   0  0  0  0  0  0  0  0  0  0  0  0
  161.8620  203.8510  145.4030 C   0  0  0  0  0  2  0  0  0  0  0  0
  2  1  1  6  0  0  0
  2  9  1  0  0  0  0
  2  8  1  0  0  0  0
  3  6  1  0  0  0  0
  5  7  1  0  0  0  0
  5  3  1  0  0  0  0
  6 16  1  6  0  0  0
  6  8  1  0  0  0  0
  7  1  1  0  0  0  0
  8  4  1  1  0  0  0
  9 11  1  1  0  0  0
 10 15  1  0  0  0  0
 11 15  1  0  0  0  0
 13 12  1  1  0  0  0
 13 14  1  0  0  0  0
 13  9  1  0  0  0  0
 14 10  2  0  0  0  0
 18 17  2  0  0  0  0
 18 16  1  0  0  0  0
 19 20  2  0  0  0  0
 20 18  1  0  0  0  0
 21 24  1  0  0  0  0
 22 24  1  0  0  0  0
 23 27  1  1  0  0  0
 23 25  1  0  0  0  0
 23 28  1  0  0  0  0
 24 19  1  1  0  0  0
 25 26  2  0  0  0  0
 26 22  1  0  0  0  0
 28 21  1  0  0  0  0
M  END
>  <MODEL>
2

>  <REMARK>
 VINA RESULT:      -7.5      1.666      2.445
  Name = 
  5 active torsions:
  status: ('A' for Active; 'I' for Inactive)
    1  A    between atoms: C_2  and  C_3
    2  A    between atoms: N_5  and  C_20
    3  A    between atoms: N_5  and  C_21
    4  A    between atoms: C_10  and  C_13
    5  A    between atoms: C_20  and  C_25
                            x       y       z     vdW  Elec       q    Type
                         _______ _______ _______ _____ _____    ______ ____

>  <TORSDO>
F 5

$$$$
=
 OpenBabel11052422503D

 28 30  0  0  1  0  0  0  0  0999 V2000
  159.4700  210.7960  152.4010 O   0  0  0  0  0  0  0  0  0  0  0  0
  159.5430  211.4390  153.6430 C   0  0  2  0  0  3  0  0  0  0  0  0
  162.3110  210.2840  153.0510 C   0  0  0  0  0  2  0  0  0  0  0  0
  160.9890  211.4690  155.7010 C   0  0  0  0  0  1  0  0  0  0  0  0
  161.7050  210.4070  151.6520 C   0  0  0  0  0  2  0  0  0  0  0  0
  161.3680  209.6240  154.0730 C   0  0  1  0  0  3  0  0  0  0  0  0
  160.5100  211.3480  151.6450 C   0  0  0  0  0  2  0  0  0  0  0  0
  160.3200  210.5800  154.6650 C   0  0  2  0  0  3  0  0  0  0  0  0
  158.1220  211.7460  154.1450 C   0  0  1  0  0  3  0  0  0  0  0  0
  155.8370  212.6910  155.5640 C   0  0  0  0  0  3  0  0  0  0  0  0
  157.8720  211.1990  155.5490 C   0  0  0  0  0  2  0  0  0  0  0  0
  158.7850  213.9600  154.8420 O   0  0  0  0  0  1  0  0  0  0  0  0
  157.8090  213.2540  154.1330 C   0  0  2  0  0  3  0  0  0  0  0  0
  156.4590  213.5450  154.7350 C   0  0  0  0  0  3  0  0  0  0  0  0
  156.3850  211.3210  155.8800 C   0  0  0  0  0  2  0  0  0  0  0  0
  160.7290  208.4250  153.5380 N   0  0  0  0  0  2  0  0  0  0  0  0
  160.4590  206.9750  155.7760 S   0  0  0  0  0  0  0  0  0  0  0  0
  160.7650  207.1410  154.1750 C   0  0  0  0  0  0  0  0  0  0  0  0
  161.0450  205.9550  152.0600 C   0  0  0  0  0  3  0  0  0  0  0  0
  161.0460  205.9370  153.3880 C   0  0  0  0  0  3  0  0  0  0  0  0
  160.7280  204.8390  149.8850 C   0  0  0  0  0  2  0  0  0  0  0  0
  160.7360  203.5270  152.0130 C   0  0  0  0  0  2  0  0  0  0  0  0
  160.7470  202.3800  149.2330 C   0  0  1  0  0  3  0  0  0  0  0  0
  161.3360  204.7190  151.2800 C   0  0  2  0  0  3  0  0  0  0  0  0
  161.4460  201.7490  150.4030 C   0  0  0  0  0  3  0  0  0  0  0  0
  161.4430  202.2580  151.6440 C   0  0  0  0  0  3  0  0  0  0  0  0
  159.3730  202.3830  149.4150 F   0  0  0  0  0  0  0  0  0  0  0  0
  161.2740  203.7820  148.9280 C   0  0  0  0  0  2  0  0  0  0  0  0
  2  1  1  6  0  0  0
  2  9  1  0  0  0  0
  2  8  1  0  0  0  0
  3  6  1  0  0  0  0
  5  3  1  0  0  0  0
  6 16  1  6  0  0  0
  6  8  1  0  0  0  0
  7  5  1  0  0  0  0
  7  1  1  0  0  0  0
  8  4  1  1  0  0  0
  9 11  1  1  0  0  0
 10 15  1  0  0  0  0
 11 15  1  0  0  0  0
 13  9  1  0  0  0  0
 13 14  1  0  0  0  0
 13 12  1  1  0  0  0
 14 10  2  0  0  0  0
 16 18  1  0  0  0  0
 18 17  2  0  0  0  0
 19 20  2  0  0  0  0
 20 18  1  0  0  0  0
 21 24  1  0  0  0  0
 23 27  1  1  0  0  0
 23 25  1  0  0  0  0
 24 22  1  0  0  0  0
 24 19  1  1  0  0  0
 25 26  2  0  0  0  0
 26 22  1  0  0  0  0
 28 23  1  0  0  0  0
 28 21  1  0  0  0  0
M  END
>  <MODEL>
3

>  <REMARK>
 VINA RESULT:      -7.4      1.974      2.769
  Name = 
  5 active torsions:
  status: ('A' for Active; 'I' for Inactive)
    1  A    between atoms: C_2  and  C_3
    2  A    between atoms: N_5  and  C_20
    3  A    between atoms: N_5  and  C_21
    4  A    between atoms: C_10  and  C_13
    5  A    between atoms: C_20  and  C_25
                            x       y       z     vdW  Elec       q    Type
                         _______ _______ _______ _____ _____    ______ ____

>  <TORSDO>
F 5

$$$$
=
 OpenBabel11052422503D

 28 30  0  0  1  0  0  0  0  0999 V2000
  160.3880  208.0450  153.8160 O   0  0  0  0  0  0  0  0  0  0  0  0
  161.2460  208.2300  152.7240 C   0  0  2  0  0  3  0  0  0  0  0  0
  161.7040  210.5620  154.6470 C   0  0  0  0  0  2  0  0  0  0  0  0
  162.5720  210.0610  151.6200 C   0  0  0  0  0  1  0  0  0  0  0  0
  161.1250  209.4890  155.5710 C   0  0  0  0  0  2  0  0  0  0  0  0
  160.9090  210.7430  153.3420 C   0  0  1  0  0  3  0  0  0  0  0  0
  161.2160  208.1080  154.9420 C   0  0  0  0  0  2  0  0  0  0  0  0
  161.2400  209.7040  152.2590 C   0  0  2  0  0  3  0  0  0  0  0  0
  160.8320  207.2880  151.5820 C   0  0  1  0  0  3  0  0  0  0  0  0
  160.7630  205.4290  149.4210 C   0  0  0  0  0  3  0  0  0  0  0  0
  161.3840  207.7370  150.2290 C   0  0  0  0  0  2  0  0  0  0  0  0
  162.6340  205.7680  152.1050 O   0  0  0  0  0  1  0  0  0  0  0  0
  161.2640  205.8320  151.8380 C   0  0  2  0  0  3  0  0  0  0  0  0
  160.9530  204.9450  150.6590 C   0  0  0  0  0  3  0  0  0  0  0  0
  160.7380  206.9080  149.1210 C   0  0  0  0  0  2  0  0  0  0  0  0
  159.4700  210.8020  153.5780 N   0  0  0  0  0  2  0  0  0  0  0  0
  157.4390  212.4990  154.0000 S   0  0  0  0  0  0  0  0  0  0  0  0
  158.6110  211.8320  153.0700 C   0  0  0  0  0  0  0  0  0  0  0  0
  159.7050  213.2540  151.4140 C   0  0  0  0  0  3  0  0  0  0  0  0
  158.7910  212.3340  151.7050 C   0  0  0  0  0  3  0  0  0  0  0  0
  158.5410  213.6520  149.2780 C   0  0  0  0  0  2  0  0  0  0  0  0
  160.9240  212.8960  149.3220 C   0  0  0  0  0  2  0  0  0  0  0  0
  159.4050  213.8050  146.8900 C   0  0  1  0  0  3  0  0  0  0  0  0
  159.8720  213.7490  150.0190 C   0  0  2  0  0  3  0  0  0  0  0  0
  160.8730  214.0470  147.1010 C   0  0  0  0  0  3  0  0  0  0  0  0
  161.5520  213.6420  148.1840 C   0  0  0  0  0  3  0  0  0  0  0  0
  159.1340  212.4520  146.7690 F   0  0  0  0  0  0  0  0  0  0  0  0
  158.5480  214.4520  147.9770 C   0  0  0  0  0  2  0  0  0  0  0  0
  1  7  1  0  0  0  0
  2  1  1  1  0  0  0
  3  5  1  0  0  0  0
  6 16  1  1  0  0  0
  6  3  1  0  0  0  0
  7  5  1  0  0  0  0
  8  4  1  1  0  0  0
  8  2  1  0  0  0  0
  8  6  1  0  0  0  0
  9 11  1  6  0  0  0
  9 13  1  0  0  0  0
  9  2  1  0  0  0  0
 10 14  2  0  0  0  0
 13 12  1  6  0  0  0
 14 13  1  0  0  0  0
 15 10  1  0  0  0  0
 15 11  1  0  0  0  0
 18 16  1  0  0  0  0
 18 17  2  0  0  0  0
 19 20  2  0  0  0  0
 20 18  1  0  0  0  0
 21 24  1  0  0  0  0
 22 24  1  0  0  0  0
 23 27  1  1  0  0  0
 23 25  1  0  0  0  0
 23 28  1  0  0  0  0
 24 19  1  1  0  0  0
 25 26  2  0  0  0  0
 26 22  1  0  0  0  0
 28 21  1  0  0  0  0
M  END
>  <MODEL>
4

>  <REMARK>
 VINA RESULT:      -7.1      3.599      7.288
  Name = 
  5 active torsions:
  status: ('A' for Active; 'I' for Inactive)
    1  A    between atoms: C_2  and  C_3
    2  A    between atoms: N_5  and  C_20
    3  A    between atoms: N_5  and  C_21
    4  A    between atoms: C_10  and  C_13
    5  A    between atoms: C_20  and  C_25
                            x       y       z     vdW  Elec       q    Type
                         _______ _______ _______ _____ _____    ______ ____

>  <TORSDO>
F 5

$$$$
=
 OpenBabel11052422503D

 28 30  0  0  1  0  0  0  0  0999 V2000
  160.5960  211.6740  155.9690 O   0  0  0  0  0  0  0  0  0  0  0  0
  159.6710  210.7300  156.4350 C   0  0  2  0  0  3  0  0  0  0  0  0
  162.3660  209.3120  156.1710 C   0  0  0  0  0  2  0  0  0  0  0  0
  159.3930  208.2340  156.5820 C   0  0  0  0  0  1  0  0  0  0  0  0
  162.7830  210.7760  156.3110 C   0  0  0  0  0  2  0  0  0  0  0  0
  161.2390  209.0890  155.1480 C   0  0  1  0  0  3  0  0  0  0  0  0
  161.6550  211.6220  156.8810 C   0  0  0  0  0  2  0  0  0  0  0  0
  159.8320  209.3850  155.6920 C   0  0  2  0  0  3  0  0  0  0  0  0
  158.2470  211.2850  156.2710 C   0  0  1  0  0  3  0  0  0  0  0  0
  155.9220  212.7470  155.5040 C   0  0  0  0  0  3  0  0  0  0  0  0
  158.1400  212.7460  156.7060 C   0  0  0  0  0  2  0  0  0  0  0  0
  158.6300  211.7380  153.9310 O   0  0  0  0  0  1  0  0  0  0  0  0
  157.7290  211.1560  154.8270 C   0  0  2  0  0  3  0  0  0  0  0  0
  156.3800  211.8080  154.6600 C   0  0  0  0  0  3  0  0  0  0  0  0
  156.6680  213.1530  156.7510 C   0  0  0  0  0  2  0  0  0  0  0  0
  161.4740  209.8140  153.9030 N   0  0  0  0  0  2  0  0  0  0  0  0
  162.0580  210.0270  151.2960 S   0  0  0  0  0  0  0  0  0  0  0  0
  161.5420  209.1970  152.6110 C   0  0  0  0  0  0  0  0  0  0  0  0
  161.2280  207.1850  151.2650 C   0  0  0  0  0  3  0  0  0  0  0  0
  161.1760  207.7870  152.4480 C   0  0  0  0  0  3  0  0  0  0  0  0
  161.2280  204.9940  152.3950 C   0  0  0  0  0  2  0  0  0  0  0  0
  161.6000  205.1690  149.9280 C   0  0  0  0  0  2  0  0  0  0  0  0
  161.1810  202.6230  151.4750 C   0  0  1  0  0  3  0  0  0  0  0  0
  160.8550  205.7500  151.1220 C   0  0  2  0  0  3  0  0  0  0  0  0
  160.6970  202.8400  150.0690 C   0  0  0  0  0  3  0  0  0  0  0  0
  160.8830  203.9730  149.3770 C   0  0  0  0  0  3  0  0  0  0  0  0
  162.5650  202.6370  151.5340 F   0  0  0  0  0  0  0  0  0  0  0  0
  160.5690  203.6180  152.4600 C   0  0  0  0  0  2  0  0  0  0  0  0
  1  7  1  0  0  0  0
  2  1  1  6  0  0  0
  3  5  1  0  0  0  0
  5  7  1  0  0  0  0
  6 16  1  6  0  0  0
  6  8  1  0  0  0  0
  6  3  1  0  0  0  0
  8  2  1  0  0  0  0
  8  4  1  1  0  0  0
  9  2  1  0  0  0  0
  9 11  1  6  0  0  0
 10 15  1  0  0  0  0
 11 15  1  0  0  0  0
 13 12  1  6  0  0  0
 13  9  1  0  0  0  0
 14 13  1  0  0  0  0
 14 10  2  0  0  0  0
 17 18  2  0  0  0  0
 18 16  1  0  0  0  0
 19 20  2  0  0  0  0
 20 18  1  0  0  0  0
 21 28  1  0  0  0  0
 22 24  1  0  0  0  0
 23 27  1  6  0  0  0
 23 28  1  0  0  0  0
 24 19  1  1  0  0  0
 24 21  1  0  0  0  0
 25 23  1  0  0  0  0
 26 22  1  0  0  0  0
 26 25  2  0  0  0  0
M  END
>  <MODEL>
5

>  <REMARK>
 VINA RESULT:      -7.0      2.332      3.410
  Name = 
  5 active torsions:
  status: ('A' for Active; 'I' for Inactive)
    1  A    between atoms: C_2  and  C_3
    2  A    between atoms: N_5  and  C_20
    3  A    between atoms: N_5  and  C_21
    4  A    between atoms: C_10  and  C_13
    5  A    between atoms: C_20  and  C_25
                            x       y       z     vdW  Elec       q    Type
                         _______ _______ _______ _____ _____    ______ ____

>  <TORSDO>
F 5

$$$$
=
 OpenBabel11052422503D

 28 30  0  0  1  0  0  0  0  0999 V2000
  159.6860  210.8180  152.0880 O   0  0  0  0  0  0  0  0  0  0  0  0
  160.1270  211.0610  153.3960 C   0  0  2  0  0  3  0  0  0  0  0  0
  162.5560  210.1760  151.7630 C   0  0  0  0  0  2  0  0  0  0  0  0
  162.0630  210.4950  154.8980 C   0  0  0  0  0  1  0  0  0  0  0  0
  161.6130  210.7030  150.6810 C   0  0  0  0  0  2  0  0  0  0  0  0
  161.8730  209.2270  152.7650 C   0  0  1  0  0  3  0  0  0  0  0  0
  160.5260  211.5850  151.2740 C   0  0  0  0  0  2  0  0  0  0  0  0
  161.0860  209.9470  153.8720 C   0  0  2  0  0  3  0  0  0  0  0  0
  158.9130  211.1840  154.3310 C   0  0  1  0  0  3  0  0  0  0  0  0
  156.8440  212.0960  156.0670 C   0  0  0  0  0  3  0  0  0  0  0  0
  159.3050  211.6520  155.7320 C   0  0  0  0  0  2  0  0  0  0  0  0
  158.3920  213.3740  153.4610 O   0  0  0  0  0  1  0  0  0  0  0  0
  157.8350  212.1310  153.7720 C   0  0  2  0  0  3  0  0  0  0  0  0
  156.7080  212.3280  154.7520 C   0  0  0  0  0  3  0  0  0  0  0  0
  158.1030  211.5150  156.6640 C   0  0  0  0  0  2  0  0  0  0  0  0
  161.0360  208.2340  152.0990 N   0  0  0  0  0  2  0  0  0  0  0  0
  161.4890  206.1330  153.6990 S   0  0  0  0  0  0  0  0  0  0  0  0
  161.2000  206.8170  152.2390 C   0  0  0  0  0  0  0  0  0  0  0  0
  160.5720  204.7170  151.1630 C   0  0  0  0  0  3  0  0  0  0  0  0
  161.0790  205.9420  151.0690 C   0  0  0  0  0  3  0  0  0  0  0  0
  160.3840  202.3840  150.3920 C   0  0  0  0  0  2  0  0  0  0  0  0
  161.6730  204.0730  149.0740 C   0  0  0  0  0  2  0  0  0  0  0  0
  160.9810  201.2860  148.1770 C   0  0  1  0  0  3  0  0  0  0  0  0
  160.4560  203.8460  149.9600 C   0  0  2  0  0  3  0  0  0  0  0  0
  161.0680  202.4680  147.2530 C   0  0  0  0  0  3  0  0  0  0  0  0
  161.3760  203.7110  147.6500 C   0  0  0  0  0  3  0  0  0  0  0  0
  162.2180  200.9900  148.7250 F   0  0  0  0  0  0  0  0  0  0  0  0
  159.9190  201.4720  149.2590 C   0  0  0  0  0  2  0  0  0  0  0  0
  2  1  1  6  0  0  0
  2  8  1  0  0  0  0
  2  9  1  0  0  0  0
  3  6  1  0  0  0  0
  5  7  1  0  0  0  0
  5  3  1  0  0  0  0
  6 16  1  6  0  0  0
  6  8  1  0  0  0  0
  7  1  1  0  0  0  0
  8  4  1  1  0  0  0
  9 11  1  1  0  0  0
 10 15  1  0  0  0  0
 11 15  1  0  0  0  0
 13 12  1  1  0  0  0
 13  9  1  0  0  0  0
 13 14  1  0  0  0  0
 14 10  2  0  0  0  0
 16 18  1  0  0  0  0
 18 17  2  0  0  0  0
 20 19  2  0  0  0  0
 20 18  1  0  0  0  0
 22 24  1  0  0  0  0
 23 27  1  1  0  0  0
 23 28  1  0  0  0  0
 24 21  1  0  0  0  0
 24 19  1  1  0  0  0
 25 26  2  0  0  0  0
 25 23  1  0  0  0  0
 26 22  1  0  0  0  0
 28 21  1  0  0  0  0
M  END
>  <MODEL>
6

>  <REMARK>
 VINA RESULT:      -7.0      1.467      1.851
  Name = 
  5 active torsions:
  status: ('A' for Active; 'I' for Inactive)
    1  A    between atoms: C_2  and  C_3
    2  A    between atoms: N_5  and  C_20
    3  A    between atoms: N_5  and  C_21
    4  A    between atoms: C_10  and  C_13
    5  A    between atoms: C_20  and  C_25
                            x       y       z     vdW  Elec       q    Type
                         _______ _______ _______ _____ _____    ______ ____

>  <TORSDO>
F 5

$$$$
=
 OpenBabel11052422503D

 28 30  0  0  1  0  0  0  0  0999 V2000
  159.2330  211.5430  153.8390 O   0  0  0  0  0  0  0  0  0  0  0  0
  159.3130  212.4670  154.8890 C   0  0  2  0  0  3  0  0  0  0  0  0
  161.7720  210.6600  155.0770 C   0  0  0  0  0  2  0  0  0  0  0  0
  160.4740  212.7550  157.1020 C   0  0  0  0  0  1  0  0  0  0  0  0
  161.3810  210.5230  153.6050 C   0  0  0  0  0  2  0  0  0  0  0  0
  160.5850  210.5040  156.0450 C   0  0  1  0  0  3  0  0  0  0  0  0
  160.4570  211.6490  153.1690 C   0  0  0  0  0  2  0  0  0  0  0  0
  159.7370  211.7750  156.2040 C   0  0  2  0  0  3  0  0  0  0  0  0
  157.9590  213.1780  155.0490 C   0  0  1  0  0  3  0  0  0  0  0  0
  155.2010  213.9000  155.0550 C   0  0  0  0  0  3  0  0  0  0  0  0
  157.2840  213.4490  153.7050 C   0  0  0  0  0  2  0  0  0  0  0  0
  156.8440  211.0820  155.4830 O   0  0  0  0  0  1  0  0  0  0  0  0
  156.9860  212.3930  155.9470 C   0  0  2  0  0  3  0  0  0  0  0  0
  155.6280  213.0450  155.9980 C   0  0  0  0  0  3  0  0  0  0  0  0
  156.0810  214.3650  153.9200 C   0  0  0  0  0  2  0  0  0  0  0  0
  159.7440  209.3610  155.7040 N   0  0  0  0  0  2  0  0  0  0  0  0
  160.4560  207.0960  156.9480 S   0  0  0  0  0  0  0  0  0  0  0  0
  160.2190  208.0110  155.6100 C   0  0  0  0  0  0  0  0  0  0  0  0
  161.4340  206.5120  154.1150 C   0  0  0  0  0  3  0  0  0  0  0  0
  160.4710  207.4090  154.2980 C   0  0  0  0  0  3  0  0  0  0  0  0
  161.2820  206.9100  151.6870 C   0  0  0  0  0  2  0  0  0  0  0  0
  160.8320  204.6470  152.6490 C   0  0  0  0  0  2  0  0  0  0  0  0
  161.0800  205.3050  149.7250 C   0  0  1  0  0  3  0  0  0  0  0  0
  161.6720  205.9110  152.7730 C   0  0  2  0  0  3  0  0  0  0  0  0
  161.5260  204.0050  150.3330 C   0  0  0  0  0  3  0  0  0  0  0  0
  161.4170  203.7100  151.6360 C   0  0  0  0  0  3  0  0  0  0  0  0
  159.7060  205.4550  149.8210 F   0  0  0  0  0  0  0  0  0  0  0  0
  161.8170  206.5060  150.3150 C   0  0  0  0  0  2  0  0  0  0  0  0
  2  1  1  6  0  0  0
  2  9  1  0  0  0  0
  2  8  1  0  0  0  0
  3  6  1  0  0  0  0
  5  3  1  0  0  0  0
  6 16  1  6  0  0  0
  6  8  1  0  0  0  0
  7  5  1  0  0  0  0
  7  1  1  0  0  0  0
  8  4  1  1  0  0  0
  9 11  1  6  0  0  0
  9 13  1  0  0  0  0
 10 14  2  0  0  0  0
 11 15  1  0  0  0  0
 13 12  1  6  0  0  0
 13 14  1  0  0  0  0
 15 10  1  0  0  0  0
 18 16  1  0  0  0  0
 18 17  2  0  0  0  0
 19 20  2  0  0  0  0
 20 18  1  0  0  0  0
 21 24  1  0  0  0  0
 22 24  1  0  0  0  0
 23 27  1  1  0  0  0
 23 28  1  0  0  0  0
 23 25  1  0  0  0  0
 24 19  1  1  0  0  0
 25 26  2  0  0  0  0
 26 22  1  0  0  0  0
 28 21  1  0  0  0  0
M  END
>  <MODEL>
7

>  <REMARK>
 VINA RESULT:      -6.9      2.337      3.608
  Name = 
  5 active torsions:
  status: ('A' for Active; 'I' for Inactive)
    1  A    between atoms: C_2  and  C_3
    2  A    between atoms: N_5  and  C_20
    3  A    between atoms: N_5  and  C_21
    4  A    between atoms: C_10  and  C_13
    5  A    between atoms: C_20  and  C_25
                            x       y       z     vdW  Elec       q    Type
                         _______ _______ _______ _____ _____    ______ ____

>  <TORSDO>
F 5

$$$$
=
 OpenBabel11052422503D

 28 30  0  0  1  0  0  0  0  0999 V2000
  161.8040  210.8270  155.6630 O   0  0  0  0  0  0  0  0  0  0  0  0
  160.4120  210.9840  155.6740 C   0  0  2  0  0  3  0  0  0  0  0  0
  161.0270  208.2200  156.8260 C   0  0  0  0  0  2  0  0  0  0  0  0
  158.3280  209.5810  155.8070 C   0  0  0  0  0  1  0  0  0  0  0  0
  162.3360  208.9710  157.0690 C   0  0  0  0  0  2  0  0  0  0  0  0
  160.4760  208.3910  155.3990 C   0  0  1  0  0  3  0  0  0  0  0  0
  162.1390  210.4760  156.9750 C   0  0  0  0  0  2  0  0  0  0  0  0
  159.7070  209.7020  155.1780 C   0  0  2  0  0  3  0  0  0  0  0  0
  160.0270  212.1980  154.8120 C   0  0  1  0  0  3  0  0  0  0  0  0
  158.6620  214.2980  153.4510 C   0  0  0  0  0  3  0  0  0  0  0  0
  159.0880  211.8210  153.6670 C   0  0  0  0  0  2  0  0  0  0  0  0
  158.2940  212.8280  156.3710 O   0  0  0  0  0  1  0  0  0  0  0  0
  159.3780  213.3230  155.6400 C   0  0  2  0  0  3  0  0  0  0  0  0
  158.9030  214.4530  154.7630 C   0  0  0  0  0  3  0  0  0  0  0  0
  158.9470  213.0100  152.7180 C   0  0  0  0  0  2  0  0  0  0  0  0
  161.5130  208.2230  154.3860 N   0  0  0  0  0  2  0  0  0  0  0  0
  160.8030  209.0700  151.9440 S   0  0  0  0  0  0  0  0  0  0  0  0
  161.2540  207.9110  153.0110 C   0  0  0  0  0  0  0  0  0  0  0  0
  161.2560  206.2290  151.2410 C   0  0  0  0  0  3  0  0  0  0  0  0
  161.4220  206.5390  152.5230 C   0  0  0  0  0  3  0  0  0  0  0  0
  160.8430  204.6840  149.3660 C   0  0  0  0  0  2  0  0  0  0  0  0
  160.7250  203.8920  151.7350 C   0  0  0  0  0  2  0  0  0  0  0  0
  160.6370  202.1500  149.2840 C   0  0  1  0  0  3  0  0  0  0  0  0
  161.4340  204.8280  150.7660 C   0  0  2  0  0  3  0  0  0  0  0  0
  161.2720  201.7390  150.5830 C   0  0  0  0  0  3  0  0  0  0  0  0
  161.3130  202.5140  151.6760 C   0  0  0  0  0  3  0  0  0  0  0  0
  159.2690  202.3160  149.4290 F   0  0  0  0  0  0  0  0  0  0  0  0
  161.2920  203.3930  148.6840 C   0  0  0  0  0  2  0  0  0  0  0  0
  1  7  1  0  0  0  0
  2  1  1  6  0  0  0
  3  5  1  0  0  0  0
  6 16  1  6  0  0  0
  6  3  1  0  0  0  0
  7  5  1  0  0  0  0
  8  6  1  0  0  0  0
  8  2  1  0  0  0  0
  8  4  1  1  0  0  0
  9 11  1  6  0  0  0
  9 13  1  0  0  0  0
  9  2  1  0  0  0  0
 10 14  2  0  0  0  0
 13 12  1  6  0  0  0
 14 13  1  0  0  0  0
 15 10  1  0  0  0  0
 15 11  1  0  0  0  0
 17 18  2  0  0  0  0
 18 16  1  0  0  0  0
 19 20  2  0  0  0  0
 20 18  1  0  0  0  0
 21 24  1  0  0  0  0
 23 27  1  1  0  0  0
 23 25  1  0  0  0  0
 24 19  1  1  0  0  0
 24 22  1  0  0  0  0
 25 26  2  0  0  0  0
 26 22  1  0  0  0  0
 28 23  1  0  0  0  0
 28 21  1  0  0  0  0
M  END
>  <MODEL>
8

>  <REMARK>
 VINA RESULT:      -6.9      2.523      3.747
  Name = 
  5 active torsions:
  status: ('A' for Active; 'I' for Inactive)
    1  A    between atoms: C_2  and  C_3
    2  A    between atoms: N_5  and  C_20
    3  A    between atoms: N_5  and  C_21
    4  A    between atoms: C_10  and  C_13
    5  A    between atoms: C_20  and  C_25
                            x       y       z     vdW  Elec       q    Type
                         _______ _______ _______ _____ _____    ______ ____

>  <TORSDO>
F 5

$$$$
=
 OpenBabel11052422503D

 28 30  0  0  1  0  0  0  0  0999 V2000
  159.3560  211.3610  153.0260 O   0  0  0  0  0  0  0  0  0  0  0  0
  159.7030  211.9090  154.2680 C   0  0  2  0  0  3  0  0  0  0  0  0
  162.1500  210.4070  153.2190 C   0  0  0  0  0  2  0  0  0  0  0  0
  161.4170  211.6040  156.0830 C   0  0  0  0  0  1  0  0  0  0  0  0
  161.3760  210.7020  151.9340 C   0  0  0  0  0  2  0  0  0  0  0  0
  161.2750  209.8280  154.3450 C   0  0  1  0  0  3  0  0  0  0  0  0
  160.3480  211.8040  152.1450 C   0  0  0  0  0  2  0  0  0  0  0  0
  160.4800  210.8860  155.1260 C   0  0  2  0  0  3  0  0  0  0  0  0
  158.4320  212.3860  154.9900 C   0  0  1  0  0  3  0  0  0  0  0  0
  155.7920  212.6990  156.0200 C   0  0  0  0  0  3  0  0  0  0  0  0
  157.3210  212.7750  154.0150 C   0  0  0  0  0  2  0  0  0  0  0  0
  157.6990  210.1100  155.3250 O   0  0  0  0  0  1  0  0  0  0  0  0
  157.8870  211.3340  155.9740 C   0  0  2  0  0  3  0  0  0  0  0  0
  156.5800  211.7710  156.5850 C   0  0  0  0  0  3  0  0  0  0  0  0
  156.1940  213.4630  154.7820 C   0  0  0  0  0  2  0  0  0  0  0  0
  160.3920  208.7690  153.8660 N   0  0  0  0  0  2  0  0  0  0  0  0
  160.8770  206.2200  154.5360 S   0  0  0  0  0  0  0  0  0  0  0  0
  160.8380  207.4650  153.4720 C   0  0  0  0  0  0  0  0  0  0  0  0
  161.1420  206.0040  151.5390 C   0  0  0  0  0  3  0  0  0  0  0  0
  161.2410  207.2110  152.0860 C   0  0  0  0  0  3  0  0  0  0  0  0
  161.3840  207.0560  149.3230 C   0  0  0  0  0  2  0  0  0  0  0  0
  160.6860  204.6650  149.5420 C   0  0  0  0  0  2  0  0  0  0  0  0
  161.4110  206.0640  146.9810 C   0  0  1  0  0  3  0  0  0  0  0  0
  161.5550  205.7690  150.1270 C   0  0  2  0  0  3  0  0  0  0  0  0
  161.6980  204.6150  147.2550 C   0  0  0  0  0  3  0  0  0  0  0  0
  161.3760  203.9890  148.3960 C   0  0  0  0  0  3  0  0  0  0  0  0
  160.0480  206.3020  146.9280 F   0  0  0  0  0  0  0  0  0  0  0  0
  162.1040  206.9920  147.9780 C   0  0  0  0  0  2  0  0  0  0  0  0
  2  1  1  6  0  0  0
  2  9  1  0  0  0  0
  2  8  1  0  0  0  0
  3  6  1  0  0  0  0
  5  7  1  0  0  0  0
  5  3  1  0  0  0  0
  6 16  1  6  0  0  0
  6  8  1  0  0  0  0
  7  1  1  0  0  0  0
  8  4  1  6  0  0  0
  9 11  1  6  0  0  0
  9 13  1  0  0  0  0
 10 14  2  0  0  0  0
 11 15  1  0  0  0  0
 13 12  1  6  0  0  0
 13 14  1  0  0  0  0
 15 10  1  0  0  0  0
 18 16  1  0  0  0  0
 18 17  2  0  0  0  0
 19 20  2  0  0  0  0
 20 18  1  0  0  0  0
 21 24  1  0  0  0  0
 22 24  1  0  0  0  0
 23 27  1  1  0  0  0
 23 25  1  0  0  0  0
 23 28  1  0  0  0  0
 24 19  1  1  0  0  0
 25 26  2  0  0  0  0
 26 22  1  0  0  0  0
 28 21  1  0  0  0  0
M  END
>  <MODEL>
9

>  <REMARK>
 VINA RESULT:      -6.6      1.389      2.112
  Name = 
  5 active torsions:
  status: ('A' for Active; 'I' for Inactive)
    1  A    between atoms: C_2  and  C_3
    2  A    between atoms: N_5  and  C_20
    3  A    between atoms: N_5  and  C_21
    4  A    between atoms: C_10  and  C_13
    5  A    between atoms: C_20  and  C_25
                            x       y       z     vdW  Elec       q    Type
                         _______ _______ _______ _____ _____    ______ ____

>  <TORSDO>
F 5

$$$$
