=
 OpenBabel11052422413D

 31 35  0  0  1  0  0  0  0  0999 V2000
  158.7290  211.4290  155.7210 C   0  0  1  0  0  3  0  0  0  0  0  0
  159.4480  210.1580  156.1490 C   0  0  1  0  0  3  0  0  0  0  0  0
  159.4180  207.6400  155.9590 C   0  0  0  0  0  2  0  0  0  0  0  0
  157.5090  211.7520  156.6080 C   0  0  1  0  0  3  0  0  0  0  0  0
  157.1100  214.2550  156.8180 C   0  0  0  0  0  1  0  0  0  0  0  0
  158.9950  208.9620  155.3210 C   0  0  0  0  0  2  0  0  0  0  0  0
  159.7210  213.8100  154.9330 C   0  0  0  0  0  2  0  0  0  0  0  0
  161.1630  211.9190  155.8220 C   0  0  1  0  0  3  0  0  0  0  0  0
  160.9350  207.4980  156.0660 C   0  0  0  0  0  2  0  0  0  0  0  0
  157.3930  214.1360  153.9180 C   0  0  0  0  0  2  0  0  0  0  0  0
  159.7850  212.5370  155.7760 C   0  0  2  0  0  0  0  0  0  0  0  0
  158.8550  213.7470  153.6680 C   0  0  2  0  0  3  0  0  0  0  0  0
  161.4510  208.2940  157.2610 C   0  0  0  0  0  2  0  0  0  0  0  0
  156.5460  213.0550  154.5910 C   0  0  0  0  0  2  0  0  0  0  0  0
  156.7140  212.9640  156.1180 C   0  0  1  0  0  3  0  0  0  0  0  0
  160.6090  212.6520  157.0420 C   0  0  0  0  0  2  0  0  0  0  0  0
  160.9270  210.4140  155.8920 C   0  0  1  0  0  3  0  0  0  0  0  0
  161.8480  209.7330  156.9070 C   0  0  0  0  0  2  0  0  0  0  0  0
  157.7580  211.8480  152.4150 C   0  0  0  0  0  1  0  0  0  0  0  0
  159.0770  212.5330  152.7420 C   0  0  1  0  0  3  0  0  0  0  0  0
  161.0420  213.5500  149.0320 C   0  0  0  0  0  0  0  0  0  0  0  0
  159.4060  214.0450  150.7430 C   0  0  0  0  0  3  0  0  0  0  0  0
  161.1560  210.7700  151.5820 C   0  0  0  0  0  1  0  0  0  0  0  0
  161.6570  213.8720  147.8700 F   0  0  0  0  0  0  0  0  0  0  0  0
  160.0380  214.3750  149.5430 C   0  0  0  0  0  3  0  0  0  0  0  0
  160.7700  212.0450  150.9150 C   0  0  0  0  0  0  0  0  0  0  0  0
  159.7780  212.8910  151.4540 C   0  0  0  0  0  0  0  0  0  0  0  0
  161.3990  212.3840  149.7140 C   0  0  0  0  0  3  0  0  0  0  0  0
  156.5470  210.5750  156.7130 C   0  0  0  0  0  2  0  0  0  0  0  0
  155.3430  210.8840  156.0790 O   0  0  0  0  0  0  0  0  0  0  0  0
  155.1870  209.8860  155.1190 C   0  0  0  0  0  1  0  0  0  0  0  0
  1 11  1  0  0  0  0
  1  2  1  0  0  0  0
  1  4  1  0  0  0  0
  3  9  1  0  0  0  0
  4 29  1  0  0  0  0
  6  3  1  0  0  0  0
  6  2  1  0  0  0  0
  7 11  1  0  0  0  0
  8 17  1  0  0  0  0
  8 16  1  0  0  0  0
  9 13  1  0  0  0  0
 10 14  1  0  0  0  0
 11  8  1  0  0  0  0
 11 16  1  0  0  0  0
 12 10  1  0  0  0  0
 12  7  1  0  0  0  0
 14 15  1  0  0  0  0
 15  4  1  0  0  0  0
 15  5  1  0  0  0  0
 17  2  1  0  0  0  0
 17 18  1  0  0  0  0
 18 13  1  0  0  0  0
 19 20  1  0  0  0  0
 20 12  1  0  0  0  0
 21 25  2  0  0  0  0
 21 28  1  0  0  0  0
 22 27  2  0  0  0  0
 24 21  1  0  0  0  0
 25 22  1  0  0  0  0
 26 27  1  0  0  0  0
 26 23  1  0  0  0  0
 27 20  1  0  0  0  0
 28 26  2  0  0  0  0
 30 29  1  0  0  0  0
 31 30  1  0  0  0  0
M  END
>  <MODEL>
1

>  <REMARK>
 VINA RESULT:      -2.0      0.000      0.000
  Name = 
  4 active torsions:
  status: ('A' for Active; 'I' for Inactive)
    1  A    between atoms: O_2  and  C_25
    2  A    between atoms: C_9  and  C_22
    3  A    between atoms: C_9  and  C_23
    4  A    between atoms: C_12  and  C_25
                            x       y       z     vdW  Elec       q    Type
                         _______ _______ _______ _____ _____    ______ ____

>  <TORSDO>
F 4

$$$$
=
 OpenBabel11052422413D

 31 35  0  0  1  0  0  0  0  0999 V2000
  161.0400  208.7180  153.8360 C   0  0  1  0  0  3  0  0  0  0  0  0
  161.3280  208.3330  152.3920 C   0  0  1  0  0  3  0  0  0  0  0  0
  160.5290  206.9110  150.4660 C   0  0  0  0  0  2  0  0  0  0  0  0
  161.5980  207.6970  154.8490 C   0  0  1  0  0  3  0  0  0  0  0  0
  162.2920  208.7950  157.0360 C   0  0  0  0  0  1  0  0  0  0  0  0
  160.1400  207.6160  151.7630 C   0  0  0  0  0  2  0  0  0  0  0  0
  161.1680  211.1190  155.0590 C   0  0  0  0  0  2  0  0  0  0  0  0
  161.9380  210.7210  152.6720 C   0  0  1  0  0  3  0  0  0  0  0  0
  161.0200  207.8800  149.3940 C   0  0  0  0  0  2  0  0  0  0  0  0
  159.6510  210.0100  156.7970 C   0  0  0  0  0  2  0  0  0  0  0  0
  161.6580  210.1060  154.0230 C   0  0  2  0  0  0  0  0  0  0  0  0
  159.7350  210.9290  155.5730 C   0  0  2  0  0  3  0  0  0  0  0  0
  162.4680  208.2730  149.6690 C   0  0  0  0  0  2  0  0  0  0  0  0
  159.7740  208.5160  156.4900 C   0  0  0  0  0  2  0  0  0  0  0  0
  161.2160  208.0150  156.2960 C   0  0  1  0  0  3  0  0  0  0  0  0
  163.0940  210.2960  153.5760 C   0  0  0  0  0  2  0  0  0  0  0  0
  161.5690  209.6450  151.6560 C   0  0  1  0  0  3  0  0  0  0  0  0
  162.6040  209.5320  150.5340 C   0  0  0  0  0  2  0  0  0  0  0  0
  158.0600  209.3200  154.5810 C   0  0  0  0  0  1  0  0  0  0  0  0
  158.6420  210.7230  154.5040 C   0  0  1  0  0  3  0  0  0  0  0  0
  155.3990  213.5630  154.7840 C   0  0  0  0  0  0  0  0  0  0  0  0
  156.5980  211.6550  155.6630 C   0  0  0  0  0  3  0  0  0  0  0  0
  158.2430  212.7950  152.4240 C   0  0  0  0  0  1  0  0  0  0  0  0
  154.3830  214.4530  154.8750 F   0  0  0  0  0  0  0  0  0  0  0  0
  155.5480  212.5710  155.7550 C   0  0  0  0  0  3  0  0  0  0  0  0
  157.3440  212.7130  153.6100 C   0  0  0  0  0  0  0  0  0  0  0  0
  157.5200  211.7280  154.6050 C   0  0  0  0  0  0  0  0  0  0  0  0
  156.2910  213.6270  153.7110 C   0  0  0  0  0  3  0  0  0  0  0  0
  161.1370  206.2760  154.5470 C   0  0  0  0  0  2  0  0  0  0  0  0
  161.9340  205.7180  153.5470 O   0  0  0  0  0  0  0  0  0  0  0  0
  161.1840  204.6510  153.0560 C   0  0  0  0  0  1  0  0  0  0  0  0
  1 11  1  0  0  0  0
  1  4  1  0  0  0  0
  2  1  1  0  0  0  0
  3  6  1  0  0  0  0
  4 15  1  0  0  0  0
  6  2  1  0  0  0  0
  7 12  1  0  0  0  0
  8 16  1  0  0  0  0
  8 11  1  0  0  0  0
  9 13  1  0  0  0  0
  9  3  1  0  0  0  0
 11  7  1  0  0  0  0
 12 10  1  0  0  0  0
 13 18  1  0  0  0  0
 14 10  1  0  0  0  0
 15 14  1  0  0  0  0
 15  5  1  0  0  0  0
 16 11  1  0  0  0  0
 17  2  1  0  0  0  0
 17  8  1  0  0  0  0
 18 17  1  0  0  0  0
 20 19  1  0  0  0  0
 20 27  1  0  0  0  0
 20 12  1  0  0  0  0
 21 24  1  0  0  0  0
 21 25  1  0  0  0  0
 22 25  2  0  0  0  0
 23 26  1  0  0  0  0
 26 28  1  0  0  0  0
 26 27  2  0  0  0  0
 27 22  1  0  0  0  0
 28 21  2  0  0  0  0
 29  4  1  0  0  0  0
 30 29  1  0  0  0  0
 31 30  1  0  0  0  0
M  END
>  <MODEL>
2

>  <REMARK>
 VINA RESULT:      -0.6      3.150      5.922
  Name = 
  4 active torsions:
  status: ('A' for Active; 'I' for Inactive)
    1  A    between atoms: O_2  and  C_25
    2  A    between atoms: C_9  and  C_22
    3  A    between atoms: C_9  and  C_23
    4  A    between atoms: C_12  and  C_25
                            x       y       z     vdW  Elec       q    Type
                         _______ _______ _______ _____ _____    ______ ____

>  <TORSDO>
F 4

$$$$
=
 OpenBabel11052422413D

 31 35  0  0  1  0  0  0  0  0999 V2000
  158.2520  212.4070  153.6980 C   0  0  1  0  0  3  0  0  0  0  0  0
  157.1410  212.3980  154.7380 C   0  0  1  0  0  3  0  0  0  0  0  0
  154.8280  211.5180  155.2380 C   0  0  0  0  0  2  0  0  0  0  0  0
  158.0220  213.4560  152.5890 C   0  0  1  0  0  3  0  0  0  0  0  0
  160.2080  214.3890  151.6830 C   0  0  0  0  0  1  0  0  0  0  0  0
  156.1130  211.3140  154.4390 C   0  0  0  0  0  2  0  0  0  0  0  0
  160.9260  212.2260  154.0020 C   0  0  0  0  0  2  0  0  0  0  0  0
  159.3060  212.4200  155.9480 C   0  0  1  0  0  3  0  0  0  0  0  0
  155.0560  211.4440  156.7460 C   0  0  0  0  0  2  0  0  0  0  0  0
  160.8880  211.5570  151.5310 C   0  0  0  0  0  2  0  0  0  0  0  0
  159.5430  212.6730  154.4770 C   0  0  2  0  0  0  0  0  0  0  0  0
  160.9590  211.0770  152.9860 C   0  0  2  0  0  3  0  0  0  0  0  0
  155.6350  212.7610  157.2520 C   0  0  0  0  0  2  0  0  0  0  0  0
  159.4940  211.9770  151.0600 C   0  0  0  0  0  2  0  0  0  0  0  0
  159.0730  213.3960  151.4790 C   0  0  1  0  0  3  0  0  0  0  0  0
  159.5480  213.8410  155.4420 C   0  0  0  0  0  2  0  0  0  0  0  0
  157.8220  212.0900  156.0650 C   0  0  1  0  0  3  0  0  0  0  0  0
  157.1690  212.7880  157.2610 C   0  0  0  0  0  2  0  0  0  0  0  0
  158.7290  209.9290  152.6950 C   0  0  0  0  0  1  0  0  0  0  0  0
  160.1100  209.8340  153.3240 C   0  0  1  0  0  3  0  0  0  0  0  0
  161.9280  206.1230  152.0680 C   0  0  0  0  0  0  0  0  0  0  0  0
  161.1860  208.3700  151.5670 C   0  0  0  0  0  3  0  0  0  0  0  0
  160.3890  207.5580  155.2000 C   0  0  0  0  0  1  0  0  0  0  0  0
  162.5000  204.9610  151.6720 F   0  0  0  0  0  0  0  0  0  0  0  0
  161.7730  207.1700  151.1580 C   0  0  0  0  0  3  0  0  0  0  0  0
  160.8900  207.4660  153.8000 C   0  0  0  0  0  0  0  0  0  0  0  0
  160.7590  208.5400  152.8950 C   0  0  0  0  0  0  0  0  0  0  0  0
  161.4800  206.2700  153.3820 C   0  0  0  0  0  3  0  0  0  0  0  0
  156.6510  213.3160  151.9400 C   0  0  0  0  0  2  0  0  0  0  0  0
  156.5460  214.1830  150.8530 O   0  0  0  0  0  0  0  0  0  0  0  0
  155.1740  214.3430  150.6640 C   0  0  0  0  0  1  0  0  0  0  0  0
  1 11  1  0  0  0  0
  1  2  1  0  0  0  0
  2 17  1  0  0  0  0
  3  9  1  0  0  0  0
  4  1  1  0  0  0  0
  6  2  1  0  0  0  0
  6  3  1  0  0  0  0
  7 11  1  0  0  0  0
  8 17  1  0  0  0  0
  9 13  1  0  0  0  0
 10 12  1  0  0  0  0
 11 16  1  0  0  0  0
 11  8  1  0  0  0  0
 12 20  1  0  0  0  0
 12  7  1  0  0  0  0
 13 18  1  0  0  0  0
 14 15  1  0  0  0  0
 14 10  1  0  0  0  0
 15  5  1  0  0  0  0
 15  4  1  0  0  0  0
 16  8  1  0  0  0  0
 17 18  1  0  0  0  0
 19 20  1  0  0  0  0
 21 28  1  0  0  0  0
 22 27  2  0  0  0  0
 24 21  1  0  0  0  0
 25 22  1  0  0  0  0
 25 21  2  0  0  0  0
 26 23  1  0  0  0  0
 27 20  1  0  0  0  0
 27 26  1  0  0  0  0
 28 26  2  0  0  0  0
 29  4  1  0  0  0  0
 30 29  1  0  0  0  0
 31 30  1  0  0  0  0
M  END
>  <MODEL>
3

>  <REMARK>
 VINA RESULT:      -0.1      2.857      5.317
  Name = 
  4 active torsions:
  status: ('A' for Active; 'I' for Inactive)
    1  A    between atoms: O_2  and  C_25
    2  A    between atoms: C_9  and  C_22
    3  A    between atoms: C_9  and  C_23
    4  A    between atoms: C_12  and  C_25
                            x       y       z     vdW  Elec       q    Type
                         _______ _______ _______ _____ _____    ______ ____

>  <TORSDO>
F 4

$$$$
=
 OpenBabel11052422413D

 31 35  0  0  1  0  0  0  0  0999 V2000
  161.0770  210.5140  151.2050 C   0  0  1  0  0  3  0  0  0  0  0  0
  160.3490  210.8760  152.4920 C   0  0  1  0  0  3  0  0  0  0  0  0
  158.0800  211.3910  153.4710 C   0  0  0  0  0  2  0  0  0  0  0  0
  161.3960  211.7460  150.3330 C   0  0  1  0  0  3  0  0  0  0  0  0
  163.5450  211.4510  149.0040 C   0  0  0  0  0  1  0  0  0  0  0  0
  158.8440  210.7000  152.3430 C   0  0  0  0  0  2  0  0  0  0  0  0
  163.0800  208.7610  150.7700 C   0  0  0  0  0  2  0  0  0  0  0  0
  162.2050  209.3410  153.0820 C   0  0  1  0  0  3  0  0  0  0  0  0
  158.4140  210.8150  154.8460 C   0  0  0  0  0  2  0  0  0  0  0  0
  162.3050  208.8980  148.3340 C   0  0  0  0  0  2  0  0  0  0  0  0
  162.3470  209.7800  151.6430 C   0  0  2  0  0  0  0  0  0  0  0  0
  162.2610  208.1100  149.6480 C   0  0  2  0  0  3  0  0  0  0  0  0
  159.7440  211.3760  155.3380 C   0  0  0  0  0  2  0  0  0  0  0  0
  161.4200  210.1450  148.3010 C   0  0  0  0  0  2  0  0  0  0  0  0
  162.0250  211.3820  148.9860 C   0  0  1  0  0  3  0  0  0  0  0  0
  163.2010  210.4380  152.7080 C   0  0  0  0  0  2  0  0  0  0  0  0
  160.8660  209.9050  153.5450 C   0  0  1  0  0  3  0  0  0  0  0  0
  160.9510  210.5150  154.9460 C   0  0  0  0  0  2  0  0  0  0  0  0
  159.9880  207.3790  148.8230 C   0  0  0  0  0  1  0  0  0  0  0  0
  160.8810  207.5430  150.0440 C   0  0  1  0  0  3  0  0  0  0  0  0
  161.1820  203.7750  152.1350 C   0  0  0  0  0  0  0  0  0  0  0  0
  161.0130  206.1880  152.1730 C   0  0  0  0  0  3  0  0  0  0  0  0
  161.1130  204.9880  148.5610 C   0  0  0  0  0  1  0  0  0  0  0  0
  161.2750  202.5950  152.7920 F   0  0  0  0  0  0  0  0  0  0  0  0
  161.1120  204.9710  152.8520 C   0  0  0  0  0  3  0  0  0  0  0  0
  161.0760  205.0120  150.0510 C   0  0  0  0  0  0  0  0  0  0  0  0
  160.9710  206.2220  150.7690 C   0  0  0  0  0  0  0  0  0  0  0  0
  161.1730  203.7990  150.7380 C   0  0  0  0  0  3  0  0  0  0  0  0
  160.1580  212.5910  150.0560 C   0  0  0  0  0  2  0  0  0  0  0  0
  160.4210  213.5000  149.0300 O   0  0  0  0  0  0  0  0  0  0  0  0
  159.1750  213.7480  148.4560 C   0  0  0  0  0  1  0  0  0  0  0  0
  1 11  1  0  0  0  0
  1  2  1  0  0  0  0
  2 17  1  0  0  0  0
  3  9  1  0  0  0  0
  4  1  1  0  0  0  0
  6  2  1  0  0  0  0
  6  3  1  0  0  0  0
  7 11  1  0  0  0  0
  8 17  1  0  0  0  0
  9 13  1  0  0  0  0
 10 12  1  0  0  0  0
 11 16  1  0  0  0  0
 11  8  1  0  0  0  0
 12 20  1  0  0  0  0
 12  7  1  0  0  0  0
 14 10  1  0  0  0  0
 14 15  1  0  0  0  0
 15  5  1  0  0  0  0
 15  4  1  0  0  0  0
 16  8  1  0  0  0  0
 17 18  1  0  0  0  0
 18 13  1  0  0  0  0
 19 20  1  0  0  0  0
 20 27  1  0  0  0  0
 21 24  1  0  0  0  0
 21 25  1  0  0  0  0
 22 25  2  0  0  0  0
 23 26  1  0  0  0  0
 26 28  1  0  0  0  0
 26 27  2  0  0  0  0
 27 22  1  0  0  0  0
 28 21  2  0  0  0  0
 29  4  1  0  0  0  0
 30 29  1  0  0  0  0
 31 30  1  0  0  0  0
M  END
>  <MODEL>
4

>  <REMARK>
 VINA RESULT:      -0.1      4.225      7.280
  Name = 
  4 active torsions:
  status: ('A' for Active; 'I' for Inactive)
    1  A    between atoms: O_2  and  C_25
    2  A    between atoms: C_9  and  C_22
    3  A    between atoms: C_9  and  C_23
    4  A    between atoms: C_12  and  C_25
                            x       y       z     vdW  Elec       q    Type
                         _______ _______ _______ _____ _____    ______ ____

>  <TORSDO>
F 4

$$$$
=
 OpenBabel11052422413D

 31 35  0  0  1  0  0  0  0  0999 V2000
  160.7520  209.4090  154.6200 C   0  0  1  0  0  3  0  0  0  0  0  0
  160.7580  208.2910  153.5860 C   0  0  1  0  0  3  0  0  0  0  0  0
  161.0710  207.7910  151.1310 C   0  0  0  0  0  2  0  0  0  0  0  0
  159.4050  210.1580  154.6800 C   0  0  1  0  0  3  0  0  0  0  0  0
  158.8890  211.0180  157.0180 C   0  0  0  0  0  1  0  0  0  0  0  0
  161.3790  208.7550  152.2750 C   0  0  0  0  0  2  0  0  0  0  0  0
  161.7450  209.4680  157.1270 C   0  0  0  0  0  2  0  0  0  0  0  0
  161.6880  207.3730  155.6940 C   0  0  1  0  0  3  0  0  0  0  0  0
  161.6410  206.3950  151.3690 C   0  0  0  0  0  2  0  0  0  0  0  0
  161.6260  212.0070  156.8210 C   0  0  0  0  0  2  0  0  0  0  0  0
  161.0930  208.7370  155.9530 C   0  0  2  0  0  0  0  0  0  0  0  0
  162.5100  210.7540  156.7890 C   0  0  2  0  0  3  0  0  0  0  0  0
  160.7430  205.6200  152.3280 C   0  0  0  0  0  2  0  0  0  0  0  0
  160.7200  212.1870  155.6020 C   0  0  0  0  0  2  0  0  0  0  0  0
  159.4260  211.3540  155.6340 C   0  0  1  0  0  3  0  0  0  0  0  0
  160.3060  207.4990  156.3320 C   0  0  0  0  0  2  0  0  0  0  0  0
  161.6150  207.1830  154.1820 C   0  0  1  0  0  3  0  0  0  0  0  0
  161.1450  205.7770  153.8000 C   0  0  0  0  0  2  0  0  0  0  0  0
  162.8570  211.0790  154.3080 C   0  0  0  0  0  1  0  0  0  0  0  0
  163.5120  210.6720  155.6190 C   0  0  1  0  0  3  0  0  0  0  0  0
  167.0100  213.1280  156.2410 C   0  0  0  0  0  0  0  0  0  0  0  0
  164.9390  212.1830  157.0570 C   0  0  0  0  0  3  0  0  0  0  0  0
  165.4970  211.0780  153.4570 C   0  0  0  0  0  1  0  0  0  0  0  0
  168.1070  213.8980  156.4390 F   0  0  0  0  0  0  0  0  0  0  0  0
  166.0680  212.9790  157.2600 C   0  0  0  0  0  3  0  0  0  0  0  0
  165.6840  211.6980  154.8000 C   0  0  0  0  0  0  0  0  0  0  0  0
  164.7450  211.5160  155.8360 C   0  0  0  0  0  0  0  0  0  0  0  0
  166.8130  212.4950  155.0120 C   0  0  0  0  0  3  0  0  0  0  0  0
  158.9650  210.6620  153.3100 C   0  0  0  0  0  2  0  0  0  0  0  0
  158.3670  211.9170  153.4330 O   0  0  0  0  0  0  0  0  0  0  0  0
  158.6470  212.5570  152.2270 C   0  0  0  0  0  1  0  0  0  0  0  0
  1  4  1  0  0  0  0
  1 11  1  0  0  0  0
  2 17  1  0  0  0  0
  2  1  1  0  0  0  0
  3  9  1  0  0  0  0
  3  6  1  0  0  0  0
  4 15  1  0  0  0  0
  6  2  1  0  0  0  0
  8 11  1  0  0  0  0
  8 16  1  0  0  0  0
  9 13  1  0  0  0  0
 11 16  1  0  0  0  0
 11  7  1  0  0  0  0
 12 10  1  0  0  0  0
 12  7  1  0  0  0  0
 13 18  1  0  0  0  0
 14 15  1  0  0  0  0
 14 10  1  0  0  0  0
 15  5  1  0  0  0  0
 17  8  1  0  0  0  0
 18 17  1  0  0  0  0
 19 20  1  0  0  0  0
 20 27  1  0  0  0  0
 20 12  1  0  0  0  0
 21 24  1  0  0  0  0
 21 25  1  0  0  0  0
 22 25  2  0  0  0  0
 23 26  1  0  0  0  0
 26 28  1  0  0  0  0
 26 27  2  0  0  0  0
 27 22  1  0  0  0  0
 28 21  2  0  0  0  0
 29 30  1  0  0  0  0
 29  4  1  0  0  0  0
 31 30  1  0  0  0  0
M  END
>  <MODEL>
5

>  <REMARK>
 VINA RESULT:       0.0      3.584      5.761
  Name = 
  4 active torsions:
  status: ('A' for Active; 'I' for Inactive)
    1  A    between atoms: O_2  and  C_25
    2  A    between atoms: C_9  and  C_22
    3  A    between atoms: C_9  and  C_23
    4  A    between atoms: C_12  and  C_25
                            x       y       z     vdW  Elec       q    Type
                         _______ _______ _______ _____ _____    ______ ____

>  <TORSDO>
F 4

$$$$
=
 OpenBabel11052422413D

 31 35  0  0  1  0  0  0  0  0999 V2000
  159.8140  211.0570  155.2340 C   0  0  1  0  0  3  0  0  0  0  0  0
  158.4540  211.7420  155.2070 C   0  0  1  0  0  3  0  0  0  0  0  0
  157.1810  213.7030  154.2560 C   0  0  0  0  0  2  0  0  0  0  0  0
  160.7840  211.6970  156.2490 C   0  0  1  0  0  3  0  0  0  0  0  0
  162.3950  209.9970  157.2410 C   0  0  0  0  0  1  0  0  0  0  0  0
  158.3730  212.7640  154.0810 C   0  0  0  0  0  2  0  0  0  0  0  0
  160.4470  208.4370  155.1560 C   0  0  0  0  0  2  0  0  0  0  0  0
  158.0640  209.2960  155.3350 C   0  0  1  0  0  3  0  0  0  0  0  0
  155.8430  212.9690  154.2240 C   0  0  0  0  0  2  0  0  0  0  0  0
  162.7480  209.2940  154.4320 C   0  0  0  0  0  2  0  0  0  0  0  0
  159.5280  209.5900  155.5630 C   0  0  2  0  0  0  0  0  0  0  0  0
  161.4030  208.7070  153.9870 C   0  0  2  0  0  3  0  0  0  0  0  0
  155.5790  212.3060  155.5720 C   0  0  0  0  0  2  0  0  0  0  0  0
  162.7140  210.7810  154.7910 C   0  0  0  0  0  2  0  0  0  0  0  0
  162.1870  211.0900  156.2030 C   0  0  1  0  0  3  0  0  0  0  0  0
  158.6340  209.3020  156.7520 C   0  0  0  0  0  2  0  0  0  0  0  0
  157.4400  210.6340  154.9530 C   0  0  1  0  0  3  0  0  0  0  0  0
  156.0990  210.8650  155.6530 C   0  0  0  0  0  2  0  0  0  0  0  0
  161.0990  210.8210  152.6390 C   0  0  0  0  0  1  0  0  0  0  0  0
  160.7830  209.3360  152.7220 C   0  0  1  0  0  3  0  0  0  0  0  0
  162.0320  207.4330  149.0510 C   0  0  0  0  0  0  0  0  0  0  0  0
  161.5980  209.4380  150.3320 C   0  0  0  0  0  3  0  0  0  0  0  0
  160.7870  206.3850  152.4570 C   0  0  0  0  0  1  0  0  0  0  0  0
  162.4250  206.8380  147.9000 F   0  0  0  0  0  0  0  0  0  0  0  0
  162.0010  208.8250  149.1440 C   0  0  0  0  0  3  0  0  0  0  0  0
  161.2350  207.2590  151.3360 C   0  0  0  0  0  0  0  0  0  0  0  0
  161.2330  208.6650  151.4470 C   0  0  0  0  0  0  0  0  0  0  0  0
  161.6420  206.6530  150.1430 C   0  0  0  0  0  3  0  0  0  0  0  0
  160.9200  213.2010  156.0450 C   0  0  0  0  0  2  0  0  0  0  0  0
  160.7520  213.8650  157.2610 O   0  0  0  0  0  0  0  0  0  0  0  0
  159.4200  214.2760  157.2540 C   0  0  0  0  0  1  0  0  0  0  0  0
  1 11  1  0  0  0  0
  1  4  1  0  0  0  0
  2  1  1  0  0  0  0
  6  3  1  0  0  0  0
  6  2  1  0  0  0  0
  7 11  1  0  0  0  0
  8 11  1  0  0  0  0
  8 16  1  0  0  0  0
  9  3  1  0  0  0  0
  9 13  1  0  0  0  0
 10 14  1  0  0  0  0
 11 16  1  0  0  0  0
 12 10  1  0  0  0  0
 12  7  1  0  0  0  0
 13 18  1  0  0  0  0
 14 15  1  0  0  0  0
 15  4  1  0  0  0  0
 15  5  1  0  0  0  0
 17  2  1  0  0  0  0
 17  8  1  0  0  0  0
 17 18  1  0  0  0  0
 19 20  1  0  0  0  0
 20 12  1  0  0  0  0
 21 25  2  0  0  0  0
 21 28  1  0  0  0  0
 22 27  2  0  0  0  0
 24 21  1  0  0  0  0
 25 22  1  0  0  0  0
 26 27  1  0  0  0  0
 26 23  1  0  0  0  0
 27 20  1  0  0  0  0
 28 26  2  0  0  0  0
 29  4  1  0  0  0  0
 29 30  1  0  0  0  0
 31 30  1  0  0  0  0
M  END
>  <MODEL>
6

>  <REMARK>
 VINA RESULT:       0.1      2.654      5.377
  Name = 
  4 active torsions:
  status: ('A' for Active; 'I' for Inactive)
    1  A    between atoms: O_2  and  C_25
    2  A    between atoms: C_9  and  C_22
    3  A    between atoms: C_9  and  C_23
    4  A    between atoms: C_12  and  C_25
                            x       y       z     vdW  Elec       q    Type
                         _______ _______ _______ _____ _____    ______ ____

>  <TORSDO>
F 4

$$$$
=
 OpenBabel11052422413D

 31 35  0  0  1  0  0  0  0  0999 V2000
  160.0290  210.7090  154.6680 C   0  0  1  0  0  3  0  0  0  0  0  0
  159.4430  211.7510  153.7250 C   0  0  1  0  0  3  0  0  0  0  0  0
  158.4070  214.0510  153.6230 C   0  0  0  0  0  2  0  0  0  0  0  0
  158.9470  209.8420  155.3450 C   0  0  1  0  0  3  0  0  0  0  0  0
  159.7660  207.4790  155.8120 C   0  0  0  0  0  1  0  0  0  0  0  0
  159.3110  213.1050  154.4110 C   0  0  0  0  0  2  0  0  0  0  0  0
  162.1840  209.1140  154.3790 C   0  0  0  0  0  2  0  0  0  0  0  0
  161.2900  210.6070  152.5300 C   0  0  1  0  0  3  0  0  0  0  0  0
  158.9520  214.3620  152.2310 C   0  0  0  0  0  2  0  0  0  0  0  0
  162.0430  208.9200  156.9280 C   0  0  0  0  0  2  0  0  0  0  0  0
  160.9820  209.8710  153.8130 C   0  0  2  0  0  0  0  0  0  0  0  0
  162.7200  209.6000  155.7310 C   0  0  2  0  0  3  0  0  0  0  0  0
  158.6490  213.2070  151.2820 C   0  0  0  0  0  2  0  0  0  0  0  0
  160.6440  209.4430  157.2580 C   0  0  0  0  0  2  0  0  0  0  0  0
  159.5180  208.8690  156.3790 C   0  0  1  0  0  3  0  0  0  0  0  0
  160.4500  209.3310  152.5000 C   0  0  0  0  0  2  0  0  0  0  0  0
  160.4320  211.8670  152.5730 C   0  0  1  0  0  3  0  0  0  0  0  0
  159.7650  212.1570  151.2260 C   0  0  0  0  0  2  0  0  0  0  0  0
  162.2530  211.6730  157.0970 C   0  0  0  0  0  1  0  0  0  0  0  0
  162.9620  211.1170  155.8710 C   0  0  1  0  0  3  0  0  0  0  0  0
  167.1380  212.1980  156.0860 C   0  0  0  0  0  0  0  0  0  0  0  0
  164.9880  211.9110  157.1560 C   0  0  0  0  0  3  0  0  0  0  0  0
  164.6770  211.0700  153.4560 C   0  0  0  0  0  1  0  0  0  0  0  0
  168.4480  212.5360  156.1560 F   0  0  0  0  0  0  0  0  0  0  0  0
  166.3380  212.2630  157.2270 C   0  0  0  0  0  3  0  0  0  0  0  0
  165.2330  211.4470  154.7870 C   0  0  0  0  0  0  0  0  0  0  0  0
  164.4260  211.4790  155.9430 C   0  0  0  0  0  0  0  0  0  0  0  0
  166.5830  211.7990  154.8680 C   0  0  0  0  0  3  0  0  0  0  0  0
  157.8830  210.6850  156.0370 C   0  0  0  0  0  2  0  0  0  0  0  0
  156.7080  210.6820  155.2850 O   0  0  0  0  0  0  0  0  0  0  0  0
  156.0280  211.8280  155.6940 C   0  0  0  0  0  1  0  0  0  0  0  0
  1  4  1  0  0  0  0
  2  6  1  0  0  0  0
  2  1  1  0  0  0  0
  3  6  1  0  0  0  0
  4 29  1  0  0  0  0
  4 15  1  0  0  0  0
  5 15  1  0  0  0  0
  7 12  1  0  0  0  0
  8 17  1  0  0  0  0
  8 11  1  0  0  0  0
  9  3  1  0  0  0  0
 10 14  1  0  0  0  0
 11  7  1  0  0  0  0
 11  1  1  0  0  0  0
 12 20  1  0  0  0  0
 12 10  1  0  0  0  0
 13  9  1  0  0  0  0
 15 14  1  0  0  0  0
 16  8  1  0  0  0  0
 16 11  1  0  0  0  0
 17  2  1  0  0  0  0
 18 13  1  0  0  0  0
 18 17  1  0  0  0  0
 20 27  1  0  0  0  0
 20 19  1  0  0  0  0
 21 24  1  0  0  0  0
 21 25  1  0  0  0  0
 22 25  2  0  0  0  0
 23 26  1  0  0  0  0
 26 28  1  0  0  0  0
 26 27  2  0  0  0  0
 27 22  1  0  0  0  0
 28 21  2  0  0  0  0
 30 31  1  0  0  0  0
 30 29  1  0  0  0  0
M  END
>  <MODEL>
7

>  <REMARK>
 VINA RESULT:       0.4      3.180      6.174
  Name = 
  4 active torsions:
  status: ('A' for Active; 'I' for Inactive)
    1  A    between atoms: O_2  and  C_25
    2  A    between atoms: C_9  and  C_22
    3  A    between atoms: C_9  and  C_23
    4  A    between atoms: C_12  and  C_25
                            x       y       z     vdW  Elec       q    Type
                         _______ _______ _______ _____ _____    ______ ____

>  <TORSDO>
F 4

$$$$
