=
 OpenBabel11052422383D

 31 35  0  0  0  0  0  0  0  0999 V2000
  161.3620  205.3380  150.7580 C   0  0  0  0  0  0  0  0  0  0  0  0
  161.1970  204.1260  150.0370 C   0  0  0  0  0  0  0  0  0  0  0  0
  161.1380  202.8850  147.9420 C   0  0  0  0  0  0  0  0  0  0  0  0
  161.3110  204.0840  148.6370 C   0  0  0  0  0  3  0  0  0  0  0  0
  160.7440  202.9390  152.1110 C   0  0  0  0  0  3  0  0  0  0  0  0
  161.2560  202.8610  146.5920 F   0  0  0  0  0  0  0  0  0  0  0  0
  161.2250  205.3210  152.1760 C   0  0  0  0  0  0  0  0  0  0  0  0
  160.8440  201.7100  148.6370 C   0  0  0  0  0  3  0  0  0  0  0  0
  160.9090  204.1240  152.8230 C   0  0  0  0  0  3  0  0  0  0  0  0
  160.8900  202.9300  150.7280 C   0  0  0  0  0  0  0  0  0  0  0  0
  160.7180  201.7330  150.0270 C   0  0  0  0  0  3  0  0  0  0  0  0
  161.6020  206.6000  150.0250 C   0  0  0  0  0  0  0  0  0  0  0  0
  161.9580  209.0140  149.9580 C   0  0  0  0  0  0  0  0  0  0  0  0
  161.7540  207.7870  147.8000 C   0  0  0  0  0  2  0  0  0  0  0  0
  161.6600  207.7640  150.6780 C   0  0  0  0  0  3  0  0  0  0  0  0
  161.8280  206.5720  148.6110 N   0  0  0  0  0  2  0  0  0  0  0  0
  162.0490  209.0150  148.6180 C   0  0  0  0  0  3  0  0  0  0  0  0
  162.1670  210.1780  150.7040 O   0  0  0  0  0  0  0  0  0  0  0  0
  162.4790  210.1630  152.0920 C   0  0  0  0  0  1  0  0  0  0  0  0
  161.4170  206.4870  153.0660 C   0  0  0  0  0  3  0  0  0  0  0  0
  160.7930  206.6740  154.2260 C   0  0  0  0  0  3  0  0  0  0  0  0
  159.9180  211.8040  155.2640 C   0  0  0  0  0  0  0  0  0  0  0  0
  159.6660  209.7170  154.0040 C   0  0  0  0  0  3  0  0  0  0  0  0
  161.8240  209.0330  156.6800 O   0  0  0  0  0  0  0  0  0  0  0  0
  161.8300  207.8310  156.1650 N   0  0  0  0  0  0  0  0  0  0  0  0
  159.5870  213.2430  155.4340 C   0  0  0  0  0  1  0  0  0  0  0  0
  161.0300  207.8510  155.0720 C   0  0  0  0  0  0  0  0  0  0  0  0
  159.3650  211.0800  154.1840 C   0  0  0  0  0  3  0  0  0  0  0  0
  161.0590  209.8260  155.9740 C   0  0  0  0  0  0  0  0  0  0  0  0
  160.5230  209.1270  154.9300 C   0  0  0  0  0  0  0  0  0  0  0  0
  160.7820  211.1740  156.1810 C   0  0  0  0  0  3  0  0  0  0  0  0
  1  7  1  0  0  0  0
  2 10  1  0  0  0  0
  2  1  2  0  0  0  0
  3  4  2  0  0  0  0
  3  8  1  0  0  0  0
  4  2  1  0  0  0  0
  5  9  1  0  0  0  0
  6  3  1  0  0  0  0
  7  9  2  0  0  0  0
  7 20  1  0  0  0  0
  8 11  2  0  0  0  0
 10  5  2  0  0  0  0
 11 10  1  0  0  0  0
 12 15  2  0  0  0  0
 12  1  1  0  0  0  0
 13 15  1  0  0  0  0
 13 18  1  0  0  0  0
 14 16  1  0  0  0  0
 14 17  1  0  0  0  0
 16 12  1  0  0  0  0
 17 13  2  0  0  0  0
 18 19  1  0  0  0  0
 20 21  2  0  0  0  0
 21 27  1  0  0  0  0
 22 26  1  0  0  0  0
 22 31  1  0  0  0  0
 23 28  1  0  0  0  0
 23 30  2  0  0  0  0
 25 24  1  0  0  0  0
 27 25  2  0  0  0  0
 28 22  2  0  0  0  0
 29 31  2  0  0  0  0
 29 24  1  0  0  0  0
 30 27  1  0  0  0  0
 30 29  1  0  0  0  0
M  END
>  <MODEL>
1

>  <REMARK>
 VINA RESULT:     -10.6      0.000      0.000
  Name = 
  4 active torsions:
  status: ('A' for Active; 'I' for Inactive)
    1  A    between atoms: O_2  and  C_13
    2  A    between atoms: C_4  and  C_12
    3  A    between atoms: C_9  and  C_23
    4  A    between atoms: C_15  and  C_21
                            x       y       z     vdW  Elec       q    Type
                         _______ _______ _______ _____ _____    ______ ____

>  <TORSDO>
F 4

$$$$
=
 OpenBabel11052422383D

 31 35  0  0  0  0  0  0  0  0999 V2000
  161.1420  204.6240  150.1680 C   0  0  0  0  0  0  0  0  0  0  0  0
  161.1450  203.3130  149.6230 C   0  0  0  0  0  0  0  0  0  0  0  0
  161.2390  201.7980  147.7180 C   0  0  0  0  0  0  0  0  0  0  0  0
  161.2470  203.0940  148.2380 C   0  0  0  0  0  3  0  0  0  0  0  0
  160.8930  202.3720  151.8520 C   0  0  0  0  0  3  0  0  0  0  0  0
  161.3430  201.6050  146.3810 F   0  0  0  0  0  0  0  0  0  0  0  0
  161.0260  204.7840  151.5790 C   0  0  0  0  0  0  0  0  0  0  0  0
  161.1260  200.7010  148.5740 C   0  0  0  0  0  3  0  0  0  0  0  0
  160.8950  203.6550  152.3920 C   0  0  0  0  0  3  0  0  0  0  0  0
  161.0220  202.1930  150.4790 C   0  0  0  0  0  0  0  0  0  0  0  0
  161.0150  200.8980  149.9520 C   0  0  0  0  0  3  0  0  0  0  0  0
  161.1890  205.7940  149.2640 C   0  0  0  0  0  0  0  0  0  0  0  0
  160.8820  206.8390  147.0800 C   0  0  0  0  0  0  0  0  0  0  0  0
  161.8680  208.2030  148.9160 C   0  0  0  0  0  2  0  0  0  0  0  0
  160.8940  205.6640  147.9680 C   0  0  0  0  0  3  0  0  0  0  0  0
  161.5010  207.0890  149.7910 N   0  0  0  0  0  2  0  0  0  0  0  0
  161.2910  208.0330  147.5370 C   0  0  0  0  0  3  0  0  0  0  0  0
  160.4120  206.6790  145.7730 O   0  0  0  0  0  0  0  0  0  0  0  0
  160.8530  205.6360  144.9120 C   0  0  0  0  0  1  0  0  0  0  0  0
  161.0590  206.0770  152.2970 C   0  0  0  0  0  3  0  0  0  0  0  0
  161.1540  206.2160  153.6160 C   0  0  0  0  0  3  0  0  0  0  0  0
  160.2510  211.4430  153.4310 C   0  0  0  0  0  0  0  0  0  0  0  0
  160.2800  209.1590  152.5400 C   0  0  0  0  0  3  0  0  0  0  0  0
  161.5340  208.9910  155.8090 O   0  0  0  0  0  0  0  0  0  0  0  0
  161.6350  207.7150  155.5380 N   0  0  0  0  0  0  0  0  0  0  0  0
  159.9500  212.8860  153.2390 C   0  0  0  0  0  1  0  0  0  0  0  0
  161.1890  207.5300  154.2730 C   0  0  0  0  0  0  0  0  0  0  0  0
  160.0020  210.5300  152.3810 C   0  0  0  0  0  3  0  0  0  0  0  0
  161.0440  209.6360  154.7810 C   0  0  0  0  0  0  0  0  0  0  0  0
  160.8030  208.7540  153.7660 C   0  0  0  0  0  0  0  0  0  0  0  0
  160.7820  210.9970  154.6570 C   0  0  0  0  0  3  0  0  0  0  0  0
  1  7  1  0  0  0  0
  2  1  2  0  0  0  0
  2 10  1  0  0  0  0
  3  4  2  0  0  0  0
  3  8  1  0  0  0  0
  4  2  1  0  0  0  0
  5  9  1  0  0  0  0
  6  3  1  0  0  0  0
  7 20  1  0  0  0  0
  7  9  2  0  0  0  0
  8 11  2  0  0  0  0
 10  5  2  0  0  0  0
 11 10  1  0  0  0  0
 12 16  1  0  0  0  0
 12  1  1  0  0  0  0
 13 17  2  0  0  0  0
 13 15  1  0  0  0  0
 14 16  1  0  0  0  0
 15 12  2  0  0  0  0
 17 14  1  0  0  0  0
 18 13  1  0  0  0  0
 19 18  1  0  0  0  0
 20 21  2  0  0  0  0
 21 27  1  0  0  0  0
 22 31  1  0  0  0  0
 23 30  2  0  0  0  0
 25 24  1  0  0  0  0
 26 22  1  0  0  0  0
 27 25  2  0  0  0  0
 28 23  1  0  0  0  0
 28 22  2  0  0  0  0
 29 24  1  0  0  0  0
 30 27  1  0  0  0  0
 30 29  1  0  0  0  0
 31 29  2  0  0  0  0
M  END
>  <MODEL>
2

>  <REMARK>
 VINA RESULT:     -10.3      1.704      2.426
  Name = 
  4 active torsions:
  status: ('A' for Active; 'I' for Inactive)
    1  A    between atoms: O_2  and  C_13
    2  A    between atoms: C_4  and  C_12
    3  A    between atoms: C_9  and  C_23
    4  A    between atoms: C_15  and  C_21
                            x       y       z     vdW  Elec       q    Type
                         _______ _______ _______ _____ _____    ______ ____

>  <TORSDO>
F 4

$$$$
=
 OpenBabel11052422383D

 31 35  0  0  0  0  0  0  0  0999 V2000
  161.1930  207.2230  151.8220 C   0  0  0  0  0  0  0  0  0  0  0  0
  160.9170  208.4160  152.5390 C   0  0  0  0  0  0  0  0  0  0  0  0
  160.5960  210.8300  152.6160 C   0  0  0  0  0  0  0  0  0  0  0  0
  160.8610  209.6640  151.8940 C   0  0  0  0  0  3  0  0  0  0  0  0
  160.7870  207.1540  154.6150 C   0  0  0  0  0  3  0  0  0  0  0  0
  160.5400  212.0230  151.9770 F   0  0  0  0  0  0  0  0  0  0  0  0
  161.2480  205.9880  152.5320 C   0  0  0  0  0  0  0  0  0  0  0  0
  160.3870  210.7670  153.9950 C   0  0  0  0  0  3  0  0  0  0  0  0
  161.0520  205.9800  153.9150 C   0  0  0  0  0  3  0  0  0  0  0  0
  160.7120  208.3680  153.9390 C   0  0  0  0  0  0  0  0  0  0  0  0
  160.4480  209.5380  154.6550 C   0  0  0  0  0  3  0  0  0  0  0  0
  161.4870  207.2890  150.3740 C   0  0  0  0  0  0  0  0  0  0  0  0
  160.9650  206.7690  148.0470 C   0  0  0  0  0  0  0  0  0  0  0  0
  163.1090  207.9340  148.5470 C   0  0  0  0  0  2  0  0  0  0  0  0
  160.7080  206.6550  149.4930 C   0  0  0  0  0  3  0  0  0  0  0  0
  162.5850  208.0810  149.9050 N   0  0  0  0  0  2  0  0  0  0  0  0
  162.0600  207.4070  147.6050 C   0  0  0  0  0  3  0  0  0  0  0  0
  160.0300  206.2230  147.1610 O   0  0  0  0  0  0  0  0  0  0  0  0
  160.2500  206.1380  145.7580 C   0  0  0  0  0  1  0  0  0  0  0  0
  161.4740  204.6610  151.9200 C   0  0  0  0  0  3  0  0  0  0  0  0
  160.6180  204.0330  151.1190 C   0  0  0  0  0  3  0  0  0  0  0  0
  161.0380  200.9320  146.8320 C   0  0  0  0  0  0  0  0  0  0  0  0
  160.6130  203.0320  148.0240 C   0  0  0  0  0  3  0  0  0  0  0  0
  161.4140  200.6310  150.4500 O   0  0  0  0  0  0  0  0  0  0  0  0
  161.2330  201.6310  151.2740 N   0  0  0  0  0  0  0  0  0  0  0  0
  161.1180  200.1830  145.5510 C   0  0  0  0  0  1  0  0  0  0  0  0
  160.9010  202.7160  150.5340 C   0  0  0  0  0  0  0  0  0  0  0  0
  160.6950  202.3030  146.8220 C   0  0  0  0  0  3  0  0  0  0  0  0
  161.2160  201.0190  149.2160 C   0  0  0  0  0  0  0  0  0  0  0  0
  160.8840  202.3440  149.2050 C   0  0  0  0  0  0  0  0  0  0  0  0
  161.3050  200.2690  148.0460 C   0  0  0  0  0  3  0  0  0  0  0  0
  1  7  2  0  0  0  0
  1  2  1  0  0  0  0
  2 10  1  0  0  0  0
  3  8  2  0  0  0  0
  4  2  2  0  0  0  0
  4  3  1  0  0  0  0
  6  3  1  0  0  0  0
  7  9  1  0  0  0  0
  8 11  1  0  0  0  0
  9  5  2  0  0  0  0
 10  5  1  0  0  0  0
 10 11  2  0  0  0  0
 12  1  1  0  0  0  0
 13 15  1  0  0  0  0
 14 16  1  0  0  0  0
 15 12  2  0  0  0  0
 16 12  1  0  0  0  0
 17 13  2  0  0  0  0
 17 14  1  0  0  0  0
 18 13  1  0  0  0  0
 19 18  1  0  0  0  0
 20  7  1  0  0  0  0
 21 20  2  0  0  0  0
 22 31  1  0  0  0  0
 23 30  2  0  0  0  0
 24 25  1  0  0  0  0
 26 22  1  0  0  0  0
 27 21  1  0  0  0  0
 27 25  2  0  0  0  0
 28 22  2  0  0  0  0
 28 23  1  0  0  0  0
 29 24  1  0  0  0  0
 30 29  1  0  0  0  0
 30 27  1  0  0  0  0
 31 29  2  0  0  0  0
M  END
>  <MODEL>
3

>  <REMARK>
 VINA RESULT:     -10.1      3.297      7.941
  Name = 
  4 active torsions:
  status: ('A' for Active; 'I' for Inactive)
    1  A    between atoms: O_2  and  C_13
    2  A    between atoms: C_4  and  C_12
    3  A    between atoms: C_9  and  C_23
    4  A    between atoms: C_15  and  C_21
                            x       y       z     vdW  Elec       q    Type
                         _______ _______ _______ _____ _____    ______ ____

>  <TORSDO>
F 4

$$$$
=
 OpenBabel11052422383D

 31 35  0  0  0  0  0  0  0  0999 V2000
  160.9160  209.1660  153.1450 C   0  0  0  0  0  0  0  0  0  0  0  0
  160.7470  209.6490  154.4690 C   0  0  0  0  0  0  0  0  0  0  0  0
  160.5270  211.4850  156.0550 C   0  0  0  0  0  0  0  0  0  0  0  0
  160.6850  211.0260  154.7450 C   0  0  0  0  0  3  0  0  0  0  0  0
  160.7410  207.3680  155.3140 C   0  0  0  0  0  3  0  0  0  0  0  0
  160.4650  212.8150  156.3030 F   0  0  0  0  0  0  0  0  0  0  0  0
  160.9810  207.7590  152.9270 C   0  0  0  0  0  0  0  0  0  0  0  0
  160.4320  210.5740  157.1090 C   0  0  0  0  0  3  0  0  0  0  0  0
  160.9020  206.8890  154.0170 C   0  0  0  0  0  3  0  0  0  0  0  0
  160.6580  208.7370  155.5470 C   0  0  0  0  0  0  0  0  0  0  0  0
  160.5000  209.2020  156.8550 C   0  0  0  0  0  3  0  0  0  0  0  0
  161.0900  210.1230  152.0310 C   0  0  0  0  0  0  0  0  0  0  0  0
  160.4820  212.1590  150.8300 C   0  0  0  0  0  0  0  0  0  0  0  0
  162.2110  210.6680  149.8330 C   0  0  0  0  0  2  0  0  0  0  0  0
  160.2720  211.1720  151.9030 C   0  0  0  0  0  3  0  0  0  0  0  0
  162.1750  209.9570  151.1110 N   0  0  0  0  0  2  0  0  0  0  0  0
  161.4180  211.9460  149.8910 C   0  0  0  0  0  3  0  0  0  0  0  0
  159.7030  213.3210  150.8330 O   0  0  0  0  0  0  0  0  0  0  0  0
  158.3360  213.3370  151.2290 C   0  0  0  0  0  1  0  0  0  0  0  0
  161.1030  207.1040  151.6060 C   0  0  0  0  0  3  0  0  0  0  0  0
  160.8970  205.8120  151.3720 C   0  0  0  0  0  3  0  0  0  0  0  0
  161.1750  201.4960  148.2950 C   0  0  0  0  0  0  0  0  0  0  0  0
  160.9670  202.7020  150.4190 C   0  0  0  0  0  3  0  0  0  0  0  0
  161.2480  205.1240  147.9000 O   0  0  0  0  0  0  0  0  0  0  0  0
  161.1510  205.9550  148.9040 N   0  0  0  0  0  0  0  0  0  0  0  0
  161.2410  200.2070  147.5590 C   0  0  0  0  0  1  0  0  0  0  0  0
  161.0270  205.2190  150.0340 C   0  0  0  0  0  0  0  0  0  0  0  0
  161.0310  201.4930  149.7010 C   0  0  0  0  0  3  0  0  0  0  0  0
  161.1920  203.8870  148.3270 C   0  0  0  0  0  0  0  0  0  0  0  0
  161.0510  203.8830  149.6850 C   0  0  0  0  0  0  0  0  0  0  0  0
  161.2590  202.7100  147.5870 C   0  0  0  0  0  3  0  0  0  0  0  0
  1  2  1  0  0  0  0
  2  4  2  0  0  0  0
  2 10  1  0  0  0  0
  3  6  1  0  0  0  0
  3  8  2  0  0  0  0
  4  3  1  0  0  0  0
  5 10  1  0  0  0  0
  7  1  2  0  0  0  0
  7  9  1  0  0  0  0
  9  5  2  0  0  0  0
 10 11  2  0  0  0  0
 11  8  1  0  0  0  0
 12  1  1  0  0  0  0
 13 18  1  0  0  0  0
 13 15  1  0  0  0  0
 14 17  1  0  0  0  0
 14 16  1  0  0  0  0
 15 12  2  0  0  0  0
 16 12  1  0  0  0  0
 17 13  2  0  0  0  0
 18 19  1  0  0  0  0
 20  7  1  0  0  0  0
 21 20  2  0  0  0  0
 22 28  1  0  0  0  0
 24 29  1  0  0  0  0
 24 25  1  0  0  0  0
 25 27  2  0  0  0  0
 26 22  1  0  0  0  0
 27 21  1  0  0  0  0
 28 23  2  0  0  0  0
 29 30  2  0  0  0  0
 30 27  1  0  0  0  0
 30 23  1  0  0  0  0
 31 22  2  0  0  0  0
 31 29  1  0  0  0  0
M  END
>  <MODEL>
4

>  <REMARK>
 VINA RESULT:      -9.9      3.345      8.099
  Name = 
  4 active torsions:
  status: ('A' for Active; 'I' for Inactive)
    1  A    between atoms: O_2  and  C_13
    2  A    between atoms: C_4  and  C_12
    3  A    between atoms: C_9  and  C_23
    4  A    between atoms: C_15  and  C_21
                            x       y       z     vdW  Elec       q    Type
                         _______ _______ _______ _____ _____    ______ ____

>  <TORSDO>
F 4

$$$$
=
 OpenBabel11052422383D

 31 35  0  0  0  0  0  0  0  0999 V2000
  161.4320  206.8250  149.3350 C   0  0  0  0  0  0  0  0  0  0  0  0
  161.2810  205.8510  150.3560 C   0  0  0  0  0  0  0  0  0  0  0  0
  160.9370  203.5470  151.0690 C   0  0  0  0  0  0  0  0  0  0  0  0
  161.0930  204.4920  150.0520 C   0  0  0  0  0  3  0  0  0  0  0  0
  161.4520  207.5850  152.0540 C   0  0  0  0  0  3  0  0  0  0  0  0
  160.7630  202.2400  150.7570 F   0  0  0  0  0  0  0  0  0  0  0  0
  161.6090  208.1900  149.7040 C   0  0  0  0  0  0  0  0  0  0  0  0
  160.9620  203.9480  152.4060 C   0  0  0  0  0  3  0  0  0  0  0  0
  161.6060  208.5440  151.0560 C   0  0  0  0  0  3  0  0  0  0  0  0
  161.2950  206.2450  151.7150 C   0  0  0  0  0  0  0  0  0  0  0  0
  161.1380  205.2950  152.7280 C   0  0  0  0  0  3  0  0  0  0  0  0
  161.3350  206.4210  147.9160 C   0  0  0  0  0  0  0  0  0  0  0  0
  162.2970  205.4980  145.8710 C   0  0  0  0  0  0  0  0  0  0  0  0
  159.9760  206.3980  145.7860 C   0  0  0  0  0  2  0  0  0  0  0  0
  162.4060  205.9560  147.2670 C   0  0  0  0  0  3  0  0  0  0  0  0
  160.0710  206.4770  147.2430 N   0  0  0  0  0  2  0  0  0  0  0  0
  161.1480  205.6610  145.1960 C   0  0  0  0  0  3  0  0  0  0  0  0
  163.4040  204.8720  145.2880 O   0  0  0  0  0  0  0  0  0  0  0  0
  164.2520  203.9780  146.0000 C   0  0  0  0  0  1  0  0  0  0  0  0
  161.8300  209.3080  148.7610 C   0  0  0  0  0  3  0  0  0  0  0  0
  161.9610  210.5850  149.1070 C   0  0  0  0  0  3  0  0  0  0  0  0
  160.1080  213.6620  145.2000 C   0  0  0  0  0  0  0  0  0  0  0  0
  159.9620  211.9130  146.9120 C   0  0  0  0  0  3  0  0  0  0  0  0
  163.2310  213.1740  147.0250 O   0  0  0  0  0  0  0  0  0  0  0  0
  163.3710  212.2920  147.9800 N   0  0  0  0  0  0  0  0  0  0  0  0
  159.4590  214.4520  144.1220 C   0  0  0  0  0  1  0  0  0  0  0  0
  162.1860  211.6530  148.1240 C   0  0  0  0  0  0  0  0  0  0  0  0
  159.3670  212.6730  145.8870 C   0  0  0  0  0  3  0  0  0  0  0  0
  162.0130  213.1360  146.5470 C   0  0  0  0  0  0  0  0  0  0  0  0
  161.2960  212.1810  147.2100 C   0  0  0  0  0  0  0  0  0  0  0  0
  161.4560  213.9040  145.5290 C   0  0  0  0  0  3  0  0  0  0  0  0
  1  7  2  0  0  0  0
  1  2  1  0  0  0  0
  2 10  1  0  0  0  0
  3  8  2  0  0  0  0
  4  2  2  0  0  0  0
  4  3  1  0  0  0  0
  6  3  1  0  0  0  0
  7  9  1  0  0  0  0
  8 11  1  0  0  0  0
  9  5  2  0  0  0  0
 10  5  1  0  0  0  0
 10 11  2  0  0  0  0
 12  1  1  0  0  0  0
 13 15  1  0  0  0  0
 14 16  1  0  0  0  0
 15 12  2  0  0  0  0
 16 12  1  0  0  0  0
 17 14  1  0  0  0  0
 17 13  2  0  0  0  0
 18 13  1  0  0  0  0
 18 19  1  0  0  0  0
 20 21  2  0  0  0  0
 20  7  1  0  0  0  0
 22 31  2  0  0  0  0
 22 28  1  0  0  0  0
 23 30  1  0  0  0  0
 24 25  1  0  0  0  0
 25 27  2  0  0  0  0
 26 22  1  0  0  0  0
 27 21  1  0  0  0  0
 28 23  2  0  0  0  0
 29 24  1  0  0  0  0
 29 30  2  0  0  0  0
 30 27  1  0  0  0  0
 31 29  1  0  0  0  0
M  END
>  <MODEL>
5

>  <REMARK>
 VINA RESULT:      -9.8      3.869      6.627
  Name = 
  4 active torsions:
  status: ('A' for Active; 'I' for Inactive)
    1  A    between atoms: O_2  and  C_13
    2  A    between atoms: C_4  and  C_12
    3  A    between atoms: C_9  and  C_23
    4  A    between atoms: C_15  and  C_21
                            x       y       z     vdW  Elec       q    Type
                         _______ _______ _______ _____ _____    ______ ____

>  <TORSDO>
F 4

$$$$
=
 OpenBabel11052422383D

 31 35  0  0  0  0  0  0  0  0999 V2000
  160.7570  209.7890  153.1840 C   0  0  0  0  0  0  0  0  0  0  0  0
  160.6410  210.2760  154.5120 C   0  0  0  0  0  0  0  0  0  0  0  0
  160.3630  212.1090  156.0930 C   0  0  0  0  0  0  0  0  0  0  0  0
  160.4660  211.6450  154.7790 C   0  0  0  0  0  3  0  0  0  0  0  0
  160.9230  208.0210  155.3780 C   0  0  0  0  0  3  0  0  0  0  0  0
  160.1890  213.4310  156.3320 F   0  0  0  0  0  0  0  0  0  0  0  0
  160.9430  208.3920  152.9750 C   0  0  0  0  0  0  0  0  0  0  0  0
  160.4370  211.2120  157.1600 C   0  0  0  0  0  3  0  0  0  0  0  0
  161.0320  207.5370  154.0770 C   0  0  0  0  0  3  0  0  0  0  0  0
  160.7240  209.3790  155.6030 C   0  0  0  0  0  0  0  0  0  0  0  0
  160.6200  209.8490  156.9150 C   0  0  0  0  0  3  0  0  0  0  0  0
  160.7510  210.7400  152.0510 C   0  0  0  0  0  0  0  0  0  0  0  0
  161.6150  211.5470  149.9160 C   0  0  0  0  0  0  0  0  0  0  0  0
  159.8630  212.8910  151.0670 C   0  0  0  0  0  2  0  0  0  0  0  0
  161.6560  210.6380  151.0740 C   0  0  0  0  0  3  0  0  0  0  0  0
  159.7360  211.7480  151.9710 N   0  0  0  0  0  2  0  0  0  0  0  0
  160.7460  212.5700  149.8920 C   0  0  0  0  0  3  0  0  0  0  0  0
  162.4800  211.2990  148.8450 O   0  0  0  0  0  0  0  0  0  0  0  0
  163.0530  212.3350  148.0550 C   0  0  0  0  0  1  0  0  0  0  0  0
  161.0290  207.7300  151.6550 C   0  0  0  0  0  3  0  0  0  0  0  0
  161.1990  206.4250  151.4640 C   0  0  0  0  0  3  0  0  0  0  0  0
  161.0280  202.1080  148.3830 C   0  0  0  0  0  0  0  0  0  0  0  0
  160.9410  203.3270  150.5080 C   0  0  0  0  0  3  0  0  0  0  0  0
  161.4870  205.7070  147.9930 O   0  0  0  0  0  0  0  0  0  0  0  0
  161.4750  206.5440  148.9980 N   0  0  0  0  0  0  0  0  0  0  0  0
  160.9590  200.8200  147.6450 C   0  0  0  0  0  1  0  0  0  0  0  0
  161.2700  205.8230  150.1260 C   0  0  0  0  0  0  0  0  0  0  0  0
  160.8780  202.1190  149.7880 C   0  0  0  0  0  3  0  0  0  0  0  0
  161.2980  204.4840  148.4180 C   0  0  0  0  0  0  0  0  0  0  0  0
  161.1530  204.4930  149.7760 C   0  0  0  0  0  0  0  0  0  0  0  0
  161.2420  203.3070  147.6760 C   0  0  0  0  0  3  0  0  0  0  0  0
  1  2  1  0  0  0  0
  2  4  2  0  0  0  0
  2 10  1  0  0  0  0
  3  6  1  0  0  0  0
  3  8  2  0  0  0  0
  4  3  1  0  0  0  0
  5 10  1  0  0  0  0
  7  1  2  0  0  0  0
  7  9  1  0  0  0  0
  9  5  2  0  0  0  0
 10 11  2  0  0  0  0
 11  8  1  0  0  0  0
 12  1  1  0  0  0  0
 13 15  1  0  0  0  0
 14 16  1  0  0  0  0
 15 12  2  0  0  0  0
 16 12  1  0  0  0  0
 17 13  2  0  0  0  0
 17 14  1  0  0  0  0
 18 13  1  0  0  0  0
 19 18  1  0  0  0  0
 20  7  1  0  0  0  0
 21 20  2  0  0  0  0
 22 28  1  0  0  0  0
 24 29  1  0  0  0  0
 24 25  1  0  0  0  0
 25 27  2  0  0  0  0
 26 22  1  0  0  0  0
 27 21  1  0  0  0  0
 28 23  2  0  0  0  0
 29 30  2  0  0  0  0
 30 27  1  0  0  0  0
 30 23  1  0  0  0  0
 31 22  2  0  0  0  0
 31 29  1  0  0  0  0
M  END
>  <MODEL>
6

>  <REMARK>
 VINA RESULT:      -9.8      3.441      8.167
  Name = 
  4 active torsions:
  status: ('A' for Active; 'I' for Inactive)
    1  A    between atoms: O_2  and  C_13
    2  A    between atoms: C_4  and  C_12
    3  A    between atoms: C_9  and  C_23
    4  A    between atoms: C_15  and  C_21
                            x       y       z     vdW  Elec       q    Type
                         _______ _______ _______ _____ _____    ______ ____

>  <TORSDO>
F 4

$$$$
=
 OpenBabel11052422383D

 31 35  0  0  0  0  0  0  0  0999 V2000
  161.3140  208.2350  152.4250 C   0  0  0  0  0  0  0  0  0  0  0  0
  161.0940  208.8570  153.6820 C   0  0  0  0  0  0  0  0  0  0  0  0
  160.8580  210.8510  155.0610 C   0  0  0  0  0  0  0  0  0  0  0  0
  161.0660  210.2560  153.8140 C   0  0  0  0  0  3  0  0  0  0  0  0
  160.9660  206.6760  154.7520 C   0  0  0  0  0  3  0  0  0  0  0  0
  160.8290  212.2010  155.1690 F   0  0  0  0  0  0  0  0  0  0  0  0
  161.3410  206.8120  152.3540 C   0  0  0  0  0  0  0  0  0  0  0  0
  160.6770  210.0570  156.1940 C   0  0  0  0  0  3  0  0  0  0  0  0
  161.1760  206.0610  153.5210 C   0  0  0  0  0  3  0  0  0  0  0  0
  160.9190  208.0630  154.8410 C   0  0  0  0  0  0  0  0  0  0  0  0
  160.7100  208.6650  156.0850 C   0  0  0  0  0  3  0  0  0  0  0  0
  161.5780  209.0680  151.2320 C   0  0  0  0  0  0  0  0  0  0  0  0
  161.4910  211.1880  150.0260 C   0  0  0  0  0  0  0  0  0  0  0  0
  162.3330  209.1760  148.8230 C   0  0  0  0  0  2  0  0  0  0  0  0
  161.1760  210.3410  151.1890 C   0  0  0  0  0  3  0  0  0  0  0  0
  162.3160  208.5230  150.1320 N   0  0  0  0  0  2  0  0  0  0  0  0
  162.0740  210.6540  148.9410 C   0  0  0  0  0  3  0  0  0  0  0  0
  161.1920  212.5530  150.0970 O   0  0  0  0  0  0  0  0  0  0  0  0
  160.9920  213.3630  148.9450 C   0  0  0  0  0  1  0  0  0  0  0  0
  161.5080  206.0220  151.1150 C   0  0  0  0  0  3  0  0  0  0  0  0
  160.8640  204.8930  150.8360 C   0  0  0  0  0  3  0  0  0  0  0  0
  161.4380  204.9190  145.5600 C   0  0  0  0  0  0  0  0  0  0  0  0
  161.1100  205.9380  147.7660 C   0  0  0  0  0  3  0  0  0  0  0  0
  161.3530  202.4770  148.2720 O   0  0  0  0  0  0  0  0  0  0  0  0
  161.1880  202.8070  149.5270 N   0  0  0  0  0  0  0  0  0  0  0  0
  161.5840  205.0740  144.0890 C   0  0  0  0  0  1  0  0  0  0  0  0
  161.0670  204.1540  149.5830 C   0  0  0  0  0  0  0  0  0  0  0  0
  161.2510  206.0620  146.3700 C   0  0  0  0  0  3  0  0  0  0  0  0
  161.3440  203.5460  147.5170 C   0  0  0  0  0  0  0  0  0  0  0  0
  161.1640  204.6520  148.2990 C   0  0  0  0  0  0  0  0  0  0  0  0
  161.4860  203.6340  146.1350 C   0  0  0  0  0  3  0  0  0  0  0  0
  1  2  1  0  0  0  0
  2  4  2  0  0  0  0
  2 10  1  0  0  0  0
  3  6  1  0  0  0  0
  3  8  2  0  0  0  0
  4  3  1  0  0  0  0
  5 10  1  0  0  0  0
  7  1  2  0  0  0  0
  7  9  1  0  0  0  0
  9  5  2  0  0  0  0
 10 11  2  0  0  0  0
 11  8  1  0  0  0  0
 12  1  1  0  0  0  0
 13 18  1  0  0  0  0
 13 15  1  0  0  0  0
 14 17  1  0  0  0  0
 14 16  1  0  0  0  0
 15 12  2  0  0  0  0
 16 12  1  0  0  0  0
 17 13  2  0  0  0  0
 19 18  1  0  0  0  0
 20  7  1  0  0  0  0
 21 20  2  0  0  0  0
 22 31  2  0  0  0  0
 22 28  1  0  0  0  0
 23 30  1  0  0  0  0
 24 25  1  0  0  0  0
 25 27  2  0  0  0  0
 26 22  1  0  0  0  0
 27 21  1  0  0  0  0
 28 23  2  0  0  0  0
 29 24  1  0  0  0  0
 29 30  2  0  0  0  0
 30 27  1  0  0  0  0
 31 29  1  0  0  0  0
M  END
>  <MODEL>
7

>  <REMARK>
 VINA RESULT:      -9.7      3.338      7.618
  Name = 
  4 active torsions:
  status: ('A' for Active; 'I' for Inactive)
    1  A    between atoms: O_2  and  C_13
    2  A    between atoms: C_4  and  C_12
    3  A    between atoms: C_9  and  C_23
    4  A    between atoms: C_15  and  C_21
                            x       y       z     vdW  Elec       q    Type
                         _______ _______ _______ _____ _____    ______ ____

>  <TORSDO>
F 4

$$$$
=
 OpenBabel11052422383D

 31 35  0  0  0  0  0  0  0  0999 V2000
  161.2360  205.4390  148.7000 C   0  0  0  0  0  0  0  0  0  0  0  0
  161.2630  205.0510  147.3350 C   0  0  0  0  0  0  0  0  0  0  0  0
  161.2080  203.3370  145.6050 C   0  0  0  0  0  0  0  0  0  0  0  0
  161.1710  203.7020  146.9530 C   0  0  0  0  0  3  0  0  0  0  0  0
  161.5300  207.3760  146.6680 C   0  0  0  0  0  3  0  0  0  0  0  0
  161.1130  202.0320  145.2550 F   0  0  0  0  0  0  0  0  0  0  0  0
  161.3440  206.8220  149.0270 C   0  0  0  0  0  0  0  0  0  0  0  0
  161.3430  204.3160  144.6190 C   0  0  0  0  0  3  0  0  0  0  0  0
  161.4980  207.7610  148.0050 C   0  0  0  0  0  3  0  0  0  0  0  0
  161.4090  206.0330  146.3260 C   0  0  0  0  0  0  0  0  0  0  0  0
  161.4460  205.6610  144.9790 C   0  0  0  0  0  3  0  0  0  0  0  0
  161.1660  204.4040  149.7550 C   0  0  0  0  0  0  0  0  0  0  0  0
  160.9550  202.0840  150.4820 C   0  0  0  0  0  0  0  0  0  0  0  0
  161.0020  203.8680  152.2190 C   0  0  0  0  0  2  0  0  0  0  0  0
  160.9650  203.1220  149.4370 C   0  0  0  0  0  3  0  0  0  0  0  0
  161.3680  204.7690  151.1260 N   0  0  0  0  0  2  0  0  0  0  0  0
  161.0200  202.4300  151.7770 C   0  0  0  0  0  3  0  0  0  0  0  0
  160.9030  200.7430  150.0860 O   0  0  0  0  0  0  0  0  0  0  0  0
  161.2110  200.3130  148.7650 C   0  0  0  0  0  1  0  0  0  0  0  0
  161.2800  207.3830  150.3950 C   0  0  0  0  0  3  0  0  0  0  0  0
  161.6260  208.6230  150.7280 C   0  0  0  0  0  3  0  0  0  0  0  0
  160.6070  207.7340  155.8600 C   0  0  0  0  0  0  0  0  0  0  0  0
  160.8280  207.1160  153.4990 C   0  0  0  0  0  3  0  0  0  0  0  0
  161.6160  210.5240  153.7340 O   0  0  0  0  0  0  0  0  0  0  0  0
  161.7920  210.4130  152.4430 N   0  0  0  0  0  0  0  0  0  0  0  0
  160.2920  207.3450  157.2600 C   0  0  0  0  0  1  0  0  0  0  0  0
  161.5350  209.1270  152.1050 C   0  0  0  0  0  0  0  0  0  0  0  0
  160.5350  206.7690  154.8310 C   0  0  0  0  0  3  0  0  0  0  0  0
  161.2580  209.3730  154.2450 C   0  0  0  0  0  0  0  0  0  0  0  0
  161.1880  208.4390  153.2500 C   0  0  0  0  0  0  0  0  0  0  0  0
  160.9740  209.0630  155.5720 C   0  0  0  0  0  3  0  0  0  0  0  0
  1  7  1  0  0  0  0
  1 12  1  0  0  0  0
  2  1  2  0  0  0  0
  3  4  2  0  0  0  0
  4  2  1  0  0  0  0
  5  9  1  0  0  0  0
  6  3  1  0  0  0  0
  7 20  1  0  0  0  0
  8 11  2  0  0  0  0
  8  3  1  0  0  0  0
  9  7  2  0  0  0  0
 10  5  2  0  0  0  0
 10  2  1  0  0  0  0
 11 10  1  0  0  0  0
 12 16  1  0  0  0  0
 13 17  2  0  0  0  0
 15 12  2  0  0  0  0
 15 13  1  0  0  0  0
 16 14  1  0  0  0  0
 17 14  1  0  0  0  0
 18 13  1  0  0  0  0
 19 18  1  0  0  0  0
 20 21  2  0  0  0  0
 21 27  1  0  0  0  0
 22 26  1  0  0  0  0
 23 28  1  0  0  0  0
 24 29  1  0  0  0  0
 25 24  1  0  0  0  0
 27 25  2  0  0  0  0
 27 30  1  0  0  0  0
 28 22  2  0  0  0  0
 29 31  2  0  0  0  0
 30 23  2  0  0  0  0
 30 29  1  0  0  0  0
 31 22  1  0  0  0  0
M  END
>  <MODEL>
8

>  <REMARK>
 VINA RESULT:      -9.6      2.540      4.945
  Name = 
  4 active torsions:
  status: ('A' for Active; 'I' for Inactive)
    1  A    between atoms: O_2  and  C_13
    2  A    between atoms: C_4  and  C_12
    3  A    between atoms: C_9  and  C_23
    4  A    between atoms: C_15  and  C_21
                            x       y       z     vdW  Elec       q    Type
                         _______ _______ _______ _____ _____    ______ ____

>  <TORSDO>
F 4

$$$$
=
 OpenBabel11052422383D

 31 35  0  0  0  0  0  0  0  0999 V2000
  161.1640  204.7500  149.8860 C   0  0  0  0  0  0  0  0  0  0  0  0
  161.0890  203.3540  149.6370 C   0  0  0  0  0  0  0  0  0  0  0  0
  160.9890  201.4660  148.1010 C   0  0  0  0  0  0  0  0  0  0  0  0
  161.0730  202.8420  148.3280 C   0  0  0  0  0  3  0  0  0  0  0  0
  160.9940  202.9200  152.0290 C   0  0  0  0  0  3  0  0  0  0  0  0
  160.9800  200.9890  146.8330 F   0  0  0  0  0  0  0  0  0  0  0  0
  161.1670  205.2110  151.2340 C   0  0  0  0  0  0  0  0  0  0  0  0
  160.9170  200.5820  149.1790 C   0  0  0  0  0  3  0  0  0  0  0  0
  161.0730  204.2870  152.2780 C   0  0  0  0  0  3  0  0  0  0  0  0
  161.0060  202.4470  150.7210 C   0  0  0  0  0  0  0  0  0  0  0  0
  160.9240  201.0720  150.4860 C   0  0  0  0  0  3  0  0  0  0  0  0
  161.1680  205.6980  148.7510 C   0  0  0  0  0  0  0  0  0  0  0  0
  161.1060  206.1940  146.3620 C   0  0  0  0  0  0  0  0  0  0  0  0
  161.4410  208.0800  147.9540 C   0  0  0  0  0  2  0  0  0  0  0  0
  161.1630  205.2510  147.4920 C   0  0  0  0  0  3  0  0  0  0  0  0
  161.1240  207.1080  149.0000 N   0  0  0  0  0  2  0  0  0  0  0  0
  161.1880  207.5160  146.5810 C   0  0  0  0  0  3  0  0  0  0  0  0
  160.9400  205.6770  145.0730 O   0  0  0  0  0  0  0  0  0  0  0  0
  161.0040  204.2860  144.7810 C   0  0  0  0  0  1  0  0  0  0  0  0
  161.2920  206.6240  151.6530 C   0  0  0  0  0  3  0  0  0  0  0  0
  161.0700  207.0800  152.8820 C   0  0  0  0  0  3  0  0  0  0  0  0
  160.0590  211.0740  156.2270 C   0  0  0  0  0  0  0  0  0  0  0  0
  159.9500  208.7570  155.4340 C   0  0  0  0  0  3  0  0  0  0  0  0
  161.8340  210.5480  153.0820 O   0  0  0  0  0  0  0  0  0  0  0  0
  161.9010  209.3860  152.4840 N   0  0  0  0  0  0  0  0  0  0  0  0
  159.6990  212.0950  157.2460 C   0  0  0  0  0  1  0  0  0  0  0  0
  161.2160  208.4960  153.2400 C   0  0  0  0  0  0  0  0  0  0  0  0
  159.6210  209.7400  156.3870 C   0  0  0  0  0  3  0  0  0  0  0  0
  161.1390  210.4490  154.1870 C   0  0  0  0  0  0  0  0  0  0  0  0
  160.7160  209.1600  154.3430 C   0  0  0  0  0  0  0  0  0  0  0  0
  160.8320  211.4450  155.1100 C   0  0  0  0  0  3  0  0  0  0  0  0
  1  7  1  0  0  0  0
  2  1  2  0  0  0  0
  2 10  1  0  0  0  0
  3  4  2  0  0  0  0
  3  8  1  0  0  0  0
  4  2  1  0  0  0  0
  5  9  1  0  0  0  0
  6  3  1  0  0  0  0
  7 20  1  0  0  0  0
  7  9  2  0  0  0  0
  8 11  2  0  0  0  0
 10  5  2  0  0  0  0
 11 10  1  0  0  0  0
 12 16  1  0  0  0  0
 12  1  1  0  0  0  0
 13 17  2  0  0  0  0
 13 15  1  0  0  0  0
 14 16  1  0  0  0  0
 15 12  2  0  0  0  0
 17 14  1  0  0  0  0
 18 13  1  0  0  0  0
 19 18  1  0  0  0  0
 20 21  2  0  0  0  0
 21 27  1  0  0  0  0
 22 28  1  0  0  0  0
 22 26  1  0  0  0  0
 23 28  2  0  0  0  0
 24 29  1  0  0  0  0
 25 24  1  0  0  0  0
 25 27  2  0  0  0  0
 27 30  1  0  0  0  0
 29 30  2  0  0  0  0
 29 31  1  0  0  0  0
 30 23  1  0  0  0  0
 31 22  2  0  0  0  0
M  END
>  <MODEL>
9

>  <REMARK>
 VINA RESULT:      -9.6      2.017      2.930
  Name = 
  4 active torsions:
  status: ('A' for Active; 'I' for Inactive)
    1  A    between atoms: O_2  and  C_13
    2  A    between atoms: C_4  and  C_12
    3  A    between atoms: C_9  and  C_23
    4  A    between atoms: C_15  and  C_21
                            x       y       z     vdW  Elec       q    Type
                         _______ _______ _______ _____ _____    ______ ____

>  <TORSDO>
F 4

$$$$
