=
 OpenBabel11062408163D

 32 35  0  0  1  0  0  0  0  0999 V2000
  160.2160  208.8150  154.1420 C   0  0  1  0  0  3  0  0  0  0  0  0
  161.2600  208.6410  153.0090 C   0  0  2  0  0  3  0  0  0  0  0  0
  160.4020  207.9210  155.3800 C   0  0  2  0  0  3  0  0  0  0  0  0
  162.2030  204.2070  151.8910 C   0  0  0  0  0  2  0  0  0  0  0  0
  162.4790  207.7670  153.3240 C   0  0  0  0  0  2  0  0  0  0  0  0
  160.4140  204.4440  153.6100 C   0  0  0  0  0  2  0  0  0  0  0  0
  160.6760  205.9450  153.7060 C   0  0  1  0  0  3  0  0  0  0  0  0
  161.6240  208.1800  156.2050 C   0  0  0  0  0  3  0  0  0  0  0  0
  159.8310  210.2450  154.5180 C   0  0  2  0  0  3  0  0  0  0  0  0
  160.2710  206.4160  155.1080 C   0  0  0  0  0  2  0  0  0  0  0  0
  160.9270  211.0760  155.1070 C   0  0  0  0  0  3  0  0  0  0  0  0
  158.7210  210.2490  155.3650 O   0  0  0  0  0  1  0  0  0  0  0  0
  162.2280  209.3470  156.4410 C   0  0  0  0  0  3  0  0  0  0  0  0
  162.1430  206.2700  153.3240 C   0  0  1  0  0  3  0  0  0  0  0  0
  161.9070  210.6910  155.9270 C   0  0  0  0  0  3  0  0  0  0  0  0
  160.7400  203.9290  152.2140 C   0  0  0  0  0  2  0  0  0  0  0  0
  162.4700  205.7060  151.9410 C   0  0  0  0  0  2  0  0  0  0  0  0
  162.6040  210.4380  151.8460 C   0  0  0  0  0  1  0  0  0  0  0  0
  161.3190  209.6120  151.7980 C   0  0  1  0  0  0  0  0  0  0  0  0
  161.8980  208.5690  148.1220 C   0  0  0  0  0  3  0  0  0  0  0  0
  160.8190  206.7520  149.2820 C   0  0  0  0  0  3  0  0  0  0  0  0
  161.3390  208.8130  150.4890 C   0  0  0  0  0  0  0  0  0  0  0  0
  161.3670  207.2730  148.1070 C   0  0  0  0  0  0  0  0  0  0  0  0
  160.8050  207.5110  150.4520 C   0  0  0  0  0  3  0  0  0  0  0  0
  161.8890  209.3390  149.2880 C   0  0  0  0  0  0  0  0  0  0  0  0
  162.4730  210.7100  149.2060 C   0  0  0  0  0  1  0  0  0  0  0  0
  162.5160  205.6650  146.5520 N   0  0  0  0  0  1  0  0  0  0  0  0
  160.3710  206.4780  146.0670 N   0  0  0  0  0  2  0  0  0  0  0  0
  161.3830  206.4670  146.8720 C   0  0  0  0  0  0  0  0  0  0  0  0
  160.1190  210.5860  151.8420 C   0  0  0  0  0  2  0  0  0  0  0  0
  160.4710  212.0550  151.6180 C   0  0  0  0  0  2  0  0  0  0  0  0
  159.3260  212.9460  152.0570 C   0  0  0  0  0  1  0  0  0  0  0  0
  1  9  1  0  0  0  0
  1  3  1  0  0  0  0
  2  5  1  0  0  0  0
  2  1  1  0  0  0  0
  3  8  1  0  0  0  0
  4 17  1  0  0  0  0
  4 16  1  0  0  0  0
  6  7  1  0  0  0  0
  7 10  1  0  0  0  0
  8 13  2  0  0  0  0
  9 11  1  0  0  0  0
  9 12  1  0  0  0  0
 10  3  1  0  0  0  0
 11 15  2  0  0  0  0
 14  5  1  0  0  0  0
 14  7  1  0  0  0  0
 15 13  1  0  0  0  0
 16  6  1  0  0  0  0
 17 14  1  0  0  0  0
 19 30  1  0  0  0  0
 19 18  1  0  0  0  0
 19  2  1  0  0  0  0
 20 25  1  0  0  0  0
 21 24  2  0  0  0  0
 22 19  1  0  0  0  0
 23 20  2  0  0  0  0
 23 21  1  0  0  0  0
 24 22  1  0  0  0  0
 25 22  2  0  0  0  0
 26 25  1  0  0  0  0
 27 29  1  0  0  0  0
 28 29  2  0  0  0  0
 29 23  1  0  0  0  0
 31 30  1  0  0  0  0
 31 32  1  0  0  0  0
M  END
>  <MODEL>
1

>  <REMARK>
 VINA RESULT:      -4.0      0.000      0.000
  Name = 
  5 active torsions:
  status: ('A' for Active; 'I' for Inactive)
    1  A    between atoms: C_1  and  C_4
    2  A    between atoms: C_1  and  C_27
    3  A    between atoms: C_5  and  C_27
    4  A    between atoms: C_16  and  C_27
    5  A    between atoms: C_19  and  C_26
                            x       y       z     vdW  Elec       q    Type
                         _______ _______ _______ _____ _____    ______ ____

>  <TORSDO>
F 5

$$$$
=
 OpenBabel11062408163D

 32 35  0  0  1  0  0  0  0  0999 V2000
  158.8680  212.7870  155.1720 C   0  0  1  0  0  3  0  0  0  0  0  0
  159.4970  211.5920  154.4100 C   0  0  2  0  0  3  0  0  0  0  0  0
  157.7500  213.5490  154.4390 C   0  0  2  0  0  3  0  0  0  0  0  0
  160.5510  212.4650  149.9450 C   0  0  0  0  0  2  0  0  0  0  0  0
  158.8010  211.1600  153.1130 C   0  0  0  0  0  2  0  0  0  0  0  0
  159.6840  214.4530  151.1730 C   0  0  0  0  0  2  0  0  0  0  0  0
  159.3500  213.5850  152.3840 C   0  0  1  0  0  3  0  0  0  0  0  0
  156.4830  212.7890  154.1970 C   0  0  0  0  0  3  0  0  0  0  0  0
  158.5460  212.5760  156.6500 C   0  0  2  0  0  3  0  0  0  0  0  0
  158.1920  214.2440  153.1440 C   0  0  0  0  0  2  0  0  0  0  0  0
  157.4920  211.5570  156.9430 C   0  0  0  0  0  3  0  0  0  0  0  0
  158.2220  213.7890  157.2610 O   0  0  0  0  0  1  0  0  0  0  0  0
  155.9160  211.8630  154.9720 C   0  0  0  0  0  3  0  0  0  0  0  0
  159.0760  212.1220  151.9510 C   0  0  1  0  0  3  0  0  0  0  0  0
  156.3860  211.2870  156.2450 C   0  0  0  0  0  3  0  0  0  0  0  0
  160.8720  213.8790  150.4110 C   0  0  0  0  0  2  0  0  0  0  0  0
  160.2580  211.5770  151.1470 C   0  0  0  0  0  2  0  0  0  0  0  0
  159.8560  210.0340  156.3670 C   0  0  0  0  0  1  0  0  0  0  0  0
  160.4840  210.6120  155.1000 C   0  0  1  0  0  0  0  0  0  0  0  0
  160.6990  207.0630  153.5870 C   0  0  0  0  0  3  0  0  0  0  0  0
  161.7470  208.6150  152.0700 C   0  0  0  0  0  3  0  0  0  0  0  0
  160.7910  209.4350  154.1650 C   0  0  0  0  0  0  0  0  0  0  0  0
  161.3650  207.3080  152.3800 C   0  0  0  0  0  0  0  0  0  0  0  0
  161.4650  209.6600  152.9490 C   0  0  0  0  0  3  0  0  0  0  0  0
  160.4110  208.1020  154.4760 C   0  0  0  0  0  0  0  0  0  0  0  0
  159.7020  207.7420  155.7400 C   0  0  0  0  0  1  0  0  0  0  0  0
  162.0240  206.4840  150.0970 N   0  0  0  0  0  2  0  0  0  0  0  0
  161.6020  204.9750  151.8410 N   0  0  0  0  0  1  0  0  0  0  0  0
  161.6630  206.2050  151.4470 C   0  0  0  0  0  0  0  0  0  0  0  0
  161.7770  211.3600  155.5020 C   0  0  0  0  0  2  0  0  0  0  0  0
  162.1010  211.3340  156.9940 C   0  0  0  0  0  2  0  0  0  0  0  0
  163.5290  210.8790  157.2170 C   0  0  0  0  0  1  0  0  0  0  0  0
  1  9  1  0  0  0  0
  2 19  1  0  0  0  0
  2  1  1  0  0  0  0
  3  1  1  0  0  0  0
  4 16  1  0  0  0  0
  4 17  1  0  0  0  0
  5  2  1  0  0  0  0
  6  7  1  0  0  0  0
  7 10  1  0  0  0  0
  8  3  1  0  0  0  0
  8 13  2  0  0  0  0
  9 11  1  0  0  0  0
  9 12  1  0  0  0  0
 10  3  1  0  0  0  0
 13 15  1  0  0  0  0
 14  7  1  0  0  0  0
 14  5  1  0  0  0  0
 15 11  2  0  0  0  0
 16  6  1  0  0  0  0
 17 14  1  0  0  0  0
 19 30  1  0  0  0  0
 19 18  1  0  0  0  0
 20 25  1  0  0  0  0
 21 23  1  0  0  0  0
 21 24  2  0  0  0  0
 22 25  2  0  0  0  0
 22 19  1  0  0  0  0
 23 20  2  0  0  0  0
 24 22  1  0  0  0  0
 25 26  1  0  0  0  0
 27 29  2  0  0  0  0
 29 28  1  0  0  0  0
 29 23  1  0  0  0  0
 30 31  1  0  0  0  0
 31 32  1  0  0  0  0
M  END
>  <MODEL>
2

>  <REMARK>
 VINA RESULT:      -3.9      2.417      6.023
  Name = 
  5 active torsions:
  status: ('A' for Active; 'I' for Inactive)
    1  A    between atoms: C_1  and  C_4
    2  A    between atoms: C_1  and  C_27
    3  A    between atoms: C_5  and  C_27
    4  A    between atoms: C_16  and  C_27
    5  A    between atoms: C_19  and  C_26
                            x       y       z     vdW  Elec       q    Type
                         _______ _______ _______ _____ _____    ______ ____

>  <TORSDO>
F 5

$$$$
=
 OpenBabel11062408163D

 32 35  0  0  1  0  0  0  0  0999 V2000
  157.6680  211.5820  154.8650 C   0  0  1  0  0  3  0  0  0  0  0  0
  159.0530  211.9960  154.3040 C   0  0  2  0  0  3  0  0  0  0  0  0
  157.5290  211.5770  156.3970 C   0  0  2  0  0  3  0  0  0  0  0  0
  162.6960  209.9880  156.4270 C   0  0  0  0  0  2  0  0  0  0  0  0
  160.0620  212.5620  155.3110 C   0  0  0  0  0  2  0  0  0  0  0  0
  160.4880  209.1830  157.2580 C   0  0  0  0  0  2  0  0  0  0  0  0
  159.7660  210.2430  156.4300 C   0  0  1  0  0  3  0  0  0  0  0  0
  157.6180  212.9100  157.0740 C   0  0  0  0  0  3  0  0  0  0  0  0
  156.4370  212.1700  154.1780 C   0  0  2  0  0  3  0  0  0  0  0  0
  158.4360  210.5700  157.1190 C   0  0  0  0  0  2  0  0  0  0  0  0
  156.2800  213.6530  154.2920 C   0  0  0  0  0  3  0  0  0  0  0  0
  155.2770  211.5310  154.6180 O   0  0  0  0  0  1  0  0  0  0  0  0
  157.1970  214.0930  156.6220 C   0  0  0  0  0  3  0  0  0  0  0  0
  160.6810  211.4730  156.1960 C   0  0  1  0  0  3  0  0  0  0  0  0
  156.5800  214.4390  155.3280 C   0  0  0  0  0  3  0  0  0  0  0  0
  161.7920  208.7720  156.5870 C   0  0  0  0  0  2  0  0  0  0  0  0
  162.0050  211.0380  155.5660 C   0  0  0  0  0  2  0  0  0  0  0  0
  160.0910  213.5210  152.5770 C   0  0  0  0  0  1  0  0  0  0  0  0
  159.2790  212.2440  152.7880 C   0  0  1  0  0  0  0  0  0  0  0  0
  161.5640  210.1510  150.4800 C   0  0  0  0  0  3  0  0  0  0  0  0
  160.8280  208.7610  152.3070 C   0  0  0  0  0  3  0  0  0  0  0  0
  160.0830  211.0860  152.1840 C   0  0  0  0  0  0  0  0  0  0  0  0
  161.5700  208.9120  151.1320 C   0  0  0  0  0  0  0  0  0  0  0  0
  160.0970  209.8310  152.8220 C   0  0  0  0  0  3  0  0  0  0  0  0
  160.8350  211.2300  150.9860 C   0  0  0  0  0  0  0  0  0  0  0  0
  160.8860  212.5090  150.2180 C   0  0  0  0  0  1  0  0  0  0  0  0
  162.6990  206.6840  151.4320 N   0  0  0  0  0  1  0  0  0  0  0  0
  162.7080  207.7640  149.3510 N   0  0  0  0  0  2  0  0  0  0  0  0
  162.3440  207.7780  150.5910 C   0  0  0  0  0  0  0  0  0  0  0  0
  157.9190  212.4160  152.0720 C   0  0  0  0  0  2  0  0  0  0  0  0
  157.8370  213.6030  151.1160 C   0  0  0  0  0  2  0  0  0  0  0  0
  157.0600  213.2270  149.8710 C   0  0  0  0  0  1  0  0  0  0  0  0
  1  3  1  0  0  0  0
  2  1  1  0  0  0  0
  2  5  1  0  0  0  0
  3  8  1  0  0  0  0
  3 10  1  0  0  0  0
  4 16  1  0  0  0  0
  5 14  1  0  0  0  0
  7 10  1  0  0  0  0
  7  6  1  0  0  0  0
  9 11  1  0  0  0  0
  9 12  1  0  0  0  0
  9  1  1  0  0  0  0
 11 15  2  0  0  0  0
 13  8  2  0  0  0  0
 14  7  1  0  0  0  0
 15 13  1  0  0  0  0
 16  6  1  0  0  0  0
 17 14  1  0  0  0  0
 17  4  1  0  0  0  0
 18 19  1  0  0  0  0
 19  2  1  0  0  0  0
 20 25  2  0  0  0  0
 20 23  1  0  0  0  0
 21 24  1  0  0  0  0
 22 19  1  0  0  0  0
 22 24  2  0  0  0  0
 23 21  2  0  0  0  0
 25 22  1  0  0  0  0
 26 25  1  0  0  0  0
 28 29  2  0  0  0  0
 29 23  1  0  0  0  0
 29 27  1  0  0  0  0
 30 19  1  0  0  0  0
 31 30  1  0  0  0  0
 32 31  1  0  0  0  0
M  END
>  <MODEL>
3

>  <REMARK>
 VINA RESULT:      -3.8      2.589      4.758
  Name = 
  5 active torsions:
  status: ('A' for Active; 'I' for Inactive)
    1  A    between atoms: C_1  and  C_4
    2  A    between atoms: C_1  and  C_27
    3  A    between atoms: C_5  and  C_27
    4  A    between atoms: C_16  and  C_27
    5  A    between atoms: C_19  and  C_26
                            x       y       z     vdW  Elec       q    Type
                         _______ _______ _______ _____ _____    ______ ____

>  <TORSDO>
F 5

$$$$
=
 OpenBabel11062408163D

 32 35  0  0  1  0  0  0  0  0999 V2000
  158.8230  211.2330  153.3700 C   0  0  1  0  0  3  0  0  0  0  0  0
  159.6400  211.9360  152.2560 C   0  0  2  0  0  3  0  0  0  0  0  0
  159.5850  210.2100  154.2310 C   0  0  2  0  0  3  0  0  0  0  0  0
  162.3100  209.0820  149.7010 C   0  0  0  0  0  2  0  0  0  0  0  0
  161.1560  211.7070  152.2670 C   0  0  0  0  0  2  0  0  0  0  0  0
  160.9020  207.8940  151.3790 C   0  0  0  0  0  2  0  0  0  0  0  0
  160.4640  209.2260  151.9850 C   0  0  1  0  0  3  0  0  0  0  0  0
  160.6670  210.7600  155.1070 C   0  0  0  0  0  3  0  0  0  0  0  0
  157.8930  212.1090  154.2080 C   0  0  2  0  0  3  0  0  0  0  0  0
  160.1130  208.9920  153.4600 C   0  0  0  0  0  2  0  0  0  0  0  0
  158.5680  213.1400  155.0560 C   0  0  0  0  0  3  0  0  0  0  0  0
  157.0500  211.3210  154.9940 O   0  0  0  0  0  1  0  0  0  0  0  0
  160.7020  211.9380  155.7330 C   0  0  0  0  0  3  0  0  0  0  0  0
  161.5430  210.3140  151.7520 C   0  0  1  0  0  3  0  0  0  0  0  0
  159.7300  213.0460  155.7050 C   0  0  0  0  0  3  0  0  0  0  0  0
  161.2050  208.0520  149.8950 C   0  0  0  0  0  2  0  0  0  0  0  0
  161.8700  210.4280  150.2630 C   0  0  0  0  0  2  0  0  0  0  0  0
  159.5120  214.4530  152.0710 C   0  0  0  0  0  1  0  0  0  0  0  0
  159.0620  213.1310  151.4500 C   0  0  1  0  0  0  0  0  0  0  0  0
  159.2660  212.9240  147.5970 C   0  0  0  0  0  3  0  0  0  0  0  0
  161.4910  213.2200  148.4750 C   0  0  0  0  0  3  0  0  0  0  0  0
  159.5950  213.0970  150.0120 C   0  0  0  0  0  0  0  0  0  0  0  0
  160.6410  213.0670  147.3770 C   0  0  0  0  0  0  0  0  0  0  0  0
  160.9750  213.2340  149.7700 C   0  0  0  0  0  3  0  0  0  0  0  0
  158.7370  212.9360  148.8910 C   0  0  0  0  0  0  0  0  0  0  0  0
  157.2600  212.7710  149.0260 C   0  0  0  0  0  1  0  0  0  0  0  0
  162.5330  213.4660  145.7690 N   0  0  0  0  0  1  0  0  0  0  0  0
  160.4610  212.6740  145.0100 N   0  0  0  0  0  2  0  0  0  0  0  0
  161.1900  213.0560  146.0070 C   0  0  0  0  0  0  0  0  0  0  0  0
  157.5170  213.0890  151.4770 C   0  0  0  0  0  2  0  0  0  0  0  0
  156.8410  214.3940  151.8910 C   0  0  0  0  0  2  0  0  0  0  0  0
  155.3380  214.2140  151.9580 C   0  0  0  0  0  1  0  0  0  0  0  0
  1  9  1  0  0  0  0
  1  3  1  0  0  0  0
  2  5  1  0  0  0  0
  2  1  1  0  0  0  0
  3  8  1  0  0  0  0
  4 16  1  0  0  0  0
  4 17  1  0  0  0  0
  6  7  1  0  0  0  0
  7 10  1  0  0  0  0
  8 13  2  0  0  0  0
  9 12  1  0  0  0  0
  9 11  1  0  0  0  0
 10  3  1  0  0  0  0
 11 15  2  0  0  0  0
 14  7  1  0  0  0  0
 14  5  1  0  0  0  0
 15 13  1  0  0  0  0
 16  6  1  0  0  0  0
 17 14  1  0  0  0  0
 19 30  1  0  0  0  0
 19 18  1  0  0  0  0
 19  2  1  0  0  0  0
 20 25  1  0  0  0  0
 21 24  2  0  0  0  0
 22 19  1  0  0  0  0
 23 20  2  0  0  0  0
 23 21  1  0  0  0  0
 24 22  1  0  0  0  0
 25 26  1  0  0  0  0
 25 22  2  0  0  0  0
 27 29  1  0  0  0  0
 28 29  2  0  0  0  0
 29 23  1  0  0  0  0
 30 31  1  0  0  0  0
 31 32  1  0  0  0  0
M  END
>  <MODEL>
4

>  <REMARK>
 VINA RESULT:      -3.3      2.812      4.627
  Name = 
  5 active torsions:
  status: ('A' for Active; 'I' for Inactive)
    1  A    between atoms: C_1  and  C_4
    2  A    between atoms: C_1  and  C_27
    3  A    between atoms: C_5  and  C_27
    4  A    between atoms: C_16  and  C_27
    5  A    between atoms: C_19  and  C_26
                            x       y       z     vdW  Elec       q    Type
                         _______ _______ _______ _____ _____    ______ ____

>  <TORSDO>
F 5

$$$$
=
 OpenBabel11062408163D

 32 35  0  0  1  0  0  0  0  0999 V2000
  159.1700  210.9990  153.2780 C   0  0  1  0  0  3  0  0  0  0  0  0
  160.6630  210.5830  153.3150 C   0  0  2  0  0  3  0  0  0  0  0  0
  158.5930  211.5800  154.5800 C   0  0  2  0  0  3  0  0  0  0  0  0
  161.9070  208.1190  157.0810 C   0  0  0  0  0  2  0  0  0  0  0  0
  161.4600  210.9910  154.5610 C   0  0  0  0  0  2  0  0  0  0  0  0
  159.4710  208.6370  156.9870 C   0  0  0  0  0  2  0  0  0  0  0  0
  159.6890  209.5430  155.7780 C   0  0  1  0  0  3  0  0  0  0  0  0
  159.1470  212.9000  155.0180 C   0  0  0  0  0  3  0  0  0  0  0  0
  158.6940  211.7660  152.0460 C   0  0  2  0  0  3  0  0  0  0  0  0
  158.5820  210.6050  155.7660 C   0  0  0  0  0  2  0  0  0  0  0  0
  159.2980  213.1210  151.8540 C   0  0  0  0  0  3  0  0  0  0  0  0
  157.3010  211.8570  152.0320 O   0  0  0  0  0  1  0  0  0  0  0  0
  159.5560  213.9160  154.2540 C   0  0  0  0  0  3  0  0  0  0  0  0
  161.1270  210.1220  155.7800 C   0  0  1  0  0  3  0  0  0  0  0  0
  159.6310  214.0170  152.7860 C   0  0  0  0  0  3  0  0  0  0  0  0
  160.5080  207.5210  157.0170 C   0  0  0  0  0  2  0  0  0  0  0  0
  162.1540  208.9920  155.8580 C   0  0  0  0  0  2  0  0  0  0  0  0
  162.9170  210.4940  152.1760 C   0  0  0  0  0  1  0  0  0  0  0  0
  161.4300  210.1770  152.0270 C   0  0  1  0  0  0  0  0  0  0  0  0
  161.4630  206.6790  150.3860 C   0  0  0  0  0  3  0  0  0  0  0  0
  160.8090  206.4440  152.6940 C   0  0  0  0  0  3  0  0  0  0  0  0
  161.3060  208.6650  151.8010 C   0  0  0  0  0  0  0  0  0  0  0  0
  161.0820  205.8590  151.4550 C   0  0  0  0  0  0  0  0  0  0  0  0
  160.9190  207.8240  152.8620 C   0  0  0  0  0  3  0  0  0  0  0  0
  161.5760  208.0630  150.5420 C   0  0  0  0  0  0  0  0  0  0  0  0
  161.9830  208.8540  149.3440 C   0  0  0  0  0  1  0  0  0  0  0  0
  161.0080  203.8250  149.9780 N   0  0  0  0  0  2  0  0  0  0  0  0
  160.8300  203.6230  152.3070 N   0  0  0  0  0  1  0  0  0  0  0  0
  160.9670  204.3990  151.2810 C   0  0  0  0  0  0  0  0  0  0  0  0
  160.8880  210.9720  150.8170 C   0  0  0  0  0  2  0  0  0  0  0  0
  161.9520  211.6720  149.9740 C   0  0  0  0  0  2  0  0  0  0  0  0
  161.3020  212.5260  148.9050 C   0  0  0  0  0  1  0  0  0  0  0  0
  1  2  1  0  0  0  0
  1  3  1  0  0  0  0
  2  5  1  0  0  0  0
  3  8  1  0  0  0  0
  3 10  1  0  0  0  0
  5 14  1  0  0  0  0
  6 16  1  0  0  0  0
  7 14  1  0  0  0  0
  7  6  1  0  0  0  0
  9  1  1  0  0  0  0
 10  7  1  0  0  0  0
 11  9  1  0  0  0  0
 11 15  2  0  0  0  0
 12  9  1  0  0  0  0
 13  8  2  0  0  0  0
 14 17  1  0  0  0  0
 15 13  1  0  0  0  0
 16  4  1  0  0  0  0
 17  4  1  0  0  0  0
 19 18  1  0  0  0  0
 19  2  1  0  0  0  0
 20 25  2  0  0  0  0
 20 23  1  0  0  0  0
 21 24  1  0  0  0  0
 22 19  1  0  0  0  0
 22 24  2  0  0  0  0
 23 21  2  0  0  0  0
 25 22  1  0  0  0  0
 26 25  1  0  0  0  0
 27 29  2  0  0  0  0
 29 23  1  0  0  0  0
 29 28  1  0  0  0  0
 30 19  1  0  0  0  0
 31 30  1  0  0  0  0
 32 31  1  0  0  0  0
M  END
>  <MODEL>
5

>  <REMARK>
 VINA RESULT:      -3.2      2.008      4.057
  Name = 
  5 active torsions:
  status: ('A' for Active; 'I' for Inactive)
    1  A    between atoms: C_1  and  C_4
    2  A    between atoms: C_1  and  C_27
    3  A    between atoms: C_5  and  C_27
    4  A    between atoms: C_16  and  C_27
    5  A    between atoms: C_19  and  C_26
                            x       y       z     vdW  Elec       q    Type
                         _______ _______ _______ _____ _____    ______ ____

>  <TORSDO>
F 5

$$$$
=
 OpenBabel11062408163D

 32 35  0  0  1  0  0  0  0  0999 V2000
  159.9880  209.9240  155.1130 C   0  0  1  0  0  3  0  0  0  0  0  0
  160.3560  210.5840  153.7600 C   0  0  2  0  0  3  0  0  0  0  0  0
  161.0000  208.9090  155.6720 C   0  0  2  0  0  3  0  0  0  0  0  0
  161.9070  207.6200  150.5020 C   0  0  0  0  0  2  0  0  0  0  0  0
  161.7730  210.3290  153.2320 C   0  0  0  0  0  2  0  0  0  0  0  0
  161.1860  206.5010  152.6080 C   0  0  0  0  0  2  0  0  0  0  0  0
  161.0060  207.8540  153.2910 C   0  0  1  0  0  3  0  0  0  0  0  0
  162.3290  209.4610  156.0850 C   0  0  0  0  0  3  0  0  0  0  0  0
  159.4280  210.8380  156.2020 C   0  0  2  0  0  3  0  0  0  0  0  0
  161.2060  207.6630  154.8000 C   0  0  0  0  0  2  0  0  0  0  0  0
  160.3700  211.8770  156.7200 C   0  0  0  0  0  3  0  0  0  0  0  0
  158.9170  210.0850  157.2610 O   0  0  0  0  0  1  0  0  0  0  0  0
  162.5960  210.6540  156.6220 C   0  0  0  0  0  3  0  0  0  0  0  0
  161.9380  208.9170  152.6540 C   0  0  1  0  0  3  0  0  0  0  0  0
  161.6880  211.7780  156.9120 C   0  0  0  0  0  3  0  0  0  0  0  0
  160.9370  206.6160  151.1100 C   0  0  0  0  0  2  0  0  0  0  0  0
  161.7090  208.9880  151.1440 C   0  0  0  0  0  2  0  0  0  0  0  0
  159.6530  212.9890  154.0930 C   0  0  0  0  0  1  0  0  0  0  0  0
  159.5360  211.7700  153.1800 C   0  0  1  0  0  0  0  0  0  0  0  0
  160.2600  213.7040  149.9130 C   0  0  0  0  0  3  0  0  0  0  0  0
  161.5670  211.6780  149.9190 C   0  0  0  0  0  3  0  0  0  0  0  0
  160.0970  212.1700  151.8090 C   0  0  0  0  0  0  0  0  0  0  0  0
  161.1890  212.8650  149.2860 C   0  0  0  0  0  0  0  0  0  0  0  0
  161.0280  211.3370  151.1590 C   0  0  0  0  0  3  0  0  0  0  0  0
  159.7130  213.3730  151.1560 C   0  0  0  0  0  0  0  0  0  0  0  0
  158.7270  214.3270  151.7440 C   0  0  0  0  0  1  0  0  0  0  0  0
  161.3050  212.5780  146.7900 N   0  0  0  0  0  2  0  0  0  0  0  0
  162.6850  214.1250  147.8850 N   0  0  0  0  0  1  0  0  0  0  0  0
  161.7630  213.2230  147.9750 C   0  0  0  0  0  0  0  0  0  0  0  0
  158.0430  211.3820  153.0840 C   0  0  0  0  0  2  0  0  0  0  0  0
  157.1150  212.1450  154.0270 C   0  0  0  0  0  2  0  0  0  0  0  0
  156.1270  211.1980  154.6770 C   0  0  0  0  0  1  0  0  0  0  0  0
  1  3  1  0  0  0  0
  1  9  1  0  0  0  0
  2  1  1  0  0  0  0
  3  8  1  0  0  0  0
  4 16  1  0  0  0  0
  4 17  1  0  0  0  0
  5  2  1  0  0  0  0
  6  7  1  0  0  0  0
  7 10  1  0  0  0  0
  8 13  2  0  0  0  0
  9 11  1  0  0  0  0
  9 12  1  0  0  0  0
 10  3  1  0  0  0  0
 11 15  2  0  0  0  0
 13 15  1  0  0  0  0
 14  5  1  0  0  0  0
 14  7  1  0  0  0  0
 16  6  1  0  0  0  0
 17 14  1  0  0  0  0
 19  2  1  0  0  0  0
 19 18  1  0  0  0  0
 20 25  1  0  0  0  0
 21 24  2  0  0  0  0
 22 19  1  0  0  0  0
 23 20  2  0  0  0  0
 23 21  1  0  0  0  0
 24 22  1  0  0  0  0
 25 26  1  0  0  0  0
 25 22  2  0  0  0  0
 27 29  2  0  0  0  0
 28 29  1  0  0  0  0
 29 23  1  0  0  0  0
 30 19  1  0  0  0  0
 30 31  1  0  0  0  0
 31 32  1  0  0  0  0
M  END
>  <MODEL>
6

>  <REMARK>
 VINA RESULT:      -3.0      2.471      3.960
  Name = 
  5 active torsions:
  status: ('A' for Active; 'I' for Inactive)
    1  A    between atoms: C_1  and  C_4
    2  A    between atoms: C_1  and  C_27
    3  A    between atoms: C_5  and  C_27
    4  A    between atoms: C_16  and  C_27
    5  A    between atoms: C_19  and  C_26
                            x       y       z     vdW  Elec       q    Type
                         _______ _______ _______ _____ _____    ______ ____

>  <TORSDO>
F 5

$$$$
=
 OpenBabel11062408163D

 32 35  0  0  1  0  0  0  0  0999 V2000
  160.1290  202.6340  148.4640 C   0  0  1  0  0  3  0  0  0  0  0  0
  161.2550  203.6730  148.7020 C   0  0  2  0  0  3  0  0  0  0  0  0
  160.2830  201.7360  147.2240 C   0  0  2  0  0  3  0  0  0  0  0  0
  162.5330  206.0680  144.9020 C   0  0  0  0  0  2  0  0  0  0  0  0
  162.5000  203.5540  147.8150 C   0  0  0  0  0  2  0  0  0  0  0  0
  160.6210  204.5180  144.5090 C   0  0  0  0  0  2  0  0  0  0  0  0
  160.7870  203.9260  145.9060 C   0  0  1  0  0  3  0  0  0  0  0  0
  161.4300  200.7730  147.2450 C   0  0  0  0  0  3  0  0  0  0  0  0
  159.6350  201.8540  149.6810 C   0  0  2  0  0  3  0  0  0  0  0  0
  160.2610  202.4850  145.8840 C   0  0  0  0  0  2  0  0  0  0  0  0
  160.6380  200.9430  150.3140 C   0  0  0  0  0  3  0  0  0  0  0  0
  158.4730  201.1460  149.3730 O   0  0  0  0  0  1  0  0  0  0  0  0
  161.9460  200.1280  148.2930 C   0  0  0  0  0  3  0  0  0  0  0  0
  162.2540  204.0600  146.3880 C   0  0  1  0  0  3  0  0  0  0  0  0
  161.5820  200.2100  149.7190 C   0  0  0  0  0  3  0  0  0  0  0  0
  161.0710  205.9730  144.4850 C   0  0  0  0  0  2  0  0  0  0  0  0
  162.7060  205.5190  146.3120 C   0  0  0  0  0  2  0  0  0  0  0  0
  162.5630  204.0820  150.8250 C   0  0  0  0  0  1  0  0  0  0  0  0
  161.3380  204.5010  150.0140 C   0  0  1  0  0  0  0  0  0  0  0  0
  162.3290  208.2320  150.1860 C   0  0  0  0  0  3  0  0  0  0  0  0
  161.0850  207.8550  148.1560 C   0  0  0  0  0  3  0  0  0  0  0  0
  161.4980  205.9900  149.6820 C   0  0  0  0  0  0  0  0  0  0  0  0
  161.7790  208.7280  148.9970 C   0  0  0  0  0  0  0  0  0  0  0  0
  160.9470  206.5090  148.4940 C   0  0  0  0  0  3  0  0  0  0  0  0
  162.1970  206.8860  150.5360 C   0  0  0  0  0  0  0  0  0  0  0  0
  162.8120  206.4520  151.8240 C   0  0  0  0  0  1  0  0  0  0  0  0
  161.2060  210.6880  147.5280 N   0  0  0  0  0  2  0  0  0  0  0  0
  162.7050  210.9250  149.3160 N   0  0  0  0  0  1  0  0  0  0  0  0
  161.9250  210.1510  148.6350 C   0  0  0  0  0  0  0  0  0  0  0  0
  160.0800  204.2510  150.8770 C   0  0  0  0  0  2  0  0  0  0  0  0
  160.3590  203.8360  152.3200 C   0  0  0  0  0  2  0  0  0  0  0  0
  160.4630  205.0580  153.2100 C   0  0  0  0  0  1  0  0  0  0  0  0
  1  2  1  0  0  0  0
  1  9  1  0  0  0  0
  2 19  1  0  0  0  0
  3  8  1  0  0  0  0
  3  1  1  0  0  0  0
  4 17  1  0  0  0  0
  5  2  1  0  0  0  0
  6  7  1  0  0  0  0
  7 14  1  0  0  0  0
  8 13  2  0  0  0  0
  9 11  1  0  0  0  0
 10  7  1  0  0  0  0
 10  3  1  0  0  0  0
 12  9  1  0  0  0  0
 13 15  1  0  0  0  0
 14  5  1  0  0  0  0
 15 11  2  0  0  0  0
 16  6  1  0  0  0  0
 16  4  1  0  0  0  0
 17 14  1  0  0  0  0
 19 18  1  0  0  0  0
 19 30  1  0  0  0  0
 20 25  1  0  0  0  0
 21 24  2  0  0  0  0
 21 23  1  0  0  0  0
 22 19  1  0  0  0  0
 22 25  2  0  0  0  0
 23 20  2  0  0  0  0
 24 22  1  0  0  0  0
 25 26  1  0  0  0  0
 27 29  2  0  0  0  0
 29 23  1  0  0  0  0
 29 28  1  0  0  0  0
 30 31  1  0  0  0  0
 31 32  1  0  0  0  0
M  END
>  <MODEL>
7

>  <REMARK>
 VINA RESULT:      -2.0      3.734      7.648
  Name = 
  5 active torsions:
  status: ('A' for Active; 'I' for Inactive)
    1  A    between atoms: C_1  and  C_4
    2  A    between atoms: C_1  and  C_27
    3  A    between atoms: C_5  and  C_27
    4  A    between atoms: C_16  and  C_27
    5  A    between atoms: C_19  and  C_26
                            x       y       z     vdW  Elec       q    Type
                         _______ _______ _______ _____ _____    ______ ____

>  <TORSDO>
F 5

$$$$
=
 OpenBabel11062408163D

 32 35  0  0  1  0  0  0  0  0999 V2000
  162.3160  205.8960  150.9110 C   0  0  1  0  0  3  0  0  0  0  0  0
  161.0980  205.2020  150.2480 C   0  0  2  0  0  3  0  0  0  0  0  0
  162.4910  207.3940  150.6090 C   0  0  2  0  0  3  0  0  0  0  0  0
  160.5080  206.2000  145.7250 C   0  0  0  0  0  2  0  0  0  0  0  0
  160.0830  206.1130  149.5480 C   0  0  0  0  0  2  0  0  0  0  0  0
  162.5590  207.2160  146.7120 C   0  0  0  0  0  2  0  0  0  0  0  0
  162.1370  206.7620  148.1080 C   0  0  1  0  0  3  0  0  0  0  0  0
  161.4340  208.3050  151.1510 C   0  0  0  0  0  3  0  0  0  0  0  0
  162.5880  205.5690  152.3780 C   0  0  2  0  0  3  0  0  0  0  0  0
  162.7510  207.7240  149.1330 C   0  0  0  0  0  2  0  0  0  0  0  0
  161.5360  206.0120  153.3450 C   0  0  0  0  0  3  0  0  0  0  0  0
  163.8340  206.0610  152.7690 O   0  0  0  0  0  1  0  0  0  0  0  0
  160.7500  208.1880  152.2910 C   0  0  0  0  0  3  0  0  0  0  0  0
  160.5950  206.6330  148.1990 C   0  0  1  0  0  3  0  0  0  0  0  0
  160.7930  207.1210  153.3070 C   0  0  0  0  0  3  0  0  0  0  0  0
  162.0290  206.2590  145.6520 C   0  0  0  0  0  2  0  0  0  0  0  0
  160.0740  205.7080  147.0990 C   0  0  0  0  0  2  0  0  0  0  0  0
  159.2690  203.7460  151.2080 C   0  0  0  0  0  1  0  0  0  0  0  0
  160.6800  203.7530  150.6230 C   0  0  1  0  0  0  0  0  0  0  0  0
  159.8430  200.9530  148.0950 C   0  0  0  0  0  3  0  0  0  0  0  0
  161.4560  202.4400  147.0960 C   0  0  0  0  0  3  0  0  0  0  0  0
  160.6580  202.8750  149.3660 C   0  0  0  0  0  0  0  0  0  0  0  0
  160.6450  201.3060  147.0030 C   0  0  0  0  0  0  0  0  0  0  0  0
  161.4620  203.2100  148.2590 C   0  0  0  0  0  3  0  0  0  0  0  0
  159.8410  201.7160  149.2650 C   0  0  0  0  0  0  0  0  0  0  0  0
  158.9570  201.2580  150.3780 C   0  0  0  0  0  1  0  0  0  0  0  0
  161.2490  199.2080  145.7550 N   0  0  0  0  0  1  0  0  0  0  0  0
  160.0820  200.9420  144.6920 N   0  0  0  0  0  2  0  0  0  0  0  0
  160.6390  200.4960  145.7700 C   0  0  0  0  0  0  0  0  0  0  0  0
  161.6460  203.1840  151.6880 C   0  0  0  0  0  2  0  0  0  0  0  0
  161.8640  201.6740  151.6220 C   0  0  0  0  0  2  0  0  0  0  0  0
  163.2870  201.3270  152.0110 C   0  0  0  0  0  1  0  0  0  0  0  0
  1  9  1  0  0  0  0
  2 19  1  0  0  0  0
  2  1  1  0  0  0  0
  3  1  1  0  0  0  0
  3  8  1  0  0  0  0
  4 17  1  0  0  0  0
  5  2  1  0  0  0  0
  6  7  1  0  0  0  0
  7 14  1  0  0  0  0
  7 10  1  0  0  0  0
  8 13  2  0  0  0  0
  9 12  1  0  0  0  0
  9 11  1  0  0  0  0
 10  3  1  0  0  0  0
 13 15  1  0  0  0  0
 14  5  1  0  0  0  0
 15 11  2  0  0  0  0
 16  4  1  0  0  0  0
 16  6  1  0  0  0  0
 17 14  1  0  0  0  0
 19 18  1  0  0  0  0
 19 30  1  0  0  0  0
 20 25  1  0  0  0  0
 21 24  2  0  0  0  0
 22 19  1  0  0  0  0
 23 21  1  0  0  0  0
 23 20  2  0  0  0  0
 24 22  1  0  0  0  0
 25 22  2  0  0  0  0
 25 26  1  0  0  0  0
 27 29  1  0  0  0  0
 28 29  2  0  0  0  0
 29 23  1  0  0  0  0
 31 30  1  0  0  0  0
 31 32  1  0  0  0  0
M  END
>  <MODEL>
8

>  <REMARK>
 VINA RESULT:      -1.1      3.220      6.703
  Name = 
  5 active torsions:
  status: ('A' for Active; 'I' for Inactive)
    1  A    between atoms: C_1  and  C_4
    2  A    between atoms: C_1  and  C_27
    3  A    between atoms: C_5  and  C_27
    4  A    between atoms: C_16  and  C_27
    5  A    between atoms: C_19  and  C_26
                            x       y       z     vdW  Elec       q    Type
                         _______ _______ _______ _____ _____    ______ ____

>  <TORSDO>
F 5

$$$$
=
 OpenBabel11062408163D

 32 35  0  0  1  0  0  0  0  0999 V2000
  159.9110  208.2900  154.5970 C   0  0  1  0  0  3  0  0  0  0  0  0
  160.4870  209.6760  154.2060 C   0  0  2  0  0  3  0  0  0  0  0  0
  160.7890  207.0710  154.2650 C   0  0  2  0  0  3  0  0  0  0  0  0
  162.3010  209.8910  149.9090 C   0  0  0  0  0  2  0  0  0  0  0  0
  161.9460  209.7070  153.7360 C   0  0  0  0  0  2  0  0  0  0  0  0
  161.2540  207.6930  150.4420 C   0  0  0  0  0  2  0  0  0  0  0  0
  161.0540  208.1170  151.8940 C   0  0  1  0  0  3  0  0  0  0  0  0
  162.0780  206.9610  155.0180 C   0  0  0  0  0  3  0  0  0  0  0  0
  159.2600  208.1720  155.9740 C   0  0  2  0  0  3  0  0  0  0  0  0
  161.0440  206.8550  152.7670 C   0  0  0  0  0  2  0  0  0  0  0  0
  160.1770  208.3600  157.1410 C   0  0  0  0  0  3  0  0  0  0  0  0
  158.5770  206.9610  156.0930 O   0  0  0  0  0  1  0  0  0  0  0  0
  162.3320  207.3260  156.2760 C   0  0  0  0  0  3  0  0  0  0  0  0
  162.1140  209.1700  152.3090 C   0  0  1  0  0  3  0  0  0  0  0  0
  161.4510  207.9800  157.2610 C   0  0  0  0  0  3  0  0  0  0  0  0
  161.2100  208.9030  149.5170 C   0  0  0  0  0  2  0  0  0  0  0  0
  162.0890  210.3550  151.3440 C   0  0  0  0  0  2  0  0  0  0  0  0
  160.8320  211.9040  155.3480 C   0  0  0  0  0  1  0  0  0  0  0  0
  159.8110  210.9990  154.6610 C   0  0  1  0  0  0  0  0  0  0  0  0
  157.4460  212.5420  152.0240 C   0  0  0  0  0  3  0  0  0  0  0  0
  159.7160  213.1320  151.4670 C   0  0  0  0  0  3  0  0  0  0  0  0
  159.2760  211.7580  153.4400 C   0  0  0  0  0  0  0  0  0  0  0  0
  158.3510  213.2000  151.1810 C   0  0  0  0  0  0  0  0  0  0  0  0
  160.1700  212.4220  152.5780 C   0  0  0  0  0  3  0  0  0  0  0  0
  157.8890  211.8270  153.1390 C   0  0  0  0  0  0  0  0  0  0  0  0
  156.8520  211.1540  153.9750 C   0  0  0  0  0  1  0  0  0  0  0  0
  156.5250  214.4100  149.9450 N   0  0  0  0  0  1  0  0  0  0  0  0
  158.6710  214.2120  149.0220 N   0  0  0  0  0  2  0  0  0  0  0  0
  157.8730  213.9550  150.0060 C   0  0  0  0  0  0  0  0  0  0  0  0
  158.6810  210.6940  155.6720 C   0  0  0  0  0  2  0  0  0  0  0  0
  158.7230  211.5210  156.9550 C   0  0  0  0  0  2  0  0  0  0  0  0
  157.4820  212.3830  157.0690 C   0  0  0  0  0  1  0  0  0  0  0  0
  1  9  1  0  0  0  0
  2  1  1  0  0  0  0
  2 19  1  0  0  0  0
  3  1  1  0  0  0  0
  3  8  1  0  0  0  0
  4 17  1  0  0  0  0
  5  2  1  0  0  0  0
  6  7  1  0  0  0  0
  7 14  1  0  0  0  0
  7 10  1  0  0  0  0
  8 13  2  0  0  0  0
  9 12  1  0  0  0  0
  9 11  1  0  0  0  0
 10  3  1  0  0  0  0
 11 15  2  0  0  0  0
 13 15  1  0  0  0  0
 14  5  1  0  0  0  0
 16  4  1  0  0  0  0
 16  6  1  0  0  0  0
 17 14  1  0  0  0  0
 19 18  1  0  0  0  0
 19 30  1  0  0  0  0
 20 25  1  0  0  0  0
 21 24  2  0  0  0  0
 22 19  1  0  0  0  0
 23 21  1  0  0  0  0
 23 20  2  0  0  0  0
 24 22  1  0  0  0  0
 25 22  2  0  0  0  0
 25 26  1  0  0  0  0
 27 29  1  0  0  0  0
 28 29  2  0  0  0  0
 29 23  1  0  0  0  0
 30 31  1  0  0  0  0
 31 32  1  0  0  0  0
M  END
>  <MODEL>
9

>  <REMARK>
 VINA RESULT:      -1.0      2.846      5.205
  Name = 
  5 active torsions:
  status: ('A' for Active; 'I' for Inactive)
    1  A    between atoms: C_1  and  C_4
    2  A    between atoms: C_1  and  C_27
    3  A    between atoms: C_5  and  C_27
    4  A    between atoms: C_16  and  C_27
    5  A    between atoms: C_19  and  C_26
                            x       y       z     vdW  Elec       q    Type
                         _______ _______ _______ _____ _____    ______ ____

>  <TORSDO>
F 5

$$$$
