=
 OpenBabel11062409453D

 34 39  0  0  1  0  0  0  0  0999 V2000
  161.3540  209.1280  153.0630 C   0  0  2  0  0  3  0  0  0  0  0  0
  159.8110  212.5850  152.7000 C   0  0  0  0  0  3  0  0  0  0  0  0
  159.9470  211.1590  154.7440 C   0  0  0  0  0  2  0  0  0  0  0  0
  161.0700  206.3290  153.6990 C   0  0  0  0  0  2  0  0  0  0  0  0
  161.4470  207.9940  152.0350 C   0  0  0  0  0  2  0  0  0  0  0  0
  160.9780  207.3830  154.7970 C   0  0  2  0  0  3  0  0  0  0  0  0
  160.1160  208.0260  157.0270 C   0  0  0  0  0  2  0  0  0  0  0  0
  160.0620  206.9580  155.9320 C   0  0  0  0  0  2  0  0  0  0  0  0
  162.0060  206.7810  152.6580 N   0  0  2  0  0  0  0  0  0  0  0  0
  160.1730  209.7430  155.1980 C   0  0  0  0  0  0  0  0  0  0  0  0
  160.4250  208.6600  154.1760 C   0  0  1  0  0  3  0  0  0  0  0  0
  159.9400  209.4270  156.4840 C   0  0  0  0  0  3  0  0  0  0  0  0
  160.0520  212.8440  151.3510 C   0  0  0  0  0  0  0  0  0  0  0  0
  160.7180  211.8760  150.5900 C   0  0  0  0  0  3  0  0  0  0  0  0
  160.2070  211.3750  153.2740 C   0  0  0  0  0  0  0  0  0  0  0  0
  161.1050  210.7030  151.1570 N   0  0  0  0  0  0  0  0  0  0  0  0
  160.8540  210.4150  152.4640 C   0  0  0  0  0  0  0  0  0  0  0  0
  160.9170  203.6340  151.0800 C   0  0  0  0  0  3  0  0  0  0  0  0
  161.6580  206.2430  150.2520 C   0  0  0  0  0  2  0  0  0  0  0  0
  161.0380  203.2110  147.2490 C   0  0  0  0  0  0  0  0  0  0  0  0
  160.7360  202.3230  146.3390 C   0  0  0  0  0  0  0  0  0  0  0  0
  161.0010  202.7640  148.6780 C   0  0  0  0  0  2  0  0  0  0  0  0
  160.4500  201.4830  145.4770 O   0  0  0  0  0  0  0  0  0  0  0  0
  161.1750  203.8950  149.6520 C   0  0  0  0  0  0  0  0  0  0  0  0
  161.4970  205.1240  145.2930 S   0  0  0  0  0  1  0  0  0  0  0  0
  161.8380  205.3920  147.9070 O   0  0  0  0  0  0  0  0  0  0  0  0
  161.5760  205.1180  149.2550 C   0  0  0  0  0  0  0  0  0  0  0  0
  161.9210  204.3820  146.9030 C   0  0  1  0  0  3  0  0  0  0  0  0
  162.1150  205.7320  151.6330 C   0  0  2  0  0  3  0  0  0  0  0  0
  161.3100  204.5070  152.0120 C   0  0  0  0  0  3  0  0  0  0  0  0
  159.6350  214.1030  150.8030 N   0  0  0  0  0  2  0  0  0  0  0  0
  157.3700  214.4170  150.1590 C   0  0  0  0  0  2  0  0  0  0  0  0
  158.6410  214.3420  149.7970 C   0  0  0  0  0  0  0  0  0  0  0  0
  158.9680  214.4280  148.3450 C   0  0  0  0  0  1  0  0  0  0  0  0
  1  5  1  6  0  0  0
  1 11  1  0  0  0  0
  2 15  1  0  0  0  0
  3 10  1  0  0  0  0
  6  4  1  6  0  0  0
  6  8  1  0  0  0  0
  8  7  1  0  0  0  0
  9  5  1  6  0  0  0
  9  4  1  0  0  0  0
 10 12  2  0  0  0  0
 11  6  1  0  0  0  0
 11 10  1  1  0  0  0
 12  7  1  0  0  0  0
 13  2  2  0  0  0  0
 14 16  2  0  0  0  0
 14 13  1  0  0  0  0
 15  3  1  0  0  0  0
 16 17  1  0  0  0  0
 17  1  1  0  0  0  0
 17 15  2  0  0  0  0
 18 30  2  0  0  0  0
 20 22  1  0  0  0  0
 21 20  2  0  0  0  0
 22 24  1  0  0  0  0
 23 21  2  0  0  0  0
 24 18  1  0  0  0  0
 26 27  1  0  0  0  0
 27 24  2  0  0  0  0
 27 19  1  0  0  0  0
 28 25  1  6  0  0  0
 28 20  1  0  0  0  0
 28 26  1  0  0  0  0
 29 19  1  6  0  0  0
 29 30  1  0  0  0  0
 29  9  1  0  0  0  0
 31 13  1  0  0  0  0
 33 32  2  0  0  0  0
 33 31  1  0  0  0  0
 34 33  1  0  0  0  0
M  END
>  <MODEL>
1

>  <REMARK>
 VINA RESULT:      -9.8      0.000      0.000
  Name = 
  3 active torsions:
  status: ('A' for Active; 'I' for Inactive)
    1  A    between atoms: C_13  and  N_25
    2  A    between atoms: N_18  and  C_30
    3  A    between atoms: C_23  and  N_25
                            x       y       z     vdW  Elec       q    Type
                         _______ _______ _______ _____ _____    ______ ____

>  <TORSDO>
F 3

$$$$
=
 OpenBabel11062409453D

 34 39  0  0  1  0  0  0  0  0999 V2000
  161.5610  211.2750  150.7200 C   0  0  2  0  0  3  0  0  0  0  0  0
  161.0340  214.1120  148.2420 C   0  0  0  0  0  3  0  0  0  0  0  0
  160.1860  213.9250  150.5830 C   0  0  0  0  0  2  0  0  0  0  0  0
  160.4660  209.2050  152.4030 C   0  0  0  0  0  2  0  0  0  0  0  0
  161.7190  209.7730  150.4560 C   0  0  0  0  0  2  0  0  0  0  0  0
  160.2700  210.6740  152.7600 C   0  0  2  0  0  3  0  0  0  0  0  0
  158.9100  212.3930  153.9110 C   0  0  0  0  0  2  0  0  0  0  0  0
  158.9680  210.9180  153.5060 C   0  0  0  0  0  2  0  0  0  0  0  0
  161.7620  209.0300  151.7280 N   0  0  2  0  0  0  0  0  0  0  0  0
  159.9320  212.9320  151.6830 C   0  0  0  0  0  0  0  0  0  0  0  0
  160.2450  211.4730  151.4630 C   0  0  1  0  0  3  0  0  0  0  0  0
  159.2360  213.3260  152.7650 C   0  0  0  0  0  3  0  0  0  0  0  0
  161.7440  213.6370  147.1390 C   0  0  0  0  0  0  0  0  0  0  0  0
  162.3820  212.3950  147.2350 C   0  0  0  0  0  3  0  0  0  0  0  0
  160.9430  213.3520  149.4100 C   0  0  0  0  0  0  0  0  0  0  0  0
  162.2930  211.6630  148.3770 N   0  0  0  0  0  0  0  0  0  0  0  0
  161.5810  212.0920  149.4550 C   0  0  0  0  0  0  0  0  0  0  0  0
  160.9640  205.4650  152.2070 C   0  0  0  0  0  3  0  0  0  0  0  0
  161.4100  207.2360  150.0370 C   0  0  0  0  0  2  0  0  0  0  0  0
  161.0300  203.0180  149.2260 C   0  0  0  0  0  0  0  0  0  0  0  0
  160.7990  201.7570  148.9730 C   0  0  0  0  0  0  0  0  0  0  0  0
  161.0760  203.4270  150.6670 C   0  0  0  0  0  2  0  0  0  0  0  0
  160.5790  200.5640  148.7320 O   0  0  0  0  0  0  0  0  0  0  0  0
  161.1570  204.9170  150.8510 C   0  0  0  0  0  0  0  0  0  0  0  0
  161.2380  203.5710  146.5160 S   0  0  0  0  0  1  0  0  0  0  0  0
  161.6160  205.2540  148.5280 O   0  0  0  0  0  0  0  0  0  0  0  0
  161.4200  205.7460  149.8230 C   0  0  0  0  0  0  0  0  0  0  0  0
  161.7780  203.8670  148.2320 C   0  0  1  0  0  3  0  0  0  0  0  0
  161.9520  207.6020  151.4340 C   0  0  2  0  0  3  0  0  0  0  0  0
  161.2890  206.7310  152.4800 C   0  0  0  0  0  3  0  0  0  0  0  0
  161.8190  214.4530  145.9610 N   0  0  0  0  0  2  0  0  0  0  0  0
  160.5570  213.9760  144.0050 C   0  0  0  0  0  2  0  0  0  0  0  0
  161.7430  214.0340  144.5910 C   0  0  0  0  0  0  0  0  0  0  0  0
  162.9350  213.5810  143.8210 C   0  0  0  0  0  1  0  0  0  0  0  0
  1  5  1  6  0  0  0
  1 11  1  0  0  0  0
  2 15  1  0  0  0  0
  3 10  1  0  0  0  0
  6  4  1  6  0  0  0
  6  8  1  0  0  0  0
  8  7  1  0  0  0  0
  9  5  1  6  0  0  0
  9  4  1  0  0  0  0
 10 12  2  0  0  0  0
 11 10  1  1  0  0  0
 11  6  1  0  0  0  0
 12  7  1  0  0  0  0
 13 14  1  0  0  0  0
 13  2  2  0  0  0  0
 14 16  2  0  0  0  0
 15 17  2  0  0  0  0
 15  3  1  0  0  0  0
 16 17  1  0  0  0  0
 17  1  1  0  0  0  0
 18 30  2  0  0  0  0
 20 22  1  0  0  0  0
 21 20  2  0  0  0  0
 22 24  1  0  0  0  0
 23 21  2  0  0  0  0
 24 18  1  0  0  0  0
 26 27  1  0  0  0  0
 27 19  1  0  0  0  0
 27 24  2  0  0  0  0
 28 25  1  6  0  0  0
 28 26  1  0  0  0  0
 28 20  1  0  0  0  0
 29 19  1  6  0  0  0
 29  9  1  0  0  0  0
 29 30  1  0  0  0  0
 31 13  1  0  0  0  0
 32 33  2  0  0  0  0
 33 31  1  0  0  0  0
 34 33  1  0  0  0  0
M  END
>  <MODEL>
2

>  <REMARK>
 VINA RESULT:      -8.4      2.418      3.818
  Name = 
  3 active torsions:
  status: ('A' for Active; 'I' for Inactive)
    1  A    between atoms: C_13  and  N_25
    2  A    between atoms: N_18  and  C_30
    3  A    between atoms: C_23  and  N_25
                            x       y       z     vdW  Elec       q    Type
                         _______ _______ _______ _____ _____    ______ ____

>  <TORSDO>
F 3

$$$$
=
 OpenBabel11062409453D

 34 39  0  0  1  0  0  0  0  0999 V2000
  160.1470  210.0690  153.6400 C   0  0  2  0  0  3  0  0  0  0  0  0
  158.0330  212.8880  155.0720 C   0  0  0  0  0  3  0  0  0  0  0  0
  159.6240  211.3850  156.2720 C   0  0  0  0  0  2  0  0  0  0  0  0
  160.8560  207.2740  153.5780 C   0  0  0  0  0  2  0  0  0  0  0  0
  159.8430  209.1260  152.4700 C   0  0  0  0  0  2  0  0  0  0  0  0
  161.2190  208.1360  154.7820 C   0  0  2  0  0  3  0  0  0  0  0  0
  161.7230  208.2570  157.2030 C   0  0  0  0  0  2  0  0  0  0  0  0
  161.2510  207.3370  156.0740 C   0  0  0  0  0  2  0  0  0  0  0  0
  160.8890  208.0950  152.3560 N   0  0  2  0  0  0  0  0  0  0  0  0
  160.3510  210.0740  156.1470 C   0  0  0  0  0  0  0  0  0  0  0  0
  160.1650  209.2290  154.9110 C   0  0  1  0  0  3  0  0  0  0  0  0
  160.9860  209.5790  157.2240 C   0  0  0  0  0  3  0  0  0  0  0  0
  157.3780  213.3380  153.9260 C   0  0  0  0  0  0  0  0  0  0  0  0
  157.6470  212.7060  152.7060 C   0  0  0  0  0  3  0  0  0  0  0  0
  158.9220  211.8130  155.0070 C   0  0  0  0  0  0  0  0  0  0  0  0
  158.5180  211.6630  152.6500 N   0  0  0  0  0  0  0  0  0  0  0  0
  159.1450  211.1870  153.7600 C   0  0  0  0  0  0  0  0  0  0  0  0
  161.4730  206.9290  148.9100 C   0  0  0  0  0  3  0  0  0  0  0  0
  161.0040  205.7760  151.4580 C   0  0  0  0  0  2  0  0  0  0  0  0
  161.0400  203.2080  147.9940 C   0  0  0  0  0  0  0  0  0  0  0  0
  161.1680  202.4200  146.9590 C   0  0  0  0  0  0  0  0  0  0  0  0
  161.1190  204.6830  147.7420 C   0  0  0  0  0  2  0  0  0  0  0  0
  161.2890  201.6730  145.9800 O   0  0  0  0  0  0  0  0  0  0  0  0
  161.1520  205.4930  149.0080 C   0  0  0  0  0  0  0  0  0  0  0  0
  160.6890  201.0250  149.6700 S   0  0  0  0  0  1  0  0  0  0  0  0
  160.5620  203.5880  150.3300 O   0  0  0  0  0  0  0  0  0  0  0  0
  160.8780  204.9460  150.2080 C   0  0  0  0  0  0  0  0  0  0  0  0
  160.2870  202.7440  149.2130 C   0  0  1  0  0  3  0  0  0  0  0  0
  160.5820  207.2370  151.2020 C   0  0  2  0  0  3  0  0  0  0  0  0
  161.2540  207.7460  149.9440 C   0  0  0  0  0  3  0  0  0  0  0  0
  156.4780  214.4510  154.0350 N   0  0  0  0  0  2  0  0  0  0  0  0
  154.2310  214.4450  153.2640 C   0  0  0  0  0  2  0  0  0  0  0  0
  155.0660  214.4220  154.2900 C   0  0  0  0  0  0  0  0  0  0  0  0
  154.4970  214.4500  155.6670 C   0  0  0  0  0  1  0  0  0  0  0  0
  1  5  1  6  0  0  0
  1 17  1  0  0  0  0
  1 11  1  0  0  0  0
  6  4  1  6  0  0  0
  6 11  1  0  0  0  0
  6  8  1  0  0  0  0
  7 12  1  0  0  0  0
  8  7  1  0  0  0  0
  9  5  1  1  0  0  0
  9  4  1  0  0  0  0
 10  3  1  0  0  0  0
 10 12  2  0  0  0  0
 11 10  1  1  0  0  0
 13 31  1  0  0  0  0
 13  2  2  0  0  0  0
 14 13  1  0  0  0  0
 15  2  1  0  0  0  0
 15  3  1  0  0  0  0
 16 14  2  0  0  0  0
 16 17  1  0  0  0  0
 17 15  2  0  0  0  0
 18 24  1  0  0  0  0
 18 30  2  0  0  0  0
 20 28  1  0  0  0  0
 21 20  2  0  0  0  0
 22 20  1  0  0  0  0
 22 24  1  0  0  0  0
 23 21  2  0  0  0  0
 24 27  2  0  0  0  0
 27 26  1  0  0  0  0
 27 19  1  0  0  0  0
 28 25  1  1  0  0  0
 28 26  1  0  0  0  0
 29 30  1  6  0  0  0
 29 19  1  0  0  0  0
 29  9  1  0  0  0  0
 31 33  1  0  0  0  0
 32 33  2  0  0  0  0
 33 34  1  0  0  0  0
M  END
>  <MODEL>
3

>  <REMARK>
 VINA RESULT:      -7.4      2.505      3.127
  Name = 
  3 active torsions:
  status: ('A' for Active; 'I' for Inactive)
    1  A    between atoms: C_13  and  N_25
    2  A    between atoms: N_18  and  C_30
    3  A    between atoms: C_23  and  N_25
                            x       y       z     vdW  Elec       q    Type
                         _______ _______ _______ _____ _____    ______ ____

>  <TORSDO>
F 3

$$$$
