=
 OpenBabel11052422173D

 25 27  0  0  0  0  0  0  0  0999 V2000
  161.5660  207.2370  149.6990 C   0  0  0  0  0  0  0  0  0  0  0  0
  161.2460  206.0060  150.2340 C   0  0  0  0  0  0  0  0  0  0  0  0
  161.9180  208.0610  150.7150 N   0  0  0  0  0  2  0  0  0  0  0  0
  161.8150  207.4060  151.8680 N   0  0  0  0  0  0  0  0  0  0  0  0
  161.1970  205.1040  152.4680 C   0  0  0  0  0  0  0  0  0  0  0  0
  161.3610  205.2680  153.8370 O   0  0  0  0  0  1  0  0  0  0  0  0
  160.8940  204.7830  149.6650 C   0  0  0  0  0  3  0  0  0  0  0  0
  160.8190  203.8610  151.9310 C   0  0  0  0  0  3  0  0  0  0  0  0
  160.6690  203.6950  150.5290 C   0  0  0  0  0  0  0  0  0  0  0  0
  161.4070  206.1580  151.5830 C   0  0  0  0  0  0  0  0  0  0  0  0
  161.6210  207.6300  148.2770 C   0  0  0  0  0  0  0  0  0  0  0  0
  161.6420  208.8600  147.9980 O   0  0  0  0  0  0  0  0  0  0  0  0
  161.6260  206.6440  147.1750 C   0  0  0  0  0  0  0  0  0  0  0  0
  161.6940  204.8170  145.0440 C   0  0  0  0  0  3  0  0  0  0  0  0
  162.7610  205.8490  146.9560 C   0  0  0  0  0  3  0  0  0  0  0  0
  162.7920  204.9350  145.8980 C   0  0  0  0  0  3  0  0  0  0  0  0
  160.5650  205.6160  145.2440 C   0  0  0  0  0  3  0  0  0  0  0  0
  160.5340  206.5300  146.3010 C   0  0  0  0  0  3  0  0  0  0  0  0
  160.3000  202.4650  149.9760 O   0  0  0  0  0  0  0  0  0  0  0  0
  160.2480  202.2440  148.5980 C   0  0  0  0  0  3  0  0  0  0  0  0
  160.9210  201.2460  148.0270 C   0  0  0  0  0  0  0  0  0  0  0  0
  161.7560  200.3300  148.8610 C   0  0  0  0  0  1  0  0  0  0  0  0
  160.8440  201.0410  146.5690 C   0  0  0  0  0  0  0  0  0  0  0  0
  161.2520  199.8060  145.9860 N   0  0  0  0  0  1  0  0  0  0  0  0
  160.4160  201.9620  145.8240 O   0  0  0  0  0  0  0  0  0  0  0  0
  1  2  2  0  0  0  0
  1  3  1  0  0  0  0
  2 10  1  0  0  0  0
  3  4  1  0  0  0  0
  5  6  1  0  0  0  0
  7  2  1  0  0  0  0
  7  9  2  0  0  0  0
  8  5  2  0  0  0  0
  9  8  1  0  0  0  0
 10  4  2  0  0  0  0
 10  5  1  0  0  0  0
 11  1  1  0  0  0  0
 12 11  2  0  0  0  0
 13 11  1  0  0  0  0
 14 17  2  0  0  0  0
 14 16  1  0  0  0  0
 15 13  1  0  0  0  0
 16 15  2  0  0  0  0
 17 18  1  0  0  0  0
 18 13  2  0  0  0  0
 19  9  1  0  0  0  0
 20 19  1  0  0  0  0
 21 20  2  0  0  0  0
 21 22  1  0  0  0  0
 23 21  1  0  0  0  0
 24 23  1  0  0  0  0
 25 23  2  0  0  0  0
M  END
>  <MODEL>
1

>  <REMARK>
 VINA RESULT:      -8.4      0.000      0.000
  Name = 
  5 active torsions:
  status: ('A' for Active; 'I' for Inactive)
    1  A    between atoms: C_1  and  C_18
    2  A    between atoms: C_2  and  C_21
    3  A    between atoms: C_5  and  C_18
    4  A    between atoms: O_6  and  C_15
    5  A    between atoms: O_6  and  C_23
                            x       y       z     vdW  Elec       q    Type
                         _______ _______ _______ _____ _____    ______ ____

>  <TORSDO>
F 5

$$$$
=
 OpenBabel11052422173D

 25 27  0  0  0  0  0  0  0  0999 V2000
  161.2310  207.7480  152.7950 C   0  0  0  0  0  0  0  0  0  0  0  0
  161.2430  206.9510  151.6680 C   0  0  0  0  0  0  0  0  0  0  0  0
  161.2400  206.9410  153.8840 N   0  0  0  0  0  2  0  0  0  0  0  0
  161.2380  205.6720  153.4890 N   0  0  0  0  0  0  0  0  0  0  0  0
  161.2770  204.5720  151.2900 C   0  0  0  0  0  0  0  0  0  0  0  0
  161.2710  203.2740  151.7830 O   0  0  0  0  0  1  0  0  0  0  0  0
  161.3140  207.2330  150.3040 C   0  0  0  0  0  3  0  0  0  0  0  0
  161.3260  204.8180  149.9070 C   0  0  0  0  0  3  0  0  0  0  0  0
  161.3480  206.1470  149.4090 C   0  0  0  0  0  0  0  0  0  0  0  0
  161.2400  205.6710  152.1450 C   0  0  0  0  0  0  0  0  0  0  0  0
  161.2860  209.2210  152.8750 C   0  0  0  0  0  0  0  0  0  0  0  0
  162.2950  209.8080  152.4010 O   0  0  0  0  0  0  0  0  0  0  0  0
  160.2200  210.0270  153.5100 C   0  0  0  0  0  0  0  0  0  0  0  0
  158.2400  211.6250  154.6970 C   0  0  0  0  0  3  0  0  0  0  0  0
  159.4230  210.8720  152.7230 C   0  0  0  0  0  3  0  0  0  0  0  0
  158.4330  211.6640  153.3140 C   0  0  0  0  0  3  0  0  0  0  0  0
  159.0390  210.7980  155.4900 C   0  0  0  0  0  3  0  0  0  0  0  0
  160.0290  210.0070  154.9000 C   0  0  0  0  0  3  0  0  0  0  0  0
  161.4030  206.4120  148.0380 O   0  0  0  0  0  0  0  0  0  0  0  0
  160.8610  205.5510  147.0820 C   0  0  0  0  0  3  0  0  0  0  0  0
  161.6370  204.8240  146.2780 C   0  0  0  0  0  0  0  0  0  0  0  0
  163.1240  204.9160  146.3860 C   0  0  0  0  0  1  0  0  0  0  0  0
  161.0310  203.9250  145.2800 C   0  0  0  0  0  0  0  0  0  0  0  0
  160.9640  202.5200  145.5110 N   0  0  0  0  0  1  0  0  0  0  0  0
  160.5650  204.3940  144.2080 O   0  0  0  0  0  0  0  0  0  0  0  0
  1 11  1  0  0  0  0
  1  3  1  0  0  0  0
  2 10  1  0  0  0  0
  2  1  2  0  0  0  0
  4  3  1  0  0  0  0
  5  6  1  0  0  0  0
  5 10  1  0  0  0  0
  7  2  1  0  0  0  0
  8  5  2  0  0  0  0
  9  8  1  0  0  0  0
  9  7  2  0  0  0  0
 10  4  2  0  0  0  0
 11 13  1  0  0  0  0
 12 11  2  0  0  0  0
 13 18  1  0  0  0  0
 14 17  1  0  0  0  0
 15 16  1  0  0  0  0
 15 13  2  0  0  0  0
 16 14  2  0  0  0  0
 18 17  2  0  0  0  0
 19  9  1  0  0  0  0
 20 19  1  0  0  0  0
 21 22  1  0  0  0  0
 21 20  2  0  0  0  0
 23 24  1  0  0  0  0
 23 21  1  0  0  0  0
 25 23  2  0  0  0  0
M  END
>  <MODEL>
2

>  <REMARK>
 VINA RESULT:      -8.0      3.411      5.746
  Name = 
  5 active torsions:
  status: ('A' for Active; 'I' for Inactive)
    1  A    between atoms: C_1  and  C_18
    2  A    between atoms: C_2  and  C_21
    3  A    between atoms: C_5  and  C_18
    4  A    between atoms: O_6  and  C_15
    5  A    between atoms: O_6  and  C_23
                            x       y       z     vdW  Elec       q    Type
                         _______ _______ _______ _____ _____    ______ ____

>  <TORSDO>
F 5

$$$$
=
 OpenBabel11052422173D

 25 27  0  0  0  0  0  0  0  0999 V2000
  161.3410  206.6030  151.9820 C   0  0  0  0  0  0  0  0  0  0  0  0
  161.6790  207.1410  150.7570 C   0  0  0  0  0  0  0  0  0  0  0  0
  161.0910  207.6230  152.8380 N   0  0  0  0  0  2  0  0  0  0  0  0
  161.2770  208.7790  152.2080 N   0  0  0  0  0  0  0  0  0  0  0  0
  161.8940  209.3850  149.9070 C   0  0  0  0  0  0  0  0  0  0  0  0
  161.8480  210.7580  150.1070 O   0  0  0  0  0  1  0  0  0  0  0  0
  161.9570  206.5750  149.5130 C   0  0  0  0  0  3  0  0  0  0  0  0
  162.2000  208.8500  148.6430 C   0  0  0  0  0  3  0  0  0  0  0  0
  162.2300  207.4450  148.4410 C   0  0  0  0  0  0  0  0  0  0  0  0
  161.6330  208.4930  150.9450 C   0  0  0  0  0  0  0  0  0  0  0  0
  161.1760  205.1810  152.3430 C   0  0  0  0  0  0  0  0  0  0  0  0
  161.1900  204.8690  153.5650 O   0  0  0  0  0  0  0  0  0  0  0  0
  161.0230  204.1120  151.3320 C   0  0  0  0  0  0  0  0  0  0  0  0
  160.8160  202.0740  149.4120 C   0  0  0  0  0  3  0  0  0  0  0  0
  161.3280  202.7840  151.6690 C   0  0  0  0  0  3  0  0  0  0  0  0
  161.2190  201.7690  150.7140 C   0  0  0  0  0  3  0  0  0  0  0  0
  160.5250  203.3950  149.0630 C   0  0  0  0  0  3  0  0  0  0  0  0
  160.6350  204.4100  150.0170 C   0  0  0  0  0  3  0  0  0  0  0  0
  162.5270  206.8950  147.1910 O   0  0  0  0  0  0  0  0  0  0  0  0
  161.6620  206.0220  146.5280 C   0  0  0  0  0  3  0  0  0  0  0  0
  162.0960  204.8770  146.0020 C   0  0  0  0  0  0  0  0  0  0  0  0
  163.5360  204.4970  146.1140 C   0  0  0  0  0  1  0  0  0  0  0  0
  161.1550  203.9790  145.3080 C   0  0  0  0  0  0  0  0  0  0  0  0
  161.0790  202.5980  145.6540 N   0  0  0  0  0  1  0  0  0  0  0  0
  160.4070  204.4270  144.3990 O   0  0  0  0  0  0  0  0  0  0  0  0
  1 11  1  0  0  0  0
  1  3  1  0  0  0  0
  2 10  1  0  0  0  0
  2  1  2  0  0  0  0
  4  3  1  0  0  0  0
  5  6  1  0  0  0  0
  5 10  1  0  0  0  0
  7  2  1  0  0  0  0
  8  5  2  0  0  0  0
  9  8  1  0  0  0  0
  9  7  2  0  0  0  0
 10  4  2  0  0  0  0
 11 12  2  0  0  0  0
 13 15  1  0  0  0  0
 13 11  1  0  0  0  0
 14 16  1  0  0  0  0
 16 15  2  0  0  0  0
 17 14  2  0  0  0  0
 17 18  1  0  0  0  0
 18 13  2  0  0  0  0
 19  9  1  0  0  0  0
 20 19  1  0  0  0  0
 21 22  1  0  0  0  0
 21 20  2  0  0  0  0
 23 24  1  0  0  0  0
 23 21  1  0  0  0  0
 25 23  2  0  0  0  0
M  END
>  <MODEL>
3

>  <REMARK>
 VINA RESULT:      -8.0      1.737      4.508
  Name = 
  5 active torsions:
  status: ('A' for Active; 'I' for Inactive)
    1  A    between atoms: C_1  and  C_18
    2  A    between atoms: C_2  and  C_21
    3  A    between atoms: C_5  and  C_18
    4  A    between atoms: O_6  and  C_15
    5  A    between atoms: O_6  and  C_23
                            x       y       z     vdW  Elec       q    Type
                         _______ _______ _______ _____ _____    ______ ____

>  <TORSDO>
F 5

$$$$
=
 OpenBabel11052422173D

 25 27  0  0  1  0  0  0  0  0999 V2000
  161.0630  202.4850  147.1700 C   0  0  0  0  0  0  0  0  0  0  0  0
  161.4140  203.7910  146.8930 C   0  0  0  0  0  0  0  0  0  0  0  0
  160.7060  201.8870  146.0080 N   0  0  0  0  0  0  0  0  0  0  0  0
  160.7990  202.7670  145.0150 N   0  0  0  0  0  0  0  0  0  0  0  0
  161.5080  205.1170  144.8840 C   0  0  2  0  0  3  0  0  0  0  0  0
  161.3140  205.2450  143.5150 O   0  0  0  0  0  1  0  0  0  0  0  0
  161.9220  204.8260  147.6760 C   0  0  0  0  0  3  0  0  0  0  0  0
  162.0010  206.1900  145.6460 C   0  0  0  0  0  3  0  0  0  0  0  0
  162.2120  206.0490  147.0430 C   0  0  0  0  0  0  0  0  0  0  0  0
  161.2280  203.9240  145.5460 C   0  0  0  0  0  0  0  0  0  0  0  0
  161.1250  201.7750  148.4640 C   0  0  0  0  0  0  0  0  0  0  0  0
  161.2590  200.5220  148.4520 O   0  0  0  0  0  0  0  0  0  0  0  0
  161.0100  202.4720  149.7630 C   0  0  0  0  0  0  0  0  0  0  0  0
  160.8490  203.8500  152.2040 C   0  0  0  0  0  3  0  0  0  0  0  0
  160.4420  203.7540  149.8200 C   0  0  0  0  0  3  0  0  0  0  0  0
  160.3570  204.4370  151.0370 C   0  0  0  0  0  3  0  0  0  0  0  0
  161.4300  202.5800  152.1560 C   0  0  0  0  0  3  0  0  0  0  0  0
  161.5160  201.8970  150.9390 C   0  0  0  0  0  3  0  0  0  0  0  0
  162.7070  207.1030  147.8160 O   0  0  0  0  0  0  0  0  0  0  0  0
  162.3470  207.2920  149.1510 C   0  0  0  0  0  3  0  0  0  0  0  0
  162.0380  208.4980  149.6260 C   0  0  0  0  0  0  0  0  0  0  0  0
  162.0710  209.6900  148.7260 C   0  0  0  0  0  1  0  0  0  0  0  0
  161.6620  208.6610  151.0420 C   0  0  0  0  0  0  0  0  0  0  0  0
  162.1710  209.7500  151.8090 N   0  0  0  0  0  1  0  0  0  0  0  0
  160.8840  207.8350  151.5880 O   0  0  0  0  0  0  0  0  0  0  0  0
  1 11  1  0  0  0  0
  2  1  1  0  0  0  0
  2  7  2  0  0  0  0
  3  1  2  0  0  0  0
  4 10  2  0  0  0  0
  4  3  1  0  0  0  0
  5  6  1  6  0  0  0
  5 10  1  0  0  0  0
  5  8  1  0  0  0  0
  8  9  2  0  0  0  0
  9  7  1  0  0  0  0
  9 19  1  0  0  0  0
 10  2  1  0  0  0  0
 11 13  1  0  0  0  0
 12 11  2  0  0  0  0
 13 15  2  0  0  0  0
 13 18  1  0  0  0  0
 15 16  1  0  0  0  0
 16 14  2  0  0  0  0
 17 14  1  0  0  0  0
 18 17  2  0  0  0  0
 19 20  1  0  0  0  0
 20 21  2  0  0  0  0
 21 23  1  0  0  0  0
 22 21  1  0  0  0  0
 23 25  2  0  0  0  0
 23 24  1  0  0  0  0
M  END
>  <MODEL>
4

>  <REMARK>
 VINA RESULT:      -7.9      1.928      7.139
  Name = 
  5 active torsions:
  status: ('A' for Active; 'I' for Inactive)
    1  A    between atoms: C_1  and  C_18
    2  A    between atoms: C_2  and  C_21
    3  A    between atoms: C_5  and  C_18
    4  A    between atoms: O_6  and  C_15
    5  A    between atoms: O_6  and  C_23
                            x       y       z     vdW  Elec       q    Type
                         _______ _______ _______ _____ _____    ______ ____

>  <TORSDO>
F 5

$$$$
=
 OpenBabel11052422173D

 25 27  0  0  1  0  0  0  0  0999 V2000
  160.9600  202.0770  148.0860 C   0  0  0  0  0  0  0  0  0  0  0  0
  160.9710  203.1730  148.9240 C   0  0  1  0  0  3  0  0  0  0  0  0
  160.8430  200.9620  148.8470 N   0  0  0  0  0  0  0  0  0  0  0  0
  160.7980  201.3100  150.1300 N   0  0  0  0  0  0  0  0  0  0  0  0
  160.8290  203.4660  151.3110 C   0  0  0  0  0  0  0  0  0  0  0  0
  160.7350  202.9270  152.5880 O   0  0  0  0  0  1  0  0  0  0  0  0
  160.9960  204.5480  148.6930 C   0  0  0  0  0  3  0  0  0  0  0  0
  160.8750  204.8570  151.1180 C   0  0  0  0  0  3  0  0  0  0  0  0
  160.9560  205.4040  149.8100 C   0  0  0  0  0  0  0  0  0  0  0  0
  160.8750  202.6510  150.1830 C   0  0  0  0  0  0  0  0  0  0  0  0
  160.9820  202.0530  146.6090 C   0  0  0  0  0  0  0  0  0  0  0  0
  160.8160  200.9480  146.0270 O   0  0  0  0  0  0  0  0  0  0  0  0
  161.2150  203.2650  145.7940 C   0  0  0  0  0  0  0  0  0  0  0  0
  161.6510  205.6120  144.3160 C   0  0  0  0  0  3  0  0  0  0  0  0
  162.3930  204.0080  145.9700 C   0  0  0  0  0  3  0  0  0  0  0  0
  162.6120  205.1740  145.2300 C   0  0  0  0  0  3  0  0  0  0  0  0
  160.4680  204.8880  144.1450 C   0  0  0  0  0  3  0  0  0  0  0  0
  160.2490  203.7230  144.8860 C   0  0  0  0  0  3  0  0  0  0  0  0
  160.9960  206.7840  149.5970 O   0  0  0  0  0  0  0  0  0  0  0  0
  161.2140  207.7000  150.6280 C   0  0  0  0  0  3  0  0  0  0  0  0
  161.6690  208.9290  150.3840 C   0  0  0  0  0  0  0  0  0  0  0  0
  161.9590  209.3580  148.9830 C   0  0  0  0  0  1  0  0  0  0  0  0
  161.8880  209.8700  151.4970 C   0  0  0  0  0  0  0  0  0  0  0  0
  160.8150  210.6580  152.0060 N   0  0  0  0  0  1  0  0  0  0  0  0
  163.0320  209.9860  152.0100 O   0  0  0  0  0  0  0  0  0  0  0  0
  1  3  2  0  0  0  0
  1  2  1  0  0  0  0
  2  7  1  6  0  0  0
  2 10  1  0  0  0  0
  3  4  1  0  0  0  0
  4 10  2  0  0  0  0
  5  6  1  0  0  0  0
  7  9  2  0  0  0  0
  8  5  2  0  0  0  0
  9  8  1  0  0  0  0
 10  5  1  0  0  0  0
 11  1  1  0  0  0  0
 12 11  2  0  0  0  0
 13 15  1  0  0  0  0
 13 11  1  0  0  0  0
 14 16  1  0  0  0  0
 16 15  2  0  0  0  0
 17 14  2  0  0  0  0
 17 18  1  0  0  0  0
 18 13  2  0  0  0  0
 19  9  1  0  0  0  0
 19 20  1  0  0  0  0
 21 20  2  0  0  0  0
 21 23  1  0  0  0  0
 22 21  1  0  0  0  0
 23 24  1  0  0  0  0
 23 25  2  0  0  0  0
M  END
>  <MODEL>
5

>  <REMARK>
 VINA RESULT:      -7.8      2.112      5.895
  Name = 
  5 active torsions:
  status: ('A' for Active; 'I' for Inactive)
    1  A    between atoms: C_1  and  C_18
    2  A    between atoms: C_2  and  C_21
    3  A    between atoms: C_5  and  C_18
    4  A    between atoms: O_6  and  C_15
    5  A    between atoms: O_6  and  C_23
                            x       y       z     vdW  Elec       q    Type
                         _______ _______ _______ _____ _____    ______ ____

>  <TORSDO>
F 5

$$$$
=
 OpenBabel11052422173D

 25 27  0  0  1  0  0  0  0  0999 V2000
  161.2550  206.0890  149.8830 C   0  0  0  0  0  0  0  0  0  0  0  0
  161.4270  207.3270  150.4690 C   0  0  0  0  0  0  0  0  0  0  0  0
  161.4250  206.2270  148.5460 N   0  0  0  0  0  0  0  0  0  0  0  0
  161.6790  207.5010  148.2650 N   0  0  0  0  0  0  0  0  0  0  0  0
  161.9390  209.5270  149.6330 C   0  0  2  0  0  3  0  0  0  0  0  0
  162.1930  210.3830  148.5690 O   0  0  0  0  0  1  0  0  0  0  0  0
  161.4410  207.7580  151.7950 C   0  0  0  0  0  3  0  0  0  0  0  0
  161.9390  210.0030  150.9560 C   0  0  0  0  0  3  0  0  0  0  0  0
  161.6930  209.1210  152.0410 C   0  0  0  0  0  0  0  0  0  0  0  0
  161.6820  208.1740  149.4280 C   0  0  0  0  0  0  0  0  0  0  0  0
  161.0120  204.7900  150.5420 C   0  0  0  0  0  0  0  0  0  0  0  0
  160.8350  204.7770  151.7900 O   0  0  0  0  0  0  0  0  0  0  0  0
  160.9940  203.5100  149.8010 C   0  0  0  0  0  0  0  0  0  0  0  0
  161.0340  201.0590  148.4310 C   0  0  0  0  0  3  0  0  0  0  0  0
  160.8540  202.3020  150.5010 C   0  0  0  0  0  3  0  0  0  0  0  0
  160.8690  201.0820  149.8180 C   0  0  0  0  0  3  0  0  0  0  0  0
  161.1890  202.2570  147.7270 C   0  0  0  0  0  3  0  0  0  0  0  0
  161.1760  203.4760  148.4110 C   0  0  0  0  0  3  0  0  0  0  0  0
  161.6950  209.5730  153.3630 O   0  0  0  0  0  0  0  0  0  0  0  0
  160.6710  210.3620  153.8920 C   0  0  0  0  0  3  0  0  0  0  0  0
  159.9600  209.9660  154.9470 C   0  0  0  0  0  0  0  0  0  0  0  0
  160.2490  208.6520  155.5970 C   0  0  0  0  0  1  0  0  0  0  0  0
  158.8860  210.8240  155.4790 C   0  0  0  0  0  0  0  0  0  0  0  0
  158.8570  211.1830  156.8580 N   0  0  0  0  0  1  0  0  0  0  0  0
  157.9790  211.2480  154.7150 O   0  0  0  0  0  0  0  0  0  0  0  0
  1  2  1  0  0  0  0
  1 11  1  0  0  0  0
  2  7  2  0  0  0  0
  3  1  2  0  0  0  0
  4  3  1  0  0  0  0
  4 10  2  0  0  0  0
  5  6  1  1  0  0  0
  5  8  1  0  0  0  0
  7  9  1  0  0  0  0
  8  9  2  0  0  0  0
  9 19  1  0  0  0  0
 10  5  1  0  0  0  0
 10  2  1  0  0  0  0
 11 12  2  0  0  0  0
 13 15  1  0  0  0  0
 13 11  1  0  0  0  0
 14 16  1  0  0  0  0
 16 15  2  0  0  0  0
 17 18  1  0  0  0  0
 17 14  2  0  0  0  0
 18 13  2  0  0  0  0
 19 20  1  0  0  0  0
 20 21  2  0  0  0  0
 21 23  1  0  0  0  0
 21 22  1  0  0  0  0
 23 24  1  0  0  0  0
 25 23  2  0  0  0  0
M  END
>  <MODEL>
6

>  <REMARK>
 VINA RESULT:      -7.7      3.422      7.454
  Name = 
  5 active torsions:
  status: ('A' for Active; 'I' for Inactive)
    1  A    between atoms: C_1  and  C_18
    2  A    between atoms: C_2  and  C_21
    3  A    between atoms: C_5  and  C_18
    4  A    between atoms: O_6  and  C_15
    5  A    between atoms: O_6  and  C_23
                            x       y       z     vdW  Elec       q    Type
                         _______ _______ _______ _____ _____    ______ ____

>  <TORSDO>
F 5

$$$$
=
 OpenBabel11052422173D

 25 27  0  0  0  0  0  0  0  0999 V2000
  161.4500  208.2040  152.7700 C   0  0  0  0  0  0  0  0  0  0  0  0
  161.4330  207.3460  151.6900 C   0  0  0  0  0  0  0  0  0  0  0  0
  161.8300  209.4290  152.3320 N   0  0  0  0  0  2  0  0  0  0  0  0
  162.0710  209.3720  151.0260 N   0  0  0  0  0  0  0  0  0  0  0  0
  161.9140  207.5880  149.3420 C   0  0  0  0  0  0  0  0  0  0  0  0
  162.3240  208.3710  148.2700 O   0  0  0  0  0  1  0  0  0  0  0  0
  161.0550  206.0120  151.5400 C   0  0  0  0  0  3  0  0  0  0  0  0
  161.5620  206.2400  149.1560 C   0  0  0  0  0  3  0  0  0  0  0  0
  161.1300  205.4480  150.2520 C   0  0  0  0  0  0  0  0  0  0  0  0
  161.8320  208.1100  150.6300 C   0  0  0  0  0  0  0  0  0  0  0  0
  161.0520  207.9270  154.1650 C   0  0  0  0  0  0  0  0  0  0  0  0
  160.7960  206.7360  154.4880 O   0  0  0  0  0  0  0  0  0  0  0  0
  160.9200  208.9910  155.1840 C   0  0  0  0  0  0  0  0  0  0  0  0
  160.6760  211.0680  157.0590 C   0  0  0  0  0  3  0  0  0  0  0  0
  159.7860  209.8180  155.1850 C   0  0  0  0  0  3  0  0  0  0  0  0
  159.6630  210.8490  156.1230 C   0  0  0  0  0  3  0  0  0  0  0  0
  161.8160  210.2590  157.0560 C   0  0  0  0  0  3  0  0  0  0  0  0
  161.9400  209.2300  156.1180 C   0  0  0  0  0  3  0  0  0  0  0  0
  160.7700  204.1080  150.0870 O   0  0  0  0  0  0  0  0  0  0  0  0
  160.9990  203.4060  148.9010 C   0  0  0  0  0  3  0  0  0  0  0  0
  160.8670  202.0820  148.8380 C   0  0  0  0  0  0  0  0  0  0  0  0
  160.4630  201.3090  150.0520 C   0  0  0  0  0  1  0  0  0  0  0  0
  161.1170  201.3730  147.5700 C   0  0  0  0  0  0  0  0  0  0  0  0
  160.8410  202.0000  146.3200 N   0  0  0  0  0  1  0  0  0  0  0  0
  161.5800  200.2020  147.5820 O   0  0  0  0  0  0  0  0  0  0  0  0
  1 11  1  0  0  0  0
  2  1  2  0  0  0  0
  3  1  1  0  0  0  0
  4  3  1  0  0  0  0
  5 10  1  0  0  0  0
  6  5  1  0  0  0  0
  7  2  1  0  0  0  0
  8  5  2  0  0  0  0
  8  9  1  0  0  0  0
  9  7  2  0  0  0  0
 10  4  2  0  0  0  0
 10  2  1  0  0  0  0
 11 12  2  0  0  0  0
 11 13  1  0  0  0  0
 13 15  2  0  0  0  0
 13 18  1  0  0  0  0
 15 16  1  0  0  0  0
 16 14  2  0  0  0  0
 17 14  1  0  0  0  0
 18 17  2  0  0  0  0
 19  9  1  0  0  0  0
 20 19  1  0  0  0  0
 21 20  2  0  0  0  0
 21 22  1  0  0  0  0
 23 25  2  0  0  0  0
 23 21  1  0  0  0  0
 24 23  1  0  0  0  0
M  END
>  <MODEL>
7

>  <REMARK>
 VINA RESULT:      -7.7      3.345      6.260
  Name = 
  5 active torsions:
  status: ('A' for Active; 'I' for Inactive)
    1  A    between atoms: C_1  and  C_18
    2  A    between atoms: C_2  and  C_21
    3  A    between atoms: C_5  and  C_18
    4  A    between atoms: O_6  and  C_15
    5  A    between atoms: O_6  and  C_23
                            x       y       z     vdW  Elec       q    Type
                         _______ _______ _______ _____ _____    ______ ____

>  <TORSDO>
F 5

$$$$
=
 OpenBabel11052422173D

 25 27  0  0  0  0  0  0  0  0999 V2000
  161.1210  204.7550  150.9260 C   0  0  0  0  0  0  0  0  0  0  0  0
  161.0880  203.7790  149.9500 C   0  0  0  0  0  0  0  0  0  0  0  0
  160.9650  204.1560  152.1310 N   0  0  0  0  0  2  0  0  0  0  0  0
  160.8170  202.8460  151.9530 N   0  0  0  0  0  0  0  0  0  0  0  0
  160.8280  201.3840  149.9770 C   0  0  0  0  0  0  0  0  0  0  0  0
  160.6240  200.2020  150.6760 O   0  0  0  0  0  1  0  0  0  0  0  0
  161.2690  203.8080  148.5680 C   0  0  0  0  0  3  0  0  0  0  0  0
  160.9830  201.3770  148.5800 C   0  0  0  0  0  3  0  0  0  0  0  0
  161.2070  202.5870  147.8710 C   0  0  0  0  0  0  0  0  0  0  0  0
  160.8910  202.6120  150.6320 C   0  0  0  0  0  0  0  0  0  0  0  0
  161.3650  206.2030  150.7640 C   0  0  0  0  0  0  0  0  0  0  0  0
  161.7680  206.6190  149.6440 O   0  0  0  0  0  0  0  0  0  0  0  0
  161.1790  207.1720  151.8650 C   0  0  0  0  0  0  0  0  0  0  0  0
  160.9050  209.0390  153.9450 C   0  0  0  0  0  3  0  0  0  0  0  0
  161.1600  208.5480  151.5870 C   0  0  0  0  0  3  0  0  0  0  0  0
  161.0170  209.4770  152.6230 C   0  0  0  0  0  3  0  0  0  0  0  0
  160.9390  207.6720  154.2320 C   0  0  0  0  0  3  0  0  0  0  0  0
  161.0820  206.7440  153.1980 C   0  0  0  0  0  3  0  0  0  0  0  0
  161.3700  202.6000  146.4830 O   0  0  0  0  0  0  0  0  0  0  0  0
  160.9090  203.6450  145.6800 C   0  0  0  0  0  3  0  0  0  0  0  0
  161.7130  204.6360  145.2970 C   0  0  0  0  0  0  0  0  0  0  0  0
  163.1440  204.6510  145.7250 C   0  0  0  0  0  1  0  0  0  0  0  0
  161.1930  205.7240  144.4490 C   0  0  0  0  0  0  0  0  0  0  0  0
  161.5810  205.8290  143.0810 N   0  0  0  0  0  1  0  0  0  0  0  0
  160.3980  206.5740  144.9290 O   0  0  0  0  0  0  0  0  0  0  0  0
  1  3  1  0  0  0  0
  2 10  1  0  0  0  0
  2  1  2  0  0  0  0
  4  3  1  0  0  0  0
  5 10  1  0  0  0  0
  5  6  1  0  0  0  0
  7  2  1  0  0  0  0
  8  5  2  0  0  0  0
  9  7  2  0  0  0  0
  9  8  1  0  0  0  0
 10  4  2  0  0  0  0
 11  1  1  0  0  0  0
 11 13  1  0  0  0  0
 12 11  2  0  0  0  0
 13 18  1  0  0  0  0
 14 17  1  0  0  0  0
 15 13  2  0  0  0  0
 15 16  1  0  0  0  0
 16 14  2  0  0  0  0
 18 17  2  0  0  0  0
 19  9  1  0  0  0  0
 20 19  1  0  0  0  0
 21 20  2  0  0  0  0
 21 22  1  0  0  0  0
 23 25  2  0  0  0  0
 23 21  1  0  0  0  0
 24 23  1  0  0  0  0
M  END
>  <MODEL>
8

>  <REMARK>
 VINA RESULT:      -7.7      2.603      5.248
  Name = 
  5 active torsions:
  status: ('A' for Active; 'I' for Inactive)
    1  A    between atoms: C_1  and  C_18
    2  A    between atoms: C_2  and  C_21
    3  A    between atoms: C_5  and  C_18
    4  A    between atoms: O_6  and  C_15
    5  A    between atoms: O_6  and  C_23
                            x       y       z     vdW  Elec       q    Type
                         _______ _______ _______ _____ _____    ______ ____

>  <TORSDO>
F 5

$$$$
=
 OpenBabel11052422173D

 25 27  0  0  0  0  0  0  0  0999 V2000
  161.1470  206.2060  150.0930 C   0  0  0  0  0  0  0  0  0  0  0  0
  161.4780  207.5460  150.1370 C   0  0  0  0  0  0  0  0  0  0  0  0
  160.8800  205.7940  151.3560 N   0  0  0  0  0  2  0  0  0  0  0  0
  161.0480  206.8120  152.1940 N   0  0  0  0  0  0  0  0  0  0  0  0
  161.6580  209.1760  151.9020 C   0  0  0  0  0  0  0  0  0  0  0  0
  161.5900  209.5050  153.2500 O   0  0  0  0  0  1  0  0  0  0  0  0
  161.7650  208.4880  149.1510 C   0  0  0  0  0  3  0  0  0  0  0  0
  161.9730  210.1480  150.9380 C   0  0  0  0  0  3  0  0  0  0  0  0
  162.0260  209.8100  149.5600 C   0  0  0  0  0  0  0  0  0  0  0  0
  161.4100  207.8780  151.4610 C   0  0  0  0  0  0  0  0  0  0  0  0
  161.0050  205.3370  148.9070 C   0  0  0  0  0  0  0  0  0  0  0  0
  160.8290  205.8830  147.7850 O   0  0  0  0  0  0  0  0  0  0  0  0
  161.0340  203.8610  148.9910 C   0  0  0  0  0  0  0  0  0  0  0  0
  161.0180  201.0560  149.1070 C   0  0  0  0  0  3  0  0  0  0  0  0
  161.2080  203.1010  147.8240 C   0  0  0  0  0  3  0  0  0  0  0  0
  161.2050  201.7030  147.8840 C   0  0  0  0  0  3  0  0  0  0  0  0
  160.8280  201.8050  150.2710 C   0  0  0  0  0  3  0  0  0  0  0  0
  160.8300  203.2010  150.2120 C   0  0  0  0  0  3  0  0  0  0  0  0
  162.3320  210.7640  148.5860 O   0  0  0  0  0  0  0  0  0  0  0  0
  161.3510  211.4800  147.8970 C   0  0  0  0  0  3  0  0  0  0  0  0
  161.5340  212.7520  147.5460 C   0  0  0  0  0  0  0  0  0  0  0  0
  162.8120  213.4480  147.8850 C   0  0  0  0  0  1  0  0  0  0  0  0
  160.4760  213.4780  146.8200 C   0  0  0  0  0  0  0  0  0  0  0  0
  159.1030  213.1510  147.0170 N   0  0  0  0  0  1  0  0  0  0  0  0
  160.7800  214.3980  146.0150 O   0  0  0  0  0  0  0  0  0  0  0  0
  1  2  2  0  0  0  0
  1  3  1  0  0  0  0
  2 10  1  0  0  0  0
  3  4  1  0  0  0  0
  5  6  1  0  0  0  0
  7  9  2  0  0  0  0
  7  2  1  0  0  0  0
  8  5  2  0  0  0  0
  9  8  1  0  0  0  0
 10  5  1  0  0  0  0
 10  4  2  0  0  0  0
 11 13  1  0  0  0  0
 11  1  1  0  0  0  0
 12 11  2  0  0  0  0
 13 18  1  0  0  0  0
 14 17  1  0  0  0  0
 15 16  1  0  0  0  0
 15 13  2  0  0  0  0
 16 14  2  0  0  0  0
 18 17  2  0  0  0  0
 19  9  1  0  0  0  0
 20 19  1  0  0  0  0
 21 22  1  0  0  0  0
 21 20  2  0  0  0  0
 23 24  1  0  0  0  0
 23 21  1  0  0  0  0
 25 23  2  0  0  0  0
M  END
>  <MODEL>
9

>  <REMARK>
 VINA RESULT:      -7.7      3.315      7.103
  Name = 
  5 active torsions:
  status: ('A' for Active; 'I' for Inactive)
    1  A    between atoms: C_1  and  C_18
    2  A    between atoms: C_2  and  C_21
    3  A    between atoms: C_5  and  C_18
    4  A    between atoms: O_6  and  C_15
    5  A    between atoms: O_6  and  C_23
                            x       y       z     vdW  Elec       q    Type
                         _______ _______ _______ _____ _____    ______ ____

>  <TORSDO>
F 5

$$$$
