=
 OpenBabel11062410383D

 32 37  0  0  1  0  0  0  0  0999 V2000
  160.1640  212.3220  153.0060 C   0  0  1  0  0  3  0  0  0  0  0  0
  156.9370  211.4670  156.6830 C   0  0  0  0  0  3  0  0  0  0  0  0
  155.8900  211.8830  155.8600 C   0  0  0  0  0  3  0  0  0  0  0  0
  159.4250  213.5230  150.9140 C   0  0  0  0  0  0  0  0  0  0  0  0
  158.2400  213.7940  150.1050 C   0  0  0  0  0  0  0  0  0  0  0  0
  160.7840  209.8960  153.0610 C   0  0  2  0  0  3  0  0  0  0  0  0
  160.8470  211.2460  155.0870 O   0  0  0  0  0  0  0  0  0  0  0  0
  156.0290  213.9910  149.6790 C   0  0  0  0  0  0  0  0  0  0  0  0
  161.3480  208.9280  155.3140 C   0  0  0  0  0  1  0  0  0  0  0  0
  158.2570  211.5780  156.2440 C   0  0  0  0  0  3  0  0  0  0  0  0
  159.9900  212.2290  154.5310 C   0  0  2  0  0  3  0  0  0  0  0  0
  158.5450  212.0930  154.9710 C   0  0  0  0  0  0  0  0  0  0  0  0
  157.7800  213.1640  152.8240 C   0  0  0  0  0  0  0  0  0  0  0  0
  156.6520  213.4620  148.5180 N   0  0  0  0  0  2  0  0  0  0  0  0
  160.5220  209.9680  154.5740 C   0  0  2  0  0  3  0  0  0  0  0  0
  158.0240  213.3310  148.8780 C   0  0  0  0  0  3  0  0  0  0  0  0
  156.1650  212.4230  154.6020 C   0  0  0  0  0  3  0  0  0  0  0  0
  157.4890  212.5470  154.1460 C   0  0  0  0  0  0  0  0  0  0  0  0
  156.7640  213.5650  152.0310 C   0  0  0  0  0  3  0  0  0  0  0  0
  159.9300  210.9530  152.3730 C   0  0  0  0  0  2  0  0  0  0  0  0
  160.5600  213.4000  150.3790 O   0  0  0  0  0  0  0  0  0  0  0  0
  154.7910  214.2120  149.7510 O   0  0  0  0  0  0  0  0  0  0  0  0
  159.2400  213.3960  152.4140 C   0  0  1  0  0  3  0  0  0  0  0  0
  157.0050  214.3090  150.7490 C   0  0  1  0  0  3  0  0  0  0  0  0
  160.4120  208.5210  152.5100 C   0  0  0  0  0  2  0  0  0  0  0  0
  161.8880  206.2350  152.5000 S   0  0  0  0  0  1  0  0  0  0  0  0
  161.5850  207.8780  151.7850 C   0  0  1  0  0  3  0  0  0  0  0  0
  161.2750  207.7410  150.3030 C   0  0  0  0  0  2  0  0  0  0  0  0
  160.8710  206.3160  149.9740 C   0  0  0  0  0  2  0  0  0  0  0  0
  160.6060  206.2010  148.4870 C   0  0  0  0  0  3  0  0  0  0  0  0
  161.9050  206.3930  147.7350 C   0  0  0  0  0  2  0  0  0  0  0  0
  161.3490  204.9990  147.9380 C   0  0  0  0  0  2  0  0  0  0  0  0
  1 20  1  6  0  0  0
  1 11  1  0  0  0  0
  3  2  2  0  0  0  0
  5 24  1  0  0  0  0
  5  4  1  0  0  0  0
  6 25  1  6  0  0  0
  6 15  1  0  0  0  0
  8 22  2  0  0  0  0
  8 24  1  0  0  0  0
 10  2  1  0  0  0  0
 11 12  1  6  0  0  0
 11  7  1  0  0  0  0
 12 10  2  0  0  0  0
 13 18  1  0  0  0  0
 14 16  1  0  0  0  0
 14  8  1  0  0  0  0
 15  7  1  0  0  0  0
 15  9  1  1  0  0  0
 16  5  2  0  0  0  0
 17  3  1  0  0  0  0
 18 17  2  0  0  0  0
 18 12  1  0  0  0  0
 19 13  2  0  0  0  0
 20  6  1  0  0  0  0
 21  4  2  0  0  0  0
 23  4  1  6  0  0  0
 23 13  1  0  0  0  0
 23  1  1  0  0  0  0
 24 19  1  1  0  0  0
 27 26  1  1  0  0  0
 27 25  1  0  0  0  0
 28 27  1  0  0  0  0
 29 28  1  0  0  0  0
 30 29  1  0  0  0  0
 31 32  1  0  0  0  0
 31 30  1  0  0  0  0
 32 30  1  0  0  0  0
M  END
>  <MODEL>
1

>  <REMARK>
 VINA RESULT:      -7.0      0.000      0.000
  Name = 
  5 active torsions:
  status: ('A' for Active; 'I' for Inactive)
    1  A    between atoms: C_1  and  C_10
    2  A    between atoms: C_8  and  C_23
    3  A    between atoms: C_10  and  C_24
    4  A    between atoms: C_19  and  C_23
    5  A    between atoms: C_19  and  C_24
                            x       y       z     vdW  Elec       q    Type
                         _______ _______ _______ _____ _____    ______ ____

>  <TORSDO>
F 5

$$$$
=
 OpenBabel11062410383D

 32 37  0  0  1  0  0  0  0  0999 V2000
  162.3300  209.0150  150.5960 C   0  0  1  0  0  3  0  0  0  0  0  0
  160.0050  208.6230  154.9680 C   0  0  0  0  0  3  0  0  0  0  0  0
  159.2910  209.7890  154.6920 C   0  0  0  0  0  3  0  0  0  0  0  0
  162.0890  211.1080  149.2080 C   0  0  0  0  0  0  0  0  0  0  0  0
  161.1830  212.2270  148.9680 C   0  0  0  0  0  0  0  0  0  0  0  0
  161.3540  206.8020  149.9420 C   0  0  2  0  0  3  0  0  0  0  0  0
  162.6000  207.0520  152.0200 O   0  0  0  0  0  0  0  0  0  0  0  0
  159.5090  213.6710  149.4430 C   0  0  0  0  0  0  0  0  0  0  0  0
  161.6300  204.9190  151.5880 C   0  0  0  0  0  1  0  0  0  0  0  0
  161.0120  208.1980  154.0990 C   0  0  0  0  0  3  0  0  0  0  0  0
  162.4250  208.4590  152.0270 C   0  0  2  0  0  3  0  0  0  0  0  0
  161.3070  208.9280  152.9380 C   0  0  0  0  0  0  0  0  0  0  0  0
  160.9580  210.9540  151.4830 C   0  0  0  0  0  0  0  0  0  0  0  0
  159.4540  213.3790  148.0540 N   0  0  0  0  0  2  0  0  0  0  0  0
  161.4800  206.4230  151.4270 C   0  0  2  0  0  3  0  0  0  0  0  0
  160.5040  212.4410  147.8440 C   0  0  0  0  0  3  0  0  0  0  0  0
  159.5940  210.5390  153.5540 C   0  0  0  0  0  3  0  0  0  0  0  0
  160.6090  210.1290  152.6710 C   0  0  0  0  0  0  0  0  0  0  0  0
  160.2640  212.0810  151.2200 C   0  0  0  0  0  3  0  0  0  0  0  0
  161.2020  208.3140  149.8420 C   0  0  0  0  0  2  0  0  0  0  0  0
  162.7930  210.6330  148.2750 O   0  0  0  0  0  0  0  0  0  0  0  0
  158.6980  214.4470  150.0120 O   0  0  0  0  0  0  0  0  0  0  0  0
  162.1520  210.5400  150.6120 C   0  0  1  0  0  3  0  0  0  0  0  0
  160.6590  213.0150  150.1120 C   0  0  1  0  0  3  0  0  0  0  0  0
  160.1320  206.1380  149.3130 C   0  0  0  0  0  2  0  0  0  0  0  0
  160.9110  206.6010  146.7470 S   0  0  0  0  0  1  0  0  0  0  0  0
  160.5010  205.3910  148.0390 C   0  0  1  0  0  3  0  0  0  0  0  0
  161.6970  204.4860  148.2890 C   0  0  0  0  0  2  0  0  0  0  0  0
  161.3260  203.0350  148.0490 C   0  0  0  0  0  2  0  0  0  0  0  0
  160.8170  202.4270  149.3390 C   0  0  0  0  0  3  0  0  0  0  0  0
  159.7580  201.3940  149.0170 C   0  0  0  0  0  2  0  0  0  0  0  0
  161.1630  200.9520  149.3690 C   0  0  0  0  0  2  0  0  0  0  0  0
  1 20  1  1  0  0  0
  1 23  1  0  0  0  0
  1 11  1  0  0  0  0
  3  2  1  0  0  0  0
  5  4  1  0  0  0  0
  5 24  1  0  0  0  0
  6 25  1  1  0  0  0
  6 15  1  0  0  0  0
  8 22  2  0  0  0  0
  8 24  1  0  0  0  0
 10  2  2  0  0  0  0
 11  7  1  6  0  0  0
 11 12  1  0  0  0  0
 12 10  1  0  0  0  0
 13 18  1  0  0  0  0
 14  8  1  0  0  0  0
 15  9  1  6  0  0  0
 15  7  1  0  0  0  0
 16 14  1  0  0  0  0
 16  5  2  0  0  0  0
 17  3  2  0  0  0  0
 18 12  2  0  0  0  0
 18 17  1  0  0  0  0
 19 13  2  0  0  0  0
 20  6  1  0  0  0  0
 21  4  2  0  0  0  0
 23  4  1  6  0  0  0
 23 13  1  0  0  0  0
 24 19  1  1  0  0  0
 27 26  1  6  0  0  0
 27 28  1  0  0  0  0
 27 25  1  0  0  0  0
 29 28  1  0  0  0  0
 29 30  1  0  0  0  0
 30 32  1  0  0  0  0
 31 30  1  0  0  0  0
 31 32  1  0  0  0  0
M  END
>  <MODEL>
2

>  <REMARK>
 VINA RESULT:      -6.7      2.712      4.349
  Name = 
  5 active torsions:
  status: ('A' for Active; 'I' for Inactive)
    1  A    between atoms: C_1  and  C_10
    2  A    between atoms: C_8  and  C_23
    3  A    between atoms: C_10  and  C_24
    4  A    between atoms: C_19  and  C_23
    5  A    between atoms: C_19  and  C_24
                            x       y       z     vdW  Elec       q    Type
                         _______ _______ _______ _____ _____    ______ ____

>  <TORSDO>
F 5

$$$$
=
 OpenBabel11062410383D

 32 37  0  0  1  0  0  0  0  0999 V2000
  162.1100  210.0370  151.2080 C   0  0  1  0  0  3  0  0  0  0  0  0
  158.8990  210.6820  154.9410 C   0  0  0  0  0  3  0  0  0  0  0  0
  158.1750  211.5850  154.1610 C   0  0  0  0  0  3  0  0  0  0  0  0
  162.0220  211.5330  149.1790 C   0  0  0  0  0  0  0  0  0  0  0  0
  161.1080  212.3740  148.4120 C   0  0  0  0  0  0  0  0  0  0  0  0
  161.4860  207.6120  151.1650 C   0  0  2  0  0  3  0  0  0  0  0  0
  162.2080  208.6780  153.2320 O   0  0  0  0  0  0  0  0  0  0  0  0
  159.2610  213.6270  148.0530 C   0  0  0  0  0  0  0  0  0  0  0  0
  161.5330  206.3970  153.3680 C   0  0  0  0  0  1  0  0  0  0  0  0
  160.1050  210.1640  154.4700 C   0  0  0  0  0  3  0  0  0  0  0  0
  161.9240  209.9750  152.7330 C   0  0  2  0  0  3  0  0  0  0  0  0
  160.5960  210.5310  153.2080 C   0  0  0  0  0  0  0  0  0  0  0  0
  160.4230  211.9280  151.1200 C   0  0  0  0  0  0  0  0  0  0  0  0
  159.5440  212.9130  146.8580 N   0  0  0  0  0  2  0  0  0  0  0  0
  161.3040  207.7360  152.6860 C   0  0  2  0  0  3  0  0  0  0  0  0
  160.6850  212.1240  147.1760 C   0  0  0  0  0  3  0  0  0  0  0  0
  158.6650  211.9800  152.9160 C   0  0  0  0  0  3  0  0  0  0  0  0
  159.8820  211.4710  152.4280 C   0  0  0  0  0  0  0  0  0  0  0  0
  159.7190  212.8010  150.3690 C   0  0  0  0  0  3  0  0  0  0  0  0
  161.2410  208.9770  150.5360 C   0  0  0  0  0  2  0  0  0  0  0  0
  162.9540  210.9020  148.6080 O   0  0  0  0  0  0  0  0  0  0  0  0
  158.2830  214.4120  148.1670 O   0  0  0  0  0  0  0  0  0  0  0  0
  161.8120  211.4470  150.6780 C   0  0  1  0  0  3  0  0  0  0  0  0
  160.2790  213.3910  149.1060 C   0  0  1  0  0  3  0  0  0  0  0  0
  160.4950  206.6100  150.5790 C   0  0  0  0  0  2  0  0  0  0  0  0
  160.7040  203.9030  150.7720 S   0  0  0  0  0  1  0  0  0  0  0  0
  161.2110  205.4330  149.9320 C   0  0  1  0  0  3  0  0  0  0  0  0
  160.8550  205.3480  148.4560 C   0  0  0  0  0  2  0  0  0  0  0  0
  161.5830  204.1930  147.7980 C   0  0  0  0  0  2  0  0  0  0  0  0
  161.7040  204.4560  146.3120 C   0  0  0  0  0  3  0  0  0  0  0  0
  162.2020  205.8690  146.0970 C   0  0  0  0  0  2  0  0  0  0  0  0
  163.1590  204.7030  145.9640 C   0  0  0  0  0  2  0  0  0  0  0  0
  1 20  1  6  0  0  0
  1 11  1  0  0  0  0
  3  2  2  0  0  0  0
  5 24  1  0  0  0  0
  5  4  1  0  0  0  0
  6 25  1  6  0  0  0
  6 15  1  0  0  0  0
  8 22  2  0  0  0  0
  8 24  1  0  0  0  0
 10  2  1  0  0  0  0
 11 12  1  6  0  0  0
 11  7  1  0  0  0  0
 12 10  2  0  0  0  0
 13 18  1  0  0  0  0
 14 16  1  0  0  0  0
 14  8  1  0  0  0  0
 15  7  1  0  0  0  0
 15  9  1  1  0  0  0
 16  5  2  0  0  0  0
 17  3  1  0  0  0  0
 18 17  2  0  0  0  0
 18 12  1  0  0  0  0
 19 13  2  0  0  0  0
 20  6  1  0  0  0  0
 21  4  2  0  0  0  0
 23  4  1  6  0  0  0
 23 13  1  0  0  0  0
 23  1  1  0  0  0  0
 24 19  1  1  0  0  0
 27 25  1  0  0  0  0
 27 26  1  1  0  0  0
 28 27  1  0  0  0  0
 29 28  1  0  0  0  0
 30 29  1  0  0  0  0
 31 30  1  0  0  0  0
 32 31  1  0  0  0  0
 32 30  1  0  0  0  0
M  END
>  <MODEL>
3

>  <REMARK>
 VINA RESULT:      -6.7      2.153      3.241
  Name = 
  5 active torsions:
  status: ('A' for Active; 'I' for Inactive)
    1  A    between atoms: C_1  and  C_10
    2  A    between atoms: C_8  and  C_23
    3  A    between atoms: C_10  and  C_24
    4  A    between atoms: C_19  and  C_23
    5  A    between atoms: C_19  and  C_24
                            x       y       z     vdW  Elec       q    Type
                         _______ _______ _______ _____ _____    ______ ____

>  <TORSDO>
F 5

$$$$
=
 OpenBabel11062410383D

 32 37  0  0  1  0  0  0  0  0999 V2000
  162.1830  209.8930  150.9100 C   0  0  1  0  0  3  0  0  0  0  0  0
  159.2750  210.2510  154.9210 C   0  0  0  0  0  3  0  0  0  0  0  0
  158.4880  211.1970  154.2640 C   0  0  0  0  0  3  0  0  0  0  0  0
  161.9290  211.5230  149.0020 C   0  0  0  0  0  0  0  0  0  0  0  0
  160.9520  212.4050  148.3690 C   0  0  0  0  0  0  0  0  0  0  0  0
  161.5680  207.4700  150.7500 C   0  0  2  0  0  3  0  0  0  0  0  0
  162.4470  208.4000  152.8220 O   0  0  0  0  0  0  0  0  0  0  0  0
  159.0780  213.6620  148.2440 C   0  0  0  0  0  0  0  0  0  0  0  0
  161.7950  206.1090  152.8540 C   0  0  0  0  0  1  0  0  0  0  0  0
  160.4430  209.7770  154.3210 C   0  0  0  0  0  3  0  0  0  0  0  0
  162.1190  209.7240  152.4370 C   0  0  2  0  0  3  0  0  0  0  0  0
  160.8300  210.2350  153.0530 C   0  0  0  0  0  0  0  0  0  0  0  0
  160.4870  211.7690  151.0850 C   0  0  0  0  0  0  0  0  0  0  0  0
  159.2680  213.0340  146.9840 N   0  0  0  0  0  2  0  0  0  0  0  0
  161.5060  207.4890  152.2860 C   0  0  2  0  0  3  0  0  0  0  0  0
  160.4340  212.2360  147.1560 C   0  0  0  0  0  3  0  0  0  0  0  0
  158.8760  211.6810  153.0140 C   0  0  0  0  0  3  0  0  0  0  0  0
  160.0530  211.2190  152.3980 C   0  0  0  0  0  0  0  0  0  0  0  0
  159.7210  212.6840  150.4540 C   0  0  0  0  0  3  0  0  0  0  0  0
  161.2680  208.8720  150.2380 C   0  0  0  0  0  2  0  0  0  0  0  0
  162.8150  210.9410  148.3180 O   0  0  0  0  0  0  0  0  0  0  0  0
  158.1090  214.4280  148.4880 O   0  0  0  0  0  0  0  0  0  0  0  0
  161.8380  211.3320  150.5030 C   0  0  1  0  0  3  0  0  0  0  0  0
  160.1770  213.3640  149.1950 C   0  0  1  0  0  3  0  0  0  0  0  0
  160.5370  206.5000  150.1760 C   0  0  0  0  0  2  0  0  0  0  0  0
  162.2680  207.1510  148.1790 S   0  0  0  0  0  1  0  0  0  0  0  0
  160.8310  206.1770  148.7180 C   0  0  1  0  0  3  0  0  0  0  0  0
  161.1290  204.6950  148.5590 C   0  0  0  0  0  2  0  0  0  0  0  0
  161.0180  203.9830  149.8930 C   0  0  0  0  0  2  0  0  0  0  0  0
  160.2140  202.7120  149.7190 C   0  0  0  0  0  3  0  0  0  0  0  0
  160.8550  201.8630  148.6420 C   0  0  0  0  0  2  0  0  0  0  0  0
  161.0700  201.5210  150.1020 C   0  0  0  0  0  2  0  0  0  0  0  0
  1 20  1  6  0  0  0
  1 11  1  0  0  0  0
  3  2  2  0  0  0  0
  5  4  1  0  0  0  0
  5 24  1  0  0  0  0
  6 25  1  6  0  0  0
  6 15  1  0  0  0  0
  8 22  2  0  0  0  0
  8 24  1  0  0  0  0
 10  2  1  0  0  0  0
 11  7  1  6  0  0  0
 11 12  1  0  0  0  0
 12 10  2  0  0  0  0
 13 18  1  0  0  0  0
 14 16  1  0  0  0  0
 14  8  1  0  0  0  0
 15  7  1  0  0  0  0
 15  9  1  1  0  0  0
 16  5  2  0  0  0  0
 17  3  1  0  0  0  0
 18 17  2  0  0  0  0
 18 12  1  0  0  0  0
 19 13  2  0  0  0  0
 20  6  1  0  0  0  0
 21  4  2  0  0  0  0
 23  4  1  6  0  0  0
 23  1  1  0  0  0  0
 23 13  1  0  0  0  0
 24 19  1  1  0  0  0
 27 26  1  1  0  0  0
 27 25  1  0  0  0  0
 28 27  1  0  0  0  0
 28 29  1  0  0  0  0
 30 29  1  0  0  0  0
 30 32  1  0  0  0  0
 31 30  1  0  0  0  0
 31 32  1  0  0  0  0
M  END
>  <MODEL>
4

>  <REMARK>
 VINA RESULT:      -6.4      2.389      3.582
  Name = 
  5 active torsions:
  status: ('A' for Active; 'I' for Inactive)
    1  A    between atoms: C_1  and  C_10
    2  A    between atoms: C_8  and  C_23
    3  A    between atoms: C_10  and  C_24
    4  A    between atoms: C_19  and  C_23
    5  A    between atoms: C_19  and  C_24
                            x       y       z     vdW  Elec       q    Type
                         _______ _______ _______ _____ _____    ______ ____

>  <TORSDO>
F 5

$$$$
=
 OpenBabel11062410383D

 32 37  0  0  1  0  0  0  0  0999 V2000
  160.0890  212.5470  152.9750 C   0  0  1  0  0  3  0  0  0  0  0  0
  156.8970  211.1440  156.5110 C   0  0  0  0  0  3  0  0  0  0  0  0
  155.8300  211.5400  155.7040 C   0  0  0  0  0  3  0  0  0  0  0  0
  159.2810  213.8500  150.9720 C   0  0  0  0  0  0  0  0  0  0  0  0
  158.0890  214.0900  150.1650 C   0  0  0  0  0  0  0  0  0  0  0  0
  160.9030  210.1810  152.8490 C   0  0  2  0  0  3  0  0  0  0  0  0
  160.8320  211.3650  154.9770 O   0  0  0  0  0  0  0  0  0  0  0  0
  155.8740  214.1440  149.7140 C   0  0  0  0  0  0  0  0  0  0  0  0
  161.5160  209.0830  155.0280 C   0  0  0  0  0  1  0  0  0  0  0  0
  158.2090  211.3940  156.1070 C   0  0  0  0  0  3  0  0  0  0  0  0
  159.9040  212.3170  154.4850 C   0  0  2  0  0  3  0  0  0  0  0  0
  158.4700  212.0320  154.8860 C   0  0  0  0  0  0  0  0  0  0  0  0
  157.6470  213.2090  152.8160 C   0  0  0  0  0  0  0  0  0  0  0  0
  156.5530  213.7620  148.5260 N   0  0  0  0  0  2  0  0  0  0  0  0
  160.6170  210.1100  154.3580 C   0  0  2  0  0  3  0  0  0  0  0  0
  157.9250  213.7120  148.9010 C   0  0  0  0  0  3  0  0  0  0  0  0
  156.0750  212.2010  154.4990 C   0  0  0  0  0  3  0  0  0  0  0  0
  157.3910  212.4660  154.0790 C   0  0  0  0  0  0  0  0  0  0  0  0
  156.6120  213.5900  152.0390 C   0  0  0  0  0  3  0  0  0  0  0  0
  159.9750  211.2190  152.2310 C   0  0  0  0  0  2  0  0  0  0  0  0
  160.4290  213.8610  150.4500 O   0  0  0  0  0  0  0  0  0  0  0  0
  154.6220  214.2600  149.7810 O   0  0  0  0  0  0  0  0  0  0  0  0
  159.0890  213.5880  152.4530 C   0  0  1  0  0  3  0  0  0  0  0  0
  156.8080  214.4520  150.8240 C   0  0  1  0  0  3  0  0  0  0  0  0
  160.6500  208.8310  152.1840 C   0  0  0  0  0  2  0  0  0  0  0  0
  162.2880  206.7350  151.6070 S   0  0  0  0  0  1  0  0  0  0  0  0
  161.7920  208.4480  151.2540 C   0  0  1  0  0  3  0  0  0  0  0  0
  161.3500  208.5630  149.8040 C   0  0  0  0  0  2  0  0  0  0  0  0
  162.2970  209.4570  149.0280 C   0  0  0  0  0  2  0  0  0  0  0  0
  161.9300  210.9070  149.2690 C   0  0  0  0  0  3  0  0  0  0  0  0
  162.7600  211.7870  148.3600 C   0  0  0  0  0  2  0  0  0  0  0  0
  161.3190  211.4840  148.0080 C   0  0  0  0  0  2  0  0  0  0  0  0
  1 20  1  6  0  0  0
  1 11  1  0  0  0  0
  3  2  2  0  0  0  0
  5 24  1  0  0  0  0
  5  4  1  0  0  0  0
  6 25  1  6  0  0  0
  6 15  1  0  0  0  0
  8 22  2  0  0  0  0
  8 24  1  0  0  0  0
 10  2  1  0  0  0  0
 11 12  1  6  0  0  0
 11  7  1  0  0  0  0
 12 10  2  0  0  0  0
 13 18  1  0  0  0  0
 14 16  1  0  0  0  0
 14  8  1  0  0  0  0
 15  7  1  0  0  0  0
 15  9  1  1  0  0  0
 16  5  2  0  0  0  0
 17  3  1  0  0  0  0
 18 17  2  0  0  0  0
 18 12  1  0  0  0  0
 19 13  2  0  0  0  0
 20  6  1  0  0  0  0
 21  4  2  0  0  0  0
 23  4  1  6  0  0  0
 23 13  1  0  0  0  0
 23  1  1  0  0  0  0
 24 19  1  1  0  0  0
 27 26  1  1  0  0  0
 27 25  1  0  0  0  0
 28 27  1  0  0  0  0
 29 30  1  0  0  0  0
 29 28  1  0  0  0  0
 31 30  1  0  0  0  0
 32 31  1  0  0  0  0
 32 30  1  0  0  0  0
M  END
>  <MODEL>
5

>  <REMARK>
 VINA RESULT:      -5.8      1.345      1.893
  Name = 
  5 active torsions:
  status: ('A' for Active; 'I' for Inactive)
    1  A    between atoms: C_1  and  C_10
    2  A    between atoms: C_8  and  C_23
    3  A    between atoms: C_10  and  C_24
    4  A    between atoms: C_19  and  C_23
    5  A    between atoms: C_19  and  C_24
                            x       y       z     vdW  Elec       q    Type
                         _______ _______ _______ _____ _____    ______ ____

>  <TORSDO>
F 5

$$$$
=
 OpenBabel11062410383D

 32 37  0  0  1  0  0  0  0  0999 V2000
  162.0490  208.8390  151.8120 C   0  0  1  0  0  3  0  0  0  0  0  0
  160.1260  206.9510  155.9840 C   0  0  0  0  0  3  0  0  0  0  0  0
  159.2710  208.0500  156.0860 C   0  0  0  0  0  3  0  0  0  0  0  0
  161.4780  211.1890  151.0950 C   0  0  0  0  0  0  0  0  0  0  0  0
  160.4410  212.2080  151.2250 C   0  0  0  0  0  0  0  0  0  0  0  0
  161.2700  206.7930  150.5940 C   0  0  2  0  0  3  0  0  0  0  0  0
  162.6390  206.6060  152.6000 O   0  0  0  0  0  0  0  0  0  0  0  0
  158.6640  213.2400  152.1670 C   0  0  0  0  0  0  0  0  0  0  0  0
  161.8740  204.5750  151.6160 C   0  0  0  0  0  1  0  0  0  0  0  0
  161.1020  206.9170  154.9870 C   0  0  0  0  0  3  0  0  0  0  0  0
  162.3140  207.9210  153.0180 C   0  0  2  0  0  3  0  0  0  0  0  0
  161.2260  207.9730  154.0730 C   0  0  0  0  0  0  0  0  0  0  0  0
  160.5490  210.2650  153.2770 C   0  0  0  0  0  0  0  0  0  0  0  0
  158.5330  213.3440  150.7570 N   0  0  0  0  0  2  0  0  0  0  0  0
  161.5500  206.0330  151.9010 C   0  0  2  0  0  3  0  0  0  0  0  0
  159.6590  212.6410  150.2410 C   0  0  0  0  0  3  0  0  0  0  0  0
  159.4020  209.1200  155.1990 C   0  0  0  0  0  3  0  0  0  0  0  0
  160.3840  209.1030  154.1920 C   0  0  0  0  0  0  0  0  0  0  0  0
  159.7200  211.3240  153.3790 C   0  0  0  0  0  3  0  0  0  0  0  0
  160.9490  208.2420  150.9380 C   0  0  0  0  0  2  0  0  0  0  0  0
  162.1550  211.0860  150.0350 O   0  0  0  0  0  0  0  0  0  0  0  0
  157.8200  213.7180  152.9700 O   0  0  0  0  0  0  0  0  0  0  0  0
  161.7100  210.2640  152.2730 C   0  0  1  0  0  3  0  0  0  0  0  0
  159.9260  212.5720  152.5690 C   0  0  1  0  0  3  0  0  0  0  0  0
  160.0820  206.1840  149.8540 C   0  0  0  0  0  2  0  0  0  0  0  0
  161.8220  206.9070  147.8910 S   0  0  0  0  0  1  0  0  0  0  0  0
  160.4370  205.8510  148.4120 C   0  0  1  0  0  3  0  0  0  0  0  0
  160.8370  204.3890  148.2940 C   0  0  0  0  0  2  0  0  0  0  0  0
  161.9860  204.2290  147.3170 C   0  0  0  0  0  2  0  0  0  0  0  0
  161.4800  203.5690  146.0510 C   0  0  0  0  0  3  0  0  0  0  0  0
  161.0240  204.6380  145.0820 C   0  0  0  0  0  2  0  0  0  0  0  0
  162.3680  203.9670  144.8900 C   0  0  0  0  0  2  0  0  0  0  0  0
  1 20  1  1  0  0  0
  1 23  1  0  0  0  0
  1 11  1  0  0  0  0
  2  3  1  0  0  0  0
  4  5  1  0  0  0  0
  5 24  1  0  0  0  0
  6 25  1  1  0  0  0
  6 20  1  0  0  0  0
  6 15  1  0  0  0  0
  8 24  1  0  0  0  0
  8 22  2  0  0  0  0
 10  2  2  0  0  0  0
 11  7  1  6  0  0  0
 11 12  1  0  0  0  0
 12 18  2  0  0  0  0
 12 10  1  0  0  0  0
 13 19  2  0  0  0  0
 13 18  1  0  0  0  0
 14  8  1  0  0  0  0
 15  9  1  6  0  0  0
 15  7  1  0  0  0  0
 16 14  1  0  0  0  0
 16  5  2  0  0  0  0
 17  3  2  0  0  0  0
 18 17  1  0  0  0  0
 21  4  2  0  0  0  0
 23  4  1  6  0  0  0
 23 13  1  0  0  0  0
 24 19  1  1  0  0  0
 27 26  1  1  0  0  0
 27 25  1  0  0  0  0
 28 27  1  0  0  0  0
 29 28  1  0  0  0  0
 30 29  1  0  0  0  0
 31 30  1  0  0  0  0
 32 31  1  0  0  0  0
 32 30  1  0  0  0  0
M  END
>  <MODEL>
6

>  <REMARK>
 VINA RESULT:      -5.5      2.465      4.198
  Name = 
  5 active torsions:
  status: ('A' for Active; 'I' for Inactive)
    1  A    between atoms: C_1  and  C_10
    2  A    between atoms: C_8  and  C_23
    3  A    between atoms: C_10  and  C_24
    4  A    between atoms: C_19  and  C_23
    5  A    between atoms: C_19  and  C_24
                            x       y       z     vdW  Elec       q    Type
                         _______ _______ _______ _____ _____    ______ ____

>  <TORSDO>
F 5

$$$$
=
 OpenBabel11062410383D

 32 37  0  0  1  0  0  0  0  0999 V2000
  161.6300  210.4500  151.4200 C   0  0  1  0  0  3  0  0  0  0  0  0
  159.1370  209.6620  155.6430 C   0  0  0  0  0  3  0  0  0  0  0  0
  158.1330  210.5310  155.2110 C   0  0  0  0  0  3  0  0  0  0  0  0
  160.9010  212.2670  149.8290 C   0  0  0  0  0  0  0  0  0  0  0  0
  159.7260  213.0340  149.4250 C   0  0  0  0  0  0  0  0  0  0  0  0
  161.4300  208.0050  150.9120 C   0  0  2  0  0  3  0  0  0  0  0  0
  162.3450  208.7680  153.0370 O   0  0  0  0  0  0  0  0  0  0  0  0
  157.6590  213.9220  149.6490 C   0  0  0  0  0  0  0  0  0  0  0  0
  162.1070  206.4160  152.7410 C   0  0  0  0  0  1  0  0  0  0  0  0
  160.3000  209.5090  154.8870 C   0  0  0  0  0  3  0  0  0  0  0  0
  161.7550  210.0490  152.9000 C   0  0  2  0  0  3  0  0  0  0  0  0
  160.4690  210.2130  153.6860 C   0  0  0  0  0  0  0  0  0  0  0  0
  159.6620  211.9290  152.0280 C   0  0  0  0  0  0  0  0  0  0  0  0
  157.8230  213.5330  148.2930 N   0  0  0  0  0  2  0  0  0  0  0  0
  161.5260  207.7860  152.4310 C   0  0  2  0  0  3  0  0  0  0  0  0
  159.1220  212.9520  148.2430 C   0  0  0  0  0  3  0  0  0  0  0  0
  158.3000  211.2570  154.0310 C   0  0  0  0  0  3  0  0  0  0  0  0
  159.4690  211.1200  153.2610 C   0  0  0  0  0  0  0  0  0  0  0  0
  158.6890  212.7670  151.6140 C   0  0  0  0  0  3  0  0  0  0  0  0
  160.8410  209.3860  150.6610 C   0  0  0  0  0  2  0  0  0  0  0  0
  161.7980  211.9690  148.9940 O   0  0  0  0  0  0  0  0  0  0  0  0
  156.6030  214.4480  150.0880 O   0  0  0  0  0  0  0  0  0  0  0  0
  161.0010  211.8440  151.2820 C   0  0  1  0  0  3  0  0  0  0  0  0
  158.8860  213.6990  150.4530 C   0  0  1  0  0  3  0  0  0  0  0  0
  160.5290  206.9550  150.2670 C   0  0  0  0  0  2  0  0  0  0  0  0
  162.5600  207.3680  148.5030 S   0  0  0  0  0  1  0  0  0  0  0  0
  160.8750  206.7540  148.7990 C   0  0  1  0  0  3  0  0  0  0  0  0
  160.7990  205.2790  148.4390 C   0  0  0  0  0  2  0  0  0  0  0  0
  160.7650  204.4260  149.6930 C   0  0  0  0  0  2  0  0  0  0  0  0
  161.2680  203.0350  149.3680 C   0  0  0  0  0  3  0  0  0  0  0  0
  161.0400  202.1330  150.5620 C   0  0  0  0  0  2  0  0  0  0  0  0
  160.1020  202.0670  149.3750 C   0  0  0  0  0  2  0  0  0  0  0  0
  1 20  1  6  0  0  0
  1 11  1  0  0  0  0
  3  2  1  0  0  0  0
  5  4  1  0  0  0  0
  5 24  1  0  0  0  0
  6 25  1  1  0  0  0
  6 15  1  0  0  0  0
  8 22  2  0  0  0  0
  8 24  1  0  0  0  0
 10  2  2  0  0  0  0
 11  7  1  6  0  0  0
 11 12  1  0  0  0  0
 12 10  1  0  0  0  0
 13 18  1  0  0  0  0
 14  8  1  0  0  0  0
 15  9  1  6  0  0  0
 15  7  1  0  0  0  0
 16 14  1  0  0  0  0
 16  5  2  0  0  0  0
 17  3  2  0  0  0  0
 18 12  2  0  0  0  0
 18 17  1  0  0  0  0
 19 13  2  0  0  0  0
 20  6  1  0  0  0  0
 21  4  2  0  0  0  0
 23  4  1  6  0  0  0
 23  1  1  0  0  0  0
 23 13  1  0  0  0  0
 24 19  1  1  0  0  0
 27 26  1  1  0  0  0
 27 25  1  0  0  0  0
 28 27  1  0  0  0  0
 28 29  1  0  0  0  0
 30 32  1  0  0  0  0
 30 29  1  0  0  0  0
 30 31  1  0  0  0  0
 32 31  1  0  0  0  0
M  END
>  <MODEL>
7

>  <REMARK>
 VINA RESULT:      -5.1      1.906      2.863
  Name = 
  5 active torsions:
  status: ('A' for Active; 'I' for Inactive)
    1  A    between atoms: C_1  and  C_10
    2  A    between atoms: C_8  and  C_23
    3  A    between atoms: C_10  and  C_24
    4  A    between atoms: C_19  and  C_23
    5  A    between atoms: C_19  and  C_24
                            x       y       z     vdW  Elec       q    Type
                         _______ _______ _______ _____ _____    ______ ____

>  <TORSDO>
F 5

$$$$
=
 OpenBabel11062410383D

 32 37  0  0  1  0  0  0  0  0999 V2000
  161.9490  210.8520  151.7810 C   0  0  1  0  0  3  0  0  0  0  0  0
  161.3520  207.3980  148.2620 C   0  0  0  0  0  3  0  0  0  0  0  0
  160.8280  206.5210  149.2130 C   0  0  0  0  0  3  0  0  0  0  0  0
  161.6300  210.2620  154.2130 C   0  0  0  0  0  0  0  0  0  0  0  0
  160.9350  209.3180  155.0830 C   0  0  0  0  0  0  0  0  0  0  0  0
  160.3910  212.3410  150.5040 C   0  0  2  0  0  3  0  0  0  0  0  0
  162.3330  211.3450  149.4220 O   0  0  0  0  0  0  0  0  0  0  0  0
  159.8660  207.3980  155.6140 C   0  0  0  0  0  0  0  0  0  0  0  0
  160.8770  212.6430  148.0540 C   0  0  0  0  0  1  0  0  0  0  0  0
  161.8690  208.6310  148.6600 C   0  0  0  0  0  3  0  0  0  0  0  0
  162.4500  210.3430  150.4190 C   0  0  2  0  0  3  0  0  0  0  0  0
  161.8550  209.0090  150.0110 C   0  0  0  0  0  0  0  0  0  0  0  0
  161.4010  208.4620  152.4270 C   0  0  0  0  0  0  0  0  0  0  0  0
  159.2520  208.4550  156.3370 N   0  0  0  0  0  2  0  0  0  0  0  0
  160.9740  211.6940  149.2370 C   0  0  2  0  0  3  0  0  0  0  0  0
  159.9490  209.6240  155.9210 C   0  0  0  0  0  3  0  0  0  0  0  0
  160.8340  206.8730  150.5640 C   0  0  0  0  0  3  0  0  0  0  0  0
  161.3560  208.1100  150.9830 C   0  0  0  0  0  0  0  0  0  0  0  0
  160.8920  207.6110  153.3430 C   0  0  0  0  0  3  0  0  0  0  0  0
  160.5110  211.3480  151.6520 C   0  0  0  0  0  2  0  0  0  0  0  0
  161.8380  211.4500  154.5830 O   0  0  0  0  0  0  0  0  0  0  0  0
  159.4860  206.2010  155.6970 O   0  0  0  0  0  0  0  0  0  0  0  0
  162.0890  209.7650  152.8560 C   0  0  1  0  0  3  0  0  0  0  0  0
  161.0290  207.8600  154.8180 C   0  0  1  0  0  3  0  0  0  0  0  0
  158.9200  212.6970  150.3060 C   0  0  0  0  0  2  0  0  0  0  0  0
  156.8460  214.4180  150.6820 S   0  0  0  0  0  1  0  0  0  0  0  0
  158.6430  214.1450  150.6810 C   0  0  1  0  0  3  0  0  0  0  0  0
  159.2060  214.4460  152.0610 C   0  0  0  0  0  2  0  0  0  0  0  0
  158.1580  214.2020  153.1290 C   0  0  0  0  0  2  0  0  0  0  0  0
  158.6310  213.1000  154.0550 C   0  0  0  0  0  3  0  0  0  0  0  0
  157.6460  212.9510  155.1930 C   0  0  0  0  0  2  0  0  0  0  0  0
  157.6240  211.9680  154.0410 C   0  0  0  0  0  2  0  0  0  0  0  0
  1 20  1  6  0  0  0
  1 23  1  0  0  0  0
  2 10  2  0  0  0  0
  2  3  1  0  0  0  0
  3 17  2  0  0  0  0
  4 21  2  0  0  0  0
  4  5  1  0  0  0  0
  5 16  2  0  0  0  0
  6 25  1  6  0  0  0
  6 20  1  0  0  0  0
  8 22  2  0  0  0  0
  8 14  1  0  0  0  0
 10 12  1  0  0  0  0
 11  7  1  6  0  0  0
 11  1  1  0  0  0  0
 12 11  1  0  0  0  0
 12 18  2  0  0  0  0
 13 19  2  0  0  0  0
 15  9  1  6  0  0  0
 15  7  1  0  0  0  0
 15  6  1  0  0  0  0
 16 14  1  0  0  0  0
 17 18  1  0  0  0  0
 18 13  1  0  0  0  0
 23 13  1  6  0  0  0
 23  4  1  0  0  0  0
 24 19  1  6  0  0  0
 24  5  1  0  0  0  0
 24  8  1  0  0  0  0
 25 27  1  0  0  0  0
 27 26  1  1  0  0  0
 27 28  1  0  0  0  0
 28 29  1  0  0  0  0
 29 30  1  0  0  0  0
 30 31  1  0  0  0  0
 32 30  1  0  0  0  0
 32 31  1  0  0  0  0
M  END
>  <MODEL>
8

>  <REMARK>
 VINA RESULT:      -4.3      3.171      7.673
  Name = 
  5 active torsions:
  status: ('A' for Active; 'I' for Inactive)
    1  A    between atoms: C_1  and  C_10
    2  A    between atoms: C_8  and  C_23
    3  A    between atoms: C_10  and  C_24
    4  A    between atoms: C_19  and  C_23
    5  A    between atoms: C_19  and  C_24
                            x       y       z     vdW  Elec       q    Type
                         _______ _______ _______ _____ _____    ______ ____

>  <TORSDO>
F 5

$$$$
