=
 OpenBabel11062408033D

 34 40  0  0  1  0  0  0  0  0999 V2000
  161.0210  205.4670  152.9560 C   0  0  0  0  0  0  0  0  0  0  0  0
  161.2860  207.7570  152.0600 C   0  0  0  0  0  0  0  0  0  0  0  0
  160.9470  205.7920  150.6020 C   0  0  0  0  0  0  0  0  0  0  0  0
  161.3660  206.0890  147.0920 C   0  0  0  0  0  3  0  0  0  0  0  0
  161.2260  207.3400  154.4660 C   0  0  0  0  0  3  0  0  0  0  0  0
  161.3360  208.2160  153.3820 C   0  0  0  0  0  3  0  0  0  0  0  0
  161.6110  208.7190  149.6570 C   0  0  0  0  0  0  0  0  0  0  0  0
  161.0860  206.3630  151.8520 C   0  0  0  0  0  0  0  0  0  0  0  0
  161.5820  207.4580  147.5020 O   0  0  0  0  0  0  0  0  0  0  0  0
  161.0810  205.9700  154.2550 C   0  0  0  0  0  2  0  0  0  0  0  0
  160.8790  204.4310  150.3660 C   0  0  0  0  0  0  0  0  0  0  0  0
  160.9130  204.0720  152.7450 C   0  0  0  0  0  3  0  0  0  0  0  0
  161.5160  208.7440  151.0720 C   0  0  0  0  0  3  0  0  0  0  0  0
  160.9480  205.4640  148.3830 C   0  0  0  0  0  0  0  0  0  0  0  0
  160.9140  204.1970  148.9730 C   0  0  0  0  0  0  0  0  0  0  0  0
  161.3790  207.5860  148.8810 C   0  0  0  0  0  0  0  0  0  0  0  0
  160.9600  206.3990  149.3350 C   0  0  0  0  0  0  0  0  0  0  0  0
  160.8620  203.5390  151.4400 C   0  0  0  0  0  3  0  0  0  0  0  0
  160.7670  201.5520  146.2620 C   0  0  0  0  0  0  0  0  0  0  0  0
  161.2230  200.4270  146.9530 C   0  0  0  0  0  3  0  0  0  0  0  0
  161.0160  202.8980  148.2720 C   0  0  0  0  0  0  0  0  0  0  0  0
  161.5770  200.5310  148.3000 C   0  0  0  0  0  3  0  0  0  0  0  0
  160.6650  202.7810  146.9190 C   0  0  0  0  0  3  0  0  0  0  0  0
  161.4740  201.7610  148.9560 C   0  0  0  0  0  3  0  0  0  0  0  0
  160.4150  201.4500  144.9230 O   0  0  0  0  0  1  0  0  0  0  0  0
  161.9390  211.0580  149.5340 N   0  0  0  0  0  0  0  0  0  0  0  0
  161.9680  209.9200  148.9660 N   0  0  0  0  0  0  0  0  0  0  0  0
  160.3030  213.3270  149.5630 O   0  0  0  0  0  0  0  0  0  0  0  0
  162.3070  212.2590  148.8010 C   0  0  2  0  0  3  0  0  0  0  0  0
  161.1020  213.1420  148.6080 C   0  0  0  0  0  0  0  0  0  0  0  0
  161.6440  213.5580  146.2260 C   0  0  0  0  0  2  0  0  0  0  0  0
  163.0540  213.0850  146.5490 C   0  0  0  0  0  2  0  0  0  0  0  0
  162.9490  211.8760  147.4650 C   0  0  0  0  0  2  0  0  0  0  0  0
  160.9250  213.8610  147.4190 O   0  0  0  0  0  0  0  0  0  0  0  0
  1 10  1  0  0  0  0
  2  6  1  0  0  0  0
  3  8  1  0  0  0  0
  4  9  1  0  0  0  0
  4 14  2  0  0  0  0
  6  5  2  0  0  0  0
  7 13  1  0  0  0  0
  8  2  1  0  0  0  0
  8  1  2  0  0  0  0
  9 16  1  0  0  0  0
 10  5  1  0  0  0  0
 11  3  1  0  0  0  0
 11 18  1  0  0  0  0
 12  1  1  0  0  0  0
 13  2  2  0  0  0  0
 14 15  1  0  0  0  0
 14 17  1  0  0  0  0
 15 11  2  0  0  0  0
 16 17  1  0  0  0  0
 16  7  2  0  0  0  0
 17  3  2  0  0  0  0
 18 12  2  0  0  0  0
 19 23  2  0  0  0  0
 19 20  1  0  0  0  0
 20 22  2  0  0  0  0
 21 24  2  0  0  0  0
 21 15  1  0  0  0  0
 22 24  1  0  0  0  0
 23 21  1  0  0  0  0
 25 19  1  0  0  0  0
 27 26  2  0  0  0  0
 27  7  1  0  0  0  0
 29 26  1  6  0  0  0
 30 29  1  0  0  0  0
 30 28  2  0  0  0  0
 31 32  1  0  0  0  0
 31 34  1  0  0  0  0
 32 33  1  0  0  0  0
 33 29  1  0  0  0  0
 34 30  1  0  0  0  0
M  END
>  <MODEL>
1

>  <REMARK>
 VINA RESULT:     -12.2      0.000      0.000
  Name = 
  3 active torsions:
  status: ('A' for Active; 'I' for Inactive)
    1  A    between atoms: N_3  and  C_13
    2  A    between atoms: C_10  and  N_17
    3  A    between atoms: C_12  and  C_28
                            x       y       z     vdW  Elec       q    Type
                         _______ _______ _______ _____ _____    ______ ____

>  <TORSDO>
F 3

$$$$
=
 OpenBabel11062408033D

 34 40  0  0  1  0  0  0  0  0999 V2000
  161.1390  206.8520  153.5990 C   0  0  0  0  0  0  0  0  0  0  0  0
  161.4810  208.9740  152.3770 C   0  0  0  0  0  0  0  0  0  0  0  0
  161.0620  206.8310  151.2220 C   0  0  0  0  0  0  0  0  0  0  0  0
  161.4700  206.5950  147.7070 C   0  0  0  0  0  3  0  0  0  0  0  0
  161.4210  208.9180  154.8180 C   0  0  0  0  0  3  0  0  0  0  0  0
  161.5560  209.6210  153.6170 C   0  0  0  0  0  3  0  0  0  0  0  0
  161.8240  209.5620  149.8580 C   0  0  0  0  0  0  0  0  0  0  0  0
  161.2290  207.5740  152.3750 C   0  0  0  0  0  0  0  0  0  0  0  0
  161.7370  208.0000  147.9110 O   0  0  0  0  0  0  0  0  0  0  0  0
  161.2260  207.5370  154.8100 C   0  0  0  0  0  2  0  0  0  0  0  0
  160.9440  205.4530  151.1900 C   0  0  0  0  0  0  0  0  0  0  0  0
  160.9800  205.4460  153.5950 C   0  0  0  0  0  3  0  0  0  0  0  0
  161.7400  209.7980  151.2540 C   0  0  0  0  0  3  0  0  0  0  0  0
  161.0370  206.1810  149.0760 C   0  0  0  0  0  0  0  0  0  0  0  0
  160.9620  205.0170  149.8450 C   0  0  0  0  0  0  0  0  0  0  0  0
  161.5470  208.3370  149.2570 C   0  0  0  0  0  0  0  0  0  0  0  0
  161.0890  207.2440  149.8810 C   0  0  0  0  0  0  0  0  0  0  0  0
  160.9020  204.7300  152.3830 C   0  0  0  0  0  3  0  0  0  0  0  0
  161.0650  202.0430  147.4980 C   0  0  0  0  0  0  0  0  0  0  0  0
  161.1180  200.9810  148.4040 C   0  0  0  0  0  3  0  0  0  0  0  0
  161.0120  203.6260  149.3430 C   0  0  0  0  0  0  0  0  0  0  0  0
  161.1210  201.2350  149.7770 C   0  0  0  0  0  3  0  0  0  0  0  0
  161.0130  203.3580  147.9660 C   0  0  0  0  0  3  0  0  0  0  0  0
  161.0690  202.5520  150.2440 C   0  0  0  0  0  3  0  0  0  0  0  0
  161.0630  201.7910  146.1320 O   0  0  0  0  0  1  0  0  0  0  0  0
  161.7780  211.8180  149.1500 N   0  0  0  0  0  0  0  0  0  0  0  0
  162.2190  210.6350  148.9970 N   0  0  0  0  0  0  0  0  0  0  0  0
  160.3680  214.2300  149.0140 O   0  0  0  0  0  0  0  0  0  0  0  0
  162.2000  212.8850  148.2570 C   0  0  2  0  0  3  0  0  0  0  0  0
  161.0710  213.8590  148.0370 C   0  0  0  0  0  0  0  0  0  0  0  0
  161.4670  213.9470  145.5930 C   0  0  0  0  0  2  0  0  0  0  0  0
  162.8470  213.3720  145.8780 C   0  0  0  0  0  2  0  0  0  0  0  0
  162.6990  212.2910  146.9380 C   0  0  0  0  0  2  0  0  0  0  0  0
  160.8720  214.4530  146.7860 O   0  0  0  0  0  0  0  0  0  0  0  0
  1 10  1  0  0  0  0
  2  6  1  0  0  0  0
  3  8  1  0  0  0  0
  4  9  1  0  0  0  0
  4 14  2  0  0  0  0
  6  5  2  0  0  0  0
  7 13  1  0  0  0  0
  8  2  1  0  0  0  0
  8  1  2  0  0  0  0
  9 16  1  0  0  0  0
 10  5  1  0  0  0  0
 11  3  1  0  0  0  0
 11 18  1  0  0  0  0
 12  1  1  0  0  0  0
 13  2  2  0  0  0  0
 14 15  1  0  0  0  0
 14 17  1  0  0  0  0
 15 11  2  0  0  0  0
 16  7  2  0  0  0  0
 16 17  1  0  0  0  0
 17  3  2  0  0  0  0
 18 12  2  0  0  0  0
 19 23  2  0  0  0  0
 19 20  1  0  0  0  0
 20 22  2  0  0  0  0
 21 15  1  0  0  0  0
 21 24  2  0  0  0  0
 22 24  1  0  0  0  0
 23 21  1  0  0  0  0
 25 19  1  0  0  0  0
 27 26  2  0  0  0  0
 27  7  1  0  0  0  0
 29 26  1  1  0  0  0
 30 29  1  0  0  0  0
 30 28  2  0  0  0  0
 31 32  1  0  0  0  0
 31 34  1  0  0  0  0
 32 33  1  0  0  0  0
 33 29  1  0  0  0  0
 34 30  1  0  0  0  0
M  END
>  <MODEL>
2

>  <REMARK>
 VINA RESULT:     -12.1      0.923      1.212
  Name = 
  3 active torsions:
  status: ('A' for Active; 'I' for Inactive)
    1  A    between atoms: N_3  and  C_13
    2  A    between atoms: C_10  and  N_17
    3  A    between atoms: C_12  and  C_28
                            x       y       z     vdW  Elec       q    Type
                         _______ _______ _______ _____ _____    ______ ____

>  <TORSDO>
F 3

$$$$
=
 OpenBabel11062408033D

 34 40  0  0  1  0  0  0  0  0999 V2000
  161.1840  205.0890  150.1430 C   0  0  0  0  0  0  0  0  0  0  0  0
  161.7090  206.9270  148.5750 C   0  0  0  0  0  0  0  0  0  0  0  0
  161.5690  207.2660  151.0170 C   0  0  0  0  0  0  0  0  0  0  0  0
  161.5860  210.5480  152.3620 C   0  0  0  0  0  3  0  0  0  0  0  0
  161.4180  204.6350  147.7820 C   0  0  0  0  0  3  0  0  0  0  0  0
  161.6790  205.9860  147.5370 C   0  0  0  0  0  3  0  0  0  0  0  0
  161.9150  209.5140  148.8440 C   0  0  0  0  0  0  0  0  0  0  0  0
  161.4950  206.4560  149.9010 C   0  0  1  0  0  3  0  0  0  0  0  0
  161.7580  210.8360  150.9570 O   0  0  0  0  0  0  0  0  0  0  0  0
  161.1590  204.1890  149.0780 C   0  0  0  0  0  3  0  0  0  0  0  0
  161.2420  206.8620  152.3000 C   0  0  0  0  0  0  0  0  0  0  0  0
  160.8820  204.6400  151.4510 C   0  0  0  0  0  3  0  0  0  0  0  0
  161.8820  208.2700  148.1620 C   0  0  0  0  0  3  0  0  0  0  0  0
  161.6740  209.0560  152.3640 C   0  0  0  0  0  0  0  0  0  0  0  0
  161.2670  207.9820  153.1610 C   0  0  0  0  0  0  0  0  0  0  0  0
  161.8630  209.6440  150.2290 C   0  0  0  0  0  0  0  0  0  0  0  0
  161.8580  208.6370  151.1110 C   0  0  0  0  0  0  0  0  0  0  0  0
  160.8890  205.5330  152.5410 C   0  0  0  0  0  3  0  0  0  0  0  0
  160.3990  209.3310  156.5940 C   0  0  0  0  0  0  0  0  0  0  0  0
  160.0210  208.1620  157.2610 C   0  0  0  0  0  3  0  0  0  0  0  0
  160.8410  208.0490  154.5760 C   0  0  0  0  0  0  0  0  0  0  0  0
  160.0510  206.9370  156.5900 C   0  0  0  0  0  3  0  0  0  0  0  0
  160.8050  209.2740  155.2590 C   0  0  0  0  0  3  0  0  0  0  0  0
  160.4580  206.8810  155.2540 C   0  0  0  0  0  3  0  0  0  0  0  0
  160.3690  210.5490  157.2600 O   0  0  0  0  0  1  0  0  0  0  0  0
  161.0130  211.5050  147.9390 N   0  0  0  0  0  0  0  0  0  0  0  0
  162.0050  210.7200  148.0790 N   0  0  0  0  0  0  0  0  0  0  0  0
  159.1110  212.1760  146.0010 O   0  0  0  0  0  0  0  0  0  0  0  0
  161.1390  212.7220  147.1540 C   0  0  2  0  0  3  0  0  0  0  0  0
  160.2810  212.6370  145.9190 C   0  0  0  0  0  0  0  0  0  0  0  0
  162.0820  213.5210  144.4650 C   0  0  0  0  0  2  0  0  0  0  0  0
  162.7420  214.0370  145.7350 C   0  0  0  0  0  2  0  0  0  0  0  0
  162.6100  212.9650  146.8060 C   0  0  0  0  0  2  0  0  0  0  0  0
  160.7180  213.1790  144.7050 O   0  0  0  0  0  0  0  0  0  0  0  0
  1 12  1  0  0  0  0
  3 17  2  0  0  0  0
  3 11  1  0  0  0  0
  4 14  2  0  0  0  0
  5 10  1  0  0  0  0
  6  5  2  0  0  0  0
  6  2  1  0  0  0  0
  7 16  2  0  0  0  0
  8  2  1  6  0  0  0
  8  1  1  0  0  0  0
  8  3  1  0  0  0  0
  9  4  1  0  0  0  0
 10  1  2  0  0  0  0
 11 18  1  0  0  0  0
 11 15  2  0  0  0  0
 12 18  2  0  0  0  0
 13  2  2  0  0  0  0
 13  7  1  0  0  0  0
 14 15  1  0  0  0  0
 15 21  1  0  0  0  0
 16  9  1  0  0  0  0
 16 17  1  0  0  0  0
 17 14  1  0  0  0  0
 19 25  1  0  0  0  0
 19 20  1  0  0  0  0
 21 24  2  0  0  0  0
 21 23  1  0  0  0  0
 22 20  2  0  0  0  0
 23 19  2  0  0  0  0
 24 22  1  0  0  0  0
 26 27  2  0  0  0  0
 27  7  1  0  0  0  0
 29 26  1  6  0  0  0
 30 28  2  0  0  0  0
 30 29  1  0  0  0  0
 31 34  1  0  0  0  0
 31 32  1  0  0  0  0
 32 33  1  0  0  0  0
 33 29  1  0  0  0  0
 34 30  1  0  0  0  0
M  END
>  <MODEL>
3

>  <REMARK>
 VINA RESULT:     -10.5      2.682      6.179
  Name = 
  3 active torsions:
  status: ('A' for Active; 'I' for Inactive)
    1  A    between atoms: N_3  and  C_13
    2  A    between atoms: C_10  and  N_17
    3  A    between atoms: C_12  and  C_28
                            x       y       z     vdW  Elec       q    Type
                         _______ _______ _______ _____ _____    ______ ____

>  <TORSDO>
F 3

$$$$
=
 OpenBabel11062408033D

 34 40  0  0  1  0  0  0  0  0999 V2000
  160.2280  209.6680  154.5080 C   0  0  0  0  0  0  0  0  0  0  0  0
  160.8900  207.3770  153.8580 C   0  0  0  0  0  0  0  0  0  0  0  0
  161.2340  209.3260  152.3810 C   0  0  0  0  0  0  0  0  0  0  0  0
  162.2120  208.8490  149.0050 C   0  0  0  0  0  3  0  0  0  0  0  0
  159.9630  207.8450  156.0690 C   0  0  0  0  0  3  0  0  0  0  0  0
  160.4780  206.9490  155.1270 C   0  0  0  0  0  3  0  0  0  0  0  0
  161.7170  206.3100  151.6250 C   0  0  0  0  0  0  0  0  0  0  0  0
  160.7970  208.7660  153.5660 C   0  0  0  0  0  0  0  0  0  0  0  0
  162.2120  207.4840  149.4770 O   0  0  0  0  0  0  0  0  0  0  0  0
  159.8260  209.1970  155.7570 C   0  0  0  0  0  2  0  0  0  0  0  0
  161.0400  210.6480  152.0220 C   0  0  0  0  0  0  0  0  0  0  0  0
  160.0520  211.0340  154.1810 C   0  0  0  0  0  3  0  0  0  0  0  0
  161.2920  206.3430  152.9780 C   0  0  0  0  0  3  0  0  0  0  0  0
  161.9600  209.5940  150.2760 C   0  0  0  0  0  0  0  0  0  0  0  0
  161.4580  210.8320  150.6840 C   0  0  0  0  0  0  0  0  0  0  0  0
  161.9240  207.4460  150.8470 C   0  0  0  0  0  0  0  0  0  0  0  0
  161.8360  208.7130  151.2710 C   0  0  0  0  0  0  0  0  0  0  0  0
  160.4400  211.5320  152.9200 C   0  0  0  0  0  3  0  0  0  0  0  0
  161.8830  213.3340  147.8690 C   0  0  0  0  0  0  0  0  0  0  0  0
  160.9730  214.3260  148.2440 C   0  0  0  0  0  3  0  0  0  0  0  0
  161.2970  212.0370  149.8410 C   0  0  0  0  0  0  0  0  0  0  0  0
  160.2230  214.1780  149.4130 C   0  0  0  0  0  3  0  0  0  0  0  0
  162.0420  212.1960  148.6630 C   0  0  0  0  0  3  0  0  0  0  0  0
  160.3840  213.0380  150.2070 C   0  0  0  0  0  3  0  0  0  0  0  0
  162.6290  213.4800  146.7070 O   0  0  0  0  0  1  0  0  0  0  0  0
  161.2590  204.6410  150.0130 N   0  0  0  0  0  0  0  0  0  0  0  0
  161.9500  205.0430  151.0030 N   0  0  0  0  0  0  0  0  0  0  0  0
  162.1670  204.4420  147.3750 O   0  0  0  0  0  0  0  0  0  0  0  0
  161.5230  203.3460  149.4060 C   0  0  2  0  0  3  0  0  0  0  0  0
  161.5620  203.4730  147.9050 C   0  0  0  0  0  0  0  0  0  0  0  0
  160.1650  201.4520  147.5820 C   0  0  0  0  0  2  0  0  0  0  0  0
  160.5240  201.0750  149.0110 C   0  0  0  0  0  2  0  0  0  0  0  0
  160.4690  202.3350  149.8620 C   0  0  0  0  0  2  0  0  0  0  0  0
  161.0420  202.4630  147.0880 O   0  0  0  0  0  0  0  0  0  0  0  0
  1 10  1  0  0  0  0
  2  6  1  0  0  0  0
  3  8  1  0  0  0  0
  4  9  1  0  0  0  0
  4 14  2  0  0  0  0
  6  5  2  0  0  0  0
  7 13  1  0  0  0  0
  8  2  1  0  0  0  0
  8  1  2  0  0  0  0
  9 16  1  0  0  0  0
 10  5  1  0  0  0  0
 11  3  1  0  0  0  0
 11 18  1  0  0  0  0
 12  1  1  0  0  0  0
 13  2  2  0  0  0  0
 14 15  1  0  0  0  0
 14 17  1  0  0  0  0
 15 11  2  0  0  0  0
 16 17  1  0  0  0  0
 16  7  2  0  0  0  0
 17  3  2  0  0  0  0
 18 12  2  0  0  0  0
 19 20  2  0  0  0  0
 19 23  1  0  0  0  0
 20 22  1  0  0  0  0
 21 24  1  0  0  0  0
 21 15  1  0  0  0  0
 22 24  2  0  0  0  0
 23 21  2  0  0  0  0
 25 19  1  0  0  0  0
 26 27  2  0  0  0  0
 27  7  1  0  0  0  0
 28 30  2  0  0  0  0
 29 33  1  0  0  0  0
 29 26  1  1  0  0  0
 30 29  1  0  0  0  0
 31 32  1  0  0  0  0
 32 33  1  0  0  0  0
 34 31  1  0  0  0  0
 34 30  1  0  0  0  0
M  END
>  <MODEL>
4

>  <REMARK>
 VINA RESULT:      -9.7      2.145      8.064
  Name = 
  3 active torsions:
  status: ('A' for Active; 'I' for Inactive)
    1  A    between atoms: N_3  and  C_13
    2  A    between atoms: C_10  and  N_17
    3  A    between atoms: C_12  and  C_28
                            x       y       z     vdW  Elec       q    Type
                         _______ _______ _______ _____ _____    ______ ____

>  <TORSDO>
F 3

$$$$
=
 OpenBabel11062408033D

 34 40  0  0  1  0  0  0  0  0999 V2000
  161.1870  208.8320  153.6490 C   0  0  0  0  0  0  0  0  0  0  0  0
  161.1910  206.5510  152.6950 C   0  0  0  0  0  0  0  0  0  0  0  0
  161.7150  208.5530  151.3480 C   0  0  0  0  0  0  0  0  0  0  0  0
  161.9750  208.3050  147.8190 C   0  0  0  0  0  3  0  0  0  0  0  0
  160.7810  206.9250  155.0740 C   0  0  0  0  0  3  0  0  0  0  0  0
  160.9120  206.0650  153.9790 C   0  0  0  0  0  3  0  0  0  0  0  0
  161.3640  205.6210  150.2640 C   0  0  0  0  0  0  0  0  0  0  0  0
  161.3680  207.9550  152.5430 C   0  0  0  0  0  0  0  0  0  0  0  0
  161.7440  206.9220  148.1660 O   0  0  0  0  0  0  0  0  0  0  0  0
  160.9050  208.3030  154.9080 C   0  0  0  0  0  2  0  0  0  0  0  0
  161.7700  209.9200  151.1440 C   0  0  0  0  0  0  0  0  0  0  0  0
  161.2750  210.2330  153.4770 C   0  0  0  0  0  3  0  0  0  0  0  0
  161.1920  205.5730  151.6710 C   0  0  0  0  0  3  0  0  0  0  0  0
  162.1180  208.9220  149.1720 C   0  0  0  0  0  0  0  0  0  0  0  0
  161.9870  210.1780  149.7720 C   0  0  0  0  0  0  0  0  0  0  0  0
  161.6900  206.7760  149.5580 C   0  0  0  0  0  0  0  0  0  0  0  0
  161.9660  207.9700  150.0950 C   0  0  0  0  0  0  0  0  0  0  0  0
  161.5480  210.7920  152.2120 C   0  0  0  0  0  3  0  0  0  0  0  0
  160.8640  213.5940  148.5730 C   0  0  0  0  0  0  0  0  0  0  0  0
  161.9410  213.9680  147.7650 C   0  0  0  0  0  3  0  0  0  0  0  0
  161.9650  211.4850  149.0790 C   0  0  0  0  0  0  0  0  0  0  0  0
  163.0310  213.1070  147.6120 C   0  0  0  0  0  3  0  0  0  0  0  0
  160.8780  212.3590  149.2260 C   0  0  0  0  0  3  0  0  0  0  0  0
  163.0420  211.8720  148.2670 C   0  0  0  0  0  3  0  0  0  0  0  0
  159.7810  214.4490  148.7250 O   0  0  0  0  0  1  0  0  0  0  0  0
  160.3170  203.5480  149.8090 N   0  0  0  0  0  0  0  0  0  0  0  0
  161.1930  204.4190  149.5040 N   0  0  0  0  0  0  0  0  0  0  0  0
  160.8110  201.0280  150.9170 O   0  0  0  0  0  0  0  0  0  0  0  0
  160.1720  202.3380  149.0160 C   0  0  2  0  0  3  0  0  0  0  0  0
  160.9010  201.1950  149.6720 C   0  0  0  0  0  0  0  0  0  0  0  0
  161.9070  200.4570  147.5310 C   0  0  0  0  0  2  0  0  0  0  0  0
  160.8310  201.2770  146.8360 C   0  0  0  0  0  2  0  0  0  0  0  0
  160.6730  202.5880  147.5920 C   0  0  0  0  0  2  0  0  0  0  0  0
  161.5750  200.2400  148.9010 O   0  0  0  0  0  0  0  0  0  0  0  0
  1 10  1  0  0  0  0
  2  6  1  0  0  0  0
  3  8  1  0  0  0  0
  4  9  1  0  0  0  0
  4 14  2  0  0  0  0
  6  5  2  0  0  0  0
  7 13  1  0  0  0  0
  8  2  1  0  0  0  0
  8  1  2  0  0  0  0
  9 16  1  0  0  0  0
 10  5  1  0  0  0  0
 11  3  1  0  0  0  0
 11 18  1  0  0  0  0
 12  1  1  0  0  0  0
 13  2  2  0  0  0  0
 14 15  1  0  0  0  0
 14 17  1  0  0  0  0
 15 11  2  0  0  0  0
 16 17  1  0  0  0  0
 16  7  2  0  0  0  0
 17  3  2  0  0  0  0
 18 12  2  0  0  0  0
 19 25  1  0  0  0  0
 19 23  1  0  0  0  0
 20 19  2  0  0  0  0
 21 23  2  0  0  0  0
 21 15  1  0  0  0  0
 22 20  1  0  0  0  0
 22 24  2  0  0  0  0
 24 21  1  0  0  0  0
 27 26  2  0  0  0  0
 27  7  1  0  0  0  0
 29 30  1  0  0  0  0
 29 26  1  1  0  0  0
 30 28  2  0  0  0  0
 31 34  1  0  0  0  0
 32 31  1  0  0  0  0
 32 33  1  0  0  0  0
 33 29  1  0  0  0  0
 34 30  1  0  0  0  0
M  END
>  <MODEL>
5

>  <REMARK>
 VINA RESULT:      -9.5      2.207      8.207
  Name = 
  3 active torsions:
  status: ('A' for Active; 'I' for Inactive)
    1  A    between atoms: N_3  and  C_13
    2  A    between atoms: C_10  and  N_17
    3  A    between atoms: C_12  and  C_28
                            x       y       z     vdW  Elec       q    Type
                         _______ _______ _______ _____ _____    ______ ____

>  <TORSDO>
F 3

$$$$
=
 OpenBabel11062408033D

 34 40  0  0  1  0  0  0  0  0999 V2000
  162.0750  208.9290  148.6410 C   0  0  0  0  0  0  0  0  0  0  0  0
  161.7510  210.1800  150.7490 C   0  0  0  0  0  0  0  0  0  0  0  0
  161.8010  207.7120  150.6650 C   0  0  0  0  0  0  0  0  0  0  0  0
  160.8640  205.8160  153.5130 C   0  0  0  0  0  3  0  0  0  0  0  0
  162.1620  211.3420  148.6410 C   0  0  0  0  0  3  0  0  0  0  0  0
  161.9170  211.3620  150.0170 C   0  0  0  0  0  3  0  0  0  0  0  0
  161.0970  209.4740  153.1740 C   0  0  0  0  0  0  0  0  0  0  0  0
  161.8720  208.9460  150.0490 C   0  0  0  0  0  0  0  0  0  0  0  0
  160.7570  207.1570  154.0400 O   0  0  0  0  0  0  0  0  0  0  0  0
  162.2290  210.1310  147.9530 C   0  0  0  0  0  3  0  0  0  0  0  0
  161.7880  206.5020  149.9940 C   0  0  0  0  0  0  0  0  0  0  0  0
  162.1040  207.7040  147.9340 C   0  0  0  0  0  3  0  0  0  0  0  0
  161.4050  210.3600  152.1110 C   0  0  0  0  0  2  0  0  0  0  0  0
  161.4530  206.0810  152.1650 C   0  0  0  0  0  0  0  0  0  0  0  0
  161.5340  205.4610  150.9150 C   0  0  0  0  0  0  0  0  0  0  0  0
  161.1710  208.0880  153.0790 C   0  0  0  0  0  0  0  0  0  0  0  0
  161.6160  207.3980  152.0210 C   0  0  0  0  0  0  0  0  0  0  0  0
  161.9390  206.4750  148.6060 C   0  0  0  0  0  3  0  0  0  0  0  0
  160.6780  202.2630  149.0700 C   0  0  0  0  0  0  0  0  0  0  0  0
  160.8270  201.3130  150.0850 C   0  0  0  0  0  3  0  0  0  0  0  0
  161.2860  204.0320  150.6250 C   0  0  0  0  0  0  0  0  0  0  0  0
  161.2060  201.7170  151.3680 C   0  0  0  0  0  3  0  0  0  0  0  0
  160.9080  203.6140  149.3400 C   0  0  0  0  0  3  0  0  0  0  0  0
  161.4350  203.0700  151.6350 C   0  0  0  0  0  3  0  0  0  0  0  0
  160.3020  201.8630  147.7950 O   0  0  0  0  0  1  0  0  0  0  0  0
  159.7290  210.8630  154.5150 N   0  0  0  0  0  0  0  0  0  0  0  0
  160.6780  210.0200  154.4300 N   0  0  0  0  0  0  0  0  0  0  0  0
  157.0760  210.7030  155.3860 O   0  0  0  0  0  0  0  0  0  0  0  0
  159.3300  211.3980  155.8070 C   0  0  2  0  0  3  0  0  0  0  0  0
  157.8370  211.5920  155.8520 C   0  0  0  0  0  0  0  0  0  0  0  0
  158.0440  213.8370  156.8780 C   0  0  0  0  0  2  0  0  0  0  0  0
  159.4630  213.4430  157.2590 C   0  0  0  0  0  2  0  0  0  0  0  0
  160.0800  212.7030  156.0830 C   0  0  0  0  0  2  0  0  0  0  0  0
  157.2780  212.6910  156.5150 O   0  0  0  0  0  0  0  0  0  0  0  0
  1  8  1  0  0  0  0
  2 13  1  0  0  0  0
  3 17  2  0  0  0  0
  4  9  1  0  0  0  0
  5  6  2  0  0  0  0
  6  2  1  0  0  0  0
  7 27  1  0  0  0  0
  8  3  1  0  0  0  0
  8  2  2  0  0  0  0
 10  1  2  0  0  0  0
 10  5  1  0  0  0  0
 11  3  1  0  0  0  0
 11 15  2  0  0  0  0
 12 18  2  0  0  0  0
 12  1  1  0  0  0  0
 13  7  1  0  0  0  0
 14  4  2  0  0  0  0
 15 14  1  0  0  0  0
 16  7  2  0  0  0  0
 16  9  1  0  0  0  0
 17 14  1  0  0  0  0
 17 16  1  0  0  0  0
 18 11  1  0  0  0  0
 19 23  2  0  0  0  0
 19 20  1  0  0  0  0
 20 22  2  0  0  0  0
 21 15  1  0  0  0  0
 21 24  2  0  0  0  0
 22 24  1  0  0  0  0
 23 21  1  0  0  0  0
 25 19  1  0  0  0  0
 27 26  2  0  0  0  0
 28 30  2  0  0  0  0
 29 26  1  6  0  0  0
 29 30  1  0  0  0  0
 29 33  1  0  0  0  0
 30 34  1  0  0  0  0
 31 32  1  0  0  0  0
 33 32  1  0  0  0  0
 34 31  1  0  0  0  0
M  END
>  <MODEL>
6

>  <REMARK>
 VINA RESULT:      -9.4      3.547      5.759
  Name = 
  3 active torsions:
  status: ('A' for Active; 'I' for Inactive)
    1  A    between atoms: N_3  and  C_13
    2  A    between atoms: C_10  and  N_17
    3  A    between atoms: C_12  and  C_28
                            x       y       z     vdW  Elec       q    Type
                         _______ _______ _______ _____ _____    ______ ____

>  <TORSDO>
F 3

$$$$
