=
 OpenBabel11052422173D

 25 28  0  0  1  0  0  0  0  0999 V2000
  161.1100  202.9240  147.8330 C   0  0  0  0  0  0  0  0  0  0  0  0
  161.0400  203.7750  148.9430 C   0  0  0  0  0  0  0  0  0  0  0  0
  160.9560  201.0400  149.2650 C   0  0  0  0  0  3  0  0  0  0  0  0
  160.8960  201.8490  150.3560 N   0  0  0  0  0  0  0  0  0  0  0  0
  160.8740  204.0510  151.3300 C   0  0  0  0  0  0  0  0  0  0  0  0
  160.7510  203.4120  152.9600 Cl  0  0  0  0  0  0  0  0  0  0  0  0
  161.0740  205.1270  148.8090 N   0  0  0  0  0  0  0  0  0  0  0  0
  161.0620  201.5760  148.0210 N   0  0  0  0  0  0  0  0  0  0  0  0
  160.9150  205.3970  151.1450 N   0  0  0  0  0  0  0  0  0  0  0  0
  161.0060  205.9350  149.9000 C   0  0  0  0  0  0  0  0  0  0  0  0
  160.9350  203.2000  150.2200 C   0  0  0  0  0  0  0  0  0  0  0  0
  161.2220  203.4820  146.4440 C   0  0  1  0  0  3  0  0  0  0  0  0
  160.6370  206.0740  145.4470 C   0  0  0  0  0  1  0  0  0  0  0  0
  162.4190  204.4330  146.3470 C   0  0  2  0  0  3  0  0  0  0  0  0
  162.0940  205.8410  145.8270 C   0  0  1  0  0  3  0  0  0  0  0  0
  162.6850  204.7980  144.8990 C   0  0  0  0  0  2  0  0  0  0  0  0
  161.3650  202.4390  145.5250 O   0  0  0  0  0  0  0  0  0  0  0  0
  160.0880  202.2520  144.9930 C   0  0  0  0  0  1  0  0  0  0  0  0
  161.0760  207.4110  149.7330 C   0  0  0  0  0  2  0  0  0  0  0  0
  162.3460  207.9470  150.3960 C   0  0  0  0  0  2  0  0  0  0  0  0
  162.0900  209.0850  151.2850 N   0  0  0  0  0  0  0  0  0  0  0  0
  162.0410  210.2120  150.5320 O   0  0  0  0  0  1  0  0  0  0  0  0
  160.7920  208.9190  151.9270 C   0  0  0  0  0  3  0  0  0  0  0  0
  160.4280  210.1910  152.6700 C   0  0  0  0  0  2  0  0  0  0  0  0
  160.9580  208.9980  153.4340 C   0  0  0  0  0  2  0  0  0  0  0  0
  1  8  2  0  0  0  0
  1  2  1  0  0  0  0
  2 11  2  0  0  0  0
  3  4  2  0  0  0  0
  5  6  1  0  0  0  0
  7  2  1  0  0  0  0
  7 10  2  0  0  0  0
  8  3  1  0  0  0  0
  9  5  2  0  0  0  0
 10  9  1  0  0  0  0
 11  4  1  0  0  0  0
 11  5  1  0  0  0  0
 12 17  1  6  0  0  0
 12  1  1  0  0  0  0
 14 12  1  6  0  0  0
 15 13  1  6  0  0  0
 15 14  1  0  0  0  0
 16 15  1  0  0  0  0
 16 14  1  0  0  0  0
 18 17  1  0  0  0  0
 19 10  1  0  0  0  0
 19 20  1  0  0  0  0
 20 21  1  0  0  0  0
 21 23  1  0  0  0  0
 22 21  1  0  0  0  0
 23 24  1  0  0  0  0
 23 25  1  0  0  0  0
 24 25  1  0  0  0  0
M  END
>  <MODEL>
1

>  <REMARK>
 VINA RESULT:      -7.6      0.000      0.000
  Name = 
  7 active torsions:
  status: ('A' for Active; 'I' for Inactive)
    1  A    between atoms: C_1  and  C_5
    2  A    between atoms: C_2  and  N_21
    3  A    between atoms: C_5  and  C_10
    4  A    between atoms: C_5  and  O_17
    5  A    between atoms: C_6  and  C_15
    6  A    between atoms: C_6  and  C_23
    7  A    between atoms: C_15  and  N_21
                            x       y       z     vdW  Elec       q    Type
                         _______ _______ _______ _____ _____    ______ ____

>  <TORSDO>
F 7

$$$$
=
 OpenBabel11052422173D

 25 28  0  0  1  0  0  0  0  0999 V2000
  161.2520  204.4480  149.0090 C   0  0  0  0  0  0  0  0  0  0  0  0
  161.3340  205.7330  149.5590 C   0  0  0  0  0  0  0  0  0  0  0  0
  160.7530  203.5610  151.1510 C   0  0  0  0  0  3  0  0  0  0  0  0
  160.8360  204.8000  151.7060 N   0  0  0  0  0  0  0  0  0  0  0  0
  161.2120  207.1680  151.4890 C   0  0  0  0  0  0  0  0  0  0  0  0
  160.9690  207.4410  153.2060 Cl  0  0  0  0  0  0  0  0  0  0  0  0
  161.6130  206.8210  148.7930 N   0  0  0  0  0  0  0  0  0  0  0  0
  160.9580  203.3930  149.8190 N   0  0  0  0  0  0  0  0  0  0  0  0
  161.4980  208.2240  150.6830 N   0  0  0  0  0  0  0  0  0  0  0  0
  161.6900  208.0600  149.3470 C   0  0  0  0  0  0  0  0  0  0  0  0
  161.1210  205.8840  150.9390 C   0  0  0  0  0  0  0  0  0  0  0  0
  161.4680  204.2260  147.5410 C   0  0  1  0  0  3  0  0  0  0  0  0
  160.9300  205.4190  145.0220 C   0  0  0  0  0  1  0  0  0  0  0  0
  162.5560  205.1670  147.0140 C   0  0  2  0  0  3  0  0  0  0  0  0
  162.2510  205.8260  145.6620 C   0  0  1  0  0  3  0  0  0  0  0  0
  163.1580  204.6140  145.7370 C   0  0  0  0  0  2  0  0  0  0  0  0
  161.8350  202.8970  147.3120 O   0  0  0  0  0  0  0  0  0  0  0  0
  160.7090  202.3090  146.7320 C   0  0  0  0  0  1  0  0  0  0  0  0
  162.0280  209.2310  148.4960 C   0  0  0  0  0  2  0  0  0  0  0  0
  162.0310  210.5030  149.3450 C   0  0  0  0  0  2  0  0  0  0  0  0
  161.6780  211.7030  148.5790 N   0  0  0  0  0  0  0  0  0  0  0  0
  161.1280  212.6050  149.4300 O   0  0  0  0  0  1  0  0  0  0  0  0
  162.8850  212.2960  148.0180 C   0  0  0  0  0  3  0  0  0  0  0  0
  162.7090  213.7990  147.9120 C   0  0  0  0  0  2  0  0  0  0  0  0
  162.5610  212.9350  146.6800 C   0  0  0  0  0  2  0  0  0  0  0  0
  1  2  2  0  0  0  0
  1  8  1  0  0  0  0
  2 11  1  0  0  0  0
  3  4  1  0  0  0  0
  5  6  1  0  0  0  0
  7 10  2  0  0  0  0
  7  2  1  0  0  0  0
  8  3  2  0  0  0  0
  9  5  2  0  0  0  0
 10  9  1  0  0  0  0
 11  5  1  0  0  0  0
 11  4  2  0  0  0  0
 12 17  1  1  0  0  0
 12  1  1  0  0  0  0
 14 12  1  6  0  0  0
 15 13  1  6  0  0  0
 15 16  1  0  0  0  0
 15 14  1  0  0  0  0
 16 14  1  0  0  0  0
 18 17  1  0  0  0  0
 19 20  1  0  0  0  0
 19 10  1  0  0  0  0
 21 20  1  0  0  0  0
 21 22  1  0  0  0  0
 23 21  1  0  0  0  0
 24 23  1  0  0  0  0
 25 24  1  0  0  0  0
 25 23  1  0  0  0  0
M  END
>  <MODEL>
2

>  <REMARK>
 VINA RESULT:      -6.8      2.681      3.279
  Name = 
  7 active torsions:
  status: ('A' for Active; 'I' for Inactive)
    1  A    between atoms: C_1  and  C_5
    2  A    between atoms: C_2  and  N_21
    3  A    between atoms: C_5  and  C_10
    4  A    between atoms: C_5  and  O_17
    5  A    between atoms: C_6  and  C_15
    6  A    between atoms: C_6  and  C_23
    7  A    between atoms: C_15  and  N_21
                            x       y       z     vdW  Elec       q    Type
                         _______ _______ _______ _____ _____    ______ ____

>  <TORSDO>
F 7

$$$$
=
 OpenBabel11052422173D

 25 28  0  0  1  0  0  0  0  0999 V2000
  161.0510  207.8580  152.8590 C   0  0  0  0  0  0  0  0  0  0  0  0
  161.1070  207.0470  151.7190 C   0  0  0  0  0  0  0  0  0  0  0  0
  161.1510  205.9310  154.2370 C   0  0  0  0  0  3  0  0  0  0  0  0
  161.1980  205.1260  153.1430 N   0  0  0  0  0  0  0  0  0  0  0  0
  161.2250  204.8450  150.7520 C   0  0  0  0  0  0  0  0  0  0  0  0
  161.3050  203.0960  150.8810 Cl  0  0  0  0  0  0  0  0  0  0  0  0
  161.0940  207.5750  150.4660 N   0  0  0  0  0  0  0  0  0  0  0  0
  161.0790  207.2800  154.0910 N   0  0  0  0  0  0  0  0  0  0  0  0
  161.2050  205.4190  149.5200 N   0  0  0  0  0  0  0  0  0  0  0  0
  161.1480  206.7690  149.3720 C   0  0  0  0  0  0  0  0  0  0  0  0
  161.1780  205.6550  151.8920 C   0  0  0  0  0  0  0  0  0  0  0  0
  160.9760  209.3520  152.7350 C   0  0  1  0  0  3  0  0  0  0  0  0
  158.9270  211.2940  152.4380 C   0  0  0  0  0  1  0  0  0  0  0  0
  160.4630  209.9690  154.0400 C   0  0  2  0  0  3  0  0  0  0  0  0
  159.3400  211.0030  153.8760 C   0  0  1  0  0  3  0  0  0  0  0  0
  160.7740  211.4530  154.0790 C   0  0  0  0  0  2  0  0  0  0  0  0
  162.2390  209.8660  152.4290 O   0  0  0  0  0  0  0  0  0  0  0  0
  162.1240  210.3410  151.1200 C   0  0  0  0  0  1  0  0  0  0  0  0
  161.0990  207.3660  148.0110 C   0  0  0  0  0  2  0  0  0  0  0  0
  161.8800  206.4860  147.0330 C   0  0  0  0  0  2  0  0  0  0  0  0
  161.0280  205.5240  146.3260 N   0  0  0  0  0  0  0  0  0  0  0  0
  160.4980  206.1400  145.2400 O   0  0  0  0  0  1  0  0  0  0  0  0
  161.8410  204.4080  145.8540 C   0  0  0  0  0  3  0  0  0  0  0  0
  160.9520  203.3880  145.1680 C   0  0  0  0  0  2  0  0  0  0  0  0
  161.4320  203.1400  146.5810 C   0  0  0  0  0  2  0  0  0  0  0  0
  1  8  1  0  0  0  0
  2 11  1  0  0  0  0
  2  1  2  0  0  0  0
  4  3  1  0  0  0  0
  5  6  1  0  0  0  0
  5 11  1  0  0  0  0
  7  2  1  0  0  0  0
  8  3  2  0  0  0  0
  9  5  2  0  0  0  0
 10  9  1  0  0  0  0
 10  7  2  0  0  0  0
 11  4  2  0  0  0  0
 12 17  1  1  0  0  0
 12  1  1  0  0  0  0
 14 12  1  6  0  0  0
 14 16  1  0  0  0  0
 15 13  1  6  0  0  0
 15 14  1  0  0  0  0
 15 16  1  0  0  0  0
 18 17  1  0  0  0  0
 19 10  1  0  0  0  0
 20 19  1  0  0  0  0
 21 20  1  0  0  0  0
 22 21  1  0  0  0  0
 23 21  1  0  0  0  0
 23 25  1  0  0  0  0
 24 23  1  0  0  0  0
 24 25  1  0  0  0  0
M  END
>  <MODEL>
3

>  <REMARK>
 VINA RESULT:      -6.8      2.017      7.114
  Name = 
  7 active torsions:
  status: ('A' for Active; 'I' for Inactive)
    1  A    between atoms: C_1  and  C_5
    2  A    between atoms: C_2  and  N_21
    3  A    between atoms: C_5  and  C_10
    4  A    between atoms: C_5  and  O_17
    5  A    between atoms: C_6  and  C_15
    6  A    between atoms: C_6  and  C_23
    7  A    between atoms: C_15  and  N_21
                            x       y       z     vdW  Elec       q    Type
                         _______ _______ _______ _____ _____    ______ ____

>  <TORSDO>
F 7

$$$$
=
 OpenBabel11052422173D

 25 28  0  0  1  0  0  0  0  0999 V2000
  160.6960  208.8940  153.6400 C   0  0  0  0  0  0  0  0  0  0  0  0
  160.9880  208.0430  152.5670 C   0  0  0  0  0  0  0  0  0  0  0  0
  160.6160  207.0270  155.1010 C   0  0  0  0  0  3  0  0  0  0  0  0
  160.8900  206.1840  154.0710 N   0  0  0  0  0  0  0  0  0  0  0  0
  161.3620  205.8130  151.7390 C   0  0  0  0  0  0  0  0  0  0  0  0
  161.4820  204.0760  151.9610 Cl  0  0  0  0  0  0  0  0  0  0  0  0
  161.1820  208.5220  151.3090 N   0  0  0  0  0  0  0  0  0  0  0  0
  160.5210  208.3650  154.8830 N   0  0  0  0  0  0  0  0  0  0  0  0
  161.5440  206.3380  150.4980 N   0  0  0  0  0  0  0  0  0  0  0  0
  161.4640  207.6780  150.2810 C   0  0  0  0  0  0  0  0  0  0  0  0
  161.0780  206.6630  152.8140 C   0  0  0  0  0  0  0  0  0  0  0  0
  160.5890  210.3770  153.4370 C   0  0  1  0  0  3  0  0  0  0  0  0
  160.1230  212.4990  151.6100 C   0  0  0  0  0  1  0  0  0  0  0  0
  159.1230  210.7880  153.2670 C   0  0  2  0  0  3  0  0  0  0  0  0
  158.8740  211.9210  152.2620 C   0  0  1  0  0  3  0  0  0  0  0  0
  158.9150  212.2100  153.7490 C   0  0  0  0  0  2  0  0  0  0  0  0
  161.1480  211.0460  154.5290 O   0  0  0  0  0  0  0  0  0  0  0  0
  162.4990  210.6930  154.5120 C   0  0  0  0  0  1  0  0  0  0  0  0
  161.6410  208.2190  148.9080 C   0  0  0  0  0  2  0  0  0  0  0  0
  162.3830  207.2000  148.0420 C   0  0  0  0  0  2  0  0  0  0  0  0
  161.4980  206.1700  147.4880 N   0  0  0  0  0  0  0  0  0  0  0  0
  160.9630  206.6420  146.3340 O   0  0  0  0  0  1  0  0  0  0  0  0
  162.2770  204.9800  147.1650 C   0  0  0  0  0  3  0  0  0  0  0  0
  161.4600  204.0670  146.2710 C   0  0  0  0  0  2  0  0  0  0  0  0
  161.5950  203.7550  147.7450 C   0  0  0  0  0  2  0  0  0  0  0  0
  1  8  1  0  0  0  0
  2 11  1  0  0  0  0
  2  1  2  0  0  0  0
  4  3  1  0  0  0  0
  5  6  1  0  0  0  0
  5 11  1  0  0  0  0
  7  2  1  0  0  0  0
  8  3  2  0  0  0  0
  9  5  2  0  0  0  0
 10  9  1  0  0  0  0
 10  7  2  0  0  0  0
 11  4  2  0  0  0  0
 12  1  1  0  0  0  0
 12 17  1  1  0  0  0
 14 12  1  6  0  0  0
 14 16  1  0  0  0  0
 15 13  1  6  0  0  0
 15 14  1  0  0  0  0
 15 16  1  0  0  0  0
 18 17  1  0  0  0  0
 19 10  1  0  0  0  0
 20 19  1  0  0  0  0
 21 20  1  0  0  0  0
 22 21  1  0  0  0  0
 23 21  1  0  0  0  0
 23 25  1  0  0  0  0
 24 23  1  0  0  0  0
 24 25  1  0  0  0  0
M  END
>  <MODEL>
4

>  <REMARK>
 VINA RESULT:      -6.7      2.332      7.540
  Name = 
  7 active torsions:
  status: ('A' for Active; 'I' for Inactive)
    1  A    between atoms: C_1  and  C_5
    2  A    between atoms: C_2  and  N_21
    3  A    between atoms: C_5  and  C_10
    4  A    between atoms: C_5  and  O_17
    5  A    between atoms: C_6  and  C_15
    6  A    between atoms: C_6  and  C_23
    7  A    between atoms: C_15  and  N_21
                            x       y       z     vdW  Elec       q    Type
                         _______ _______ _______ _____ _____    ______ ____

>  <TORSDO>
F 7

$$$$
=
 OpenBabel11052422173D

 25 28  0  0  1  0  0  0  0  0999 V2000
  161.2100  202.7690  148.1590 C   0  0  0  0  0  0  0  0  0  0  0  0
  161.4180  203.9950  147.5170 C   0  0  0  0  0  0  0  0  0  0  0  0
  160.7080  201.7600  146.0720 C   0  0  0  0  0  3  0  0  0  0  0  0
  160.8970  202.9440  145.4320 N   0  0  0  0  0  0  0  0  0  0  0  0
  161.4480  205.2870  145.4860 C   0  0  0  0  0  0  0  0  0  0  0  0
  161.2470  205.4530  143.7500 Cl  0  0  0  0  0  0  0  0  0  0  0  0
  161.7750  205.1110  148.2090 N   0  0  0  0  0  0  0  0  0  0  0  0
  160.8640  201.6790  147.4190 N   0  0  0  0  0  0  0  0  0  0  0  0
  161.8010  206.3760  146.2200 N   0  0  0  0  0  0  0  0  0  0  0  0
  161.9710  206.2930  147.5670 C   0  0  0  0  0  0  0  0  0  0  0  0
  161.2480  204.0590  146.1250 C   0  0  0  0  0  0  0  0  0  0  0  0
  161.3780  202.6400  149.6450 C   0  0  1  0  0  3  0  0  0  0  0  0
  162.3310  204.6900  151.3620 C   0  0  0  0  0  1  0  0  0  0  0  0
  160.2960  203.4410  150.3750 C   0  0  2  0  0  3  0  0  0  0  0  0
  160.8150  204.5630  151.2860 C   0  0  1  0  0  3  0  0  0  0  0  0
  160.4010  203.2270  151.8720 C   0  0  0  0  0  2  0  0  0  0  0  0
  161.3080  201.2950  150.0150 O   0  0  0  0  0  0  0  0  0  0  0  0
  159.9610  200.9530  149.8700 C   0  0  0  0  0  1  0  0  0  0  0  0
  162.3310  207.5070  148.3460 C   0  0  0  0  0  2  0  0  0  0  0  0
  161.2910  207.7430  149.4430 C   0  0  0  0  0  2  0  0  0  0  0  0
  161.8690  208.3120  150.6640 N   0  0  0  0  0  0  0  0  0  0  0  0
  162.3310  209.5550  150.3800 O   0  0  0  0  0  1  0  0  0  0  0  0
  160.8310  208.4430  151.6800 C   0  0  0  0  0  3  0  0  0  0  0  0
  161.3460  209.2950  152.8240 C   0  0  0  0  0  2  0  0  0  0  0  0
  161.2970  207.7900  152.9690 C   0  0  0  0  0  2  0  0  0  0  0  0
  1 12  1  0  0  0  0
  2  1  1  0  0  0  0
  2  7  1  0  0  0  0
  3  8  1  0  0  0  0
  4  3  2  0  0  0  0
  4 11  1  0  0  0  0
  5 11  1  0  0  0  0
  5  9  2  0  0  0  0
  6  5  1  0  0  0  0
  8  1  2  0  0  0  0
  9 10  1  0  0  0  0
 10  7  2  0  0  0  0
 10 19  1  0  0  0  0
 11  2  2  0  0  0  0
 12 17  1  6  0  0  0
 14 12  1  6  0  0  0
 14 15  1  0  0  0  0
 14 16  1  0  0  0  0
 15 13  1  6  0  0  0
 15 16  1  0  0  0  0
 18 17  1  0  0  0  0
 19 20  1  0  0  0  0
 20 21  1  0  0  0  0
 21 23  1  0  0  0  0
 22 21  1  0  0  0  0
 23 24  1  0  0  0  0
 23 25  1  0  0  0  0
 24 25  1  0  0  0  0
M  END
>  <MODEL>
5

>  <REMARK>
 VINA RESULT:      -6.6      2.466      4.171
  Name = 
  7 active torsions:
  status: ('A' for Active; 'I' for Inactive)
    1  A    between atoms: C_1  and  C_5
    2  A    between atoms: C_2  and  N_21
    3  A    between atoms: C_5  and  C_10
    4  A    between atoms: C_5  and  O_17
    5  A    between atoms: C_6  and  C_15
    6  A    between atoms: C_6  and  C_23
    7  A    between atoms: C_15  and  N_21
                            x       y       z     vdW  Elec       q    Type
                         _______ _______ _______ _____ _____    ______ ____

>  <TORSDO>
F 7

$$$$
=
 OpenBabel11052422173D

 25 28  0  0  1  0  0  0  0  0999 V2000
  161.0030  209.6070  152.9610 C   0  0  0  0  0  0  0  0  0  0  0  0
  161.2480  208.4880  152.1570 C   0  0  0  0  0  0  0  0  0  0  0  0
  161.6390  211.0320  151.1750 C   0  0  0  0  0  3  0  0  0  0  0  0
  161.8900  209.9580  150.3810 N   0  0  0  0  0  0  0  0  0  0  0  0
  161.9560  207.5750  150.0440 C   0  0  0  0  0  0  0  0  0  0  0  0
  162.5360  207.7460  148.3960 Cl  0  0  0  0  0  0  0  0  0  0  0  0
  161.0550  207.2230  152.6170 N   0  0  0  0  0  0  0  0  0  0  0  0
  161.2000  210.8540  152.4490 N   0  0  0  0  0  0  0  0  0  0  0  0
  161.7530  206.3290  150.5500 N   0  0  0  0  0  0  0  0  0  0  0  0
  161.3000  206.1490  151.8200 C   0  0  0  0  0  0  0  0  0  0  0  0
  161.7030  208.6940  150.8440 C   0  0  0  0  0  0  0  0  0  0  0  0
  160.5130  209.4480  154.3710 C   0  0  1  0  0  3  0  0  0  0  0  0
  159.7400  207.2980  156.0560 C   0  0  0  0  0  1  0  0  0  0  0  0
  161.6230  208.8790  155.2590 C   0  0  2  0  0  3  0  0  0  0  0  0
  161.2060  207.7020  156.1530 C   0  0  1  0  0  3  0  0  0  0  0  0
  161.2950  209.1050  156.7220 C   0  0  0  0  0  2  0  0  0  0  0  0
  160.0900  210.6840  154.8680 O   0  0  0  0  0  0  0  0  0  0  0  0
  158.6960  210.6140  154.8610 C   0  0  0  0  0  1  0  0  0  0  0  0
  161.1140  204.7740  152.3530 C   0  0  0  0  0  2  0  0  0  0  0  0
  160.3430  203.9260  151.3400 C   0  0  0  0  0  2  0  0  0  0  0  0
  161.1830  202.9240  150.6770 N   0  0  0  0  0  0  0  0  0  0  0  0
  161.7030  202.1070  151.6280 O   0  0  0  0  0  1  0  0  0  0  0  0
  160.3610  202.1080  149.7910 C   0  0  0  0  0  3  0  0  0  0  0  0
  161.2040  200.9950  149.1990 C   0  0  0  0  0  2  0  0  0  0  0  0
  160.8840  202.2190  148.3700 C   0  0  0  0  0  2  0  0  0  0  0  0
  1 12  1  0  0  0  0
  2  7  1  0  0  0  0
  2  1  2  0  0  0  0
  3  8  2  0  0  0  0
  4 11  2  0  0  0  0
  4  3  1  0  0  0  0
  5  9  2  0  0  0  0
  5 11  1  0  0  0  0
  6  5  1  0  0  0  0
  8  1  1  0  0  0  0
  9 10  1  0  0  0  0
 10 19  1  0  0  0  0
 10  7  2  0  0  0  0
 11  2  1  0  0  0  0
 12 17  1  1  0  0  0
 14 12  1  6  0  0  0
 14 15  1  0  0  0  0
 14 16  1  0  0  0  0
 15 13  1  6  0  0  0
 15 16  1  0  0  0  0
 18 17  1  0  0  0  0
 20 19  1  0  0  0  0
 21 20  1  0  0  0  0
 21 22  1  0  0  0  0
 23 21  1  0  0  0  0
 24 23  1  0  0  0  0
 25 24  1  0  0  0  0
 25 23  1  0  0  0  0
M  END
>  <MODEL>
6

>  <REMARK>
 VINA RESULT:      -6.5      3.028      8.404
  Name = 
  7 active torsions:
  status: ('A' for Active; 'I' for Inactive)
    1  A    between atoms: C_1  and  C_5
    2  A    between atoms: C_2  and  N_21
    3  A    between atoms: C_5  and  C_10
    4  A    between atoms: C_5  and  O_17
    5  A    between atoms: C_6  and  C_15
    6  A    between atoms: C_6  and  C_23
    7  A    between atoms: C_15  and  N_21
                            x       y       z     vdW  Elec       q    Type
                         _______ _______ _______ _____ _____    ______ ____

>  <TORSDO>
F 7

$$$$
=
 OpenBabel11052422173D

 25 28  0  0  1  0  0  0  0  0999 V2000
  161.7610  206.5630  147.9280 C   0  0  0  0  0  0  0  0  0  0  0  0
  161.4620  206.1550  149.2340 C   0  0  0  0  0  0  0  0  0  0  0  0
  162.1360  208.7730  148.7030 C   0  0  0  0  0  3  0  0  0  0  0  0
  161.8420  208.3980  149.9760 N   0  0  0  0  0  0  0  0  0  0  0  0
  161.2010  206.7050  151.5630 C   0  0  0  0  0  0  0  0  0  0  0  0
  161.2250  207.8420  152.9010 Cl  0  0  0  0  0  0  0  0  0  0  0  0
  161.1340  204.8680  149.5210 N   0  0  0  0  0  0  0  0  0  0  0  0
  162.0950  207.8630  147.6950 N   0  0  0  0  0  0  0  0  0  0  0  0
  160.8730  205.4070  151.8010 N   0  0  0  0  0  0  0  0  0  0  0  0
  160.8460  204.4920  150.7950 C   0  0  0  0  0  0  0  0  0  0  0  0
  161.5070  207.1130  150.2600 C   0  0  0  0  0  0  0  0  0  0  0  0
  161.7310  205.5840  146.7910 C   0  0  1  0  0  3  0  0  0  0  0  0
  160.8320  203.4980  145.0880 C   0  0  0  0  0  1  0  0  0  0  0  0
  160.6600  205.9840  145.7720 C   0  0  2  0  0  3  0  0  0  0  0  0
  160.1620  204.8480  144.8670 C   0  0  1  0  0  3  0  0  0  0  0  0
  161.1940  205.8360  144.3610 C   0  0  0  0  0  2  0  0  0  0  0  0
  162.9830  205.5360  146.1740 O   0  0  0  0  0  0  0  0  0  0  0  0
  163.5500  204.3350  146.6060 C   0  0  0  0  0  1  0  0  0  0  0  0
  160.4580  203.0860  151.0830 C   0  0  0  0  0  2  0  0  0  0  0  0
  161.5170  202.1330  150.5250 C   0  0  0  0  0  2  0  0  0  0  0  0
  160.9720  201.1770  149.5560 N   0  0  0  0  0  0  0  0  0  0  0  0
  159.6240  201.3280  149.5190 O   0  0  0  0  0  1  0  0  0  0  0  0
  161.4920  201.4780  148.2280 C   0  0  0  0  0  3  0  0  0  0  0  0
  160.4370  201.1610  147.1860 C   0  0  0  0  0  2  0  0  0  0  0  0
  161.5820  200.1990  147.4160 C   0  0  0  0  0  2  0  0  0  0  0  0
  1  2  1  0  0  0  0
  2  7  1  0  0  0  0
  2 11  2  0  0  0  0
  3  4  2  0  0  0  0
  4 11  1  0  0  0  0
  5  9  2  0  0  0  0
  5  6  1  0  0  0  0
  7 10  2  0  0  0  0
  8  1  2  0  0  0  0
  8  3  1  0  0  0  0
 10 19  1  0  0  0  0
 10  9  1  0  0  0  0
 11  5  1  0  0  0  0
 12 17  1  6  0  0  0
 12  1  1  0  0  0  0
 14 12  1  1  0  0  0
 15 13  1  1  0  0  0
 15 14  1  0  0  0  0
 16 15  1  0  0  0  0
 16 14  1  0  0  0  0
 17 18  1  0  0  0  0
 20 19  1  0  0  0  0
 21 20  1  0  0  0  0
 22 21  1  0  0  0  0
 23 21  1  0  0  0  0
 24 25  1  0  0  0  0
 24 23  1  0  0  0  0
 25 23  1  0  0  0  0
M  END
>  <MODEL>
7

>  <REMARK>
 VINA RESULT:      -6.4      2.293      5.563
  Name = 
  7 active torsions:
  status: ('A' for Active; 'I' for Inactive)
    1  A    between atoms: C_1  and  C_5
    2  A    between atoms: C_2  and  N_21
    3  A    between atoms: C_5  and  C_10
    4  A    between atoms: C_5  and  O_17
    5  A    between atoms: C_6  and  C_15
    6  A    between atoms: C_6  and  C_23
    7  A    between atoms: C_15  and  N_21
                            x       y       z     vdW  Elec       q    Type
                         _______ _______ _______ _____ _____    ______ ____

>  <TORSDO>
F 7

$$$$
=
 OpenBabel11052422173D

 25 28  0  0  1  0  0  0  0  0999 V2000
  161.1440  204.7780  148.9510 C   0  0  0  0  0  0  0  0  0  0  0  0
  161.2890  205.9850  149.6460 C   0  0  0  0  0  0  0  0  0  0  0  0
  161.4880  205.9180  146.8990 C   0  0  0  0  0  3  0  0  0  0  0  0
  161.6230  207.1000  147.5560 N   0  0  0  0  0  0  0  0  0  0  0  0
  161.6660  208.3630  149.6050 C   0  0  0  0  0  0  0  0  0  0  0  0
  161.9590  209.8730  148.7590 Cl  0  0  0  0  0  0  0  0  0  0  0  0
  161.2010  206.0420  151.0020 N   0  0  0  0  0  0  0  0  0  0  0  0
  161.2520  204.7740  147.5930 N   0  0  0  0  0  0  0  0  0  0  0  0
  161.5660  208.3710  150.9610 N   0  0  0  0  0  0  0  0  0  0  0  0
  161.3440  207.2250  151.6580 C   0  0  0  0  0  0  0  0  0  0  0  0
  161.5300  207.1570  148.9100 C   0  0  0  0  0  0  0  0  0  0  0  0
  160.8870  203.4950  149.6850 C   0  0  1  0  0  3  0  0  0  0  0  0
  158.8160  201.5770  149.3830 C   0  0  0  0  0  1  0  0  0  0  0  0
  161.2280  202.2950  148.7960 C   0  0  2  0  0  3  0  0  0  0  0  0
  160.0980  201.2720  148.6180 C   0  0  1  0  0  3  0  0  0  0  0  0
  161.2160  201.0160  149.6100 C   0  0  0  0  0  2  0  0  0  0  0  0
  161.6530  203.4560  150.8530 O   0  0  0  0  0  0  0  0  0  0  0  0
  160.7390  203.1750  151.8710 C   0  0  0  0  0  1  0  0  0  0  0  0
  161.2130  207.2700  153.1380 C   0  0  0  0  0  2  0  0  0  0  0  0
  160.8740  208.6930  153.5840 C   0  0  0  0  0  2  0  0  0  0  0  0
  161.1740  208.9350  154.9990 N   0  0  0  0  0  0  0  0  0  0  0  0
  161.3850  210.2640  155.1690 O   0  0  0  0  0  1  0  0  0  0  0  0
  160.0250  208.5580  155.8130 C   0  0  0  0  0  3  0  0  0  0  0  0
  160.2630  208.9750  157.2510 C   0  0  0  0  0  2  0  0  0  0  0  0
  160.4500  207.5300  156.8450 C   0  0  0  0  0  2  0  0  0  0  0  0
  1  2  1  0  0  0  0
  1 12  1  0  0  0  0
  2  7  1  0  0  0  0
  3  4  2  0  0  0  0
  3  8  1  0  0  0  0
  4 11  1  0  0  0  0
  5  9  2  0  0  0  0
  6  5  1  0  0  0  0
  7 10  2  0  0  0  0
  8  1  2  0  0  0  0
  9 10  1  0  0  0  0
 10 19  1  0  0  0  0
 11  5  1  0  0  0  0
 11  2  2  0  0  0  0
 12 17  1  1  0  0  0
 14 16  1  0  0  0  0
 14 12  1  1  0  0  0
 15 14  1  0  0  0  0
 15 13  1  1  0  0  0
 15 16  1  0  0  0  0
 17 18  1  0  0  0  0
 19 20  1  0  0  0  0
 20 21  1  0  0  0  0
 21 22  1  0  0  0  0
 21 23  1  0  0  0  0
 23 25  1  0  0  0  0
 23 24  1  0  0  0  0
 25 24  1  0  0  0  0
M  END
>  <MODEL>
8

>  <REMARK>
 VINA RESULT:      -6.2      2.771      4.610
  Name = 
  7 active torsions:
  status: ('A' for Active; 'I' for Inactive)
    1  A    between atoms: C_1  and  C_5
    2  A    between atoms: C_2  and  N_21
    3  A    between atoms: C_5  and  C_10
    4  A    between atoms: C_5  and  O_17
    5  A    between atoms: C_6  and  C_15
    6  A    between atoms: C_6  and  C_23
    7  A    between atoms: C_15  and  N_21
                            x       y       z     vdW  Elec       q    Type
                         _______ _______ _______ _____ _____    ______ ____

>  <TORSDO>
F 7

$$$$
=
 OpenBabel11052422173D

 25 28  0  0  1  0  0  0  0  0999 V2000
  161.4790  207.9860  150.6130 C   0  0  0  0  0  0  0  0  0  0  0  0
  161.3250  207.0090  151.6040 C   0  0  0  0  0  0  0  0  0  0  0  0
  161.2620  209.6850  152.2540 C   0  0  0  0  0  3  0  0  0  0  0  0
  161.1020  208.7510  153.2290 N   0  0  0  0  0  0  0  0  0  0  0  0
  160.9680  206.4480  153.9190 C   0  0  0  0  0  0  0  0  0  0  0  0
  160.7110  206.8870  155.5990 Cl  0  0  0  0  0  0  0  0  0  0  0  0
  161.3590  205.6820  151.3090 N   0  0  0  0  0  0  0  0  0  0  0  0
  161.4490  209.3020  150.9640 N   0  0  0  0  0  0  0  0  0  0  0  0
  161.0060  205.1340  153.5740 N   0  0  0  0  0  0  0  0  0  0  0  0
  161.2060  204.7490  152.2850 C   0  0  0  0  0  0  0  0  0  0  0  0
  161.1310  207.4260  152.9310 C   0  0  0  0  0  0  0  0  0  0  0  0
  161.6920  207.5990  149.1790 C   0  0  1  0  0  3  0  0  0  0  0  0
  162.6910  205.5510  147.4860 C   0  0  0  0  0  1  0  0  0  0  0  0
  160.6690  206.5410  148.7550 C   0  0  2  0  0  3  0  0  0  0  0  0
  161.2190  205.4240  147.8570 C   0  0  1  0  0  3  0  0  0  0  0  0
  160.4550  206.5860  147.2550 C   0  0  0  0  0  2  0  0  0  0  0  0
  161.5780  208.7270  148.3620 O   0  0  0  0  0  0  0  0  0  0  0  0
  162.8780  209.2280  148.2590 C   0  0  0  0  0  1  0  0  0  0  0  0
  161.2150  203.3030  151.9350 C   0  0  0  0  0  2  0  0  0  0  0  0
  160.5530  203.0980  150.5720 C   0  0  0  0  0  2  0  0  0  0  0  0
  161.2050  202.0570  149.7720 N   0  0  0  0  0  0  0  0  0  0  0  0
  161.2770  200.9260  150.5180 O   0  0  0  0  0  1  0  0  0  0  0  0
  160.3940  201.7650  148.5960 C   0  0  0  0  0  3  0  0  0  0  0  0
  161.0240  200.6280  147.8140 C   0  0  0  0  0  2  0  0  0  0  0  0
  161.1950  202.0550  147.3410 C   0  0  0  0  0  2  0  0  0  0  0  0
  1  8  2  0  0  0  0
  1  2  1  0  0  0  0
  2 11  2  0  0  0  0
  3  4  2  0  0  0  0
  5  6  1  0  0  0  0
  7  2  1  0  0  0  0
  7 10  2  0  0  0  0
  8  3  1  0  0  0  0
  9  5  2  0  0  0  0
 10  9  1  0  0  0  0
 11  4  1  0  0  0  0
 11  5  1  0  0  0  0
 12 17  1  6  0  0  0
 12  1  1  0  0  0  0
 14 12  1  6  0  0  0
 15 13  1  6  0  0  0
 15 14  1  0  0  0  0
 16 15  1  0  0  0  0
 16 14  1  0  0  0  0
 18 17  1  0  0  0  0
 19 10  1  0  0  0  0
 20 19  1  0  0  0  0
 21 22  1  0  0  0  0
 21 20  1  0  0  0  0
 23 21  1  0  0  0  0
 24 23  1  0  0  0  0
 25 24  1  0  0  0  0
 25 23  1  0  0  0  0
M  END
>  <MODEL>
9

>  <REMARK>
 VINA RESULT:      -6.2      2.066      6.219
  Name = 
  7 active torsions:
  status: ('A' for Active; 'I' for Inactive)
    1  A    between atoms: C_1  and  C_5
    2  A    between atoms: C_2  and  N_21
    3  A    between atoms: C_5  and  C_10
    4  A    between atoms: C_5  and  O_17
    5  A    between atoms: C_6  and  C_15
    6  A    between atoms: C_6  and  C_23
    7  A    between atoms: C_15  and  N_21
                            x       y       z     vdW  Elec       q    Type
                         _______ _______ _______ _____ _____    ______ ____

>  <TORSDO>
F 7

$$$$
