=
 OpenBabel11052423113D

 27 30  0  0  1  0  0  0  0  0999 V2000
  161.5810  209.0070  148.9720 O   0  0  0  0  0  0  0  0  0  0  0  0
  162.2660  207.8710  148.5130 C   0  0  0  0  0  2  0  0  0  0  0  0
  161.9860  209.1950  150.3040 C   0  0  0  0  0  2  0  0  0  0  0  0
  161.6660  206.6210  149.1520 C   0  0  0  0  0  2  0  0  0  0  0  0
  161.7670  206.7200  150.6810 C   0  0  1  0  0  3  0  0  0  0  0  0
  161.3800  208.1180  151.2050 C   0  0  1  0  0  3  0  0  0  0  0  0
  161.9060  208.3380  152.6170 C   0  0  0  0  0  2  0  0  0  0  0  0
  161.0890  207.3370  154.5410 C   0  0  0  0  0  2  0  0  0  0  0  0
  159.7580  211.0360  155.9450 O   0  0  0  0  0  0  0  0  0  0  0  0
  158.3230  211.3670  153.8700 C   0  0  0  0  0  2  0  0  0  0  0  0
  160.0810  207.3280  155.6960 C   0  0  0  0  0  2  0  0  0  0  0  0
  160.8350  210.9320  153.3740 C   0  0  0  0  0  2  0  0  0  0  0  0
  159.4470  211.2910  152.8280 C   0  0  0  0  0  2  0  0  0  0  0  0
  160.8960  209.6970  154.2950 C   0  0  1  0  0  3  0  0  0  0  0  0
  158.7550  211.8100  155.2920 C   0  0  0  0  0  2  0  0  0  0  0  0
  159.8190  209.7540  155.3780 C   0  0  1  0  0  3  0  0  0  0  0  0
  160.8120  208.4120  153.5780 N   0  0  0  0  0  0  0  0  0  0  0  0
  160.0820  208.6760  156.4100 C   0  0  0  0  0  2  0  0  0  0  0  0
  160.9500  205.6030  151.3330 C   0  0  0  0  0  2  0  0  0  0  0  0
  161.5880  204.2330  151.1290 C   0  0  0  0  0  2  0  0  0  0  0  0
  160.5110  203.1660  151.0690 C   0  0  0  0  0  2  0  0  0  0  0  0
  160.9410  201.5630  147.0980 C   0  0  0  0  0  2  0  0  0  0  0  0
  160.4420  202.5240  149.6920 C   0  0  0  0  0  3  0  0  0  0  0  0
  161.3240  201.2770  149.6250 C   0  0  0  0  0  2  0  0  0  0  0  0
  161.2060  200.5910  148.2570 C   0  0  0  0  0  2  0  0  0  0  0  0
  161.5140  202.9450  147.3940 C   0  0  0  0  0  2  0  0  0  0  0  0
  160.8580  203.5590  148.6370 C   0  0  0  0  0  2  0  0  0  0  0  0
  1  3  1  0  0  0  0
  2  1  1  0  0  0  0
  2  4  1  0  0  0  0
  3  6  1  0  0  0  0
  4  5  1  0  0  0  0
  5  6  1  0  0  0  0
  5 19  1  1  0  0  0
  6  7  1  1  0  0  0
  7 17  1  0  0  0  0
  8 11  1  0  0  0  0
 10 15  1  0  0  0  0
 11 18  1  0  0  0  0
 13 12  1  0  0  0  0
 13 10  1  0  0  0  0
 14 12  1  6  0  0  0
 14 16  1  0  0  0  0
 15  9  1  0  0  0  0
 16  9  1  0  0  0  0
 16 18  1  1  0  0  0
 17 14  1  0  0  0  0
 17  8  1  0  0  0  0
 20 19  1  0  0  0  0
 21 20  1  0  0  0  0
 22 26  1  0  0  0  0
 22 25  1  0  0  0  0
 23 21  1  0  0  0  0
 24 23  1  0  0  0  0
 25 24  1  0  0  0  0
 26 27  1  0  0  0  0
 27 23  1  0  0  0  0
M  END
>  <MODEL>
1

>  <REMARK>
 VINA RESULT:      -8.6      0.000      0.000
  Name = 
  6 active torsions:
  status: ('A' for Active; 'I' for Inactive)
    1  A    between atoms: C_1  and  C_15
    2  A    between atoms: C_1  and  C_18
    3  A    between atoms: C_3  and  N_19
    4  A    between atoms: C_3  and  C_26
    5  A    between atoms: C_9  and  C_15
    6  A    between atoms: C_18  and  C_24
                            x       y       z     vdW  Elec       q    Type
                         _______ _______ _______ _____ _____    ______ ____

>  <TORSDO>
F 6

$$$$
=
 OpenBabel11052423113D

 27 30  0  0  1  0  0  0  0  0999 V2000
  162.5980  209.1920  150.6380 O   0  0  0  0  0  0  0  0  0  0  0  0
  161.8130  209.8440  151.6030 C   0  0  0  0  0  2  0  0  0  0  0  0
  161.7580  208.2490  150.0230 C   0  0  0  0  0  2  0  0  0  0  0  0
  161.5630  208.9030  152.7780 C   0  0  0  0  0  2  0  0  0  0  0  0
  160.8540  207.6330  152.2860 C   0  0  1  0  0  3  0  0  0  0  0  0
  161.4640  207.0910  150.9780 C   0  0  1  0  0  3  0  0  0  0  0  0
  160.5000  206.1410  150.2780 C   0  0  0  0  0  2  0  0  0  0  0  0
  160.7600  203.8600  150.5980 C   0  0  0  0  0  2  0  0  0  0  0  0
  161.1000  203.2830  146.4770 O   0  0  0  0  0  0  0  0  0  0  0  0
  163.0830  204.8730  146.3650 C   0  0  0  0  0  2  0  0  0  0  0  0
  161.3280  202.5180  150.1220 C   0  0  0  0  0  2  0  0  0  0  0  0
  160.9430  205.9060  147.4140 C   0  0  0  0  0  2  0  0  0  0  0  0
  162.3780  206.1190  146.9190 C   0  0  0  0  0  2  0  0  0  0  0  0
  160.7340  204.7200  148.3780 C   0  0  1  0  0  3  0  0  0  0  0  0
  162.1590  203.8240  145.6930 C   0  0  0  0  0  2  0  0  0  0  0  0
  161.3830  203.4440  147.8420 C   0  0  1  0  0  3  0  0  0  0  0  0
  161.2030  204.9760  149.7520 N   0  0  0  0  0  0  0  0  0  0  0  0
  160.9300  202.2590  148.6710 C   0  0  0  0  0  2  0  0  0  0  0  0
  160.8260  206.5850  153.3990 C   0  0  0  0  0  2  0  0  0  0  0  0
  161.3270  207.1440  154.7260 C   0  0  0  0  0  2  0  0  0  0  0  0
  160.1640  207.3200  155.6850 C   0  0  0  0  0  2  0  0  0  0  0  0
  160.7690  211.2830  157.2510 C   0  0  0  0  0  2  0  0  0  0  0  0
  160.2490  208.6480  156.4200 C   0  0  0  0  0  3  0  0  0  0  0  0
  159.4320  209.7240  155.7040 C   0  0  0  0  0  2  0  0  0  0  0  0
  159.4630  211.0490  156.4790 C   0  0  0  0  0  2  0  0  0  0  0  0
  161.9420  210.5760  156.5800 C   0  0  0  0  0  2  0  0  0  0  0  0
  161.7230  209.0580  156.5450 C   0  0  0  0  0  2  0  0  0  0  0  0
  1  2  1  0  0  0  0
  2  4  1  0  0  0  0
  3  1  1  0  0  0  0
  3  6  1  0  0  0  0
  5  4  1  0  0  0  0
  5 19  1  1  0  0  0
  6  7  1  6  0  0  0
  6  5  1  0  0  0  0
  9 16  1  0  0  0  0
 10 13  1  0  0  0  0
 11  8  1  0  0  0  0
 13 12  1  0  0  0  0
 14 12  1  6  0  0  0
 14 17  1  0  0  0  0
 15 10  1  0  0  0  0
 15  9  1  0  0  0  0
 16 14  1  0  0  0  0
 16 18  1  1  0  0  0
 17  7  1  0  0  0  0
 17  8  1  0  0  0  0
 18 11  1  0  0  0  0
 19 20  1  0  0  0  0
 20 21  1  0  0  0  0
 21 23  1  0  0  0  0
 23 27  1  0  0  0  0
 24 23  1  0  0  0  0
 24 25  1  0  0  0  0
 25 22  1  0  0  0  0
 26 22  1  0  0  0  0
 27 26  1  0  0  0  0
M  END
>  <MODEL>
2

>  <REMARK>
 VINA RESULT:      -8.5      2.143      8.324
  Name = 
  6 active torsions:
  status: ('A' for Active; 'I' for Inactive)
    1  A    between atoms: C_1  and  C_15
    2  A    between atoms: C_1  and  C_18
    3  A    between atoms: C_3  and  N_19
    4  A    between atoms: C_3  and  C_26
    5  A    between atoms: C_9  and  C_15
    6  A    between atoms: C_18  and  C_24
                            x       y       z     vdW  Elec       q    Type
                         _______ _______ _______ _____ _____    ______ ____

>  <TORSDO>
F 6

$$$$
=
 OpenBabel11052423113D

 27 30  0  0  1  0  0  0  0  0999 V2000
  161.6700  210.4460  149.5460 O   0  0  0  0  0  0  0  0  0  0  0  0
  162.2710  209.4700  148.7350 C   0  0  0  0  0  2  0  0  0  0  0  0
  162.0830  210.1710  150.8590 C   0  0  0  0  0  2  0  0  0  0  0  0
  161.5790  208.1280  148.9550 C   0  0  0  0  0  2  0  0  0  0  0  0
  161.6810  207.7260  150.4340 C   0  0  1  0  0  3  0  0  0  0  0  0
  161.3970  208.9080  151.3830 C   0  0  1  0  0  3  0  0  0  0  0  0
  161.9340  208.6290  152.7810 C   0  0  0  0  0  2  0  0  0  0  0  0
  161.0080  207.1910  154.3450 C   0  0  0  0  0  2  0  0  0  0  0  0
  160.0510  210.4250  156.8050 O   0  0  0  0  0  0  0  0  0  0  0  0
  158.6690  211.4920  154.9550 C   0  0  0  0  0  2  0  0  0  0  0  0
  159.9980  206.9420  155.4710 C   0  0  0  0  0  2  0  0  0  0  0  0
  161.1270  210.9770  154.2920 C   0  0  0  0  0  2  0  0  0  0  0  0
  159.7860  211.6160  153.9100 C   0  0  0  0  0  2  0  0  0  0  0  0
  161.0570  209.5260  154.8080 C   0  0  1  0  0  3  0  0  0  0  0  0
  159.1360  211.4520  156.4340 C   0  0  0  0  0  2  0  0  0  0  0  0
  159.9850  209.3680  155.8860 C   0  0  1  0  0  3  0  0  0  0  0  0
  160.8470  208.5230  153.7480 N   0  0  0  0  0  0  0  0  0  0  0  0
  160.1310  208.0130  156.5500 C   0  0  0  0  0  2  0  0  0  0  0  0
  160.7830  206.5210  150.7120 C   0  0  0  0  0  2  0  0  0  0  0  0
  161.5050  205.2000  150.4690 C   0  0  0  0  0  2  0  0  0  0  0  0
  160.7780  204.4040  149.4000 C   0  0  0  0  0  2  0  0  0  0  0  0
  162.3480  204.2710  145.3960 C   0  0  0  0  0  2  0  0  0  0  0  0
  161.5360  204.4260  148.0820 C   0  0  0  0  0  3  0  0  0  0  0  0
  161.0590  205.5770  147.1960 C   0  0  0  0  0  2  0  0  0  0  0  0
  161.8660  205.6410  145.8920 C   0  0  0  0  0  2  0  0  0  0  0  0
  161.4110  203.1570  145.8500 C   0  0  0  0  0  2  0  0  0  0  0  0
  161.3580  203.0720  147.3800 C   0  0  0  0  0  2  0  0  0  0  0  0
  1  3  1  0  0  0  0
  2  4  1  0  0  0  0
  2  1  1  0  0  0  0
  3  6  1  0  0  0  0
  4  5  1  0  0  0  0
  5 19  1  1  0  0  0
  5  6  1  0  0  0  0
  6  7  1  1  0  0  0
  7 17  1  0  0  0  0
  8 11  1  0  0  0  0
 10 15  1  0  0  0  0
 11 18  1  0  0  0  0
 13 12  1  0  0  0  0
 13 10  1  0  0  0  0
 14 12  1  6  0  0  0
 14 16  1  0  0  0  0
 15  9  1  0  0  0  0
 16 18  1  1  0  0  0
 16  9  1  0  0  0  0
 17  8  1  0  0  0  0
 17 14  1  0  0  0  0
 20 19  1  0  0  0  0
 21 20  1  0  0  0  0
 22 26  1  0  0  0  0
 22 25  1  0  0  0  0
 23 21  1  0  0  0  0
 24 23  1  0  0  0  0
 25 24  1  0  0  0  0
 26 27  1  0  0  0  0
 27 23  1  0  0  0  0
M  END
>  <MODEL>
3

>  <REMARK>
 VINA RESULT:      -7.9      1.289      1.977
  Name = 
  6 active torsions:
  status: ('A' for Active; 'I' for Inactive)
    1  A    between atoms: C_1  and  C_15
    2  A    between atoms: C_1  and  C_18
    3  A    between atoms: C_3  and  N_19
    4  A    between atoms: C_3  and  C_26
    5  A    between atoms: C_9  and  C_15
    6  A    between atoms: C_18  and  C_24
                            x       y       z     vdW  Elec       q    Type
                         _______ _______ _______ _____ _____    ______ ____

>  <TORSDO>
F 6

$$$$
=
 OpenBabel11052423113D

 27 30  0  0  1  0  0  0  0  0999 V2000
  162.0750  203.5740  151.8400 O   0  0  0  0  0  0  0  0  0  0  0  0
  161.1590  203.0780  150.8980 C   0  0  0  0  0  2  0  0  0  0  0  0
  161.4060  204.5930  152.5360 C   0  0  0  0  0  2  0  0  0  0  0  0
  160.9810  204.0960  149.7750 C   0  0  0  0  0  2  0  0  0  0  0  0
  160.4800  205.4270  150.3540 C   0  0  1  0  0  3  0  0  0  0  0  0
  161.2250  205.8220  151.6440 C   0  0  1  0  0  3  0  0  0  0  0  0
  160.4400  206.8620  152.4330 C   0  0  0  0  0  2  0  0  0  0  0  0
  161.5900  208.7890  151.8550 C   0  0  0  0  0  2  0  0  0  0  0  0
  160.8710  210.3980  155.6390 O   0  0  0  0  0  0  0  0  0  0  0  0
  162.0130  208.4180  156.7560 C   0  0  0  0  0  2  0  0  0  0  0  0
  162.4360  209.9960  152.2760 C   0  0  0  0  0  2  0  0  0  0  0  0
  160.0620  207.7710  155.1680 C   0  0  0  0  0  2  0  0  0  0  0  0
  161.1040  207.3150  156.1960 C   0  0  0  0  0  2  0  0  0  0  0  0
  160.5950  208.6410  154.0120 C   0  0  1  0  0  3  0  0  0  0  0  0
  161.3760  209.8300  156.8440 C   0  0  0  0  0  2  0  0  0  0  0  0
  161.4700  209.7820  154.5300 C   0  0  1  0  0  3  0  0  0  0  0  0
  161.3260  207.8830  152.9810 N   0  0  0  0  0  0  0  0  0  0  0  0
  161.7460  210.7580  153.4040 C   0  0  0  0  0  2  0  0  0  0  0  0
  160.5390  206.5180  149.2840 C   0  0  0  0  0  2  0  0  0  0  0  0
  161.9690  206.8100  148.8420 C   0  0  0  0  0  2  0  0  0  0  0  0
  162.0370  206.8810  147.3280 C   0  0  0  0  0  2  0  0  0  0  0  0
  160.6370  203.5540  144.9860 C   0  0  0  0  0  2  0  0  0  0  0  0
  161.4080  205.6540  146.6860 C   0  0  0  0  0  3  0  0  0  0  0  0
  162.4280  204.5220  146.5560 C   0  0  0  0  0  2  0  0  0  0  0  0
  161.7800  203.2610  145.9680 C   0  0  0  0  0  2  0  0  0  0  0  0
  160.8310  204.9000  144.2980 C   0  0  0  0  0  2  0  0  0  0  0  0
  160.8310  206.0450  145.3180 C   0  0  0  0  0  2  0  0  0  0  0  0
  1  3  1  0  0  0  0
  2  1  1  0  0  0  0
  4  5  1  0  0  0  0
  4  2  1  0  0  0  0
  5 19  1  6  0  0  0
  5  6  1  0  0  0  0
  6  7  1  1  0  0  0
  6  3  1  0  0  0  0
  7 17  1  0  0  0  0
  8 11  1  0  0  0  0
  8 17  1  0  0  0  0
  9 15  1  0  0  0  0
 10 15  1  0  0  0  0
 11 18  1  0  0  0  0
 12 13  1  0  0  0  0
 13 10  1  0  0  0  0
 14 16  1  0  0  0  0
 14 12  1  1  0  0  0
 16 18  1  6  0  0  0
 16  9  1  0  0  0  0
 17 14  1  0  0  0  0
 20 19  1  0  0  0  0
 21 20  1  0  0  0  0
 22 25  1  0  0  0  0
 23 21  1  0  0  0  0
 24 23  1  0  0  0  0
 25 24  1  0  0  0  0
 26 22  1  0  0  0  0
 26 27  1  0  0  0  0
 27 23  1  0  0  0  0
M  END
>  <MODEL>
4

>  <REMARK>
 VINA RESULT:      -7.6      2.099      3.851
  Name = 
  6 active torsions:
  status: ('A' for Active; 'I' for Inactive)
    1  A    between atoms: C_1  and  C_15
    2  A    between atoms: C_1  and  C_18
    3  A    between atoms: C_3  and  N_19
    4  A    between atoms: C_3  and  C_26
    5  A    between atoms: C_9  and  C_15
    6  A    between atoms: C_18  and  C_24
                            x       y       z     vdW  Elec       q    Type
                         _______ _______ _______ _____ _____    ______ ____

>  <TORSDO>
F 6

$$$$
=
 OpenBabel11052423113D

 27 30  0  0  1  0  0  0  0  0999 V2000
  161.4170  203.9920  151.8460 O   0  0  0  0  0  0  0  0  0  0  0  0
  160.2050  204.3320  151.2230 C   0  0  0  0  0  2  0  0  0  0  0  0
  161.6950  205.0280  152.7520 C   0  0  0  0  0  2  0  0  0  0  0  0
  160.4380  205.4820  150.2480 C   0  0  0  0  0  2  0  0  0  0  0  0
  161.0070  206.6940  151.0000 C   0  0  1  0  0  3  0  0  0  0  0  0
  162.1080  206.2970  152.0040 C   0  0  1  0  0  3  0  0  0  0  0  0
  162.3310  207.3960  153.0340 C   0  0  0  0  0  2  0  0  0  0  0  0
  160.8880  206.9250  154.7860 C   0  0  0  0  0  2  0  0  0  0  0  0
  159.9940  210.9830  155.1890 O   0  0  0  0  0  0  0  0  0  0  0  0
  159.2060  211.1040  152.7730 C   0  0  0  0  0  2  0  0  0  0  0  0
  159.6450  207.2920  155.6040 C   0  0  0  0  0  2  0  0  0  0  0  0
  161.6300  210.2170  153.0630 C   0  0  0  0  0  2  0  0  0  0  0  0
  160.5160  210.6600  152.1070 C   0  0  0  0  0  2  0  0  0  0  0  0
  161.2220  209.1920  154.1420 C   0  0  1  0  0  3  0  0  0  0  0  0
  159.3530  211.7510  154.1750 C   0  0  0  0  0  2  0  0  0  0  0  0
  159.9440  209.6190  154.8620 C   0  0  1  0  0  3  0  0  0  0  0  0
  161.0690  207.8170  153.6330 N   0  0  0  0  0  0  0  0  0  0  0  0
  159.7310  208.7400  156.0780 C   0  0  0  0  0  2  0  0  0  0  0  0
  161.4770  207.7550  150.0040 C   0  0  0  0  0  2  0  0  0  0  0  0
  161.1510  207.3740  148.5640 C   0  0  0  0  0  2  0  0  0  0  0  0
  162.4240  207.0020  147.8270 C   0  0  0  0  0  2  0  0  0  0  0  0
  161.1950  204.0420  144.9550 C   0  0  0  0  0  2  0  0  0  0  0  0
  162.1380  206.0640  146.6650 C   0  0  0  0  0  3  0  0  0  0  0  0
  160.7300  206.2910  146.1120 C   0  0  0  0  0  2  0  0  0  0  0  0
  160.4620  205.3900  144.8980 C   0  0  0  0  0  2  0  0  0  0  0  0
  161.4380  203.6050  146.3950 C   0  0  0  0  0  2  0  0  0  0  0  0
  162.3250  204.6140  147.1350 C   0  0  0  0  0  2  0  0  0  0  0  0
  1  3  1  0  0  0  0
  2  1  1  0  0  0  0
  4  5  1  0  0  0  0
  4  2  1  0  0  0  0
  5 19  1  6  0  0  0
  5  6  1  0  0  0  0
  6  3  1  0  0  0  0
  6  7  1  1  0  0  0
  7 17  1  0  0  0  0
  8 11  1  0  0  0  0
 10 15  1  0  0  0  0
 11 18  1  0  0  0  0
 13 10  1  0  0  0  0
 13 12  1  0  0  0  0
 14 12  1  6  0  0  0
 14 16  1  0  0  0  0
 15  9  1  0  0  0  0
 16  9  1  0  0  0  0
 16 18  1  1  0  0  0
 17 14  1  0  0  0  0
 17  8  1  0  0  0  0
 20 19  1  0  0  0  0
 21 20  1  0  0  0  0
 22 26  1  0  0  0  0
 23 27  1  0  0  0  0
 23 21  1  0  0  0  0
 24 23  1  0  0  0  0
 25 22  1  0  0  0  0
 25 24  1  0  0  0  0
 26 27  1  0  0  0  0
M  END
>  <MODEL>
5

>  <REMARK>
 VINA RESULT:      -7.4      1.891      3.151
  Name = 
  6 active torsions:
  status: ('A' for Active; 'I' for Inactive)
    1  A    between atoms: C_1  and  C_15
    2  A    between atoms: C_1  and  C_18
    3  A    between atoms: C_3  and  N_19
    4  A    between atoms: C_3  and  C_26
    5  A    between atoms: C_9  and  C_15
    6  A    between atoms: C_18  and  C_24
                            x       y       z     vdW  Elec       q    Type
                         _______ _______ _______ _____ _____    ______ ____

>  <TORSDO>
F 6

$$$$
=
 OpenBabel11052423113D

 27 30  0  0  1  0  0  0  0  0999 V2000
  160.4420  206.7580  155.1060 O   0  0  0  0  0  0  0  0  0  0  0  0
  160.9460  207.9890  155.5560 C   0  0  0  0  0  2  0  0  0  0  0  0
  161.2170  206.4040  153.9900 C   0  0  0  0  0  2  0  0  0  0  0  0
  160.5370  209.0940  154.5860 C   0  0  0  0  0  2  0  0  0  0  0  0
  161.0760  208.7810  153.1840 C   0  0  1  0  0  3  0  0  0  0  0  0
  160.8800  207.3010  152.7970 C   0  0  1  0  0  3  0  0  0  0  0  0
  161.7960  206.9100  151.6450 C   0  0  0  0  0  2  0  0  0  0  0  0
  161.1140  207.1660  149.4440 C   0  0  0  0  0  2  0  0  0  0  0  0
  161.5920  203.0720  148.7810 O   0  0  0  0  0  0  0  0  0  0  0  0
  159.9600  202.5250  150.6540 C   0  0  0  0  0  2  0  0  0  0  0  0
  160.4570  206.5770  148.1910 C   0  0  0  0  0  2  0  0  0  0  0  0
  161.9560  204.0200  151.3790 C   0  0  0  0  0  2  0  0  0  0  0  0
  160.7160  203.2200  151.7950 C   0  0  0  0  0  2  0  0  0  0  0  0
  161.7580  205.0060  150.2100 C   0  0  1  0  0  3  0  0  0  0  0  0
  160.8290  202.0730  149.4510 C   0  0  0  0  0  2  0  0  0  0  0  0
  161.0470  204.3410  149.0320 C   0  0  1  0  0  3  0  0  0  0  0  0
  161.0480  206.2420  150.5850 N   0  0  0  0  0  0  0  0  0  0  0  0
  161.1140  205.2500  147.8220 C   0  0  0  0  0  2  0  0  0  0  0  0
  160.4650  209.7390  152.1610 C   0  0  0  0  0  2  0  0  0  0  0  0
  160.4810  211.1840  152.6490 C   0  0  0  0  0  2  0  0  0  0  0  0
  159.1200  211.8180  152.4310 C   0  0  0  0  0  2  0  0  0  0  0  0
  157.6740  212.8440  156.3530 C   0  0  0  0  0  2  0  0  0  0  0  0
  158.5620  212.3910  153.7240 C   0  0  0  0  0  3  0  0  0  0  0  0
  159.6730  212.6040  154.7530 C   0  0  0  0  0  2  0  0  0  0  0  0
  159.1230  213.2430  156.0360 C   0  0  0  0  0  2  0  0  0  0  0  0
  157.3440  211.4660  155.7900 C   0  0  0  0  0  2  0  0  0  0  0  0
  157.4760  211.4480  154.2630 C   0  0  0  0  0  2  0  0  0  0  0  0
  1  2  1  0  0  0  0
  3  1  1  0  0  0  0
  4  2  1  0  0  0  0
  5 19  1  6  0  0  0
  5  4  1  0  0  0  0
  6  7  1  6  0  0  0
  6  5  1  0  0  0  0
  6  3  1  0  0  0  0
  8 17  1  0  0  0  0
  9 16  1  0  0  0  0
  9 15  1  0  0  0  0
 10 13  1  0  0  0  0
 11  8  1  0  0  0  0
 12 13  1  0  0  0  0
 14 17  1  0  0  0  0
 14 12  1  1  0  0  0
 15 10  1  0  0  0  0
 16 18  1  6  0  0  0
 16 14  1  0  0  0  0
 17  7  1  0  0  0  0
 18 11  1  0  0  0  0
 19 20  1  0  0  0  0
 21 20  1  0  0  0  0
 21 23  1  0  0  0  0
 23 27  1  0  0  0  0
 23 24  1  0  0  0  0
 24 25  1  0  0  0  0
 25 22  1  0  0  0  0
 26 22  1  0  0  0  0
 27 26  1  0  0  0  0
M  END
>  <MODEL>
6

>  <REMARK>
 VINA RESULT:      -7.4      2.032      8.748
  Name = 
  6 active torsions:
  status: ('A' for Active; 'I' for Inactive)
    1  A    between atoms: C_1  and  C_15
    2  A    between atoms: C_1  and  C_18
    3  A    between atoms: C_3  and  N_19
    4  A    between atoms: C_3  and  C_26
    5  A    between atoms: C_9  and  C_15
    6  A    between atoms: C_18  and  C_24
                            x       y       z     vdW  Elec       q    Type
                         _______ _______ _______ _____ _____    ______ ____

>  <TORSDO>
F 6

$$$$
=
 OpenBabel11052423113D

 27 30  0  0  1  0  0  0  0  0999 V2000
  161.6810  210.4110  148.8350 O   0  0  0  0  0  0  0  0  0  0  0  0
  162.3660  209.2620  148.4070 C   0  0  0  0  0  2  0  0  0  0  0  0
  162.1580  210.6910  150.1260 C   0  0  0  0  0  2  0  0  0  0  0  0
  161.8350  208.0440  149.1560 C   0  0  0  0  0  2  0  0  0  0  0  0
  162.0220  208.2400  150.6670 C   0  0  1  0  0  3  0  0  0  0  0  0
  161.6320  209.6600  151.1260 C   0  0  1  0  0  3  0  0  0  0  0  0
  162.2340  209.9790  152.4880 C   0  0  0  0  0  2  0  0  0  0  0  0
  160.3630  211.3350  152.3010 C   0  0  0  0  0  2  0  0  0  0  0  0
  159.0280  210.0720  156.0490 O   0  0  0  0  0  0  0  0  0  0  0  0
  161.1810  210.8720  157.1440 C   0  0  0  0  0  2  0  0  0  0  0  0
  159.2680  212.1700  152.9740 C   0  0  0  0  0  2  0  0  0  0  0  0
  161.5330  209.1900  155.1960 C   0  0  0  0  0  2  0  0  0  0  0  0
  162.1570  210.0060  156.3350 C   0  0  0  0  0  2  0  0  0  0  0  0
  160.6130  209.9710  154.2360 C   0  0  1  0  0  3  0  0  0  0  0  0
  159.7350  210.3220  157.2600 C   0  0  0  0  0  2  0  0  0  0  0  0
  159.5940  210.8140  155.0020 C   0  0  1  0  0  3  0  0  0  0  0  0
  161.3370  210.8200  153.2730 N   0  0  0  0  0  0  0  0  0  0  0  0
  158.5510  211.3450  154.0380 C   0  0  0  0  0  2  0  0  0  0  0  0
  161.2720  207.1500  151.4330 C   0  0  0  0  0  2  0  0  0  0  0  0
  160.9090  205.9680  150.5410 C   0  0  0  0  0  2  0  0  0  0  0  0
  160.9000  204.6880  151.3560 C   0  0  0  0  0  2  0  0  0  0  0  0
  160.5800  201.3300  148.6840 C   0  0  0  0  0  2  0  0  0  0  0  0
  160.5670  203.4830  150.4920 C   0  0  0  0  0  3  0  0  0  0  0  0
  161.3180  202.2400  150.9730 C   0  0  0  0  0  2  0  0  0  0  0  0
  160.9340  201.0070  150.1430 C   0  0  0  0  0  2  0  0  0  0  0  0
  161.3070  202.5800  148.2020 C   0  0  0  0  0  2  0  0  0  0  0  0
  160.9040  203.8070  149.0300 C   0  0  0  0  0  2  0  0  0  0  0  0
  1  3  1  0  0  0  0
  2  1  1  0  0  0  0
  2  4  1  0  0  0  0
  3  6  1  0  0  0  0
  4  5  1  0  0  0  0
  5  6  1  0  0  0  0
  5 19  1  1  0  0  0
  6  7  1  1  0  0  0
  7 17  1  0  0  0  0
  8 11  1  0  0  0  0
  8 17  1  0  0  0  0
  9 15  1  0  0  0  0
 10 15  1  0  0  0  0
 11 18  1  0  0  0  0
 12 13  1  0  0  0  0
 13 10  1  0  0  0  0
 14 16  1  0  0  0  0
 14 12  1  1  0  0  0
 16 18  1  6  0  0  0
 16  9  1  0  0  0  0
 17 14  1  0  0  0  0
 20 21  1  0  0  0  0
 20 19  1  0  0  0  0
 22 25  1  0  0  0  0
 23 24  1  0  0  0  0
 23 21  1  0  0  0  0
 25 24  1  0  0  0  0
 26 22  1  0  0  0  0
 26 27  1  0  0  0  0
 27 23  1  0  0  0  0
M  END
>  <MODEL>
7

>  <REMARK>
 VINA RESULT:      -7.4      1.316      2.496
  Name = 
  6 active torsions:
  status: ('A' for Active; 'I' for Inactive)
    1  A    between atoms: C_1  and  C_15
    2  A    between atoms: C_1  and  C_18
    3  A    between atoms: C_3  and  N_19
    4  A    between atoms: C_3  and  C_26
    5  A    between atoms: C_9  and  C_15
    6  A    between atoms: C_18  and  C_24
                            x       y       z     vdW  Elec       q    Type
                         _______ _______ _______ _____ _____    ______ ____

>  <TORSDO>
F 6

$$$$
=
 OpenBabel11052423113D

 27 30  0  0  1  0  0  0  0  0999 V2000
  161.5000  205.7470  153.9760 O   0  0  0  0  0  0  0  0  0  0  0  0
  161.2350  205.0940  152.7620 C   0  0  0  0  0  2  0  0  0  0  0  0
  160.7550  206.9370  153.9510 C   0  0  0  0  0  2  0  0  0  0  0  0
  161.9410  205.8260  151.6240 C   0  0  0  0  0  2  0  0  0  0  0  0
  161.4560  207.2810  151.5610 C   0  0  1  0  0  3  0  0  0  0  0  0
  161.3640  207.9290  152.9580 C   0  0  1  0  0  3  0  0  0  0  0  0
  160.4770  209.1660  152.9300 C   0  0  0  0  0  2  0  0  0  0  0  0
  161.5810  209.4600  154.9460 C   0  0  0  0  0  2  0  0  0  0  0  0
  159.6950  213.1450  155.4860 O   0  0  0  0  0  0  0  0  0  0  0  0
  157.4020  212.0520  155.3400 C   0  0  0  0  0  2  0  0  0  0  0  0
  161.6180  210.0670  156.3530 C   0  0  0  0  0  2  0  0  0  0  0  0
  158.9330  211.6030  153.2900 C   0  0  0  0  0  2  0  0  0  0  0  0
  157.5490  211.4540  153.9340 C   0  0  0  0  0  2  0  0  0  0  0  0
  160.1300  211.1770  154.1640 C   0  0  1  0  0  3  0  0  0  0  0  0
  158.2860  213.2920  155.6360 C   0  0  0  0  0  2  0  0  0  0  0  0
  160.0460  211.7880  155.5620 C   0  0  1  0  0  3  0  0  0  0  0  0
  160.3030  209.7170  154.2700 N   0  0  0  0  0  0  0  0  0  0  0  0
  161.3580  211.5700  156.2880 C   0  0  0  0  0  2  0  0  0  0  0  0
  162.3310  208.0840  150.5990 C   0  0  0  0  0  2  0  0  0  0  0  0
  162.1860  207.6080  149.1580 C   0  0  0  0  0  2  0  0  0  0  0  0
  160.8310  206.9530  148.9640 C   0  0  0  0  0  2  0  0  0  0  0  0
  161.6790  203.7650  146.2010 C   0  0  0  0  0  2  0  0  0  0  0  0
  160.9000  205.8280  147.9430 C   0  0  0  0  0  3  0  0  0  0  0  0
  161.2060  204.4920  148.6210 C   0  0  0  0  0  2  0  0  0  0  0  0
  161.2120  203.3440  147.6020 C   0  0  0  0  0  2  0  0  0  0  0  0
  162.6390  204.9460  146.2690 C   0  0  0  0  0  2  0  0  0  0  0  0
  161.9600  206.1740  146.8880 C   0  0  0  0  0  2  0  0  0  0  0  0
  2  1  1  0  0  0  0
  3  1  1  0  0  0  0
  4  2  1  0  0  0  0
  5 19  1  6  0  0  0
  5  4  1  0  0  0  0
  5  6  1  0  0  0  0
  6  7  1  6  0  0  0
  6  3  1  0  0  0  0
  7 17  1  0  0  0  0
  8 11  1  0  0  0  0
  9 16  1  0  0  0  0
  9 15  1  0  0  0  0
 10 15  1  0  0  0  0
 12 13  1  0  0  0  0
 13 10  1  0  0  0  0
 14 12  1  6  0  0  0
 14 17  1  0  0  0  0
 14 16  1  0  0  0  0
 16 18  1  6  0  0  0
 17  8  1  0  0  0  0
 18 11  1  0  0  0  0
 20 19  1  0  0  0  0
 21 20  1  0  0  0  0
 22 26  1  0  0  0  0
 22 25  1  0  0  0  0
 23 24  1  0  0  0  0
 23 21  1  0  0  0  0
 25 24  1  0  0  0  0
 26 27  1  0  0  0  0
 27 23  1  0  0  0  0
M  END
>  <MODEL>
8

>  <REMARK>
 VINA RESULT:      -7.3      1.954      3.050
  Name = 
  6 active torsions:
  status: ('A' for Active; 'I' for Inactive)
    1  A    between atoms: C_1  and  C_15
    2  A    between atoms: C_1  and  C_18
    3  A    between atoms: C_3  and  N_19
    4  A    between atoms: C_3  and  C_26
    5  A    between atoms: C_9  and  C_15
    6  A    between atoms: C_18  and  C_24
                            x       y       z     vdW  Elec       q    Type
                         _______ _______ _______ _____ _____    ______ ____

>  <TORSDO>
F 6

$$$$
=
 OpenBabel11052423113D

 27 30  0  0  1  0  0  0  0  0999 V2000
  160.5740  204.4150  152.2750 O   0  0  0  0  0  0  0  0  0  0  0  0
  161.3430  205.2130  153.1380 C   0  0  0  0  0  2  0  0  0  0  0  0
  161.2480  204.4100  151.0430 C   0  0  0  0  0  2  0  0  0  0  0  0
  161.1910  206.6800  152.7460 C   0  0  0  0  0  2  0  0  0  0  0  0
  161.6450  206.8800  151.2930 C   0  0  1  0  0  3  0  0  0  0  0  0
  161.1200  205.7720  150.3580 C   0  0  1  0  0  3  0  0  0  0  0  0
  161.9220  205.7210  149.0640 C   0  0  0  0  0  2  0  0  0  0  0  0
  161.0360  206.5770  147.1010 C   0  0  0  0  0  2  0  0  0  0  0  0
  161.4140  202.8490  145.2610 O   0  0  0  0  0  0  0  0  0  0  0  0
  159.9630  201.7620  147.0460 C   0  0  0  0  0  2  0  0  0  0  0  0
  160.2580  206.3550  145.7990 C   0  0  0  0  0  2  0  0  0  0  0  0
  162.0320  203.0280  147.9750 C   0  0  0  0  0  2  0  0  0  0  0  0
  160.8300  202.1200  148.2610 C   0  0  0  0  0  2  0  0  0  0  0  0
  161.7320  204.3020  147.1580 C   0  0  1  0  0  3  0  0  0  0  0  0
  160.7100  201.6870  145.6880 C   0  0  0  0  0  2  0  0  0  0  0  0
  160.9060  203.9840  145.9120 C   0  0  1  0  0  3  0  0  0  0  0  0
  161.0710  205.3670  147.9330 N   0  0  0  0  0  0  0  0  0  0  0  0
  160.8660  205.2000  145.0090 C   0  0  0  0  0  2  0  0  0  0  0  0
  161.2630  208.2800  150.8130 C   0  0  0  0  0  2  0  0  0  0  0  0
  161.8640  209.3710  151.6930 C   0  0  0  0  0  2  0  0  0  0  0  0
  160.8120  210.4180  152.0100 C   0  0  0  0  0  2  0  0  0  0  0  0
  160.8100  210.9460  156.2800 C   0  0  0  0  0  2  0  0  0  0  0  0
  160.8620  210.8290  153.4730 C   0  0  0  0  0  3  0  0  0  0  0  0
  162.0900  210.2380  154.1660 C   0  0  0  0  0  2  0  0  0  0  0  0
  162.1770  210.7030  155.6260 C   0  0  0  0  0  2  0  0  0  0  0  0
  159.7330  210.0680  155.6530 C   0  0  0  0  0  2  0  0  0  0  0  0
  159.5640  210.3840  154.1620 C   0  0  0  0  0  2  0  0  0  0  0  0
  1  2  1  0  0  0  0
  3  1  1  0  0  0  0
  4  2  1  0  0  0  0
  5 19  1  6  0  0  0
  5  4  1  0  0  0  0
  6  7  1  6  0  0  0
  6  3  1  0  0  0  0
  6  5  1  0  0  0  0
  8 17  1  0  0  0  0
  9 15  1  0  0  0  0
  9 16  1  0  0  0  0
 10 13  1  0  0  0  0
 11  8  1  0  0  0  0
 12 13  1  0  0  0  0
 14 17  1  0  0  0  0
 14 12  1  1  0  0  0
 15 10  1  0  0  0  0
 16 18  1  6  0  0  0
 16 14  1  0  0  0  0
 17  7  1  0  0  0  0
 18 11  1  0  0  0  0
 19 20  1  0  0  0  0
 20 21  1  0  0  0  0
 21 23  1  0  0  0  0
 23 27  1  0  0  0  0
 23 24  1  0  0  0  0
 24 25  1  0  0  0  0
 25 22  1  0  0  0  0
 26 22  1  0  0  0  0
 27 26  1  0  0  0  0
M  END
>  <MODEL>
9

>  <REMARK>
 VINA RESULT:      -7.1      2.660      9.020
  Name = 
  6 active torsions:
  status: ('A' for Active; 'I' for Inactive)
    1  A    between atoms: C_1  and  C_15
    2  A    between atoms: C_1  and  C_18
    3  A    between atoms: C_3  and  N_19
    4  A    between atoms: C_3  and  C_26
    5  A    between atoms: C_9  and  C_15
    6  A    between atoms: C_18  and  C_24
                            x       y       z     vdW  Elec       q    Type
                         _______ _______ _______ _____ _____    ______ ____

>  <TORSDO>
F 6

$$$$
