=
 OpenBabel11052421593D

 30 34  0  0  1  0  0  0  0  0999 V2000
  161.3410  203.3230  147.7500 C   0  0  0  0  0  0  0  0  0  0  0  0
  159.8340  202.1040  148.5880 C   0  0  2  0  0  3  0  0  0  0  0  0
  161.8650  203.9150  152.5150 C   0  0  0  0  0  2  0  0  0  0  0  0
  160.1300  206.2640  149.2680 C   0  0  0  0  0  2  0  0  0  0  0  0
  162.4550  204.0830  147.2800 N   0  0  0  0  0  2  0  0  0  0  0  0
  161.4730  206.4590  147.1240 C   0  0  2  0  0  3  0  0  0  0  0  0
  163.7600  205.9760  147.5530 O   0  0  0  0  0  0  0  0  0  0  0  0
  161.6850  207.5890  151.3920 N   0  0  0  0  0  0  0  0  0  0  0  0
  162.1660  205.3700  152.3500 C   0  0  0  0  0  0  0  0  0  0  0  0
  162.6100  205.5020  147.3680 C   0  0  0  0  0  0  0  0  0  0  0  0
  160.8550  207.2020  148.3160 C   0  0  2  0  0  3  0  0  0  0  0  0
  160.0680  201.0010  149.6340 C   0  0  0  0  0  2  0  0  0  0  0  0
  162.4120  207.8980  150.2450 O   0  0  0  0  0  0  0  0  0  0  0  0
  160.6400  201.7680  147.1330 S   0  0  0  0  0  0  0  0  0  0  0  0
  161.6940  203.2480  151.1500 C   0  0  1  0  0  3  0  0  0  0  0  0
  161.3600  201.0570  150.1820 O   0  0  0  0  0  0  0  0  0  0  0  0
  160.5960  203.3310  148.9320 C   0  0  0  0  0  0  0  0  0  0  0  0
  161.1350  205.4920  150.0960 C   0  0  1  0  0  3  0  0  0  0  0  0
  163.0850  205.8820  152.9700 O   0  0  0  0  0  0  0  0  0  0  0  0
  161.2700  206.1780  151.4560 C   0  0  2  0  0  3  0  0  0  0  0  0
  162.2980  209.0920  148.2930 O   0  0  0  0  0  0  0  0  0  0  0  0
  161.2360  201.8010  151.3660 C   0  0  0  0  0  2  0  0  0  0  0  0
  160.7060  204.0290  150.2540 C   0  0  2  0  0  3  0  0  0  0  0  0
  161.8600  208.1240  148.9670 C   0  0  0  0  0  0  0  0  0  0  0  0
  160.5930  206.2060  145.9010 C   0  0  0  0  0  2  0  0  0  0  0  0
  160.3230  204.1310  144.3330 C   0  0  0  0  0  1  0  0  0  0  0  0
  161.5090  205.4910  144.5000 S   0  0  0  0  0  0  0  0  0  0  0  0
  160.5110  208.4490  151.5050 C   0  0  0  0  0  2  0  0  0  0  0  0
  160.8970  209.1830  153.5490 C   0  0  0  0  0  1  0  0  0  0  0  0
  160.8380  209.6000  152.2200 O   0  0  0  0  0  0  0  0  0  0  0  0
  1 17  2  0  0  0  0
  2 17  1  0  0  0  0
  2 12  1  1  0  0  0
  5 10  1  0  0  0  0
  5  1  1  0  0  0  0
  6 25  1  1  0  0  0
  6 10  1  0  0  0  0
  6 11  1  0  0  0  0
  8 20  1  0  0  0  0
  8 28  1  0  0  0  0
  9  3  1  0  0  0  0
  9 19  2  0  0  0  0
 10  7  2  0  0  0  0
 11 24  1  0  0  0  0
 11  4  1  1  0  0  0
 12 16  1  0  0  0  0
 13  8  1  0  0  0  0
 14  1  1  0  0  0  0
 14  2  1  0  0  0  0
 15 22  1  1  0  0  0
 15  3  1  0  0  0  0
 16 22  1  0  0  0  0
 18  4  1  6  0  0  0
 18 23  1  0  0  0  0
 18 20  1  0  0  0  0
 20  9  1  1  0  0  0
 21 24  2  0  0  0  0
 23 17  1  6  0  0  0
 23 15  1  0  0  0  0
 24 13  1  0  0  0  0
 26 27  1  0  0  0  0
 27 25  1  0  0  0  0
 28 30  1  0  0  0  0
 30 29  1  0  0  0  0
M  END
>  <MODEL>
1

>  <REMARK>
 VINA RESULT:      -5.5      0.000      0.000
  Name = 
  4 active torsions:
  status: ('A' for Active; 'I' for Inactive)
    1  A    between atoms: C_6  and  C_8
    2  A    between atoms: C_6  and  S_21
    3  A    between atoms: C_7  and  N_10
    4  A    between atoms: C_7  and  O_26
                            x       y       z     vdW  Elec       q    Type
                         _______ _______ _______ _____ _____    ______ ____

>  <TORSDO>
F 4

$$$$
=
 OpenBabel11052421593D

 30 34  0  0  1  0  0  0  0  0999 V2000
  158.6390  213.2370  154.4790 C   0  0  0  0  0  0  0  0  0  0  0  0
  157.3600  213.3000  152.8010 C   0  0  2  0  0  3  0  0  0  0  0  0
  161.2390  211.2210  150.9420 C   0  0  0  0  0  2  0  0  0  0  0  0
  158.9860  209.7310  154.3740 C   0  0  0  0  0  2  0  0  0  0  0  0
  159.6120  213.2530  155.5260 N   0  0  0  0  0  2  0  0  0  0  0  0
  159.3110  210.9260  156.5890 C   0  0  2  0  0  3  0  0  0  0  0  0
  161.3550  212.1380  156.5640 O   0  0  0  0  0  0  0  0  0  0  0  0
  161.5710  208.5140  153.6540 N   0  0  0  0  0  0  0  0  0  0  0  0
  161.8110  210.2050  151.8760 C   0  0  0  0  0  0  0  0  0  0  0  0
  160.1530  212.1100  156.1950 C   0  0  0  0  0  0  0  0  0  0  0  0
  159.4650  209.6110  155.8120 C   0  0  2  0  0  3  0  0  0  0  0  0
  157.7120  213.9290  151.4430 C   0  0  0  0  0  2  0  0  0  0  0  0
  161.8070  208.9880  154.9430 O   0  0  0  0  0  0  0  0  0  0  0  0
  157.3670  214.4530  154.0460 S   0  0  0  0  0  0  0  0  0  0  0  0
  160.3460  212.2020  151.7040 C   0  0  1  0  0  3  0  0  0  0  0  0
  159.0800  214.2290  151.3380 O   0  0  0  0  0  0  0  0  0  0  0  0
  158.4870  212.4810  153.3150 C   0  0  0  0  0  0  0  0  0  0  0  0
  160.0050  210.4930  153.5530 C   0  0  1  0  0  3  0  0  0  0  0  0
  163.0030  209.9430  151.8440 O   0  0  0  0  0  0  0  0  0  0  0  0
  160.8690  209.4830  152.7970 C   0  0  2  0  0  3  0  0  0  0  0  0
  161.2040  208.6660  157.1300 O   0  0  0  0  0  0  0  0  0  0  0  0
  159.6600  213.1260  150.6910 C   0  0  0  0  0  2  0  0  0  0  0  0
  159.3160  211.4640  152.5890 C   0  0  2  0  0  3  0  0  0  0  0  0
  160.8520  209.0350  155.9790 C   0  0  0  0  0  0  0  0  0  0  0  0
  157.9690  211.2100  157.2600 C   0  0  0  0  0  2  0  0  0  0  0  0
  155.7190  212.5050  156.9500 C   0  0  0  0  0  1  0  0  0  0  0  0
  156.5660  211.1450  156.1030 S   0  0  0  0  0  0  0  0  0  0  0  0
  160.8210  207.2630  153.6930 C   0  0  0  0  0  2  0  0  0  0  0  0
  162.1030  206.0440  152.3760 C   0  0  0  0  0  1  0  0  0  0  0  0
  160.8520  206.6560  152.4380 O   0  0  0  0  0  0  0  0  0  0  0  0
  1  5  1  0  0  0  0
  2 12  1  6  0  0  0
  2 17  1  0  0  0  0
  2 14  1  0  0  0  0
  3 15  1  0  0  0  0
  3  9  1  0  0  0  0
  5 10  1  0  0  0  0
  6 25  1  6  0  0  0
  8 28  1  0  0  0  0
  8 13  1  0  0  0  0
 10  7  2  0  0  0  0
 10  6  1  0  0  0  0
 11  4  1  6  0  0  0
 11 24  1  0  0  0  0
 11  6  1  0  0  0  0
 13 24  1  0  0  0  0
 14  1  1  0  0  0  0
 15 22  1  6  0  0  0
 15 23  1  0  0  0  0
 16 12  1  0  0  0  0
 17  1  2  0  0  0  0
 18  4  1  6  0  0  0
 19  9  2  0  0  0  0
 20  9  1  1  0  0  0
 20 18  1  0  0  0  0
 20  8  1  0  0  0  0
 22 16  1  0  0  0  0
 23 17  1  1  0  0  0
 23 18  1  0  0  0  0
 24 21  2  0  0  0  0
 27 26  1  0  0  0  0
 27 25  1  0  0  0  0
 29 30  1  0  0  0  0
 30 28  1  0  0  0  0
M  END
>  <MODEL>
2

>  <REMARK>
 VINA RESULT:      -3.4      5.587      9.710
  Name = 
  4 active torsions:
  status: ('A' for Active; 'I' for Inactive)
    1  A    between atoms: C_6  and  C_8
    2  A    between atoms: C_6  and  S_21
    3  A    between atoms: C_7  and  N_10
    4  A    between atoms: C_7  and  O_26
                            x       y       z     vdW  Elec       q    Type
                         _______ _______ _______ _____ _____    ______ ____

>  <TORSDO>
F 4

$$$$
