=
 OpenBabel11062409323D

 34 38  0  0  1  0  0  0  0  0999 V2000
  161.4560  210.2340  152.5090 C   0  0  1  0  0  0  0  0  0  0  0  0
  159.0870  213.0180  151.0720 C   0  0  0  0  0  2  0  0  0  0  0  0
  159.8350  212.5280  153.3150 O   0  0  0  0  0  0  0  0  0  0  0  0
  162.7870  209.8680  152.2890 O   0  0  0  0  0  1  0  0  0  0  0  0
  161.4960  209.5500  154.9700 C   0  0  0  0  0  2  0  0  0  0  0  0
  160.3050  210.9590  156.6590 C   0  0  0  0  0  3  0  0  0  0  0  0
  161.0520  209.8870  156.3690 C   0  0  0  0  0  3  0  0  0  0  0  0
  159.9710  211.4420  154.2050 C   0  0  1  0  0  3  0  0  0  0  0  0
  161.3150  210.7090  153.9750 C   0  0  2  0  0  3  0  0  0  0  0  0
  159.9290  211.9890  155.6290 C   0  0  0  0  0  2  0  0  0  0  0  0
  160.0770  213.8710  150.2870 C   0  0  0  0  0  2  0  0  0  0  0  0
  160.6080  213.0690  149.1000 C   0  0  2  0  0  3  0  0  0  0  0  0
  161.7200  212.3020  149.4770 O   0  0  0  0  0  0  0  0  0  0  0  0
  159.7280  211.9940  152.0210 C   0  0  2  0  0  3  0  0  0  0  0  0
  161.2190  211.1540  150.1020 C   0  0  0  0  0  2  0  0  0  0  0  0
  161.0960  211.4240  151.6010 C   0  0  2  0  0  3  0  0  0  0  0  0
  160.9940  213.9980  147.9990 C   0  0  0  0  0  0  0  0  0  0  0  0
  162.3120  214.4180  147.8620 O   0  0  0  0  0  1  0  0  0  0  0  0
  160.1180  214.4140  147.1980 O   0  0  0  0  0  0  0  0  0  0  0  0
  160.5250  209.0290  152.2550 C   0  0  0  0  0  2  0  0  0  0  0  0
  161.2690  207.7680  151.8290 C   0  0  0  0  0  2  0  0  0  0  0  0
  161.7150  207.5110  148.0380 C   0  0  0  0  0  2  0  0  0  0  0  0
  160.7770  205.9290  150.2300 C   0  0  0  0  0  3  0  0  0  0  0  0
  161.9940  203.9420  146.7100 C   0  0  1  0  0  3  0  0  0  0  0  0
  162.4440  205.3840  146.9500 C   0  0  0  0  0  2  0  0  0  0  0  0
  161.6540  206.0510  147.9840 N   0  0  0  0  0  0  0  0  0  0  0  0
  160.8310  203.8430  148.9680 C   0  0  0  0  0  2  0  0  0  0  0  0
  161.1000  205.3090  149.0920 C   0  0  0  0  0  0  0  0  0  0  0  0
  161.8260  203.1720  148.0260 C   0  0  0  0  0  2  0  0  0  0  0  0
  160.9340  207.4190  150.3900 C   0  0  2  0  0  3  0  0  0  0  0  0
  162.0160  207.9640  149.4620 C   0  0  0  0  0  2  0  0  0  0  0  0
  160.8290  203.8270  145.7150 C   0  0  0  0  0  3  0  0  0  0  0  0
  161.0500  204.7240  144.5110 C   0  0  0  0  0  1  0  0  0  0  0  0
  160.5440  202.4050  145.2610 C   0  0  0  0  0  1  0  0  0  0  0  0
  1  4  1  6  0  0  0
  1  9  1  0  0  0  0
  3  8  1  0  0  0  0
  5  7  1  0  0  0  0
  7  6  2  0  0  0  0
  8 10  1  1  0  0  0
  9  8  1  0  0  0  0
  9  5  1  1  0  0  0
 10  6  1  0  0  0  0
 11  2  1  0  0  0  0
 12 17  1  6  0  0  0
 12 13  1  0  0  0  0
 12 11  1  0  0  0  0
 13 15  1  0  0  0  0
 14  2  1  6  0  0  0
 14  3  1  0  0  0  0
 16 15  1  6  0  0  0
 16 14  1  0  0  0  0
 16  1  1  0  0  0  0
 18 17  1  0  0  0  0
 19 17  2  0  0  0  0
 20  1  1  0  0  0  0
 21 20  1  0  0  0  0
 22 31  1  0  0  0  0
 23 30  1  0  0  0  0
 24 32  1  1  0  0  0
 24 25  1  0  0  0  0
 24 29  1  0  0  0  0
 25 26  1  0  0  0  0
 26 22  1  0  0  0  0
 26 28  1  0  0  0  0
 27 28  1  0  0  0  0
 28 23  2  0  0  0  0
 29 27  1  0  0  0  0
 30 21  1  1  0  0  0
 31 30  1  0  0  0  0
 33 32  1  0  0  0  0
 34 32  1  0  0  0  0
M  END
>  <MODEL>
1

>  <REMARK>
 VINA RESULT:      -8.0      0.000      0.000
  Name = 
  5 active torsions:
  status: ('A' for Active; 'I' for Inactive)
    1  A    between atoms: C_1  and  C_8
    2  A    between atoms: C_3  and  C_25
    3  A    between atoms: C_7  and  C_11
    4  A    between atoms: C_8  and  C_18
    5  A    between atoms: C_18  and  C_30
                            x       y       z     vdW  Elec       q    Type
                         _______ _______ _______ _____ _____    ______ ____

>  <TORSDO>
F 5

$$$$
=
 OpenBabel11062409323D

 34 38  0  0  1  0  0  0  0  0999 V2000
  161.4190  210.3910  152.9210 C   0  0  1  0  0  0  0  0  0  0  0  0
  159.3010  212.7780  150.6340 C   0  0  0  0  0  2  0  0  0  0  0  0
  159.6970  212.7490  153.0150 O   0  0  0  0  0  0  0  0  0  0  0  0
  162.7680  210.0270  152.9780 O   0  0  0  0  0  1  0  0  0  0  0  0
  161.0840  210.1940  155.4460 C   0  0  0  0  0  2  0  0  0  0  0  0
  159.6500  211.8670  156.6320 C   0  0  0  0  0  3  0  0  0  0  0  0
  160.4320  210.7800  156.6710 C   0  0  0  0  0  3  0  0  0  0  0  0
  159.6950  211.8600  154.1090 C   0  0  1  0  0  3  0  0  0  0  0  0
  161.0570  211.1340  154.2290 C   0  0  2  0  0  3  0  0  0  0  0  0
  159.4380  212.6690  155.3770 C   0  0  0  0  0  2  0  0  0  0  0  0
  160.4000  213.4920  149.8550 C   0  0  0  0  0  2  0  0  0  0  0  0
  161.1050  212.4930  148.9390 C   0  0  2  0  0  3  0  0  0  0  0  0
  162.1450  211.8440  149.6200 O   0  0  0  0  0  0  0  0  0  0  0  0
  159.7890  211.9740  151.8480 C   0  0  2  0  0  3  0  0  0  0  0  0
  161.5530  210.8230  150.3740 C   0  0  0  0  0  2  0  0  0  0  0  0
  161.2040  211.3730  151.7560 C   0  0  2  0  0  3  0  0  0  0  0  0
  161.6540  213.2030  147.7490 C   0  0  0  0  0  0  0  0  0  0  0  0
  161.1260  212.9690  146.4850 O   0  0  0  0  0  0  0  0  0  0  0  0
  162.6100  214.0080  147.8890 O   0  0  0  0  0  1  0  0  0  0  0  0
  160.5370  209.1330  152.7700 C   0  0  0  0  0  2  0  0  0  0  0  0
  161.1000  207.9080  153.4800 C   0  0  0  0  0  2  0  0  0  0  0  0
  161.6890  204.6320  151.5940 C   0  0  0  0  0  2  0  0  0  0  0  0
  161.4790  207.4370  151.0690 C   0  0  0  0  0  3  0  0  0  0  0  0
  160.7950  204.7520  147.8850 C   0  0  1  0  0  3  0  0  0  0  0  0
  160.7240  204.2400  149.3240 C   0  0  0  0  0  2  0  0  0  0  0  0
  161.3450  205.1600  150.2750 N   0  0  0  0  0  0  0  0  0  0  0  0
  161.1930  207.1380  148.6650 C   0  0  0  0  0  2  0  0  0  0  0  0
  161.3290  206.5870  150.0490 C   0  0  0  0  0  0  0  0  0  0  0  0
  160.3570  206.2190  147.7800 C   0  0  0  0  0  2  0  0  0  0  0  0
  161.7140  206.9500  152.4750 C   0  0  2  0  0  3  0  0  0  0  0  0
  161.1400  205.5510  152.6800 C   0  0  0  0  0  2  0  0  0  0  0  0
  162.1110  204.3950  147.1770 C   0  0  0  0  0  3  0  0  0  0  0  0
  162.0110  203.0460  146.4880 C   0  0  0  0  0  1  0  0  0  0  0  0
  162.5860  205.4490  146.1910 C   0  0  0  0  0  1  0  0  0  0  0  0
  1  4  1  1  0  0  0
  1  9  1  0  0  0  0
  3  8  1  0  0  0  0
  5  7  1  0  0  0  0
  6  7  2  0  0  0  0
  8  9  1  0  0  0  0
  8 10  1  1  0  0  0
  9  5  1  1  0  0  0
 10  6  1  0  0  0  0
 11  2  1  0  0  0  0
 12 17  1  6  0  0  0
 12 13  1  0  0  0  0
 12 11  1  0  0  0  0
 13 15  1  0  0  0  0
 14  2  1  6  0  0  0
 14  3  1  0  0  0  0
 16 15  1  6  0  0  0
 16 14  1  0  0  0  0
 16  1  1  0  0  0  0
 17 19  1  0  0  0  0
 18 17  2  0  0  0  0
 20  1  1  0  0  0  0
 20 21  1  0  0  0  0
 22 31  1  0  0  0  0
 23 30  1  0  0  0  0
 24 32  1  1  0  0  0
 24 25  1  0  0  0  0
 25 26  1  0  0  0  0
 26 22  1  0  0  0  0
 27 28  1  0  0  0  0
 28 26  1  0  0  0  0
 28 23  2  0  0  0  0
 29 24  1  0  0  0  0
 29 27  1  0  0  0  0
 30 31  1  0  0  0  0
 30 21  1  1  0  0  0
 33 32  1  0  0  0  0
 34 32  1  0  0  0  0
M  END
>  <MODEL>
2

>  <REMARK>
 VINA RESULT:      -6.9      1.101      2.039
  Name = 
  5 active torsions:
  status: ('A' for Active; 'I' for Inactive)
    1  A    between atoms: C_1  and  C_8
    2  A    between atoms: C_3  and  C_25
    3  A    between atoms: C_7  and  C_11
    4  A    between atoms: C_8  and  C_18
    5  A    between atoms: C_18  and  C_30
                            x       y       z     vdW  Elec       q    Type
                         _______ _______ _______ _____ _____    ______ ____

>  <TORSDO>
F 5

$$$$
=
 OpenBabel11062409323D

 34 38  0  0  1  0  0  0  0  0999 V2000
  161.4120  210.4490  152.6070 C   0  0  1  0  0  0  0  0  0  0  0  0
  159.1320  213.0800  150.7900 C   0  0  0  0  0  2  0  0  0  0  0  0
  159.7280  212.7830  153.1100 O   0  0  0  0  0  0  0  0  0  0  0  0
  162.7570  210.0800  152.5070 O   0  0  0  0  0  1  0  0  0  0  0  0
  161.2880  209.9680  155.1130 C   0  0  0  0  0  2  0  0  0  0  0  0
  159.9770  211.4980  156.5960 C   0  0  0  0  0  3  0  0  0  0  0  0
  160.7480  210.4130  156.4460 C   0  0  0  0  0  3  0  0  0  0  0  0
  159.8090  211.7760  154.0940 C   0  0  1  0  0  3  0  0  0  0  0  0
  161.1690  211.0400  154.0160 C   0  0  2  0  0  3  0  0  0  0  0  0
  159.6680  212.4360  155.4620 C   0  0  0  0  0  2  0  0  0  0  0  0
  160.1690  213.8770  150.0060 C   0  0  0  0  0  2  0  0  0  0  0  0
  160.7840  212.9870  148.9270 C   0  0  2  0  0  3  0  0  0  0  0  0
  161.8710  212.2650  149.4390 O   0  0  0  0  0  0  0  0  0  0  0  0
  159.7130  212.1440  151.8600 C   0  0  2  0  0  3  0  0  0  0  0  0
  161.3350  211.1660  150.1220 C   0  0  0  0  0  2  0  0  0  0  0  0
  161.1090  211.5570  151.5820 C   0  0  2  0  0  3  0  0  0  0  0  0
  161.2380  213.8270  147.7820 C   0  0  0  0  0  0  0  0  0  0  0  0
  162.5910  213.9330  147.4820 O   0  0  0  0  0  1  0  0  0  0  0  0
  160.3930  214.4530  147.0930 O   0  0  0  0  0  0  0  0  0  0  0  0
  160.5070  209.2170  152.3900 C   0  0  0  0  0  2  0  0  0  0  0  0
  161.2830  207.9140  152.2410 C   0  0  0  0  0  2  0  0  0  0  0  0
  160.8560  206.4710  148.7240 C   0  0  0  0  0  2  0  0  0  0  0  0
  160.8030  205.6060  151.4510 C   0  0  0  0  0  3  0  0  0  0  0  0
  161.5180  202.7210  148.4540 C   0  0  1  0  0  3  0  0  0  0  0  0
  161.7150  204.2020  148.1290 C   0  0  0  0  0  2  0  0  0  0  0  0
  161.0770  205.0780  149.1100 N   0  0  0  0  0  0  0  0  0  0  0  0
  160.9710  203.2400  150.8810 C   0  0  0  0  0  2  0  0  0  0  0  0
  160.9630  204.6860  150.4960 C   0  0  0  0  0  0  0  0  0  0  0  0
  161.8270  202.4150  149.9250 C   0  0  0  0  0  2  0  0  0  0  0  0
  160.6930  207.0730  151.1240 C   0  0  2  0  0  3  0  0  0  0  0  0
  161.3900  207.4010  149.8070 C   0  0  0  0  0  2  0  0  0  0  0  0
  160.1970  202.1510  147.9150 C   0  0  0  0  0  3  0  0  0  0  0  0
  160.4210  201.3790  146.6280 C   0  0  0  0  0  1  0  0  0  0  0  0
  159.4450  201.2890  148.9150 C   0  0  0  0  0  1  0  0  0  0  0  0
  1  4  1  6  0  0  0
  1  9  1  0  0  0  0
  3  8  1  0  0  0  0
  5  7  1  0  0  0  0
  7  6  2  0  0  0  0
  8 10  1  1  0  0  0
  9  8  1  0  0  0  0
  9  5  1  1  0  0  0
 10  6  1  0  0  0  0
 11  2  1  0  0  0  0
 12 17  1  6  0  0  0
 12 13  1  0  0  0  0
 12 11  1  0  0  0  0
 13 15  1  0  0  0  0
 14  2  1  6  0  0  0
 14  3  1  0  0  0  0
 16 15  1  6  0  0  0
 16 14  1  0  0  0  0
 16  1  1  0  0  0  0
 18 17  1  0  0  0  0
 19 17  2  0  0  0  0
 20  1  1  0  0  0  0
 21 20  1  0  0  0  0
 22 26  1  0  0  0  0
 22 31  1  0  0  0  0
 24 32  1  1  0  0  0
 24 29  1  0  0  0  0
 25 24  1  0  0  0  0
 25 26  1  0  0  0  0
 26 28  1  0  0  0  0
 28 27  1  0  0  0  0
 28 23  2  0  0  0  0
 29 27  1  0  0  0  0
 30 23  1  0  0  0  0
 30 21  1  1  0  0  0
 31 30  1  0  0  0  0
 32 34  1  0  0  0  0
 33 32  1  0  0  0  0
M  END
>  <MODEL>
3

>  <REMARK>
 VINA RESULT:      -6.4      1.132      1.432
  Name = 
  5 active torsions:
  status: ('A' for Active; 'I' for Inactive)
    1  A    between atoms: C_1  and  C_8
    2  A    between atoms: C_3  and  C_25
    3  A    between atoms: C_7  and  C_11
    4  A    between atoms: C_8  and  C_18
    5  A    between atoms: C_18  and  C_30
                            x       y       z     vdW  Elec       q    Type
                         _______ _______ _______ _____ _____    ______ ____

>  <TORSDO>
F 5

$$$$
=
 OpenBabel11062409323D

 34 38  0  0  1  0  0  0  0  0999 V2000
  162.0380  206.5700  151.3260 C   0  0  1  0  0  0  0  0  0  0  0  0
  160.0800  205.3840  148.1360 C   0  0  0  0  0  2  0  0  0  0  0  0
  161.3100  207.4030  148.6220 O   0  0  0  0  0  0  0  0  0  0  0  0
  163.1230  206.0710  152.0540 O   0  0  0  0  0  1  0  0  0  0  0  0
  162.6310  209.0110  151.7890 C   0  0  0  0  0  2  0  0  0  0  0  0
  162.3500  210.7120  149.9760 C   0  0  0  0  0  3  0  0  0  0  0  0
  162.7060  210.4080  151.2300 C   0  0  0  0  0  3  0  0  0  0  0  0
  161.4400  208.3850  149.6260 C   0  0  1  0  0  3  0  0  0  0  0  0
  162.4460  207.9300  150.7110 C   0  0  2  0  0  3  0  0  0  0  0  0
  161.9450  209.6680  148.9720 C   0  0  0  0  0  2  0  0  0  0  0  0
  160.9700  204.2460  147.6490 C   0  0  0  0  0  2  0  0  0  0  0  0
  160.9280  203.1000  148.6600 C   0  0  2  0  0  3  0  0  0  0  0  0
  161.8880  203.2900  149.6640 O   0  0  0  0  0  0  0  0  0  0  0  0
  160.7090  206.2800  149.2120 C   0  0  2  0  0  3  0  0  0  0  0  0
  161.3350  204.1950  150.5790 C   0  0  0  0  0  2  0  0  0  0  0  0
  161.7210  205.6130  150.1630 C   0  0  2  0  0  3  0  0  0  0  0  0
  161.1840  201.8070  147.9640 C   0  0  0  0  0  0  0  0  0  0  0  0
  160.9810  201.6940  146.5940 O   0  0  0  0  0  0  0  0  0  0  0  0
  161.5720  200.8090  148.6240 O   0  0  0  0  0  1  0  0  0  0  0  0
  160.8180  206.7570  152.2530 C   0  0  0  0  0  2  0  0  0  0  0  0
  161.1360  206.5350  153.7260 C   0  0  0  0  0  2  0  0  0  0  0  0
  160.5830  209.0930  156.5160 C   0  0  0  0  0  2  0  0  0  0  0  0
  159.9530  208.7200  153.7490 C   0  0  0  0  0  3  0  0  0  0  0  0
  159.8990  212.6470  155.3000 C   0  0  1  0  0  3  0  0  0  0  0  0
  160.6390  211.5490  156.0660 C   0  0  0  0  0  2  0  0  0  0  0  0
  160.2570  210.2080  155.6280 N   0  0  0  0  0  0  0  0  0  0  0  0
  159.3300  211.0530  153.4030 C   0  0  0  0  0  2  0  0  0  0  0  0
  159.8720  209.9530  154.2590 C   0  0  0  0  0  0  0  0  0  0  0  0
  159.9290  212.4030  153.7850 C   0  0  0  0  0  2  0  0  0  0  0  0
  160.4020  207.5490  154.5830 C   0  0  2  0  0  3  0  0  0  0  0  0
  161.3000  207.9990  155.7330 C   0  0  0  0  0  2  0  0  0  0  0  0
  158.5230  212.9820  155.8950 C   0  0  0  0  0  3  0  0  0  0  0  0
  158.6640  213.6630  157.2440 C   0  0  0  0  0  1  0  0  0  0  0  0
  157.6420  213.8160  154.9800 C   0  0  0  0  0  1  0  0  0  0  0  0
  1  4  1  1  0  0  0
  1 20  1  0  0  0  0
  3 14  1  0  0  0  0
  3  8  1  0  0  0  0
  6  7  2  0  0  0  0
  7  5  1  0  0  0  0
  8 10  1  6  0  0  0
  8  9  1  0  0  0  0
  9  1  1  0  0  0  0
  9  5  1  1  0  0  0
 10  6  1  0  0  0  0
 11  2  1  0  0  0  0
 11 12  1  0  0  0  0
 12 17  1  6  0  0  0
 12 13  1  0  0  0  0
 13 15  1  0  0  0  0
 14  2  1  6  0  0  0
 14 16  1  0  0  0  0
 16 15  1  1  0  0  0
 16  1  1  0  0  0  0
 17 19  1  0  0  0  0
 18 17  2  0  0  0  0
 20 21  1  0  0  0  0
 23 28  2  0  0  0  0
 23 30  1  0  0  0  0
 24 32  1  1  0  0  0
 24 25  1  0  0  0  0
 26 25  1  0  0  0  0
 26 22  1  0  0  0  0
 27 29  1  0  0  0  0
 27 28  1  0  0  0  0
 28 26  1  0  0  0  0
 29 24  1  0  0  0  0
 30 21  1  6  0  0  0
 30 31  1  0  0  0  0
 31 22  1  0  0  0  0
 32 33  1  0  0  0  0
 34 32  1  0  0  0  0
M  END
>  <MODEL>
4

>  <REMARK>
 VINA RESULT:      -6.1      3.579      8.903
  Name = 
  5 active torsions:
  status: ('A' for Active; 'I' for Inactive)
    1  A    between atoms: C_1  and  C_8
    2  A    between atoms: C_3  and  C_25
    3  A    between atoms: C_7  and  C_11
    4  A    between atoms: C_8  and  C_18
    5  A    between atoms: C_18  and  C_30
                            x       y       z     vdW  Elec       q    Type
                         _______ _______ _______ _____ _____    ______ ____

>  <TORSDO>
F 5

$$$$
=
 OpenBabel11062409323D

 34 38  0  0  1  0  0  0  0  0999 V2000
  161.4730  209.0150  153.0130 C   0  0  1  0  0  0  0  0  0  0  0  0
  158.9070  211.8820  152.2300 C   0  0  0  0  0  2  0  0  0  0  0  0
  159.7760  211.0110  154.3060 O   0  0  0  0  0  0  0  0  0  0  0  0
  162.8110  208.7770  152.6800 O   0  0  0  0  0  1  0  0  0  0  0  0
  161.6580  207.8710  155.2890 C   0  0  0  0  0  2  0  0  0  0  0  0
  160.4720  208.8540  157.2610 C   0  0  0  0  0  3  0  0  0  0  0  0
  161.2600  207.9030  156.7410 C   0  0  0  0  0  3  0  0  0  0  0  0
  160.0060  209.7830  154.9620 C   0  0  1  0  0  3  0  0  0  0  0  0
  161.3740  209.1880  154.5470 C   0  0  2  0  0  3  0  0  0  0  0  0
  160.0000  210.0400  156.4660 C   0  0  0  0  0  2  0  0  0  0  0  0
  159.8170  212.9270  151.5950 C   0  0  0  0  0  2  0  0  0  0  0  0
  160.3340  212.4040  150.2560 C   0  0  2  0  0  3  0  0  0  0  0  0
  161.4990  211.6440  150.4380 O   0  0  0  0  0  0  0  0  0  0  0  0
  159.6400  210.7330  152.9380 C   0  0  2  0  0  3  0  0  0  0  0  0
  161.0850  210.3680  150.8420 C   0  0  0  0  0  2  0  0  0  0  0  0
  161.0150  210.3360  152.3680 C   0  0  2  0  0  3  0  0  0  0  0  0
  160.6230  213.5490  149.3460 C   0  0  0  0  0  0  0  0  0  0  0  0
  161.9330  213.8610  149.0030 O   0  0  0  0  0  1  0  0  0  0  0  0
  159.6760  214.2440  148.8980 O   0  0  0  0  0  0  0  0  0  0  0  0
  160.5950  207.8300  152.5590 C   0  0  0  0  0  2  0  0  0  0  0  0
  161.3760  206.7370  151.8400 C   0  0  0  0  0  2  0  0  0  0  0  0
  162.0970  207.4320  148.1470 C   0  0  0  0  0  2  0  0  0  0  0  0
  160.8660  205.4340  149.7850 C   0  0  0  0  0  3  0  0  0  0  0  0
  162.1930  204.3220  145.9350 C   0  0  1  0  0  3  0  0  0  0  0  0
  162.7370  205.6010  146.5740 C   0  0  0  0  0  2  0  0  0  0  0  0
  161.9240  206.0500  147.7030 N   0  0  0  0  0  0  0  0  0  0  0  0
  160.8530  203.7520  148.0180 C   0  0  0  0  0  2  0  0  0  0  0  0
  161.2270  205.1020  148.5420 C   0  0  0  0  0  0  0  0  0  0  0  0
  161.8620  203.2560  146.9870 C   0  0  0  0  0  2  0  0  0  0  0  0
  161.1290  206.8080  150.3440 C   0  0  2  0  0  3  0  0  0  0  0  0
  162.3200  207.4680  149.6550 C   0  0  0  0  0  2  0  0  0  0  0  0
  161.1040  204.5840  144.8830 C   0  0  0  0  0  3  0  0  0  0  0  0
  160.0790  203.4650  144.8690 C   0  0  0  0  0  1  0  0  0  0  0  0
  160.4090  205.9270  145.0370 C   0  0  0  0  0  1  0  0  0  0  0  0
  1  4  1  6  0  0  0
  1  9  1  0  0  0  0
  3  8  1  0  0  0  0
  5  7  1  0  0  0  0
  7  6  2  0  0  0  0
  8 10  1  1  0  0  0
  9  8  1  0  0  0  0
  9  5  1  1  0  0  0
 10  6  1  0  0  0  0
 11  2  1  0  0  0  0
 12 17  1  6  0  0  0
 12 13  1  0  0  0  0
 12 11  1  0  0  0  0
 13 15  1  0  0  0  0
 14  2  1  6  0  0  0
 14  3  1  0  0  0  0
 16 15  1  6  0  0  0
 16 14  1  0  0  0  0
 16  1  1  0  0  0  0
 18 17  1  0  0  0  0
 19 17  2  0  0  0  0
 20  1  1  0  0  0  0
 21 20  1  0  0  0  0
 22 31  1  0  0  0  0
 23 30  1  0  0  0  0
 24 32  1  1  0  0  0
 24 25  1  0  0  0  0
 24 29  1  0  0  0  0
 25 26  1  0  0  0  0
 26 22  1  0  0  0  0
 26 28  1  0  0  0  0
 27 28  1  0  0  0  0
 28 23  2  0  0  0  0
 29 27  1  0  0  0  0
 30 21  1  1  0  0  0
 31 30  1  0  0  0  0
 32 34  1  0  0  0  0
 33 32  1  0  0  0  0
M  END
>  <MODEL>
5

>  <REMARK>
 VINA RESULT:      -6.1      1.121      1.473
  Name = 
  5 active torsions:
  status: ('A' for Active; 'I' for Inactive)
    1  A    between atoms: C_1  and  C_8
    2  A    between atoms: C_3  and  C_25
    3  A    between atoms: C_7  and  C_11
    4  A    between atoms: C_8  and  C_18
    5  A    between atoms: C_18  and  C_30
                            x       y       z     vdW  Elec       q    Type
                         _______ _______ _______ _____ _____    ______ ____

>  <TORSDO>
F 5

$$$$
=
 OpenBabel11062409323D

 34 38  0  0  1  0  0  0  0  0999 V2000
  160.8410  205.7270  149.2730 C   0  0  1  0  0  0  0  0  0  0  0  0
  162.6320  203.7300  146.4050 C   0  0  0  0  0  2  0  0  0  0  0  0
  161.5960  203.0220  148.4680 O   0  0  0  0  0  0  0  0  0  0  0  0
  159.7280  206.5720  149.3340 O   0  0  0  0  0  1  0  0  0  0  0  0
  160.4770  204.7970  151.6240 C   0  0  0  0  0  2  0  0  0  0  0  0
  160.8800  202.3680  152.0620 C   0  0  0  0  0  3  0  0  0  0  0  0
  160.5190  203.5780  152.5070 C   0  0  0  0  0  3  0  0  0  0  0  0
  161.5720  203.3430  149.8410 C   0  0  1  0  0  3  0  0  0  0  0  0
  160.5470  204.4690  150.1230 C   0  0  2  0  0  3  0  0  0  0  0  0
  161.1730  202.0890  150.6140 C   0  0  0  0  0  2  0  0  0  0  0  0
  161.6350  203.8950  145.2640 C   0  0  0  0  0  2  0  0  0  0  0  0
  161.5910  205.3610  144.8360 C   0  0  2  0  0  3  0  0  0  0  0  0
  160.6690  206.0760  145.6130 O   0  0  0  0  0  0  0  0  0  0  0  0
  162.1040  204.1400  147.7880 C   0  0  2  0  0  3  0  0  0  0  0  0
  161.3150  206.3870  146.8170 C   0  0  0  0  0  2  0  0  0  0  0  0
  161.0520  205.2650  147.8200 C   0  0  2  0  0  3  0  0  0  0  0  0
  161.2090  205.4540  143.3980 C   0  0  0  0  0  0  0  0  0  0  0  0
  161.9460  206.2440  142.5250 O   0  0  0  0  0  0  0  0  0  0  0  0
  160.2050  204.8240  142.9770 O   0  0  0  0  0  1  0  0  0  0  0  0
  162.0880  206.4530  149.8210 C   0  0  0  0  0  2  0  0  0  0  0  0
  161.9710  207.9720  149.7850 C   0  0  0  0  0  2  0  0  0  0  0  0
  161.6200  210.4070  152.7140 C   0  0  0  0  0  2  0  0  0  0  0  0
  161.7090  207.5890  152.2270 C   0  0  0  0  0  3  0  0  0  0  0  0
  159.9190  208.9430  155.8030 C   0  0  1  0  0  3  0  0  0  0  0  0
  160.1090  209.9220  154.6430 C   0  0  0  0  0  2  0  0  0  0  0  0
  161.0620  209.4310  153.6490 N   0  0  0  0  0  0  0  0  0  0  0  0
  160.8330  207.0100  154.4290 C   0  0  0  0  0  2  0  0  0  0  0  0
  161.2030  208.0170  153.3870 C   0  0  0  0  0  0  0  0  0  0  0  0
  159.6900  207.5100  155.3060 C   0  0  0  0  0  2  0  0  0  0  0  0
  162.1880  208.5510  151.1710 C   0  0  2  0  0  3  0  0  0  0  0  0
  161.4780  209.8970  151.2850 C   0  0  0  0  0  2  0  0  0  0  0  0
  160.9680  209.1060  156.9140 C   0  0  0  0  0  3  0  0  0  0  0  0
  161.6060  207.7730  157.2610 C   0  0  0  0  0  1  0  0  0  0  0  0
  162.0440  210.1330  156.5990 C   0  0  0  0  0  1  0  0  0  0  0  0
  1  4  1  1  0  0  0
  1 20  1  0  0  0  0
  1  9  1  0  0  0  0
  3  8  1  0  0  0  0
  5  7  1  0  0  0  0
  6  7  2  0  0  0  0
  8  9  1  0  0  0  0
  8 10  1  1  0  0  0
  9  5  1  1  0  0  0
 10  6  1  0  0  0  0
 11  2  1  0  0  0  0
 12 17  1  6  0  0  0
 12 11  1  0  0  0  0
 12 13  1  0  0  0  0
 13 15  1  0  0  0  0
 14  2  1  6  0  0  0
 14 16  1  0  0  0  0
 14  3  1  0  0  0  0
 16 15  1  6  0  0  0
 16  1  1  0  0  0  0
 18 17  2  0  0  0  0
 19 17  1  0  0  0  0
 21 20  1  0  0  0  0
 22 26  1  0  0  0  0
 23 28  2  0  0  0  0
 24 32  1  1  0  0  0
 25 24  1  0  0  0  0
 26 25  1  0  0  0  0
 27 29  1  0  0  0  0
 28 26  1  0  0  0  0
 28 27  1  0  0  0  0
 29 24  1  0  0  0  0
 30 21  1  6  0  0  0
 30 31  1  0  0  0  0
 30 23  1  0  0  0  0
 31 22  1  0  0  0  0
 32 33  1  0  0  0  0
 34 32  1  0  0  0  0
M  END
>  <MODEL>
6

>  <REMARK>
 VINA RESULT:      -5.6      3.663      8.484
  Name = 
  5 active torsions:
  status: ('A' for Active; 'I' for Inactive)
    1  A    between atoms: C_1  and  C_8
    2  A    between atoms: C_3  and  C_25
    3  A    between atoms: C_7  and  C_11
    4  A    between atoms: C_8  and  C_18
    5  A    between atoms: C_18  and  C_30
                            x       y       z     vdW  Elec       q    Type
                         _______ _______ _______ _____ _____    ______ ____

>  <TORSDO>
F 5

$$$$
=
 OpenBabel11062409323D

 34 38  0  0  1  0  0  0  0  0999 V2000
  161.8970  208.6790  151.0910 C   0  0  1  0  0  0  0  0  0  0  0  0
  160.1980  212.1240  150.2760 C   0  0  0  0  0  2  0  0  0  0  0  0
  160.6290  210.9850  152.3600 O   0  0  0  0  0  0  0  0  0  0  0  0
  163.1600  208.1270  150.8550 O   0  0  0  0  0  1  0  0  0  0  0  0
  161.5820  207.4400  153.3020 C   0  0  0  0  0  2  0  0  0  0  0  0
  160.4960  208.6130  155.2270 C   0  0  0  0  0  3  0  0  0  0  0  0
  161.0700  207.5150  154.7170 C   0  0  0  0  0  3  0  0  0  0  0  0
  160.4890  209.7150  152.9580 C   0  0  1  0  0  3  0  0  0  0  0  0
  161.7010  208.8130  152.6200 C   0  0  2  0  0  3  0  0  0  0  0  0
  160.4060  209.9090  154.4690 C   0  0  0  0  0  2  0  0  0  0  0  0
  161.3910  212.9320  149.7810 C   0  0  0  0  0  2  0  0  0  0  0  0
  161.8870  212.3470  148.4590 C   0  0  2  0  0  3  0  0  0  0  0  0
  162.8070  211.3140  148.6880 O   0  0  0  0  0  0  0  0  0  0  0  0
  160.5570  210.8020  150.9710 C   0  0  2  0  0  3  0  0  0  0  0  0
  162.0570  210.1680  148.9810 C   0  0  0  0  0  2  0  0  0  0  0  0
  161.8390  210.0960  150.4920 C   0  0  2  0  0  3  0  0  0  0  0  0
  162.5320  213.4170  147.6460 C   0  0  0  0  0  0  0  0  0  0  0  0
  162.5840  213.3120  146.2610 O   0  0  0  0  0  0  0  0  0  0  0  0
  163.0440  214.4130  148.2180 O   0  0  0  0  0  1  0  0  0  0  0  0
  160.8010  207.7690  150.4970 C   0  0  0  0  0  2  0  0  0  0  0  0
  161.1080  207.2930  149.0830 C   0  0  0  0  0  2  0  0  0  0  0  0
  160.8030  203.5520  149.8200 C   0  0  0  0  0  2  0  0  0  0  0  0
  161.5730  205.2920  147.6830 C   0  0  0  0  0  3  0  0  0  0  0  0
  160.4040  201.3500  146.7260 C   0  0  1  0  0  3  0  0  0  0  0  0
  160.0150  201.9380  148.0840 C   0  0  0  0  0  2  0  0  0  0  0  0
  160.7940  203.1280  148.4210 N   0  0  0  0  0  0  0  0  0  0  0  0
  161.4680  203.5380  145.9910 C   0  0  0  0  0  2  0  0  0  0  0  0
  161.2660  204.0250  147.3910 C   0  0  0  0  0  0  0  0  0  0  0  0
  160.4800  202.4300  145.6390 C   0  0  0  0  0  2  0  0  0  0  0  0
  161.4830  205.8220  149.0910 C   0  0  2  0  0  3  0  0  0  0  0  0
  160.4670  205.0350  149.9140 C   0  0  0  0  0  2  0  0  0  0  0  0
  161.6010  200.3900  146.8000 C   0  0  0  0  0  3  0  0  0  0  0  0
  161.9490  200.0630  148.2400 C   0  0  0  0  0  1  0  0  0  0  0  0
  161.4130  199.1090  146.0050 C   0  0  0  0  0  1  0  0  0  0  0  0
  1  4  1  6  0  0  0
  1  9  1  0  0  0  0
  3  8  1  0  0  0  0
  5  7  1  0  0  0  0
  7  6  2  0  0  0  0
  8 10  1  1  0  0  0
  9  8  1  0  0  0  0
  9  5  1  6  0  0  0
 10  6  1  0  0  0  0
 11  2  1  0  0  0  0
 12 17  1  6  0  0  0
 12 13  1  0  0  0  0
 12 11  1  0  0  0  0
 13 15  1  0  0  0  0
 14  2  1  6  0  0  0
 14  3  1  0  0  0  0
 16 15  1  6  0  0  0
 16 14  1  0  0  0  0
 16  1  1  0  0  0  0
 17 19  1  0  0  0  0
 18 17  2  0  0  0  0
 20  1  1  0  0  0  0
 21 20  1  0  0  0  0
 22 31  1  0  0  0  0
 23 30  1  0  0  0  0
 24 32  1  1  0  0  0
 24 25  1  0  0  0  0
 25 26  1  0  0  0  0
 26 22  1  0  0  0  0
 27 28  1  0  0  0  0
 28 23  2  0  0  0  0
 28 26  1  0  0  0  0
 29 27  1  0  0  0  0
 29 24  1  0  0  0  0
 30 21  1  6  0  0  0
 30 31  1  0  0  0  0
 32 33  1  0  0  0  0
 34 32  1  0  0  0  0
M  END
>  <MODEL>
7

>  <REMARK>
 VINA RESULT:      -5.2      1.706      2.805
  Name = 
  5 active torsions:
  status: ('A' for Active; 'I' for Inactive)
    1  A    between atoms: C_1  and  C_8
    2  A    between atoms: C_3  and  C_25
    3  A    between atoms: C_7  and  C_11
    4  A    between atoms: C_8  and  C_18
    5  A    between atoms: C_18  and  C_30
                            x       y       z     vdW  Elec       q    Type
                         _______ _______ _______ _____ _____    ______ ____

>  <TORSDO>
F 5

$$$$
=
 OpenBabel11062409323D

 34 38  0  0  1  0  0  0  0  0999 V2000
  160.6000  208.8350  152.9580 C   0  0  1  0  0  0  0  0  0  0  0  0
  162.3780  205.4210  152.1840 C   0  0  0  0  0  2  0  0  0  0  0  0
  161.2510  206.2490  154.1510 O   0  0  0  0  0  0  0  0  0  0  0  0
  159.5260  209.5330  152.3950 O   0  0  0  0  0  1  0  0  0  0  0  0
  160.1240  209.6720  155.3250 C   0  0  0  0  0  2  0  0  0  0  0  0
  160.4000  208.1120  157.2610 C   0  0  0  0  0  3  0  0  0  0  0  0
  160.0830  209.3250  156.7890 C   0  0  0  0  0  3  0  0  0  0  0  0
  161.2010  207.3890  154.9810 C   0  0  1  0  0  3  0  0  0  0  0  0
  160.2220  208.4420  154.4070 C   0  0  2  0  0  3  0  0  0  0  0  0
  160.7220  206.9510  156.3620 C   0  0  0  0  0  2  0  0  0  0  0  0
  161.4240  204.8170  151.1610 C   0  0  0  0  0  2  0  0  0  0  0  0
  161.4610  205.6480  149.8790 C   0  0  2  0  0  3  0  0  0  0  0  0
  160.5510  206.7130  149.9530 O   0  0  0  0  0  0  0  0  0  0  0  0
  161.8300  206.6430  152.9350 C   0  0  2  0  0  3  0  0  0  0  0  0
  161.1760  207.7230  150.6950 C   0  0  0  0  0  2  0  0  0  0  0  0
  160.8310  207.5330  152.1710 C   0  0  2  0  0  3  0  0  0  0  0  0
  161.1260  204.7860  148.7100 C   0  0  0  0  0  0  0  0  0  0  0  0
  161.0720  203.4040  148.8490 O   0  0  0  0  0  1  0  0  0  0  0  0
  160.9050  205.3110  147.5900 O   0  0  0  0  0  0  0  0  0  0  0  0
  161.8630  209.7220  152.9660 C   0  0  0  0  0  2  0  0  0  0  0  0
  161.5620  211.2070  152.8050 C   0  0  0  0  0  2  0  0  0  0  0  0
  159.5210  213.1050  150.1840 C   0  0  0  0  0  2  0  0  0  0  0  0
  161.7660  211.3370  150.3310 C   0  0  0  0  0  3  0  0  0  0  0  0
  161.3740  213.7900  146.9170 C   0  0  1  0  0  3  0  0  0  0  0  0
  160.6020  214.1470  148.1890 C   0  0  0  0  0  2  0  0  0  0  0  0
  160.5320  213.0320  149.1310 N   0  0  0  0  0  0  0  0  0  0  0  0
  162.5160  211.8290  148.0620 C   0  0  0  0  0  2  0  0  0  0  0  0
  161.6030  212.0660  149.2230 C   0  0  0  0  0  0  0  0  0  0  0  0
  162.7060  213.0970  147.2350 C   0  0  0  0  0  2  0  0  0  0  0  0
  160.8260  211.4580  151.5010 C   0  0  2  0  0  3  0  0  0  0  0  0
  160.1630  212.8320  151.5390 C   0  0  0  0  0  2  0  0  0  0  0  0
  160.5040  213.1090  145.8500 C   0  0  0  0  0  3  0  0  0  0  0  0
  159.1060  213.7000  145.8270 C   0  0  0  0  0  1  0  0  0  0  0  0
  161.1050  213.1370  144.4540 C   0  0  0  0  0  1  0  0  0  0  0  0
  1  4  1  6  0  0  0
  1 20  1  0  0  0  0
  1  9  1  0  0  0  0
  3  8  1  0  0  0  0
  5  7  1  0  0  0  0
  7  6  2  0  0  0  0
  8 10  1  1  0  0  0
  9  8  1  0  0  0  0
  9  5  1  1  0  0  0
 10  6  1  0  0  0  0
 11  2  1  0  0  0  0
 12 17  1  6  0  0  0
 12 13  1  0  0  0  0
 12 11  1  0  0  0  0
 13 15  1  0  0  0  0
 14  2  1  6  0  0  0
 14  3  1  0  0  0  0
 16 15  1  6  0  0  0
 16 14  1  0  0  0  0
 16  1  1  0  0  0  0
 17 18  1  0  0  0  0
 19 17  2  0  0  0  0
 21 20  1  0  0  0  0
 22 31  1  0  0  0  0
 23 30  1  0  0  0  0
 24 32  1  6  0  0  0
 24 29  1  0  0  0  0
 24 25  1  0  0  0  0
 25 26  1  0  0  0  0
 26 28  1  0  0  0  0
 26 22  1  0  0  0  0
 27 28  1  0  0  0  0
 28 23  2  0  0  0  0
 29 27  1  0  0  0  0
 30 31  1  0  0  0  0
 30 21  1  1  0  0  0
 33 32  1  0  0  0  0
 34 32  1  0  0  0  0
M  END
>  <MODEL>
8

>  <REMARK>
 VINA RESULT:      -5.2      2.934      6.828
  Name = 
  5 active torsions:
  status: ('A' for Active; 'I' for Inactive)
    1  A    between atoms: C_1  and  C_8
    2  A    between atoms: C_3  and  C_25
    3  A    between atoms: C_7  and  C_11
    4  A    between atoms: C_8  and  C_18
    5  A    between atoms: C_18  and  C_30
                            x       y       z     vdW  Elec       q    Type
                         _______ _______ _______ _____ _____    ______ ____

>  <TORSDO>
F 5

$$$$
