=
 OpenBabel11052422413D

 31 34  0  0  1  0  0  0  0  0999 V2000
  161.1080  204.9830  148.6440 C   0  0  0  0  0  0  0  0  0  0  0  0
  161.7760  208.0080  150.9260 C   0  0  1  0  0  3  0  0  0  0  0  0
  161.3750  207.4910  152.3030 C   0  0  0  0  0  0  0  0  0  0  0  0
  161.3740  205.6880  153.9410 C   0  0  0  0  0  3  0  0  0  0  0  0
  161.5050  207.1300  149.7150 C   0  0  0  0  0  0  0  0  0  0  0  0
  161.2360  205.5790  147.3880 C   0  0  0  0  0  3  0  0  0  0  0  0
  161.6290  206.1560  152.6530 C   0  0  0  0  0  3  0  0  0  0  0  0
  161.7670  209.9450  149.3380 C   0  0  0  0  0  0  0  0  0  0  0  0
  160.8600  203.6550  148.7410 F   0  0  0  0  0  0  0  0  0  0  0  0
  160.7150  209.8510  153.0140 C   0  0  0  0  0  2  0  0  0  0  0  0
  160.8870  206.5590  154.9140 C   0  0  0  0  0  3  0  0  0  0  0  0
  161.8770  209.1330  148.3240 N   0  0  0  0  0  0  0  0  0  0  0  0
  161.2400  209.4220  150.6510 C   0  0  2  0  0  3  0  0  0  0  0  0
  161.9880  211.3480  149.1610 N   0  0  0  0  0  2  0  0  0  0  0  0
  161.2550  205.7520  149.8010 C   0  0  0  0  0  3  0  0  0  0  0  0
  160.0740  208.9570  155.8850 Cl  0  0  0  0  0  0  0  0  0  0  0  0
  161.6290  207.7230  148.4400 C   0  0  0  0  0  0  0  0  0  0  0  0
  161.4980  206.9480  147.2860 C   0  0  0  0  0  3  0  0  0  0  0  0
  161.5430  210.3290  151.8310 C   0  0  0  0  0  2  0  0  0  0  0  0
  160.9400  208.3890  153.3150 C   0  0  0  0  0  0  0  0  0  0  0  0
  160.6690  207.9030  154.6100 C   0  0  0  0  0  0  0  0  0  0  0  0
  163.9590  212.1980  147.9960 C   0  0  0  0  0  1  0  0  0  0  0  0
  162.4660  211.9250  147.9110 C   0  0  2  0  0  3  0  0  0  0  0  0
  161.9870  214.2340  148.2690 O   0  0  0  0  0  0  0  0  0  0  0  0
  159.9860  214.4490  146.3130 C   0  0  0  0  0  1  0  0  0  0  0  0
  160.7040  213.2160  146.5990 N   0  0  0  0  0  0  0  0  0  0  0  0
  161.7210  213.1890  147.6130 C   0  0  0  0  0  0  0  0  0  0  0  0
  160.3840  212.0300  145.8160 C   0  0  0  0  0  2  0  0  0  0  0  0
  160.4710  212.3310  144.3590 C   0  0  0  0  0  0  0  0  0  0  0  0
  159.4430  212.2560  143.6370 O   0  0  0  0  0  0  0  0  0  0  0  0
  161.7100  212.7330  143.7870 N   0  0  0  0  0  1  0  0  0  0  0  0
  1  9  1  0  0  0  0
  1 15  1  0  0  0  0
  2  5  1  6  0  0  0
  2  3  1  0  0  0  0
  3  7  2  0  0  0  0
  3 20  1  0  0  0  0
  4 11  2  0  0  0  0
  5 15  2  0  0  0  0
  6  1  2  0  0  0  0
  7  4  1  0  0  0  0
  8 13  1  0  0  0  0
 10 20  1  0  0  0  0
 12 17  1  0  0  0  0
 12  8  2  0  0  0  0
 13  2  1  0  0  0  0
 13 19  1  1  0  0  0
 14  8  1  0  0  0  0
 17  5  1  0  0  0  0
 18  6  1  0  0  0  0
 18 17  2  0  0  0  0
 19 10  1  0  0  0  0
 20 21  2  0  0  0  0
 21 11  1  0  0  0  0
 21 16  1  0  0  0  0
 23 22  1  1  0  0  0
 23 14  1  0  0  0  0
 25 26  1  0  0  0  0
 26 27  1  0  0  0  0
 27 23  1  0  0  0  0
 27 24  2  0  0  0  0
 28 26  1  0  0  0  0
 29 28  1  0  0  0  0
 30 29  2  0  0  0  0
 31 29  1  0  0  0  0
M  END
>  <MODEL>
1

>  <REMARK>
 VINA RESULT:      -8.2      0.000      0.000
  Name = 
  4 active torsions:
  status: ('A' for Active; 'I' for Inactive)
    1  A    between atoms: C_1  and  C_24
    2  A    between atoms: C_9  and  C_22
    3  A    between atoms: C_9  and  N_23
    4  A    between atoms: N_19  and  C_24
                            x       y       z     vdW  Elec       q    Type
                         _______ _______ _______ _____ _____    ______ ____

>  <TORSDO>
F 4

$$$$
=
 OpenBabel11052422413D

 31 34  0  0  1  0  0  0  0  0999 V2000
  161.1090  207.3400  154.0990 C   0  0  0  0  0  0  0  0  0  0  0  0
  161.0510  207.5730  150.2590 C   0  0  1  0  0  3  0  0  0  0  0  0
  161.1030  206.1110  149.8290 C   0  0  0  0  0  0  0  0  0  0  0  0
  160.3700  203.8090  150.1470 C   0  0  0  0  0  3  0  0  0  0  0  0
  161.2130  207.8990  151.7350 C   0  0  0  0  0  0  0  0  0  0  0  0
  161.3230  208.6790  154.4320 C   0  0  0  0  0  3  0  0  0  0  0  0
  160.4310  205.1340  150.5800 C   0  0  0  0  0  3  0  0  0  0  0  0
  161.8250  209.9110  149.8090 C   0  0  0  0  0  0  0  0  0  0  0  0
  160.9490  206.4170  155.0770 F   0  0  0  0  0  0  0  0  0  0  0  0
  162.3170  206.7700  147.6830 C   0  0  0  0  0  2  0  0  0  0  0  0
  160.9570  203.4450  148.9370 C   0  0  0  0  0  3  0  0  0  0  0  0
  161.6180  210.2360  151.0540 N   0  0  0  0  0  0  0  0  0  0  0  0
  162.0030  208.4590  149.4410 C   0  0  2  0  0  3  0  0  0  0  0  0
  162.0430  210.9320  148.8280 N   0  0  0  0  0  2  0  0  0  0  0  0
  161.0410  206.9550  152.7580 C   0  0  0  0  0  3  0  0  0  0  0  0
  162.2930  203.8860  146.6190 Cl  0  0  0  0  0  0  0  0  0  0  0  0
  161.4320  209.2500  152.0820 C   0  0  0  0  0  0  0  0  0  0  0  0
  161.4830  209.6340  153.4250 C   0  0  0  0  0  3  0  0  0  0  0  0
  161.8230  208.1820  147.9580 C   0  0  0  0  0  2  0  0  0  0  0  0
  161.6420  205.7470  148.5650 C   0  0  0  0  0  0  0  0  0  0  0  0
  161.5910  204.4030  148.1450 C   0  0  0  0  0  0  0  0  0  0  0  0
  160.5040  212.6740  149.5770 C   0  0  0  0  0  1  0  0  0  0  0  0
  161.9180  212.3540  149.1220 C   0  0  2  0  0  3  0  0  0  0  0  0
  163.2410  213.9630  147.9600 O   0  0  0  0  0  0  0  0  0  0  0  0
  161.8560  213.8130  145.5240 C   0  0  0  0  0  1  0  0  0  0  0  0
  161.5070  213.0290  146.7000 N   0  0  0  0  0  0  0  0  0  0  0  0
  162.2700  213.1590  147.9090 C   0  0  0  0  0  0  0  0  0  0  0  0
  160.3890  212.0990  146.6050 C   0  0  0  0  0  2  0  0  0  0  0  0
  159.2040  212.7700  145.9990 C   0  0  0  0  0  0  0  0  0  0  0  0
  158.7460  212.3650  144.8990 O   0  0  0  0  0  0  0  0  0  0  0  0
  158.5710  213.8470  146.6770 N   0  0  0  0  0  1  0  0  0  0  0  0
  1  6  1  0  0  0  0
  1  9  1  0  0  0  0
  2  3  1  1  0  0  0
  2  5  1  0  0  0  0
  3  7  1  0  0  0  0
  4  7  2  0  0  0  0
  5 17  2  0  0  0  0
  5 15  1  0  0  0  0
  8 12  2  0  0  0  0
 10 19  1  0  0  0  0
 10 20  1  0  0  0  0
 11  4  1  0  0  0  0
 12 17  1  0  0  0  0
 13 19  1  6  0  0  0
 13  8  1  0  0  0  0
 13  2  1  0  0  0  0
 14 23  1  0  0  0  0
 14  8  1  0  0  0  0
 15  1  2  0  0  0  0
 16 21  1  0  0  0  0
 17 18  1  0  0  0  0
 18  6  2  0  0  0  0
 20  3  2  0  0  0  0
 21 20  1  0  0  0  0
 21 11  2  0  0  0  0
 23 22  1  6  0  0  0
 25 26  1  0  0  0  0
 26 27  1  0  0  0  0
 27 24  2  0  0  0  0
 27 23  1  0  0  0  0
 28 26  1  0  0  0  0
 29 28  1  0  0  0  0
 29 31  1  0  0  0  0
 30 29  2  0  0  0  0
M  END
>  <MODEL>
2

>  <REMARK>
 VINA RESULT:      -8.1      2.622      4.482
  Name = 
  4 active torsions:
  status: ('A' for Active; 'I' for Inactive)
    1  A    between atoms: C_1  and  C_24
    2  A    between atoms: C_9  and  C_22
    3  A    between atoms: C_9  and  N_23
    4  A    between atoms: N_19  and  C_24
                            x       y       z     vdW  Elec       q    Type
                         _______ _______ _______ _____ _____    ______ ____

>  <TORSDO>
F 4

$$$$
=
 OpenBabel11052422413D

 31 34  0  0  1  0  0  0  0  0999 V2000
  161.9340  210.5250  148.7250 C   0  0  0  0  0  0  0  0  0  0  0  0
  161.9500  207.0650  150.4070 C   0  0  1  0  0  3  0  0  0  0  0  0
  161.8280  206.1110  149.2230 C   0  0  0  0  0  0  0  0  0  0  0  0
  162.4630  205.5050  146.9510 C   0  0  0  0  0  3  0  0  0  0  0  0
  161.8230  208.5580  150.1490 C   0  0  0  0  0  0  0  0  0  0  0  0
  161.7830  211.3490  149.8420 C   0  0  0  0  0  3  0  0  0  0  0  0
  162.4660  206.4110  148.0100 C   0  0  0  0  0  3  0  0  0  0  0  0
  161.2740  207.5630  152.7660 C   0  0  0  0  0  0  0  0  0  0  0  0
  162.0660  211.0710  147.4930 F   0  0  0  0  0  0  0  0  0  0  0  0
  160.6160  204.4150  150.6960 C   0  0  0  0  0  2  0  0  0  0  0  0
  161.8440  204.2650  147.0980 C   0  0  0  0  0  3  0  0  0  0  0  0
  161.5120  208.8310  152.5820 N   0  0  0  0  0  0  0  0  0  0  0  0
  161.0270  206.6750  151.5720 C   0  0  2  0  0  3  0  0  0  0  0  0
  161.0880  207.0530  154.0910 N   0  0  0  0  0  2  0  0  0  0  0  0
  161.9660  209.1370  148.8800 C   0  0  0  0  0  3  0  0  0  0  0  0
  160.4980  202.3310  148.4400 Cl  0  0  0  0  0  0  0  0  0  0  0  0
  161.6680  209.4000  151.2720 C   0  0  0  0  0  0  0  0  0  0  0  0
  161.6520  210.7880  151.1140 C   0  0  0  0  0  3  0  0  0  0  0  0
  161.1750  205.1940  151.8770 C   0  0  0  0  0  2  0  0  0  0  0  0
  161.2560  204.8200  149.3900 C   0  0  0  0  0  0  0  0  0  0  0  0
  161.2420  203.9180  148.3080 C   0  0  0  0  0  0  0  0  0  0  0  0
  161.6380  206.9780  156.4690 C   0  0  0  0  0  1  0  0  0  0  0  0
  161.2790  207.8640  155.2870 C   0  0  2  0  0  3  0  0  0  0  0  0
  158.9580  208.0310  155.8100 O   0  0  0  0  0  0  0  0  0  0  0  0
  158.8490  210.8340  155.8750 C   0  0  0  0  0  1  0  0  0  0  0  0
  160.0610  210.0810  155.5870 N   0  0  0  0  0  0  0  0  0  0  0  0
  160.0360  208.6450  155.5790 C   0  0  0  0  0  0  0  0  0  0  0  0
  161.2920  210.8190  155.3390 C   0  0  0  0  0  2  0  0  0  0  0  0
  161.9530  211.1750  156.6270 C   0  0  0  0  0  0  0  0  0  0  0  0
  161.5890  212.2000  157.2600 O   0  0  0  0  0  0  0  0  0  0  0  0
  162.9740  210.3400  157.1580 N   0  0  0  0  0  1  0  0  0  0  0  0
  1 15  2  0  0  0  0
  1  6  1  0  0  0  0
  2  3  1  6  0  0  0
  2 13  1  0  0  0  0
  3 20  1  0  0  0  0
  4 11  2  0  0  0  0
  4  7  1  0  0  0  0
  5  2  1  0  0  0  0
  5 17  2  0  0  0  0
  6 18  2  0  0  0  0
  7  3  2  0  0  0  0
  8 14  1  0  0  0  0
  9  1  1  0  0  0  0
 10 19  1  0  0  0  0
 11 21  1  0  0  0  0
 12  8  2  0  0  0  0
 13 19  1  1  0  0  0
 13  8  1  0  0  0  0
 14 23  1  0  0  0  0
 15  5  1  0  0  0  0
 17 12  1  0  0  0  0
 18 17  1  0  0  0  0
 20 10  1  0  0  0  0
 21 16  1  0  0  0  0
 21 20  2  0  0  0  0
 23 27  1  0  0  0  0
 23 22  1  1  0  0  0
 26 25  1  0  0  0  0
 27 26  1  0  0  0  0
 27 24  2  0  0  0  0
 28 26  1  0  0  0  0
 28 29  1  0  0  0  0
 29 31  1  0  0  0  0
 29 30  2  0  0  0  0
M  END
>  <MODEL>
3

>  <REMARK>
 VINA RESULT:      -7.9      4.753      7.742
  Name = 
  4 active torsions:
  status: ('A' for Active; 'I' for Inactive)
    1  A    between atoms: C_1  and  C_24
    2  A    between atoms: C_9  and  C_22
    3  A    between atoms: C_9  and  N_23
    4  A    between atoms: N_19  and  C_24
                            x       y       z     vdW  Elec       q    Type
                         _______ _______ _______ _____ _____    ______ ____

>  <TORSDO>
F 4

$$$$
=
 OpenBabel11052422413D

 31 34  0  0  1  0  0  0  0  0999 V2000
  161.1050  204.9870  148.6520 C   0  0  0  0  0  0  0  0  0  0  0  0
  161.7490  208.0280  150.9190 C   0  0  1  0  0  3  0  0  0  0  0  0
  161.2940  207.5330  152.2880 C   0  0  0  0  0  0  0  0  0  0  0  0
  161.2090  205.7510  153.9460 C   0  0  0  0  0  3  0  0  0  0  0  0
  161.5020  207.1400  149.7100 C   0  0  0  0  0  0  0  0  0  0  0  0
  161.2830  205.5660  147.3940 C   0  0  0  0  0  3  0  0  0  0  0  0
  161.5140  206.1990  152.6620 C   0  0  0  0  0  3  0  0  0  0  0  0
  161.8250  209.9450  149.3110 C   0  0  0  0  0  0  0  0  0  0  0  0
  160.8300  203.6650  148.7560 F   0  0  0  0  0  0  0  0  0  0  0  0
  160.6520  209.9130  152.9510 C   0  0  0  0  0  2  0  0  0  0  0  0
  160.7050  206.6410  154.8920 C   0  0  0  0  0  3  0  0  0  0  0  0
  161.9550  209.1200  148.3100 N   0  0  0  0  0  0  0  0  0  0  0  0
  161.2460  209.4470  150.6120 C   0  0  2  0  0  3  0  0  0  0  0  0
  162.0760  211.3430  149.1250 N   0  0  0  0  0  2  0  0  0  0  0  0
  161.2260  205.7680  149.8040 C   0  0  0  0  0  3  0  0  0  0  0  0
  159.9020  209.0640  155.8090 Cl  0  0  0  0  0  0  0  0  0  0  0  0
  161.6790  207.7160  148.4340 C   0  0  0  0  0  0  0  0  0  0  0  0
  161.5720  206.9290  147.2840 C   0  0  0  0  0  3  0  0  0  0  0  0
  161.5270  210.3630  151.7910 C   0  0  0  0  0  2  0  0  0  0  0  0
  160.8420  208.4510  153.2760 C   0  0  0  0  0  0  0  0  0  0  0  0
  160.5200  207.9850  154.5660 C   0  0  0  0  0  0  0  0  0  0  0  0
  163.8280  212.7510  148.1710 C   0  0  0  0  0  1  0  0  0  0  0  0
  162.6040  211.8960  147.8850 C   0  0  2  0  0  3  0  0  0  0  0  0
  161.4030  212.6020  145.9490 O   0  0  0  0  0  0  0  0  0  0  0  0
  159.6950  214.3930  147.2710 C   0  0  0  0  0  1  0  0  0  0  0  0
  160.7190  213.6090  147.9450 N   0  0  0  0  0  0  0  0  0  0  0  0
  161.5510  212.7080  147.1980 C   0  0  0  0  0  0  0  0  0  0  0  0
  160.8550  213.7430  149.3900 C   0  0  0  0  0  2  0  0  0  0  0  0
  159.5160  213.7180  150.0430 C   0  0  0  0  0  0  0  0  0  0  0  0
  158.5880  213.0230  149.5520 O   0  0  0  0  0  0  0  0  0  0  0  0
  159.2920  214.4530  151.2390 N   0  0  0  0  0  1  0  0  0  0  0  0
  1  9  1  0  0  0  0
  1 15  1  0  0  0  0
  2  5  1  6  0  0  0
  2  3  1  0  0  0  0
  3  7  2  0  0  0  0
  3 20  1  0  0  0  0
  4 11  2  0  0  0  0
  5 15  2  0  0  0  0
  6  1  2  0  0  0  0
  7  4  1  0  0  0  0
  8 13  1  0  0  0  0
 10 20  1  0  0  0  0
 12 17  1  0  0  0  0
 12  8  2  0  0  0  0
 13  2  1  0  0  0  0
 13 19  1  1  0  0  0
 14  8  1  0  0  0  0
 17  5  1  0  0  0  0
 18  6  1  0  0  0  0
 18 17  2  0  0  0  0
 19 10  1  0  0  0  0
 20 21  2  0  0  0  0
 21 11  1  0  0  0  0
 21 16  1  0  0  0  0
 23 22  1  1  0  0  0
 23 14  1  0  0  0  0
 24 27  2  0  0  0  0
 25 26  1  0  0  0  0
 26 28  1  0  0  0  0
 27 23  1  0  0  0  0
 27 26  1  0  0  0  0
 28 29  1  0  0  0  0
 29 31  1  0  0  0  0
 30 29  2  0  0  0  0
M  END
>  <MODEL>
4

>  <REMARK>
 VINA RESULT:      -7.1      1.432      2.301
  Name = 
  4 active torsions:
  status: ('A' for Active; 'I' for Inactive)
    1  A    between atoms: C_1  and  C_24
    2  A    between atoms: C_9  and  C_22
    3  A    between atoms: C_9  and  N_23
    4  A    between atoms: N_19  and  C_24
                            x       y       z     vdW  Elec       q    Type
                         _______ _______ _______ _____ _____    ______ ____

>  <TORSDO>
F 4

$$$$
=
 OpenBabel11052422413D

 31 34  0  0  1  0  0  0  0  0999 V2000
  160.9260  203.1720  152.3000 C   0  0  0  0  0  0  0  0  0  0  0  0
  160.9350  205.9100  149.5980 C   0  0  1  0  0  3  0  0  0  0  0  0
  161.3050  205.1410  148.3350 C   0  0  0  0  0  0  0  0  0  0  0  0
  161.0620  203.1500  146.9510 C   0  0  0  0  0  3  0  0  0  0  0  0
  160.9810  205.1800  150.9300 C   0  0  0  0  0  0  0  0  0  0  0  0
  160.8450  203.9540  153.4540 C   0  0  0  0  0  3  0  0  0  0  0  0
  160.8310  203.8340  148.1450 C   0  0  0  0  0  3  0  0  0  0  0  0
  161.2150  208.0230  150.9140 C   0  0  0  0  0  0  0  0  0  0  0  0
  160.9340  201.8210  152.3970 F   0  0  0  0  0  0  0  0  0  0  0  0
  162.4170  207.2250  147.3710 C   0  0  0  0  0  2  0  0  0  0  0  0
  161.7480  203.7760  145.9130 C   0  0  0  0  0  3  0  0  0  0  0  0
  160.9070  207.3950  152.0140 N   0  0  0  0  0  0  0  0  0  0  0  0
  161.7040  207.2350  149.7240 C   0  0  2  0  0  3  0  0  0  0  0  0
  161.2440  209.4540  150.8880 N   0  0  0  0  0  2  0  0  0  0  0  0
  160.9810  203.7820  151.0440 C   0  0  0  0  0  3  0  0  0  0  0  0
  163.0300  205.8350  144.7000 Cl  0  0  0  0  0  0  0  0  0  0  0  0
  160.9010  205.9620  152.1030 C   0  0  0  0  0  0  0  0  0  0  0  0
  160.8310  205.3470  153.3560 C   0  0  0  0  0  3  0  0  0  0  0  0
  161.6310  208.0030  148.4160 C   0  0  0  0  0  2  0  0  0  0  0  0
  161.9460  205.7970  147.2490 C   0  0  0  0  0  0  0  0  0  0  0  0
  162.1900  205.0920  146.0530 C   0  0  0  0  0  0  0  0  0  0  0  0
  160.4310  211.6650  151.5300 C   0  0  0  0  0  1  0  0  0  0  0  0
  160.8150  210.2760  152.0120 C   0  0  2  0  0  3  0  0  0  0  0  0
  163.1130  210.3280  152.6490 O   0  0  0  0  0  0  0  0  0  0  0  0
  162.6720  210.5580  155.4110 C   0  0  0  0  0  1  0  0  0  0  0  0
  161.6020  210.4720  154.4280 N   0  0  0  0  0  0  0  0  0  0  0  0
  161.9100  210.3620  153.0290 C   0  0  0  0  0  0  0  0  0  0  0  0
  160.2230  210.5280  154.8970 C   0  0  0  0  0  2  0  0  0  0  0  0
  159.9990  209.5200  155.9710 C   0  0  0  0  0  0  0  0  0  0  0  0
  159.7060  209.8950  157.1360 O   0  0  0  0  0  0  0  0  0  0  0  0
  160.0830  208.1320  155.6750 N   0  0  0  0  0  1  0  0  0  0  0  0
  1  9  1  0  0  0  0
  1  6  1  0  0  0  0
  2  3  1  6  0  0  0
  2 13  1  0  0  0  0
  2  5  1  0  0  0  0
  4  7  2  0  0  0  0
  5 15  1  0  0  0  0
  5 17  2  0  0  0  0
  7  3  1  0  0  0  0
  8 12  2  0  0  0  0
 10 19  1  0  0  0  0
 11 21  2  0  0  0  0
 11  4  1  0  0  0  0
 12 17  1  0  0  0  0
 13 19  1  6  0  0  0
 13  8  1  0  0  0  0
 14  8  1  0  0  0  0
 14 23  1  0  0  0  0
 15  1  2  0  0  0  0
 16 21  1  0  0  0  0
 17 18  1  0  0  0  0
 18  6  2  0  0  0  0
 20 10  1  0  0  0  0
 20  3  2  0  0  0  0
 21 20  1  0  0  0  0
 23 22  1  6  0  0  0
 23 27  1  0  0  0  0
 24 27  2  0  0  0  0
 26 28  1  0  0  0  0
 26 25  1  0  0  0  0
 27 26  1  0  0  0  0
 28 29  1  0  0  0  0
 29 30  2  0  0  0  0
 31 29  1  0  0  0  0
M  END
>  <MODEL>
5

>  <REMARK>
 VINA RESULT:      -6.4      4.349      7.148
  Name = 
  4 active torsions:
  status: ('A' for Active; 'I' for Inactive)
    1  A    between atoms: C_1  and  C_24
    2  A    between atoms: C_9  and  C_22
    3  A    between atoms: C_9  and  N_23
    4  A    between atoms: N_19  and  C_24
                            x       y       z     vdW  Elec       q    Type
                         _______ _______ _______ _____ _____    ______ ____

>  <TORSDO>
F 4

$$$$
=
 OpenBabel11052422413D

 31 34  0  0  1  0  0  0  0  0999 V2000
  160.9760  203.9740  152.6500 C   0  0  0  0  0  0  0  0  0  0  0  0
  161.0170  205.7400  149.2320 C   0  0  1  0  0  3  0  0  0  0  0  0
  161.2230  204.5870  148.2560 C   0  0  0  0  0  0  0  0  0  0  0  0
  160.7070  202.3060  147.5730 C   0  0  0  0  0  3  0  0  0  0  0  0
  161.1000  205.4500  150.7220 C   0  0  0  0  0  0  0  0  0  0  0  0
  161.0490  205.0750  153.5050 C   0  0  0  0  0  3  0  0  0  0  0  0
  160.6260  203.3410  148.5030 C   0  0  0  0  0  3  0  0  0  0  0  0
  161.5750  208.1110  149.8110 C   0  0  0  0  0  0  0  0  0  0  0  0
  160.8750  202.7240  153.1620 F   0  0  0  0  0  0  0  0  0  0  0  0
  162.4350  206.1490  146.6430 C   0  0  0  0  0  2  0  0  0  0  0  0
  161.3640  202.5100  146.3610 C   0  0  0  0  0  3  0  0  0  0  0  0
  161.2980  207.8860  151.0650 N   0  0  0  0  0  0  0  0  0  0  0  0
  161.9040  206.9520  148.9050 C   0  0  2  0  0  3  0  0  0  0  0  0
  161.7240  209.4550  149.3400 N   0  0  0  0  0  2  0  0  0  0  0  0
  160.9880  204.1620  151.2650 C   0  0  0  0  0  3  0  0  0  0  0  0
  162.7240  203.9530  144.5120 Cl  0  0  0  0  0  0  0  0  0  0  0  0
  161.1760  206.5570  151.5960 C   0  0  0  0  0  0  0  0  0  0  0  0
  161.1470  206.3650  152.9800 C   0  0  0  0  0  3  0  0  0  0  0  0
  161.7990  207.2870  147.4270 C   0  0  0  0  0  2  0  0  0  0  0  0
  161.8350  204.8090  146.9920 C   0  0  0  0  0  0  0  0  0  0  0  0
  161.9280  203.7510  146.0650 C   0  0  0  0  0  0  0  0  0  0  0  0
  161.9590  211.8810  149.4870 C   0  0  0  0  0  1  0  0  0  0  0  0
  161.4530  210.6210  150.1700 C   0  0  2  0  0  3  0  0  0  0  0  0
  163.3510  210.2840  151.5750 O   0  0  0  0  0  0  0  0  0  0  0  0
  161.9560  210.3280  154.0100 C   0  0  0  0  0  1  0  0  0  0  0  0
  161.3170  210.4860  152.7120 N   0  0  0  0  0  0  0  0  0  0  0  0
  162.1030  210.4580  151.5100 C   0  0  0  0  0  0  0  0  0  0  0  0
  159.8760  210.6980  152.6690 C   0  0  0  0  0  2  0  0  0  0  0  0
  159.5500  212.1140  153.0030 C   0  0  0  0  0  0  0  0  0  0  0  0
  159.2610  212.4320  154.1850 O   0  0  0  0  0  0  0  0  0  0  0  0
  159.5950  213.1120  151.9910 N   0  0  0  0  0  1  0  0  0  0  0  0
  1  9  1  0  0  0  0
  1  6  1  0  0  0  0
  2  3  1  6  0  0  0
  2  5  1  0  0  0  0
  3  7  1  0  0  0  0
  4  7  2  0  0  0  0
  5 15  1  0  0  0  0
  5 17  2  0  0  0  0
  8 12  2  0  0  0  0
 10 20  1  0  0  0  0
 10 19  1  0  0  0  0
 11  4  1  0  0  0  0
 12 17  1  0  0  0  0
 13 19  1  6  0  0  0
 13  2  1  0  0  0  0
 13  8  1  0  0  0  0
 14  8  1  0  0  0  0
 14 23  1  0  0  0  0
 15  1  2  0  0  0  0
 16 21  1  0  0  0  0
 17 18  1  0  0  0  0
 18  6  2  0  0  0  0
 20  3  2  0  0  0  0
 21 11  2  0  0  0  0
 21 20  1  0  0  0  0
 23 22  1  6  0  0  0
 23 27  1  0  0  0  0
 26 25  1  0  0  0  0
 27 24  2  0  0  0  0
 27 26  1  0  0  0  0
 28 26  1  0  0  0  0
 28 29  1  0  0  0  0
 29 30  2  0  0  0  0
 31 29  1  0  0  0  0
M  END
>  <MODEL>
6

>  <REMARK>
 VINA RESULT:      -6.3      3.881      6.344
  Name = 
  4 active torsions:
  status: ('A' for Active; 'I' for Inactive)
    1  A    between atoms: C_1  and  C_24
    2  A    between atoms: C_9  and  C_22
    3  A    between atoms: C_9  and  N_23
    4  A    between atoms: N_19  and  C_24
                            x       y       z     vdW  Elec       q    Type
                         _______ _______ _______ _____ _____    ______ ____

>  <TORSDO>
F 4

$$$$
=
 OpenBabel11052422413D

 31 34  0  0  1  0  0  0  0  0999 V2000
  161.7330  211.6690  149.9180 C   0  0  0  0  0  0  0  0  0  0  0  0
  160.8100  208.5360  151.9520 C   0  0  1  0  0  3  0  0  0  0  0  0
  160.7350  209.0680  153.3800 C   0  0  0  0  0  0  0  0  0  0  0  0
  160.0490  210.8210  154.9250 C   0  0  0  0  0  3  0  0  0  0  0  0
  161.3090  209.4670  150.8590 C   0  0  0  0  0  0  0  0  0  0  0  0
  162.0440  211.0900  148.6870 C   0  0  0  0  0  3  0  0  0  0  0  0
  160.2320  210.3550  153.6240 C   0  0  0  0  0  3  0  0  0  0  0  0
  161.5080  206.6500  150.4600 C   0  0  0  0  0  0  0  0  0  0  0  0
  161.7820  213.0140  150.0650 F   0  0  0  0  0  0  0  0  0  0  0  0
  161.4430  206.7880  154.2820 C   0  0  0  0  0  2  0  0  0  0  0  0
  160.3380  209.9930  156.0080 C   0  0  0  0  0  3  0  0  0  0  0  0
  161.5950  207.4640  149.4460 N   0  0  0  0  0  0  0  0  0  0  0  0
  161.5690  207.2030  151.8620 C   0  0  2  0  0  3  0  0  0  0  0  0
  161.5180  205.2340  150.2460 N   0  0  0  0  0  2  0  0  0  0  0  0
  161.3560  210.8620  150.9950 C   0  0  0  0  0  3  0  0  0  0  0  0
  161.1220  207.6890  157.2030 Cl  0  0  0  0  0  0  0  0  0  0  0  0
  161.6280  208.8910  149.6100 C   0  0  0  0  0  0  0  0  0  0  0  0
  161.9900  209.7020  148.5310 C   0  0  0  0  0  3  0  0  0  0  0  0
  161.0520  206.2400  152.9170 C   0  0  0  0  0  2  0  0  0  0  0  0
  160.9660  208.2060  154.4860 C   0  0  0  0  0  0  0  0  0  0  0  0
  160.7950  208.6920  155.7970 C   0  0  0  0  0  0  0  0  0  0  0  0
  160.5960  205.4420  147.9940 C   0  0  0  0  0  1  0  0  0  0  0  0
  161.4910  204.6330  148.9190 C   0  0  2  0  0  3  0  0  0  0  0  0
  160.4100  202.8330  150.0520 O   0  0  0  0  0  0  0  0  0  0  0  0
  160.7450  200.9300  148.0170 C   0  0  0  0  0  1  0  0  0  0  0  0
  161.2220  202.3020  147.9240 N   0  0  0  0  0  0  0  0  0  0  0  0
  161.0050  203.2190  149.0080 C   0  0  0  0  0  0  0  0  0  0  0  0
  161.8930  202.7210  146.7000 C   0  0  0  0  0  2  0  0  0  0  0  0
  160.9310  202.7440  145.5620 C   0  0  0  0  0  0  0  0  0  0  0  0
  160.7480  203.8070  144.9130 O   0  0  0  0  0  0  0  0  0  0  0  0
  160.2420  201.5580  145.1870 N   0  0  0  0  0  1  0  0  0  0  0  0
  1  9  1  0  0  0  0
  1 15  1  0  0  0  0
  2  5  1  6  0  0  0
  2  3  1  0  0  0  0
  3  7  2  0  0  0  0
  3 20  1  0  0  0  0
  4 11  2  0  0  0  0
  5 15  2  0  0  0  0
  6  1  2  0  0  0  0
  7  4  1  0  0  0  0
  8 13  1  0  0  0  0
 10 20  1  0  0  0  0
 12 17  1  0  0  0  0
 12  8  2  0  0  0  0
 13  2  1  0  0  0  0
 13 19  1  1  0  0  0
 14  8  1  0  0  0  0
 17  5  1  0  0  0  0
 18  6  1  0  0  0  0
 18 17  2  0  0  0  0
 19 10  1  0  0  0  0
 20 21  2  0  0  0  0
 21 11  1  0  0  0  0
 21 16  1  0  0  0  0
 23 22  1  6  0  0  0
 23 27  1  0  0  0  0
 23 14  1  0  0  0  0
 26 25  1  0  0  0  0
 26 27  1  0  0  0  0
 27 24  2  0  0  0  0
 28 26  1  0  0  0  0
 29 28  1  0  0  0  0
 30 29  2  0  0  0  0
 31 29  1  0  0  0  0
M  END
>  <MODEL>
7

>  <REMARK>
 VINA RESULT:      -6.1      4.053      6.788
  Name = 
  4 active torsions:
  status: ('A' for Active; 'I' for Inactive)
    1  A    between atoms: C_1  and  C_24
    2  A    between atoms: C_9  and  C_22
    3  A    between atoms: C_9  and  N_23
    4  A    between atoms: N_19  and  C_24
                            x       y       z     vdW  Elec       q    Type
                         _______ _______ _______ _____ _____    ______ ____

>  <TORSDO>
F 4

$$$$
=
 OpenBabel11052422413D

 31 34  0  0  1  0  0  0  0  0999 V2000
  160.9080  203.9560  152.7430 C   0  0  0  0  0  0  0  0  0  0  0  0
  161.0710  206.5330  149.8910 C   0  0  1  0  0  3  0  0  0  0  0  0
  161.3270  205.6650  148.6630 C   0  0  0  0  0  0  0  0  0  0  0  0
  160.8590  203.6340  147.4020 C   0  0  0  0  0  3  0  0  0  0  0  0
  161.0960  205.8740  151.2600 C   0  0  0  0  0  0  0  0  0  0  0  0
  160.9370  204.8030  153.8520 C   0  0  0  0  0  3  0  0  0  0  0  0
  160.7310  204.3990  148.5610 C   0  0  0  0  0  3  0  0  0  0  0  0
  161.5840  208.6780  151.0760 C   0  0  0  0  0  0  0  0  0  0  0  0
  160.7980  202.6170  152.9160 F   0  0  0  0  0  0  0  0  0  0  0  0
  162.5880  207.5850  147.5510 C   0  0  0  0  0  2  0  0  0  0  0  0
  161.5630  204.1380  146.3100 C   0  0  0  0  0  3  0  0  0  0  0  0
  161.2590  208.1420  152.2190 N   0  0  0  0  0  0  0  0  0  0  0  0
  161.9600  207.7870  149.9190 C   0  0  2  0  0  3  0  0  0  0  0  0
  161.7400  210.0980  150.9680 N   0  0  0  0  0  2  0  0  0  0  0  0
  160.9740  204.4900  151.4540 C   0  0  0  0  0  3  0  0  0  0  0  0
  162.9830  206.0020  144.9460 Cl  0  0  0  0  0  0  0  0  0  0  0  0
  161.1280  206.7220  152.3890 C   0  0  0  0  0  0  0  0  0  0  0  0
  161.0450  206.1850  153.6760 C   0  0  0  0  0  3  0  0  0  0  0  0
  161.9110  208.4870  148.5720 C   0  0  0  0  0  2  0  0  0  0  0  0
  161.9870  206.2010  147.5230 C   0  0  0  0  0  0  0  0  0  0  0  0
  162.1260  205.4130  146.3630 C   0  0  0  0  0  0  0  0  0  0  0  0
  161.7290  210.3640  153.3950 C   0  0  0  0  0  1  0  0  0  0  0  0
  161.4260  211.0150  152.0560 C   0  0  2  0  0  3  0  0  0  0  0  0
  159.1130  210.6960  152.5460 O   0  0  0  0  0  0  0  0  0  0  0  0
  158.1890  212.9880  151.2170 C   0  0  0  0  0  1  0  0  0  0  0  0
  159.5910  212.6030  151.2790 N   0  0  0  0  0  0  0  0  0  0  0  0
  159.9850  211.4160  151.9850 C   0  0  0  0  0  0  0  0  0  0  0  0
  160.5750  213.4620  150.6330 C   0  0  0  0  0  2  0  0  0  0  0  0
  160.6440  213.1680  149.1740 C   0  0  0  0  0  0  0  0  0  0  0  0
  159.7030  213.5190  148.4150 O   0  0  0  0  0  0  0  0  0  0  0  0
  161.7870  212.5190  148.6310 N   0  0  0  0  0  1  0  0  0  0  0  0
  1  9  1  0  0  0  0
  1  6  1  0  0  0  0
  2  3  1  6  0  0  0
  2 13  1  0  0  0  0
  2  5  1  0  0  0  0
  4  7  2  0  0  0  0
  5 15  1  0  0  0  0
  5 17  2  0  0  0  0
  7  3  1  0  0  0  0
  8 12  2  0  0  0  0
 10 19  1  0  0  0  0
 11 21  2  0  0  0  0
 11  4  1  0  0  0  0
 12 17  1  0  0  0  0
 13 19  1  6  0  0  0
 13  8  1  0  0  0  0
 14  8  1  0  0  0  0
 14 23  1  0  0  0  0
 15  1  2  0  0  0  0
 16 21  1  0  0  0  0
 17 18  1  0  0  0  0
 18  6  2  0  0  0  0
 20 10  1  0  0  0  0
 20  3  2  0  0  0  0
 21 20  1  0  0  0  0
 23 22  1  1  0  0  0
 25 26  1  0  0  0  0
 26 27  1  0  0  0  0
 27 23  1  0  0  0  0
 27 24  2  0  0  0  0
 28 26  1  0  0  0  0
 29 28  1  0  0  0  0
 30 29  2  0  0  0  0
 31 29  1  0  0  0  0
M  END
>  <MODEL>
8

>  <REMARK>
 VINA RESULT:      -6.1      3.193      5.449
  Name = 
  4 active torsions:
  status: ('A' for Active; 'I' for Inactive)
    1  A    between atoms: C_1  and  C_24
    2  A    between atoms: C_9  and  C_22
    3  A    between atoms: C_9  and  N_23
    4  A    between atoms: N_19  and  C_24
                            x       y       z     vdW  Elec       q    Type
                         _______ _______ _______ _____ _____    ______ ____

>  <TORSDO>
F 4

$$$$
=
 OpenBabel11052422413D

 31 34  0  0  1  0  0  0  0  0999 V2000
  160.9030  204.8690  153.0350 C   0  0  0  0  0  0  0  0  0  0  0  0
  162.1000  207.0020  150.0650 C   0  0  1  0  0  3  0  0  0  0  0  0
  161.9590  208.4270  150.5900 C   0  0  0  0  0  0  0  0  0  0  0  0
  162.2200  210.0180  152.4160 C   0  0  0  0  0  3  0  0  0  0  0  0
  161.5690  205.8600  150.9160 C   0  0  0  0  0  0  0  0  0  0  0  0
  160.8020  203.6180  152.4240 C   0  0  0  0  0  3  0  0  0  0  0  0
  162.2330  208.7090  151.9370 C   0  0  0  0  0  3  0  0  0  0  0  0
  161.8440  205.4640  148.1050 C   0  0  0  0  0  0  0  0  0  0  0  0
  160.6350  205.0020  154.3550 F   0  0  0  0  0  0  0  0  0  0  0  0
  161.5280  209.2740  148.2220 C   0  0  0  0  0  2  0  0  0  0  0  0
  161.9610  211.0750  151.5450 C   0  0  0  0  0  3  0  0  0  0  0  0
  161.7280  204.4410  148.9040 N   0  0  0  0  0  0  0  0  0  0  0  0
  161.5670  206.8500  148.6310 C   0  0  2  0  0  3  0  0  0  0  0  0
  162.0710  205.2590  146.7060 N   0  0  0  0  0  2  0  0  0  0  0  0
  161.2970  205.9820  152.2870 C   0  0  0  0  0  3  0  0  0  0  0  0
  161.4310  212.2060  149.1390 Cl  0  0  0  0  0  0  0  0  0  0  0  0
  161.4620  204.5910  150.3080 C   0  0  0  0  0  0  0  0  0  0  0  0
  161.0830  203.4780  151.0620 C   0  0  0  0  0  3  0  0  0  0  0  0
  162.1240  207.9560  147.7510 C   0  0  0  0  0  2  0  0  0  0  0  0
  161.7600  209.5120  149.6940 C   0  0  0  0  0  0  0  0  0  0  0  0
  161.7310  210.8310  150.1910 C   0  0  0  0  0  0  0  0  0  0  0  0
  163.5230  203.9930  145.2060 C   0  0  0  0  0  1  0  0  0  0  0  0
  162.3150  203.9450  146.1260 C   0  0  2  0  0  3  0  0  0  0  0  0
  160.5130  204.2910  144.6020 O   0  0  0  0  0  0  0  0  0  0  0  0
  159.4340  201.7080  144.7940 C   0  0  0  0  0  1  0  0  0  0  0  0
  160.6090  202.1470  145.5310 N   0  0  0  0  0  0  0  0  0  0  0  0
  161.1040  203.4860  145.3730 C   0  0  0  0  0  0  0  0  0  0  0  0
  161.2790  201.1900  146.4030 C   0  0  0  0  0  2  0  0  0  0  0  0
  160.7880  201.3320  147.8030 C   0  0  0  0  0  0  0  0  0  0  0  0
  159.7270  201.9660  148.0380 O   0  0  0  0  0  0  0  0  0  0  0  0
  161.5020  200.7240  148.8730 N   0  0  0  0  0  1  0  0  0  0  0  0
  1  9  1  0  0  0  0
  2  3  1  1  0  0  0
  2  5  1  0  0  0  0
  3  7  1  0  0  0  0
  5 15  1  0  0  0  0
  6  1  1  0  0  0  0
  7  4  2  0  0  0  0
  8 13  1  0  0  0  0
  8 12  2  0  0  0  0
 10 20  1  0  0  0  0
 11  4  1  0  0  0  0
 12 17  1  0  0  0  0
 13 19  1  6  0  0  0
 13  2  1  0  0  0  0
 14  8  1  0  0  0  0
 15  1  2  0  0  0  0
 16 21  1  0  0  0  0
 17  5  2  0  0  0  0
 17 18  1  0  0  0  0
 18  6  2  0  0  0  0
 19 10  1  0  0  0  0
 20 21  1  0  0  0  0
 20  3  2  0  0  0  0
 21 11  2  0  0  0  0
 23 22  1  6  0  0  0
 23 14  1  0  0  0  0
 24 27  2  0  0  0  0
 25 26  1  0  0  0  0
 26 28  1  0  0  0  0
 27 26  1  0  0  0  0
 27 23  1  0  0  0  0
 28 29  1  0  0  0  0
 29 30  2  0  0  0  0
 29 31  1  0  0  0  0
M  END
>  <MODEL>
9

>  <REMARK>
 VINA RESULT:      -6.0      4.396      7.269
  Name = 
  4 active torsions:
  status: ('A' for Active; 'I' for Inactive)
    1  A    between atoms: C_1  and  C_24
    2  A    between atoms: C_9  and  C_22
    3  A    between atoms: C_9  and  N_23
    4  A    between atoms: N_19  and  C_24
                            x       y       z     vdW  Elec       q    Type
                         _______ _______ _______ _____ _____    ______ ____

>  <TORSDO>
F 4

$$$$
