=
 OpenBabel11062408273D

 32 37  0  0  1  0  0  0  0  0999 V2000
  160.9770  204.7470  149.8350 C   0  0  1  0  0  3  0  0  0  0  0  0
  161.3720  207.0720  150.9410 C   0  0  0  0  0  0  0  0  0  0  0  0
  161.5450  203.3410  150.0820 C   0  0  0  0  0  2  0  0  0  0  0  0
  160.9600  205.6280  151.1250 C   0  0  2  0  0  3  0  0  0  0  0  0
  161.5800  207.8620  152.0760 C   0  0  0  0  0  0  0  0  0  0  0  0
  161.7250  211.0640  148.1830 C   0  0  0  0  0  3  0  0  0  0  0  0
  161.4360  207.6670  149.6680 C   0  0  0  0  0  0  0  0  0  0  0  0
  162.2160  211.2580  150.6380 C   0  0  0  0  0  2  0  0  0  0  0  0
  161.8620  209.8020  150.7350 C   0  0  0  0  0  0  0  0  0  0  0  0
  161.5800  207.2380  153.3630 N   0  0  0  0  0  0  0  0  0  0  0  0
  161.5590  204.9410  152.3810 C   0  0  2  0  0  3  0  0  0  0  0  0
  161.8230  209.1950  151.9500 N   0  0  0  0  0  0  0  0  0  0  0  0
  160.6430  203.8650  152.9790 C   0  0  0  0  0  2  0  0  0  0  0  0
  159.7810  203.1310  151.9490 C   0  0  0  0  0  2  0  0  0  0  0  0
  161.1780  206.8390  148.4460 C   0  0  0  0  0  2  0  0  0  0  0  0
  162.0660  205.8690  153.4950 C   0  0  0  0  0  2  0  0  0  0  0  0
  161.6880  205.4160  148.6470 C   0  0  2  0  0  3  0  0  0  0  0  0
  161.6760  209.0470  149.5630 C   0  0  0  0  0  0  0  0  0  0  0  0
  161.3870  208.0250  154.5690 C   0  0  0  0  0  1  0  0  0  0  0  0
  160.5870  202.4270  150.8550 C   0  0  0  0  0  2  0  0  0  0  0  0
  161.5440  211.9020  149.4210 C   0  0  0  0  0  2  0  0  0  0  0  0
  161.7390  209.7300  148.2530 C   0  0  0  0  0  3  0  0  0  0  0  0
  161.4870  204.5430  144.9460 C   0  0  0  0  0  0  0  0  0  0  0  0
  161.5950  205.1570  143.7440 F   0  0  0  0  0  0  0  0  0  0  0  0
  161.5240  204.6320  147.3740 C   0  0  0  0  0  0  0  0  0  0  0  0
  161.2300  203.1700  145.0000 C   0  0  0  0  0  3  0  0  0  0  0  0
  161.2640  203.2530  147.4170 C   0  0  0  0  0  3  0  0  0  0  0  0
  161.6330  205.2770  146.1300 C   0  0  0  0  0  0  0  0  0  0  0  0
  161.8890  206.6430  146.0670 O   0  0  0  0  0  1  0  0  0  0  0  0
  161.1140  202.5250  146.2340 C   0  0  0  0  0  0  0  0  0  0  0  0
  161.2660  200.5070  147.6420 C   0  0  0  0  0  1  0  0  0  0  0  0
  160.8590  201.0590  146.2890 C   0  0  0  0  0  2  0  0  0  0  0  0
  1  3  1  1  0  0  0
  1  4  1  0  0  0  0
  2  5  1  0  0  0  0
  3 20  1  0  0  0  0
  4  2  1  6  0  0  0
  4 11  1  0  0  0  0
  5 10  1  0  0  0  0
  6 22  2  0  0  0  0
  6 21  1  0  0  0  0
  7  2  2  0  0  0  0
  8  9  1  0  0  0  0
  9 12  1  0  0  0  0
 10 16  1  0  0  0  0
 10 19  1  0  0  0  0
 11 13  1  1  0  0  0
 11 16  1  0  0  0  0
 12  5  2  0  0  0  0
 14 13  1  0  0  0  0
 15 17  1  0  0  0  0
 15  7  1  0  0  0  0
 17 25  1  6  0  0  0
 17  1  1  0  0  0  0
 18  7  1  0  0  0  0
 18  9  2  0  0  0  0
 20 14  1  0  0  0  0
 21  8  1  0  0  0  0
 22 18  1  0  0  0  0
 23 26  2  0  0  0  0
 23 28  1  0  0  0  0
 24 23  1  0  0  0  0
 25 27  1  0  0  0  0
 26 30  1  0  0  0  0
 28 25  2  0  0  0  0
 29 28  1  0  0  0  0
 30 32  1  0  0  0  0
 30 27  2  0  0  0  0
 32 31  1  0  0  0  0
M  END
>  <MODEL>
1

>  <REMARK>
 VINA RESULT:      -8.6      0.000      0.000
  Name = 
  2 active torsions:
  status: ('A' for Active; 'I' for Inactive)
    1  A    between atoms: C_15  and  C_26
    2  A    between atoms: C_16  and  C_27
                            x       y       z     vdW  Elec       q    Type
                         _______ _______ _______ _____ _____    ______ ____

>  <TORSDO>
F 2

$$$$
=
 OpenBabel11062408273D

 32 37  0  0  1  0  0  0  0  0999 V2000
  161.3240  208.2370  151.0180 C   0  0  1  0  0  3  0  0  0  0  0  0
  161.4240  206.1610  149.4480 C   0  0  0  0  0  0  0  0  0  0  0  0
  162.2680  209.4210  151.2780 C   0  0  0  0  0  2  0  0  0  0  0  0
  161.4510  207.6690  149.5680 C   0  0  2  0  0  3  0  0  0  0  0  0
  161.7400  205.5800  148.2150 C   0  0  0  0  0  0  0  0  0  0  0  0
  159.9910  201.8020  151.0620 C   0  0  0  0  0  3  0  0  0  0  0  0
  160.9810  205.3420  150.5010 C   0  0  0  0  0  0  0  0  0  0  0  0
  161.0860  201.9420  148.8060 C   0  0  0  0  0  2  0  0  0  0  0  0
  161.1460  203.4270  149.0240 C   0  0  0  0  0  0  0  0  0  0  0  0
  162.2540  206.4080  147.1700 N   0  0  0  0  0  0  0  0  0  0  0  0
  162.5290  208.3670  148.6950 C   0  0  2  0  0  3  0  0  0  0  0  0
  161.6000  204.2380  148.0330 N   0  0  0  0  0  0  0  0  0  0  0  0
  162.1130  209.7660  148.2230 C   0  0  0  0  0  2  0  0  0  0  0  0
  161.2060  210.5170  149.2010 C   0  0  0  0  0  2  0  0  0  0  0  0
  160.6040  205.9580  151.8140 C   0  0  0  0  0  2  0  0  0  0  0  0
  163.0810  207.5600  147.5110 C   0  0  0  0  0  2  0  0  0  0  0  0
  161.4850  207.1670  152.1100 C   0  0  2  0  0  3  0  0  0  0  0  0
  160.8320  203.9620  150.2860 C   0  0  0  0  0  0  0  0  0  0  0  0
  162.2180  205.9650  145.7860 C   0  0  0  0  0  1  0  0  0  0  0  0
  161.8220  210.7150  150.5880 C   0  0  0  0  0  2  0  0  0  0  0  0
  159.9630  201.3140  149.6380 C   0  0  0  0  0  2  0  0  0  0  0  0
  160.3540  203.0540  151.3510 C   0  0  0  0  0  3  0  0  0  0  0  0
  160.7590  207.3270  155.8440 C   0  0  0  0  0  0  0  0  0  0  0  0
  160.6410  206.4860  156.8990 F   0  0  0  0  0  0  0  0  0  0  0  0
  161.1700  207.7030  153.4790 C   0  0  0  0  0  0  0  0  0  0  0  0
  160.5960  208.7020  156.0350 C   0  0  0  0  0  3  0  0  0  0  0  0
  161.0030  209.0820  153.6810 C   0  0  0  0  0  3  0  0  0  0  0  0
  161.0450  206.8240  154.5680 C   0  0  0  0  0  0  0  0  0  0  0  0
  161.2060  205.4540  154.3880 O   0  0  0  0  0  1  0  0  0  0  0  0
  160.7130  209.5800  154.9540 C   0  0  0  0  0  0  0  0  0  0  0  0
  160.1540  211.7200  153.8660 C   0  0  0  0  0  1  0  0  0  0  0  0
  160.5580  211.0460  155.1630 C   0  0  0  0  0  2  0  0  0  0  0  0
  1  3  1  1  0  0  0
  1 17  1  0  0  0  0
  2  7  1  0  0  0  0
  4  2  1  1  0  0  0
  4  1  1  0  0  0  0
  5  2  2  0  0  0  0
  6 22  2  0  0  0  0
  7 15  1  0  0  0  0
  8  9  1  0  0  0  0
  8 21  1  0  0  0  0
  9 18  1  0  0  0  0
 10 16  1  0  0  0  0
 10  5  1  0  0  0  0
 11 16  1  6  0  0  0
 11  4  1  0  0  0  0
 12  5  1  0  0  0  0
 12  9  2  0  0  0  0
 13 11  1  0  0  0  0
 13 14  1  0  0  0  0
 14 20  1  0  0  0  0
 15 17  1  0  0  0  0
 17 25  1  1  0  0  0
 18  7  2  0  0  0  0
 18 22  1  0  0  0  0
 19 10  1  0  0  0  0
 20  3  1  0  0  0  0
 21  6  1  0  0  0  0
 23 26  1  0  0  0  0
 23 24  1  0  0  0  0
 25 27  2  0  0  0  0
 25 28  1  0  0  0  0
 27 30  1  0  0  0  0
 28 23  2  0  0  0  0
 29 28  1  0  0  0  0
 30 32  1  0  0  0  0
 30 26  2  0  0  0  0
 31 32  1  0  0  0  0
M  END
>  <MODEL>
2

>  <REMARK>
 VINA RESULT:      -7.5      3.442      8.215
  Name = 
  2 active torsions:
  status: ('A' for Active; 'I' for Inactive)
    1  A    between atoms: C_15  and  C_26
    2  A    between atoms: C_16  and  C_27
                            x       y       z     vdW  Elec       q    Type
                         _______ _______ _______ _____ _____    ______ ____

>  <TORSDO>
F 2

$$$$
=
 OpenBabel11062408273D

 32 37  0  0  1  0  0  0  0  0999 V2000
  161.2460  208.7760  152.7490 C   0  0  1  0  0  3  0  0  0  0  0  0
  161.5590  209.2820  150.2130 C   0  0  0  0  0  0  0  0  0  0  0  0
  160.4120  207.7530  153.5350 C   0  0  0  0  0  2  0  0  0  0  0  0
  161.6510  208.2650  151.3300 C   0  0  2  0  0  3  0  0  0  0  0  0
  161.7040  208.8460  148.8930 C   0  0  0  0  0  0  0  0  0  0  0  0
  161.7410  213.8820  148.6420 C   0  0  0  0  0  3  0  0  0  0  0  0
  161.4510  210.6600  150.4750 C   0  0  0  0  0  0  0  0  0  0  0  0
  161.6660  212.0380  146.9390 C   0  0  0  0  0  2  0  0  0  0  0  0
  161.6850  211.0840  148.0990 C   0  0  0  0  0  0  0  0  0  0  0  0
  161.7450  207.4410  148.6280 N   0  0  0  0  0  0  0  0  0  0  0  0
  161.0960  206.8600  150.9700 C   0  0  2  0  0  3  0  0  0  0  0  0
  161.7580  209.7470  147.8740 N   0  0  0  0  0  0  0  0  0  0  0  0
  161.8160  205.7190  151.6990 C   0  0  0  0  0  2  0  0  0  0  0  0
  162.3300  206.0890  153.0930 C   0  0  0  0  0  2  0  0  0  0  0  0
  161.3340  211.1420  151.8890 C   0  0  0  0  0  2  0  0  0  0  0  0
  160.9810  206.5310  149.4740 C   0  0  0  0  0  2  0  0  0  0  0  0
  160.5450  210.1450  152.7300 C   0  0  2  0  0  3  0  0  0  0  0  0
  161.5230  211.5720  149.4090 C   0  0  0  0  0  0  0  0  0  0  0  0
  162.2840  206.9380  147.3770 C   0  0  0  0  0  1  0  0  0  0  0  0
  161.2350  206.5660  154.0500 C   0  0  0  0  0  2  0  0  0  0  0  0
  162.2850  213.3840  147.3290 C   0  0  0  0  0  2  0  0  0  0  0  0
  161.4310  213.0310  149.6240 C   0  0  0  0  0  3  0  0  0  0  0  0
  158.8790  211.6460  155.8060 C   0  0  0  0  0  0  0  0  0  0  0  0
  157.6550  212.0720  156.2000 F   0  0  0  0  0  0  0  0  0  0  0  0
  160.3400  210.6960  154.1140 C   0  0  0  0  0  0  0  0  0  0  0  0
  159.9530  211.7120  156.6980 C   0  0  0  0  0  3  0  0  0  0  0  0
  161.4130  210.7680  155.0160 C   0  0  0  0  0  3  0  0  0  0  0  0
  159.0690  211.1390  154.5140 C   0  0  0  0  0  0  0  0  0  0  0  0
  157.9930  211.0760  153.6340 O   0  0  0  0  0  1  0  0  0  0  0  0
  161.2210  211.2790  156.3030 C   0  0  0  0  0  0  0  0  0  0  0  0
  163.1130  210.0160  157.2540 C   0  0  0  0  0  1  0  0  0  0  0  0
  162.3600  211.3330  157.2610 C   0  0  0  0  0  2  0  0  0  0  0  0
  1  3  1  6  0  0  0
  2  7  1  0  0  0  0
  3 20  1  0  0  0  0
  4  2  1  6  0  0  0
  4  1  1  0  0  0  0
  5  2  2  0  0  0  0
  6 22  2  0  0  0  0
  7 15  1  0  0  0  0
  8 21  1  0  0  0  0
  8  9  1  0  0  0  0
  9 18  1  0  0  0  0
 10  5  1  0  0  0  0
 10 16  1  0  0  0  0
 11 16  1  6  0  0  0
 11  4  1  0  0  0  0
 11 13  1  0  0  0  0
 12  9  2  0  0  0  0
 12  5  1  0  0  0  0
 13 14  1  0  0  0  0
 14 20  1  0  0  0  0
 15 17  1  0  0  0  0
 17  1  1  0  0  0  0
 17 25  1  1  0  0  0
 18 22  1  0  0  0  0
 18  7  2  0  0  0  0
 19 10  1  0  0  0  0
 21  6  1  0  0  0  0
 23 24  1  0  0  0  0
 23 26  1  0  0  0  0
 25 28  1  0  0  0  0
 25 27  2  0  0  0  0
 27 30  1  0  0  0  0
 28 23  2  0  0  0  0
 29 28  1  0  0  0  0
 30 26  2  0  0  0  0
 30 32  1  0  0  0  0
 31 32  1  0  0  0  0
M  END
>  <MODEL>
3

>  <REMARK>
 VINA RESULT:      -7.4      4.188      7.878
  Name = 
  2 active torsions:
  status: ('A' for Active; 'I' for Inactive)
    1  A    between atoms: C_15  and  C_26
    2  A    between atoms: C_16  and  C_27
                            x       y       z     vdW  Elec       q    Type
                         _______ _______ _______ _____ _____    ______ ____

>  <TORSDO>
F 2

$$$$
=
 OpenBabel11062408273D

 32 37  0  0  1  0  0  0  0  0999 V2000
  161.1760  208.7830  152.9340 C   0  0  1  0  0  3  0  0  0  0  0  0
  161.5810  209.2860  150.4110 C   0  0  0  0  0  0  0  0  0  0  0  0
  160.3540  207.7290  153.6910 C   0  0  0  0  0  2  0  0  0  0  0  0
  161.6670  208.2810  151.5390 C   0  0  2  0  0  3  0  0  0  0  0  0
  161.8050  208.8470  149.1020 C   0  0  0  0  0  0  0  0  0  0  0  0
  161.6300  213.8780  148.8090 C   0  0  0  0  0  3  0  0  0  0  0  0
  161.4010  210.6590  150.6550 C   0  0  0  0  0  0  0  0  0  0  0  0
  161.7140  212.0210  147.1200 C   0  0  0  0  0  2  0  0  0  0  0  0
  161.7230  211.0770  148.2890 C   0  0  0  0  0  0  0  0  0  0  0  0
  161.9200  207.4440  148.8510 N   0  0  0  0  0  0  0  0  0  0  0  0
  161.1920  206.8500  151.1670 C   0  0  2  0  0  3  0  0  0  0  0  0
  161.8650  209.7420  148.0780 N   0  0  0  0  0  0  0  0  0  0  0  0
  161.9280  205.7480  151.9380 C   0  0  0  0  0  2  0  0  0  0  0  0
  162.3610  206.1490  153.3500 C   0  0  0  0  0  2  0  0  0  0  0  0
  161.1980  211.1450  152.0580 C   0  0  0  0  0  2  0  0  0  0  0  0
  161.1600  206.5060  149.6700 C   0  0  0  0  0  2  0  0  0  0  0  0
  160.4170  210.1190  152.8710 C   0  0  2  0  0  3  0  0  0  0  0  0
  161.4800  211.5660  149.5850 C   0  0  0  0  0  0  0  0  0  0  0  0
  162.5380  206.9570  147.6300 C   0  0  0  0  0  1  0  0  0  0  0  0
  161.2040  206.5840  154.2530 C   0  0  0  0  0  2  0  0  0  0  0  0
  162.2550  213.3960  147.5260 C   0  0  0  0  0  2  0  0  0  0  0  0
  161.3140  213.0210  149.7830 C   0  0  0  0  0  3  0  0  0  0  0  0
  160.9050  211.4620  156.4000 C   0  0  0  0  0  0  0  0  0  0  0  0
  161.9160  211.7320  157.2610 F   0  0  0  0  0  0  0  0  0  0  0  0
  160.1250  210.6700  154.2400 C   0  0  0  0  0  0  0  0  0  0  0  0
  159.5850  211.7080  156.7880 C   0  0  0  0  0  3  0  0  0  0  0  0
  158.8030  210.9180  154.6390 C   0  0  0  0  0  3  0  0  0  0  0  0
  161.1790  210.9430  155.1290 C   0  0  0  0  0  0  0  0  0  0  0  0
  162.4960  210.7030  154.7520 O   0  0  0  0  0  1  0  0  0  0  0  0
  158.5330  211.4310  155.9100 C   0  0  0  0  0  0  0  0  0  0  0  0
  156.1620  211.0800  155.3330 C   0  0  0  0  0  1  0  0  0  0  0  0
  157.1280  211.7110  156.3180 C   0  0  0  0  0  2  0  0  0  0  0  0
  1  3  1  6  0  0  0
  2  7  1  0  0  0  0
  3 20  1  0  0  0  0
  4  2  1  6  0  0  0
  4  1  1  0  0  0  0
  5  2  2  0  0  0  0
  6 22  2  0  0  0  0
  7 15  1  0  0  0  0
  8 21  1  0  0  0  0
  8  9  1  0  0  0  0
  9 18  1  0  0  0  0
 10  5  1  0  0  0  0
 10 16  1  0  0  0  0
 11 16  1  6  0  0  0
 11  4  1  0  0  0  0
 11 13  1  0  0  0  0
 12  9  2  0  0  0  0
 12  5  1  0  0  0  0
 13 14  1  0  0  0  0
 14 20  1  0  0  0  0
 15 17  1  0  0  0  0
 17  1  1  0  0  0  0
 17 25  1  1  0  0  0
 18 22  1  0  0  0  0
 18  7  2  0  0  0  0
 19 10  1  0  0  0  0
 21  6  1  0  0  0  0
 23 26  1  0  0  0  0
 23 24  1  0  0  0  0
 25 27  2  0  0  0  0
 25 28  1  0  0  0  0
 27 30  1  0  0  0  0
 28 23  2  0  0  0  0
 29 28  1  0  0  0  0
 30 32  1  0  0  0  0
 30 26  2  0  0  0  0
 31 32  1  0  0  0  0
M  END
>  <MODEL>
4

>  <REMARK>
 VINA RESULT:      -7.3      4.250      7.934
  Name = 
  2 active torsions:
  status: ('A' for Active; 'I' for Inactive)
    1  A    between atoms: C_15  and  C_26
    2  A    between atoms: C_16  and  C_27
                            x       y       z     vdW  Elec       q    Type
                         _______ _______ _______ _____ _____    ______ ____

>  <TORSDO>
F 2

$$$$
=
 OpenBabel11062408273D

 32 37  0  0  1  0  0  0  0  0999 V2000
  161.2060  208.4890  149.8840 C   0  0  1  0  0  3  0  0  0  0  0  0
  161.0520  207.2910  152.1920 C   0  0  0  0  0  0  0  0  0  0  0  0
  162.0970  208.3040  148.6460 C   0  0  0  0  0  2  0  0  0  0  0  0
  161.0000  207.1640  150.6850 C   0  0  2  0  0  3  0  0  0  0  0  0
  161.0840  206.1260  152.9640 C   0  0  0  0  0  0  0  0  0  0  0  0
  160.3940  209.8860  156.2540 C   0  0  0  0  0  3  0  0  0  0  0  0
  160.9510  208.5390  152.8320 C   0  0  0  0  0  0  0  0  0  0  0  0
  160.8660  207.4280  156.4670 C   0  0  0  0  0  2  0  0  0  0  0  0
  160.8720  207.3880  154.9650 C   0  0  0  0  0  0  0  0  0  0  0  0
  161.2550  204.8660  152.3110 N   0  0  0  0  0  0  0  0  0  0  0  0
  161.7670  205.9410  150.1140 C   0  0  2  0  0  3  0  0  0  0  0  0
  161.0000  206.1990  154.3210 N   0  0  0  0  0  0  0  0  0  0  0  0
  161.1460  205.3810  148.8290 C   0  0  0  0  0  2  0  0  0  0  0  0
  160.4660  206.4340  147.9490 C   0  0  0  0  0  2  0  0  0  0  0  0
  160.8770  209.7920  152.0140 C   0  0  0  0  0  2  0  0  0  0  0  0
  162.0570  204.7940  151.0940 C   0  0  0  0  0  2  0  0  0  0  0  0
  161.7150  209.6540  150.7480 C   0  0  2  0  0  3  0  0  0  0  0  0
  160.8520  208.5890  154.2330 C   0  0  0  0  0  0  0  0  0  0  0  0
  160.9000  203.6270  152.9820 C   0  0  0  0  0  1  0  0  0  0  0  0
  161.3980  207.5620  147.5000 C   0  0  0  0  0  2  0  0  0  0  0  0
  160.0400  208.6130  156.9770 C   0  0  0  0  0  2  0  0  0  0  0  0
  160.7280  209.8700  154.9600 C   0  0  0  0  0  3  0  0  0  0  0  0
  160.9600  213.2500  149.7540 C   0  0  0  0  0  0  0  0  0  0  0  0
  160.2180  214.2970  150.1890 F   0  0  0  0  0  0  0  0  0  0  0  0
  161.7220  210.9560  149.9970 C   0  0  0  0  0  0  0  0  0  0  0  0
  161.7420  213.3890  148.6040 C   0  0  0  0  0  3  0  0  0  0  0  0
  162.5030  211.1050  148.8400 C   0  0  0  0  0  3  0  0  0  0  0  0
  160.9470  212.0360  150.4520 C   0  0  0  0  0  0  0  0  0  0  0  0
  160.1650  211.9070  151.5960 O   0  0  0  0  0  1  0  0  0  0  0  0
  162.5100  212.3160  148.1430 C   0  0  0  0  0  0  0  0  0  0  0  0
  162.6260  213.2930  145.8830 C   0  0  0  0  0  1  0  0  0  0  0  0
  163.3570  212.4730  146.9290 C   0  0  0  0  0  2  0  0  0  0  0  0
  1  3  1  6  0  0  0
  1  4  1  0  0  0  0
  1 17  1  0  0  0  0
  2  7  2  0  0  0  0
  2  5  1  0  0  0  0
  4  2  1  1  0  0  0
  5 12  2  0  0  0  0
  6 21  1  0  0  0  0
  7 18  1  0  0  0  0
  8 21  1  0  0  0  0
  9  8  1  0  0  0  0
 10  5  1  0  0  0  0
 10 19  1  0  0  0  0
 11 13  1  6  0  0  0
 11  4  1  0  0  0  0
 11 16  1  0  0  0  0
 12  9  1  0  0  0  0
 14 13  1  0  0  0  0
 15  7  1  0  0  0  0
 16 10  1  0  0  0  0
 17 25  1  6  0  0  0
 17 15  1  0  0  0  0
 18 22  1  0  0  0  0
 18  9  2  0  0  0  0
 20 14  1  0  0  0  0
 20  3  1  0  0  0  0
 22  6  2  0  0  0  0
 23 24  1  0  0  0  0
 23 28  1  0  0  0  0
 25 28  2  0  0  0  0
 26 23  2  0  0  0  0
 27 25  1  0  0  0  0
 28 29  1  0  0  0  0
 30 26  1  0  0  0  0
 30 27  2  0  0  0  0
 31 32  1  0  0  0  0
 32 30  1  0  0  0  0
M  END
>  <MODEL>
5

>  <REMARK>
 VINA RESULT:      -6.8      3.297      6.888
  Name = 
  2 active torsions:
  status: ('A' for Active; 'I' for Inactive)
    1  A    between atoms: C_15  and  C_26
    2  A    between atoms: C_16  and  C_27
                            x       y       z     vdW  Elec       q    Type
                         _______ _______ _______ _____ _____    ______ ____

>  <TORSDO>
F 2

$$$$
=
 OpenBabel11062408273D

 32 37  0  0  1  0  0  0  0  0999 V2000
  161.4280  204.7390  150.4270 C   0  0  1  0  0  3  0  0  0  0  0  0
  161.1510  203.7290  148.0410 C   0  0  0  0  0  0  0  0  0  0  0  0
  160.7120  204.5130  151.7670 C   0  0  0  0  0  2  0  0  0  0  0  0
  161.4100  203.4740  149.5110 C   0  0  2  0  0  3  0  0  0  0  0  0
  160.9150  202.6360  147.2010 C   0  0  0  0  0  0  0  0  0  0  0  0
  161.4250  206.5990  144.1240 C   0  0  0  0  0  3  0  0  0  0  0  0
  161.2590  205.0150  147.4840 C   0  0  0  0  0  0  0  0  0  0  0  0
  160.7310  204.2060  143.8080 C   0  0  0  0  0  2  0  0  0  0  0  0
  160.9380  204.0430  145.2870 C   0  0  0  0  0  0  0  0  0  0  0  0
  160.7390  201.3410  147.7800 N   0  0  0  0  0  0  0  0  0  0  0  0
  160.6360  202.2630  150.1010 C   0  0  2  0  0  3  0  0  0  0  0  0
  160.8090  202.8160  145.8560 N   0  0  0  0  0  0  0  0  0  0  0  0
  161.3900  201.5580  151.2350 C   0  0  0  0  0  2  0  0  0  0  0  0
  162.2710  202.4840  152.0770 C   0  0  0  0  0  2  0  0  0  0  0  0
  161.5510  206.1880  148.3700 C   0  0  0  0  0  2  0  0  0  0  0  0
  160.1180  201.2240  149.0950 C   0  0  0  0  0  2  0  0  0  0  0  0
  160.8950  206.0030  149.7340 C   0  0  2  0  0  3  0  0  0  0  0  0
  161.1600  205.1750  146.0920 C   0  0  0  0  0  0  0  0  0  0  0  0
  160.8930  200.1410  146.9760 C   0  0  0  0  0  1  0  0  0  0  0  0
  161.5060  203.6330  152.7390 C   0  0  0  0  0  2  0  0  0  0  0  0
  161.5680  205.3700  143.2670 C   0  0  0  0  0  2  0  0  0  0  0  0
  161.2810  206.4990  145.4480 C   0  0  0  0  0  3  0  0  0  0  0  0
  161.7410  209.5730  150.7520 C   0  0  0  0  0  0  0  0  0  0  0  0
  162.1760  210.7230  150.1820 F   0  0  0  0  0  0  0  0  0  0  0  0
  161.1010  207.2360  150.5700 C   0  0  0  0  0  0  0  0  0  0  0  0
  161.4750  209.5400  152.1230 C   0  0  0  0  0  3  0  0  0  0  0  0
  160.8380  207.2130  151.9480 C   0  0  0  0  0  3  0  0  0  0  0  0
  161.5560  208.4240  149.9730 C   0  0  0  0  0  0  0  0  0  0  0  0
  161.8230  208.4670  148.6080 O   0  0  0  0  0  1  0  0  0  0  0  0
  161.0280  208.3600  152.7240 C   0  0  0  0  0  0  0  0  0  0  0  0
  160.6590  206.8990  154.6750 C   0  0  0  0  0  1  0  0  0  0  0  0
  160.7260  208.3320  154.1820 C   0  0  0  0  0  2  0  0  0  0  0  0
  1  3  1  1  0  0  0
  3 20  1  0  0  0  0
  4  2  1  6  0  0  0
  4 11  1  0  0  0  0
  4  1  1  0  0  0  0
  5 10  1  0  0  0  0
  5  2  2  0  0  0  0
  6 22  2  0  0  0  0
  7  2  1  0  0  0  0
  7 15  1  0  0  0  0
  8  9  1  0  0  0  0
  9 12  2  0  0  0  0
  9 18  1  0  0  0  0
 10 16  1  0  0  0  0
 11 16  1  6  0  0  0
 11 13  1  0  0  0  0
 12  5  1  0  0  0  0
 13 14  1  0  0  0  0
 14 20  1  0  0  0  0
 15 17  1  0  0  0  0
 17  1  1  0  0  0  0
 17 25  1  1  0  0  0
 18  7  2  0  0  0  0
 19 10  1  0  0  0  0
 21  8  1  0  0  0  0
 21  6  1  0  0  0  0
 22 18  1  0  0  0  0
 23 26  1  0  0  0  0
 24 23  1  0  0  0  0
 25 27  2  0  0  0  0
 26 30  2  0  0  0  0
 27 30  1  0  0  0  0
 28 25  1  0  0  0  0
 28 23  2  0  0  0  0
 29 28  1  0  0  0  0
 30 32  1  0  0  0  0
 32 31  1  0  0  0  0
M  END
>  <MODEL>
6

>  <REMARK>
 VINA RESULT:      -6.2      2.928      6.524
  Name = 
  2 active torsions:
  status: ('A' for Active; 'I' for Inactive)
    1  A    between atoms: C_15  and  C_26
    2  A    between atoms: C_16  and  C_27
                            x       y       z     vdW  Elec       q    Type
                         _______ _______ _______ _____ _____    ______ ____

>  <TORSDO>
F 2

$$$$
=
 OpenBabel11062408273D

 32 37  0  0  1  0  0  0  0  0999 V2000
  161.4590  206.9520  151.3650 C   0  0  1  0  0  3  0  0  0  0  0  0
  161.3830  204.9250  149.7310 C   0  0  0  0  0  0  0  0  0  0  0  0
  160.5910  207.3940  152.5530 C   0  0  0  0  0  2  0  0  0  0  0  0
  161.4660  205.4030  151.1640 C   0  0  2  0  0  3  0  0  0  0  0  0
  161.1760  203.5630  149.4880 C   0  0  0  0  0  0  0  0  0  0  0  0
  162.2390  205.5730  144.9870 C   0  0  0  0  0  3  0  0  0  0  0  0
  161.6230  205.7880  148.6480 C   0  0  0  0  0  0  0  0  0  0  0  0
  161.4480  203.3190  145.7630 C   0  0  0  0  0  2  0  0  0  0  0  0
  161.4850  203.8830  147.1550 C   0  0  0  0  0  0  0  0  0  0  0  0
  160.8640  202.7020  150.5870 N   0  0  0  0  0  0  0  0  0  0  0  0
  160.5660  204.6210  152.1590 C   0  0  2  0  0  3  0  0  0  0  0  0
  161.2250  203.0770  148.2180 N   0  0  0  0  0  0  0  0  0  0  0  0
  161.1510  204.5450  153.5740 C   0  0  0  0  0  2  0  0  0  0  0  0
  161.9890  205.7620  153.9760 C   0  0  0  0  0  2  0  0  0  0  0  0
  161.8840  207.2420  148.8990 C   0  0  0  0  0  2  0  0  0  0  0  0
  160.1000  203.2270  151.7130 C   0  0  0  0  0  2  0  0  0  0  0  0
  161.0760  207.7310  150.0960 C   0  0  2  0  0  3  0  0  0  0  0  0
  161.6830  205.2620  147.3460 C   0  0  0  0  0  0  0  0  0  0  0  0
  161.0350  201.2640  150.4740 C   0  0  0  0  0  1  0  0  0  0  0  0
  161.2250  207.0870  153.9150 C   0  0  0  0  0  2  0  0  0  0  0  0
  162.4030  204.0830  144.8410 C   0  0  0  0  0  2  0  0  0  0  0  0
  161.9480  206.1180  146.1710 C   0  0  0  0  0  3  0  0  0  0  0  0
  162.1070  211.3370  149.4380 C   0  0  0  0  0  0  0  0  0  0  0  0
  162.7590  212.0580  148.4940 F   0  0  0  0  0  0  0  0  0  0  0  0
  161.2620  209.2140  150.2640 C   0  0  0  0  0  0  0  0  0  0  0  0
  161.5990  211.9810  150.5690 C   0  0  0  0  0  3  0  0  0  0  0  0
  160.7560  209.8700  151.3970 C   0  0  0  0  0  3  0  0  0  0  0  0
  161.9420  209.9550  149.2830 C   0  0  0  0  0  0  0  0  0  0  0  0
  162.4510  209.3230  148.1530 O   0  0  0  0  0  1  0  0  0  0  0  0
  160.9270  211.2470  151.5520 C   0  0  0  0  0  0  0  0  0  0  0  0
  159.3090  211.0750  153.4030 C   0  0  0  0  0  1  0  0  0  0  0  0
  160.3700  211.9390  152.7480 C   0  0  0  0  0  2  0  0  0  0  0  0
  1  3  1  1  0  0  0
  3 20  1  0  0  0  0
  4  2  1  6  0  0  0
  4  1  1  0  0  0  0
  4 11  1  0  0  0  0
  5  2  1  0  0  0  0
  5 10  1  0  0  0  0
  6 22  2  0  0  0  0
  7 15  1  0  0  0  0
  7  2  2  0  0  0  0
  8  9  1  0  0  0  0
  9 18  2  0  0  0  0
  9 12  1  0  0  0  0
 10 16  1  0  0  0  0
 11 16  1  6  0  0  0
 11 13  1  0  0  0  0
 12  5  2  0  0  0  0
 13 14  1  0  0  0  0
 15 17  1  0  0  0  0
 17 25  1  1  0  0  0
 17  1  1  0  0  0  0
 18  7  1  0  0  0  0
 19 10  1  0  0  0  0
 20 14  1  0  0  0  0
 21  6  1  0  0  0  0
 21  8  1  0  0  0  0
 22 18  1  0  0  0  0
 23 26  1  0  0  0  0
 24 23  1  0  0  0  0
 25 27  2  0  0  0  0
 26 30  2  0  0  0  0
 27 30  1  0  0  0  0
 28 23  2  0  0  0  0
 28 25  1  0  0  0  0
 29 28  1  0  0  0  0
 30 32  1  0  0  0  0
 32 31  1  0  0  0  0
M  END
>  <MODEL>
7

>  <REMARK>
 VINA RESULT:      -6.1      2.510      6.547
  Name = 
  2 active torsions:
  status: ('A' for Active; 'I' for Inactive)
    1  A    between atoms: C_15  and  C_26
    2  A    between atoms: C_16  and  C_27
                            x       y       z     vdW  Elec       q    Type
                         _______ _______ _______ _____ _____    ______ ____

>  <TORSDO>
F 2

$$$$
=
 OpenBabel11062408273D

 32 37  0  0  1  0  0  0  0  0999 V2000
  161.3290  208.9850  149.3340 C   0  0  1  0  0  3  0  0  0  0  0  0
  161.1320  208.6310  151.9070 C   0  0  0  0  0  0  0  0  0  0  0  0
  162.3040  208.4760  148.2610 C   0  0  0  0  0  2  0  0  0  0  0  0
  161.1790  207.9970  150.5340 C   0  0  2  0  0  3  0  0  0  0  0  0
  161.2080  207.8040  153.0320 C   0  0  0  0  0  0  0  0  0  0  0  0
  160.0360  212.3730  154.8140 C   0  0  0  0  0  3  0  0  0  0  0  0
  160.8970  210.0060  152.0780 C   0  0  0  0  0  0  0  0  0  0  0  0
  160.6830  210.1880  155.8690 C   0  0  0  0  0  2  0  0  0  0  0  0
  160.7810  209.6430  154.4730 C   0  0  0  0  0  0  0  0  0  0  0  0
  161.5140  206.4180  152.8550 N   0  0  0  0  0  0  0  0  0  0  0  0
  162.0710  206.7290  150.4390 C   0  0  2  0  0  3  0  0  0  0  0  0
  161.0380  208.3230  154.2790 N   0  0  0  0  0  0  0  0  0  0  0  0
  161.5720  205.7130  149.4050 C   0  0  0  0  0  2  0  0  0  0  0  0
  160.8660  206.3370  148.1980 C   0  0  0  0  0  2  0  0  0  0  0  0
  160.7750  210.8960  150.8790 C   0  0  0  0  0  2  0  0  0  0  0  0
  162.3890  206.0130  151.7600 C   0  0  0  0  0  2  0  0  0  0  0  0
  161.6950  210.4160  149.7620 C   0  0  2  0  0  3  0  0  0  0  0  0
  160.7110  210.5180  153.3740 C   0  0  0  0  0  0  0  0  0  0  0  0
  161.2170  205.4530  153.8980 C   0  0  0  0  0  1  0  0  0  0  0  0
  161.7330  207.3290  147.4180 C   0  0  0  0  0  2  0  0  0  0  0  0
  159.7390  211.3930  155.9180 C   0  0  0  0  0  2  0  0  0  0  0  0
  160.4460  211.9520  153.6150 C   0  0  0  0  0  3  0  0  0  0  0  0
  162.7370  213.0280  147.1960 C   0  0  0  0  0  0  0  0  0  0  0  0
  163.8310  213.7540  146.8620 F   0  0  0  0  0  0  0  0  0  0  0  0
  161.6460  211.3820  148.6110 C   0  0  0  0  0  0  0  0  0  0  0  0
  161.5600  213.1750  146.4570 C   0  0  0  0  0  3  0  0  0  0  0  0
  160.4680  211.5380  147.8640 C   0  0  0  0  0  3  0  0  0  0  0  0
  162.7840  212.1340  148.2730 C   0  0  0  0  0  0  0  0  0  0  0  0
  163.9600  211.9940  149.0020 O   0  0  0  0  0  1  0  0  0  0  0  0
  160.4230  212.4340  146.7930 C   0  0  0  0  0  0  0  0  0  0  0  0
  157.9650  212.5780  146.9070 C   0  0  0  0  0  1  0  0  0  0  0  0
  159.1750  212.5780  145.9920 C   0  0  0  0  0  2  0  0  0  0  0  0
  1  3  1  6  0  0  0
  1 17  1  0  0  0  0
  1  4  1  0  0  0  0
  2  7  2  0  0  0  0
  2  5  1  0  0  0  0
  4  2  1  1  0  0  0
  5 12  2  0  0  0  0
  6 21  1  0  0  0  0
  7 18  1  0  0  0  0
  8 21  1  0  0  0  0
  9  8  1  0  0  0  0
 10  5  1  0  0  0  0
 10 19  1  0  0  0  0
 11 13  1  6  0  0  0
 11  4  1  0  0  0  0
 11 16  1  0  0  0  0
 12  9  1  0  0  0  0
 14 13  1  0  0  0  0
 15  7  1  0  0  0  0
 16 10  1  0  0  0  0
 17 25  1  6  0  0  0
 17 15  1  0  0  0  0
 18 22  1  0  0  0  0
 18  9  2  0  0  0  0
 20 14  1  0  0  0  0
 20  3  1  0  0  0  0
 22  6  2  0  0  0  0
 23 28  1  0  0  0  0
 24 23  1  0  0  0  0
 26 30  1  0  0  0  0
 26 23  2  0  0  0  0
 27 25  1  0  0  0  0
 28 25  2  0  0  0  0
 28 29  1  0  0  0  0
 30 27  2  0  0  0  0
 32 30  1  0  0  0  0
 32 31  1  0  0  0  0
M  END
>  <MODEL>
8

>  <REMARK>
 VINA RESULT:      -5.7      3.198      6.349
  Name = 
  2 active torsions:
  status: ('A' for Active; 'I' for Inactive)
    1  A    between atoms: C_15  and  C_26
    2  A    between atoms: C_16  and  C_27
                            x       y       z     vdW  Elec       q    Type
                         _______ _______ _______ _____ _____    ______ ____

>  <TORSDO>
F 2

$$$$
=
 OpenBabel11062408273D

 32 37  0  0  1  0  0  0  0  0999 V2000
  161.4290  207.7920  152.1980 C   0  0  1  0  0  3  0  0  0  0  0  0
  161.5450  208.6220  149.7320 C   0  0  0  0  0  0  0  0  0  0  0  0
  160.5830  206.7380  152.9280 C   0  0  0  0  0  2  0  0  0  0  0  0
  161.6470  207.4550  150.6890 C   0  0  2  0  0  3  0  0  0  0  0  0
  161.5210  208.3650  148.3580 C   0  0  0  0  0  0  0  0  0  0  0  0
  162.0030  213.3680  148.7670 C   0  0  0  0  0  3  0  0  0  0  0  0
  161.5910  209.9540  150.1820 C   0  0  0  0  0  0  0  0  0  0  0  0
  161.5940  211.7920  146.8550 C   0  0  0  0  0  2  0  0  0  0  0  0
  161.6360  210.6870  147.8710 C   0  0  0  0  0  0  0  0  0  0  0  0
  161.4060  207.0130  147.9080 N   0  0  0  0  0  0  0  0  0  0  0  0
  160.9330  206.1620  150.2090 C   0  0  2  0  0  3  0  0  0  0  0  0
  161.5610  209.3920  147.4660 N   0  0  0  0  0  0  0  0  0  0  0  0
  161.6090  204.8770  150.7010 C   0  0  0  0  0  2  0  0  0  0  0  0
  162.2860  205.0060  152.0680 C   0  0  0  0  0  2  0  0  0  0  0  0
  161.6550  210.2410  151.6510 C   0  0  0  0  0  2  0  0  0  0  0  0
  160.6450  206.0560  148.7040 C   0  0  0  0  0  2  0  0  0  0  0  0
  160.8610  209.2010  152.4340 C   0  0  2  0  0  3  0  0  0  0  0  0
  161.6450  210.9980  149.2430 C   0  0  0  0  0  0  0  0  0  0  0  0
  161.7750  206.6480  146.5500 C   0  0  0  0  0  1  0  0  0  0  0  0
  161.3370  205.4300  153.1910 C   0  0  0  0  0  2  0  0  0  0  0  0
  162.3710  213.0170  147.3500 C   0  0  0  0  0  2  0  0  0  0  0  0
  161.7110  212.4150  149.6570 C   0  0  0  0  0  3  0  0  0  0  0  0
  160.5140  211.2190  155.6430 C   0  0  0  0  0  0  0  0  0  0  0  0
  160.2200  212.4840  156.0290 F   0  0  0  0  0  0  0  0  0  0  0  0
  160.8410  209.5670  153.8920 C   0  0  0  0  0  0  0  0  0  0  0  0
  160.7910  210.2500  156.6110 C   0  0  0  0  0  3  0  0  0  0  0  0
  161.1200  208.6010  154.8720 C   0  0  0  0  0  3  0  0  0  0  0  0
  160.5390  210.8820  154.2840 C   0  0  0  0  0  0  0  0  0  0  0  0
  160.2600  211.8540  153.3280 O   0  0  0  0  0  1  0  0  0  0  0  0
  161.0990  208.9420  156.2260 C   0  0  0  0  0  0  0  0  0  0  0  0
  160.2760  206.8610  157.2610 C   0  0  0  0  0  1  0  0  0  0  0  0
  161.3760  207.9060  157.2600 C   0  0  0  0  0  2  0  0  0  0  0  0
  1 17  1  0  0  0  0
  1  3  1  6  0  0  0
  2  7  1  0  0  0  0
  3 20  1  0  0  0  0
  4  2  1  6  0  0  0
  4  1  1  0  0  0  0
  5  2  2  0  0  0  0
  6 22  2  0  0  0  0
  7 15  1  0  0  0  0
  8 21  1  0  0  0  0
  8  9  1  0  0  0  0
  9 18  1  0  0  0  0
 10  5  1  0  0  0  0
 10 16  1  0  0  0  0
 11 16  1  6  0  0  0
 11  4  1  0  0  0  0
 11 13  1  0  0  0  0
 12  9  2  0  0  0  0
 12  5  1  0  0  0  0
 13 14  1  0  0  0  0
 14 20  1  0  0  0  0
 15 17  1  0  0  0  0
 17 25  1  1  0  0  0
 18 22  1  0  0  0  0
 18  7  2  0  0  0  0
 19 10  1  0  0  0  0
 21  6  1  0  0  0  0
 23 24  1  0  0  0  0
 23 26  1  0  0  0  0
 25 28  1  0  0  0  0
 25 27  2  0  0  0  0
 27 30  1  0  0  0  0
 28 23  2  0  0  0  0
 29 28  1  0  0  0  0
 30 26  2  0  0  0  0
 30 32  1  0  0  0  0
 32 31  1  0  0  0  0
M  END
>  <MODEL>
9

>  <REMARK>
 VINA RESULT:      -5.7      3.904      7.226
  Name = 
  2 active torsions:
  status: ('A' for Active; 'I' for Inactive)
    1  A    between atoms: C_15  and  C_26
    2  A    between atoms: C_16  and  C_27
                            x       y       z     vdW  Elec       q    Type
                         _______ _______ _______ _____ _____    ______ ____

>  <TORSDO>
F 2

$$$$
