=
 OpenBabel11062409563D

 43 47  0  0  1  0  0  0  0  0999 V2000
  160.5330  207.8270  154.6860 C   0  0  0  0  0  0  0  0  0  0  0  0
  161.4750  210.2930  151.0370 C   0  0  0  0  0  0  0  0  0  0  0  0
  161.8680  208.4240  148.9880 C   0  0  0  0  0  0  0  0  0  0  0  0
  160.9760  210.0560  153.0780 C   0  0  0  0  0  0  0  0  0  0  0  0
  160.9690  206.3970  152.8000 F   0  0  0  0  0  0  0  0  0  0  0  0
  160.3150  206.7540  155.4860 F   0  0  0  0  0  0  0  0  0  0  0  0
  161.0780  208.7780  152.5590 C   0  0  0  0  0  0  0  0  0  0  0  0
  160.4270  209.1290  155.2230 C   0  0  0  0  0  3  0  0  0  0  0  0
  160.8630  207.6400  153.3320 C   0  0  0  0  0  0  0  0  0  0  0  0
  161.5990  207.9960  150.1970 N   0  0  0  0  0  0  0  0  0  0  0  0
  161.4030  208.9500  151.2440 C   0  0  0  0  0  0  0  0  0  0  0  0
  161.2140  211.0160  152.1520 N   0  0  0  0  0  2  0  0  0  0  0  0
  161.7660  210.7930  149.7350 N   0  0  0  0  0  0  0  0  0  0  0  0
  161.9530  209.8430  148.7100 N   0  0  0  0  0  2  0  0  0  0  0  0
  160.6480  210.2620  154.4170 C   0  0  0  0  0  3  0  0  0  0  0  0
  162.0510  207.4500  147.8740 C   0  0  1  0  0  3  0  0  0  0  0  0
  163.1370  206.6140  148.1470 O   0  0  0  0  0  1  0  0  0  0  0  0
  160.7810  206.6320  147.6870 C   0  0  0  0  0  2  0  0  0  0  0  0
  161.0070  204.7730  145.9610 N   0  0  0  0  0  2  0  0  0  0  0  0
  160.6600  206.1220  146.2860 C   0  0  0  0  0  0  0  0  0  0  0  0
  160.2260  206.8830  145.3810 O   0  0  0  0  0  0  0  0  0  0  0  0
  161.5090  203.8260  146.9500 C   0  0  1  0  0  3  0  0  0  0  0  0
  161.0450  201.8180  145.7020 O   0  0  0  0  0  1  0  0  0  0  0  0
  160.7190  202.5180  146.8660 C   0  0  1  0  0  3  0  0  0  0  0  0
  160.8500  202.1760  149.3910 N   0  0  0  0  0  0  0  0  0  0  0  0
  160.9890  201.6520  148.0620 C   0  0  0  0  0  0  0  0  0  0  0  0
  161.7520  202.1120  151.6570 C   0  0  0  0  0  2  0  0  0  0  0  0
  160.9900  204.1770  150.7790 C   0  0  0  0  0  2  0  0  0  0  0  0
  160.9680  203.3090  151.9550 N   0  0  0  0  0  2  0  0  0  0  0  0
  160.2710  203.4990  149.6160 C   0  0  0  0  0  2  0  0  0  0  0  0
  161.0760  201.3110  150.5470 C   0  0  0  0  0  2  0  0  0  0  0  0
  161.3790  200.4650  147.8890 O   0  0  0  0  0  0  0  0  0  0  0  0
  162.9900  203.5820  146.6970 C   0  0  0  0  0  2  0  0  0  0  0  0
  163.4690  204.4250  145.5320 C   0  0  0  0  0  1  0  0  0  0  0  0
  161.7660  212.2170  149.4370 C   0  0  0  0  0  2  0  0  0  0  0  0
  162.5720  213.1320  145.8500 C   0  0  0  0  0  3  0  0  0  0  0  0
  161.3470  212.8990  145.2150 C   0  0  0  0  0  0  0  0  0  0  0  0
  160.3970  212.2030  147.3420 C   0  0  0  0  0  3  0  0  0  0  0  0
  162.7120  212.9010  147.2220 C   0  0  0  0  0  3  0  0  0  0  0  0
  161.6270  212.4310  147.9680 C   0  0  0  0  0  0  0  0  0  0  0  0
  160.2570  212.4340  145.9700 C   0  0  0  0  0  3  0  0  0  0  0  0
  162.0580  212.4830  142.8840 C   0  0  0  0  0  1  0  0  0  0  0  0
  161.2400  213.1390  143.8430 O   0  0  0  0  0  0  0  0  0  0  0  0
  1  8  1  0  0  0  0
  1  6  1  0  0  0  0
  2 11  2  0  0  0  0
  2 12  1  0  0  0  0
  3 10  2  0  0  0  0
  4 15  1  0  0  0  0
  5  9  1  0  0  0  0
  7  4  2  0  0  0  0
  7  9  1  0  0  0  0
  9  1  2  0  0  0  0
 10 11  1  0  0  0  0
 11  7  1  0  0  0  0
 12  4  1  0  0  0  0
 13  2  1  0  0  0  0
 14  3  1  0  0  0  0
 14 13  1  0  0  0  0
 15  8  2  0  0  0  0
 16 17  1  1  0  0  0
 16  3  1  0  0  0  0
 18 16  1  0  0  0  0
 19 20  1  0  0  0  0
 19 22  1  0  0  0  0
 20 18  1  0  0  0  0
 21 20  2  0  0  0  0
 22 33  1  6  0  0  0
 24 23  1  6  0  0  0
 24 22  1  0  0  0  0
 24 26  1  0  0  0  0
 25 30  1  0  0  0  0
 25 31  1  0  0  0  0
 26 25  1  0  0  0  0
 27 29  1  0  0  0  0
 28 29  1  0  0  0  0
 30 28  1  0  0  0  0
 31 27  1  0  0  0  0
 32 26  2  0  0  0  0
 34 33  1  0  0  0  0
 35 13  1  0  0  0  0
 36 39  1  0  0  0  0
 37 36  2  0  0  0  0
 37 41  1  0  0  0  0
 38 40  1  0  0  0  0
 39 40  2  0  0  0  0
 40 35  1  0  0  0  0
 41 38  2  0  0  0  0
 42 43  1  0  0  0  0
 43 37  1  0  0  0  0
M  END
>  <MODEL>
1

>  <REMARK>
 VINA RESULT:      -7.8      0.000      0.000
  Name = 
  10 active torsions:
  status: ('A' for Active; 'I' for Inactive)
    1  A    between atoms: C_1  and  N_34
    2  A    between atoms: C_1  and  C_35
    3  A    between atoms: C_2  and  C_6
    4  A    between atoms: C_2  and  C_13
    5  A    between atoms: N_3  and  C_4
    6  A    between atoms: C_4  and  C_15
    7  A    between atoms: C_4  and  C_22
    8  A    between atoms: C_6  and  C_12
    9  A    between atoms: C_14  and  C_22
   10  A    between atoms: C_19  and  O_37
                            x       y       z     vdW  Elec       q    Type
                         _______ _______ _______ _____ _____    ______ ____

>  <TORSDO>
F 10

$$$$
=
 OpenBabel11062409563D

 43 47  0  0  1  0  0  0  0  0999 V2000
  161.1800  204.5700  148.6170 C   0  0  0  0  0  0  0  0  0  0  0  0
  161.8120  208.9500  149.4500 C   0  0  0  0  0  0  0  0  0  0  0  0
  161.0910  209.2820  152.1370 C   0  0  0  0  0  0  0  0  0  0  0  0
  161.8540  207.2400  148.2090 C   0  0  0  0  0  0  0  0  0  0  0  0
  160.5550  205.0890  150.8830 F   0  0  0  0  0  0  0  0  0  0  0  0
  160.8550  203.2660  148.7950 F   0  0  0  0  0  0  0  0  0  0  0  0
  161.3720  206.8120  149.4320 C   0  0  0  0  0  0  0  0  0  0  0  0
  161.6700  205.0010  147.3650 C   0  0  0  0  0  3  0  0  0  0  0  0
  161.0260  205.4850  149.6740 C   0  0  2  0  0  3  0  0  0  0  0  0
  160.9860  208.0960  151.5910 N   0  0  0  0  0  0  0  0  0  0  0  0
  161.3490  207.9270  150.2190 C   0  0  0  0  0  0  0  0  0  0  0  0
  162.1390  208.5650  148.1940 N   0  0  0  0  0  0  0  0  0  0  0  0
  161.9380  210.2540  150.0110 N   0  0  0  0  0  0  0  0  0  0  0  0
  161.5810  210.4070  151.3670 N   0  0  0  0  0  2  0  0  0  0  0  0
  162.0160  206.3480  147.1500 C   0  0  0  0  0  3  0  0  0  0  0  0
  160.7430  209.4790  153.5730 C   0  0  1  0  0  3  0  0  0  0  0  0
  160.9770  208.2990  154.2850 O   0  0  0  0  0  1  0  0  0  0  0  0
  161.5650  210.6230  154.1530 C   0  0  0  0  0  2  0  0  0  0  0  0
  160.8570  211.1270  156.5460 N   0  0  0  0  0  2  0  0  0  0  0  0
  161.7410  210.4760  155.6310 C   0  0  0  0  0  0  0  0  0  0  0  0
  162.6700  209.7510  156.0780 O   0  0  0  0  0  0  0  0  0  0  0  0
  159.7540  211.9770  156.1110 C   0  0  1  0  0  3  0  0  0  0  0  0
  158.1970  210.5220  157.2340 O   0  0  0  0  0  1  0  0  0  0  0  0
  158.4680  211.1530  156.0180 C   0  0  1  0  0  3  0  0  0  0  0  0
  157.1860  212.5380  154.3010 N   0  0  0  0  0  0  0  0  0  0  0  0
  157.3030  212.0190  155.6340 C   0  0  0  0  0  0  0  0  0  0  0  0
  156.4650  214.4510  152.9690 C   0  0  0  0  0  2  0  0  0  0  0  0
  158.4120  213.2660  152.3210 C   0  0  0  0  0  2  0  0  0  0  0  0
  157.1740  213.8690  151.8310 N   0  0  0  0  0  2  0  0  0  0  0  0
  158.0920  212.0930  153.2430 C   0  0  0  0  0  2  0  0  0  0  0  0
  156.0270  213.3460  153.9280 C   0  0  0  0  0  2  0  0  0  0  0  0
  156.4440  212.3210  156.5070 O   0  0  0  0  0  0  0  0  0  0  0  0
  159.5920  213.1260  157.0960 C   0  0  0  0  0  2  0  0  0  0  0  0
  159.6650  214.4530  156.3680 C   0  0  0  0  0  1  0  0  0  0  0  0
  162.5120  211.3640  149.2650 C   0  0  0  0  0  2  0  0  0  0  0  0
  159.6010  213.7440  148.8100 C   0  0  0  0  0  3  0  0  0  0  0  0
  159.3430  213.6190  147.4400 C   0  0  0  0  0  0  0  0  0  0  0  0
  161.1720  212.0280  147.2580 C   0  0  0  0  0  3  0  0  0  0  0  0
  160.6380  213.0170  149.4030 C   0  0  0  0  0  3  0  0  0  0  0  0
  161.4280  212.1640  148.6260 C   0  0  0  0  0  0  0  0  0  0  0  0
  160.1340  212.7550  146.6650 C   0  0  0  0  0  3  0  0  0  0  0  0
  156.9810  214.3530  147.4090 C   0  0  0  0  0  1  0  0  0  0  0  0
  158.3000  214.3590  146.8780 O   0  0  0  0  0  0  0  0  0  0  0  0
  1  6  1  0  0  0  0
  1  9  1  0  0  0  0
  2 13  1  0  0  0  0
  2 11  1  0  0  0  0
  3 16  1  0  0  0  0
  4  7  1  0  0  0  0
  7  9  1  0  0  0  0
  7 11  2  0  0  0  0
  8  1  2  0  0  0  0
  9  5  1  6  0  0  0
 10  3  2  0  0  0  0
 11 10  1  0  0  0  0
 12  4  1  0  0  0  0
 12  2  2  0  0  0  0
 13 14  1  0  0  0  0
 14  3  1  0  0  0  0
 15  8  1  0  0  0  0
 15  4  2  0  0  0  0
 16 18  1  0  0  0  0
 16 17  1  1  0  0  0
 18 20  1  0  0  0  0
 20 21  2  0  0  0  0
 20 19  1  0  0  0  0
 22 19  1  0  0  0  0
 22 33  1  1  0  0  0
 24 22  1  0  0  0  0
 24 23  1  1  0  0  0
 25 26  1  0  0  0  0
 26 24  1  0  0  0  0
 26 32  2  0  0  0  0
 27 31  1  0  0  0  0
 28 30  1  0  0  0  0
 29 28  1  0  0  0  0
 29 27  1  0  0  0  0
 30 25  1  0  0  0  0
 31 25  1  0  0  0  0
 34 33  1  0  0  0  0
 35 13  1  0  0  0  0
 36 39  1  0  0  0  0
 37 36  2  0  0  0  0
 38 40  1  0  0  0  0
 40 35  1  0  0  0  0
 40 39  2  0  0  0  0
 41 38  2  0  0  0  0
 41 37  1  0  0  0  0
 43 42  1  0  0  0  0
 43 37  1  0  0  0  0
M  END
>  <MODEL>
2

>  <REMARK>
 VINA RESULT:      -7.7      4.112      8.663
  Name = 
  10 active torsions:
  status: ('A' for Active; 'I' for Inactive)
    1  A    between atoms: C_1  and  N_34
    2  A    between atoms: C_1  and  C_35
    3  A    between atoms: C_2  and  C_6
    4  A    between atoms: C_2  and  C_13
    5  A    between atoms: N_3  and  C_4
    6  A    between atoms: C_4  and  C_15
    7  A    between atoms: C_4  and  C_22
    8  A    between atoms: C_6  and  C_12
    9  A    between atoms: C_14  and  C_22
   10  A    between atoms: C_19  and  O_37
                            x       y       z     vdW  Elec       q    Type
                         _______ _______ _______ _____ _____    ______ ____

>  <TORSDO>
F 10

$$$$
=
 OpenBabel11062409563D

 43 47  0  0  1  0  0  0  0  0999 V2000
  155.4460  212.5320  156.2200 C   0  0  0  0  0  0  0  0  0  0  0  0
  158.5000  213.3830  153.0200 C   0  0  0  0  0  0  0  0  0  0  0  0
  160.1900  211.1490  153.0260 C   0  0  0  0  0  0  0  0  0  0  0  0
  156.7850  213.8510  154.1660 C   0  0  0  0  0  0  0  0  0  0  0  0
  157.0510  210.7430  156.0970 F   0  0  0  0  0  0  0  0  0  0  0  0
  154.7810  211.9070  157.2220 F   0  0  0  0  0  0  0  0  0  0  0  0
  157.2350  212.6300  154.6330 C   0  0  0  0  0  0  0  0  0  0  0  0
  154.9820  213.7800  155.7480 C   0  0  0  0  0  3  0  0  0  0  0  0
  156.5910  211.9400  155.6560 C   0  0  0  0  0  0  0  0  0  0  0  0
  159.2010  211.2030  153.8850 N   0  0  0  0  0  0  0  0  0  0  0  0
  158.3420  212.3440  153.8850 C   0  0  1  0  0  3  0  0  0  0  0  0
  157.5520  214.3400  153.1600 N   0  0  0  0  0  0  0  0  0  0  0  0
  159.5640  213.3590  152.0730 N   0  0  0  0  0  0  0  0  0  0  0  0
  160.4030  212.2250  152.0800 N   0  0  0  0  0  2  0  0  0  0  0  0
  155.6520  214.4530  154.7090 C   0  0  0  0  0  3  0  0  0  0  0  0
  161.0850  209.9580  152.9890 C   0  0  1  0  0  3  0  0  0  0  0  0
  160.9660  209.2360  154.1800 O   0  0  0  0  0  1  0  0  0  0  0  0
  160.7290  209.0800  151.7970 C   0  0  0  0  0  2  0  0  0  0  0  0
  162.3000  207.5140  150.5460 N   0  0  0  0  0  2  0  0  0  0  0  0
  161.9170  208.8400  150.9200 C   0  0  0  0  0  0  0  0  0  0  0  0
  162.5790  209.8200  150.4860 O   0  0  0  0  0  0  0  0  0  0  0  0
  161.5850  206.3270  150.9990 C   0  0  1  0  0  3  0  0  0  0  0  0
  161.0080  204.0790  150.3530 O   0  0  0  0  0  1  0  0  0  0  0  0
  161.5870  205.2660  149.8970 C   0  0  1  0  0  3  0  0  0  0  0  0
  161.1900  205.2760  147.3760 N   0  0  0  0  0  0  0  0  0  0  0  0
  160.8430  205.7500  148.6860 C   0  0  0  0  0  0  0  0  0  0  0  0
  161.3780  205.8960  145.0240 C   0  0  0  0  0  2  0  0  0  0  0  0
  162.9950  204.4410  145.9630 C   0  0  0  0  0  2  0  0  0  0  0  0
  162.1310  204.6630  144.8060 N   0  0  0  0  0  2  0  0  0  0  0  0
  162.1470  204.1850  147.2060 C   0  0  0  0  0  2  0  0  0  0  0  0
  160.4320  205.7240  146.2100 C   0  0  0  0  0  2  0  0  0  0  0  0
  159.9300  206.6100  148.8250 O   0  0  0  0  0  0  0  0  0  0  0  0
  162.2480  205.7970  152.2630 C   0  0  0  0  0  2  0  0  0  0  0  0
  161.2190  205.6290  153.3630 C   0  0  0  0  0  1  0  0  0  0  0  0
  159.7270  214.3960  151.0660 C   0  0  0  0  0  2  0  0  0  0  0  0
  157.6460  213.1770  148.1450 C   0  0  0  0  0  3  0  0  0  0  0  0
  158.6350  212.8110  147.2250 C   0  0  0  0  0  0  0  0  0  0  0  0
  160.3420  213.4980  148.8130 C   0  0  0  0  0  3  0  0  0  0  0  0
  158.0000  213.7020  149.3920 C   0  0  0  0  0  3  0  0  0  0  0  0
  159.3480  213.8690  149.7240 C   0  0  0  0  0  0  0  0  0  0  0  0
  159.9880  212.9730  147.5660 C   0  0  0  0  0  3  0  0  0  0  0  0
  158.5180  212.9510  144.7580 C   0  0  0  0  0  1  0  0  0  0  0  0
  158.2480  212.2900  145.9880 O   0  0  0  0  0  0  0  0  0  0  0  0
  1  6  1  0  0  0  0
  2 12  2  0  0  0  0
  3 10  2  0  0  0  0
  4  7  2  0  0  0  0
  4 15  1  0  0  0  0
  7  9  1  0  0  0  0
  8  1  1  0  0  0  0
  9  5  1  0  0  0  0
  9  1  2  0  0  0  0
 11  2  1  6  0  0  0
 11 10  1  0  0  0  0
 11  7  1  0  0  0  0
 12  4  1  0  0  0  0
 13 14  1  0  0  0  0
 13  2  1  0  0  0  0
 14  3  1  0  0  0  0
 15  8  2  0  0  0  0
 16  3  1  0  0  0  0
 16 17  1  1  0  0  0
 18 16  1  0  0  0  0
 19 20  1  0  0  0  0
 19 22  1  0  0  0  0
 20 18  1  0  0  0  0
 21 20  2  0  0  0  0
 22 33  1  1  0  0  0
 24 23  1  1  0  0  0
 24 22  1  0  0  0  0
 25 26  1  0  0  0  0
 26 32  2  0  0  0  0
 26 24  1  0  0  0  0
 27 31  1  0  0  0  0
 28 30  1  0  0  0  0
 29 27  1  0  0  0  0
 29 28  1  0  0  0  0
 30 25  1  0  0  0  0
 31 25  1  0  0  0  0
 33 34  1  0  0  0  0
 35 13  1  0  0  0  0
 36 39  1  0  0  0  0
 37 41  1  0  0  0  0
 37 36  2  0  0  0  0
 38 40  1  0  0  0  0
 39 40  2  0  0  0  0
 40 35  1  0  0  0  0
 41 38  2  0  0  0  0
 42 43  1  0  0  0  0
 43 37  1  0  0  0  0
M  END
>  <MODEL>
3

>  <REMARK>
 VINA RESULT:      -7.6      3.535      5.480
  Name = 
  10 active torsions:
  status: ('A' for Active; 'I' for Inactive)
    1  A    between atoms: C_1  and  N_34
    2  A    between atoms: C_1  and  C_35
    3  A    between atoms: C_2  and  C_6
    4  A    between atoms: C_2  and  C_13
    5  A    between atoms: N_3  and  C_4
    6  A    between atoms: C_4  and  C_15
    7  A    between atoms: C_4  and  C_22
    8  A    between atoms: C_6  and  C_12
    9  A    between atoms: C_14  and  C_22
   10  A    between atoms: C_19  and  O_37
                            x       y       z     vdW  Elec       q    Type
                         _______ _______ _______ _____ _____    ______ ____

>  <TORSDO>
F 10

$$$$
=
 OpenBabel11062409563D

 43 47  0  0  1  0  0  0  0  0999 V2000
  161.3050  204.3060  147.6300 C   0  0  0  0  0  0  0  0  0  0  0  0
  161.9290  208.2860  149.6440 C   0  0  0  0  0  0  0  0  0  0  0  0
  161.0590  207.9020  152.2790 C   0  0  0  0  0  0  0  0  0  0  0  0
  162.0270  206.9700  147.9920 C   0  0  0  0  0  0  0  0  0  0  0  0
  160.5570  204.2140  149.9160 F   0  0  0  0  0  0  0  0  0  0  0  0
  160.9580  203.0100  147.4340 F   0  0  0  0  0  0  0  0  0  0  0  0
  161.4710  206.2420  149.0280 C   0  0  0  0  0  0  0  0  0  0  0  0
  161.8710  205.0450  146.5680 C   0  0  0  0  0  3  0  0  0  0  0  0
  161.0990  204.9080  148.8850 C   0  0  2  0  0  3  0  0  0  0  0  0
  160.9740  206.9090  151.4300 N   0  0  0  0  0  0  0  0  0  0  0  0
  161.4140  207.1050  150.0840 C   0  0  0  0  0  0  0  0  0  0  0  0
  162.3240  208.2430  148.3500 N   0  0  0  0  0  0  0  0  0  0  0  0
  162.0360  209.3880  150.5410 N   0  0  0  0  0  0  0  0  0  0  0  0
  161.6030  209.1800  151.8680 N   0  0  0  0  0  2  0  0  0  0  0  0
  162.2400  206.3920  146.7420 C   0  0  0  0  0  3  0  0  0  0  0  0
  160.6310  207.7150  153.6950 C   0  0  1  0  0  3  0  0  0  0  0  0
  161.5660  206.9290  154.3740 O   0  0  0  0  0  1  0  0  0  0  0  0
  160.4810  209.0700  154.3740 C   0  0  0  0  0  2  0  0  0  0  0  0
  160.3310  209.9860  156.7450 N   0  0  0  0  0  2  0  0  0  0  0  0
  160.1120  208.9220  155.8150 C   0  0  0  0  0  0  0  0  0  0  0  0
  159.5800  207.8520  156.2160 O   0  0  0  0  0  0  0  0  0  0  0  0
  160.9340  211.2580  156.3620 C   0  0  1  0  0  3  0  0  0  0  0  0
  160.4670  213.5160  157.0610 O   0  0  0  0  0  1  0  0  0  0  0  0
  159.9000  212.3800  156.4770 C   0  0  1  0  0  3  0  0  0  0  0  0
  158.0320  213.3060  155.0060 N   0  0  0  0  0  0  0  0  0  0  0  0
  159.3440  212.7360  155.1290 C   0  0  0  0  0  0  0  0  0  0  0  0
  156.0230  213.3870  153.6250 C   0  0  0  0  0  2  0  0  0  0  0  0
  155.8000  213.4200  155.9840 C   0  0  0  0  0  2  0  0  0  0  0  0
  155.3360  214.0340  154.7410 N   0  0  0  0  0  2  0  0  0  0  0  0
  157.2820  213.7180  156.1910 C   0  0  0  0  0  2  0  0  0  0  0  0
  157.5190  213.6860  153.6920 C   0  0  0  0  0  2  0  0  0  0  0  0
  160.0270  212.4950  154.0960 O   0  0  0  0  0  0  0  0  0  0  0  0
  162.1330  211.5310  157.2600 C   0  0  0  0  0  2  0  0  0  0  0  0
  163.0960  210.3620  157.2180 C   0  0  0  0  0  1  0  0  0  0  0  0
  162.6620  210.6430  150.1520 C   0  0  0  0  0  2  0  0  0  0  0  0
  160.7530  212.3710  147.3750 C   0  0  0  0  0  3  0  0  0  0  0  0
  159.8690  213.1810  148.0980 C   0  0  0  0  0  0  0  0  0  0  0  0
  160.8030  212.3170  150.1700 C   0  0  0  0  0  3  0  0  0  0  0  0
  161.6560  211.5380  148.0430 C   0  0  0  0  0  3  0  0  0  0  0  0
  161.6760  211.5050  149.4400 C   0  0  0  0  0  0  0  0  0  0  0  0
  159.9000  213.1510  149.5020 C   0  0  0  0  0  3  0  0  0  0  0  0
  157.6480  213.6050  147.0960 C   0  0  0  0  0  1  0  0  0  0  0  0
  158.9790  214.0010  147.4010 O   0  0  0  0  0  0  0  0  0  0  0  0
  1  9  1  0  0  0  0
  2 11  1  0  0  0  0
  2 13  1  0  0  0  0
  3 16  1  0  0  0  0
  4 12  1  0  0  0  0
  4  7  1  0  0  0  0
  6  1  1  0  0  0  0
  7 11  2  0  0  0  0
  8 15  1  0  0  0  0
  8  1  2  0  0  0  0
  9  7  1  0  0  0  0
  9  5  1  6  0  0  0
 10  3  2  0  0  0  0
 11 10  1  0  0  0  0
 12  2  2  0  0  0  0
 13 14  1  0  0  0  0
 14  3  1  0  0  0  0
 15  4  2  0  0  0  0
 16 18  1  0  0  0  0
 16 17  1  1  0  0  0
 18 20  1  0  0  0  0
 20 21  2  0  0  0  0
 20 19  1  0  0  0  0
 22 24  1  0  0  0  0
 22 19  1  0  0  0  0
 22 33  1  1  0  0  0
 24 23  1  6  0  0  0
 25 26  1  0  0  0  0
 25 30  1  0  0  0  0
 26 24  1  0  0  0  0
 27 31  1  0  0  0  0
 27 29  1  0  0  0  0
 28 30  1  0  0  0  0
 29 28  1  0  0  0  0
 31 25  1  0  0  0  0
 32 26  2  0  0  0  0
 34 33  1  0  0  0  0
 35 13  1  0  0  0  0
 36 39  2  0  0  0  0
 36 37  1  0  0  0  0
 37 41  2  0  0  0  0
 39 40  1  0  0  0  0
 40 35  1  0  0  0  0
 40 38  2  0  0  0  0
 41 38  1  0  0  0  0
 42 43  1  0  0  0  0
 43 37  1  0  0  0  0
M  END
>  <MODEL>
4

>  <REMARK>
 VINA RESULT:      -7.6      4.080      8.797
  Name = 
  10 active torsions:
  status: ('A' for Active; 'I' for Inactive)
    1  A    between atoms: C_1  and  N_34
    2  A    between atoms: C_1  and  C_35
    3  A    between atoms: C_2  and  C_6
    4  A    between atoms: C_2  and  C_13
    5  A    between atoms: N_3  and  C_4
    6  A    between atoms: C_4  and  C_15
    7  A    between atoms: C_4  and  C_22
    8  A    between atoms: C_6  and  C_12
    9  A    between atoms: C_14  and  C_22
   10  A    between atoms: C_19  and  O_37
                            x       y       z     vdW  Elec       q    Type
                         _______ _______ _______ _____ _____    ______ ____

>  <TORSDO>
F 10

$$$$
=
 OpenBabel11062409563D

 43 47  0  0  1  0  0  0  0  0999 V2000
  160.8410  201.8030  147.7250 C   0  0  0  0  0  0  0  0  0  0  0  0
  161.3070  204.5890  151.2340 C   0  0  0  0  0  0  0  0  0  0  0  0
  161.8320  207.0940  150.0980 C   0  0  0  0  0  0  0  0  0  0  0  0
  160.9340  202.7000  150.3590 C   0  0  0  0  0  0  0  0  0  0  0  0
  161.3630  204.0270  146.9660 F   0  0  0  0  0  0  0  0  0  0  0  0
  160.7930  201.3470  146.4500 F   0  0  0  0  0  0  0  0  0  0  0  0
  161.1690  203.5680  149.3090 C   0  0  0  0  0  0  0  0  0  0  0  0
  160.6020  200.9120  148.7940 C   0  0  0  0  0  3  0  0  0  0  0  0
  161.1300  203.1570  147.9790 C   0  0  0  0  0  0  0  0  0  0  0  0
  161.6730  206.0590  149.3110 N   0  0  0  0  0  0  0  0  0  0  0  0
  161.4090  204.7800  149.8900 C   0  0  0  0  0  0  0  0  0  0  0  0
  161.0100  203.3100  151.5670 N   0  0  0  0  0  2  0  0  0  0  0  0
  161.4750  205.6920  152.1190 N   0  0  0  0  0  0  0  0  0  0  0  0
  161.7300  206.9500  151.5350 N   0  0  0  0  0  2  0  0  0  0  0  0
  160.6440  201.3560  150.1290 C   0  0  0  0  0  3  0  0  0  0  0  0
  162.0820  208.4450  149.5170 C   0  0  1  0  0  3  0  0  0  0  0  0
  161.8190  208.4280  148.1450 O   0  0  0  0  0  1  0  0  0  0  0  0
  161.2090  209.4780  150.2150 C   0  0  0  0  0  2  0  0  0  0  0  0
  161.9540  211.9060  150.0250 N   0  0  0  0  0  2  0  0  0  0  0  0
  162.0160  210.6440  150.6930 C   0  0  0  0  0  0  0  0  0  0  0  0
  162.7460  210.5190  151.7120 O   0  0  0  0  0  0  0  0  0  0  0  0
  161.1290  212.1350  148.8440 C   0  0  1  0  0  3  0  0  0  0  0  0
  160.9540  214.1960  147.6080 O   0  0  0  0  0  1  0  0  0  0  0  0
  160.6390  213.5850  148.8240 C   0  0  1  0  0  3  0  0  0  0  0  0
  158.6270  213.9920  150.3390 N   0  0  0  0  0  0  0  0  0  0  0  0
  159.1560  213.6530  149.0490 C   0  0  0  0  0  0  0  0  0  0  0  0
  156.8180  213.5640  151.9190 C   0  0  0  0  0  2  0  0  0  0  0  0
  159.0120  213.9040  152.7470 C   0  0  0  0  0  2  0  0  0  0  0  0
  157.6060  214.2540  152.9390 N   0  0  0  0  0  2  0  0  0  0  0  0
  159.5080  214.4520  151.4110 C   0  0  0  0  0  2  0  0  0  0  0  0
  157.1830  214.0940  150.5350 C   0  0  0  0  0  2  0  0  0  0  0  0
  158.3750  213.3710  148.0990 O   0  0  0  0  0  0  0  0  0  0  0  0
  161.9450  211.8220  147.5970 C   0  0  0  0  0  2  0  0  0  0  0  0
  163.3790  212.2780  147.7830 C   0  0  0  0  0  1  0  0  0  0  0  0
  161.2870  205.5650  153.5570 C   0  0  0  0  0  2  0  0  0  0  0  0
  160.5470  209.2640  153.8960 C   0  0  0  0  0  3  0  0  0  0  0  0
  160.1720  209.3570  155.2420 C   0  0  0  0  0  0  0  0  0  0  0  0
  160.5110  206.9620  155.4830 C   0  0  0  0  0  3  0  0  0  0  0  0
  160.9000  208.0290  153.3450 C   0  0  0  0  0  3  0  0  0  0  0  0
  160.8770  206.8760  154.1360 C   0  0  0  0  0  0  0  0  0  0  0  0
  160.1580  208.1970  156.0350 C   0  0  0  0  0  3  0  0  0  0  0  0
  160.4590  211.8110  155.3560 C   0  0  0  0  0  1  0  0  0  0  0  0
  159.8240  210.6060  155.7620 O   0  0  0  0  0  0  0  0  0  0  0  0
  1  9  2  0  0  0  0
  1  8  1  0  0  0  0
  2 12  1  0  0  0  0
  2 13  1  0  0  0  0
  3 14  1  0  0  0  0
  4 12  1  0  0  0  0
  5  9  1  0  0  0  0
  6  1  1  0  0  0  0
  7 11  1  0  0  0  0
  7  4  2  0  0  0  0
  8 15  2  0  0  0  0
  9  7  1  0  0  0  0
 10 11  1  0  0  0  0
 10  3  2  0  0  0  0
 11  2  2  0  0  0  0
 13 35  1  0  0  0  0
 14 13  1  0  0  0  0
 15  4  1  0  0  0  0
 16 17  1  6  0  0  0
 16  3  1  0  0  0  0
 16 18  1  0  0  0  0
 18 20  1  0  0  0  0
 19 20  1  0  0  0  0
 20 21  2  0  0  0  0
 22 33  1  6  0  0  0
 22 19  1  0  0  0  0
 24 23  1  6  0  0  0
 24 22  1  0  0  0  0
 24 26  1  0  0  0  0
 25 31  1  0  0  0  0
 25 30  1  0  0  0  0
 26 25  1  0  0  0  0
 27 29  1  0  0  0  0
 28 29  1  0  0  0  0
 30 28  1  0  0  0  0
 31 27  1  0  0  0  0
 32 26  2  0  0  0  0
 33 34  1  0  0  0  0
 35 40  1  0  0  0  0
 36 37  1  0  0  0  0
 37 43  1  0  0  0  0
 37 41  2  0  0  0  0
 38 41  1  0  0  0  0
 39 36  2  0  0  0  0
 39 40  1  0  0  0  0
 40 38  2  0  0  0  0
 42 43  1  0  0  0  0
M  END
>  <MODEL>
5

>  <REMARK>
 VINA RESULT:      -7.3      3.234      9.049
  Name = 
  10 active torsions:
  status: ('A' for Active; 'I' for Inactive)
    1  A    between atoms: C_1  and  N_34
    2  A    between atoms: C_1  and  C_35
    3  A    between atoms: C_2  and  C_6
    4  A    between atoms: C_2  and  C_13
    5  A    between atoms: N_3  and  C_4
    6  A    between atoms: C_4  and  C_15
    7  A    between atoms: C_4  and  C_22
    8  A    between atoms: C_6  and  C_12
    9  A    between atoms: C_14  and  C_22
   10  A    between atoms: C_19  and  O_37
                            x       y       z     vdW  Elec       q    Type
                         _______ _______ _______ _____ _____    ______ ____

>  <TORSDO>
F 10

$$$$
=
 OpenBabel11062409563D

 43 47  0  0  1  0  0  0  0  0999 V2000
  161.2550  204.9250  148.1310 C   0  0  0  0  0  0  0  0  0  0  0  0
  161.8140  208.3010  151.0600 C   0  0  0  0  0  0  0  0  0  0  0  0
  162.1180  210.5880  149.4710 C   0  0  0  0  0  0  0  0  0  0  0  0
  161.4850  206.2740  150.5560 C   0  0  0  0  0  0  0  0  0  0  0  0
  161.5990  207.0000  146.9610 F   0  0  0  0  0  0  0  0  0  0  0  0
  161.1430  204.2500  146.9610 F   0  0  0  0  0  0  0  0  0  0  0  0
  161.5960  206.9520  149.3560 C   0  0  0  0  0  0  0  0  0  0  0  0
  161.1410  204.2260  149.3530 C   0  0  0  0  0  3  0  0  0  0  0  0
  161.4860  206.3130  148.1250 C   0  0  0  0  0  0  0  0  0  0  0  0
  161.9610  209.4240  148.8890 N   0  0  0  0  0  0  0  0  0  0  0  0
  161.8100  208.2570  149.6990 C   0  0  0  0  0  0  0  0  0  0  0  0
  161.6120  207.0900  151.6310 N   0  0  0  0  0  2  0  0  0  0  0  0
  161.9830  209.5490  151.7260 N   0  0  0  0  0  0  0  0  0  0  0  0
  162.1260  210.6950  150.9150 N   0  0  0  0  0  2  0  0  0  0  0  0
  161.2540  204.9000  150.5840 C   0  0  0  0  0  3  0  0  0  0  0  0
  162.2520  211.8240  148.6480 C   0  0  1  0  0  3  0  0  0  0  0  0
  163.2710  211.6600  147.7060 O   0  0  0  0  0  1  0  0  0  0  0  0
  160.9310  212.1310  147.9570 C   0  0  0  0  0  2  0  0  0  0  0  0
  159.8210  214.2780  147.1540 N   0  0  0  0  0  2  0  0  0  0  0  0
  160.5190  213.5530  148.1700 C   0  0  0  0  0  0  0  0  0  0  0  0
  160.7730  214.1170  149.2670 O   0  0  0  0  0  0  0  0  0  0  0  0
  159.4830  213.6970  145.8600 C   0  0  1  0  0  3  0  0  0  0  0  0
  160.0850  211.7300  144.6060 O   0  0  0  0  0  1  0  0  0  0  0  0
  160.5990  212.7530  145.4060 C   0  0  1  0  0  3  0  0  0  0  0  0
  161.5380  213.6900  143.2260 N   0  0  0  0  0  0  0  0  0  0  0  0
  161.6560  213.5000  144.6430 C   0  0  0  0  0  0  0  0  0  0  0  0
  162.7780  213.8250  141.1290 C   0  0  0  0  0  2  0  0  0  0  0  0
  160.6610  212.7590  141.1470 C   0  0  0  0  0  2  0  0  0  0  0  0
  161.5050  213.7060  140.4210 N   0  0  0  0  0  2  0  0  0  0  0  0
  160.3100  213.3230  142.5220 C   0  0  0  0  0  2  0  0  0  0  0  0
  162.5510  214.4530  142.5020 C   0  0  0  0  0  2  0  0  0  0  0  0
  162.6720  213.9290  145.2560 O   0  0  0  0  0  0  0  0  0  0  0  0
  158.1600  212.9550  145.9760 C   0  0  0  0  0  2  0  0  0  0  0  0
  157.1740  213.7680  146.7910 C   0  0  0  0  0  1  0  0  0  0  0  0
  161.9040  209.6690  153.1740 C   0  0  0  0  0  2  0  0  0  0  0  0
  159.7770  212.1420  155.1010 C   0  0  0  0  0  3  0  0  0  0  0  0
  158.6350  212.2210  154.2960 C   0  0  0  0  0  0  0  0  0  0  0  0
  159.6380  210.6400  152.7460 C   0  0  0  0  0  3  0  0  0  0  0  0
  160.8460  211.3180  154.7310 C   0  0  0  0  0  3  0  0  0  0  0  0
  160.7790  210.5730  153.5510 C   0  0  0  0  0  0  0  0  0  0  0  0
  158.5690  211.4640  153.1150 C   0  0  0  0  0  3  0  0  0  0  0  0
  156.2190  212.6960  154.5300 C   0  0  0  0  0  1  0  0  0  0  0  0
  157.5850  213.0540  154.6930 O   0  0  0  0  0  0  0  0  0  0  0  0
  1  8  1  0  0  0  0
  2 12  1  0  0  0  0
  2 13  1  0  0  0  0
  3 14  1  0  0  0  0
  4 15  1  0  0  0  0
  4 12  1  0  0  0  0
  5  9  1  0  0  0  0
  6  1  1  0  0  0  0
  7 11  1  0  0  0  0
  7  4  2  0  0  0  0
  8 15  2  0  0  0  0
  9  1  2  0  0  0  0
  9  7  1  0  0  0  0
 10  3  2  0  0  0  0
 10 11  1  0  0  0  0
 11  2  2  0  0  0  0
 13 35  1  0  0  0  0
 14 13  1  0  0  0  0
 16 17  1  6  0  0  0
 16  3  1  0  0  0  0
 18 20  1  0  0  0  0
 18 16  1  0  0  0  0
 19 20  1  0  0  0  0
 20 21  2  0  0  0  0
 22 33  1  1  0  0  0
 22 19  1  0  0  0  0
 24 23  1  6  0  0  0
 24 22  1  0  0  0  0
 25 26  1  0  0  0  0
 26 32  2  0  0  0  0
 26 24  1  0  0  0  0
 27 31  1  0  0  0  0
 28 30  1  0  0  0  0
 29 27  1  0  0  0  0
 29 28  1  0  0  0  0
 30 25  1  0  0  0  0
 31 25  1  0  0  0  0
 33 34  1  0  0  0  0
 35 40  1  0  0  0  0
 37 43  1  0  0  0  0
 37 36  2  0  0  0  0
 38 41  2  0  0  0  0
 38 40  1  0  0  0  0
 39 36  1  0  0  0  0
 40 39  2  0  0  0  0
 41 37  1  0  0  0  0
 42 43  1  0  0  0  0
M  END
>  <MODEL>
6

>  <REMARK>
 VINA RESULT:      -6.9      3.667      8.983
  Name = 
  10 active torsions:
  status: ('A' for Active; 'I' for Inactive)
    1  A    between atoms: C_1  and  N_34
    2  A    between atoms: C_1  and  C_35
    3  A    between atoms: C_2  and  C_6
    4  A    between atoms: C_2  and  C_13
    5  A    between atoms: N_3  and  C_4
    6  A    between atoms: C_4  and  C_15
    7  A    between atoms: C_4  and  C_22
    8  A    between atoms: C_6  and  C_12
    9  A    between atoms: C_14  and  C_22
   10  A    between atoms: C_19  and  O_37
                            x       y       z     vdW  Elec       q    Type
                         _______ _______ _______ _____ _____    ______ ____

>  <TORSDO>
F 10

$$$$
=
 OpenBabel11062409563D

 43 47  0  0  1  0  0  0  0  0999 V2000
  161.5050  204.6670  147.7720 C   0  0  0  0  0  0  0  0  0  0  0  0
  161.7040  208.1010  150.6790 C   0  0  0  0  0  0  0  0  0  0  0  0
  162.0030  210.3810  149.0800 C   0  0  0  0  0  0  0  0  0  0  0  0
  161.5060  206.0550  150.1850 C   0  0  0  0  0  0  0  0  0  0  0  0
  161.8250  206.7430  146.5960 F   0  0  0  0  0  0  0  0  0  0  0  0
  161.5030  203.9740  146.6070 F   0  0  0  0  0  0  0  0  0  0  0  0
  161.6650  206.7240  148.9860 C   0  0  0  0  0  0  0  0  0  0  0  0
  161.3430  203.9780  148.9940 C   0  0  0  0  0  3  0  0  0  0  0  0
  161.6680  206.0650  147.7590 C   0  0  0  0  0  0  0  0  0  0  0  0
  161.9410  209.2050  148.5070 N   0  0  0  0  0  0  0  0  0  0  0  0
  161.7930  208.0410  149.3230 C   0  0  0  0  0  0  0  0  0  0  0  0
  161.5230  206.8880  151.2540 N   0  0  0  0  0  2  0  0  0  0  0  0
  161.7680  209.3640  151.3360 N   0  0  0  0  0  0  0  0  0  0  0  0
  161.9090  210.5050  150.5200 N   0  0  0  0  0  2  0  0  0  0  0  0
  161.3410  204.6710  150.2190 C   0  0  0  0  0  3  0  0  0  0  0  0
  162.1320  211.6130  148.2500 C   0  0  1  0  0  3  0  0  0  0  0  0
  163.3630  211.6130  147.5880 O   0  0  0  0  0  1  0  0  0  0  0  0
  160.9880  211.6830  147.2470 C   0  0  0  0  0  2  0  0  0  0  0  0
  160.6210  213.8990  146.0470 N   0  0  0  0  0  2  0  0  0  0  0  0
  160.4010  213.0570  147.1820 C   0  0  0  0  0  0  0  0  0  0  0  0
  159.6850  213.4740  148.1310 O   0  0  0  0  0  0  0  0  0  0  0  0
  161.4320  213.4900  144.9060 C   0  0  1  0  0  3  0  0  0  0  0  0
  161.0890  214.4530  142.7240 O   0  0  0  0  0  1  0  0  0  0  0  0
  160.5850  213.5170  143.6310 C   0  0  1  0  0  3  0  0  0  0  0  0
  161.2820  211.9110  141.7750 N   0  0  0  0  0  0  0  0  0  0  0  0
  160.5490  212.1630  142.9830 C   0  0  0  0  0  0  0  0  0  0  0  0
  161.2630  210.7030  139.6550 C   0  0  0  0  0  2  0  0  0  0  0  0
  162.1570  212.8970  139.7210 C   0  0  0  0  0  2  0  0  0  0  0  0
  162.3770  211.5420  139.2180 N   0  0  0  0  0  2  0  0  0  0  0  0
  162.2170  212.9020  141.2470 C   0  0  0  0  0  2  0  0  0  0  0  0
  161.2720  210.5780  141.1760 C   0  0  0  0  0  2  0  0  0  0  0  0
  159.8370  211.2540  143.4910 O   0  0  0  0  0  0  0  0  0  0  0  0
  162.6260  214.4250  144.7820 C   0  0  0  0  0  2  0  0  0  0  0  0
  163.8280  213.6710  144.2480 C   0  0  0  0  0  1  0  0  0  0  0  0
  161.5860  209.4970  152.7740 C   0  0  0  0  0  2  0  0  0  0  0  0
  158.7410  211.2590  154.5480 C   0  0  0  0  0  3  0  0  0  0  0  0
  158.3340  212.1860  153.5810 C   0  0  0  0  0  0  0  0  0  0  0  0
  160.0680  211.3640  152.0880 C   0  0  0  0  0  3  0  0  0  0  0  0
  159.8050  210.3900  154.2890 C   0  0  0  0  0  3  0  0  0  0  0  0
  160.4740  210.4460  153.0630 C   0  0  0  0  0  0  0  0  0  0  0  0
  159.0030  212.2330  152.3470 C   0  0  0  0  0  3  0  0  0  0  0  0
  157.1210  214.3180  153.2630 C   0  0  0  0  0  1  0  0  0  0  0  0
  157.2680  213.0410  153.8700 O   0  0  0  0  0  0  0  0  0  0  0  0
  1  8  1  0  0  0  0
  2 12  1  0  0  0  0
  2 13  1  0  0  0  0
  3 14  1  0  0  0  0
  4 15  1  0  0  0  0
  4 12  1  0  0  0  0
  5  9  1  0  0  0  0
  6  1  1  0  0  0  0
  7 11  1  0  0  0  0
  7  4  2  0  0  0  0
  8 15  2  0  0  0  0
  9  1  2  0  0  0  0
  9  7  1  0  0  0  0
 10  3  2  0  0  0  0
 10 11  1  0  0  0  0
 11  2  2  0  0  0  0
 13 35  1  0  0  0  0
 14 13  1  0  0  0  0
 16 17  1  6  0  0  0
 16  3  1  0  0  0  0
 18 16  1  0  0  0  0
 19 20  1  0  0  0  0
 20 18  1  0  0  0  0
 20 21  2  0  0  0  0
 22 33  1  6  0  0  0
 22 19  1  0  0  0  0
 24 23  1  6  0  0  0
 24 22  1  0  0  0  0
 25 26  1  0  0  0  0
 26 32  2  0  0  0  0
 26 24  1  0  0  0  0
 27 31  1  0  0  0  0
 28 30  1  0  0  0  0
 29 27  1  0  0  0  0
 29 28  1  0  0  0  0
 30 25  1  0  0  0  0
 31 25  1  0  0  0  0
 34 33  1  0  0  0  0
 35 40  1  0  0  0  0
 37 43  1  0  0  0  0
 37 36  2  0  0  0  0
 38 41  2  0  0  0  0
 38 40  1  0  0  0  0
 39 36  1  0  0  0  0
 40 39  2  0  0  0  0
 41 37  1  0  0  0  0
 42 43  1  0  0  0  0
M  END
>  <MODEL>
7

>  <REMARK>
 VINA RESULT:      -6.5      3.604      8.759
  Name = 
  10 active torsions:
  status: ('A' for Active; 'I' for Inactive)
    1  A    between atoms: C_1  and  N_34
    2  A    between atoms: C_1  and  C_35
    3  A    between atoms: C_2  and  C_6
    4  A    between atoms: C_2  and  C_13
    5  A    between atoms: N_3  and  C_4
    6  A    between atoms: C_4  and  C_15
    7  A    between atoms: C_4  and  C_22
    8  A    between atoms: C_6  and  C_12
    9  A    between atoms: C_14  and  C_22
   10  A    between atoms: C_19  and  O_37
                            x       y       z     vdW  Elec       q    Type
                         _______ _______ _______ _____ _____    ______ ____

>  <TORSDO>
F 10

$$$$
=
 OpenBabel11062409563D

 43 47  0  0  1  0  0  0  0  0999 V2000
  155.9850  212.3590  155.8860 C   0  0  0  0  0  0  0  0  0  0  0  0
  158.3890  213.3420  152.2060 C   0  0  0  0  0  0  0  0  0  0  0  0
  160.2760  211.2810  152.0080 C   0  0  0  0  0  0  0  0  0  0  0  0
  156.8400  213.7000  153.6000 C   0  0  0  0  0  0  0  0  0  0  0  0
  157.7230  210.7270  155.5600 F   0  0  0  0  0  0  0  0  0  0  0  0
  155.5550  211.7230  157.0020 F   0  0  0  0  0  0  0  0  0  0  0  0
  157.4800  212.5500  154.0260 C   0  0  0  0  0  0  0  0  0  0  0  0
  155.3280  213.5340  155.4560 C   0  0  0  0  0  3  0  0  0  0  0  0
  157.0800  211.8520  155.1630 C   0  0  0  0  0  0  0  0  0  0  0  0
  159.4360  211.2820  153.0140 N   0  0  0  0  0  0  0  0  0  0  0  0
  158.4760  212.3360  153.1170 C   0  0  1  0  0  3  0  0  0  0  0  0
  157.3830  214.2100  152.4680 N   0  0  0  0  0  0  0  0  0  0  0  0
  159.2860  213.3740  151.0990 N   0  0  0  0  0  0  0  0  0  0  0  0
  160.2260  212.3260  151.0060 N   0  0  0  0  0  2  0  0  0  0  0  0
  155.7520  214.2170  154.3010 C   0  0  0  0  0  3  0  0  0  0  0  0
  161.2700  210.1800  151.8630 C   0  0  1  0  0  3  0  0  0  0  0  0
  162.2810  210.3240  152.8170 O   0  0  0  0  0  1  0  0  0  0  0  0
  160.5770  208.8330  152.0210 C   0  0  0  0  0  2  0  0  0  0  0  0
  161.6140  206.8770  150.7640 N   0  0  0  0  0  2  0  0  0  0  0  0
  161.5510  207.7020  151.9290 C   0  0  0  0  0  0  0  0  0  0  0  0
  162.3430  207.4840  152.8840 O   0  0  0  0  0  0  0  0  0  0  0  0
  160.7390  207.0660  149.6130 C   0  0  1  0  0  3  0  0  0  0  0  0
  162.3540  208.7180  148.9280 O   0  0  0  0  0  1  0  0  0  0  0  0
  161.5230  207.6960  148.4600 C   0  0  1  0  0  3  0  0  0  0  0  0
  161.8850  206.0650  146.5320 N   0  0  0  0  0  0  0  0  0  0  0  0
  162.3520  206.6660  147.7490 C   0  0  0  0  0  0  0  0  0  0  0  0
  161.8330  204.0040  145.2250 C   0  0  0  0  0  2  0  0  0  0  0  0
  159.9160  205.3970  145.2560 C   0  0  0  0  0  2  0  0  0  0  0  0
  160.7970  204.6120  144.3930 N   0  0  0  0  0  2  0  0  0  0  0  0
  160.6870  206.5660  145.8620 C   0  0  0  0  0  2  0  0  0  0  0  0
  162.7190  205.0930  145.8280 C   0  0  0  0  0  2  0  0  0  0  0  0
  163.4500  206.3020  148.2520 O   0  0  0  0  0  0  0  0  0  0  0  0
  160.1580  205.7210  149.2010 C   0  0  0  0  0  2  0  0  0  0  0  0
  160.7030  204.6220  150.0920 C   0  0  0  0  0  1  0  0  0  0  0  0
  159.1810  214.3730  150.0470 C   0  0  0  0  0  2  0  0  0  0  0  0
  160.4680  213.0060  146.7570 C   0  0  0  0  0  3  0  0  0  0  0  0
  161.8310  213.3160  146.8340 C   0  0  0  0  0  0  0  0  0  0  0  0
  161.4580  214.3330  149.0100 C   0  0  0  0  0  3  0  0  0  0  0  0
  159.6030  213.3580  147.7980 C   0  0  0  0  0  3  0  0  0  0  0  0
  160.0960  214.0280  148.9220 C   0  0  0  0  0  0  0  0  0  0  0  0
  162.3230  213.9810  147.9690 C   0  0  0  0  0  3  0  0  0  0  0  0
  162.8770  213.7800  144.6420 C   0  0  0  0  0  1  0  0  0  0  0  0
  162.6690  212.9510  145.7780 O   0  0  0  0  0  0  0  0  0  0  0  0
  1  6  1  0  0  0  0
  2 12  2  0  0  0  0
  3 10  2  0  0  0  0
  4  7  2  0  0  0  0
  4 15  1  0  0  0  0
  7  9  1  0  0  0  0
  8  1  1  0  0  0  0
  9  5  1  0  0  0  0
  9  1  2  0  0  0  0
 10 11  1  0  0  0  0
 11  2  1  6  0  0  0
 11  7  1  0  0  0  0
 12  4  1  0  0  0  0
 13  2  1  0  0  0  0
 14 13  1  0  0  0  0
 14  3  1  0  0  0  0
 15  8  2  0  0  0  0
 16  3  1  0  0  0  0
 16 18  1  0  0  0  0
 16 17  1  1  0  0  0
 19 20  1  0  0  0  0
 20 18  1  0  0  0  0
 20 21  2  0  0  0  0
 22 33  1  6  0  0  0
 22 19  1  0  0  0  0
 24 23  1  1  0  0  0
 24 22  1  0  0  0  0
 25 26  1  0  0  0  0
 26 32  2  0  0  0  0
 26 24  1  0  0  0  0
 27 31  1  0  0  0  0
 28 30  1  0  0  0  0
 29 27  1  0  0  0  0
 29 28  1  0  0  0  0
 30 25  1  0  0  0  0
 31 25  1  0  0  0  0
 33 34  1  0  0  0  0
 35 13  1  0  0  0  0
 36 37  2  0  0  0  0
 36 39  1  0  0  0  0
 37 41  1  0  0  0  0
 39 40  2  0  0  0  0
 40 38  1  0  0  0  0
 40 35  1  0  0  0  0
 41 38  2  0  0  0  0
 42 43  1  0  0  0  0
 43 37  1  0  0  0  0
M  END
>  <MODEL>
8

>  <REMARK>
 VINA RESULT:      -6.4      3.205      5.217
  Name = 
  10 active torsions:
  status: ('A' for Active; 'I' for Inactive)
    1  A    between atoms: C_1  and  N_34
    2  A    between atoms: C_1  and  C_35
    3  A    between atoms: C_2  and  C_6
    4  A    between atoms: C_2  and  C_13
    5  A    between atoms: N_3  and  C_4
    6  A    between atoms: C_4  and  C_15
    7  A    between atoms: C_4  and  C_22
    8  A    between atoms: C_6  and  C_12
    9  A    between atoms: C_14  and  C_22
   10  A    between atoms: C_19  and  O_37
                            x       y       z     vdW  Elec       q    Type
                         _______ _______ _______ _____ _____    ______ ____

>  <TORSDO>
F 10

$$$$
=
 OpenBabel11062409563D

 43 47  0  0  1  0  0  0  0  0999 V2000
  160.6470  202.3940  150.4490 C   0  0  0  0  0  0  0  0  0  0  0  0
  161.6420  206.6880  149.5230 C   0  0  0  0  0  0  0  0  0  0  0  0
  161.5600  207.9950  151.9990 C   0  0  0  0  0  0  0  0  0  0  0  0
  161.3290  204.6650  148.9910 C   0  0  0  0  0  0  0  0  0  0  0  0
  160.5730  203.7220  152.4550 F   0  0  0  0  0  0  0  0  0  0  0  0
  160.3140  201.2770  151.1410 F   0  0  0  0  0  0  0  0  0  0  0  0
  161.1160  204.7390  150.3550 C   0  0  0  0  0  0  0  0  0  0  0  0
  160.8620  202.3120  149.0550 C   0  0  0  0  0  3  0  0  0  0  0  0
  160.7750  203.6250  151.1180 C   0  0  2  0  0  3  0  0  0  0  0  0
  161.2830  206.7160  151.9440 N   0  0  0  0  0  0  0  0  0  0  0  0
  161.3200  206.0500  150.6810 C   0  0  0  0  0  0  0  0  0  0  0  0
  161.6610  205.8630  148.4490 N   0  0  0  0  0  0  0  0  0  0  0  0
  161.9490  208.0790  149.5440 N   0  0  0  0  0  0  0  0  0  0  0  0
  161.9130  208.7250  150.7980 N   0  0  0  0  0  2  0  0  0  0  0  0
  161.2090  203.4550  148.3100 C   0  0  0  0  0  3  0  0  0  0  0  0
  161.5530  208.7080  153.3080 C   0  0  1  0  0  3  0  0  0  0  0  0
  162.1340  209.9710  153.1650 O   0  0  0  0  0  1  0  0  0  0  0  0
  160.1250  208.8330  153.8220 C   0  0  0  0  0  2  0  0  0  0  0  0
  159.5980  209.5510  156.2070 N   0  0  0  0  0  2  0  0  0  0  0  0
  160.0440  208.5510  155.2880 C   0  0  0  0  0  0  0  0  0  0  0  0
  160.3540  207.4090  155.7210 O   0  0  0  0  0  0  0  0  0  0  0  0
  159.2150  210.8950  155.7880 C   0  0  1  0  0  3  0  0  0  0  0  0
  157.0760  210.8680  156.8970 O   0  0  0  0  0  1  0  0  0  0  0  0
  157.6930  210.9830  155.6490 C   0  0  1  0  0  3  0  0  0  0  0  0
  157.7490  212.6200  153.6930 N   0  0  0  0  0  0  0  0  0  0  0  0
  157.2880  212.2790  155.0080 C   0  0  0  0  0  0  0  0  0  0  0  0
  158.4650  214.4530  152.2510 C   0  0  0  0  0  2  0  0  0  0  0  0
  159.5540  212.3560  152.0720 C   0  0  0  0  0  2  0  0  0  0  0  0
  158.9680  213.4560  151.3080 N   0  0  0  0  0  2  0  0  0  0  0  0
  158.4690  211.6440  152.8770 C   0  0  0  0  0  2  0  0  0  0  0  0
  157.3140  213.8650  153.0640 C   0  0  0  0  0  2  0  0  0  0  0  0
  156.5670  213.0870  155.6540 O   0  0  0  0  0  0  0  0  0  0  0  0
  159.7240  211.9000  156.8110 C   0  0  0  0  0  2  0  0  0  0  0  0
  161.2270  212.0570  156.6870 C   0  0  0  0  0  1  0  0  0  0  0  0
  162.3880  208.7920  148.3540 C   0  0  0  0  0  2  0  0  0  0  0  0
  160.4750  211.9010  147.3410 C   0  0  0  0  0  3  0  0  0  0  0  0
  160.8670  212.8110  148.3300 C   0  0  0  0  0  0  0  0  0  0  0  0
  162.2440  211.0850  149.3470 C   0  0  0  0  0  3  0  0  0  0  0  0
  160.9620  210.5900  147.3540 C   0  0  0  0  0  3  0  0  0  0  0  0
  161.8420  210.1800  148.3600 C   0  0  0  0  0  0  0  0  0  0  0  0
  161.7570  212.3960  149.3350 C   0  0  0  0  0  3  0  0  0  0  0  0
  159.1690  214.4520  147.5940 C   0  0  0  0  0  1  0  0  0  0  0  0
  160.3620  214.1120  148.2900 O   0  0  0  0  0  0  0  0  0  0  0  0
  1  9  1  0  0  0  0
  1  6  1  0  0  0  0
  2 13  1  0  0  0  0
  2 11  1  0  0  0  0
  3 16  1  0  0  0  0
  4  7  1  0  0  0  0
  7 11  2  0  0  0  0
  7  9  1  0  0  0  0
  8  1  2  0  0  0  0
  9  5  1  6  0  0  0
 10  3  2  0  0  0  0
 11 10  1  0  0  0  0
 12  4  1  0  0  0  0
 12  2  2  0  0  0  0
 13 14  1  0  0  0  0
 14  3  1  0  0  0  0
 15  4  2  0  0  0  0
 15  8  1  0  0  0  0
 16 17  1  6  0  0  0
 16 18  1  0  0  0  0
 18 20  1  0  0  0  0
 20 21  2  0  0  0  0
 20 19  1  0  0  0  0
 22 19  1  0  0  0  0
 22 33  1  1  0  0  0
 24 22  1  0  0  0  0
 24 23  1  1  0  0  0
 25 26  1  0  0  0  0
 26 24  1  0  0  0  0
 26 32  2  0  0  0  0
 27 31  1  0  0  0  0
 28 30  1  0  0  0  0
 29 28  1  0  0  0  0
 29 27  1  0  0  0  0
 30 25  1  0  0  0  0
 31 25  1  0  0  0  0
 34 33  1  0  0  0  0
 35 40  1  0  0  0  0
 35 13  1  0  0  0  0
 36 39  2  0  0  0  0
 36 37  1  0  0  0  0
 37 41  2  0  0  0  0
 39 40  1  0  0  0  0
 40 38  2  0  0  0  0
 41 38  1  0  0  0  0
 42 43  1  0  0  0  0
 43 37  1  0  0  0  0
M  END
>  <MODEL>
9

>  <REMARK>
 VINA RESULT:      -6.1      3.889      8.422
  Name = 
  10 active torsions:
  status: ('A' for Active; 'I' for Inactive)
    1  A    between atoms: C_1  and  N_34
    2  A    between atoms: C_1  and  C_35
    3  A    between atoms: C_2  and  C_6
    4  A    between atoms: C_2  and  C_13
    5  A    between atoms: N_3  and  C_4
    6  A    between atoms: C_4  and  C_15
    7  A    between atoms: C_4  and  C_22
    8  A    between atoms: C_6  and  C_12
    9  A    between atoms: C_14  and  C_22
   10  A    between atoms: C_19  and  O_37
                            x       y       z     vdW  Elec       q    Type
                         _______ _______ _______ _____ _____    ______ ____

>  <TORSDO>
F 10

$$$$
