=
 OpenBabel11062407533D

 34 38  0  0  1  0  0  0  0  0999 V2000
  161.1250  205.1600  152.4730 C   0  0  0  0  0  0  0  0  0  0  0  0
  160.9100  205.3380  149.9390 C   0  0  2  0  0  3  0  0  0  0  0  0
  160.9590  207.3700  151.4760 C   0  0  0  0  0  0  0  0  0  0  0  0
  162.6310  210.2890  151.5890 C   0  0  0  0  0  2  0  0  0  0  0  0
  161.5940  203.1830  151.0150 C   0  0  0  0  0  2  0  0  0  0  0  0
  160.7070  203.8230  149.9620 C   0  0  0  0  0  2  0  0  0  0  0  0
  162.1010  208.3120  149.4620 C   0  0  0  0  0  2  0  0  0  0  0  0
  160.9640  205.9650  151.3230 C   0  0  0  0  0  0  0  0  0  0  0  0
  162.8390  210.7470  150.1490 C   0  0  0  0  0  2  0  0  0  0  0  0
  161.1440  203.6610  152.3880 C   0  0  0  0  0  2  0  0  0  0  0  0
  161.0390  207.9360  152.7720 C   0  0  0  0  0  0  0  0  0  0  0  0
  161.1990  205.7360  153.6990 N   0  0  0  0  0  0  0  0  0  0  0  0
  159.8960  205.9040  149.1870 F   0  0  0  0  0  0  0  0  0  0  0  0
  161.2130  210.3000  151.9200 N   0  0  0  0  0  2  0  0  0  0  0  0
  161.0170  209.4270  153.0790 C   0  0  1  0  0  3  0  0  0  0  0  0
  162.3720  209.7650  149.0570 C   0  0  2  0  0  3  0  0  0  0  0  0
  160.9320  208.2140  150.3250 N   0  0  0  0  0  2  0  0  0  0  0  0
  161.1580  207.0780  153.8680 C   0  0  0  0  0  3  0  0  0  0  0  0
  157.9170  211.3150  154.0990 C   0  0  2  0  0  3  0  0  0  0  0  0
  157.8860  210.7180  155.3860 O   0  0  0  0  0  0  0  0  0  0  0  0
  159.8190  209.7940  153.8470 N   0  0  2  0  0  0  0  0  0  0  0  0
  159.1510  210.8500  155.9940 C   0  0  0  0  0  2  0  0  0  0  0  0
  159.1970  211.0050  153.3050 C   0  0  0  0  0  2  0  0  0  0  0  0
  160.1970  210.0060  155.2500 C   0  0  0  0  0  2  0  0  0  0  0  0
  157.6640  212.8090  154.1790 C   0  0  0  0  0  1  0  0  0  0  0  0
  161.3410  210.3560  148.0960 C   0  0  0  0  0  2  0  0  0  0  0  0
  161.5530  211.7470  147.8790 O   0  0  0  0  0  0  0  0  0  0  0  0
  160.4380  213.6340  149.7070 C   0  0  0  0  0  1  0  0  0  0  0  0
  160.5620  212.6180  147.4100 C   0  0  0  0  0  0  0  0  0  0  0  0
  160.0020  213.5630  148.2840 C   0  0  0  0  0  0  0  0  0  0  0  0
  158.5870  214.3920  146.5010 C   0  0  0  0  0  3  0  0  0  0  0  0
  159.1330  213.4490  145.6270 C   0  0  0  0  0  3  0  0  0  0  0  0
  160.1140  212.5640  146.0800 C   0  0  0  0  0  3  0  0  0  0  0  0
  159.0190  214.4460  147.8270 C   0  0  0  0  0  3  0  0  0  0  0  0
  1 12  1  0  0  0  0
  2 13  1  6  0  0  0
  2  6  1  0  0  0  0
  2  8  1  0  0  0  0
  3 11  2  0  0  0  0
  4 14  1  0  0  0  0
  5 10  1  0  0  0  0
  6  5  1  0  0  0  0
  7 17  1  0  0  0  0
  8  3  1  0  0  0  0
  8  1  2  0  0  0  0
  9  4  1  0  0  0  0
 10  1  1  0  0  0  0
 11 15  1  0  0  0  0
 11 18  1  0  0  0  0
 12 18  2  0  0  0  0
 15 14  1  6  0  0  0
 15 21  1  0  0  0  0
 16 26  1  1  0  0  0
 16  7  1  0  0  0  0
 16  9  1  0  0  0  0
 17  3  1  0  0  0  0
 19 25  1  1  0  0  0
 19 20  1  0  0  0  0
 20 22  1  0  0  0  0
 21 23  1  6  0  0  0
 21 24  1  0  0  0  0
 23 19  1  0  0  0  0
 24 22  1  0  0  0  0
 27 26  1  0  0  0  0
 29 27  1  0  0  0  0
 29 30  1  0  0  0  0
 30 28  1  0  0  0  0
 31 34  1  0  0  0  0
 32 33  1  0  0  0  0
 32 31  2  0  0  0  0
 33 29  2  0  0  0  0
 34 30  2  0  0  0  0
M  END
>  <MODEL>
1

>  <REMARK>
 VINA RESULT:      -6.9      0.000      0.000
  Name = 
  4 active torsions:
  status: ('A' for Active; 'I' for Inactive)
    1  A    between atoms: O_3  and  C_13
    2  A    between atoms: O_3  and  C_17
    3  A    between atoms: N_12  and  C_28
    4  A    between atoms: C_17  and  C_29
                            x       y       z     vdW  Elec       q    Type
                         _______ _______ _______ _____ _____    ______ ____

>  <TORSDO>
F 4

$$$$
=
 OpenBabel11062407533D

 34 38  0  0  1  0  0  0  0  0999 V2000
  161.0560  205.1410  152.4680 C   0  0  0  0  0  0  0  0  0  0  0  0
  160.8750  205.3660  149.9360 C   0  0  2  0  0  3  0  0  0  0  0  0
  160.9480  207.3700  151.5080 C   0  0  0  0  0  0  0  0  0  0  0  0
  162.6790  210.2510  151.6900 C   0  0  0  0  0  2  0  0  0  0  0  0
  161.5000  203.1790  150.9820 C   0  0  0  0  0  2  0  0  0  0  0  0
  160.6400  203.8550  149.9300 C   0  0  0  0  0  2  0  0  0  0  0  0
  162.1340  208.3220  149.5230 C   0  0  0  0  0  2  0  0  0  0  0  0
  160.9260  205.9680  151.3310 C   0  0  0  0  0  0  0  0  0  0  0  0
  162.9140  210.7280  150.2600 C   0  0  0  0  0  2  0  0  0  0  0  0
  161.0440  203.6430  152.3580 C   0  0  0  0  0  2  0  0  0  0  0  0
  161.0250  207.9130  152.8140 C   0  0  0  0  0  0  0  0  0  0  0  0
  161.1270  205.6940  153.7050 N   0  0  0  0  0  0  0  0  0  0  0  0
  159.8810  205.9650  149.1820 F   0  0  0  0  0  0  0  0  0  0  0  0
  161.2590  210.2860  152.0050 N   0  0  0  0  0  2  0  0  0  0  0  0
  161.0300  209.3980  153.1460 C   0  0  1  0  0  3  0  0  0  0  0  0
  162.4390  209.7760  149.1460 C   0  0  2  0  0  3  0  0  0  0  0  0
  160.9530  208.2340  150.3710 N   0  0  0  0  0  2  0  0  0  0  0  0
  161.1130  207.0340  153.8960 C   0  0  0  0  0  3  0  0  0  0  0  0
  157.9040  211.2740  154.1050 C   0  0  2  0  0  3  0  0  0  0  0  0
  157.8930  210.7340  155.4180 O   0  0  0  0  0  0  0  0  0  0  0  0
  159.8320  209.7770  153.9060 N   0  0  2  0  0  0  0  0  0  0  0  0
  159.1600  210.9160  156.0100 C   0  0  0  0  0  2  0  0  0  0  0  0
  159.1840  210.9520  153.3160 C   0  0  0  0  0  2  0  0  0  0  0  0
  160.2150  210.0590  155.2960 C   0  0  0  0  0  2  0  0  0  0  0  0
  157.6250  212.7660  154.1210 C   0  0  0  0  0  1  0  0  0  0  0  0
  161.4330  210.4040  148.1840 C   0  0  0  0  0  2  0  0  0  0  0  0
  161.5560  211.8220  148.1370 O   0  0  0  0  0  0  0  0  0  0  0  0
  159.7950  212.6950  146.0680 C   0  0  0  0  0  1  0  0  0  0  0  0
  160.5200  212.7010  148.4760 C   0  0  0  0  0  0  0  0  0  0  0  0
  159.6330  213.1390  147.4810 C   0  0  0  0  0  0  0  0  0  0  0  0
  158.4200  214.4470  149.1210 C   0  0  0  0  0  3  0  0  0  0  0  0
  159.3030  214.0220  150.1150 C   0  0  0  0  0  3  0  0  0  0  0  0
  160.3510  213.1550  149.7940 C   0  0  0  0  0  3  0  0  0  0  0  0
  158.5870  214.0080  147.8060 C   0  0  0  0  0  3  0  0  0  0  0  0
  1 12  1  0  0  0  0
  2 13  1  6  0  0  0
  2  8  1  0  0  0  0
  3 11  2  0  0  0  0
  4 14  1  0  0  0  0
  5 10  1  0  0  0  0
  6  2  1  0  0  0  0
  6  5  1  0  0  0  0
  7 17  1  0  0  0  0
  8  3  1  0  0  0  0
  8  1  2  0  0  0  0
  9  4  1  0  0  0  0
 10  1  1  0  0  0  0
 11 15  1  0  0  0  0
 11 18  1  0  0  0  0
 12 18  2  0  0  0  0
 15 14  1  6  0  0  0
 15 21  1  0  0  0  0
 16 26  1  1  0  0  0
 16  7  1  0  0  0  0
 16  9  1  0  0  0  0
 17  3  1  0  0  0  0
 19 25  1  1  0  0  0
 19 20  1  0  0  0  0
 20 22  1  0  0  0  0
 21 23  1  6  0  0  0
 21 24  1  0  0  0  0
 23 19  1  0  0  0  0
 24 22  1  0  0  0  0
 27 26  1  0  0  0  0
 27 29  1  0  0  0  0
 28 30  1  0  0  0  0
 29 33  1  0  0  0  0
 30 34  1  0  0  0  0
 30 29  2  0  0  0  0
 31 32  1  0  0  0  0
 33 32  2  0  0  0  0
 34 31  2  0  0  0  0
M  END
>  <MODEL>
2

>  <REMARK>
 VINA RESULT:      -6.6      0.442      1.316
  Name = 
  4 active torsions:
  status: ('A' for Active; 'I' for Inactive)
    1  A    between atoms: O_3  and  C_13
    2  A    between atoms: O_3  and  C_17
    3  A    between atoms: N_12  and  C_28
    4  A    between atoms: C_17  and  C_29
                            x       y       z     vdW  Elec       q    Type
                         _______ _______ _______ _____ _____    ______ ____

>  <TORSDO>
F 4

$$$$
=
 OpenBabel11062407533D

 34 38  0  0  1  0  0  0  0  0999 V2000
  161.0980  209.6820  155.8870 C   0  0  0  0  0  0  0  0  0  0  0  0
  160.7400  207.3770  154.8590 C   0  0  2  0  0  3  0  0  0  0  0  0
  160.7750  209.5230  153.4840 C   0  0  0  0  0  0  0  0  0  0  0  0
  162.3100  210.5880  150.6850 C   0  0  0  0  0  2  0  0  0  0  0  0
  161.5810  207.6120  157.2050 C   0  0  0  0  0  2  0  0  0  0  0  0
  160.6100  206.8780  156.2980 C   0  0  0  0  0  2  0  0  0  0  0  0
  161.7620  207.9250  151.8340 C   0  0  0  0  0  2  0  0  0  0  0  0
  160.8380  208.8900  154.7460 C   0  0  0  0  0  0  0  0  0  0  0  0
  162.4190  209.3910  149.7450 C   0  0  0  0  0  2  0  0  0  0  0  0
  161.1830  209.0800  157.2600 C   0  0  0  0  0  2  0  0  0  0  0  0
  160.8970  210.9310  153.3960 C   0  0  0  0  0  0  0  0  0  0  0  0
  161.2100  211.0290  155.7670 N   0  0  0  0  0  0  0  0  0  0  0  0
  159.6610  206.9040  154.1330 F   0  0  0  0  0  0  0  0  0  0  0  0
  160.9140  210.9490  150.8780 N   0  0  0  0  0  2  0  0  0  0  0  0
  160.8210  211.7380  152.1080 C   0  0  1  0  0  3  0  0  0  0  0  0
  161.9420  208.0420  150.3160 C   0  0  2  0  0  3  0  0  0  0  0  0
  160.6470  208.7380  152.2970 N   0  0  0  0  0  2  0  0  0  0  0  0
  161.1150  211.6550  154.5700 C   0  0  0  0  0  3  0  0  0  0  0  0
  157.5070  213.2160  153.1320 C   0  0  2  0  0  3  0  0  0  0  0  0
  157.3690  213.9370  151.9160 O   0  0  0  0  0  0  0  0  0  0  0  0
  159.6500  212.6250  152.1050 N   0  0  2  0  0  0  0  0  0  0  0  0
  157.5640  213.0620  150.8280 C   0  0  0  0  0  2  0  0  0  0  0  0
  158.6830  212.2260  153.1310 C   0  0  0  0  0  2  0  0  0  0  0  0
  159.0220  212.5820  150.7780 C   0  0  0  0  0  2  0  0  0  0  0  0
  156.2080  212.5320  153.5160 C   0  0  0  0  0  1  0  0  0  0  0  0
  160.8350  207.3820  149.4960 C   0  0  0  0  0  2  0  0  0  0  0  0
  161.3350  206.3280  148.6800 O   0  0  0  0  0  0  0  0  0  0  0  0
  161.7460  204.4290  146.5890 C   0  0  0  0  0  1  0  0  0  0  0  0
  161.1580  204.9700  148.9730 C   0  0  0  0  0  0  0  0  0  0  0  0
  161.3630  204.0130  147.9670 C   0  0  0  0  0  0  0  0  0  0  0  0
  160.8310  202.2390  149.5300 C   0  0  0  0  0  3  0  0  0  0  0  0
  160.6170  203.1850  150.5340 C   0  0  0  0  0  3  0  0  0  0  0  0
  160.7760  204.5450  150.2570 C   0  0  0  0  0  3  0  0  0  0  0  0
  161.2000  202.6530  148.2480 C   0  0  0  0  0  3  0  0  0  0  0  0
  1 10  1  0  0  0  0
  2 13  1  6  0  0  0
  2  6  1  0  0  0  0
  3  8  1  0  0  0  0
  4 14  1  0  0  0  0
  5 10  1  0  0  0  0
  6  5  1  0  0  0  0
  7 17  1  0  0  0  0
  8  2  1  0  0  0  0
  8  1  2  0  0  0  0
  9 16  1  0  0  0  0
  9  4  1  0  0  0  0
 11  3  2  0  0  0  0
 11 18  1  0  0  0  0
 12  1  1  0  0  0  0
 15 14  1  6  0  0  0
 15 11  1  0  0  0  0
 16 26  1  6  0  0  0
 16  7  1  0  0  0  0
 17  3  1  0  0  0  0
 18 12  2  0  0  0  0
 19 25  1  6  0  0  0
 20 19  1  0  0  0  0
 21 24  1  6  0  0  0
 21 15  1  0  0  0  0
 21 23  1  0  0  0  0
 22 20  1  0  0  0  0
 23 19  1  0  0  0  0
 24 22  1  0  0  0  0
 27 29  1  0  0  0  0
 27 26  1  0  0  0  0
 28 30  1  0  0  0  0
 29 33  1  0  0  0  0
 30 34  1  0  0  0  0
 30 29  2  0  0  0  0
 31 32  1  0  0  0  0
 33 32  2  0  0  0  0
 34 31  2  0  0  0  0
M  END
>  <MODEL>
3

>  <REMARK>
 VINA RESULT:      -6.1      2.705      6.138
  Name = 
  4 active torsions:
  status: ('A' for Active; 'I' for Inactive)
    1  A    between atoms: O_3  and  C_13
    2  A    between atoms: O_3  and  C_17
    3  A    between atoms: N_12  and  C_28
    4  A    between atoms: C_17  and  C_29
                            x       y       z     vdW  Elec       q    Type
                         _______ _______ _______ _____ _____    ______ ____

>  <TORSDO>
F 4

$$$$
=
 OpenBabel11062407533D

 34 38  0  0  1  0  0  0  0  0999 V2000
  161.5080  211.2170  149.9900 C   0  0  0  0  0  0  0  0  0  0  0  0
  159.9040  212.5730  151.4340 C   0  0  2  0  0  3  0  0  0  0  0  0
  160.6820  210.2250  152.0490 C   0  0  0  0  0  0  0  0  0  0  0  0
  161.9540  208.7260  154.7810 C   0  0  0  0  0  2  0  0  0  0  0  0
  161.1990  213.6660  149.5920 C   0  0  0  0  0  2  0  0  0  0  0  0
  159.8390  213.5440  150.2550 C   0  0  0  0  0  2  0  0  0  0  0  0
  160.4460  211.2230  154.3290 C   0  0  0  0  0  2  0  0  0  0  0  0
  160.6850  211.3030  151.1340 C   0  0  0  0  0  0  0  0  0  0  0  0
  161.2940  209.3680  155.9970 C   0  0  0  0  0  2  0  0  0  0  0  0
  161.5650  212.3240  148.9770 C   0  0  0  0  0  2  0  0  0  0  0  0
  161.4380  209.0610  151.7660 C   0  0  0  0  0  0  0  0  0  0  0  0
  162.2200  210.0870  149.7500 N   0  0  0  0  0  0  0  0  0  0  0  0
  158.6110  212.2700  151.8230 F   0  0  0  0  0  0  0  0  0  0  0  0
  160.9660  207.9980  153.9990 N   0  0  0  0  0  2  0  0  0  0  0  0
  161.5030  207.8230  152.6480 C   0  0  1  0  0  3  0  0  0  0  0  0
  160.3560  210.5550  155.7060 C   0  0  2  0  0  3  0  0  0  0  0  0
  159.9660  210.3340  153.2800 N   0  0  0  0  0  2  0  0  0  0  0  0
  162.2000  209.0300  150.5950 C   0  0  0  0  0  3  0  0  0  0  0  0
  160.7320  204.2180  151.8550 C   0  0  2  0  0  3  0  0  0  0  0  0
  160.2020  204.5350  150.5770 O   0  0  0  0  0  0  0  0  0  0  0  0
  160.9190  206.6570  151.9710 N   0  0  2  0  0  0  0  0  0  0  0  0
  161.1230  205.3390  149.8750 C   0  0  0  0  0  2  0  0  0  0  0  0
  161.4150  205.4070  152.5520 C   0  0  0  0  0  2  0  0  0  0  0  0
  161.2530  206.7160  150.5420 C   0  0  0  0  0  2  0  0  0  0  0  0
  161.6520  203.0140  151.7870 C   0  0  0  0  0  1  0  0  0  0  0  0
  158.9320  210.3570  156.2210 C   0  0  0  0  0  2  0  0  0  0  0  0
  158.3200  211.5920  156.5800 O   0  0  0  0  0  0  0  0  0  0  0  0
  159.1620  214.2640  156.0350 C   0  0  0  0  0  1  0  0  0  0  0  0
  157.5530  212.3610  155.6980 C   0  0  0  0  0  0  0  0  0  0  0  0
  157.9480  213.6760  155.4030 C   0  0  0  0  0  0  0  0  0  0  0  0
  156.0490  213.9270  153.9190 C   0  0  0  0  0  3  0  0  0  0  0  0
  155.6450  212.6230  154.2130 C   0  0  0  0  0  3  0  0  0  0  0  0
  156.3910  211.8450  155.1010 C   0  0  0  0  0  3  0  0  0  0  0  0
  157.1970  214.4530  154.5150 C   0  0  0  0  0  3  0  0  0  0  0  0
  1  8  1  0  0  0  0
  2 13  1  6  0  0  0
  3 17  1  0  0  0  0
  4  9  1  0  0  0  0
  5  6  1  0  0  0  0
  6  2  1  0  0  0  0
  7 16  1  0  0  0  0
  8  2  1  0  0  0  0
  8  3  2  0  0  0  0
 10  5  1  0  0  0  0
 10  1  1  0  0  0  0
 11  3  1  0  0  0  0
 12  1  2  0  0  0  0
 12 18  1  0  0  0  0
 14  4  1  0  0  0  0
 15 11  1  6  0  0  0
 15 14  1  0  0  0  0
 16  9  1  0  0  0  0
 16 26  1  6  0  0  0
 17  7  1  0  0  0  0
 18 11  2  0  0  0  0
 19 25  1  6  0  0  0
 19 23  1  0  0  0  0
 20 19  1  0  0  0  0
 21 24  1  6  0  0  0
 21 23  1  0  0  0  0
 21 15  1  0  0  0  0
 22 24  1  0  0  0  0
 22 20  1  0  0  0  0
 26 27  1  0  0  0  0
 29 27  1  0  0  0  0
 30 29  1  0  0  0  0
 30 28  1  0  0  0  0
 31 32  2  0  0  0  0
 31 34  1  0  0  0  0
 32 33  1  0  0  0  0
 33 29  2  0  0  0  0
 34 30  2  0  0  0  0
M  END
>  <MODEL>
4

>  <REMARK>
 VINA RESULT:      -5.1      2.544      7.122
  Name = 
  4 active torsions:
  status: ('A' for Active; 'I' for Inactive)
    1  A    between atoms: O_3  and  C_13
    2  A    between atoms: O_3  and  C_17
    3  A    between atoms: N_12  and  C_28
    4  A    between atoms: C_17  and  C_29
                            x       y       z     vdW  Elec       q    Type
                         _______ _______ _______ _____ _____    ______ ____

>  <TORSDO>
F 4

$$$$
=
 OpenBabel11062407533D

 34 38  0  0  1  0  0  0  0  0999 V2000
  160.6070  212.7660  150.4710 C   0  0  0  0  0  0  0  0  0  0  0  0
  162.0460  212.0790  148.4820 C   0  0  2  0  0  3  0  0  0  0  0  0
  161.4760  210.4970  150.3980 C   0  0  0  0  0  0  0  0  0  0  0  0
  160.2910  207.3610  150.6850 C   0  0  0  0  0  2  0  0  0  0  0  0
  160.6950  214.1860  148.4150 C   0  0  0  0  0  2  0  0  0  0  0  0
  162.0460  213.5620  148.1120 C   0  0  0  0  0  2  0  0  0  0  0  0
  161.5690  208.8750  148.4980 C   0  0  0  0  0  2  0  0  0  0  0  0
  161.3930  211.7870  149.8240 C   0  0  0  0  0  0  0  0  0  0  0  0
  160.8610  206.5540  149.5240 C   0  0  0  0  0  2  0  0  0  0  0  0
  160.4690  214.1550  149.9190 C   0  0  0  0  0  2  0  0  0  0  0  0
  160.8380  210.2360  151.6350 C   0  0  0  0  0  0  0  0  0  0  0  0
  160.0090  212.4810  151.6560 N   0  0  0  0  0  0  0  0  0  0  0  0
  163.3520  211.6250  148.4660 F   0  0  0  0  0  0  0  0  0  0  0  0
  161.3590  207.7730  151.5840 N   0  0  0  0  0  2  0  0  0  0  0  0
  160.8700  208.9050  152.3730 C   0  0  1  0  0  3  0  0  0  0  0  0
  161.6900  207.3470  148.4960 C   0  0  2  0  0  3  0  0  0  0  0  0
  162.1520  209.4480  149.7030 N   0  0  0  0  0  2  0  0  0  0  0  0
  160.1080  211.2630  152.2380 C   0  0  0  0  0  3  0  0  0  0  0  0
  161.5820  208.5510  156.0590 C   0  0  2  0  0  3  0  0  0  0  0  0
  162.6070  209.5320  156.0310 O   0  0  0  0  0  0  0  0  0  0  0  0
  161.5750  209.0260  153.6560 N   0  0  2  0  0  0  0  0  0  0  0  0
  162.1210  210.7000  155.4090 C   0  0  0  0  0  2  0  0  0  0  0  0
  160.7800  208.4590  154.7490 C   0  0  0  0  0  2  0  0  0  0  0  0
  161.8520  210.4440  153.9180 C   0  0  0  0  0  2  0  0  0  0  0  0
  160.6670  208.7450  157.2540 C   0  0  0  0  0  1  0  0  0  0  0  0
  163.1150  206.8260  148.3190 C   0  0  0  0  0  2  0  0  0  0  0  0
  163.1360  205.5060  147.7850 O   0  0  0  0  0  0  0  0  0  0  0  0
  161.5660  203.1360  148.0400 C   0  0  0  0  0  1  0  0  0  0  0  0
  162.3650  205.1010  146.6890 C   0  0  0  0  0  0  0  0  0  0  0  0
  161.5750  203.9450  146.7880 C   0  0  0  0  0  0  0  0  0  0  0  0
  160.7910  204.2700  144.5190 C   0  0  0  0  0  3  0  0  0  0  0  0
  161.5800  205.4160  144.4090 C   0  0  0  0  0  3  0  0  0  0  0  0
  162.3660  205.8290  145.4880 C   0  0  0  0  0  3  0  0  0  0  0  0
  160.7910  203.5340  145.7060 C   0  0  0  0  0  3  0  0  0  0  0  0
  1 12  1  0  0  0  0
  2 13  1  1  0  0  0
  2  8  1  0  0  0  0
  3 11  2  0  0  0  0
  4 14  1  0  0  0  0
  5 10  1  0  0  0  0
  6  5  1  0  0  0  0
  6  2  1  0  0  0  0
  7 17  1  0  0  0  0
  8  3  1  0  0  0  0
  8  1  2  0  0  0  0
  9  4  1  0  0  0  0
 10  1  1  0  0  0  0
 11 18  1  0  0  0  0
 11 15  1  0  0  0  0
 12 18  2  0  0  0  0
 15 14  1  6  0  0  0
 15 21  1  0  0  0  0
 16 26  1  1  0  0  0
 16  7  1  0  0  0  0
 16  9  1  0  0  0  0
 17  3  1  0  0  0  0
 19 25  1  1  0  0  0
 20 19  1  0  0  0  0
 21 24  1  1  0  0  0
 21 23  1  0  0  0  0
 22 20  1  0  0  0  0
 23 19  1  0  0  0  0
 24 22  1  0  0  0  0
 27 26  1  0  0  0  0
 29 30  1  0  0  0  0
 29 27  1  0  0  0  0
 30 28  1  0  0  0  0
 31 34  1  0  0  0  0
 32 31  2  0  0  0  0
 32 33  1  0  0  0  0
 33 29  2  0  0  0  0
 34 30  2  0  0  0  0
M  END
>  <MODEL>
5

>  <REMARK>
 VINA RESULT:      -4.9      3.006      6.611
  Name = 
  4 active torsions:
  status: ('A' for Active; 'I' for Inactive)
    1  A    between atoms: O_3  and  C_13
    2  A    between atoms: O_3  and  C_17
    3  A    between atoms: N_12  and  C_28
    4  A    between atoms: C_17  and  C_29
                            x       y       z     vdW  Elec       q    Type
                         _______ _______ _______ _____ _____    ______ ____

>  <TORSDO>
F 4

$$$$
=
 OpenBabel11062407533D

 34 38  0  0  1  0  0  0  0  0999 V2000
  159.5790  213.9080  143.3450 C   0  0  0  0  0  0  0  0  0  0  0  0
  161.8550  212.9300  142.7460 C   0  0  2  0  0  3  0  0  0  0  0  0
  159.9030  213.0140  141.1090 C   0  0  0  0  0  0  0  0  0  0  0  0
  159.4430  214.0180  137.9300 C   0  0  0  0  0  2  0  0  0  0  0  0
  161.5650  214.3200  144.8070 C   0  0  0  0  0  2  0  0  0  0  0  0
  162.1760  213.0530  144.2350 C   0  0  0  0  0  2  0  0  0  0  0  0
  161.8190  213.3000  139.5280 C   0  0  0  0  0  2  0  0  0  0  0  0
  160.4100  213.2590  142.4060 C   0  0  0  0  0  0  0  0  0  0  0  0
  160.7240  213.6970  137.1650 C   0  0  0  0  0  2  0  0  0  0  0  0
  160.0490  214.2050  144.7400 C   0  0  0  0  0  2  0  0  0  0  0  0
  158.5630  213.3530  140.8020 C   0  0  0  0  0  0  0  0  0  0  0  0
  158.2990  214.2200  143.0170 N   0  0  0  0  0  0  0  0  0  0  0  0
  162.1720  211.6470  142.3350 F   0  0  0  0  0  0  0  0  0  0  0  0
  158.7930  212.7880  138.3590 N   0  0  0  0  0  2  0  0  0  0  0  0
  157.8860  213.1210  139.4590 C   0  0  1  0  0  3  0  0  0  0  0  0
  161.8880  213.1400  138.0050 C   0  0  2  0  0  3  0  0  0  0  0  0
  160.7580  212.4800  140.0970 N   0  0  0  0  0  2  0  0  0  0  0  0
  157.7860  213.9600  141.7920 C   0  0  0  0  0  3  0  0  0  0  0  0
  155.9900  209.8770  139.1510 C   0  0  2  0  0  3  0  0  0  0  0  0
  154.7420  210.4940  139.4280 O   0  0  0  0  0  0  0  0  0  0  0  0
  156.7880  212.1520  139.5770 N   0  0  2  0  0  0  0  0  0  0  0  0
  154.5750  211.6120  138.5850 C   0  0  0  0  0  2  0  0  0  0  0  0
  157.1410  210.8760  138.9490 C   0  0  0  0  0  2  0  0  0  0  0  0
  155.5870  212.7110  138.9430 C   0  0  0  0  0  2  0  0  0  0  0  0
  155.8810  208.9150  137.9830 C   0  0  0  0  0  1  0  0  0  0  0  0
  162.3910  211.7760  137.5350 C   0  0  0  0  0  2  0  0  0  0  0  0
  161.4570  210.7390  137.8180 O   0  0  0  0  0  0  0  0  0  0  0  0
  160.3710  208.2260  137.0130 C   0  0  0  0  0  1  0  0  0  0  0  0
  161.7630  209.6090  138.5850 C   0  0  0  0  0  0  0  0  0  0  0  0
  161.2510  208.3580  138.2070 C   0  0  0  0  0  0  0  0  0  0  0  0
  162.3710  207.3180  140.0870 C   0  0  0  0  0  3  0  0  0  0  0  0
  162.8780  208.5600  140.4750 C   0  0  0  0  0  3  0  0  0  0  0  0
  162.5730  209.7010  139.7290 C   0  0  0  0  0  3  0  0  0  0  0  0
  161.5570  207.2180  138.9580 C   0  0  0  0  0  3  0  0  0  0  0  0
  1 10  1  0  0  0  0
  2 13  1  1  0  0  0
  2  6  1  0  0  0  0
  3  8  1  0  0  0  0
  4 14  1  0  0  0  0
  6  5  1  0  0  0  0
  7 17  1  0  0  0  0
  8  2  1  0  0  0  0
  8  1  2  0  0  0  0
  9  4  1  0  0  0  0
  9 16  1  0  0  0  0
 10  5  1  0  0  0  0
 11  3  2  0  0  0  0
 11 18  1  0  0  0  0
 12  1  1  0  0  0  0
 15 14  1  6  0  0  0
 15 21  1  0  0  0  0
 15 11  1  0  0  0  0
 16 26  1  1  0  0  0
 16  7  1  0  0  0  0
 17  3  1  0  0  0  0
 18 12  2  0  0  0  0
 19 25  1  6  0  0  0
 19 20  1  0  0  0  0
 21 24  1  6  0  0  0
 22 24  1  0  0  0  0
 22 20  1  0  0  0  0
 23 19  1  0  0  0  0
 23 21  1  0  0  0  0
 26 27  1  0  0  0  0
 27 29  1  0  0  0  0
 28 30  1  0  0  0  0
 29 33  1  0  0  0  0
 30 29  2  0  0  0  0
 30 34  1  0  0  0  0
 31 32  1  0  0  0  0
 33 32  2  0  0  0  0
 34 31  2  0  0  0  0
M  END
>  <MODEL>
6

>  <REMARK>
 VINA RESULT:      -4.5      9.322     12.891
  Name = 
  4 active torsions:
  status: ('A' for Active; 'I' for Inactive)
    1  A    between atoms: O_3  and  C_13
    2  A    between atoms: O_3  and  C_17
    3  A    between atoms: N_12  and  C_28
    4  A    between atoms: C_17  and  C_29
                            x       y       z     vdW  Elec       q    Type
                         _______ _______ _______ _____ _____    ______ ____

>  <TORSDO>
F 4

$$$$
=
 OpenBabel11062407533D

 34 38  0  0  1  0  0  0  0  0999 V2000
  161.0410  209.6480  155.3190 C   0  0  0  0  0  0  0  0  0  0  0  0
  160.4760  207.1850  154.9940 C   0  0  2  0  0  3  0  0  0  0  0  0
  160.9880  208.7610  153.0580 C   0  0  0  0  0  0  0  0  0  0  0  0
  162.9860  208.7120  150.3500 C   0  0  0  0  0  2  0  0  0  0  0  0
  161.0560  208.0730  157.2610 C   0  0  0  0  0  2  0  0  0  0  0  0
  160.1040  207.1890  156.4760 C   0  0  0  0  0  2  0  0  0  0  0  0
  161.9220  206.6280  152.1480 C   0  0  0  0  0  2  0  0  0  0  0  0
  160.8070  208.5640  154.4450 C   0  0  0  0  0  0  0  0  0  0  0  0
  163.0310  207.2720  149.8470 C   0  0  0  0  0  2  0  0  0  0  0  0
  160.8720  209.5130  156.8050 C   0  0  0  0  0  2  0  0  0  0  0  0
  161.3240  210.0470  152.5680 C   0  0  0  0  0  0  0  0  0  0  0  0
  161.3620  210.8670  154.8160 N   0  0  0  0  0  0  0  0  0  0  0  0
  159.4350  206.6140  154.2830 F   0  0  0  0  0  0  0  0  0  0  0  0
  161.6440  209.2550  150.1990 N   0  0  0  0  0  2  0  0  0  0  0  0
  161.5210  210.4020  151.1010 C   0  0  1  0  0  3  0  0  0  0  0  0
  162.2970  206.2330  150.7160 C   0  0  2  0  0  3  0  0  0  0  0  0
  160.8900  207.6550  152.1600 N   0  0  0  0  0  2  0  0  0  0  0  0
  161.5030  211.0840  153.4870 C   0  0  0  0  0  3  0  0  0  0  0  0
  159.8940  213.1280  149.0680 C   0  0  2  0  0  3  0  0  0  0  0  0
  158.8590  213.3230  150.0190 O   0  0  0  0  0  0  0  0  0  0  0  0
  160.5000  211.3540  150.6430 N   0  0  2  0  0  0  0  0  0  0  0  0
  159.4260  213.4960  151.2990 C   0  0  0  0  0  2  0  0  0  0  0  0
  161.0130  212.1930  149.5560 C   0  0  0  0  0  2  0  0  0  0  0  0
  160.0870  212.1940  151.7750 C   0  0  0  0  0  2  0  0  0  0  0  0
  160.4530  214.4530  148.5840 C   0  0  0  0  0  1  0  0  0  0  0  0
  161.2120  205.4600  149.9680 C   0  0  0  0  0  2  0  0  0  0  0  0
  161.6320  204.1410  149.6360 O   0  0  0  0  0  0  0  0  0  0  0  0
  160.4140  201.5660  149.8150 C   0  0  0  0  0  1  0  0  0  0  0  0
  161.2780  203.4910  148.4470 C   0  0  0  0  0  0  0  0  0  0  0  0
  160.6680  202.2280  148.5050 C   0  0  0  0  0  0  0  0  0  0  0  0
  160.5370  202.1680  146.0860 C   0  0  0  0  0  3  0  0  0  0  0  0
  161.1500  203.4210  146.0200 C   0  0  0  0  0  3  0  0  0  0  0  0
  161.5220  204.0780  147.1950 C   0  0  0  0  0  3  0  0  0  0  0  0
  160.2990  201.5720  147.3260 C   0  0  0  0  0  3  0  0  0  0  0  0
  1 10  1  0  0  0  0
  2 13  1  6  0  0  0
  2  6  1  0  0  0  0
  3  8  1  0  0  0  0
  6  5  1  0  0  0  0
  7 17  1  0  0  0  0
  8  2  1  0  0  0  0
  8  1  2  0  0  0  0
  9  4  1  0  0  0  0
  9 16  1  0  0  0  0
 10  5  1  0  0  0  0
 11  3  2  0  0  0  0
 11 18  1  0  0  0  0
 12  1  1  0  0  0  0
 14  4  1  0  0  0  0
 15 14  1  6  0  0  0
 15 11  1  0  0  0  0
 16 26  1  6  0  0  0
 16  7  1  0  0  0  0
 17  3  1  0  0  0  0
 18 12  2  0  0  0  0
 19 25  1  1  0  0  0
 19 23  1  0  0  0  0
 19 20  1  0  0  0  0
 20 22  1  0  0  0  0
 21 23  1  6  0  0  0
 21 15  1  0  0  0  0
 21 24  1  0  0  0  0
 22 24  1  0  0  0  0
 27 26  1  0  0  0  0
 29 30  1  0  0  0  0
 29 27  1  0  0  0  0
 30 28  1  0  0  0  0
 31 34  1  0  0  0  0
 32 31  2  0  0  0  0
 32 33  1  0  0  0  0
 33 29  2  0  0  0  0
 34 30  2  0  0  0  0
M  END
>  <MODEL>
7

>  <REMARK>
 VINA RESULT:      -4.1      2.618      6.680
  Name = 
  4 active torsions:
  status: ('A' for Active; 'I' for Inactive)
    1  A    between atoms: O_3  and  C_13
    2  A    between atoms: O_3  and  C_17
    3  A    between atoms: N_12  and  C_28
    4  A    between atoms: C_17  and  C_29
                            x       y       z     vdW  Elec       q    Type
                         _______ _______ _______ _____ _____    ______ ____

>  <TORSDO>
F 4

$$$$
