=
 OpenBabel11062409333D

 34 37  0  0  1  0  0  0  0  0999 V2000
  161.2330  210.0370  152.4230 C   0  0  1  0  0  3  0  0  0  0  0  0
  160.6320  213.1480  150.5110 C   0  0  0  0  0  3  0  0  0  0  0  0
  160.0870  212.6010  152.7130 N   0  0  0  0  0  0  0  0  0  0  0  0
  160.2800  209.4570  154.9750 S   0  0  0  0  0  0  0  0  0  0  0  0
  157.7620  210.2240  155.1330 O   0  0  0  0  0  0  0  0  0  0  0  0
  158.9220  210.5880  155.2290 C   0  0  0  0  0  0  0  0  0  0  0  0
  160.2530  211.9070  153.7920 C   0  0  0  0  0  0  0  0  0  0  0  0
  161.0550  210.6370  153.7980 C   0  0  2  0  0  3  0  0  0  0  0  0
  159.3540  212.3060  155.2760 S   0  0  0  0  0  0  0  0  0  0  0  0
  161.0880  213.1390  149.1200 C   0  0  0  0  0  3  0  0  0  0  0  0
  161.5610  212.1460  148.3770 C   0  0  0  0  0  0  0  0  0  0  0  0
  161.7180  210.7560  148.8180 C   0  0  0  0  0  3  0  0  0  0  0  0
  160.6480  212.2110  151.4570 C   0  0  1  0  0  3  0  0  0  0  0  0
  161.5550  210.2170  150.0200 C   0  0  0  0  0  3  0  0  0  0  0  0
  161.1580  210.8150  151.3080 C   0  0  0  0  0  0  0  0  0  0  0  0
  161.9130  212.4630  147.0310 N   0  0  0  0  0  2  0  0  0  0  0  0
  162.5850  213.5980  146.7210 O   0  0  0  0  0  1  0  0  0  0  0  0
  161.6820  208.6710  152.3780 N   0  0  0  0  0  2  0  0  0  0  0  0
  160.8360  207.5300  152.0460 C   0  0  0  0  0  2  0  0  0  0  0  0
  161.3670  204.0950  150.7520 C   0  0  0  0  0  2  0  0  0  0  0  0
  160.4630  205.8610  149.1660 C   0  0  0  0  0  2  0  0  0  0  0  0
  160.6450  204.3550  149.4180 C   0  0  1  0  0  3  0  0  0  0  0  0
  163.0750  206.4760  151.8070 C   0  0  0  0  0  1  0  0  0  0  0  0
  161.5840  206.6670  149.8180 C   0  0  0  0  0  2  0  0  0  0  0  0
  161.6280  206.4310  151.3420 C   0  0  2  0  0  0  0  0  0  0  0  0
  161.0400  205.1350  151.7280 N   0  0  0  0  0  2  0  0  0  0  0  0
  161.3830  203.6650  148.2560 C   0  0  1  0  0  3  0  0  0  0  0  0
  160.6740  202.3690  147.8260 C   0  0  1  0  0  3  0  0  0  0  0  0
  160.7080  202.1330  146.3210 C   0  0  0  0  0  1  0  0  0  0  0  0
  161.1760  201.1800  148.5830 C   0  0  0  0  0  0  0  0  0  0  0  0
  161.8810  200.1900  147.9120 O   0  0  0  0  0  0  0  0  0  0  0  0
  160.9410  201.0530  149.8150 O   0  0  0  0  0  1  0  0  0  0  0  0
  163.0580  204.7290  146.7450 C   0  0  0  0  0  1  0  0  0  0  0  0
  161.5820  204.6090  147.0690 C   0  0  0  0  0  2  0  0  0  0  0  0
  1 18  1  1  0  0  0
  1  8  1  0  0  0  0
  3  7  2  0  0  0  0
  4  6  1  0  0  0  0
  5  6  2  0  0  0  0
  6  9  1  0  0  0  0
  7  9  1  0  0  0  0
  8  7  1  6  0  0  0
  8  4  1  0  0  0  0
 10  2  2  0  0  0  0
 11 12  2  0  0  0  0
 11 10  1  0  0  0  0
 12 14  1  0  0  0  0
 13  2  1  6  0  0  0
 13  3  1  0  0  0  0
 14 15  2  0  0  0  0
 15 13  1  0  0  0  0
 15  1  1  0  0  0  0
 16 11  1  0  0  0  0
 17 16  1  0  0  0  0
 19 18  1  0  0  0  0
 20 26  1  0  0  0  0
 21 22  1  0  0  0  0
 21 24  1  0  0  0  0
 22 27  1  6  0  0  0
 22 20  1  0  0  0  0
 24 25  1  0  0  0  0
 25 26  1  0  0  0  0
 25 23  1  1  0  0  0
 25 19  1  0  0  0  0
 27 34  1  6  0  0  0
 28 29  1  6  0  0  0
 28 27  1  0  0  0  0
 28 30  1  0  0  0  0
 30 32  1  0  0  0  0
 31 30  2  0  0  0  0
 33 34  1  0  0  0  0
M  END
>  <MODEL>
1

>  <REMARK>
 VINA RESULT:      -6.9      0.000      0.000
  Name = 
  8 active torsions:
  status: ('A' for Active; 'I' for Inactive)
    1  A    between atoms: C_1  and  N_9
    2  A    between atoms: N_3  and  C_25
    3  A    between atoms: C_7  and  C_11
    4  A    between atoms: C_7  and  C_14
    5  A    between atoms: C_8  and  N_9
    6  A    between atoms: C_8  and  C_30
    7  A    between atoms: C_14  and  C_16
    8  A    between atoms: C_14  and  C_29
                            x       y       z     vdW  Elec       q    Type
                         _______ _______ _______ _____ _____    ______ ____

>  <TORSDO>
F 8

$$$$
=
 OpenBabel11062409333D

 34 37  0  0  1  0  0  0  0  0999 V2000
  160.7360  210.8520  152.0270 C   0  0  1  0  0  3  0  0  0  0  0  0
  160.6030  213.8980  149.9300 C   0  0  0  0  0  3  0  0  0  0  0  0
  159.6960  213.4770  152.0380 N   0  0  0  0  0  0  0  0  0  0  0  0
  159.3700  210.4320  154.4180 S   0  0  0  0  0  0  0  0  0  0  0  0
  156.9030  211.3220  154.1510 O   0  0  0  0  0  0  0  0  0  0  0  0
  158.0510  211.6350  154.4140 C   0  0  0  0  0  0  0  0  0  0  0  0
  159.6560  212.8250  153.1550 C   0  0  0  0  0  0  0  0  0  0  0  0
  160.3790  211.5210  153.3340 C   0  0  2  0  0  3  0  0  0  0  0  0
  158.5610  213.3320  154.4630 S   0  0  0  0  0  0  0  0  0  0  0  0
  161.2680  213.8060  148.6290 C   0  0  0  0  0  3  0  0  0  0  0  0
  161.7960  212.7590  148.0060 C   0  0  0  0  0  0  0  0  0  0  0  0
  161.8100  211.3850  148.5180 C   0  0  0  0  0  3  0  0  0  0  0  0
  160.4230  213.0050  150.9010 C   0  0  1  0  0  3  0  0  0  0  0  0
  161.4350  210.9090  149.6980 C   0  0  0  0  0  3  0  0  0  0  0  0
  160.8750  211.5820  150.8860 C   0  0  0  0  0  0  0  0  0  0  0  0
  162.3680  212.9990  146.7210 N   0  0  0  0  0  2  0  0  0  0  0  0
  161.6100  213.0150  145.5990 O   0  0  0  0  0  1  0  0  0  0  0  0
  161.1140  209.4660  152.1030 N   0  0  0  0  0  2  0  0  0  0  0  0
  162.3400  208.9080  151.5430 C   0  0  0  0  0  2  0  0  0  0  0  0
  160.3910  206.1820  149.9530 C   0  0  0  0  0  2  0  0  0  0  0  0
  161.9710  207.5450  148.5060 C   0  0  0  0  0  2  0  0  0  0  0  0
  160.7730  206.5820  148.5170 C   0  0  1  0  0  3  0  0  0  0  0  0
  162.6700  206.4980  152.0540 C   0  0  0  0  0  1  0  0  0  0  0  0
  162.8850  207.3000  149.7030 C   0  0  0  0  0  2  0  0  0  0  0  0
  162.1260  207.4850  151.0330 C   0  0  2  0  0  0  0  0  0  0  0  0
  160.6740  207.2740  150.8860 N   0  0  0  0  0  2  0  0  0  0  0  0
  161.0330  205.3330  147.6560 C   0  0  1  0  0  3  0  0  0  0  0  0
  161.8920  205.6660  146.4220 C   0  0  1  0  0  3  0  0  0  0  0  0
  163.1270  204.7820  146.2910 C   0  0  0  0  0  1  0  0  0  0  0  0
  161.0820  205.6740  145.1640 C   0  0  0  0  0  0  0  0  0  0  0  0
  159.7880  206.1750  145.1870 O   0  0  0  0  0  1  0  0  0  0  0  0
  161.5510  205.2050  144.0920 O   0  0  0  0  0  0  0  0  0  0  0  0
  160.8380  202.9300  148.2980 C   0  0  0  0  0  1  0  0  0  0  0  0
  161.6520  204.1970  148.4730 C   0  0  0  0  0  2  0  0  0  0  0  0
  1 18  1  1  0  0  0
  1  8  1  0  0  0  0
  3  7  2  0  0  0  0
  5  6  2  0  0  0  0
  6  4  1  0  0  0  0
  6  9  1  0  0  0  0
  7  9  1  0  0  0  0
  8  7  1  6  0  0  0
  8  4  1  0  0  0  0
 10  2  2  0  0  0  0
 11 12  2  0  0  0  0
 11 10  1  0  0  0  0
 12 14  1  0  0  0  0
 13  2  1  6  0  0  0
 13  3  1  0  0  0  0
 14 15  2  0  0  0  0
 15 13  1  0  0  0  0
 15  1  1  0  0  0  0
 16 11  1  0  0  0  0
 17 16  1  0  0  0  0
 19 18  1  0  0  0  0
 20 26  1  0  0  0  0
 21 22  1  0  0  0  0
 21 24  1  0  0  0  0
 22 27  1  6  0  0  0
 22 20  1  0  0  0  0
 24 25  1  0  0  0  0
 25 19  1  0  0  0  0
 25 23  1  1  0  0  0
 26 25  1  0  0  0  0
 27 34  1  1  0  0  0
 28 29  1  6  0  0  0
 28 27  1  0  0  0  0
 30 31  1  0  0  0  0
 30 28  1  0  0  0  0
 32 30  2  0  0  0  0
 33 34  1  0  0  0  0
M  END
>  <MODEL>
2

>  <REMARK>
 VINA RESULT:      -6.8      2.035      2.593
  Name = 
  8 active torsions:
  status: ('A' for Active; 'I' for Inactive)
    1  A    between atoms: C_1  and  N_9
    2  A    between atoms: N_3  and  C_25
    3  A    between atoms: C_7  and  C_11
    4  A    between atoms: C_7  and  C_14
    5  A    between atoms: C_8  and  N_9
    6  A    between atoms: C_8  and  C_30
    7  A    between atoms: C_14  and  C_16
    8  A    between atoms: C_14  and  C_29
                            x       y       z     vdW  Elec       q    Type
                         _______ _______ _______ _____ _____    ______ ____

>  <TORSDO>
F 8

$$$$
=
 OpenBabel11062409333D

 34 37  0  0  1  0  0  0  0  0999 V2000
  161.4520  210.7250  150.7510 C   0  0  1  0  0  3  0  0  0  0  0  0
  159.3380  213.2690  152.4100 C   0  0  0  0  0  3  0  0  0  0  0  0
  160.2560  213.2360  150.2640 N   0  0  0  0  0  0  0  0  0  0  0  0
  162.6820  210.9680  148.2630 S   0  0  0  0  0  0  0  0  0  0  0  0
  163.7300  213.3790  148.0680 O   0  0  0  0  0  0  0  0  0  0  0  0
  162.7120  212.7210  147.9310 C   0  0  0  0  0  0  0  0  0  0  0  0
  160.7520  212.6150  149.2440 C   0  0  0  0  0  0  0  0  0  0  0  0
  161.2030  211.1860  149.3330 C   0  0  2  0  0  3  0  0  0  0  0  0
  161.1280  213.4930  147.7420 S   0  0  0  0  0  0  0  0  0  0  0  0
  158.9560  212.9770  153.7920 C   0  0  0  0  0  2  0  0  0  0  0  0
  159.3580  212.0110  154.6090 C   0  0  0  0  0  0  0  0  0  0  0  0
  160.3460  210.9780  154.2800 C   0  0  0  0  0  3  0  0  0  0  0  0
  160.1060  212.6130  151.5430 C   0  0  0  0  0  0  0  0  0  0  0  0
  160.9430  210.7030  153.1280 C   0  0  0  0  0  3  0  0  0  0  0  0
  160.8320  211.3330  151.7990 C   0  0  0  0  0  0  0  0  0  0  0  0
  158.7970  212.0060  155.9220 N   0  0  0  0  0  2  0  0  0  0  0  0
  159.0030  210.9750  156.7770 O   0  0  0  0  0  1  0  0  0  0  0  0
  162.2010  209.5060  150.9020 N   0  0  0  0  0  2  0  0  0  0  0  0
  161.8230  208.4050  151.7810 C   0  0  0  0  0  2  0  0  0  0  0  0
  160.5940  205.2970  150.1710 C   0  0  0  0  0  2  0  0  0  0  0  0
  161.2020  207.2700  148.6920 C   0  0  0  0  0  2  0  0  0  0  0  0
  160.4480  205.9330  148.7780 C   0  0  1  0  0  3  0  0  0  0  0  0
  163.0730  206.2550  151.7980 C   0  0  0  0  0  1  0  0  0  0  0  0
  162.4120  207.2810  149.6230 C   0  0  0  0  0  2  0  0  0  0  0  0
  161.9890  207.0540  151.0900 C   0  0  2  0  0  0  0  0  0  0  0  0
  160.7090  206.3310  151.2010 N   0  0  0  0  0  2  0  0  0  0  0  0
  160.8980  204.9510  147.6810 C   0  0  1  0  0  3  0  0  0  0  0  0
  161.6940  205.6640  146.5740 C   0  0  1  0  0  3  0  0  0  0  0  0
  163.0860  205.0800  146.3600 C   0  0  0  0  0  1  0  0  0  0  0  0
  160.9250  205.7410  145.2940 C   0  0  0  0  0  0  0  0  0  0  0  0
  161.5220  205.3270  144.1110 O   0  0  0  0  0  0  0  0  0  0  0  0
  159.7530  206.2050  145.2720 O   0  0  0  0  0  1  0  0  0  0  0  0
  160.9900  202.4690  147.9200 C   0  0  0  0  0  1  0  0  0  0  0  0
  161.6850  203.7730  148.2600 C   0  0  0  0  0  2  0  0  0  0  0  0
  1 18  1  6  0  0  0
  1 15  1  0  0  0  0
  2 10  1  0  0  0  0
  3 13  1  0  0  0  0
  6  5  2  0  0  0  0
  6  4  1  0  0  0  0
  7  8  1  0  0  0  0
  7  3  2  0  0  0  0
  8  4  1  6  0  0  0
  8  1  1  0  0  0  0
  9  6  1  0  0  0  0
  9  7  1  0  0  0  0
 10 11  1  0  0  0  0
 11 16  1  0  0  0  0
 12 11  2  0  0  0  0
 13 15  1  0  0  0  0
 13  2  2  0  0  0  0
 14 12  1  0  0  0  0
 15 14  2  0  0  0  0
 16 17  1  0  0  0  0
 18 19  1  0  0  0  0
 20 26  1  0  0  0  0
 21 22  1  0  0  0  0
 21 24  1  0  0  0  0
 22 27  1  6  0  0  0
 22 20  1  0  0  0  0
 24 25  1  0  0  0  0
 25 26  1  0  0  0  0
 25 19  1  0  0  0  0
 25 23  1  1  0  0  0
 27 34  1  1  0  0  0
 28 29  1  6  0  0  0
 28 27  1  0  0  0  0
 30 28  1  0  0  0  0
 31 30  2  0  0  0  0
 32 30  1  0  0  0  0
 33 34  1  0  0  0  0
M  END
>  <MODEL>
3

>  <REMARK>
 VINA RESULT:      -6.2      2.782      4.978
  Name = 
  8 active torsions:
  status: ('A' for Active; 'I' for Inactive)
    1  A    between atoms: C_1  and  N_9
    2  A    between atoms: N_3  and  C_25
    3  A    between atoms: C_7  and  C_11
    4  A    between atoms: C_7  and  C_14
    5  A    between atoms: C_8  and  N_9
    6  A    between atoms: C_8  and  C_30
    7  A    between atoms: C_14  and  C_16
    8  A    between atoms: C_14  and  C_29
                            x       y       z     vdW  Elec       q    Type
                         _______ _______ _______ _____ _____    ______ ____

>  <TORSDO>
F 8

$$$$
=
 OpenBabel11062409333D

 34 37  0  0  1  0  0  0  0  0999 V2000
  161.0890  210.5810  151.0920 C   0  0  1  0  0  3  0  0  0  0  0  0
  159.3910  213.4370  152.7200 C   0  0  0  0  0  3  0  0  0  0  0  0
  160.2990  213.2430  150.5800 N   0  0  0  0  0  0  0  0  0  0  0  0
  162.3500  210.6070  148.6090 S   0  0  0  0  0  0  0  0  0  0  0  0
  163.7600  212.8250  148.3980 O   0  0  0  0  0  0  0  0  0  0  0  0
  162.6530  212.3320  148.2620 C   0  0  0  0  0  0  0  0  0  0  0  0
  160.6950  212.5430  149.5670 C   0  0  0  0  0  0  0  0  0  0  0  0
  160.9190  211.0620  149.6690 C   0  0  2  0  0  3  0  0  0  0  0  0
  161.2080  213.3380  148.0590 S   0  0  0  0  0  0  0  0  0  0  0  0
  158.9630  213.2200  154.1030 C   0  0  0  0  0  2  0  0  0  0  0  0
  159.2070  212.2110  154.9300 C   0  0  0  0  0  0  0  0  0  0  0  0
  160.0240  211.0340  154.6150 C   0  0  0  0  0  3  0  0  0  0  0  0
  160.0500  212.6620  151.8620 C   0  0  0  0  0  0  0  0  0  0  0  0
  160.5750  210.6590  153.4670 C   0  0  0  0  0  3  0  0  0  0  0  0
  160.5670  211.2870  152.1330 C   0  0  0  0  0  0  0  0  0  0  0  0
  158.6490  212.3050  156.2400 N   0  0  0  0  0  2  0  0  0  0  0  0
  157.4570  211.7370  156.5460 O   0  0  0  0  0  1  0  0  0  0  0  0
  161.6380  209.2620  151.2570 N   0  0  0  0  0  2  0  0  0  0  0  0
  160.8530  208.0320  151.2760 C   0  0  0  0  0  2  0  0  0  0  0  0
  161.3790  204.4610  150.4220 C   0  0  0  0  0  2  0  0  0  0  0  0
  160.5370  206.0300  148.6110 C   0  0  0  0  0  2  0  0  0  0  0  0
  160.6950  204.5640  149.0470 C   0  0  1  0  0  3  0  0  0  0  0  0
  163.0860  206.9400  151.2280 C   0  0  0  0  0  1  0  0  0  0  0  0
  161.6490  206.9000  149.1900 C   0  0  0  0  0  2  0  0  0  0  0  0
  161.6510  206.8500  150.7320 C   0  0  2  0  0  0  0  0  0  0  0  0
  161.0380  205.6150  151.2560 N   0  0  0  0  0  2  0  0  0  0  0  0
  161.4540  203.7330  147.9980 C   0  0  1  0  0  3  0  0  0  0  0  0
  160.7150  202.4230  147.6700 C   0  0  1  0  0  3  0  0  0  0  0  0
  160.7590  202.0590  146.1910 C   0  0  0  0  0  1  0  0  0  0  0  0
  161.1780  201.2910  148.5320 C   0  0  0  0  0  0  0  0  0  0  0  0
  161.0700  201.3930  149.9120 O   0  0  0  0  0  1  0  0  0  0  0  0
  161.6910  200.2590  148.0210 O   0  0  0  0  0  0  0  0  0  0  0  0
  163.2360  204.6220  146.4950 C   0  0  0  0  0  1  0  0  0  0  0  0
  161.7400  204.5410  146.7300 C   0  0  0  0  0  2  0  0  0  0  0  0
  1 18  1  6  0  0  0
  1 15  1  0  0  0  0
  2 10  1  0  0  0  0
  3 13  1  0  0  0  0
  6  5  2  0  0  0  0
  6  4  1  0  0  0  0
  7  8  1  0  0  0  0
  7  3  2  0  0  0  0
  8  4  1  6  0  0  0
  8  1  1  0  0  0  0
  9  6  1  0  0  0  0
  9  7  1  0  0  0  0
 10 11  1  0  0  0  0
 11 16  1  0  0  0  0
 12 11  2  0  0  0  0
 13 15  1  0  0  0  0
 13  2  2  0  0  0  0
 14 12  1  0  0  0  0
 15 14  2  0  0  0  0
 16 17  1  0  0  0  0
 18 19  1  0  0  0  0
 20 26  1  0  0  0  0
 21 22  1  0  0  0  0
 21 24  1  0  0  0  0
 22 27  1  6  0  0  0
 22 20  1  0  0  0  0
 24 25  1  0  0  0  0
 25 23  1  1  0  0  0
 25 26  1  0  0  0  0
 25 19  1  0  0  0  0
 27 34  1  6  0  0  0
 28 29  1  6  0  0  0
 28 27  1  0  0  0  0
 28 30  1  0  0  0  0
 30 31  1  0  0  0  0
 32 30  2  0  0  0  0
 33 34  1  0  0  0  0
M  END
>  <MODEL>
4

>  <REMARK>
 VINA RESULT:      -5.9      2.133      4.449
  Name = 
  8 active torsions:
  status: ('A' for Active; 'I' for Inactive)
    1  A    between atoms: C_1  and  N_9
    2  A    between atoms: N_3  and  C_25
    3  A    between atoms: C_7  and  C_11
    4  A    between atoms: C_7  and  C_14
    5  A    between atoms: C_8  and  N_9
    6  A    between atoms: C_8  and  C_30
    7  A    between atoms: C_14  and  C_16
    8  A    between atoms: C_14  and  C_29
                            x       y       z     vdW  Elec       q    Type
                         _______ _______ _______ _____ _____    ______ ____

>  <TORSDO>
F 8

$$$$
=
 OpenBabel11062409333D

 34 37  0  0  1  0  0  0  0  0999 V2000
  161.3630  205.0210  149.4360 C   0  0  1  0  0  3  0  0  0  0  0  0
  161.2570  203.2530  146.1870 C   0  0  0  0  0  3  0  0  0  0  0  0
  160.9050  202.4550  148.3510 N   0  0  0  0  0  0  0  0  0  0  0  0
  161.1740  203.8530  151.9580 S   0  0  0  0  0  0  0  0  0  0  0  0
  162.6480  201.6680  151.9920 O   0  0  0  0  0  0  0  0  0  0  0  0
  161.5580  202.1290  151.6990 C   0  0  0  0  0  0  0  0  0  0  0  0
  160.6040  202.6280  149.5970 C   0  0  0  0  0  0  0  0  0  0  0  0
  160.5840  203.9920  150.2230 C   0  0  2  0  0  3  0  0  0  0  0  0
  160.4130  201.2330  150.6860 S   0  0  0  0  0  0  0  0  0  0  0  0
  161.5580  204.0680  145.0080 C   0  0  0  0  0  3  0  0  0  0  0  0
  162.0050  205.3140  144.9160 C   0  0  0  0  0  0  0  0  0  0  0  0
  162.3280  206.1860  146.0510 C   0  0  0  0  0  3  0  0  0  0  0  0
  161.2430  203.5430  147.4870 C   0  0  1  0  0  3  0  0  0  0  0  0
  162.1460  205.9980  147.3520 C   0  0  0  0  0  3  0  0  0  0  0  0
  161.5740  204.8630  148.1000 C   0  0  0  0  0  0  0  0  0  0  0  0
  162.2140  205.8260  143.6000 N   0  0  0  0  0  2  0  0  0  0  0  0
  161.2060  205.8950  142.6980 O   0  0  0  0  0  1  0  0  0  0  0  0
  161.6790  206.2440  150.1250 N   0  0  0  0  0  2  0  0  0  0  0  0
  160.6890  207.1860  150.6370 C   0  0  0  0  0  2  0  0  0  0  0  0
  160.5420  209.6000  153.4500 C   0  0  0  0  0  2  0  0  0  0  0  0
  160.8600  207.1370  153.9810 C   0  0  0  0  0  2  0  0  0  0  0  0
  160.4600  208.5150  154.5370 C   0  0  1  0  0  3  0  0  0  0  0  0
  162.4180  208.9240  151.0560 C   0  0  0  0  0  1  0  0  0  0  0  0
  161.8680  207.2750  152.8440 C   0  0  0  0  0  2  0  0  0  0  0  0
  161.2930  208.1160  151.6860 C   0  0  2  0  0  0  0  0  0  0  0  0
  160.2330  209.0390  152.1340 N   0  0  0  0  0  2  0  0  0  0  0  0
  161.3060  208.9060  155.7620 C   0  0  1  0  0  3  0  0  0  0  0  0
  161.6100  210.4150  155.7810 C   0  0  1  0  0  3  0  0  0  0  0  0
  160.6780  211.2060  156.6910 C   0  0  0  0  0  1  0  0  0  0  0  0
  163.0480  210.6900  156.0880 C   0  0  0  0  0  0  0  0  0  0  0  0
  163.9080  211.0580  155.0630 O   0  0  0  0  0  0  0  0  0  0  0  0
  163.4930  210.5630  157.2610 O   0  0  0  0  0  1  0  0  0  0  0  0
  160.4500  206.9520  157.0550 C   0  0  0  0  0  1  0  0  0  0  0  0
  160.6540  208.4540  157.0700 C   0  0  0  0  0  2  0  0  0  0  0  0
  1 18  1  6  0  0  0
  1  8  1  0  0  0  0
  3  7  2  0  0  0  0
  6  4  1  0  0  0  0
  6  5  2  0  0  0  0
  7  9  1  0  0  0  0
  8  7  1  6  0  0  0
  8  4  1  0  0  0  0
  9  6  1  0  0  0  0
 10  2  2  0  0  0  0
 11 10  1  0  0  0  0
 11 12  2  0  0  0  0
 12 14  1  0  0  0  0
 13  2  1  1  0  0  0
 13 15  1  0  0  0  0
 13  3  1  0  0  0  0
 14 15  2  0  0  0  0
 15  1  1  0  0  0  0
 16 11  1  0  0  0  0
 17 16  1  0  0  0  0
 18 19  1  0  0  0  0
 19 25  1  0  0  0  0
 20 22  1  0  0  0  0
 21 22  1  0  0  0  0
 22 27  1  1  0  0  0
 24 21  1  0  0  0  0
 25 23  1  6  0  0  0
 25 26  1  0  0  0  0
 25 24  1  0  0  0  0
 26 20  1  0  0  0  0
 27 28  1  0  0  0  0
 27 34  1  1  0  0  0
 28 30  1  0  0  0  0
 28 29  1  1  0  0  0
 30 32  1  0  0  0  0
 31 30  2  0  0  0  0
 33 34  1  0  0  0  0
M  END
>  <MODEL>
5

>  <REMARK>
 VINA RESULT:      -5.9      3.667      8.693
  Name = 
  8 active torsions:
  status: ('A' for Active; 'I' for Inactive)
    1  A    between atoms: C_1  and  N_9
    2  A    between atoms: N_3  and  C_25
    3  A    between atoms: C_7  and  C_11
    4  A    between atoms: C_7  and  C_14
    5  A    between atoms: C_8  and  N_9
    6  A    between atoms: C_8  and  C_30
    7  A    between atoms: C_14  and  C_16
    8  A    between atoms: C_14  and  C_29
                            x       y       z     vdW  Elec       q    Type
                         _______ _______ _______ _____ _____    ______ ____

>  <TORSDO>
F 8

$$$$
=
 OpenBabel11062409333D

 34 37  0  0  1  0  0  0  0  0999 V2000
  160.6500  204.8580  149.4910 C   0  0  1  0  0  3  0  0  0  0  0  0
  161.3370  203.3350  146.1890 C   0  0  0  0  0  3  0  0  0  0  0  0
  161.2070  202.3570  148.3040 N   0  0  0  0  0  0  0  0  0  0  0  0
  160.7910  203.5780  151.9610 S   0  0  0  0  0  0  0  0  0  0  0  0
  162.9570  202.0770  152.0150 O   0  0  0  0  0  0  0  0  0  0  0  0
  161.7880  202.1260  151.6730 C   0  0  0  0  0  0  0  0  0  0  0  0
  160.8090  202.3470  149.5350 C   0  0  0  0  0  0  0  0  0  0  0  0
  160.2660  203.5790  150.1990 C   0  0  2  0  0  3  0  0  0  0  0  0
  161.0930  200.9260  150.5680 S   0  0  0  0  0  0  0  0  0  0  0  0
  161.3720  204.2610  145.0560 C   0  0  0  0  0  3  0  0  0  0  0  0
  161.3370  205.5870  145.0280 C   0  0  0  0  0  0  0  0  0  0  0  0
  161.2690  206.4590  146.2050 C   0  0  0  0  0  3  0  0  0  0  0  0
  161.1620  203.5350  147.4940 C   0  0  1  0  0  3  0  0  0  0  0  0
  161.1120  206.1540  147.4870 C   0  0  0  0  0  3  0  0  0  0  0  0
  160.9610  204.8540  148.1660 C   0  0  0  0  0  0  0  0  0  0  0  0
  161.4010  206.2040  143.7420 N   0  0  0  0  0  2  0  0  0  0  0  0
  161.5720  205.4760  142.6130 O   0  0  0  0  0  1  0  0  0  0  0  0
  160.4670  206.0760  150.2340 N   0  0  0  0  0  2  0  0  0  0  0  0
  161.2680  207.2830  150.0580 C   0  0  0  0  0  2  0  0  0  0  0  0
  162.5870  209.9080  152.3230 C   0  0  0  0  0  2  0  0  0  0  0  0
  160.0810  209.4980  152.2710 C   0  0  0  0  0  2  0  0  0  0  0  0
  161.2000  210.4740  152.6720 C   0  0  1  0  0  3  0  0  0  0  0  0
  162.7040  206.8080  152.0310 C   0  0  0  0  0  1  0  0  0  0  0  0
  160.5650  208.0520  152.3340 C   0  0  0  0  0  2  0  0  0  0  0  0
  161.7670  207.8240  151.3950 C   0  0  2  0  0  0  0  0  0  0  0  0
  162.5160  209.0660  151.1280 N   0  0  0  0  0  2  0  0  0  0  0  0
  161.1250  210.8510  154.1630 C   0  0  1  0  0  3  0  0  0  0  0  0
  159.6690  210.9260  154.6550 C   0  0  1  0  0  3  0  0  0  0  0  0
  159.3830  210.0070  155.8360 C   0  0  0  0  0  1  0  0  0  0  0  0
  159.2460  212.3340  154.9350 C   0  0  0  0  0  0  0  0  0  0  0  0
  158.0970  212.8340  154.3400 O   0  0  0  0  0  0  0  0  0  0  0  0
  159.9380  213.0780  155.6810 O   0  0  0  0  0  1  0  0  0  0  0  0
  162.8740  210.7030  155.9360 C   0  0  0  0  0  1  0  0  0  0  0  0
  161.9560  209.9040  155.0300 C   0  0  0  0  0  2  0  0  0  0  0  0
  1  8  1  0  0  0  0
  1 18  1  6  0  0  0
  3  7  2  0  0  0  0
  6  4  1  0  0  0  0
  6  5  2  0  0  0  0
  7  9  1  0  0  0  0
  8  7  1  6  0  0  0
  8  4  1  0  0  0  0
  9  6  1  0  0  0  0
 10  2  2  0  0  0  0
 11 10  1  0  0  0  0
 11 12  2  0  0  0  0
 12 14  1  0  0  0  0
 13  2  1  1  0  0  0
 13 15  1  0  0  0  0
 13  3  1  0  0  0  0
 14 15  2  0  0  0  0
 15  1  1  0  0  0  0
 16 11  1  0  0  0  0
 17 16  1  0  0  0  0
 19 18  1  0  0  0  0
 19 25  1  0  0  0  0
 20 22  1  0  0  0  0
 21 24  1  0  0  0  0
 21 22  1  0  0  0  0
 22 27  1  1  0  0  0
 25 23  1  1  0  0  0
 25 24  1  0  0  0  0
 26 25  1  0  0  0  0
 26 20  1  0  0  0  0
 27 28  1  0  0  0  0
 27 34  1  1  0  0  0
 28 30  1  0  0  0  0
 28 29  1  1  0  0  0
 30 32  1  0  0  0  0
 31 30  2  0  0  0  0
 34 33  1  0  0  0  0
M  END
>  <MODEL>
6

>  <REMARK>
 VINA RESULT:      -5.4      3.471      8.756
  Name = 
  8 active torsions:
  status: ('A' for Active; 'I' for Inactive)
    1  A    between atoms: C_1  and  N_9
    2  A    between atoms: N_3  and  C_25
    3  A    between atoms: C_7  and  C_11
    4  A    between atoms: C_7  and  C_14
    5  A    between atoms: C_8  and  N_9
    6  A    between atoms: C_8  and  C_30
    7  A    between atoms: C_14  and  C_16
    8  A    between atoms: C_14  and  C_29
                            x       y       z     vdW  Elec       q    Type
                         _______ _______ _______ _____ _____    ______ ____

>  <TORSDO>
F 8

$$$$
=
 OpenBabel11062409333D

 34 37  0  0  1  0  0  0  0  0999 V2000
  161.6460  208.8940  152.6290 C   0  0  1  0  0  3  0  0  0  0  0  0
  160.8760  212.2100  151.1770 C   0  0  0  0  0  3  0  0  0  0  0  0
  160.5910  211.4120  153.3510 N   0  0  0  0  0  0  0  0  0  0  0  0
  160.9960  208.0240  155.1940 S   0  0  0  0  0  0  0  0  0  0  0  0
  158.5310  208.7780  155.7450 O   0  0  0  0  0  0  0  0  0  0  0  0
  159.7000  209.1230  155.7410 C   0  0  0  0  0  0  0  0  0  0  0  0
  160.8730  210.5960  154.3140 C   0  0  0  0  0  0  0  0  0  0  0  0
  161.6460  209.3310  154.0760 C   0  0  2  0  0  3  0  0  0  0  0  0
  160.1670  210.8220  155.9320 S   0  0  0  0  0  0  0  0  0  0  0  0
  161.1610  212.3630  149.7490 C   0  0  0  0  0  3  0  0  0  0  0  0
  161.5220  211.4620  148.8440 C   0  0  0  0  0  0  0  0  0  0  0  0
  161.7060  210.0290  149.0990 C   0  0  0  0  0  3  0  0  0  0  0  0
  160.9890  211.1690  151.9990 C   0  0  1  0  0  3  0  0  0  0  0  0
  161.6790  209.3540  150.2410 C   0  0  0  0  0  3  0  0  0  0  0  0
  161.4510  209.7980  151.6290 C   0  0  0  0  0  0  0  0  0  0  0  0
  161.7150  211.9330  147.5110 N   0  0  0  0  0  2  0  0  0  0  0  0
  162.6830  212.8310  147.2090 O   0  0  0  0  0  1  0  0  0  0  0  0
  162.0610  207.5410  152.3710 N   0  0  0  0  0  2  0  0  0  0  0  0
  161.2060  206.3690  152.5230 C   0  0  0  0  0  2  0  0  0  0  0  0
  160.4880  203.6540  150.1000 C   0  0  0  0  0  2  0  0  0  0  0  0
  160.9070  205.9950  149.2090 C   0  0  0  0  0  2  0  0  0  0  0  0
  160.3330  204.6020  148.8980 C   0  0  1  0  0  3  0  0  0  0  0  0
  162.7270  204.4440  152.1170 C   0  0  0  0  0  1  0  0  0  0  0  0
  162.0530  205.9070  150.2130 C   0  0  0  0  0  2  0  0  0  0  0  0
  161.5870  205.2670  151.5370 C   0  0  2  0  0  0  0  0  0  0  0  0
  160.4100  204.3970  151.3580 N   0  0  0  0  0  2  0  0  0  0  0  0
  160.9680  203.9900  147.6360 C   0  0  1  0  0  3  0  0  0  0  0  0
  161.6450  205.0640  146.7660 C   0  0  1  0  0  3  0  0  0  0  0  0
  163.0940  204.7370  146.4240 C   0  0  0  0  0  1  0  0  0  0  0  0
  160.8460  205.3750  145.5400 C   0  0  0  0  0  0  0  0  0  0  0  0
  160.5680  204.3650  144.6300 O   0  0  0  0  0  0  0  0  0  0  0  0
  160.4470  206.5480  145.3100 O   0  0  0  0  0  1  0  0  0  0  0  0
  161.3120  201.5190  147.6460 C   0  0  0  0  0  1  0  0  0  0  0  0
  161.9390  202.8590  147.9790 C   0  0  0  0  0  2  0  0  0  0  0  0
  1 18  1  6  0  0  0
  1  8  1  0  0  0  0
  3  7  2  0  0  0  0
  4  6  1  0  0  0  0
  6  5  2  0  0  0  0
  6  9  1  0  0  0  0
  7  9  1  0  0  0  0
  8  7  1  6  0  0  0
  8  4  1  0  0  0  0
 10  2  2  0  0  0  0
 11 12  2  0  0  0  0
 11 10  1  0  0  0  0
 12 14  1  0  0  0  0
 13  2  1  6  0  0  0
 13  3  1  0  0  0  0
 14 15  2  0  0  0  0
 15 13  1  0  0  0  0
 15  1  1  0  0  0  0
 16 11  1  0  0  0  0
 17 16  1  0  0  0  0
 18 19  1  0  0  0  0
 20 26  1  0  0  0  0
 21 24  1  0  0  0  0
 22 27  1  6  0  0  0
 22 21  1  0  0  0  0
 22 20  1  0  0  0  0
 24 25  1  0  0  0  0
 25 23  1  1  0  0  0
 25 19  1  0  0  0  0
 26 25  1  0  0  0  0
 27 34  1  1  0  0  0
 28 29  1  6  0  0  0
 28 27  1  0  0  0  0
 30 28  1  0  0  0  0
 31 30  2  0  0  0  0
 32 30  1  0  0  0  0
 33 34  1  0  0  0  0
M  END
>  <MODEL>
7

>  <REMARK>
 VINA RESULT:      -4.7      1.886      2.363
  Name = 
  8 active torsions:
  status: ('A' for Active; 'I' for Inactive)
    1  A    between atoms: C_1  and  N_9
    2  A    between atoms: N_3  and  C_25
    3  A    between atoms: C_7  and  C_11
    4  A    between atoms: C_7  and  C_14
    5  A    between atoms: C_8  and  N_9
    6  A    between atoms: C_8  and  C_30
    7  A    between atoms: C_14  and  C_16
    8  A    between atoms: C_14  and  C_29
                            x       y       z     vdW  Elec       q    Type
                         _______ _______ _______ _____ _____    ______ ____

>  <TORSDO>
F 8

$$$$
=
 OpenBabel11062409333D

 34 37  0  0  1  0  0  0  0  0999 V2000
  161.0900  211.2160  151.2410 C   0  0  0  0  0  0  0  0  0  0  0  0
  160.5430  214.3710  149.3850 C   0  0  0  0  0  3  0  0  0  0  0  0
  159.7530  213.6930  151.4730 N   0  0  0  0  0  0  0  0  0  0  0  0
  159.8510  210.4650  153.6200 S   0  0  0  0  0  0  0  0  0  0  0  0
  157.2910  211.0740  153.4710 O   0  0  0  0  0  0  0  0  0  0  0  0
  158.4020  211.5010  153.7350 C   0  0  0  0  0  0  0  0  0  0  0  0
  159.8210  212.9610  152.5380 C   0  0  0  0  0  0  0  0  0  0  0  0
  160.6960  211.7420  152.6020 C   0  0  2  0  0  3  0  0  0  0  0  0
  158.7130  213.2380  153.9030 S   0  0  0  0  0  0  0  0  0  0  0  0
  161.1760  214.4530  148.0680 C   0  0  0  0  0  3  0  0  0  0  0  0
  161.8050  213.5250  147.3570 C   0  0  0  0  0  0  0  0  0  0  0  0
  161.9920  212.1280  147.7620 C   0  0  0  0  0  3  0  0  0  0  0  0
  160.4960  213.3940  150.2890 C   0  0  1  0  0  3  0  0  0  0  0  0
  161.7090  211.5260  148.9100 C   0  0  0  0  0  3  0  0  0  0  0  0
  161.1100  212.0390  150.1570 C   0  0  0  0  0  0  0  0  0  0  0  0
  162.3080  213.9240  146.0820 N   0  0  0  0  0  2  0  0  0  0  0  0
  162.7860  213.0200  145.1940 O   0  0  0  0  0  1  0  0  0  0  0  0
  161.6280  209.8830  151.2040 N   0  0  0  0  0  0  0  0  0  0  0  0
  161.9050  209.0680  152.3820 C   0  0  0  0  0  2  0  0  0  0  0  0
  160.2770  206.2900  150.5410 C   0  0  0  0  0  2  0  0  0  0  0  0
  162.7530  206.7090  150.1610 C   0  0  0  0  0  2  0  0  0  0  0  0
  161.4820  206.0320  149.6200 C   0  0  1  0  0  3  0  0  0  0  0  0
  161.0030  207.0270  153.4800 C   0  0  0  0  0  1  0  0  0  0  0  0
  162.7190  206.8050  151.6840 C   0  0  0  0  0  2  0  0  0  0  0  0
  161.4960  207.6130  152.1650 C   0  0  2  0  0  0  0  0  0  0  0  0
  160.3910  207.5980  151.1890 N   0  0  0  0  0  2  0  0  0  0  0  0
  161.6860  204.5220  149.4000 C   0  0  1  0  0  3  0  0  0  0  0  0
  160.6750  203.6910  150.2090 C   0  0  1  0  0  3  0  0  0  0  0  0
  160.1480  202.4780  149.4510 C   0  0  0  0  0  1  0  0  0  0  0  0
  161.2120  203.3120  151.5530 C   0  0  0  0  0  0  0  0  0  0  0  0
  162.0990  202.2500  151.6600 O   0  0  0  0  0  0  0  0  0  0  0  0
  160.8450  203.9250  152.5910 O   0  0  0  0  0  1  0  0  0  0  0  0
  161.3070  205.3770  147.0880 C   0  0  0  0  0  1  0  0  0  0  0  0
  161.6480  204.1540  147.9160 C   0  0  0  0  0  2  0  0  0  0  0  0
  3  7  2  0  0  0  0
  4  6  1  0  0  0  0
  5  6  2  0  0  0  0
  6  9  1  0  0  0  0
  7  8  1  0  0  0  0
  7  9  1  0  0  0  0
  8  1  1  6  0  0  0
  8  4  1  0  0  0  0
 10  2  2  0  0  0  0
 11 12  2  0  0  0  0
 11 10  1  0  0  0  0
 12 14  1  0  0  0  0
 13  2  1  6  0  0  0
 13  3  1  0  0  0  0
 14 15  2  0  0  0  0
 15 13  1  0  0  0  0
 15  1  1  0  0  0  0
 16 11  1  0  0  0  0
 17 16  1  0  0  0  0
 18  1  2  0  0  0  0
 18 19  1  0  0  0  0
 20 26  1  0  0  0  0
 21 24  1  0  0  0  0
 22 27  1  1  0  0  0
 22 21  1  0  0  0  0
 22 20  1  0  0  0  0
 24 25  1  0  0  0  0
 25 19  1  0  0  0  0
 25 23  1  1  0  0  0
 26 25  1  0  0  0  0
 27 34  1  6  0  0  0
 27 28  1  0  0  0  0
 28 29  1  6  0  0  0
 28 30  1  0  0  0  0
 30 31  2  0  0  0  0
 30 32  1  0  0  0  0
 33 34  1  0  0  0  0
M  END
>  <MODEL>
8

>  <REMARK>
 VINA RESULT:      -4.6      1.659      2.215
  Name = 
  8 active torsions:
  status: ('A' for Active; 'I' for Inactive)
    1  A    between atoms: C_1  and  N_9
    2  A    between atoms: N_3  and  C_25
    3  A    between atoms: C_7  and  C_11
    4  A    between atoms: C_7  and  C_14
    5  A    between atoms: C_8  and  N_9
    6  A    between atoms: C_8  and  C_30
    7  A    between atoms: C_14  and  C_16
    8  A    between atoms: C_14  and  C_29
                            x       y       z     vdW  Elec       q    Type
                         _______ _______ _______ _____ _____    ______ ____

>  <TORSDO>
F 8

$$$$
=
 OpenBabel11062409333D

 34 37  0  0  1  0  0  0  0  0999 V2000
  160.8840  209.9360  153.4080 C   0  0  1  0  0  3  0  0  0  0  0  0
  158.2970  212.4860  154.1170 C   0  0  0  0  0  3  0  0  0  0  0  0
  159.1330  210.7710  155.4600 N   0  0  0  0  0  0  0  0  0  0  0  0
  161.5770  207.7890  155.0420 S   0  0  0  0  0  0  0  0  0  0  0  0
  159.3720  206.7000  155.9900 O   0  0  0  0  0  0  0  0  0  0  0  0
  160.1930  207.5860  156.1510 C   0  0  0  0  0  0  0  0  0  0  0  0
  160.0480  209.9150  155.7820 C   0  0  0  0  0  0  0  0  0  0  0  0
  161.1710  209.5720  154.8460 C   0  0  2  0  0  3  0  0  0  0  0  0
  159.8950  208.9360  157.2610 S   0  0  0  0  0  0  0  0  0  0  0  0
  157.9940  213.4080  153.0210 C   0  0  0  0  0  3  0  0  0  0  0  0
  158.3930  213.3980  151.7550 C   0  0  0  0  0  0  0  0  0  0  0  0
  159.2620  212.3860  151.1460 C   0  0  0  0  0  3  0  0  0  0  0  0
  159.1230  211.4450  154.1990 C   0  0  1  0  0  3  0  0  0  0  0  0
  159.9170  211.3750  151.7040 C   0  0  0  0  0  3  0  0  0  0  0  0
  159.9910  210.9180  153.1040 C   0  0  0  0  0  0  0  0  0  0  0  0
  157.9030  214.4470  150.9200 N   0  0  0  0  0  2  0  0  0  0  0  0
  156.7200  214.3420  150.2690 O   0  0  0  0  0  1  0  0  0  0  0  0
  161.7420  209.3430  152.4170 N   0  0  0  0  0  2  0  0  0  0  0  0
  161.2980  208.8780  151.1070 C   0  0  0  0  0  2  0  0  0  0  0  0
  160.6260  205.4100  149.9770 C   0  0  0  0  0  2  0  0  0  0  0  0
  161.8320  206.9880  148.3950 C   0  0  0  0  0  2  0  0  0  0  0  0
  161.0420  205.6750  148.5200 C   0  0  1  0  0  3  0  0  0  0  0  0
  162.3520  206.8680  152.1220 C   0  0  0  0  0  1  0  0  0  0  0  0
  162.6030  207.2910  149.6770 C   0  0  0  0  0  2  0  0  0  0  0  0
  161.6510  207.4100  150.8860 C   0  0  2  0  0  0  0  0  0  0  0  0
  160.3920  206.6700  150.6850 N   0  0  0  0  0  2  0  0  0  0  0  0
  161.8260  204.4780  147.9510 C   0  0  1  0  0  3  0  0  0  0  0  0
  160.8880  203.3270  147.5480 C   0  0  1  0  0  3  0  0  0  0  0  0
  161.1620  202.7870  146.1500 C   0  0  0  0  0  1  0  0  0  0  0  0
  160.8740  202.2340  148.5700 C   0  0  0  0  0  0  0  0  0  0  0  0
  161.8520  201.2490  148.5310 O   0  0  0  0  0  0  0  0  0  0  0  0
  159.9690  202.1810  149.4460 O   0  0  0  0  0  1  0  0  0  0  0  0
  161.8910  205.4550  145.6570 C   0  0  0  0  0  1  0  0  0  0  0  0
  162.7300  204.8910  146.7880 C   0  0  0  0  0  2  0  0  0  0  0  0
  1 18  1  1  0  0  0
  1  8  1  0  0  0  0
  3  7  2  0  0  0  0
  4  6  1  0  0  0  0
  5  6  2  0  0  0  0
  6  9  1  0  0  0  0
  7  9  1  0  0  0  0
  8  4  1  6  0  0  0
  8  7  1  0  0  0  0
 10  2  2  0  0  0  0
 11 10  1  0  0  0  0
 12 14  1  0  0  0  0
 12 11  2  0  0  0  0
 13  2  1  6  0  0  0
 13  3  1  0  0  0  0
 14 15  2  0  0  0  0
 15  1  1  0  0  0  0
 15 13  1  0  0  0  0
 16 11  1  0  0  0  0
 17 16  1  0  0  0  0
 19 18  1  0  0  0  0
 20 26  1  0  0  0  0
 21 22  1  0  0  0  0
 21 24  1  0  0  0  0
 22 27  1  1  0  0  0
 22 20  1  0  0  0  0
 24 25  1  0  0  0  0
 25 19  1  0  0  0  0
 25 23  1  1  0  0  0
 26 25  1  0  0  0  0
 27 34  1  6  0  0  0
 28 29  1  6  0  0  0
 28 27  1  0  0  0  0
 28 30  1  0  0  0  0
 30 32  1  0  0  0  0
 31 30  2  0  0  0  0
 33 34  1  0  0  0  0
M  END
>  <MODEL>
9

>  <REMARK>
 VINA RESULT:      -4.6      2.408      2.911
  Name = 
  8 active torsions:
  status: ('A' for Active; 'I' for Inactive)
    1  A    between atoms: C_1  and  N_9
    2  A    between atoms: N_3  and  C_25
    3  A    between atoms: C_7  and  C_11
    4  A    between atoms: C_7  and  C_14
    5  A    between atoms: C_8  and  N_9
    6  A    between atoms: C_8  and  C_30
    7  A    between atoms: C_14  and  C_16
    8  A    between atoms: C_14  and  C_29
                            x       y       z     vdW  Elec       q    Type
                         _______ _______ _______ _____ _____    ______ ____

>  <TORSDO>
F 8

$$$$
