=
 OpenBabel11062407513D

 34 39  0  0  1  0  0  0  0  0999 V2000
  161.9280  208.6740  148.8010 C   0  0  0  0  0  0  0  0  0  0  0  0
  162.0730  209.9570  150.9730 C   0  0  0  0  0  3  0  0  0  0  0  0
  161.5430  207.4610  150.8920 C   0  0  0  0  0  0  0  0  0  0  0  0
  161.2910  206.1470  152.9800 C   0  0  0  0  0  0  0  0  0  0  0  0
  162.2650  211.0550  148.7700 C   0  0  0  0  0  3  0  0  0  0  0  0
  162.2160  211.1660  150.0950 C   0  0  0  0  0  3  0  0  0  0  0  0
  161.2330  208.4360  153.3280 C   0  0  1  0  0  3  0  0  0  0  0  0
  161.8110  208.6770  150.2110 C   0  0  0  0  0  0  0  0  0  0  0  0
  161.2030  206.2470  154.3830 N   0  0  0  0  0  2  0  0  0  0  0  0
  162.1440  209.7740  148.1410 N   0  0  0  0  0  0  0  0  0  0  0  0
  161.4490  206.2420  150.1590 C   0  0  0  0  0  0  0  0  0  0  0  0
  161.8100  207.4810  148.0940 C   0  0  0  0  0  3  0  0  0  0  0  0
  159.8970  209.1420  153.1100 C   0  0  0  0  0  1  0  0  0  0  0  0
  161.2180  205.0120  152.2970 C   0  0  0  0  0  3  0  0  0  0  0  0
  161.2710  205.0500  150.8110 C   0  0  0  0  0  0  0  0  0  0  0  0
  161.3110  207.6720  154.6860 C   0  0  2  0  0  3  0  0  0  0  0  0
  161.3950  207.3880  152.3270 N   0  0  0  0  0  0  0  0  0  0  0  0
  161.5840  206.2840  148.7630 C   0  0  0  0  0  2  0  0  0  0  0  0
  161.0690  202.4320  148.0610 C   0  0  0  0  0  0  0  0  0  0  0  0
  160.8320  201.2750  148.8070 C   0  0  0  0  0  3  0  0  0  0  0  0
  161.1470  203.7460  150.1080 C   0  0  0  0  0  0  0  0  0  0  0  0
  160.7440  201.3480  150.1990 C   0  0  0  0  0  3  0  0  0  0  0  0
  161.2200  203.6620  148.7070 C   0  0  0  0  0  3  0  0  0  0  0  0
  160.8960  202.5790  150.8450 C   0  0  0  0  0  3  0  0  0  0  0  0
  161.1480  202.3630  146.7100 F   0  0  0  0  0  0  0  0  0  0  0  0
  160.3380  208.0980  155.7880 C   0  0  0  0  0  2  0  0  0  0  0  0
  161.0420  208.3710  157.0340 N   0  0  0  0  0  2  0  0  0  0  0  0
  162.4400  210.1810  156.6130 O   0  0  0  0  0  1  0  0  0  0  0  0
  161.1950  209.8140  157.1310 C   0  0  1  0  0  3  0  0  0  0  0  0
  160.0850  210.5100  156.3520 C   0  0  1  0  0  3  0  0  0  0  0  0
  159.7480  213.2170  155.9300 S   0  0  0  0  0  0  0  0  0  0  0  0
  158.0260  212.0670  156.3380 S   0  0  0  0  0  0  0  0  0  0  0  0
  159.0340  210.9570  157.2600 N   0  0  0  0  0  2  0  0  0  0  0  0
  160.6490  211.6870  155.5500 C   0  0  0  0  0  2  0  0  0  0  0  0
  1  8  1  0  0  0  0
  3 17  1  0  0  0  0
  4  9  1  0  0  0  0
  5  6  1  0  0  0  0
  6  2  2  0  0  0  0
  7 13  1  6  0  0  0
  7 16  1  0  0  0  0
  8  3  2  0  0  0  0
  8  2  1  0  0  0  0
  9 16  1  0  0  0  0
 10  5  2  0  0  0  0
 10  1  1  0  0  0  0
 11 15  2  0  0  0  0
 11  3  1  0  0  0  0
 12 18  1  0  0  0  0
 12  1  2  0  0  0  0
 14  4  2  0  0  0  0
 15 14  1  0  0  0  0
 16 26  1  1  0  0  0
 17  4  1  0  0  0  0
 17  7  1  0  0  0  0
 18 11  1  0  0  0  0
 19 23  2  0  0  0  0
 19 20  1  0  0  0  0
 20 22  2  0  0  0  0
 21 15  1  0  0  0  0
 21 24  2  0  0  0  0
 22 24  1  0  0  0  0
 23 21  1  0  0  0  0
 25 19  1  0  0  0  0
 26 27  1  0  0  0  0
 27 29  1  0  0  0  0
 29 28  1  6  0  0  0
 30 29  1  1  0  0  0
 30 33  1  0  0  0  0
 31 32  1  0  0  0  0
 32 33  1  0  0  0  0
 34 31  1  0  0  0  0
 34 30  1  0  0  0  0
M  END
>  <MODEL>
1

>  <REMARK>
 VINA RESULT:      -9.9      0.000      0.000
  Name = 
  5 active torsions:
  status: ('A' for Active; 'I' for Inactive)
    1  A    between atoms: N_3  and  C_13
    2  A    between atoms: N_3  and  C_17
    3  A    between atoms: C_12  and  C_28
    4  A    between atoms: C_13  and  C_14
    5  A    between atoms: C_17  and  C_29
                            x       y       z     vdW  Elec       q    Type
                         _______ _______ _______ _____ _____    ______ ____

>  <TORSDO>
F 5

$$$$
=
 OpenBabel11062407513D

 34 39  0  0  1  0  0  0  0  0999 V2000
  160.8750  206.6910  153.9290 C   0  0  0  0  0  0  0  0  0  0  0  0
  160.9600  209.1670  153.4350 C   0  0  0  0  0  2  0  0  0  0  0  0
  161.2250  207.3990  151.6130 C   0  0  0  0  0  0  0  0  0  0  0  0
  161.4310  208.0500  149.2290 C   0  0  0  0  0  0  0  0  0  0  0  0
  160.7860  208.2800  155.7320 C   0  0  0  0  0  3  0  0  0  0  0  0
  160.9050  209.3320  154.9260 C   0  0  0  0  0  3  0  0  0  0  0  0
  161.7420  209.8210  150.6910 C   0  0  1  0  0  3  0  0  0  0  0  0
  161.0540  207.7270  152.9830 C   0  0  0  0  0  0  0  0  0  0  0  0
  161.5920  209.1500  148.3600 N   0  0  0  0  0  2  0  0  0  0  0  0
  160.7450  206.9520  155.1970 N   0  0  0  0  0  0  0  0  0  0  0  0
  161.1600  206.0380  151.1950 C   0  0  0  0  0  0  0  0  0  0  0  0
  160.8370  205.3640  153.5130 C   0  0  0  0  0  3  0  0  0  0  0  0
  163.1330  209.9900  151.2970 C   0  0  0  0  0  1  0  0  0  0  0  0
  161.3560  206.7840  148.8410 C   0  0  0  0  0  3  0  0  0  0  0  0
  161.2420  205.7130  149.8670 C   0  0  0  0  0  0  0  0  0  0  0  0
  161.6460  210.3300  149.2190 C   0  0  2  0  0  3  0  0  0  0  0  0
  161.4270  208.4000  150.5910 N   0  0  0  0  0  0  0  0  0  0  0  0
  160.9680  205.0430  152.1660 C   0  0  0  0  0  3  0  0  0  0  0  0
  161.2750  202.7100  147.5360 C   0  0  0  0  0  0  0  0  0  0  0  0
  161.0380  201.6670  148.4350 C   0  0  0  0  0  3  0  0  0  0  0  0
  161.1990  204.3150  149.3630 C   0  0  0  0  0  0  0  0  0  0  0  0
  160.8740  201.9420  149.7940 C   0  0  0  0  0  3  0  0  0  0  0  0
  161.3490  204.0260  147.9960 C   0  0  0  0  0  3  0  0  0  0  0  0
  160.9490  203.2600  150.2550 C   0  0  0  0  0  3  0  0  0  0  0  0
  161.4280  202.4440  146.2160 F   0  0  0  0  0  0  0  0  0  0  0  0
  162.7050  211.3300  148.7520 C   0  0  0  0  0  2  0  0  0  0  0  0
  162.1700  212.2270  147.7360 N   0  0  0  0  0  2  0  0  0  0  0  0
  161.5600  214.0740  149.0090 O   0  0  0  0  0  1  0  0  0  0  0  0
  161.0640  212.9500  148.3440 C   0  0  1  0  0  3  0  0  0  0  0  0
  160.0690  213.3790  147.2720 C   0  0  1  0  0  3  0  0  0  0  0  0
  157.4460  212.5750  146.9730 S   0  0  0  0  0  0  0  0  0  0  0  0
  158.6150  212.7730  145.2270 S   0  0  0  0  0  0  0  0  0  0  0  0
  160.0420  212.4020  146.1890 N   0  0  0  0  0  2  0  0  0  0  0  0
  158.6740  213.5610  147.8770 C   0  0  0  0  0  2  0  0  0  0  0  0
  1 10  2  0  0  0  0
  2  6  1  0  0  0  0
  3  8  2  0  0  0  0
  4 17  1  0  0  0  0
  6  5  2  0  0  0  0
  7 13  1  6  0  0  0
  8  2  1  0  0  0  0
  8  1  1  0  0  0  0
  9 16  1  0  0  0  0
  9  4  1  0  0  0  0
 10  5  1  0  0  0  0
 11  3  1  0  0  0  0
 11 18  1  0  0  0  0
 12  1  1  0  0  0  0
 14  4  2  0  0  0  0
 14 15  1  0  0  0  0
 15 11  2  0  0  0  0
 16 26  1  6  0  0  0
 16  7  1  0  0  0  0
 17  7  1  0  0  0  0
 17  3  1  0  0  0  0
 18 12  2  0  0  0  0
 19 23  2  0  0  0  0
 19 20  1  0  0  0  0
 20 22  2  0  0  0  0
 21 15  1  0  0  0  0
 21 24  2  0  0  0  0
 22 24  1  0  0  0  0
 23 21  1  0  0  0  0
 25 19  1  0  0  0  0
 27 29  1  0  0  0  0
 27 26  1  0  0  0  0
 29 28  1  6  0  0  0
 30 34  1  0  0  0  0
 30 29  1  1  0  0  0
 31 34  1  0  0  0  0
 32 33  1  0  0  0  0
 32 31  1  0  0  0  0
 33 30  1  0  0  0  0
M  END
>  <MODEL>
2

>  <REMARK>
 VINA RESULT:      -9.6      3.241      5.977
  Name = 
  5 active torsions:
  status: ('A' for Active; 'I' for Inactive)
    1  A    between atoms: N_3  and  C_13
    2  A    between atoms: N_3  and  C_17
    3  A    between atoms: C_12  and  C_28
    4  A    between atoms: C_13  and  C_14
    5  A    between atoms: C_17  and  C_29
                            x       y       z     vdW  Elec       q    Type
                         _______ _______ _______ _____ _____    ______ ____

>  <TORSDO>
F 5

$$$$
=
 OpenBabel11062407513D

 34 39  0  0  1  0  0  0  0  0999 V2000
  161.5010  205.8040  148.3160 C   0  0  0  0  0  0  0  0  0  0  0  0
  160.8130  204.9820  150.6030 C   0  0  0  0  0  3  0  0  0  0  0  0
  161.3830  207.4280  150.1430 C   0  0  0  0  0  0  0  0  0  0  0  0
  161.1370  209.1450  151.9150 C   0  0  0  0  0  0  0  0  0  0  0  0
  161.1490  203.4550  148.6920 C   0  0  0  0  0  3  0  0  0  0  0  0
  160.8710  203.6160  149.9840 C   0  0  0  0  0  3  0  0  0  0  0  0
  161.0750  206.9770  152.7290 C   0  0  1  0  0  3  0  0  0  0  0  0
  161.2710  206.0900  149.6820 C   0  0  0  0  0  0  0  0  0  0  0  0
  160.8790  209.3330  153.2890 N   0  0  0  0  0  2  0  0  0  0  0  0
  161.4380  204.5860  147.8620 N   0  0  0  0  0  0  0  0  0  0  0  0
  161.6710  208.4750  149.2210 C   0  0  0  0  0  0  0  0  0  0  0  0
  161.8060  206.8320  147.4290 C   0  0  0  0  0  3  0  0  0  0  0  0
  162.4150  206.2910  152.9890 C   0  0  0  0  0  1  0  0  0  0  0  0
  161.3910  210.1200  151.0530 C   0  0  0  0  0  3  0  0  0  0  0  0
  161.7010  209.7800  149.6380 C   0  0  0  0  0  0  0  0  0  0  0  0
  160.6800  207.9960  153.8420 C   0  0  2  0  0  3  0  0  0  0  0  0
  161.1770  207.7940  151.5260 N   0  0  0  0  0  0  0  0  0  0  0  0
  161.8800  208.1480  147.8730 C   0  0  0  0  0  2  0  0  0  0  0  0
  161.3360  212.5490  147.0590 C   0  0  0  0  0  0  0  0  0  0  0  0
  162.6490  213.0220  146.9820 C   0  0  0  0  0  3  0  0  0  0  0  0
  162.0120  210.9190  148.7350 C   0  0  0  0  0  0  0  0  0  0  0  0
  163.6450  212.4440  147.7720 C   0  0  0  0  0  3  0  0  0  0  0  0
  161.0210  211.5000  147.9250 C   0  0  0  0  0  3  0  0  0  0  0  0
  163.3290  211.3940  148.6400 C   0  0  0  0  0  3  0  0  0  0  0  0
  160.3700  213.1050  146.2880 F   0  0  0  0  0  0  0  0  0  0  0  0
  161.3490  207.8370  155.2090 C   0  0  0  0  0  2  0  0  0  0  0  0
  160.4580  208.2570  156.2820 N   0  0  0  0  0  2  0  0  0  0  0  0
  162.4240  209.4820  156.4870 O   0  0  0  0  0  1  0  0  0  0  0  0
  161.1690  209.2590  157.0610 C   0  0  1  0  0  3  0  0  0  0  0  0
  160.3730  210.5590  157.0890 C   0  0  1  0  0  3  0  0  0  0  0  0
  158.6440  211.5310  155.1690 S   0  0  0  0  0  0  0  0  0  0  0  0
  159.9320  212.9090  156.1170 S   0  0  0  0  0  0  0  0  0  0  0  0
  161.0860  211.6030  156.3600 N   0  0  0  0  0  2  0  0  0  0  0  0
  158.9740  210.3440  156.5040 C   0  0  0  0  0  2  0  0  0  0  0  0
  1  8  1  0  0  0  0
  3 17  1  0  0  0  0
  4  9  1  0  0  0  0
  5  6  1  0  0  0  0
  6  2  2  0  0  0  0
  7 13  1  1  0  0  0
  7 16  1  0  0  0  0
  8  3  2  0  0  0  0
  8  2  1  0  0  0  0
  9 16  1  0  0  0  0
 10  1  1  0  0  0  0
 10  5  2  0  0  0  0
 11 15  2  0  0  0  0
 11  3  1  0  0  0  0
 12 18  1  0  0  0  0
 12  1  2  0  0  0  0
 14  4  2  0  0  0  0
 15 14  1  0  0  0  0
 16 26  1  1  0  0  0
 17  4  1  0  0  0  0
 17  7  1  0  0  0  0
 18 11  1  0  0  0  0
 19 23  1  0  0  0  0
 20 19  2  0  0  0  0
 20 22  1  0  0  0  0
 21 15  1  0  0  0  0
 22 24  2  0  0  0  0
 23 21  2  0  0  0  0
 24 21  1  0  0  0  0
 25 19  1  0  0  0  0
 26 27  1  0  0  0  0
 27 29  1  0  0  0  0
 29 28  1  6  0  0  0
 30 29  1  6  0  0  0
 31 32  1  0  0  0  0
 31 34  1  0  0  0  0
 32 33  1  0  0  0  0
 33 30  1  0  0  0  0
 34 30  1  0  0  0  0
M  END
>  <MODEL>
3

>  <REMARK>
 VINA RESULT:      -8.4      2.387      5.480
  Name = 
  5 active torsions:
  status: ('A' for Active; 'I' for Inactive)
    1  A    between atoms: N_3  and  C_13
    2  A    between atoms: N_3  and  C_17
    3  A    between atoms: C_12  and  C_28
    4  A    between atoms: C_13  and  C_14
    5  A    between atoms: C_17  and  C_29
                            x       y       z     vdW  Elec       q    Type
                         _______ _______ _______ _____ _____    ______ ____

>  <TORSDO>
F 5

$$$$
=
 OpenBabel11062407513D

 34 39  0  0  1  0  0  0  0  0999 V2000
  161.7880  209.1240  148.7210 C   0  0  0  0  0  0  0  0  0  0  0  0
  161.9130  210.4010  150.8970 C   0  0  0  0  0  3  0  0  0  0  0  0
  161.4040  207.9010  150.8060 C   0  0  0  0  0  0  0  0  0  0  0  0
  161.1550  206.5780  152.8890 C   0  0  0  0  0  0  0  0  0  0  0  0
  162.1040  211.5080  148.6980 C   0  0  0  0  0  3  0  0  0  0  0  0
  162.0490  211.6140  150.0230 C   0  0  0  0  0  3  0  0  0  0  0  0
  161.0760  208.8660  153.2440 C   0  0  1  0  0  3  0  0  0  0  0  0
  161.6650  209.1210  150.1300 C   0  0  0  0  0  0  0  0  0  0  0  0
  161.0600  206.6740  154.2920 N   0  0  0  0  0  2  0  0  0  0  0  0
  161.9960  210.2280  148.0650 N   0  0  0  0  0  0  0  0  0  0  0  0
  161.3230  206.6840  150.0690 C   0  0  0  0  0  0  0  0  0  0  0  0
  161.6820  207.9330  148.0090 C   0  0  0  0  0  3  0  0  0  0  0  0
  159.7350  209.5610  153.0230 C   0  0  0  0  0  1  0  0  0  0  0  0
  161.0930  205.4450  152.2020 C   0  0  0  0  0  3  0  0  0  0  0  0
  161.1520  205.4890  150.7160 C   0  0  0  0  0  0  0  0  0  0  0  0
  161.1540  208.0990  154.6000 C   0  0  2  0  0  3  0  0  0  0  0  0
  161.2510  207.8220  152.2410 N   0  0  0  0  0  0  0  0  0  0  0  0
  161.4630  206.7310  148.6740 C   0  0  0  0  0  2  0  0  0  0  0  0
  160.7860  201.7660  150.0390 C   0  0  0  0  0  0  0  0  0  0  0  0
  160.9120  201.7300  148.6480 C   0  0  0  0  0  3  0  0  0  0  0  0
  161.0420  204.1860  150.0090 C   0  0  0  0  0  0  0  0  0  0  0  0
  161.1100  202.9150  147.9360 C   0  0  0  0  0  3  0  0  0  0  0  0
  160.8560  202.9850  150.7170 C   0  0  0  0  0  3  0  0  0  0  0  0
  161.1790  204.1360  148.6140 C   0  0  0  0  0  3  0  0  0  0  0  0
  160.6010  200.6160  150.7320 F   0  0  0  0  0  0  0  0  0  0  0  0
  160.1740  208.5130  155.7000 C   0  0  0  0  0  2  0  0  0  0  0  0
  159.5920  209.8190  155.4210 N   0  0  0  0  0  2  0  0  0  0  0  0
  160.8300  210.7400  157.1600 O   0  0  0  0  0  1  0  0  0  0  0  0
  159.5320  210.5390  156.6830 C   0  0  1  0  0  3  0  0  0  0  0  0
  158.8380  211.8820  156.4850 C   0  0  1  0  0  3  0  0  0  0  0  0
  156.1420  212.3640  156.1430 S   0  0  0  0  0  0  0  0  0  0  0  0
  157.4950  213.4800  154.9680 S   0  0  0  0  0  0  0  0  0  0  0  0
  158.6260  212.1360  155.0640 N   0  0  0  0  0  2  0  0  0  0  0  0
  157.5110  211.9180  157.2490 C   0  0  0  0  0  2  0  0  0  0  0  0
  1  8  1  0  0  0  0
  3 17  1  0  0  0  0
  4  9  1  0  0  0  0
  5  6  1  0  0  0  0
  6  2  2  0  0  0  0
  7 13  1  6  0  0  0
  7 16  1  0  0  0  0
  8  3  2  0  0  0  0
  8  2  1  0  0  0  0
  9 16  1  0  0  0  0
 10  5  2  0  0  0  0
 10  1  1  0  0  0  0
 11 15  2  0  0  0  0
 11  3  1  0  0  0  0
 12 18  1  0  0  0  0
 12  1  2  0  0  0  0
 14  4  2  0  0  0  0
 15 14  1  0  0  0  0
 16 26  1  1  0  0  0
 17  4  1  0  0  0  0
 17  7  1  0  0  0  0
 18 11  1  0  0  0  0
 19 23  1  0  0  0  0
 19 25  1  0  0  0  0
 20 19  2  0  0  0  0
 21 15  1  0  0  0  0
 21 23  2  0  0  0  0
 22 24  2  0  0  0  0
 22 20  1  0  0  0  0
 24 21  1  0  0  0  0
 27 26  1  0  0  0  0
 27 29  1  0  0  0  0
 29 28  1  6  0  0  0
 30 29  1  6  0  0  0
 30 34  1  0  0  0  0
 31 34  1  0  0  0  0
 32 33  1  0  0  0  0
 32 31  1  0  0  0  0
 33 30  1  0  0  0  0
M  END
>  <MODEL>
4

>  <REMARK>
 VINA RESULT:      -8.0      1.337      1.736
  Name = 
  5 active torsions:
  status: ('A' for Active; 'I' for Inactive)
    1  A    between atoms: N_3  and  C_13
    2  A    between atoms: N_3  and  C_17
    3  A    between atoms: C_12  and  C_28
    4  A    between atoms: C_13  and  C_14
    5  A    between atoms: C_17  and  C_29
                            x       y       z     vdW  Elec       q    Type
                         _______ _______ _______ _____ _____    ______ ____

>  <TORSDO>
F 5

$$$$
=
 OpenBabel11062407513D

 34 39  0  0  1  0  0  0  0  0999 V2000
  160.9860  205.2940  153.2640 C   0  0  0  0  0  0  0  0  0  0  0  0
  160.9220  207.7950  152.9100 C   0  0  0  0  0  2  0  0  0  0  0  0
  161.1690  206.1460  150.9770 C   0  0  0  0  0  0  0  0  0  0  0  0
  161.2080  206.9380  148.6270 C   0  0  0  0  0  0  0  0  0  0  0  0
  160.9220  206.7740  155.1580 C   0  0  0  0  0  3  0  0  0  0  0  0
  160.9430  207.8740  154.4090 C   0  0  0  0  0  3  0  0  0  0  0  0
  161.5140  208.6390  150.1700 C   0  0  1  0  0  3  0  0  0  0  0  0
  161.0600  206.3880  152.3710 C   0  0  0  0  0  0  0  0  0  0  0  0
  161.2650  208.0910  147.8160 N   0  0  0  0  0  2  0  0  0  0  0  0
  160.9160  205.4770  154.5500 N   0  0  0  0  0  0  0  0  0  0  0  0
  161.1470  204.8080  150.4850 C   0  0  0  0  0  0  0  0  0  0  0  0
  160.9900  203.9920  152.7730 C   0  0  0  0  0  3  0  0  0  0  0  0
  162.9270  208.8460  150.7090 C   0  0  0  0  0  1  0  0  0  0  0  0
  161.1730  205.6930  148.1710 C   0  0  0  0  0  3  0  0  0  0  0  0
  161.1690  204.5620  149.1370 C   0  0  0  0  0  0  0  0  0  0  0  0
  161.3100  209.2230  148.7390 C   0  0  2  0  0  3  0  0  0  0  0  0
  161.2640  207.2110  150.0050 N   0  0  0  0  0  0  0  0  0  0  0  0
  161.0590  203.7530  151.4060 C   0  0  0  0  0  3  0  0  0  0  0  0
  160.9890  201.6940  146.6480 C   0  0  0  0  0  0  0  0  0  0  0  0
  161.0890  200.5910  147.4990 C   0  0  0  0  0  3  0  0  0  0  0  0
  161.1660  203.1940  148.5570 C   0  0  0  0  0  0  0  0  0  0  0  0
  161.2200  200.7820  148.8760 C   0  0  0  0  0  3  0  0  0  0  0  0
  161.0210  202.9880  147.1740 C   0  0  0  0  0  3  0  0  0  0  0  0
  161.2530  202.0770  149.4020 C   0  0  0  0  0  3  0  0  0  0  0  0
  160.8560  201.5090  145.3120 F   0  0  0  0  0  0  0  0  0  0  0  0
  162.2910  210.3010  148.2730 C   0  0  0  0  0  2  0  0  0  0  0  0
  161.5970  211.3810  147.5850 N   0  0  0  0  0  2  0  0  0  0  0  0
  163.2320  213.0150  147.3320 O   0  0  0  0  0  1  0  0  0  0  0  0
  162.1310  212.6310  148.1030 C   0  0  1  0  0  3  0  0  0  0  0  0
  161.0610  213.7150  148.0550 C   0  0  1  0  0  3  0  0  0  0  0  0
  158.6390  213.7670  149.3770 S   0  0  0  0  0  0  0  0  0  0  0  0
  158.6810  214.4520  147.3810 S   0  0  0  0  0  0  0  0  0  0  0  0
  160.0330  213.3670  147.0790 N   0  0  0  0  0  2  0  0  0  0  0  0
  160.4460  213.9240  149.4420 C   0  0  0  0  0  2  0  0  0  0  0  0
  1 10  2  0  0  0  0
  2  6  1  0  0  0  0
  3  8  2  0  0  0  0
  4 17  1  0  0  0  0
  6  5  2  0  0  0  0
  7 13  1  6  0  0  0
  8  2  1  0  0  0  0
  8  1  1  0  0  0  0
  9  4  1  0  0  0  0
  9 16  1  0  0  0  0
 10  5  1  0  0  0  0
 11  3  1  0  0  0  0
 11 18  1  0  0  0  0
 12  1  1  0  0  0  0
 14  4  2  0  0  0  0
 14 15  1  0  0  0  0
 15 11  2  0  0  0  0
 16 26  1  6  0  0  0
 16  7  1  0  0  0  0
 17  7  1  0  0  0  0
 17  3  1  0  0  0  0
 18 12  2  0  0  0  0
 19 23  2  0  0  0  0
 19 20  1  0  0  0  0
 20 22  2  0  0  0  0
 21 15  1  0  0  0  0
 21 24  2  0  0  0  0
 22 24  1  0  0  0  0
 23 21  1  0  0  0  0
 25 19  1  0  0  0  0
 27 29  1  0  0  0  0
 27 26  1  0  0  0  0
 29 28  1  6  0  0  0
 30 29  1  1  0  0  0
 30 34  1  0  0  0  0
 31 34  1  0  0  0  0
 32 31  1  0  0  0  0
 33 32  1  0  0  0  0
 33 30  1  0  0  0  0
M  END
>  <MODEL>
5

>  <REMARK>
 VINA RESULT:      -7.5      3.082      5.799
  Name = 
  5 active torsions:
  status: ('A' for Active; 'I' for Inactive)
    1  A    between atoms: N_3  and  C_13
    2  A    between atoms: N_3  and  C_17
    3  A    between atoms: C_12  and  C_28
    4  A    between atoms: C_13  and  C_14
    5  A    between atoms: C_17  and  C_29
                            x       y       z     vdW  Elec       q    Type
                         _______ _______ _______ _____ _____    ______ ____

>  <TORSDO>
F 5

$$$$
=
 OpenBabel11062407513D

 34 39  0  0  1  0  0  0  0  0999 V2000
  160.5260  210.5840  155.0630 C   0  0  0  0  0  0  0  0  0  0  0  0
  161.2490  208.1990  155.4740 C   0  0  0  0  0  3  0  0  0  0  0  0
  161.2580  209.2480  153.1470 C   0  0  0  0  0  0  0  0  0  0  0  0
  162.1290  207.9960  151.1920 C   0  0  0  0  0  0  0  0  0  0  0  0
  160.3230  209.6300  157.2610 C   0  0  0  0  0  3  0  0  0  0  0  0
  160.7800  208.4390  156.8800 C   0  0  0  0  0  3  0  0  0  0  0  0
  161.7420  206.6530  153.0390 C   0  0  1  0  0  3  0  0  0  0  0  0
  160.9780  209.3530  154.5350 C   0  0  0  0  0  0  0  0  0  0  0  0
  162.5840  206.7330  150.7610 N   0  0  0  0  0  2  0  0  0  0  0  0
  160.2310  210.7090  156.3240 N   0  0  0  0  0  0  0  0  0  0  0  0
  161.1360  210.3950  152.3100 C   0  0  0  0  0  0  0  0  0  0  0  0
  160.3870  211.6910  154.2310 C   0  0  0  0  0  3  0  0  0  0  0  0
  160.3140  206.1580  153.2550 C   0  0  0  0  0  1  0  0  0  0  0  0
  162.0280  209.0690  150.4180 C   0  0  0  0  0  3  0  0  0  0  0  0
  161.4810  210.3300  150.9860 C   0  0  0  0  0  0  0  0  0  0  0  0
  162.5060  205.8630  151.9310 C   0  0  2  0  0  3  0  0  0  0  0  0
  161.7080  208.0200  152.5330 N   0  0  0  0  0  0  0  0  0  0  0  0
  160.6960  211.6000  152.8780 C   0  0  0  0  0  2  0  0  0  0  0  0
  162.0640  212.6810  148.0560 C   0  0  0  0  0  0  0  0  0  0  0  0
  161.1640  213.7080  148.3490 C   0  0  0  0  0  3  0  0  0  0  0  0
  161.3610  211.4810  150.0530 C   0  0  0  0  0  0  0  0  0  0  0  0
  160.3670  213.6300  149.4940 C   0  0  0  0  0  3  0  0  0  0  0  0
  162.1670  211.5770  148.9050 C   0  0  0  0  0  3  0  0  0  0  0  0
  160.4700  212.5240  150.3440 C   0  0  0  0  0  3  0  0  0  0  0  0
  162.8420  212.7590  146.9490 F   0  0  0  0  0  0  0  0  0  0  0  0
  161.9830  204.4700  151.5750 C   0  0  0  0  0  2  0  0  0  0  0  0
  160.9030  204.5470  150.6000 N   0  0  0  0  0  2  0  0  0  0  0  0
  160.4510  202.4260  149.7610 O   0  0  0  0  0  1  0  0  0  0  0  0
  161.2040  203.5840  149.5520 C   0  0  1  0  0  3  0  0  0  0  0  0
  160.8720  204.1780  148.1870 C   0  0  1  0  0  3  0  0  0  0  0  0
  162.6260  205.1270  146.2800 S   0  0  0  0  0  0  0  0  0  0  0  0
  160.8470  206.2160  146.6040 S   0  0  0  0  0  0  0  0  0  0  0  0
  160.8410  205.6350  148.2650 N   0  0  0  0  0  2  0  0  0  0  0  0
  161.8850  203.7100  147.1380 C   0  0  0  0  0  2  0  0  0  0  0  0
  1 10  1  0  0  0  0
  2  6  2  0  0  0  0
  3  8  2  0  0  0  0
  4 17  1  0  0  0  0
  6  5  1  0  0  0  0
  7 13  1  6  0  0  0
  8  1  1  0  0  0  0
  8  2  1  0  0  0  0
  9  4  1  0  0  0  0
  9 16  1  0  0  0  0
 10  5  2  0  0  0  0
 11 18  1  0  0  0  0
 11  3  1  0  0  0  0
 12  1  2  0  0  0  0
 14 15  1  0  0  0  0
 14  4  2  0  0  0  0
 15 11  2  0  0  0  0
 16 26  1  6  0  0  0
 16  7  1  0  0  0  0
 17  7  1  0  0  0  0
 17  3  1  0  0  0  0
 18 12  1  0  0  0  0
 19 20  2  0  0  0  0
 19 23  1  0  0  0  0
 20 22  1  0  0  0  0
 21 24  1  0  0  0  0
 21 15  1  0  0  0  0
 22 24  2  0  0  0  0
 23 21  2  0  0  0  0
 25 19  1  0  0  0  0
 27 26  1  0  0  0  0
 29 28  1  1  0  0  0
 29 27  1  0  0  0  0
 30 33  1  0  0  0  0
 30 29  1  1  0  0  0
 31 32  1  0  0  0  0
 31 34  1  0  0  0  0
 32 33  1  0  0  0  0
 34 30  1  0  0  0  0
M  END
>  <MODEL>
6

>  <REMARK>
 VINA RESULT:      -7.3      4.273      8.093
  Name = 
  5 active torsions:
  status: ('A' for Active; 'I' for Inactive)
    1  A    between atoms: N_3  and  C_13
    2  A    between atoms: N_3  and  C_17
    3  A    between atoms: C_12  and  C_28
    4  A    between atoms: C_13  and  C_14
    5  A    between atoms: C_17  and  C_29
                            x       y       z     vdW  Elec       q    Type
                         _______ _______ _______ _____ _____    ______ ____

>  <TORSDO>
F 5

$$$$
=
 OpenBabel11062407513D

 34 39  0  0  1  0  0  0  0  0999 V2000
  161.0340  203.9130  151.0440 C   0  0  0  0  0  0  0  0  0  0  0  0
  161.7450  204.9390  148.8470 C   0  0  0  0  0  2  0  0  0  0  0  0
  161.3740  206.3350  150.9520 C   0  0  0  0  0  0  0  0  0  0  0  0
  161.8470  208.7690  150.9620 C   0  0  0  0  0  0  0  0  0  0  0  0
  161.1940  202.5430  149.0740 C   0  0  0  0  0  3  0  0  0  0  0  0
  161.5400  203.5600  148.2890 C   0  0  0  0  0  3  0  0  0  0  0  0
  161.7530  207.8660  148.8310 C   0  0  1  0  0  3  0  0  0  0  0  0
  161.3470  205.0750  150.3000 C   0  0  0  0  0  0  0  0  0  0  0  0
  162.1800  209.8670  150.1410 N   0  0  0  0  0  2  0  0  0  0  0  0
  160.9700  202.7450  150.4740 N   0  0  0  0  0  0  0  0  0  0  0  0
  161.1400  206.4140  152.3560 C   0  0  0  0  0  0  0  0  0  0  0  0
  160.7830  204.0060  152.4090 C   0  0  0  0  0  3  0  0  0  0  0  0
  160.3710  207.7070  148.2010 C   0  0  0  0  0  1  0  0  0  0  0  0
  161.6430  208.8380  152.2710 C   0  0  0  0  0  3  0  0  0  0  0  0
  161.2430  207.6120  153.0120 C   0  0  0  0  0  0  0  0  0  0  0  0
  162.2840  209.3310  148.7860 C   0  0  2  0  0  3  0  0  0  0  0  0
  161.6710  207.5660  150.2560 N   0  0  0  0  0  0  0  0  0  0  0  0
  160.8440  205.2350  153.0560 C   0  0  0  0  0  3  0  0  0  0  0  0
  161.3470  208.9430  156.5720 C   0  0  0  0  0  0  0  0  0  0  0  0
  160.5670  207.9940  157.2380 C   0  0  0  0  0  3  0  0  0  0  0  0
  160.9950  207.7690  154.4690 C   0  0  0  0  0  0  0  0  0  0  0  0
  160.0070  206.9300  156.5280 C   0  0  0  0  0  3  0  0  0  0  0  0
  161.5650  208.8280  155.1970 C   0  0  0  0  0  3  0  0  0  0  0  0
  160.2240  206.8160  155.1520 C   0  0  0  0  0  3  0  0  0  0  0  0
  161.8970  209.9720  157.2610 F   0  0  0  0  0  0  0  0  0  0  0  0
  161.6650  210.2720  147.7500 C   0  0  0  0  0  2  0  0  0  0  0  0
  161.9890  211.6620  148.0410 N   0  0  0  0  0  2  0  0  0  0  0  0
  160.4320  213.2510  148.7170 O   0  0  0  0  0  1  0  0  0  0  0  0
  160.8420  212.4610  147.6400 C   0  0  1  0  0  3  0  0  0  0  0  0
  161.2130  213.3490  146.4570 C   0  0  1  0  0  3  0  0  0  0  0  0
  161.1050  212.7280  143.7700 S   0  0  0  0  0  0  0  0  0  0  0  0
  162.7660  213.8380  144.4540 S   0  0  0  0  0  0  0  0  0  0  0  0
  162.5800  213.0710  146.0270 N   0  0  0  0  0  2  0  0  0  0  0  0
  160.2270  213.1460  145.3030 C   0  0  0  0  0  2  0  0  0  0  0  0
  1 12  1  0  0  0  0
  2  8  1  0  0  0  0
  3 11  1  0  0  0  0
  4 14  2  0  0  0  0
  5 10  1  0  0  0  0
  6  2  1  0  0  0  0
  6  5  2  0  0  0  0
  7 13  1  1  0  0  0
  7 17  1  0  0  0  0
  8  3  2  0  0  0  0
  8  1  1  0  0  0  0
  9  4  1  0  0  0  0
 10  1  2  0  0  0  0
 11 15  2  0  0  0  0
 11 18  1  0  0  0  0
 12 18  2  0  0  0  0
 14 15  1  0  0  0  0
 15 21  1  0  0  0  0
 16 26  1  6  0  0  0
 16  7  1  0  0  0  0
 16  9  1  0  0  0  0
 17  3  1  0  0  0  0
 17  4  1  0  0  0  0
 19 20  1  0  0  0  0
 19 25  1  0  0  0  0
 21 24  2  0  0  0  0
 21 23  1  0  0  0  0
 22 20  2  0  0  0  0
 23 19  2  0  0  0  0
 24 22  1  0  0  0  0
 26 27  1  0  0  0  0
 29 27  1  0  0  0  0
 29 28  1  1  0  0  0
 30 29  1  1  0  0  0
 31 32  1  0  0  0  0
 31 34  1  0  0  0  0
 32 33  1  0  0  0  0
 33 30  1  0  0  0  0
 34 30  1  0  0  0  0
M  END
>  <MODEL>
7

>  <REMARK>
 VINA RESULT:      -7.3      4.649      7.870
  Name = 
  5 active torsions:
  status: ('A' for Active; 'I' for Inactive)
    1  A    between atoms: N_3  and  C_13
    2  A    between atoms: N_3  and  C_17
    3  A    between atoms: C_12  and  C_28
    4  A    between atoms: C_13  and  C_14
    5  A    between atoms: C_17  and  C_29
                            x       y       z     vdW  Elec       q    Type
                         _______ _______ _______ _____ _____    ______ ____

>  <TORSDO>
F 5

$$$$
