=
 OpenBabel11062410493D

 32 35  0  0  1  0  0  0  0  0999 V2000
  161.1610  208.4710  151.5470 C   0  0  0  0  0  0  0  0  0  0  0  0
  159.9430  207.2510  156.1310 C   0  0  0  0  0  2  0  0  0  0  0  0
  160.0660  208.7080  156.5530 C   0  0  0  0  0  2  0  0  0  0  0  0
  161.3090  206.6340  149.9290 C   0  0  0  0  0  0  0  0  0  0  0  0
  161.2140  206.0360  152.3120 C   0  0  0  0  0  3  0  0  0  0  0  0
  160.9680  206.9320  155.0490 C   0  0  0  0  0  2  0  0  0  0  0  0
  161.0590  207.4750  152.6360 C   0  0  0  0  0  0  0  0  0  0  0  0
  160.8590  207.8980  153.8980 C   0  0  0  0  0  0  0  0  0  0  0  0
  160.3270  210.1790  153.0390 N   0  0  0  0  0  0  0  0  0  0  0  0
  160.3400  206.3000  148.8170 C   0  0  0  0  0  2  0  0  0  0  0  0
  161.3410  205.6200  151.0480 C   0  0  0  0  0  0  0  0  0  0  0  0
  161.8420  206.2500  148.5660 C   0  0  0  0  0  2  0  0  0  0  0  0
  159.7510  209.6030  155.3630 C   0  0  0  0  0  2  0  0  0  0  0  0
  160.7500  209.3900  154.2140 C   0  0  1  0  0  3  0  0  0  0  0  0
  161.3150  208.0910  150.2780 C   0  0  0  0  0  3  0  0  0  0  0  0
  161.2180  209.9150  151.9090 C   0  0  0  0  0  2  0  0  0  0  0  0
  161.5520  204.1640  150.7770 C   0  0  0  0  0  2  0  0  0  0  0  0
  160.3380  203.4820  150.8660 O   0  0  0  0  0  0  0  0  0  0  0  0
  160.5310  202.3250  150.1130 C   0  0  0  0  0  2  0  0  0  0  0  0
  160.8300  202.7020  148.6760 C   0  0  0  0  0  2  0  0  0  0  0  0
  161.0390  201.4740  147.8630 C   0  0  0  0  0  0  0  0  0  0  0  0
  161.3900  200.4030  148.4230 O   0  0  0  0  0  1  0  0  0  0  0  0
  160.8180  201.4990  146.4930 O   0  0  0  0  0  0  0  0  0  0  0  0
  160.5010  211.5960  153.3530 C   0  0  0  0  0  2  0  0  0  0  0  0
  159.2360  212.4000  153.0360 C   0  0  1  0  0  3  0  0  0  0  0  0
  157.6650  212.8660  154.9750 C   0  0  0  0  0  0  0  0  0  0  0  0
  157.3330  213.6980  156.1610 C   0  0  0  0  0  1  0  0  0  0  0  0
  158.8160  213.1860  154.1900 N   0  0  0  0  0  2  0  0  0  0  0  0
  156.9030  211.8720  154.6580 N   0  0  0  0  0  2  0  0  0  0  0  0
  159.4460  213.3210  151.8400 C   0  0  0  0  0  2  0  0  0  0  0  0
  158.1340  213.9410  151.3830 C   0  0  0  0  0  2  0  0  0  0  0  0
  157.7900  213.4790  149.9790 C   0  0  0  0  0  1  0  0  0  0  0  0
  1 16  1  0  0  0  0
  1  7  1  0  0  0  0
  2  3  1  0  0  0  0
  4 15  1  0  0  0  0
  4 11  1  0  0  0  0
  5  7  1  0  0  0  0
  6  2  1  0  0  0  0
  7  8  2  0  0  0  0
  8 14  1  0  0  0  0
  8  6  1  0  0  0  0
  9 24  1  0  0  0  0
  9 14  1  0  0  0  0
 10  4  1  0  0  0  0
 11  5  2  0  0  0  0
 12 10  1  0  0  0  0
 12  4  1  0  0  0  0
 13  3  1  0  0  0  0
 14 13  1  1  0  0  0
 15  1  2  0  0  0  0
 16  9  1  0  0  0  0
 17 18  1  0  0  0  0
 17 11  1  0  0  0  0
 19 18  1  0  0  0  0
 20 19  1  0  0  0  0
 21 22  1  0  0  0  0
 21 20  1  0  0  0  0
 23 21  2  0  0  0  0
 25 30  1  6  0  0  0
 25 24  1  0  0  0  0
 25 28  1  0  0  0  0
 26 27  1  0  0  0  0
 28 26  1  0  0  0  0
 29 26  2  0  0  0  0
 31 30  1  0  0  0  0
 32 31  1  0  0  0  0
M  END
>  <MODEL>
1

>  <REMARK>
 VINA RESULT:      -8.0      0.000      0.000
  Name = 
  10 active torsions:
  status: ('A' for Active; 'I' for Inactive)
    1  A    between atoms: C_1  and  C_10
    2  A    between atoms: O_2  and  C_12
    3  A    between atoms: O_2  and  C_24
    4  A    between atoms: C_6  and  C_7
    5  A    between atoms: C_7  and  C_32
    6  A    between atoms: C_10  and  C_24
    7  A    between atoms: C_12  and  C_21
    8  A    between atoms: N_16  and  C_27
    9  A    between atoms: N_22  and  C_32
   10  A    between atoms: C_27  and  C_32
                            x       y       z     vdW  Elec       q    Type
                         _______ _______ _______ _____ _____    ______ ____

>  <TORSDO>
F 10

$$$$
=
 OpenBabel11062410493D

 32 35  0  0  1  0  0  0  0  0999 V2000
  161.3520  206.9180  153.0540 C   0  0  0  0  0  0  0  0  0  0  0  0
  161.7090  210.5060  149.7400 C   0  0  0  0  0  2  0  0  0  0  0  0
  162.2760  209.5190  148.7310 C   0  0  0  0  0  2  0  0  0  0  0  0
  160.5060  207.5530  155.2670 C   0  0  0  0  0  0  0  0  0  0  0  0
  161.1850  209.3680  153.7530 C   0  0  0  0  0  3  0  0  0  0  0  0
  162.1670  210.1370  151.1460 C   0  0  0  0  0  2  0  0  0  0  0  0
  161.4610  208.3520  152.7080 C   0  0  0  0  0  0  0  0  0  0  0  0
  161.8380  208.7020  151.4650 C   0  0  0  0  0  0  0  0  0  0  0  0
  161.5040  206.3470  150.7110 N   0  0  0  0  0  0  0  0  0  0  0  0
  159.1460  207.2550  155.8580 C   0  0  0  0  0  2  0  0  0  0  0  0
  160.7440  209.0140  154.9650 C   0  0  0  0  0  0  0  0  0  0  0  0
  160.4010  207.1030  156.7080 C   0  0  0  0  0  2  0  0  0  0  0  0
  161.7310  208.1290  149.0280 C   0  0  0  0  0  2  0  0  0  0  0  0
  162.1630  207.6370  150.4180 C   0  0  1  0  0  3  0  0  0  0  0  0
  160.9400  206.5300  154.2620 C   0  0  0  0  0  3  0  0  0  0  0  0
  161.8350  205.9120  152.0680 C   0  0  0  0  0  2  0  0  0  0  0  0
  160.5340  210.0700  156.0030 C   0  0  0  0  0  2  0  0  0  0  0  0
  160.8630  211.3220  155.4820 O   0  0  0  0  0  0  0  0  0  0  0  0
  159.7290  212.1010  155.7030 C   0  0  0  0  0  2  0  0  0  0  0  0
  159.2910  212.7350  154.3970 C   0  0  0  0  0  2  0  0  0  0  0  0
  158.3580  211.8240  153.6810 C   0  0  0  0  0  0  0  0  0  0  0  0
  158.6620  211.3810  152.5440 O   0  0  0  0  0  0  0  0  0  0  0  0
  157.1650  211.4390  154.2790 O   0  0  0  0  0  1  0  0  0  0  0  0
  162.0700  205.3320  149.8250 C   0  0  0  0  0  2  0  0  0  0  0  0
  160.9730  204.5540  149.0910 C   0  0  1  0  0  3  0  0  0  0  0  0
  161.3560  204.7860  146.5920 C   0  0  0  0  0  0  0  0  0  0  0  0
  161.9160  204.2120  145.3400 C   0  0  0  0  0  1  0  0  0  0  0  0
  161.4590  204.0490  147.8130 N   0  0  0  0  0  2  0  0  0  0  0  0
  160.7700  205.9370  146.5610 N   0  0  0  0  0  2  0  0  0  0  0  0
  160.4520  203.3960  149.9340 C   0  0  0  0  0  2  0  0  0  0  0  0
  160.3070  202.1290  149.1030 C   0  0  0  0  0  2  0  0  0  0  0  0
  161.0930  200.9920  149.7280 C   0  0  0  0  0  1  0  0  0  0  0  0
  1 15  2  0  0  0  0
  2  6  1  0  0  0  0
  3 13  1  0  0  0  0
  3  2  1  0  0  0  0
  4 10  1  0  0  0  0
  4 12  1  0  0  0  0
  5 11  2  0  0  0  0
  6  8  1  0  0  0  0
  7  1  1  0  0  0  0
  7  5  1  0  0  0  0
  8  7  2  0  0  0  0
  9 16  1  0  0  0  0
 10 12  1  0  0  0  0
 11  4  1  0  0  0  0
 11 17  1  0  0  0  0
 14 13  1  6  0  0  0
 14  9  1  0  0  0  0
 14  8  1  0  0  0  0
 15  4  1  0  0  0  0
 16  1  1  0  0  0  0
 18 19  1  0  0  0  0
 18 17  1  0  0  0  0
 20 19  1  0  0  0  0
 21 23  1  0  0  0  0
 21 20  1  0  0  0  0
 22 21  2  0  0  0  0
 24  9  1  0  0  0  0
 25 24  1  1  0  0  0
 25 30  1  0  0  0  0
 26 28  1  0  0  0  0
 27 26  1  0  0  0  0
 28 25  1  0  0  0  0
 29 26  2  0  0  0  0
 31 32  1  0  0  0  0
 31 30  1  0  0  0  0
M  END
>  <MODEL>
2

>  <REMARK>
 VINA RESULT:      -7.6      4.271      8.889
  Name = 
  10 active torsions:
  status: ('A' for Active; 'I' for Inactive)
    1  A    between atoms: C_1  and  C_10
    2  A    between atoms: O_2  and  C_12
    3  A    between atoms: O_2  and  C_24
    4  A    between atoms: C_6  and  C_7
    5  A    between atoms: C_7  and  C_32
    6  A    between atoms: C_10  and  C_24
    7  A    between atoms: C_12  and  C_21
    8  A    between atoms: N_16  and  C_27
    9  A    between atoms: N_22  and  C_32
   10  A    between atoms: C_27  and  C_32
                            x       y       z     vdW  Elec       q    Type
                         _______ _______ _______ _____ _____    ______ ____

>  <TORSDO>
F 10

$$$$
=
 OpenBabel11062410493D

 32 35  0  0  1  0  0  0  0  0999 V2000
  161.6910  207.7710  149.7580 C   0  0  0  0  0  0  0  0  0  0  0  0
  160.5850  205.9020  154.1480 C   0  0  0  0  0  2  0  0  0  0  0  0
  160.9220  207.2350  154.8020 C   0  0  0  0  0  2  0  0  0  0  0  0
  161.5040  206.2490  147.8440 C   0  0  0  0  0  0  0  0  0  0  0  0
  161.4660  205.2490  150.0900 C   0  0  0  0  0  3  0  0  0  0  0  0
  161.4950  205.6630  152.9500 C   0  0  0  0  0  2  0  0  0  0  0  0
  161.5200  206.6150  150.6660 C   0  0  0  0  0  0  0  0  0  0  0  0
  161.4500  206.8250  151.9930 C   0  0  0  0  0  0  0  0  0  0  0  0
  161.1750  209.2710  151.5810 N   0  0  0  0  0  0  0  0  0  0  0  0
  160.4390  206.2390  146.7710 C   0  0  0  0  0  2  0  0  0  0  0  0
  161.4660  205.0540  148.7670 C   0  0  0  0  0  0  0  0  0  0  0  0
  161.9040  206.0540  146.3970 C   0  0  0  0  0  2  0  0  0  0  0  0
  160.6610  208.3600  153.8100 C   0  0  0  0  0  2  0  0  0  0  0  0
  161.5560  208.2380  152.5670 C   0  0  1  0  0  3  0  0  0  0  0  0
  161.7220  207.6080  148.4350 C   0  0  0  0  0  3  0  0  0  0  0  0
  161.9590  209.1080  150.3560 C   0  0  0  0  0  2  0  0  0  0  0  0
  161.4670  203.6560  148.2350 C   0  0  0  0  0  2  0  0  0  0  0  0
  160.6480  202.8460  149.0220 O   0  0  0  0  0  0  0  0  0  0  0  0
  160.3850  201.7340  148.2240 C   0  0  0  0  0  2  0  0  0  0  0  0
  160.9380  201.9710  146.8320 C   0  0  0  0  0  2  0  0  0  0  0  0
  160.7880  200.7380  146.0130 C   0  0  0  0  0  0  0  0  0  0  0  0
  160.1230  200.7710  144.9450 O   0  0  0  0  0  0  0  0  0  0  0  0
  161.4070  199.5600  146.4080 O   0  0  0  0  0  1  0  0  0  0  0  0
  161.5530  210.5770  152.1170 C   0  0  0  0  0  2  0  0  0  0  0  0
  160.3280  211.3560  152.6080 C   0  0  1  0  0  3  0  0  0  0  0  0
  159.5700  211.7120  155.0040 C   0  0  0  0  0  0  0  0  0  0  0  0
  159.8820  212.2150  156.3680 C   0  0  0  0  0  1  0  0  0  0  0  0
  160.5370  211.8560  153.9620 N   0  0  0  0  0  2  0  0  0  0  0  0
  158.4230  211.1640  154.7730 N   0  0  0  0  0  2  0  0  0  0  0  0
  159.9980  212.5190  151.6800 C   0  0  0  0  0  2  0  0  0  0  0  0
  158.4960  212.7340  151.5760 C   0  0  0  0  0  2  0  0  0  0  0  0
  158.0880  213.9940  152.3150 C   0  0  0  0  0  1  0  0  0  0  0  0
  1 16  1  0  0  0  0
  1  7  1  0  0  0  0
  2  3  1  0  0  0  0
  4 15  1  0  0  0  0
  4 11  1  0  0  0  0
  5  7  1  0  0  0  0
  6  2  1  0  0  0  0
  7  8  2  0  0  0  0
  8 14  1  0  0  0  0
  8  6  1  0  0  0  0
  9 24  1  0  0  0  0
  9 14  1  0  0  0  0
 10  4  1  0  0  0  0
 11  5  2  0  0  0  0
 12 10  1  0  0  0  0
 12  4  1  0  0  0  0
 13  3  1  0  0  0  0
 14 13  1  1  0  0  0
 15  1  2  0  0  0  0
 16  9  1  0  0  0  0
 17 11  1  0  0  0  0
 17 18  1  0  0  0  0
 19 18  1  0  0  0  0
 20 19  1  0  0  0  0
 21 23  1  0  0  0  0
 21 20  1  0  0  0  0
 22 21  2  0  0  0  0
 24 25  1  0  0  0  0
 25 30  1  6  0  0  0
 25 28  1  0  0  0  0
 26 27  1  0  0  0  0
 28 26  1  0  0  0  0
 29 26  2  0  0  0  0
 31 30  1  0  0  0  0
 31 32  1  0  0  0  0
M  END
>  <MODEL>
3

>  <REMARK>
 VINA RESULT:      -7.5      1.544      2.193
  Name = 
  10 active torsions:
  status: ('A' for Active; 'I' for Inactive)
    1  A    between atoms: C_1  and  C_10
    2  A    between atoms: O_2  and  C_12
    3  A    between atoms: O_2  and  C_24
    4  A    between atoms: C_6  and  C_7
    5  A    between atoms: C_7  and  C_32
    6  A    between atoms: C_10  and  C_24
    7  A    between atoms: C_12  and  C_21
    8  A    between atoms: N_16  and  C_27
    9  A    between atoms: N_22  and  C_32
   10  A    between atoms: C_27  and  C_32
                            x       y       z     vdW  Elec       q    Type
                         _______ _______ _______ _____ _____    ______ ____

>  <TORSDO>
F 10

$$$$
=
 OpenBabel11062410493D

 32 35  0  0  1  0  0  0  0  0999 V2000
  161.1360  208.6690  151.5990 C   0  0  0  0  0  0  0  0  0  0  0  0
  159.9780  207.3490  156.1710 C   0  0  0  0  0  2  0  0  0  0  0  0
  160.0310  208.8060  156.6070 C   0  0  0  0  0  2  0  0  0  0  0  0
  161.3730  206.8560  149.9640 C   0  0  0  0  0  0  0  0  0  0  0  0
  161.3060  206.2320  152.3420 C   0  0  0  0  0  3  0  0  0  0  0  0
  161.0170  207.0900  155.0870 C   0  0  0  0  0  2  0  0  0  0  0  0
  161.0820  207.6590  152.6790 C   0  0  0  0  0  0  0  0  0  0  0  0
  160.8620  208.0600  153.9440 C   0  0  0  0  0  0  0  0  0  0  0  0
  160.2210  210.3210  153.1060 N   0  0  0  0  0  0  0  0  0  0  0  0
  160.4210  206.4870  148.8480 C   0  0  0  0  0  2  0  0  0  0  0  0
  161.4530  205.8340  151.0730 C   0  0  0  0  0  0  0  0  0  0  0  0
  161.9240  206.5100  148.5980 C   0  0  0  0  0  2  0  0  0  0  0  0
  159.6740  209.6960  155.4240 C   0  0  0  0  0  2  0  0  0  0  0  0
  160.6810  209.5420  154.2740 C   0  0  1  0  0  3  0  0  0  0  0  0
  161.3080  208.3080  150.3270 C   0  0  0  0  0  3  0  0  0  0  0  0
  161.1240  210.1100  151.9750 C   0  0  0  0  0  2  0  0  0  0  0  0
  161.7330  204.3930  150.7890 C   0  0  0  0  0  2  0  0  0  0  0  0
  160.7610  203.5910  151.3870 O   0  0  0  0  0  0  0  0  0  0  0  0
  160.6600  202.4810  150.5500 C   0  0  0  0  0  2  0  0  0  0  0  0
  160.8780  202.9110  149.1130 C   0  0  0  0  0  2  0  0  0  0  0  0
  160.9940  201.7140  148.2390 C   0  0  0  0  0  0  0  0  0  0  0  0
  161.2340  200.5870  148.7450 O   0  0  0  0  0  1  0  0  0  0  0  0
  160.8060  201.8320  146.8680 O   0  0  0  0  0  0  0  0  0  0  0  0
  160.3280  211.7410  153.4340 C   0  0  0  0  0  2  0  0  0  0  0  0
  159.0200  212.4840  153.1400 C   0  0  1  0  0  3  0  0  0  0  0  0
  159.3350  213.5160  150.8430 C   0  0  0  0  0  0  0  0  0  0  0  0
  159.0490  213.4670  149.3850 C   0  0  0  0  0  1  0  0  0  0  0  0
  158.7600  212.5330  151.7070 N   0  0  0  0  0  2  0  0  0  0  0  0
  160.0880  214.4530  151.3150 N   0  0  0  0  0  2  0  0  0  0  0  0
  157.8380  211.8350  153.8520 C   0  0  0  0  0  2  0  0  0  0  0  0
  157.4880  212.5780  155.1320 C   0  0  0  0  0  2  0  0  0  0  0  0
  156.0080  212.4400  155.4370 C   0  0  0  0  0  1  0  0  0  0  0  0
  1 16  1  0  0  0  0
  1  7  1  0  0  0  0
  2  3  1  0  0  0  0
  4 15  1  0  0  0  0
  4 11  1  0  0  0  0
  5  7  1  0  0  0  0
  6  2  1  0  0  0  0
  7  8  2  0  0  0  0
  8 14  1  0  0  0  0
  8  6  1  0  0  0  0
  9 24  1  0  0  0  0
  9 14  1  0  0  0  0
 10  4  1  0  0  0  0
 11  5  2  0  0  0  0
 12 10  1  0  0  0  0
 12  4  1  0  0  0  0
 13  3  1  0  0  0  0
 14 13  1  1  0  0  0
 15  1  2  0  0  0  0
 16  9  1  0  0  0  0
 17 11  1  0  0  0  0
 17 18  1  0  0  0  0
 19 18  1  0  0  0  0
 20 19  1  0  0  0  0
 21 22  1  0  0  0  0
 21 20  1  0  0  0  0
 23 21  2  0  0  0  0
 25 24  1  6  0  0  0
 25 30  1  0  0  0  0
 26 29  2  0  0  0  0
 26 28  1  0  0  0  0
 27 26  1  0  0  0  0
 28 25  1  0  0  0  0
 30 31  1  0  0  0  0
 31 32  1  0  0  0  0
M  END
>  <MODEL>
4

>  <REMARK>
 VINA RESULT:      -7.4      0.953      2.273
  Name = 
  10 active torsions:
  status: ('A' for Active; 'I' for Inactive)
    1  A    between atoms: C_1  and  C_10
    2  A    between atoms: O_2  and  C_12
    3  A    between atoms: O_2  and  C_24
    4  A    between atoms: C_6  and  C_7
    5  A    between atoms: C_7  and  C_32
    6  A    between atoms: C_10  and  C_24
    7  A    between atoms: C_12  and  C_21
    8  A    between atoms: N_16  and  C_27
    9  A    between atoms: N_22  and  C_32
   10  A    between atoms: C_27  and  C_32
                            x       y       z     vdW  Elec       q    Type
                         _______ _______ _______ _____ _____    ______ ____

>  <TORSDO>
F 10

$$$$
=
 OpenBabel11062410493D

 32 35  0  0  1  0  0  0  0  0999 V2000
  160.9940  206.9810  150.1630 C   0  0  0  0  0  0  0  0  0  0  0  0
  161.5550  202.4470  151.9280 C   0  0  0  0  0  2  0  0  0  0  0  0
  161.1160  201.8700  150.5900 C   0  0  0  0  0  2  0  0  0  0  0  0
  161.4480  208.8230  151.7160 C   0  0  0  0  0  0  0  0  0  0  0  0
  161.2120  206.5700  152.6730 C   0  0  0  0  0  3  0  0  0  0  0  0
  160.8090  203.7470  152.2060 C   0  0  0  0  0  2  0  0  0  0  0  0
  161.0640  206.0350  151.2980 C   0  0  0  0  0  0  0  0  0  0  0  0
  160.9600  204.7140  151.0610 C   0  0  0  0  0  0  0  0  0  0  0  0
  161.2490  205.1390  148.6200 N   0  0  0  0  0  0  0  0  0  0  0  0
  162.6430  209.7500  151.7280 C   0  0  0  0  0  2  0  0  0  0  0  0
  161.3850  207.8780  152.8930 C   0  0  0  0  0  0  0  0  0  0  0  0
  161.2410  210.3050  151.9460 C   0  0  0  0  0  2  0  0  0  0  0  0
  161.4850  202.8440  149.4800 C   0  0  0  0  0  2  0  0  0  0  0  0
  160.7600  204.1880  149.6400 C   0  0  1  0  0  3  0  0  0  0  0  0
  161.1370  208.2940  150.3500 C   0  0  0  0  0  3  0  0  0  0  0  0
  160.6320  206.4510  148.8190 C   0  0  0  0  0  2  0  0  0  0  0  0
  161.4740  208.3760  154.3000 C   0  0  0  0  0  2  0  0  0  0  0  0
  160.4500  207.8200  155.0680 O   0  0  0  0  0  0  0  0  0  0  0  0
  160.2080  208.7640  156.0640 C   0  0  0  0  0  2  0  0  0  0  0  0
  160.3760  210.1570  155.4900 C   0  0  0  0  0  2  0  0  0  0  0  0
  159.0670  210.8650  155.4890 C   0  0  0  0  0  0  0  0  0  0  0  0
  158.4720  211.0870  156.5760 O   0  0  0  0  0  1  0  0  0  0  0  0
  158.5150  211.3060  154.2940 O   0  0  0  0  0  0  0  0  0  0  0  0
  160.7860  204.6820  147.3110 C   0  0  0  0  0  2  0  0  0  0  0  0
  161.8310  203.7950  146.6260 C   0  0  1  0  0  3  0  0  0  0  0  0
  160.7450  201.6040  145.9440 C   0  0  0  0  0  0  0  0  0  0  0  0
  160.0810  200.7970  144.8860 C   0  0  0  0  0  1  0  0  0  0  0  0
  161.2060  202.9220  145.6390 N   0  0  0  0  0  2  0  0  0  0  0  0
  160.9110  201.1000  147.1210 N   0  0  0  0  0  2  0  0  0  0  0  0
  162.9170  204.6280  145.9560 C   0  0  0  0  0  2  0  0  0  0  0  0
  162.3310  205.8540  145.2720 C   0  0  0  0  0  2  0  0  0  0  0  0
  161.5800  205.4540  144.0160 C   0  0  0  0  0  1  0  0  0  0  0  0
  1 15  2  0  0  0  0
  1  7  1  0  0  0  0
  2  6  1  0  0  0  0
  3  2  1  0  0  0  0
  4 10  1  0  0  0  0
  4 12  1  0  0  0  0
  4 11  1  0  0  0  0
  5 11  2  0  0  0  0
  7  5  1  0  0  0  0
  8  7  2  0  0  0  0
  8  6  1  0  0  0  0
  9 16  1  0  0  0  0
  9 14  1  0  0  0  0
 10 12  1  0  0  0  0
 11 17  1  0  0  0  0
 13  3  1  0  0  0  0
 14 13  1  1  0  0  0
 14  8  1  0  0  0  0
 15  4  1  0  0  0  0
 16  1  1  0  0  0  0
 17 18  1  0  0  0  0
 18 19  1  0  0  0  0
 20 19  1  0  0  0  0
 21 20  1  0  0  0  0
 21 22  1  0  0  0  0
 23 21  2  0  0  0  0
 24  9  1  0  0  0  0
 25 30  1  6  0  0  0
 25 24  1  0  0  0  0
 26 29  2  0  0  0  0
 27 26  1  0  0  0  0
 28 26  1  0  0  0  0
 28 25  1  0  0  0  0
 31 30  1  0  0  0  0
 32 31  1  0  0  0  0
M  END
>  <MODEL>
5

>  <REMARK>
 VINA RESULT:      -7.2      4.361      9.090
  Name = 
  10 active torsions:
  status: ('A' for Active; 'I' for Inactive)
    1  A    between atoms: C_1  and  C_10
    2  A    between atoms: O_2  and  C_12
    3  A    between atoms: O_2  and  C_24
    4  A    between atoms: C_6  and  C_7
    5  A    between atoms: C_7  and  C_32
    6  A    between atoms: C_10  and  C_24
    7  A    between atoms: C_12  and  C_21
    8  A    between atoms: N_16  and  C_27
    9  A    between atoms: N_22  and  C_32
   10  A    between atoms: C_27  and  C_32
                            x       y       z     vdW  Elec       q    Type
                         _______ _______ _______ _____ _____    ______ ____

>  <TORSDO>
F 10

$$$$
=
 OpenBabel11062410493D

 32 35  0  0  1  0  0  0  0  0999 V2000
  161.0750  206.2400  151.9510 C   0  0  0  0  0  0  0  0  0  0  0  0
  162.3240  209.4920  148.5090 C   0  0  0  0  0  2  0  0  0  0  0  0
  162.0810  210.6280  149.4920 C   0  0  0  0  0  2  0  0  0  0  0  0
  161.0940  203.8800  151.2850 C   0  0  0  0  0  0  0  0  0  0  0  0
  161.2050  205.5610  149.4940 C   0  0  0  0  0  3  0  0  0  0  0  0
  161.3430  208.3560  148.7700 C   0  0  0  0  0  2  0  0  0  0  0  0
  161.2410  206.6200  150.5310 C   0  0  0  0  0  0  0  0  0  0  0  0
  161.3900  207.9190  150.2110 C   0  0  0  0  0  0  0  0  0  0  0  0
  161.7510  208.4610  152.6190 N   0  0  0  0  0  0  0  0  0  0  0  0
  162.1010  202.8180  151.6670 C   0  0  0  0  0  2  0  0  0  0  0  0
  161.1270  204.2680  149.8250 C   0  0  0  0  0  0  0  0  0  0  0  0
  160.6110  202.4990  151.6720 C   0  0  0  0  0  2  0  0  0  0  0  0
  162.3390  210.1300  150.9070 C   0  0  0  0  0  2  0  0  0  0  0  0
  161.3760  208.9970  151.2940 C   0  0  1  0  0  3  0  0  0  0  0  0
  160.9680  204.9610  152.3140 C   0  0  0  0  0  3  0  0  0  0  0  0
  160.8990  207.3220  152.9590 C   0  0  0  0  0  2  0  0  0  0  0  0
  161.0360  203.2410  148.7420 C   0  0  0  0  0  2  0  0  0  0  0  0
  161.8660  203.5960  147.6770 O   0  0  0  0  0  0  0  0  0  0  0  0
  161.2150  203.1030  146.5480 C   0  0  0  0  0  2  0  0  0  0  0  0
  161.5300  203.9880  145.3580 C   0  0  0  0  0  2  0  0  0  0  0  0
  161.2900  205.4130  145.7100 C   0  0  0  0  0  0  0  0  0  0  0  0
  160.1370  205.9030  145.5940 O   0  0  0  0  0  0  0  0  0  0  0  0
  162.3290  206.1950  146.1960 O   0  0  0  0  0  1  0  0  0  0  0  0
  161.4610  209.4820  153.6240 C   0  0  0  0  0  2  0  0  0  0  0  0
  159.9770  209.8620  153.6240 C   0  0  1  0  0  3  0  0  0  0  0  0
  159.9260  210.9840  155.9010 C   0  0  0  0  0  0  0  0  0  0  0  0
  159.3260  211.0630  157.2590 C   0  0  0  0  0  1  0  0  0  0  0  0
  159.4710  209.9840  154.9860 N   0  0  0  0  0  2  0  0  0  0  0  0
  160.8630  211.8090  155.5680 N   0  0  0  0  0  2  0  0  0  0  0  0
  159.7340  211.1640  152.8700 C   0  0  0  0  0  2  0  0  0  0  0  0
  158.2570  211.5310  152.8630 C   0  0  0  0  0  2  0  0  0  0  0  0
  158.0680  212.9760  153.2860 C   0  0  0  0  0  1  0  0  0  0  0  0
  1 15  2  0  0  0  0
  1 16  1  0  0  0  0
  2  6  1  0  0  0  0
  2  3  1  0  0  0  0
  3 13  1  0  0  0  0
  4 10  1  0  0  0  0
  4 12  1  0  0  0  0
  4 15  1  0  0  0  0
  5 11  2  0  0  0  0
  5  7  1  0  0  0  0
  6  8  1  0  0  0  0
  7  1  1  0  0  0  0
  8  7  2  0  0  0  0
  8 14  1  0  0  0  0
  9 16  1  0  0  0  0
  9 24  1  0  0  0  0
 10 12  1  0  0  0  0
 11  4  1  0  0  0  0
 14 13  1  6  0  0  0
 14  9  1  0  0  0  0
 17 11  1  0  0  0  0
 18 17  1  0  0  0  0
 19 18  1  0  0  0  0
 20 21  1  0  0  0  0
 20 19  1  0  0  0  0
 21 23  1  0  0  0  0
 22 21  2  0  0  0  0
 24 25  1  0  0  0  0
 25 30  1  1  0  0  0
 25 28  1  0  0  0  0
 26 27  1  0  0  0  0
 28 26  1  0  0  0  0
 29 26  2  0  0  0  0
 31 30  1  0  0  0  0
 31 32  1  0  0  0  0
M  END
>  <MODEL>
6

>  <REMARK>
 VINA RESULT:      -6.6      2.089      4.113
  Name = 
  10 active torsions:
  status: ('A' for Active; 'I' for Inactive)
    1  A    between atoms: C_1  and  C_10
    2  A    between atoms: O_2  and  C_12
    3  A    between atoms: O_2  and  C_24
    4  A    between atoms: C_6  and  C_7
    5  A    between atoms: C_7  and  C_32
    6  A    between atoms: C_10  and  C_24
    7  A    between atoms: C_12  and  C_21
    8  A    between atoms: N_16  and  C_27
    9  A    between atoms: N_22  and  C_32
   10  A    between atoms: C_27  and  C_32
                            x       y       z     vdW  Elec       q    Type
                         _______ _______ _______ _____ _____    ______ ____

>  <TORSDO>
F 10

$$$$
=
 OpenBabel11062410493D

 32 35  0  0  1  0  0  0  0  0999 V2000
  160.9310  205.2780  151.6960 C   0  0  0  0  0  0  0  0  0  0  0  0
  162.3330  209.1260  149.0110 C   0  0  0  0  0  2  0  0  0  0  0  0
  162.0460  210.0520  150.1850 C   0  0  0  0  0  2  0  0  0  0  0  0
  160.9800  203.0930  150.5850 C   0  0  0  0  0  0  0  0  0  0  0  0
  161.1710  205.0890  149.1620 C   0  0  0  0  0  3  0  0  0  0  0  0
  161.3410  207.9700  149.0030 C   0  0  0  0  0  2  0  0  0  0  0  0
  161.1610  205.9260  150.3860 C   0  0  0  0  0  0  0  0  0  0  0  0
  161.3230  207.2600  150.3320 C   0  0  0  0  0  0  0  0  0  0  0  0
  161.5760  207.3210  152.8130 N   0  0  0  0  0  0  0  0  0  0  0  0
  161.9690  201.9680  150.7970 C   0  0  0  0  0  2  0  0  0  0  0  0
  161.0790  203.7570  149.2310 C   0  0  0  0  0  0  0  0  0  0  0  0
  160.4810  201.6670  150.6740 C   0  0  0  0  0  2  0  0  0  0  0  0
  162.2410  209.2860  151.4860 C   0  0  0  0  0  2  0  0  0  0  0  0
  161.2610  208.1080  151.6020 C   0  0  1  0  0  3  0  0  0  0  0  0
  160.8090  203.9540  151.7980 C   0  0  0  0  0  3  0  0  0  0  0  0
  160.7100  206.1450  152.8870 C   0  0  0  0  0  2  0  0  0  0  0  0
  161.0370  202.9610  147.9660 C   0  0  0  0  0  2  0  0  0  0  0  0
  161.7870  203.5970  146.9770 O   0  0  0  0  0  0  0  0  0  0  0  0
  161.2020  203.1920  145.7790 C   0  0  0  0  0  2  0  0  0  0  0  0
  161.2240  204.3430  144.7920 C   0  0  0  0  0  2  0  0  0  0  0  0
  161.1820  205.6370  145.5250 C   0  0  0  0  0  0  0  0  0  0  0  0
  160.0790  206.2020  145.7400 O   0  0  0  0  0  0  0  0  0  0  0  0
  162.3560  206.2070  145.9980 O   0  0  0  0  0  1  0  0  0  0  0  0
  161.2410  208.1300  153.9830 C   0  0  0  0  0  2  0  0  0  0  0  0
  161.1580  209.6180  153.6310 C   0  0  1  0  0  3  0  0  0  0  0  0
  159.2870  211.2890  153.2390 C   0  0  0  0  0  0  0  0  0  0  0  0
  157.9030  211.7330  153.5510 C   0  0  0  0  0  1  0  0  0  0  0  0
  159.8260  210.1450  153.9050 N   0  0  0  0  0  2  0  0  0  0  0  0
  159.9910  211.9480  152.3800 N   0  0  0  0  0  2  0  0  0  0  0  0
  162.1960  210.4320  154.3940 C   0  0  0  0  0  2  0  0  0  0  0  0
  161.8300  210.5530  155.8660 C   0  0  0  0  0  2  0  0  0  0  0  0
  163.0800  210.5360  156.7260 C   0  0  0  0  0  1  0  0  0  0  0  0
  1 15  2  0  0  0  0
  1 16  1  0  0  0  0
  2  3  1  0  0  0  0
  3 13  1  0  0  0  0
  4 12  1  0  0  0  0
  4 10  1  0  0  0  0
  4 15  1  0  0  0  0
  5 11  2  0  0  0  0
  5  7  1  0  0  0  0
  6  2  1  0  0  0  0
  6  8  1  0  0  0  0
  7  1  1  0  0  0  0
  8  7  2  0  0  0  0
  8 14  1  0  0  0  0
  9 16  1  0  0  0  0
  9 24  1  0  0  0  0
 11  4  1  0  0  0  0
 12 10  1  0  0  0  0
 14 13  1  6  0  0  0
 14  9  1  0  0  0  0
 17 11  1  0  0  0  0
 18 17  1  0  0  0  0
 19 18  1  0  0  0  0
 20 21  1  0  0  0  0
 20 19  1  0  0  0  0
 21 22  2  0  0  0  0
 21 23  1  0  0  0  0
 25 28  1  0  0  0  0
 25 24  1  1  0  0  0
 25 30  1  0  0  0  0
 26 27  1  0  0  0  0
 26 28  1  0  0  0  0
 29 26  2  0  0  0  0
 30 31  1  0  0  0  0
 31 32  1  0  0  0  0
M  END
>  <MODEL>
7

>  <REMARK>
 VINA RESULT:      -6.5      2.180      4.701
  Name = 
  10 active torsions:
  status: ('A' for Active; 'I' for Inactive)
    1  A    between atoms: C_1  and  C_10
    2  A    between atoms: O_2  and  C_12
    3  A    between atoms: O_2  and  C_24
    4  A    between atoms: C_6  and  C_7
    5  A    between atoms: C_7  and  C_32
    6  A    between atoms: C_10  and  C_24
    7  A    between atoms: C_12  and  C_21
    8  A    between atoms: N_16  and  C_27
    9  A    between atoms: N_22  and  C_32
   10  A    between atoms: C_27  and  C_32
                            x       y       z     vdW  Elec       q    Type
                         _______ _______ _______ _____ _____    ______ ____

>  <TORSDO>
F 10

$$$$
=
 OpenBabel11062410493D

 32 35  0  0  1  0  0  0  0  0999 V2000
  161.2080  209.3990  151.3690 C   0  0  0  0  0  0  0  0  0  0  0  0
  159.6820  209.0800  156.0120 C   0  0  0  0  0  2  0  0  0  0  0  0
  159.6190  210.5980  156.0960 C   0  0  0  0  0  2  0  0  0  0  0  0
  161.6930  207.2820  150.2300 C   0  0  0  0  0  0  0  0  0  0  0  0
  161.4280  207.2150  152.6730 C   0  0  0  0  0  3  0  0  0  0  0  0
  160.8330  208.6550  155.1070 C   0  0  0  0  0  2  0  0  0  0  0  0
  161.1010  208.6610  152.6470 C   0  0  0  0  0  0  0  0  0  0  0  0
  160.7400  209.3240  153.7610 C   0  0  0  0  0  0  0  0  0  0  0  0
  160.0690  211.2820  152.3660 N   0  0  0  0  0  0  0  0  0  0  0  0
  160.8740  206.5990  149.1570 C   0  0  0  0  0  2  0  0  0  0  0  0
  161.7180  206.5490  151.5500 C   0  0  0  0  0  0  0  0  0  0  0  0
  162.3900  206.6730  149.0320 C   0  0  0  0  0  2  0  0  0  0  0  0
  159.3330  211.1660  154.7130 C   0  0  0  0  0  2  0  0  0  0  0  0
  160.4530  210.8250  153.7180 C   0  0  1  0  0  3  0  0  0  0  0  0
  161.5210  208.7690  150.2350 C   0  0  0  0  0  3  0  0  0  0  0  0
  161.0870  210.8830  151.3940 C   0  0  0  0  0  2  0  0  0  0  0  0
  162.0970  205.1050  151.6350 C   0  0  0  0  0  2  0  0  0  0  0  0
  161.1160  204.3940  152.3290 O   0  0  0  0  0  0  0  0  0  0  0  0
  160.3840  203.7480  151.3350 C   0  0  0  0  0  2  0  0  0  0  0  0
  161.2900  202.7920  150.5820 C   0  0  0  0  0  2  0  0  0  0  0  0
  160.7380  202.5370  149.2250 C   0  0  0  0  0  0  0  0  0  0  0  0
  161.2240  203.1300  148.2280 O   0  0  0  0  0  0  0  0  0  0  0  0
  159.7090  201.6210  149.0520 O   0  0  0  0  0  1  0  0  0  0  0  0
  160.0710  212.7430  152.3600 C   0  0  0  0  0  2  0  0  0  0  0  0
  159.5600  213.2980  151.0270 C   0  0  1  0  0  3  0  0  0  0  0  0
  157.2310  213.6410  150.0740 C   0  0  0  0  0  0  0  0  0  0  0  0
  155.8280  214.0780  150.2940 C   0  0  0  0  0  1  0  0  0  0  0  0
  158.1750  213.7410  151.1430 N   0  0  0  0  0  2  0  0  0  0  0  0
  157.5860  213.1890  148.9180 N   0  0  0  0  0  2  0  0  0  0  0  0
  160.4250  214.4520  150.5340 C   0  0  0  0  0  2  0  0  0  0  0  0
  161.0090  214.1580  149.1600 C   0  0  0  0  0  2  0  0  0  0  0  0
  160.9030  212.6780  148.8450 C   0  0  0  0  0  1  0  0  0  0  0  0
  1 16  1  0  0  0  0
  1  7  1  0  0  0  0
  2  3  1  0  0  0  0
  4 15  1  0  0  0  0
  4 11  1  0  0  0  0
  6  2  1  0  0  0  0
  7  5  1  0  0  0  0
  7  8  2  0  0  0  0
  8  6  1  0  0  0  0
  9 14  1  0  0  0  0
 10  4  1  0  0  0  0
 11 17  1  0  0  0  0
 11  5  2  0  0  0  0
 12 10  1  0  0  0  0
 12  4  1  0  0  0  0
 13  3  1  0  0  0  0
 14  8  1  0  0  0  0
 14 13  1  1  0  0  0
 15  1  2  0  0  0  0
 16  9  1  0  0  0  0
 17 18  1  0  0  0  0
 19 18  1  0  0  0  0
 20 19  1  0  0  0  0
 21 20  1  0  0  0  0
 22 21  2  0  0  0  0
 23 21  1  0  0  0  0
 24  9  1  0  0  0  0
 25 30  1  1  0  0  0
 25 28  1  0  0  0  0
 25 24  1  0  0  0  0
 26 27  1  0  0  0  0
 26 28  1  0  0  0  0
 29 26  2  0  0  0  0
 31 30  1  0  0  0  0
 32 31  1  0  0  0  0
M  END
>  <MODEL>
8

>  <REMARK>
 VINA RESULT:      -6.2      1.818      2.517
  Name = 
  10 active torsions:
  status: ('A' for Active; 'I' for Inactive)
    1  A    between atoms: C_1  and  C_10
    2  A    between atoms: O_2  and  C_12
    3  A    between atoms: O_2  and  C_24
    4  A    between atoms: C_6  and  C_7
    5  A    between atoms: C_7  and  C_32
    6  A    between atoms: C_10  and  C_24
    7  A    between atoms: C_12  and  C_21
    8  A    between atoms: N_16  and  C_27
    9  A    between atoms: N_22  and  C_32
   10  A    between atoms: C_27  and  C_32
                            x       y       z     vdW  Elec       q    Type
                         _______ _______ _______ _____ _____    ______ ____

>  <TORSDO>
F 10

$$$$
=
 OpenBabel11062410493D

 32 35  0  0  1  0  0  0  0  0999 V2000
  161.1250  206.5830  152.1290 C   0  0  0  0  0  0  0  0  0  0  0  0
  162.3940  209.6890  148.5610 C   0  0  0  0  0  2  0  0  0  0  0  0
  162.2200  210.8610  149.5170 C   0  0  0  0  0  2  0  0  0  0  0  0
  161.0400  204.2070  151.5300 C   0  0  0  0  0  0  0  0  0  0  0  0
  161.1610  205.8320  149.6890 C   0  0  0  0  0  3  0  0  0  0  0  0
  161.3800  208.5990  148.8820 C   0  0  0  0  0  2  0  0  0  0  0  0
  161.2650  206.9180  150.6940 C   0  0  0  0  0  0  0  0  0  0  0  0
  161.4520  208.2000  150.3330 C   0  0  0  0  0  0  0  0  0  0  0  0
  161.9000  208.7960  152.7140 N   0  0  0  0  0  0  0  0  0  0  0  0
  162.0180  203.1190  151.9160 C   0  0  0  0  0  2  0  0  0  0  0  0
  161.0460  204.5520  150.0600 C   0  0  0  0  0  0  0  0  0  0  0  0
  160.5180  202.8560  151.9700 C   0  0  0  0  0  2  0  0  0  0  0  0
  162.5000  210.3930  150.9390 C   0  0  0  0  0  2  0  0  0  0  0  0
  161.5080  209.3080  151.3840 C   0  0  1  0  0  3  0  0  0  0  0  0
  160.9830  205.3200  152.5310 C   0  0  0  0  0  3  0  0  0  0  0  0
  161.0170  207.6990  153.1090 C   0  0  0  0  0  2  0  0  0  0  0  0
  160.8870  203.5000  149.0090 C   0  0  0  0  0  2  0  0  0  0  0  0
  161.7670  203.7430  147.9540 O   0  0  0  0  0  0  0  0  0  0  0  0
  161.2400  203.0180  146.8860 C   0  0  0  0  0  2  0  0  0  0  0  0
  160.3810  201.8880  147.4180 C   0  0  0  0  0  2  0  0  0  0  0  0
  161.1400  200.6100  147.3690 C   0  0  0  0  0  0  0  0  0  0  0  0
  161.7030  200.1730  148.4070 O   0  0  0  0  0  1  0  0  0  0  0  0
  161.2030  199.8830  146.1890 O   0  0  0  0  0  0  0  0  0  0  0  0
  161.6760  209.8540  153.6960 C   0  0  0  0  0  2  0  0  0  0  0  0
  160.1860  210.0180  154.0120 C   0  0  1  0  0  3  0  0  0  0  0  0
  158.7090  210.8420  155.9060 C   0  0  0  0  0  0  0  0  0  0  0  0
  158.6090  211.4480  157.2600 C   0  0  0  0  0  1  0  0  0  0  0  0
  159.9960  210.6420  155.3170 N   0  0  0  0  0  2  0  0  0  0  0  0
  157.6320  210.5150  155.2720 N   0  0  0  0  0  2  0  0  0  0  0  0
  159.4760  210.8420  152.9440 C   0  0  0  0  0  2  0  0  0  0  0  0
  159.8900  212.3040  153.0080 C   0  0  0  0  0  2  0  0  0  0  0  0
  159.9180  212.9080  151.6160 C   0  0  0  0  0  1  0  0  0  0  0  0
  1 15  2  0  0  0  0
  1 16  1  0  0  0  0
  2  6  1  0  0  0  0
  2  3  1  0  0  0  0
  3 13  1  0  0  0  0
  4 10  1  0  0  0  0
  4 12  1  0  0  0  0
  4 15  1  0  0  0  0
  5 11  2  0  0  0  0
  5  7  1  0  0  0  0
  6  8  1  0  0  0  0
  7  1  1  0  0  0  0
  8  7  2  0  0  0  0
  8 14  1  0  0  0  0
  9 16  1  0  0  0  0
  9 24  1  0  0  0  0
 10 12  1  0  0  0  0
 11  4  1  0  0  0  0
 14 13  1  6  0  0  0
 14  9  1  0  0  0  0
 17 11  1  0  0  0  0
 18 17  1  0  0  0  0
 19 20  1  0  0  0  0
 19 18  1  0  0  0  0
 21 20  1  0  0  0  0
 21 22  1  0  0  0  0
 23 21  2  0  0  0  0
 24 25  1  0  0  0  0
 25 30  1  6  0  0  0
 25 28  1  0  0  0  0
 26 27  1  0  0  0  0
 28 26  1  0  0  0  0
 29 26  2  0  0  0  0
 30 31  1  0  0  0  0
 32 31  1  0  0  0  0
M  END
>  <MODEL>
9

>  <REMARK>
 VINA RESULT:      -5.9      1.735      3.575
  Name = 
  10 active torsions:
  status: ('A' for Active; 'I' for Inactive)
    1  A    between atoms: C_1  and  C_10
    2  A    between atoms: O_2  and  C_12
    3  A    between atoms: O_2  and  C_24
    4  A    between atoms: C_6  and  C_7
    5  A    between atoms: C_7  and  C_32
    6  A    between atoms: C_10  and  C_24
    7  A    between atoms: C_12  and  C_21
    8  A    between atoms: N_16  and  C_27
    9  A    between atoms: N_22  and  C_32
   10  A    between atoms: C_27  and  C_32
                            x       y       z     vdW  Elec       q    Type
                         _______ _______ _______ _____ _____    ______ ____

>  <TORSDO>
F 10

$$$$
