=
 OpenBabel11062408133D

 34 38  0  0  1  0  0  0  0  0999 V2000
  160.8640  206.3440  150.5980 C   0  0  1  0  0  3  0  0  0  0  0  0
  162.3210  205.9500  152.7450 C   0  0  0  0  0  2  0  0  0  0  0  0
  159.8770  211.5820  156.8580 O   0  0  0  0  0  0  0  0  0  0  0  0
  162.0500  208.3480  151.8160 C   0  0  1  0  0  3  0  0  0  0  0  0
  160.0470  209.9080  152.3360 C   0  0  1  0  0  3  0  0  0  0  0  0
  161.7290  209.1840  154.1750 C   0  0  0  0  0  2  0  0  0  0  0  0
  161.9420  206.8420  151.5810 C   0  0  0  0  0  0  0  0  0  0  0  0
  161.3510  210.5650  154.7080 C   0  0  0  0  0  2  0  0  0  0  0  0
  159.1450  210.4320  153.4540 C   0  0  0  0  0  2  0  0  0  0  0  0
  161.9960  209.1110  150.4770 C   0  0  2  0  0  3  0  0  0  0  0  0
  160.9290  207.1490  149.3020 C   0  0  0  0  0  2  0  0  0  0  0  0
  163.2800  206.1320  151.5710 C   0  0  0  0  0  2  0  0  0  0  0  0
  160.7510  211.0690  151.6190 C   0  0  0  0  0  2  0  0  0  0  0  0
  161.9430  210.6200  150.7590 C   0  0  2  0  0  3  0  0  0  0  0  0
  159.9000  210.7400  154.6750 N   0  0  0  0  0  0  0  0  0  0  0  0
  161.0210  208.8270  152.8590 C   0  0  2  0  0  3  0  0  0  0  0  0
  160.8260  208.6430  149.5940 C   0  0  0  0  0  2  0  0  0  0  0  0
  159.2240  211.2720  155.8250 C   0  0  0  0  0  0  0  0  0  0  0  0
  161.3750  213.2610  148.1150 C   0  0  0  0  0  0  0  0  0  0  0  0
  162.4600  213.0800  147.3160 N   0  0  0  0  0  0  0  0  0  0  0  0
  162.1330  211.4660  149.5380 C   0  0  0  0  0  0  0  0  0  0  0  0
  163.3910  212.1250  147.5840 C   0  0  0  0  0  3  0  0  0  0  0  0
  161.1950  212.4570  149.2430 C   0  0  0  0  0  3  0  0  0  0  0  0
  163.2460  211.3010  148.7010 C   0  0  0  0  0  3  0  0  0  0  0  0
  160.4700  214.2240  147.8190 F   0  0  0  0  0  0  0  0  0  0  0  0
  160.8920  204.8710  150.3130 C   0  0  0  0  0  0  0  0  0  0  0  0
  160.4080  203.9590  151.2430 O   0  0  0  0  0  1  0  0  0  0  0  0
  161.3370  204.4610  149.2100 O   0  0  0  0  0  0  0  0  0  0  0  0
  157.7370  211.4380  155.8380 C   0  0  0  0  0  2  0  0  0  0  0  0
  157.3590  212.9050  156.0090 C   0  0  0  0  0  3  0  0  0  0  0  0
  157.7590  213.7470  154.7930 C   0  0  0  0  0  2  0  0  0  0  0  0
  156.8930  213.4570  153.5740 C   0  0  0  0  0  1  0  0  0  0  0  0
  155.8740  213.0260  156.3200 C   0  0  0  0  0  2  0  0  0  0  0  0
  155.3760  211.7740  157.0190 C   0  0  0  0  0  1  0  0  0  0  0  0
  1 26  1  6  0  0  0
  1  7  1  0  0  0  0
  4  7  1  6  0  0  0
  4 16  1  0  0  0  0
  5 13  1  1  0  0  0
  5 16  1  0  0  0  0
  5  9  1  0  0  0  0
  6  8  1  0  0  0  0
  7  2  1  0  0  0  0
  9 15  1  0  0  0  0
 10 17  1  1  0  0  0
 10 14  1  0  0  0  0
 10  4  1  0  0  0  0
 11 17  1  0  0  0  0
 11  1  1  0  0  0  0
 12  7  1  0  0  0  0
 12  2  1  0  0  0  0
 14 21  1  6  0  0  0
 14 13  1  0  0  0  0
 15  8  1  0  0  0  0
 15 18  1  0  0  0  0
 16  6  1  1  0  0  0
 18 29  1  0  0  0  0
 18  3  2  0  0  0  0
 19 23  1  0  0  0  0
 20 22  1  0  0  0  0
 20 19  2  0  0  0  0
 22 24  2  0  0  0  0
 23 21  2  0  0  0  0
 24 21  1  0  0  0  0
 25 19  1  0  0  0  0
 26 27  1  0  0  0  0
 28 26  2  0  0  0  0
 29 30  1  0  0  0  0
 30 33  1  0  0  0  0
 31 30  1  0  0  0  0
 32 31  1  0  0  0  0
 33 34  1  0  0  0  0
M  END
>  <MODEL>
1

>  <REMARK>
 VINA RESULT:      -4.3      0.000      0.000
  Name = 
  6 active torsions:
  status: ('A' for Active; 'I' for Inactive)
    1  A    between atoms: C_1  and  C_6
    2  A    between atoms: C_11  and  C_20
    3  A    between atoms: C_12  and  C_28
    4  A    between atoms: C_13  and  C_20
    5  A    between atoms: C_13  and  C_33
    6  A    between atoms: C_14  and  C_20
                            x       y       z     vdW  Elec       q    Type
                         _______ _______ _______ _____ _____    ______ ____

>  <TORSDO>
F 6

$$$$
=
 OpenBabel11062408133D

 34 38  0  0  1  0  0  0  0  0999 V2000
  160.8380  206.3320  150.6520 C   0  0  1  0  0  3  0  0  0  0  0  0
  162.3100  205.9110  152.7840 C   0  0  0  0  0  2  0  0  0  0  0  0
  159.8980  211.4910  156.9850 O   0  0  0  0  0  0  0  0  0  0  0  0
  162.0330  208.3200  151.8870 C   0  0  1  0  0  3  0  0  0  0  0  0
  160.0350  209.8740  152.4410 C   0  0  1  0  0  3  0  0  0  0  0  0
  161.7290  209.1270  154.2590 C   0  0  0  0  0  2  0  0  0  0  0  0
  161.9230  206.8180  151.6340 C   0  0  0  0  0  0  0  0  0  0  0  0
  161.3560  210.5000  154.8120 C   0  0  0  0  0  2  0  0  0  0  0  0
  159.1410  210.3840  153.5720 C   0  0  0  0  0  2  0  0  0  0  0  0
  161.9700  209.1010  150.5580 C   0  0  2  0  0  3  0  0  0  0  0  0
  160.8940  207.1540  149.3660 C   0  0  0  0  0  2  0  0  0  0  0  0
  163.2610  206.1070  151.6050 C   0  0  0  0  0  2  0  0  0  0  0  0
  160.7340  211.0440  151.7340 C   0  0  0  0  0  2  0  0  0  0  0  0
  161.9200  210.6050  150.8600 C   0  0  2  0  0  3  0  0  0  0  0  0
  159.9050  210.6770  154.7920 N   0  0  0  0  0  0  0  0  0  0  0  0
  161.0120  208.7870  152.9430 C   0  0  2  0  0  3  0  0  0  0  0  0
  160.7930  208.6440  149.6770 C   0  0  0  0  0  2  0  0  0  0  0  0
  159.2370  211.1940  155.9530 C   0  0  0  0  0  0  0  0  0  0  0  0
  163.3580  212.0270  147.6660 C   0  0  0  0  0  0  0  0  0  0  0  0
  162.4580  213.0050  147.3770 N   0  0  0  0  0  0  0  0  0  0  0  0
  162.1020  211.4670  149.6480 C   0  0  0  0  0  0  0  0  0  0  0  0
  161.3850  213.2440  148.1780 C   0  0  0  0  0  3  0  0  0  0  0  0
  163.1930  211.2390  148.8070 C   0  0  0  0  0  3  0  0  0  0  0  0
  161.1850  212.4780  149.3280 C   0  0  0  0  0  3  0  0  0  0  0  0
  164.4140  211.8160  146.8450 F   0  0  0  0  0  0  0  0  0  0  0  0
  160.8640  204.8630  150.3480 C   0  0  0  0  0  0  0  0  0  0  0  0
  160.3820  203.9400  151.2690 O   0  0  0  0  0  1  0  0  0  0  0  0
  161.3030  204.4670  149.2380 O   0  0  0  0  0  0  0  0  0  0  0  0
  157.7510  211.3610  155.9790 C   0  0  0  0  0  2  0  0  0  0  0  0
  157.3750  212.8290  156.1490 C   0  0  0  0  0  3  0  0  0  0  0  0
  157.6500  213.6420  154.8790 C   0  0  0  0  0  2  0  0  0  0  0  0
  156.7160  213.2710  153.7350 C   0  0  0  0  0  1  0  0  0  0  0  0
  155.9240  212.9440  156.5940 C   0  0  0  0  0  2  0  0  0  0  0  0
  155.3600  211.5740  156.9210 C   0  0  0  0  0  1  0  0  0  0  0  0
  1 26  1  6  0  0  0
  1  7  1  0  0  0  0
  4  7  1  6  0  0  0
  4 16  1  0  0  0  0
  5 13  1  1  0  0  0
  5 16  1  0  0  0  0
  5  9  1  0  0  0  0
  6  8  1  0  0  0  0
  7  2  1  0  0  0  0
  9 15  1  0  0  0  0
 10 17  1  1  0  0  0
 10 14  1  0  0  0  0
 10  4  1  0  0  0  0
 11 17  1  0  0  0  0
 11  1  1  0  0  0  0
 12  7  1  0  0  0  0
 12  2  1  0  0  0  0
 14 21  1  6  0  0  0
 14 13  1  0  0  0  0
 15  8  1  0  0  0  0
 15 18  1  0  0  0  0
 16  6  1  1  0  0  0
 18 29  1  0  0  0  0
 18  3  2  0  0  0  0
 19 23  1  0  0  0  0
 20 19  2  0  0  0  0
 20 22  1  0  0  0  0
 22 24  2  0  0  0  0
 23 21  2  0  0  0  0
 24 21  1  0  0  0  0
 25 19  1  0  0  0  0
 26 27  1  0  0  0  0
 28 26  2  0  0  0  0
 29 30  1  0  0  0  0
 30 33  1  0  0  0  0
 31 30  1  0  0  0  0
 32 31  1  0  0  0  0
 33 34  1  0  0  0  0
M  END
>  <MODEL>
2

>  <REMARK>
 VINA RESULT:      -4.1      0.820      1.161
  Name = 
  6 active torsions:
  status: ('A' for Active; 'I' for Inactive)
    1  A    between atoms: C_1  and  C_6
    2  A    between atoms: C_11  and  C_20
    3  A    between atoms: C_12  and  C_28
    4  A    between atoms: C_13  and  C_20
    5  A    between atoms: C_13  and  C_33
    6  A    between atoms: C_14  and  C_20
                            x       y       z     vdW  Elec       q    Type
                         _______ _______ _______ _____ _____    ______ ____

>  <TORSDO>
F 6

$$$$
=
 OpenBabel11062408133D

 34 38  0  0  1  0  0  0  0  0999 V2000
  158.6760  212.9530  149.6710 C   0  0  1  0  0  3  0  0  0  0  0  0
  161.1660  212.8680  148.8450 C   0  0  0  0  0  2  0  0  0  0  0  0
  163.2590  206.5790  152.1120 O   0  0  0  0  0  0  0  0  0  0  0  0
  160.6280  212.3260  151.3160 C   0  0  1  0  0  3  0  0  0  0  0  0
  159.8640  210.0060  152.1790 C   0  0  1  0  0  3  0  0  0  0  0  0
  162.2380  210.3860  151.2010 C   0  0  0  0  0  2  0  0  0  0  0  0
  160.1840  212.9530  149.9950 C   0  0  0  0  0  0  0  0  0  0  0  0
  162.5540  209.2840  152.2100 C   0  0  0  0  0  2  0  0  0  0  0  0
  160.1390  208.5040  152.0970 C   0  0  0  0  0  2  0  0  0  0  0  0
  159.7190  212.7960  152.4710 C   0  0  2  0  0  3  0  0  0  0  0  0
  157.8850  213.4660  150.8730 C   0  0  0  0  0  2  0  0  0  0  0  0
  160.9830  214.1790  149.6050 C   0  0  0  0  0  2  0  0  0  0  0  0
  159.9720  210.4980  153.6300 C   0  0  0  0  0  2  0  0  0  0  0  0
  160.0910  212.0260  153.7470 C   0  0  2  0  0  3  0  0  0  0  0  0
  161.5760  208.2030  152.1020 N   0  0  0  0  0  0  0  0  0  0  0  0
  160.7560  210.7950  151.1950 C   0  0  2  0  0  3  0  0  0  0  0  0
  158.2270  212.6600  152.1220 C   0  0  0  0  0  2  0  0  0  0  0  0
  162.0270  206.8410  152.0600 C   0  0  0  0  0  0  0  0  0  0  0  0
  157.4440  213.2040  156.1760 C   0  0  0  0  0  0  0  0  0  0  0  0
  158.1980  213.5280  157.2600 N   0  0  0  0  0  0  0  0  0  0  0  0
  159.4440  212.5680  154.9840 C   0  0  0  0  0  0  0  0  0  0  0  0
  159.5520  213.3890  157.2530 C   0  0  0  0  0  3  0  0  0  0  0  0
  158.0550  212.7150  155.0180 C   0  0  0  0  0  3  0  0  0  0  0  0
  160.2000  212.9040  156.1160 C   0  0  0  0  0  3  0  0  0  0  0  0
  156.0990  213.3530  156.2190 F   0  0  0  0  0  0  0  0  0  0  0  0
  158.2920  213.6940  148.4240 C   0  0  0  0  0  0  0  0  0  0  0  0
  159.0190  213.5330  147.2510 O   0  0  0  0  0  0  0  0  0  0  0  0
  157.2860  214.4490  148.4360 O   0  0  0  0  0  1  0  0  0  0  0  0
  161.0570  205.7100  151.9210 C   0  0  0  0  0  2  0  0  0  0  0  0
  161.2030  205.0380  150.5600 C   0  0  0  0  0  3  0  0  0  0  0  0
  160.7690  203.5680  150.5970 C   0  0  0  0  0  2  0  0  0  0  0  0
  160.8260  202.9100  149.2250 C   0  0  0  0  0  1  0  0  0  0  0  0
  160.4400  205.8290  149.5070 C   0  0  0  0  0  2  0  0  0  0  0  0
  161.4050  206.4990  148.5480 C   0  0  0  0  0  1  0  0  0  0  0  0
  1 26  1  6  0  0  0
  1  7  1  0  0  0  0
  1 11  1  0  0  0  0
  2 12  1  0  0  0  0
  2  7  1  0  0  0  0
  4  7  1  6  0  0  0
  4 10  1  0  0  0  0
  5  9  1  1  0  0  0
  5 13  1  0  0  0  0
  6  8  1  0  0  0  0
  9 15  1  0  0  0  0
 10 17  1  6  0  0  0
 10 14  1  0  0  0  0
 11 17  1  0  0  0  0
 12  7  1  0  0  0  0
 13 14  1  0  0  0  0
 14 21  1  1  0  0  0
 15  8  1  0  0  0  0
 16  6  1  1  0  0  0
 16  4  1  0  0  0  0
 16  5  1  0  0  0  0
 18 15  1  0  0  0  0
 18  3  2  0  0  0  0
 19 25  1  0  0  0  0
 19 20  1  0  0  0  0
 21 23  1  0  0  0  0
 21 24  2  0  0  0  0
 22 20  2  0  0  0  0
 23 19  2  0  0  0  0
 24 22  1  0  0  0  0
 26 28  1  0  0  0  0
 27 26  2  0  0  0  0
 29 18  1  0  0  0  0
 30 31  1  0  0  0  0
 30 29  1  0  0  0  0
 32 31  1  0  0  0  0
 33 30  1  0  0  0  0
 34 33  1  0  0  0  0
M  END
>  <MODEL>
3

>  <REMARK>
 VINA RESULT:      -3.0      3.395      7.819
  Name = 
  6 active torsions:
  status: ('A' for Active; 'I' for Inactive)
    1  A    between atoms: C_1  and  C_6
    2  A    between atoms: C_11  and  C_20
    3  A    between atoms: C_12  and  C_28
    4  A    between atoms: C_13  and  C_20
    5  A    between atoms: C_13  and  C_33
    6  A    between atoms: C_14  and  C_20
                            x       y       z     vdW  Elec       q    Type
                         _______ _______ _______ _____ _____    ______ ____

>  <TORSDO>
F 6

$$$$
=
 OpenBabel11062408133D

 34 38  0  0  1  0  0  0  0  0999 V2000
  160.4180  211.8380  149.3470 C   0  0  1  0  0  3  0  0  0  0  0  0
  162.6910  210.9850  148.3490 C   0  0  0  0  0  2  0  0  0  0  0  0
  162.7650  204.1930  151.2600 O   0  0  0  0  0  0  0  0  0  0  0  0
  162.1400  210.5200  150.8330 C   0  0  1  0  0  3  0  0  0  0  0  0
  160.7010  208.5350  151.6720 C   0  0  1  0  0  3  0  0  0  0  0  0
  163.0100  208.1680  150.5450 C   0  0  0  0  0  2  0  0  0  0  0  0
  161.8560  211.3260  149.5670 C   0  0  0  0  0  0  0  0  0  0  0  0
  163.0000  206.9710  151.4940 C   0  0  0  0  0  2  0  0  0  0  0  0
  160.4590  207.0320  151.5230 C   0  0  0  0  0  2  0  0  0  0  0  0
  161.5010  211.1980  152.0620 C   0  0  2  0  0  3  0  0  0  0  0  0
  159.9070  212.5160  150.6170 C   0  0  0  0  0  2  0  0  0  0  0  0
  162.9930  212.2420  149.1620 C   0  0  0  0  0  2  0  0  0  0  0  0
  161.0440  208.8870  153.1260 C   0  0  0  0  0  2  0  0  0  0  0  0
  161.6670  210.2830  153.2840 C   0  0  2  0  0  3  0  0  0  0  0  0
  161.7150  206.2780  151.4190 N   0  0  0  0  0  0  0  0  0  0  0  0
  161.7490  209.0400  150.6540 C   0  0  2  0  0  3  0  0  0  0  0  0
  160.0310  211.5780  151.8130 C   0  0  0  0  0  2  0  0  0  0  0  0
  161.6870  204.8470  151.3020 C   0  0  0  0  0  0  0  0  0  0  0  0
  159.8390  212.3900  155.8360 C   0  0  0  0  0  0  0  0  0  0  0  0
  160.5690  212.1480  156.9580 N   0  0  0  0  0  0  0  0  0  0  0  0
  161.3030  210.9410  154.5800 C   0  0  0  0  0  0  0  0  0  0  0  0
  161.6510  211.3230  156.9390 C   0  0  0  0  0  3  0  0  0  0  0  0
  160.1940  211.7870  154.6260 C   0  0  0  0  0  3  0  0  0  0  0  0
  162.0370  210.7020  155.7500 C   0  0  0  0  0  3  0  0  0  0  0  0
  158.7660  213.2150  155.8920 F   0  0  0  0  0  0  0  0  0  0  0  0
  160.2320  212.7280  148.1540 C   0  0  0  0  0  0  0  0  0  0  0  0
  160.0110  212.1870  146.8930 O   0  0  0  0  0  0  0  0  0  0  0  0
  160.2530  213.9770  148.3030 O   0  0  0  0  0  1  0  0  0  0  0  0
  160.3930  204.1050  151.1930 C   0  0  0  0  0  2  0  0  0  0  0  0
  160.1920  203.5720  149.7800 C   0  0  0  0  0  3  0  0  0  0  0  0
  160.8360  204.4800  148.7260 C   0  0  0  0  0  2  0  0  0  0  0  0
  161.5820  203.6940  147.6570 C   0  0  0  0  0  1  0  0  0  0  0  0
  160.7070  202.1420  149.6870 C   0  0  0  0  0  2  0  0  0  0  0  0
  159.5670  201.1880  149.3840 C   0  0  0  0  0  1  0  0  0  0  0  0
  1 26  1  6  0  0  0
  1  7  1  0  0  0  0
  1 11  1  0  0  0  0
  2 12  1  0  0  0  0
  2  7  1  0  0  0  0
  3 18  2  0  0  0  0
  4  7  1  6  0  0  0
  4 10  1  0  0  0  0
  5  9  1  1  0  0  0
  5 13  1  0  0  0  0
  6  8  1  0  0  0  0
 10 17  1  6  0  0  0
 10 14  1  0  0  0  0
 11 17  1  0  0  0  0
 12  7  1  0  0  0  0
 13 14  1  0  0  0  0
 14 21  1  1  0  0  0
 15  8  1  0  0  0  0
 15  9  1  0  0  0  0
 16  6  1  1  0  0  0
 16  4  1  0  0  0  0
 16  5  1  0  0  0  0
 18 15  1  0  0  0  0
 19 25  1  0  0  0  0
 19 20  1  0  0  0  0
 21 23  1  0  0  0  0
 21 24  2  0  0  0  0
 22 20  2  0  0  0  0
 23 19  2  0  0  0  0
 24 22  1  0  0  0  0
 26 28  1  0  0  0  0
 27 26  2  0  0  0  0
 29 18  1  0  0  0  0
 30 29  1  0  0  0  0
 31 30  1  0  0  0  0
 32 31  1  0  0  0  0
 33 30  1  0  0  0  0
 34 33  1  0  0  0  0
M  END
>  <MODEL>
4

>  <REMARK>
 VINA RESULT:      -1.5      3.151      7.725
  Name = 
  6 active torsions:
  status: ('A' for Active; 'I' for Inactive)
    1  A    between atoms: C_1  and  C_6
    2  A    between atoms: C_11  and  C_20
    3  A    between atoms: C_12  and  C_28
    4  A    between atoms: C_13  and  C_20
    5  A    between atoms: C_13  and  C_33
    6  A    between atoms: C_14  and  C_20
                            x       y       z     vdW  Elec       q    Type
                         _______ _______ _______ _____ _____    ______ ____

>  <TORSDO>
F 6

$$$$
