=
 OpenBabel11052421453D

 30 32  0  0  1  0  0  0  0  0999 V2000
  160.0070  211.4040  152.6010 C   0  0  0  0  0  0  0  0  0  0  0  0
  161.3480  209.9710  150.9670 C   0  0  2  0  0  3  0  0  0  0  0  0
  159.8050  211.3190  154.0730 C   0  0  1  0  0  3  0  0  0  0  0  0
  159.5790  212.4550  151.8990 C   0  0  0  0  0  3  0  0  0  0  0  0
  157.1560  213.8690  154.2230 N   0  0  0  0  0  2  0  0  0  0  0  0
  158.1190  213.1360  153.7620 C   0  0  0  0  0  0  0  0  0  0  0  0
  158.9720  213.6310  152.6080 C   0  0  2  0  0  3  0  0  0  0  0  0
  158.5200  211.9260  154.4530 N   0  0  0  0  0  0  0  0  0  0  0  0
  162.6700  209.5570  151.6110 C   0  0  0  0  0  2  0  0  0  0  0  0
  161.5230  211.1290  150.2070 O   0  0  0  0  0  1  0  0  0  0  0  0
  160.9560  206.8730  153.9010 C   0  0  0  0  0  1  0  0  0  0  0  0
  162.5210  208.4000  152.6180 C   0  0  0  0  0  2  0  0  0  0  0  0
  160.3280  210.1570  152.0050 N   0  0  0  0  0  0  0  0  0  0  0  0
  159.8970  209.8100  154.3600 C   0  0  1  0  0  3  0  0  0  0  0  0
  161.0750  207.9410  152.8300 C   0  0  2  0  0  3  0  0  0  0  0  0
  160.0770  209.1070  152.9850 C   0  0  2  0  0  3  0  0  0  0  0  0
  158.0330  212.2550  156.8490 C   0  0  0  0  0  1  0  0  0  0  0  0
  157.7880  211.4040  155.6120 C   0  0  1  0  0  3  0  0  0  0  0  0
  156.3020  211.2670  155.3030 C   0  0  0  0  0  2  0  0  0  0  0  0
  155.4660  211.4100  156.5640 C   0  0  0  0  0  2  0  0  0  0  0  0
  154.5760  210.3410  156.6760 O   0  0  0  0  0  1  0  0  0  0  0  0
  158.1770  214.4530  151.5970 C   0  0  0  0  0  2  0  0  0  0  0  0
  156.2080  214.1020  150.1060 C   0  0  0  0  0  1  0  0  0  0  0  0
  157.5640  213.5650  150.5240 C   0  0  0  0  0  2  0  0  0  0  0  0
  160.9100  209.4560  155.4690 C   0  0  1  0  0  3  0  0  0  0  0  0
  162.9300  210.6940  155.1480 O   0  0  0  0  0  0  0  0  0  0  0  0
  161.8860  210.5440  155.8330 C   0  0  0  0  0  0  0  0  0  0  0  0
  161.6900  211.3480  156.9930 N   0  0  0  0  0  1  0  0  0  0  0  0
  160.2000  208.9350  156.6800 C   0  0  0  0  0  3  0  0  0  0  0  0
  160.5060  207.7470  157.1950 C   0  0  0  0  0  2  0  0  0  0  0  0
  2 10  1  1  0  0  0
  2  9  1  0  0  0  0
  2 13  1  0  0  0  0
  3  1  1  6  0  0  0
  3 14  1  0  0  0  0
  3  8  1  0  0  0  0
  4  1  2  0  0  0  0
  4  7  1  0  0  0  0
  6  5  2  0  0  0  0
  6  8  1  0  0  0  0
  7 22  1  6  0  0  0
  7  6  1  0  0  0  0
  8 18  1  0  0  0  0
  9 12  1  0  0  0  0
 12 15  1  0  0  0  0
 13  1  1  0  0  0  0
 14 25  1  1  0  0  0
 15 16  1  0  0  0  0
 15 11  1  1  0  0  0
 16 13  1  6  0  0  0
 16 14  1  0  0  0  0
 18 17  1  1  0  0  0
 19 18  1  0  0  0  0
 19 20  1  0  0  0  0
 20 21  1  0  0  0  0
 23 24  1  0  0  0  0
 24 22  1  0  0  0  0
 25 27  1  0  0  0  0
 25 29  1  1  0  0  0
 26 27  2  0  0  0  0
 27 28  1  0  0  0  0
 29 30  2  0  0  0  0
M  END
>  <MODEL>
1

>  <REMARK>
 VINA RESULT:      -3.5      0.000      0.000
  Name = 
  8 active torsions:
  status: ('A' for Active; 'I' for Inactive)
    1  A    between atoms: C_7  and  C_16
    2  A    between atoms: C_7  and  C_30
    3  A    between atoms: C_9  and  C_12
    4  A    between atoms: C_9  and  C_21
    5  A    between atoms: C_10  and  C_25
    6  A    between atoms: C_11  and  C_25
    7  A    between atoms: N_13  and  C_30
    8  A    between atoms: C_23  and  C_25
                            x       y       z     vdW  Elec       q    Type
                         _______ _______ _______ _____ _____    ______ ____

>  <TORSDO>
F 8

$$$$
=
 OpenBabel11052421453D

 30 32  0  0  1  0  0  0  0  0999 V2000
  160.5500  210.6110  152.4120 C   0  0  0  0  0  0  0  0  0  0  0  0
  161.0800  208.3700  151.3080 C   0  0  2  0  0  3  0  0  0  0  0  0
  160.6630  211.0840  153.8180 C   0  0  1  0  0  3  0  0  0  0  0  0
  160.2650  211.4510  151.4150 C   0  0  0  0  0  3  0  0  0  0  0  0
  158.8640  214.2500  153.2780 N   0  0  0  0  0  2  0  0  0  0  0  0
  159.4780  213.1380  153.0280 C   0  0  0  0  0  0  0  0  0  0  0  0
  160.1540  212.9230  151.6850 C   0  0  2  0  0  3  0  0  0  0  0  0
  159.6950  212.1620  154.0780 N   0  0  0  0  0  0  0  0  0  0  0  0
  162.3590  207.7890  151.9110 C   0  0  0  0  0  2  0  0  0  0  0  0
  161.3760  209.0910  150.1510 O   0  0  0  0  0  1  0  0  0  0  0  0
  160.5580  206.7110  155.2250 C   0  0  0  0  0  1  0  0  0  0  0  0
  162.1420  207.1420  153.2920 C   0  0  0  0  0  2  0  0  0  0  0  0
  160.3980  209.2040  152.3040 N   0  0  0  0  0  0  0  0  0  0  0  0
  160.4220  209.8100  154.6450 C   0  0  1  0  0  3  0  0  0  0  0  0
  160.7100  207.2680  153.8220 C   0  0  2  0  0  3  0  0  0  0  0  0
  160.1070  208.6750  153.6310 C   0  0  2  0  0  3  0  0  0  0  0  0
  159.8080  213.4430  156.1840 C   0  0  0  0  0  1  0  0  0  0  0  0
  159.1270  212.3150  155.4220 C   0  0  1  0  0  3  0  0  0  0  0  0
  157.6170  212.5050  155.3580 C   0  0  0  0  0  2  0  0  0  0  0  0
  156.9010  211.1660  155.2830 C   0  0  0  0  0  2  0  0  0  0  0  0
  155.6600  211.3170  154.6620 O   0  0  0  0  0  1  0  0  0  0  0  0
  159.3960  213.5750  150.5320 C   0  0  0  0  0  2  0  0  0  0  0  0
  159.6840  213.3720  148.0620 C   0  0  0  0  0  1  0  0  0  0  0  0
  160.3180  213.8540  149.3540 C   0  0  0  0  0  2  0  0  0  0  0  0
  161.5290  209.5350  155.6860 C   0  0  1  0  0  3  0  0  0  0  0  0
  163.3710  210.6170  154.6140 O   0  0  0  0  0  0  0  0  0  0  0  0
  162.6940  210.4890  155.6670 C   0  0  0  0  0  0  0  0  0  0  0  0
  163.0970  211.1810  156.8450 N   0  0  0  0  0  1  0  0  0  0  0  0
  160.9400  209.4240  157.0580 C   0  0  0  0  0  3  0  0  0  0  0  0
  159.6360  209.5890  157.2600 C   0  0  0  0  0  2  0  0  0  0  0  0
  2 10  1  6  0  0  0
  2  9  1  0  0  0  0
  2 13  1  0  0  0  0
  3  1  1  6  0  0  0
  3  8  1  0  0  0  0
  3 14  1  0  0  0  0
  4  7  1  0  0  0  0
  4  1  2  0  0  0  0
  6  5  2  0  0  0  0
  6  8  1  0  0  0  0
  7 22  1  6  0  0  0
  7  6  1  0  0  0  0
  8 18  1  0  0  0  0
  9 12  1  0  0  0  0
 12 15  1  0  0  0  0
 13  1  1  0  0  0  0
 14 25  1  6  0  0  0
 15 11  1  1  0  0  0
 16 13  1  6  0  0  0
 16 15  1  0  0  0  0
 16 14  1  0  0  0  0
 18 17  1  6  0  0  0
 19 18  1  0  0  0  0
 20 19  1  0  0  0  0
 21 20  1  0  0  0  0
 23 24  1  0  0  0  0
 24 22  1  0  0  0  0
 25 29  1  1  0  0  0
 26 27  2  0  0  0  0
 27 25  1  0  0  0  0
 27 28  1  0  0  0  0
 29 30  2  0  0  0  0
M  END
>  <MODEL>
2

>  <REMARK>
 VINA RESULT:      -2.9      1.501      1.741
  Name = 
  8 active torsions:
  status: ('A' for Active; 'I' for Inactive)
    1  A    between atoms: C_7  and  C_16
    2  A    between atoms: C_7  and  C_30
    3  A    between atoms: C_9  and  C_12
    4  A    between atoms: C_9  and  C_21
    5  A    between atoms: C_10  and  C_25
    6  A    between atoms: C_11  and  C_25
    7  A    between atoms: N_13  and  C_30
    8  A    between atoms: C_23  and  C_25
                            x       y       z     vdW  Elec       q    Type
                         _______ _______ _______ _____ _____    ______ ____

>  <TORSDO>
F 8

$$$$
=
 OpenBabel11052421453D

 30 32  0  0  1  0  0  0  0  0999 V2000
  160.2110  210.7470  152.3340 C   0  0  0  0  0  0  0  0  0  0  0  0
  160.1040  213.0620  151.2620 C   0  0  2  0  0  3  0  0  0  0  0  0
  159.5850  210.1830  153.5610 C   0  0  1  0  0  3  0  0  0  0  0  0
  160.8600  209.9710  151.4640 C   0  0  0  0  0  3  0  0  0  0  0  0
  161.4960  207.0380  153.5270 N   0  0  0  0  0  2  0  0  0  0  0  0
  161.0060  208.1720  153.1390 C   0  0  0  0  0  0  0  0  0  0  0  0
  160.8810  208.4830  151.6580 C   0  0  2  0  0  3  0  0  0  0  0  0
  160.3990  209.0790  154.0930 N   0  0  0  0  0  0  0  0  0  0  0  0
  158.6860  213.6180  151.3790 C   0  0  0  0  0  2  0  0  0  0  0  0
  160.2730  212.4230  150.0330 O   0  0  0  0  0  1  0  0  0  0  0  0
  159.0990  214.4530  155.1900 C   0  0  0  0  0  1  0  0  0  0  0  0
  158.3610  214.1710  152.7800 C   0  0  0  0  0  2  0  0  0  0  0  0
  160.3740  212.1560  152.3840 N   0  0  0  0  0  0  0  0  0  0  0  0
  159.4820  211.3980  154.5000 C   0  0  1  0  0  3  0  0  0  0  0  0
  159.4910  213.9910  153.7980 C   0  0  2  0  0  3  0  0  0  0  0  0
  160.1400  212.5920  153.7550 C   0  0  2  0  0  3  0  0  0  0  0  0
  159.5450  207.6450  155.9100 C   0  0  0  0  0  1  0  0  0  0  0  0
  160.4240  208.8300  155.5390 C   0  0  1  0  0  3  0  0  0  0  0  0
  161.8530  208.6550  156.0380 C   0  0  0  0  0  2  0  0  0  0  0  0
  162.3730  209.9380  156.6650 C   0  0  0  0  0  2  0  0  0  0  0  0
  162.7260  210.8520  155.6700 O   0  0  0  0  0  1  0  0  0  0  0  0
  162.0240  207.8990  150.8330 C   0  0  0  0  0  2  0  0  0  0  0  0
  161.2580  205.6090  150.2010 C   0  0  0  0  0  1  0  0  0  0  0  0
  161.4980  207.0230  149.7050 C   0  0  0  0  0  2  0  0  0  0  0  0
  158.0630  211.6170  155.0660 C   0  0  1  0  0  3  0  0  0  0  0  0
  156.6580  211.3220  153.1550 O   0  0  0  0  0  0  0  0  0  0  0  0
  156.9480  210.9360  154.3160 C   0  0  0  0  0  0  0  0  0  0  0  0
  156.1600  209.9210  154.9330 N   0  0  0  0  0  1  0  0  0  0  0  0
  158.0230  211.2780  156.5240 C   0  0  0  0  0  3  0  0  0  0  0  0
  159.1310  211.2880  157.2600 C   0  0  0  0  0  2  0  0  0  0  0  0
  1 13  1  0  0  0  0
  2 10  1  6  0  0  0
  2  9  1  0  0  0  0
  2 13  1  0  0  0  0
  3  1  1  6  0  0  0
  3  8  1  0  0  0  0
  3 14  1  0  0  0  0
  4  7  1  0  0  0  0
  4  1  2  0  0  0  0
  6  5  2  0  0  0  0
  6  8  1  0  0  0  0
  7 22  1  6  0  0  0
  7  6  1  0  0  0  0
  8 18  1  0  0  0  0
  9 12  1  0  0  0  0
 12 15  1  0  0  0  0
 14 25  1  6  0  0  0
 15 11  1  1  0  0  0
 16 13  1  6  0  0  0
 16 15  1  0  0  0  0
 16 14  1  0  0  0  0
 18 17  1  6  0  0  0
 18 19  1  0  0  0  0
 19 20  1  0  0  0  0
 21 20  1  0  0  0  0
 24 23  1  0  0  0  0
 24 22  1  0  0  0  0
 25 29  1  1  0  0  0
 26 27  2  0  0  0  0
 27 28  1  0  0  0  0
 27 25  1  0  0  0  0
 29 30  2  0  0  0  0
M  END
>  <MODEL>
3

>  <REMARK>
 VINA RESULT:      -2.4      1.896      5.555
  Name = 
  8 active torsions:
  status: ('A' for Active; 'I' for Inactive)
    1  A    between atoms: C_7  and  C_16
    2  A    between atoms: C_7  and  C_30
    3  A    between atoms: C_9  and  C_12
    4  A    between atoms: C_9  and  C_21
    5  A    between atoms: C_10  and  C_25
    6  A    between atoms: C_11  and  C_25
    7  A    between atoms: N_13  and  C_30
    8  A    between atoms: C_23  and  C_25
                            x       y       z     vdW  Elec       q    Type
                         _______ _______ _______ _____ _____    ______ ____

>  <TORSDO>
F 8

$$$$
=
 OpenBabel11052421453D

 30 32  0  0  1  0  0  0  0  0999 V2000
  161.3720  208.9050  152.3370 C   0  0  0  0  0  0  0  0  0  0  0  0
  161.1870  206.6500  153.5220 C   0  0  2  0  0  3  0  0  0  0  0  0
  161.3050  210.3050  152.8370 C   0  0  1  0  0  3  0  0  0  0  0  0
  161.7290  208.6290  151.0820 C   0  0  0  0  0  3  0  0  0  0  0  0
  161.1910  211.8690  149.5070 N   0  0  0  0  0  2  0  0  0  0  0  0
  161.3290  210.9690  150.4280 C   0  0  0  0  0  0  0  0  0  0  0  0
  162.1740  209.7350  150.1710 C   0  0  2  0  0  3  0  0  0  0  0  0
  160.8410  211.2090  151.7720 N   0  0  0  0  0  0  0  0  0  0  0  0
  161.9060  206.7160  154.8690 C   0  0  0  0  0  2  0  0  0  0  0  0
  162.0440  206.1460  152.5420 O   0  0  0  0  0  1  0  0  0  0  0  0
  159.0320  208.8020  156.5380 C   0  0  0  0  0  1  0  0  0  0  0  0
  161.0910  207.4390  155.9590 C   0  0  0  0  0  2  0  0  0  0  0  0
  160.6820  207.9800  153.1640 N   0  0  0  0  0  0  0  0  0  0  0  0
  160.3520  210.2100  154.0410 C   0  0  1  0  0  3  0  0  0  0  0  0
  159.7580  208.0100  155.4660 C   0  0  2  0  0  3  0  0  0  0  0  0
  159.8660  208.7350  154.1080 C   0  0  2  0  0  3  0  0  0  0  0  0
  160.2970  213.5280  151.1290 C   0  0  0  0  0  1  0  0  0  0  0  0
  160.0630  212.4020  152.1250 C   0  0  1  0  0  3  0  0  0  0  0  0
  158.5830  212.0660  152.2660 C   0  0  0  0  0  2  0  0  0  0  0  0
  157.8530  213.1390  153.0560 C   0  0  0  0  0  2  0  0  0  0  0  0
  157.0780  212.5550  154.0600 O   0  0  0  0  0  1  0  0  0  0  0  0
  162.0820  209.2470  148.7280 C   0  0  0  0  0  2  0  0  0  0  0  0
  161.3470  207.0290  147.8530 C   0  0  0  0  0  1  0  0  0  0  0  0
  162.4250  207.7680  148.6230 C   0  0  0  0  0  2  0  0  0  0  0  0
  160.9340  210.8190  155.3340 C   0  0  1  0  0  3  0  0  0  0  0  0
  163.1810  210.7700  154.5200 O   0  0  0  0  0  0  0  0  0  0  0  0
  162.4210  210.6640  155.5170 C   0  0  0  0  0  0  0  0  0  0  0  0
  162.9730  210.3120  156.7820 N   0  0  0  0  0  1  0  0  0  0  0  0
  160.5150  212.2490  155.4740 C   0  0  0  0  0  3  0  0  0  0  0  0
  159.7560  212.6440  156.4930 C   0  0  0  0  0  2  0  0  0  0  0  0
  1 13  1  0  0  0  0
  2 10  1  6  0  0  0
  2  9  1  0  0  0  0
  3  1  1  6  0  0  0
  3 14  1  0  0  0  0
  4  1  2  0  0  0  0
  5  6  2  0  0  0  0
  6  8  1  0  0  0  0
  7 22  1  6  0  0  0
  7  6  1  0  0  0  0
  7  4  1  0  0  0  0
  8 18  1  0  0  0  0
  8  3  1  0  0  0  0
  9 12  1  0  0  0  0
 13  2  1  0  0  0  0
 14 16  1  0  0  0  0
 14 25  1  1  0  0  0
 15 12  1  0  0  0  0
 15 11  1  1  0  0  0
 16 13  1  6  0  0  0
 16 15  1  0  0  0  0
 18 17  1  6  0  0  0
 18 19  1  0  0  0  0
 19 20  1  0  0  0  0
 20 21  1  0  0  0  0
 23 24  1  0  0  0  0
 24 22  1  0  0  0  0
 25 29  1  6  0  0  0
 25 27  1  0  0  0  0
 26 27  2  0  0  0  0
 27 28  1  0  0  0  0
 29 30  2  0  0  0  0
M  END
>  <MODEL>
4

>  <REMARK>
 VINA RESULT:      -1.9      2.351      4.497
  Name = 
  8 active torsions:
  status: ('A' for Active; 'I' for Inactive)
    1  A    between atoms: C_7  and  C_16
    2  A    between atoms: C_7  and  C_30
    3  A    between atoms: C_9  and  C_12
    4  A    between atoms: C_9  and  C_21
    5  A    between atoms: C_10  and  C_25
    6  A    between atoms: C_11  and  C_25
    7  A    between atoms: N_13  and  C_30
    8  A    between atoms: C_23  and  C_25
                            x       y       z     vdW  Elec       q    Type
                         _______ _______ _______ _____ _____    ______ ____

>  <TORSDO>
F 8

$$$$
=
 OpenBabel11052421453D

 30 32  0  0  1  0  0  0  0  0999 V2000
  161.3480  209.5540  151.7590 C   0  0  0  0  0  0  0  0  0  0  0  0
  161.8720  207.0550  151.7230 C   0  0  2  0  0  3  0  0  0  0  0  0
  161.0100  210.4880  152.8660 C   0  0  1  0  0  3  0  0  0  0  0  0
  161.5930  209.9960  150.5240 C   0  0  0  0  0  3  0  0  0  0  0  0
  160.0840  213.3070  150.6880 N   0  0  0  0  0  2  0  0  0  0  0  0
  160.5550  212.1620  151.0680 C   0  0  0  0  0  0  0  0  0  0  0  0
  161.6330  211.4720  150.2520 C   0  0  2  0  0  3  0  0  0  0  0  0
  160.2050  211.6130  152.3630 N   0  0  0  0  0  0  0  0  0  0  0  0
  162.7240  206.6900  152.9380 C   0  0  0  0  0  2  0  0  0  0  0  0
  162.6890  207.3150  150.6220 O   0  0  0  0  0  1  0  0  0  0  0  0
  159.6750  206.8930  155.3990 C   0  0  0  0  0  1  0  0  0  0  0  0
  161.9080  206.5760  154.2410 C   0  0  0  0  0  2  0  0  0  0  0  0
  161.0170  208.2030  152.0440 N   0  0  0  0  0  0  0  0  0  0  0  0
  160.2740  209.5930  153.8790 C   0  0  1  0  0  3  0  0  0  0  0  0
  160.4240  206.9170  154.0790 C   0  0  2  0  0  3  0  0  0  0  0  0
  160.1740  208.1820  153.2330 C   0  0  2  0  0  3  0  0  0  0  0  0
  159.7060  213.5910  153.7510 C   0  0  0  0  0  1  0  0  0  0  0  0
  159.2140  212.2440  153.2420 C   0  0  1  0  0  3  0  0  0  0  0  0
  157.8630  212.3590  152.5480 C   0  0  0  0  0  2  0  0  0  0  0  0
  157.1700  213.6610  152.9120 C   0  0  0  0  0  2  0  0  0  0  0  0
  156.2540  213.4480  153.9440 O   0  0  0  0  0  1  0  0  0  0  0  0
  161.4740  211.6960  148.7510 C   0  0  0  0  0  2  0  0  0  0  0  0
  162.5160  213.7980  147.9000 C   0  0  0  0  0  1  0  0  0  0  0  0
  162.7270  212.3160  148.1500 C   0  0  0  0  0  2  0  0  0  0  0  0
  160.8560  209.6730  155.3060 C   0  0  1  0  0  3  0  0  0  0  0  0
  163.0640  210.4930  154.8920 O   0  0  0  0  0  0  0  0  0  0  0  0
  161.9750  210.6630  155.4990 C   0  0  0  0  0  0  0  0  0  0  0  0
  161.8520  211.7380  156.4260 N   0  0  0  0  0  1  0  0  0  0  0  0
  159.7630  209.8870  156.3060 C   0  0  0  0  0  3  0  0  0  0  0  0
  158.5800  210.3690  155.9350 C   0  0  0  0  0  2  0  0  0  0  0  0
  1 13  1  0  0  0  0
  2 10  1  6  0  0  0
  2 13  1  0  0  0  0
  2  9  1  0  0  0  0
  3  1  1  6  0  0  0
  3 14  1  0  0  0  0
  4  1  2  0  0  0  0
  5  6  2  0  0  0  0
  6  8  1  0  0  0  0
  7 22  1  6  0  0  0
  7  4  1  0  0  0  0
  7  6  1  0  0  0  0
  8  3  1  0  0  0  0
  8 18  1  0  0  0  0
  9 12  1  0  0  0  0
 14 25  1  1  0  0  0
 15 12  1  0  0  0  0
 15 11  1  1  0  0  0
 16 13  1  6  0  0  0
 16 14  1  0  0  0  0
 16 15  1  0  0  0  0
 18 17  1  6  0  0  0
 19 20  1  0  0  0  0
 19 18  1  0  0  0  0
 20 21  1  0  0  0  0
 23 24  1  0  0  0  0
 24 22  1  0  0  0  0
 25 27  1  0  0  0  0
 25 29  1  1  0  0  0
 26 27  2  0  0  0  0
 27 28  1  0  0  0  0
 30 29  2  0  0  0  0
M  END
>  <MODEL>
5

>  <REMARK>
 VINA RESULT:      -1.7      2.116      3.318
  Name = 
  8 active torsions:
  status: ('A' for Active; 'I' for Inactive)
    1  A    between atoms: C_7  and  C_16
    2  A    between atoms: C_7  and  C_30
    3  A    between atoms: C_9  and  C_12
    4  A    between atoms: C_9  and  C_21
    5  A    between atoms: C_10  and  C_25
    6  A    between atoms: C_11  and  C_25
    7  A    between atoms: N_13  and  C_30
    8  A    between atoms: C_23  and  C_25
                            x       y       z     vdW  Elec       q    Type
                         _______ _______ _______ _____ _____    ______ ____

>  <TORSDO>
F 8

$$$$
=
 OpenBabel11052421453D

 30 32  0  0  1  0  0  0  0  0999 V2000
  161.5490  207.9570  149.4260 C   0  0  0  0  0  0  0  0  0  0  0  0
  161.2200  205.9650  147.8610 C   0  0  2  0  0  3  0  0  0  0  0  0
  161.6460  208.0580  150.9070 C   0  0  1  0  0  3  0  0  0  0  0  0
  161.8030  209.0030  148.6370 C   0  0  0  0  0  3  0  0  0  0  0  0
  161.4840  211.7330  151.0270 N   0  0  0  0  0  2  0  0  0  0  0  0
  161.5900  210.5320  150.5560 C   0  0  0  0  0  0  0  0  0  0  0  0
  162.2970  210.2870  149.2350 C   0  0  2  0  0  3  0  0  0  0  0  0
  161.2090  209.3880  151.3620 N   0  0  0  0  0  0  0  0  0  0  0  0
  162.0200  204.7690  148.3750 C   0  0  0  0  0  2  0  0  0  0  0  0
  161.9640  206.6750  146.9180 O   0  0  0  0  0  1  0  0  0  0  0  0
  159.4640  204.0290  151.2580 C   0  0  0  0  0  1  0  0  0  0  0  0
  161.3450  204.0470  149.5570 C   0  0  0  0  0  2  0  0  0  0  0  0
  160.8240  206.8180  148.9880 N   0  0  0  0  0  0  0  0  0  0  0  0
  160.7620  206.9010  151.4040 C   0  0  1  0  0  3  0  0  0  0  0  0
  160.0460  204.7060  150.0300 C   0  0  2  0  0  3  0  0  0  0  0  0
  160.1420  206.2420  150.1410 C   0  0  2  0  0  3  0  0  0  0  0  0
  161.5700  209.9890  153.7270 C   0  0  0  0  0  1  0  0  0  0  0  0
  160.5710  209.5300  152.6750 C   0  0  1  0  0  3  0  0  0  0  0  0
  159.3620  210.4540  152.5980 C   0  0  0  0  0  2  0  0  0  0  0  0
  159.2360  211.2940  153.8580 C   0  0  0  0  0  2  0  0  0  0  0  0
  159.2190  212.6510  153.5330 O   0  0  0  0  0  1  0  0  0  0  0  0
  162.0720  211.4120  148.2290 C   0  0  0  0  0  2  0  0  0  0  0  0
  162.9460  213.7210  147.8650 C   0  0  0  0  0  1  0  0  0  0  0  0
  163.3220  212.2650  148.0660 C   0  0  0  0  0  2  0  0  0  0  0  0
  161.4760  205.9700  152.4060 C   0  0  1  0  0  3  0  0  0  0  0  0
  163.6560  206.2030  151.4540 O   0  0  0  0  0  0  0  0  0  0  0  0
  162.8060  205.4250  151.9570 C   0  0  0  0  0  0  0  0  0  0  0  0
  163.0840  204.0280  152.0120 N   0  0  0  0  0  1  0  0  0  0  0  0
  161.5820  206.6260  153.7480 C   0  0  0  0  0  3  0  0  0  0  0  0
  160.5750  206.5790  154.6150 C   0  0  0  0  0  2  0  0  0  0  0  0
  2 10  1  6  0  0  0
  2  9  1  0  0  0  0
  2 13  1  0  0  0  0
  3  1  1  6  0  0  0
  3  8  1  0  0  0  0
  3 14  1  0  0  0  0
  4  7  1  0  0  0  0
  4  1  2  0  0  0  0
  6  5  2  0  0  0  0
  6  8  1  0  0  0  0
  7 22  1  6  0  0  0
  7  6  1  0  0  0  0
  8 18  1  0  0  0  0
  9 12  1  0  0  0  0
 12 15  1  0  0  0  0
 13  1  1  0  0  0  0
 14 25  1  6  0  0  0
 15 16  1  0  0  0  0
 15 11  1  1  0  0  0
 16 13  1  6  0  0  0
 16 14  1  0  0  0  0
 18 17  1  1  0  0  0
 19 18  1  0  0  0  0
 19 20  1  0  0  0  0
 21 20  1  0  0  0  0
 23 24  1  0  0  0  0
 24 22  1  0  0  0  0
 25 29  1  1  0  0  0
 26 27  2  0  0  0  0
 27 28  1  0  0  0  0
 27 25  1  0  0  0  0
 29 30  2  0  0  0  0
M  END
>  <MODEL>
6

>  <REMARK>
 VINA RESULT:      -1.2      3.559      5.352
  Name = 
  8 active torsions:
  status: ('A' for Active; 'I' for Inactive)
    1  A    between atoms: C_7  and  C_16
    2  A    between atoms: C_7  and  C_30
    3  A    between atoms: C_9  and  C_12
    4  A    between atoms: C_9  and  C_21
    5  A    between atoms: C_10  and  C_25
    6  A    between atoms: C_11  and  C_25
    7  A    between atoms: N_13  and  C_30
    8  A    between atoms: C_23  and  C_25
                            x       y       z     vdW  Elec       q    Type
                         _______ _______ _______ _____ _____    ______ ____

>  <TORSDO>
F 8

$$$$
=
 OpenBabel11052421453D

 30 32  0  0  1  0  0  0  0  0999 V2000
  160.9070  207.2410  154.1740 C   0  0  0  0  0  0  0  0  0  0  0  0
  159.7370  207.4810  156.4310 C   0  0  2  0  0  3  0  0  0  0  0  0
  161.3850  208.2450  153.1850 C   0  0  1  0  0  3  0  0  0  0  0  0
  161.2040  205.9460  154.0510 C   0  0  0  0  0  3  0  0  0  0  0  0
  162.1440  205.8050  150.5350 N   0  0  0  0  0  2  0  0  0  0  0  0
  161.8400  206.2890  151.6970 C   0  0  0  0  0  0  0  0  0  0  0  0
  162.1220  205.4900  152.9560 C   0  0  2  0  0  3  0  0  0  0  0  0
  161.4040  207.6660  151.8320 N   0  0  0  0  0  0  0  0  0  0  0  0
  160.3280  208.6660  157.1940 C   0  0  0  0  0  2  0  0  0  0  0  0
  160.3770  206.2980  156.8070 O   0  0  0  0  0  1  0  0  0  0  0  0
  158.4540  211.3000  154.9720 C   0  0  0  0  0  1  0  0  0  0  0  0
  159.8100  210.0290  156.6980 C   0  0  0  0  0  2  0  0  0  0  0  0
  159.8460  207.7170  154.9870 N   0  0  0  0  0  0  0  0  0  0  0  0
  160.3980  209.4130  153.3540 C   0  0  1  0  0  3  0  0  0  0  0  0
  158.8630  209.9370  155.4970 C   0  0  2  0  0  3  0  0  0  0  0  0
  159.3490  208.9590  154.4070 C   0  0  2  0  0  3  0  0  0  0  0  0
  162.3310  209.4710  150.4280 C   0  0  0  0  0  1  0  0  0  0  0  0
  161.1610  208.5300  150.6720 C   0  0  1  0  0  3  0  0  0  0  0  0
  160.8310  207.7020  149.4350 C   0  0  0  0  0  2  0  0  0  0  0  0
  161.7100  208.1020  148.2610 C   0  0  0  0  0  2  0  0  0  0  0  0
  161.9300  207.0040  147.4280 O   0  0  0  0  0  1  0  0  0  0  0  0
  161.9350  203.9880  152.7570 C   0  0  0  0  0  2  0  0  0  0  0  0
  160.8310  202.6540  150.9600 C   0  0  0  0  0  1  0  0  0  0  0  0
  160.6200  203.6850  152.0530 C   0  0  0  0  0  2  0  0  0  0  0  0
  161.0910  210.7720  153.5920 C   0  0  1  0  0  3  0  0  0  0  0  0
  163.4560  210.5650  153.3170 O   0  0  0  0  0  0  0  0  0  0  0  0
  162.4990  210.7030  154.1210 C   0  0  0  0  0  0  0  0  0  0  0  0
  162.7580  210.7030  155.5220 N   0  0  0  0  0  1  0  0  0  0  0  0
  161.0130  211.6220  152.3620 C   0  0  0  0  0  3  0  0  0  0  0  0
  159.8910  212.2600  152.0400 C   0  0  0  0  0  2  0  0  0  0  0  0
  1 13  1  0  0  0  0
  2 10  1  6  0  0  0
  2  9  1  0  0  0  0
  3 14  1  0  0  0  0
  3  1  1  1  0  0  0
  4  1  2  0  0  0  0
  5  6  2  0  0  0  0
  6  8  1  0  0  0  0
  6  7  1  0  0  0  0
  7 22  1  6  0  0  0
  7  4  1  0  0  0  0
  8  3  1  0  0  0  0
 12  9  1  0  0  0  0
 13  2  1  0  0  0  0
 14 25  1  1  0  0  0
 14 16  1  0  0  0  0
 15 11  1  6  0  0  0
 15 12  1  0  0  0  0
 16 13  1  1  0  0  0
 16 15  1  0  0  0  0
 18 17  1  6  0  0  0
 18  8  1  0  0  0  0
 19 18  1  0  0  0  0
 20 19  1  0  0  0  0
 21 20  1  0  0  0  0
 23 24  1  0  0  0  0
 24 22  1  0  0  0  0
 25 29  1  6  0  0  0
 25 27  1  0  0  0  0
 26 27  2  0  0  0  0
 27 28  1  0  0  0  0
 30 29  2  0  0  0  0
M  END
>  <MODEL>
7

>  <REMARK>
 VINA RESULT:      -1.0      2.749      7.119
  Name = 
  8 active torsions:
  status: ('A' for Active; 'I' for Inactive)
    1  A    between atoms: C_7  and  C_16
    2  A    between atoms: C_7  and  C_30
    3  A    between atoms: C_9  and  C_12
    4  A    between atoms: C_9  and  C_21
    5  A    between atoms: C_10  and  C_25
    6  A    between atoms: C_11  and  C_25
    7  A    between atoms: N_13  and  C_30
    8  A    between atoms: C_23  and  C_25
                            x       y       z     vdW  Elec       q    Type
                         _______ _______ _______ _____ _____    ______ ____

>  <TORSDO>
F 8

$$$$
=
 OpenBabel11052421453D

 30 32  0  0  1  0  0  0  0  0999 V2000
  160.9950  207.1280  153.4870 C   0  0  0  0  0  0  0  0  0  0  0  0
  159.9990  207.7400  155.7580 C   0  0  2  0  0  3  0  0  0  0  0  0
  161.4570  207.9570  152.3420 C   0  0  1  0  0  3  0  0  0  0  0  0
  161.2110  205.8120  153.5270 C   0  0  0  0  0  3  0  0  0  0  0  0
  161.8970  205.1430  150.0130 N   0  0  0  0  0  2  0  0  0  0  0  0
  161.7010  205.7960  151.1130 C   0  0  0  0  0  0  0  0  0  0  0  0
  162.0260  205.1550  152.4510 C   0  0  2  0  0  3  0  0  0  0  0  0
  161.3510  207.2020  151.0830 N   0  0  0  0  0  0  0  0  0  0  0  0
  160.7050  208.9770  156.3130 C   0  0  0  0  0  2  0  0  0  0  0  0
  160.5970  206.5800  156.2530 O   0  0  0  0  0  1  0  0  0  0  0  0
  158.8280  211.4040  153.8680 C   0  0  0  0  0  1  0  0  0  0  0  0
  160.2280  210.2920  155.6660 C   0  0  0  0  0  2  0  0  0  0  0  0
  160.0200  207.7740  154.2910 N   0  0  0  0  0  0  0  0  0  0  0  0
  160.5500  209.1980  152.4100 C   0  0  1  0  0  3  0  0  0  0  0  0
  159.1970  210.1000  154.5490 C   0  0  2  0  0  3  0  0  0  0  0  0
  159.5520  208.9560  153.5770 C   0  0  2  0  0  3  0  0  0  0  0  0
  162.3250  208.6030  149.3010 C   0  0  0  0  0  1  0  0  0  0  0  0
  161.0750  207.9170  149.8320 C   0  0  1  0  0  3  0  0  0  0  0  0
  160.4550  206.9860  148.7970 C   0  0  0  0  0  2  0  0  0  0  0  0
  161.2590  206.9910  147.5080 C   0  0  0  0  0  2  0  0  0  0  0  0
  160.6380  206.1890  146.5490 O   0  0  0  0  0  1  0  0  0  0  0  0
  161.7440  203.6550  152.4710 C   0  0  0  0  0  2  0  0  0  0  0  0
  160.7490  202.1750  150.7270 C   0  0  0  0  0  1  0  0  0  0  0  0
  160.4840  203.3200  151.6860 C   0  0  0  0  0  2  0  0  0  0  0  0
  161.3300  210.5300  152.4150 C   0  0  1  0  0  3  0  0  0  0  0  0
  163.6750  210.3300  151.9990 O   0  0  0  0  0  0  0  0  0  0  0  0
  162.7660  210.4430  152.8600 C   0  0  0  0  0  0  0  0  0  0  0  0
  163.1050  210.3990  154.2440 N   0  0  0  0  0  1  0  0  0  0  0  0
  161.2120  211.2110  151.0880 C   0  0  0  0  0  3  0  0  0  0  0  0
  160.4210  212.2690  150.9280 C   0  0  0  0  0  2  0  0  0  0  0  0
  1  4  2  0  0  0  0
  1 13  1  0  0  0  0
  2 10  1  1  0  0  0
  2  9  1  0  0  0  0
  3 14  1  0  0  0  0
  3  1  1  1  0  0  0
  5  6  2  0  0  0  0
  6  7  1  0  0  0  0
  7 22  1  6  0  0  0
  7  4  1  0  0  0  0
  8  6  1  0  0  0  0
  8  3  1  0  0  0  0
 12  9  1  0  0  0  0
 13  2  1  0  0  0  0
 14 25  1  1  0  0  0
 14 16  1  0  0  0  0
 15 11  1  6  0  0  0
 15 12  1  0  0  0  0
 16 13  1  1  0  0  0
 16 15  1  0  0  0  0
 18 17  1  6  0  0  0
 18  8  1  0  0  0  0
 19 18  1  0  0  0  0
 20 19  1  0  0  0  0
 21 20  1  0  0  0  0
 23 24  1  0  0  0  0
 24 22  1  0  0  0  0
 25 29  1  6  0  0  0
 25 27  1  0  0  0  0
 26 27  2  0  0  0  0
 27 28  1  0  0  0  0
 30 29  2  0  0  0  0
M  END
>  <MODEL>
8

>  <REMARK>
 VINA RESULT:      -0.9      3.025      7.406
  Name = 
  8 active torsions:
  status: ('A' for Active; 'I' for Inactive)
    1  A    between atoms: C_7  and  C_16
    2  A    between atoms: C_7  and  C_30
    3  A    between atoms: C_9  and  C_12
    4  A    between atoms: C_9  and  C_21
    5  A    between atoms: C_10  and  C_25
    6  A    between atoms: C_11  and  C_25
    7  A    between atoms: N_13  and  C_30
    8  A    between atoms: C_23  and  C_25
                            x       y       z     vdW  Elec       q    Type
                         _______ _______ _______ _____ _____    ______ ____

>  <TORSDO>
F 8

$$$$
=
 OpenBabel11052421453D

 30 32  0  0  1  0  0  0  0  0999 V2000
  161.3380  205.6240  149.7360 C   0  0  0  0  0  0  0  0  0  0  0  0
  161.2030  207.9400  148.6670 C   0  0  2  0  0  3  0  0  0  0  0  0
  161.5110  204.2650  149.1570 C   0  0  1  0  0  3  0  0  0  0  0  0
  161.3900  205.8320  151.0530 C   0  0  0  0  0  3  0  0  0  0  0  0
  160.8320  202.4510  152.2860 N   0  0  0  0  0  2  0  0  0  0  0  0
  161.0790  203.4250  151.4700 C   0  0  0  0  0  0  0  0  0  0  0  0
  161.7310  204.7000  151.9760 C   0  0  2  0  0  3  0  0  0  0  0  0
  160.9160  203.2490  150.0400 N   0  0  0  0  0  0  0  0  0  0  0  0
  162.1960  208.0320  147.5100 C   0  0  0  0  0  2  0  0  0  0  0  0
  161.7780  208.4360  149.8390 O   0  0  0  0  0  1  0  0  0  0  0  0
  159.9550  205.8570  145.1360 C   0  0  0  0  0  1  0  0  0  0  0  0
  161.7060  207.3310  146.2290 C   0  0  0  0  0  2  0  0  0  0  0  0
  160.7590  206.5510  148.8300 N   0  0  0  0  0  0  0  0  0  0  0  0
  160.8340  204.3740  147.7790 C   0  0  1  0  0  3  0  0  0  0  0  0
  160.3570  206.6210  146.3840 C   0  0  2  0  0  3  0  0  0  0  0  0
  160.2390  205.8070  147.6890 C   0  0  2  0  0  3  0  0  0  0  0  0
  161.2050  200.8130  149.7780 C   0  0  0  0  0  1  0  0  0  0  0  0
  160.3470  202.0290  149.4590 C   0  0  1  0  0  3  0  0  0  0  0  0
  158.9020  201.8360  149.9020 C   0  0  0  0  0  2  0  0  0  0  0  0
  158.1860  200.8340  149.0110 C   0  0  0  0  0  2  0  0  0  0  0  0
  156.9330  201.3260  148.6420 O   0  0  0  0  0  1  0  0  0  0  0  0
  161.2860  205.0700  153.3880 C   0  0  0  0  0  2  0  0  0  0  0  0
  160.4680  206.9260  154.8410 C   0  0  0  0  0  1  0  0  0  0  0  0
  161.2140  206.5790  153.5660 C   0  0  0  0  0  2  0  0  0  0  0  0
  161.7340  203.9120  146.6140 C   0  0  1  0  0  3  0  0  0  0  0  0
  163.5290  205.1580  147.5850 O   0  0  0  0  0  0  0  0  0  0  0  0
  163.1710  204.3570  146.6830 C   0  0  0  0  0  0  0  0  0  0  0  0
  164.1130  203.9560  145.6920 N   0  0  0  0  0  1  0  0  0  0  0  0
  161.6330  202.4300  146.4300 C   0  0  0  0  0  3  0  0  0  0  0  0
  160.6050  201.8890  145.7820 C   0  0  0  0  0  2  0  0  0  0  0  0
  1  4  2  0  0  0  0
  2 13  1  0  0  0  0
  2 10  1  1  0  0  0
  3  1  1  1  0  0  0
  3  8  1  0  0  0  0
  4  7  1  0  0  0  0
  6  7  1  0  0  0  0
  6  5  2  0  0  0  0
  7 22  1  1  0  0  0
  8  6  1  0  0  0  0
  9  2  1  0  0  0  0
 12 15  1  0  0  0  0
 12  9  1  0  0  0  0
 13  1  1  0  0  0  0
 14 25  1  6  0  0  0
 14  3  1  0  0  0  0
 15 11  1  6  0  0  0
 15 16  1  0  0  0  0
 16 14  1  0  0  0  0
 16 13  1  1  0  0  0
 18 17  1  1  0  0  0
 18 19  1  0  0  0  0
 18  8  1  0  0  0  0
 20 19  1  0  0  0  0
 21 20  1  0  0  0  0
 22 24  1  0  0  0  0
 24 23  1  0  0  0  0
 25 29  1  1  0  0  0
 25 27  1  0  0  0  0
 27 26  2  0  0  0  0
 28 27  1  0  0  0  0
 30 29  2  0  0  0  0
M  END
>  <MODEL>
9

>  <REMARK>
 VINA RESULT:      -0.8      6.240      9.685
  Name = 
  8 active torsions:
  status: ('A' for Active; 'I' for Inactive)
    1  A    between atoms: C_7  and  C_16
    2  A    between atoms: C_7  and  C_30
    3  A    between atoms: C_9  and  C_12
    4  A    between atoms: C_9  and  C_21
    5  A    between atoms: C_10  and  C_25
    6  A    between atoms: C_11  and  C_25
    7  A    between atoms: N_13  and  C_30
    8  A    between atoms: C_23  and  C_25
                            x       y       z     vdW  Elec       q    Type
                         _______ _______ _______ _____ _____    ______ ____

>  <TORSDO>
F 8

$$$$
