=
 OpenBabel11062408243D

 32 37  0  0  1  0  0  0  0  0999 V2000
  159.7970  213.7360  139.9620 O   0  0  0  0  0  0  0  0  0  0  0  0
  160.1380  210.8870  139.3980 C   0  0  2  0  0  3  0  0  0  0  0  0
  163.4460  211.6430  138.7140 C   0  0  0  0  0  0  0  0  0  0  0  0
  158.9020  214.4530  140.7610 C   0  0  0  0  0  2  0  0  0  0  0  0
  158.6200  210.7190  139.5610 C   0  0  2  0  0  3  0  0  0  0  0  0
  158.1690  209.5420  138.8260 N   0  0  0  0  0  2  0  0  0  0  0  0
  166.3340  213.8390  138.4010 F   0  0  0  0  0  0  0  0  0  0  0  0
  163.2330  210.2370  138.6330 N   0  0  0  0  0  1  0  0  0  0  0  0
  160.9440  210.9350  140.7000 C   0  0  0  0  0  2  0  0  0  0  0  0
  157.8150  211.9510  139.1490 C   0  0  1  0  0  3  0  0  0  0  0  0
  164.4330  214.4530  139.5470 C   0  0  0  0  0  3  0  0  0  0  0  0
  162.1540  213.4650  139.8790 C   0  0  0  0  0  0  0  0  0  0  0  0
  156.5180  211.4520  137.9960 S   0  0  0  0  0  0  0  0  0  0  0  0
  164.6980  212.0940  138.7630 C   0  0  0  0  0  2  0  0  0  0  0  0
  163.1210  214.3190  140.2140 C   0  0  0  0  0  3  0  0  0  0  0  0
  157.1980  212.6330  140.3630 C   0  0  0  0  0  2  0  0  0  0  0  0
  162.2850  212.5930  138.6500 C   0  0  0  0  0  0  0  0  0  0  0  0
  160.7320  211.8750  137.9540 S   0  0  0  0  0  0  0  0  0  0  0  0
  160.8230  212.1710  141.4850 N   0  0  0  0  0  0  0  0  0  0  0  0
  165.1090  213.5100  138.8790 C   0  0  0  0  0  0  0  0  0  0  0  0
  160.9260  213.4490  140.7420 C   0  0  2  0  0  3  0  0  0  0  0  0
  157.5170  209.9970  137.6090 C   0  0  2  0  0  3  0  0  0  0  0  0
  157.4760  214.1340  140.3270 C   0  0  0  0  0  2  0  0  0  0  0  0
  156.6640  208.8890  137.0110 C   0  0  0  0  0  2  0  0  0  0  0  0
  155.4680  208.7480  137.7190 O   0  0  0  0  0  1  0  0  0  0  0  0
  159.6570  212.1010  142.3610 C   0  0  0  0  0  2  0  0  0  0  0  0
  159.8750  212.8880  143.6510 C   0  0  1  0  0  3  0  0  0  0  0  0
  158.9770  213.2300  145.9090 C   0  0  0  0  0  2  0  0  0  0  0  0
  160.0580  212.2340  145.9760 N   0  0  2  0  0  0  0  0  0  0  0  0
  161.2860  212.9020  145.5560 C   0  0  0  0  0  2  0  0  0  0  0  0
  159.1350  212.2660  144.8230 C   0  0  2  0  0  3  0  0  0  0  0  0
  161.3280  212.9140  144.0460 C   0  0  0  0  0  2  0  0  0  0  0  0
  1 21  1  0  0  0  0
  1  4  1  0  0  0  0
  2  5  1  0  0  0  0
  2  9  1  1  0  0  0
  3 14  1  0  0  0  0
  5  6  1  6  0  0  0
  7 20  1  0  0  0  0
  8  3  1  0  0  0  0
  9 19  1  0  0  0  0
 10  5  1  0  0  0  0
 10 16  1  1  0  0  0
 11 15  1  0  0  0  0
 12 15  2  0  0  0  0
 13 10  1  0  0  0  0
 14 20  1  0  0  0  0
 17  3  2  0  0  0  0
 17 12  1  0  0  0  0
 18 17  1  0  0  0  0
 18  2  1  0  0  0  0
 19 26  1  0  0  0  0
 20 11  2  0  0  0  0
 21 12  1  6  0  0  0
 21 19  1  0  0  0  0
 22 24  1  1  0  0  0
 22 13  1  0  0  0  0
 22  6  1  0  0  0  0
 23 16  1  0  0  0  0
 23  4  1  0  0  0  0
 24 25  1  0  0  0  0
 27 26  1  6  0  0  0
 27 32  1  0  0  0  0
 27 31  1  0  0  0  0
 28 29  1  0  0  0  0
 29 30  1  6  0  0  0
 31 28  1  1  0  0  0
 31 29  1  0  0  0  0
 32 30  1  0  0  0  0
M  END
>  <MODEL>
1

>  <REMARK>
 VINA RESULT:      -4.3      0.000      0.000
  Name = 
  3 active torsions:
  status: ('A' for Active; 'I' for Inactive)
    1  A    between atoms: C_9  and  C_28
    2  A    between atoms: C_13  and  C_29
    3  A    between atoms: N_24  and  C_28
                            x       y       z     vdW  Elec       q    Type
                         _______ _______ _______ _____ _____    ______ ____

>  <TORSDO>
F 3

$$$$
=
 OpenBabel11062408243D

 32 37  0  0  1  0  0  0  0  0999 V2000
  161.6750  211.3340  153.3640 O   0  0  0  0  0  0  0  0  0  0  0  0
  158.7950  211.8360  153.3510 C   0  0  2  0  0  3  0  0  0  0  0  0
  159.2240  212.9430  150.1010 C   0  0  0  0  0  0  0  0  0  0  0  0
  162.4920  210.4580  154.0840 C   0  0  0  0  0  2  0  0  0  0  0  0
  158.7730  211.4830  154.8470 C   0  0  2  0  0  3  0  0  0  0  0  0
  157.6260  212.1160  155.4890 N   0  0  0  0  0  2  0  0  0  0  0  0
  161.1340  213.6820  147.0890 F   0  0  0  0  0  0  0  0  0  0  0  0
  157.8420  212.9490  150.4460 N   0  0  0  0  0  1  0  0  0  0  0  0
  158.7980  210.6440  152.3890 C   0  0  0  0  0  2  0  0  0  0  0  0
  160.0640  211.8370  155.5830 C   0  0  1  0  0  3  0  0  0  0  0  0
  161.9490  212.3350  148.7700 C   0  0  0  0  0  3  0  0  0  0  0  0
  161.1850  211.6940  151.0690 C   0  0  0  0  0  0  0  0  0  0  0  0
  159.6610  212.8050  157.0530 S   0  0  0  0  0  0  0  0  0  0  0  0
  159.5580  213.0630  148.8170 C   0  0  0  0  0  3  0  0  0  0  0  0
  161.9530  211.5100  149.9950 C   0  0  0  0  0  3  0  0  0  0  0  0
  160.8290  210.5820  155.9800 C   0  0  0  0  0  2  0  0  0  0  0  0
  160.2760  212.8990  151.1700 C   0  0  2  0  0  3  0  0  0  0  0  0
  159.6890  213.3750  152.8560 S   0  0  0  0  0  0  0  0  0  0  0  0
  160.0590  209.8940  152.3010 N   0  0  0  0  0  0  0  0  0  0  0  0
  160.9310  213.0470  148.2690 C   0  0  0  0  0  0  0  0  0  0  0  0
  161.3030  210.6870  152.1760 C   0  0  2  0  0  3  0  0  0  0  0  0
  158.1110  213.2600  156.2440 C   0  0  2  0  0  3  0  0  0  0  0  0
  162.2960  210.7030  155.5770 C   0  0  0  0  0  2  0  0  0  0  0  0
  157.0730  213.7100  157.2610 C   0  0  0  0  0  2  0  0  0  0  0  0
  155.9070  212.9480  157.1500 O   0  0  0  0  0  1  0  0  0  0  0  0
  160.1170  208.8800  153.3500 C   0  0  0  0  0  2  0  0  0  0  0  0
  160.4610  207.5050  152.7840 C   0  0  1  0  0  3  0  0  0  0  0  0
  161.3120  206.3720  150.7800 C   0  0  0  0  0  2  0  0  0  0  0  0
  162.4340  206.6090  151.7020 N   0  0  2  0  0  0  0  0  0  0  0  0
  162.1570  205.8540  152.9200 C   0  0  0  0  0  2  0  0  0  0  0  0
  161.3540  207.6070  151.5590 C   0  0  2  0  0  3  0  0  0  0  0  0
  161.2190  206.6670  153.7800 C   0  0  0  0  0  2  0  0  0  0  0  0
  1  4  1  0  0  0  0
  2  9  1  6  0  0  0
  2  5  1  0  0  0  0
  3  8  1  0  0  0  0
  4 23  1  0  0  0  0
  5  6  1  1  0  0  0
  5 10  1  0  0  0  0
  6 22  1  0  0  0  0
  7 20  1  0  0  0  0
 10 16  1  1  0  0  0
 10 13  1  0  0  0  0
 11 15  1  0  0  0  0
 12 17  1  0  0  0  0
 14  3  2  0  0  0  0
 15 12  2  0  0  0  0
 17  3  1  6  0  0  0
 17 18  1  0  0  0  0
 18  2  1  0  0  0  0
 19  9  1  0  0  0  0
 19 26  1  0  0  0  0
 20 11  2  0  0  0  0
 20 14  1  0  0  0  0
 21 12  1  6  0  0  0
 21 19  1  0  0  0  0
 21  1  1  0  0  0  0
 22 13  1  0  0  0  0
 22 24  1  1  0  0  0
 23 16  1  0  0  0  0
 25 24  1  0  0  0  0
 27 26  1  1  0  0  0
 27 32  1  0  0  0  0
 29 28  1  6  0  0  0
 29 30  1  0  0  0  0
 30 32  1  0  0  0  0
 31 28  1  6  0  0  0
 31 29  1  0  0  0  0
 31 27  1  0  0  0  0
M  END
>  <MODEL>
2

>  <REMARK>
 VINA RESULT:      -2.4      9.880     13.646
  Name = 
  3 active torsions:
  status: ('A' for Active; 'I' for Inactive)
    1  A    between atoms: C_9  and  C_28
    2  A    between atoms: C_13  and  C_29
    3  A    between atoms: N_24  and  C_28
                            x       y       z     vdW  Elec       q    Type
                         _______ _______ _______ _____ _____    ______ ____

>  <TORSDO>
F 3

$$$$
