=
 OpenBabel11062409253D

 37 41  0  0  1  0  0  0  0  0999 V2000
  162.7880  207.8030  151.2130 O   0  0  0  0  0  0  0  0  0  0  0  0
  161.1160  210.2540  153.1710 O   0  0  0  0  0  0  0  0  0  0  0  0
  161.2820  205.7510  150.7460 C   0  0  2  0  0  0  0  0  0  0  0  0
  161.6490  208.5190  151.6370 C   0  0  1  0  0  0  0  0  0  0  0  0
  162.3930  206.7720  150.3240 C   0  0  1  0  0  3  0  0  0  0  0  0
  161.8310  209.0510  153.0380 C   0  0  2  0  0  3  0  0  0  0  0  0
  159.9120  206.2960  150.3610 C   0  0  0  0  0  1  0  0  0  0  0  0
  162.6380  207.0760  148.8260 C   0  0  2  0  0  3  0  0  0  0  0  0
  160.9660  206.2350  154.6180 C   0  0  0  0  0  1  0  0  0  0  0  0
  161.2520  205.4550  152.2740 C   0  0  0  0  0  2  0  0  0  0  0  0
  163.1590  208.3730  148.6030 O   0  0  0  0  0  0  0  0  0  0  0  0
  161.4840  206.6150  153.2450 C   0  0  1  0  0  3  0  0  0  0  0  0
  161.1590  209.7170  150.8520 C   0  0  1  0  0  3  0  0  0  0  0  0
  161.0190  210.8170  151.8860 C   0  0  1  0  0  3  0  0  0  0  0  0
  162.1580  210.1840  149.8030 C   0  0  0  0  0  2  0  0  0  0  0  0
  162.0990  209.2940  148.5800 C   0  0  0  0  0  2  0  0  0  0  0  0
  160.8480  207.9220  152.7910 C   0  0  2  0  0  3  0  0  0  0  0  0
  160.2710  203.5470  149.8230 C   0  0  0  0  0  2  0  0  0  0  0  0
  161.4830  204.4620  149.9030 C   0  0  0  0  0  3  0  0  0  0  0  0
  161.4300  203.1940  150.7390 C   0  0  0  0  0  2  0  0  0  0  0  0
  159.6790  211.5340  151.7320 C   0  0  2  0  0  3  0  0  0  0  0  0
  159.8700  212.9190  151.7620 O   0  0  0  0  0  0  0  0  0  0  0  0
  160.0590  213.2880  150.4280 C   0  0  0  0  0  1  0  0  0  0  0  0
  158.8180  211.1520  152.7980 O   0  0  0  0  0  0  0  0  0  0  0  0
  158.9820  212.2650  154.9800 N   0  0  0  0  0  1  0  0  0  0  0  0
  157.2990  212.7400  153.4570 O   0  0  0  0  0  0  0  0  0  0  0  0
  158.3280  212.0680  153.7290 C   0  0  0  0  0  0  0  0  0  0  0  0
  161.5320  206.7770  148.0050 O   0  0  0  0  0  0  0  0  0  0  0  0
  163.0420  205.1920  147.0440 C   0  0  0  0  0  1  0  0  0  0  0  0
  162.0700  206.3300  146.7920 C   0  0  1  0  0  3  0  0  0  0  0  0
  160.9810  205.8700  145.8640 C   0  0  0  0  0  0  0  0  0  0  0  0
  159.8400  206.2750  146.0360 O   0  0  0  0  0  0  0  0  0  0  0  0
  161.2820  204.9220  144.7390 C   0  0  2  0  0  3  0  0  0  0  0  0
  161.2690  205.6530  143.4070 C   0  0  0  0  0  1  0  0  0  0  0  0
  160.2930  203.7700  144.7260 C   0  0  0  0  0  2  0  0  0  0  0  0
  160.8050  202.6970  145.4560 O   0  0  0  0  0  0  0  0  0  0  0  0
  160.0540  201.6010  145.0360 C   0  0  0  0  0  1  0  0  0  0  0  0
  3  7  1  6  0  0  0
  3 10  1  0  0  0  0
  4  1  1  6  0  0  0
  4 17  1  0  0  0  0
  4  6  1  0  0  0  0
  5  3  1  0  0  0  0
  5  1  1  1  0  0  0
  6  2  1  6  0  0  0
  8 28  1  6  0  0  0
  8  5  1  0  0  0  0
 10 12  1  0  0  0  0
 11  8  1  0  0  0  0
 12  9  1  1  0  0  0
 13 15  1  6  0  0  0
 13  4  1  0  0  0  0
 13 14  1  0  0  0  0
 14 21  1  1  0  0  0
 14  2  1  0  0  0  0
 16 11  1  0  0  0  0
 16 15  1  0  0  0  0
 17  6  1  0  0  0  0
 17 12  1  0  0  0  0
 18 19  1  0  0  0  0
 18 20  1  0  0  0  0
 19 20  1  0  0  0  0
 19  3  1  0  0  0  0
 21 22  1  0  0  0  0
 21 24  1  0  0  0  0
 23 22  1  0  0  0  0
 24 27  1  0  0  0  0
 26 27  2  0  0  0  0
 27 25  1  0  0  0  0
 30 29  1  0  0  0  0
 30 28  1  0  0  0  0
 31 32  2  0  0  0  0
 31 30  1  0  0  0  0
 33 31  1  0  0  0  0
 34 33  1  0  0  0  0
 35 33  1  0  0  0  0
 35 36  1  0  0  0  0
 37 36  1  0  0  0  0
M  END
>  <MODEL>
1

>  <REMARK>
 VINA RESULT:      -5.7      0.000      0.000
  Name = 
  11 active torsions:
  status: ('A' for Active; 'I' for Inactive)
    1  A    between atoms: C_1  and  C_5
    2  A    between atoms: C_1  and  C_23
    3  A    between atoms: O_2  and  C_6
    4  A    between atoms: C_5  and  C_26
    5  A    between atoms: C_6  and  O_8
    6  A    between atoms: C_6  and  C_31
    7  A    between atoms: O_8  and  C_19
    8  A    between atoms: C_9  and  C_30
    9  A    between atoms: O_11  and  C_26
   10  A    between atoms: C_20  and  O_25
   11  A    between atoms: C_23  and  O_25
                            x       y       z     vdW  Elec       q    Type
                         _______ _______ _______ _____ _____    ______ ____

>  <TORSDO>
F 11

$$$$
=
 OpenBabel11062409253D

 37 41  0  0  1  0  0  0  0  0999 V2000
  162.1990  209.8570  153.1600 O   0  0  0  0  0  0  0  0  0  0  0  0
  162.4000  207.2120  150.7930 O   0  0  0  0  0  0  0  0  0  0  0  0
  160.1840  211.4140  152.6970 C   0  0  2  0  0  0  0  0  0  0  0  0
  161.6440  208.9060  152.2780 C   0  0  1  0  0  0  0  0  0  0  0  0
  161.1680  210.6840  153.6740 C   0  0  1  0  0  3  0  0  0  0  0  0
  162.6180  208.5450  151.1830 C   0  0  2  0  0  3  0  0  0  0  0  0
  158.9960  210.5080  152.3940 C   0  0  0  0  0  1  0  0  0  0  0  0
  160.7180  210.3420  155.1150 C   0  0  2  0  0  3  0  0  0  0  0  0
  161.9400  211.1540  149.2080 C   0  0  0  0  0  1  0  0  0  0  0  0
  160.8300  211.8050  151.3360 C   0  0  0  0  0  2  0  0  0  0  0  0
  161.3790  209.2090  155.6470 O   0  0  0  0  0  0  0  0  0  0  0  0
  161.7990  210.8190  150.6790 C   0  0  1  0  0  3  0  0  0  0  0  0
  161.1620  207.5690  152.7960 C   0  0  1  0  0  3  0  0  0  0  0  0
  161.8360  206.5500  151.8990 C   0  0  1  0  0  3  0  0  0  0  0  0
  161.6020  207.2960  154.2280 C   0  0  0  0  0  2  0  0  0  0  0  0
  160.7240  208.0480  155.2050 C   0  0  0  0  0  2  0  0  0  0  0  0
  161.3860  209.3630  150.8440 C   0  0  2  0  0  3  0  0  0  0  0  0
  158.1830  213.0250  153.0630 C   0  0  0  0  0  2  0  0  0  0  0  0
  159.6060  212.6450  153.4460 C   0  0  0  0  0  3  0  0  0  0  0  0
  159.3540  213.8310  152.5300 C   0  0  0  0  0  2  0  0  0  0  0  0
  160.8310  205.5030  151.4210 C   0  0  2  0  0  3  0  0  0  0  0  0
  160.6740  204.5090  152.3920 O   0  0  0  0  0  0  0  0  0  0  0  0
  161.1300  203.3360  151.7870 C   0  0  0  0  0  1  0  0  0  0  0  0
  161.3050  204.9150  150.2160 O   0  0  0  0  0  0  0  0  0  0  0  0
  161.4540  204.8000  147.7680 N   0  0  0  0  0  1  0  0  0  0  0  0
  160.0130  206.2460  148.8670 O   0  0  0  0  0  0  0  0  0  0  0  0
  160.8960  205.3540  148.9560 C   0  0  0  0  0  0  0  0  0  0  0  0
  159.3190  210.2850  155.2670 O   0  0  0  0  0  0  0  0  0  0  0  0
  160.3590  211.1130  157.2550 C   0  0  0  0  0  1  0  0  0  0  0  0
  159.0610  210.7070  156.5770 C   0  0  1  0  0  3  0  0  0  0  0  0
  158.1020  211.8640  156.5860 C   0  0  0  0  0  0  0  0  0  0  0  0
  158.5420  213.0040  156.6200 O   0  0  0  0  0  0  0  0  0  0  0  0
  156.6190  211.6300  156.5560 C   0  0  2  0  0  3  0  0  0  0  0  0
  156.1910  211.0850  155.2040 C   0  0  0  0  0  1  0  0  0  0  0  0
  155.8660  212.9080  156.8800 C   0  0  0  0  0  2  0  0  0  0  0  0
  155.4700  213.5380  155.7000 O   0  0  0  0  0  0  0  0  0  0  0  0
  154.4960  214.4500  156.1020 C   0  0  0  0  0  1  0  0  0  0  0  0
  2 14  1  0  0  0  0
  3  7  1  6  0  0  0
  3 19  1  0  0  0  0
  3  5  1  0  0  0  0
  4 13  1  0  0  0  0
  4  1  1  1  0  0  0
  5  1  1  6  0  0  0
  5  8  1  0  0  0  0
  6  2  1  6  0  0  0
  6  4  1  0  0  0  0
  8 28  1  6  0  0  0
  8 11  1  0  0  0  0
 10  3  1  0  0  0  0
 12  9  1  6  0  0  0
 12 17  1  0  0  0  0
 12 10  1  0  0  0  0
 13 15  1  1  0  0  0
 14 21  1  6  0  0  0
 14 13  1  0  0  0  0
 15 16  1  0  0  0  0
 16 11  1  0  0  0  0
 17  6  1  0  0  0  0
 17  4  1  0  0  0  0
 18 19  1  0  0  0  0
 20 18  1  0  0  0  0
 20 19  1  0  0  0  0
 21 22  1  0  0  0  0
 23 22  1  0  0  0  0
 24 21  1  0  0  0  0
 25 27  1  0  0  0  0
 26 27  2  0  0  0  0
 27 24  1  0  0  0  0
 28 30  1  0  0  0  0
 30 31  1  0  0  0  0
 30 29  1  0  0  0  0
 31 32  2  0  0  0  0
 33 31  1  0  0  0  0
 33 35  1  0  0  0  0
 34 33  1  0  0  0  0
 36 37  1  0  0  0  0
 36 35  1  0  0  0  0
M  END
>  <MODEL>
2

>  <REMARK>
 VINA RESULT:      -4.5      3.097      9.248
  Name = 
  11 active torsions:
  status: ('A' for Active; 'I' for Inactive)
    1  A    between atoms: C_1  and  C_5
    2  A    between atoms: C_1  and  C_23
    3  A    between atoms: O_2  and  C_6
    4  A    between atoms: C_5  and  C_26
    5  A    between atoms: C_6  and  O_8
    6  A    between atoms: C_6  and  C_31
    7  A    between atoms: O_8  and  C_19
    8  A    between atoms: C_9  and  C_30
    9  A    between atoms: O_11  and  C_26
   10  A    between atoms: C_20  and  O_25
   11  A    between atoms: C_23  and  O_25
                            x       y       z     vdW  Elec       q    Type
                         _______ _______ _______ _____ _____    ______ ____

>  <TORSDO>
F 11

$$$$
=
 OpenBabel11062409253D

 37 41  0  0  1  0  0  0  0  0999 V2000
  162.3550  209.8830  152.7740 O   0  0  0  0  0  0  0  0  0  0  0  0
  160.1470  211.8560  154.7400 O   0  0  0  0  0  0  0  0  0  0  0  0
  161.5070  207.4520  152.5170 C   0  0  2  0  0  0  0  0  0  0  0  0
  161.0820  210.2580  153.2500 C   0  0  1  0  0  0  0  0  0  0  0  0
  162.2350  208.7240  151.9650 C   0  0  1  0  0  3  0  0  0  0  0  0
  161.1790  210.9110  154.6080 C   0  0  2  0  0  3  0  0  0  0  0  0
  160.0150  207.5420  152.2120 C   0  0  0  0  0  1  0  0  0  0  0  0
  162.2890  208.9870  150.4410 C   0  0  2  0  0  3  0  0  0  0  0  0
  161.2890  208.0760  156.3750 C   0  0  0  0  0  1  0  0  0  0  0  0
  161.6560  207.2610  154.0540 C   0  0  0  0  0  2  0  0  0  0  0  0
  162.3850  210.3630  150.1200 O   0  0  0  0  0  0  0  0  0  0  0  0
  161.5880  208.5000  154.9510 C   0  0  1  0  0  3  0  0  0  0  0  0
  160.2120  211.2030  152.4510 C   0  0  1  0  0  3  0  0  0  0  0  0
  159.8110  212.2790  153.4410 C   0  0  1  0  0  3  0  0  0  0  0  0
  160.9610  211.8740  151.3080 C   0  0  0  0  0  2  0  0  0  0  0  0
  161.0990  210.9270  150.1350 C   0  0  0  0  0  2  0  0  0  0  0  0
  160.5660  209.5290  154.4880 C   0  0  2  0  0  3  0  0  0  0  0  0
  160.9620  205.2560  151.2460 C   0  0  0  0  0  2  0  0  0  0  0  0
  162.0330  206.2270  151.7200 C   0  0  0  0  0  3  0  0  0  0  0  0
  161.8210  204.9110  152.4500 C   0  0  0  0  0  2  0  0  0  0  0  0
  158.3120  212.5580  153.3570 C   0  0  2  0  0  3  0  0  0  0  0  0
  158.0900  213.8850  152.9770 O   0  0  0  0  0  0  0  0  0  0  0  0
  157.6150  213.8130  151.6650 C   0  0  0  0  0  1  0  0  0  0  0  0
  157.7200  212.3260  154.6290 O   0  0  0  0  0  0  0  0  0  0  0  0
  155.8160  210.7980  154.9010 N   0  0  0  0  0  1  0  0  0  0  0  0
  155.5730  213.1040  154.8520 O   0  0  0  0  0  0  0  0  0  0  0  0
  156.3490  212.1150  154.7910 C   0  0  0  0  0  0  0  0  0  0  0  0
  161.2770  208.3230  149.7210 O   0  0  0  0  0  0  0  0  0  0  0  0
  163.3070  207.6110  148.6780 C   0  0  0  0  0  1  0  0  0  0  0  0
  161.8480  207.9830  148.4880 C   0  0  1  0  0  3  0  0  0  0  0  0
  161.1100  206.8360  147.8570 C   0  0  0  0  0  0  0  0  0  0  0  0
  160.0800  206.4310  148.3760 O   0  0  0  0  0  0  0  0  0  0  0  0
  161.6280  206.1880  146.6050 C   0  0  2  0  0  3  0  0  0  0  0  0
  160.5200  206.0580  145.5740 C   0  0  0  0  0  1  0  0  0  0  0  0
  162.2330  204.8290  146.9130 C   0  0  0  0  0  2  0  0  0  0  0  0
  161.2870  203.8270  146.6930 O   0  0  0  0  0  0  0  0  0  0  0  0
  161.3490  203.0330  147.8360 C   0  0  0  0  0  1  0  0  0  0  0  0
  3  7  1  6  0  0  0
  3 10  1  0  0  0  0
  4  1  1  6  0  0  0
  4 17  1  0  0  0  0
  4  6  1  0  0  0  0
  5  3  1  0  0  0  0
  5  1  1  1  0  0  0
  6  2  1  6  0  0  0
  8 28  1  6  0  0  0
  8  5  1  0  0  0  0
 10 12  1  0  0  0  0
 11 16  1  0  0  0  0
 11  8  1  0  0  0  0
 12  9  1  1  0  0  0
 13 15  1  6  0  0  0
 13  4  1  0  0  0  0
 13 14  1  0  0  0  0
 14 21  1  1  0  0  0
 14  2  1  0  0  0  0
 16 15  1  0  0  0  0
 17  6  1  0  0  0  0
 17 12  1  0  0  0  0
 18 19  1  0  0  0  0
 18 20  1  0  0  0  0
 19 20  1  0  0  0  0
 19  3  1  0  0  0  0
 21 24  1  0  0  0  0
 22 21  1  0  0  0  0
 23 22  1  0  0  0  0
 24 27  1  0  0  0  0
 27 26  2  0  0  0  0
 27 25  1  0  0  0  0
 30 29  1  0  0  0  0
 30 28  1  0  0  0  0
 31 32  2  0  0  0  0
 31 30  1  0  0  0  0
 33 35  1  0  0  0  0
 33 31  1  0  0  0  0
 34 33  1  0  0  0  0
 36 35  1  0  0  0  0
 36 37  1  0  0  0  0
M  END
>  <MODEL>
3

>  <REMARK>
 VINA RESULT:      -4.4      1.740      2.525
  Name = 
  11 active torsions:
  status: ('A' for Active; 'I' for Inactive)
    1  A    between atoms: C_1  and  C_5
    2  A    between atoms: C_1  and  C_23
    3  A    between atoms: O_2  and  C_6
    4  A    between atoms: C_5  and  C_26
    5  A    between atoms: C_6  and  O_8
    6  A    between atoms: C_6  and  C_31
    7  A    between atoms: O_8  and  C_19
    8  A    between atoms: C_9  and  C_30
    9  A    between atoms: O_11  and  C_26
   10  A    between atoms: C_20  and  O_25
   11  A    between atoms: C_23  and  O_25
                            x       y       z     vdW  Elec       q    Type
                         _______ _______ _______ _____ _____    ______ ____

>  <TORSDO>
F 11

$$$$
=
 OpenBabel11062409253D

 37 41  0  0  1  0  0  0  0  0999 V2000
  161.0140  211.6660  154.1980 O   0  0  0  0  0  0  0  0  0  0  0  0
  158.7940  214.3300  153.4130 O   0  0  0  0  0  0  0  0  0  0  0  0
  159.7540  209.5940  155.1010 C   0  0  2  0  0  0  0  0  0  0  0  0
  159.7860  212.1970  153.7510 C   0  0  1  0  0  0  0  0  0  0  0  0
  160.9160  210.2540  154.2840 C   0  0  1  0  0  3  0  0  0  0  0  0
  159.5440  213.5700  154.3290 C   0  0  2  0  0  3  0  0  0  0  0  0
  158.5410  209.3970  154.1980 C   0  0  0  0  0  1  0  0  0  0  0  0
  161.5770  209.4850  153.1140 C   0  0  2  0  0  3  0  0  0  0  0  0
  158.3230  212.5290  157.2610 C   0  0  0  0  0  1  0  0  0  0  0  0
  159.2910  210.4380  156.3240 C   0  0  0  0  0  2  0  0  0  0  0  0
  162.1100  210.3400  152.1210 O   0  0  0  0  0  0  0  0  0  0  0  0
  159.2060  211.9590  156.1700 C   0  0  1  0  0  3  0  0  0  0  0  0
  159.5170  212.3690  152.2730 C   0  0  1  0  0  3  0  0  0  0  0  0
  159.0600  213.8070  152.1350 C   0  0  1  0  0  3  0  0  0  0  0  0
  160.7660  212.1900  151.4200 C   0  0  0  0  0  2  0  0  0  0  0  0
  161.0820  210.7210  151.2430 C   0  0  0  0  0  2  0  0  0  0  0  0
  158.7000  212.4020  154.8040 C   0  0  2  0  0  3  0  0  0  0  0  0
  160.0710  207.8470  156.9920 C   0  0  0  0  0  2  0  0  0  0  0  0
  160.2190  208.1710  155.5130 C   0  0  0  0  0  3  0  0  0  0  0  0
  161.4370  208.1860  156.4220 C   0  0  0  0  0  2  0  0  0  0  0  0
  157.8060  213.8940  151.2670 C   0  0  2  0  0  3  0  0  0  0  0  0
  156.6760  213.5650  152.0210 O   0  0  0  0  0  0  0  0  0  0  0  0
  155.6850  214.4530  151.5960 C   0  0  0  0  0  1  0  0  0  0  0  0
  157.9270  212.9880  150.1770 O   0  0  0  0  0  0  0  0  0  0  0  0
  157.0670  213.5820  147.9550 N   0  0  0  0  0  1  0  0  0  0  0  0
  159.3220  213.6710  148.4890 O   0  0  0  0  0  0  0  0  0  0  0  0
  158.1490  213.4160  148.8670 C   0  0  0  0  0  0  0  0  0  0  0  0
  160.7620  208.4660  152.5830 O   0  0  0  0  0  0  0  0  0  0  0  0
  161.2110  206.1880  153.1550 C   0  0  0  0  0  1  0  0  0  0  0  0
  161.6210  207.3900  152.3230 C   0  0  1  0  0  3  0  0  0  0  0  0
  161.5960  207.0290  150.8650 C   0  0  0  0  0  0  0  0  0  0  0  0
  162.3630  207.5930  150.0970 O   0  0  0  0  0  0  0  0  0  0  0  0
  160.6410  205.9920  150.3470 C   0  0  2  0  0  3  0  0  0  0  0  0
  161.1250  204.5960  150.7010 C   0  0  0  0  0  1  0  0  0  0  0  0
  160.4570  206.1300  148.8460 C   0  0  0  0  0  2  0  0  0  0  0  0
  161.3520  205.2920  148.1790 O   0  0  0  0  0  0  0  0  0  0  0  0
  161.3670  205.7700  146.8710 C   0  0  0  0  0  1  0  0  0  0  0  0
  3  7  1  6  0  0  0
  3 19  1  0  0  0  0
  3 10  1  0  0  0  0
  4  1  1  1  0  0  0
  4  6  1  0  0  0  0
  4 17  1  0  0  0  0
  5  1  1  6  0  0  0
  5  3  1  0  0  0  0
  6  2  1  6  0  0  0
  6 17  1  0  0  0  0
  8 28  1  6  0  0  0
  8  5  1  0  0  0  0
 11  8  1  0  0  0  0
 12 10  1  0  0  0  0
 12  9  1  1  0  0  0
 13 15  1  6  0  0  0
 13  4  1  0  0  0  0
 14 21  1  6  0  0  0
 14 13  1  0  0  0  0
 14  2  1  0  0  0  0
 16 15  1  0  0  0  0
 16 11  1  0  0  0  0
 17 12  1  0  0  0  0
 19 20  1  0  0  0  0
 19 18  1  0  0  0  0
 20 18  1  0  0  0  0
 21 22  1  0  0  0  0
 23 22  1  0  0  0  0
 24 21  1  0  0  0  0
 25 27  1  0  0  0  0
 26 27  2  0  0  0  0
 27 24  1  0  0  0  0
 30 28  1  0  0  0  0
 30 29  1  0  0  0  0
 31 30  1  0  0  0  0
 32 31  2  0  0  0  0
 33 34  1  0  0  0  0
 33 31  1  0  0  0  0
 35 33  1  0  0  0  0
 36 35  1  0  0  0  0
 37 36  1  0  0  0  0
M  END
>  <MODEL>
4

>  <REMARK>
 VINA RESULT:      -3.8      2.418      5.399
  Name = 
  11 active torsions:
  status: ('A' for Active; 'I' for Inactive)
    1  A    between atoms: C_1  and  C_5
    2  A    between atoms: C_1  and  C_23
    3  A    between atoms: O_2  and  C_6
    4  A    between atoms: C_5  and  C_26
    5  A    between atoms: C_6  and  O_8
    6  A    between atoms: C_6  and  C_31
    7  A    between atoms: O_8  and  C_19
    8  A    between atoms: C_9  and  C_30
    9  A    between atoms: O_11  and  C_26
   10  A    between atoms: C_20  and  O_25
   11  A    between atoms: C_23  and  O_25
                            x       y       z     vdW  Elec       q    Type
                         _______ _______ _______ _____ _____    ______ ____

>  <TORSDO>
F 11

$$$$
=
 OpenBabel11062409253D

 37 41  0  0  1  0  0  0  0  0999 V2000
  160.1060  206.0300  150.3510 O   0  0  0  0  0  0  0  0  0  0  0  0
  160.8210  203.3480  148.1290 O   0  0  0  0  0  0  0  0  0  0  0  0
  161.7670  206.1090  152.3330 C   0  0  2  0  0  0  0  0  0  0  0  0
  160.9720  205.1400  149.6830 C   0  0  1  0  0  0  0  0  0  0  0  0
  160.8480  206.8080  151.2750 C   0  0  1  0  0  3  0  0  0  0  0  0
  160.2610  203.8620  149.3120 C   0  0  2  0  0  3  0  0  0  0  0  0
  163.1570  205.8960  151.7440 C   0  0  0  0  0  1  0  0  0  0  0  0
  161.1620  208.2490  150.8060 C   0  0  2  0  0  3  0  0  0  0  0  0
  160.6030  202.3720  152.2840 C   0  0  0  0  0  1  0  0  0  0  0  0
  161.2420  204.7190  152.7980 C   0  0  0  0  0  2  0  0  0  0  0  0
  160.7040  208.5160  149.4940 O   0  0  0  0  0  0  0  0  0  0  0  0
  160.6140  203.7910  151.7550 C   0  0  1  0  0  3  0  0  0  0  0  0
  161.6650  205.5580  148.4040 C   0  0  1  0  0  3  0  0  0  0  0  0
  161.3630  204.4400  147.4260 C   0  0  1  0  0  3  0  0  0  0  0  0
  161.1070  206.8510  147.8250 C   0  0  0  0  0  2  0  0  0  0  0  0
  161.6550  208.0470  148.5720 C   0  0  0  0  0  2  0  0  0  0  0  0
  161.3140  203.8380  150.4030 C   0  0  2  0  0  3  0  0  0  0  0  0
  161.6310  206.5180  154.8920 C   0  0  0  0  0  2  0  0  0  0  0  0
  161.9500  207.0930  153.5200 C   0  0  0  0  0  3  0  0  0  0  0  0
  160.6400  207.4420  154.2070 C   0  0  0  0  0  2  0  0  0  0  0  0
  162.6300  204.0080  146.6920 C   0  0  2  0  0  3  0  0  0  0  0  0
  163.4310  205.1220  146.4200 O   0  0  0  0  0  0  0  0  0  0  0  0
  163.0080  205.5760  145.1690 C   0  0  0  0  0  1  0  0  0  0  0  0
  162.2710  203.3750  145.4690 O   0  0  0  0  0  0  0  0  0  0  0  0
  160.4710  201.7060  145.5090 N   0  0  0  0  0  1  0  0  0  0  0  0
  160.1890  203.8280  144.6190 O   0  0  0  0  0  0  0  0  0  0  0  0
  160.9580  203.0030  145.1760 C   0  0  0  0  0  0  0  0  0  0  0  0
  162.5050  208.6230  151.0070 O   0  0  0  0  0  0  0  0  0  0  0  0
  161.9830  210.6830  149.9110 C   0  0  0  0  0  1  0  0  0  0  0  0
  162.4910  210.0140  151.1760 C   0  0  1  0  0  3  0  0  0  0  0  0
  161.6220  210.4010  152.3390 C   0  0  0  0  0  0  0  0  0  0  0  0
  162.0650  210.3010  153.4740 O   0  0  0  0  0  0  0  0  0  0  0  0
  160.2240  210.9020  152.1180 C   0  0  2  0  0  3  0  0  0  0  0  0
  160.2050  212.4200  152.0540 C   0  0  0  0  0  1  0  0  0  0  0  0
  159.2940  210.4020  153.2080 C   0  0  0  0  0  2  0  0  0  0  0  0
  158.9640  211.4490  154.0690 O   0  0  0  0  0  0  0  0  0  0  0  0
  159.0440  210.8910  155.3430 C   0  0  0  0  0  1  0  0  0  0  0  0
  3  7  1  6  0  0  0
  3 10  1  0  0  0  0
  3 19  1  0  0  0  0
  4  1  1  1  0  0  0
  4 17  1  0  0  0  0
  5  1  1  6  0  0  0
  5  3  1  0  0  0  0
  6  2  1  6  0  0  0
  6  4  1  0  0  0  0
  6 17  1  0  0  0  0
  8 28  1  6  0  0  0
  8  5  1  0  0  0  0
 11  8  1  0  0  0  0
 12  9  1  1  0  0  0
 12 10  1  0  0  0  0
 13 15  1  6  0  0  0
 13  4  1  0  0  0  0
 14 21  1  1  0  0  0
 14  2  1  0  0  0  0
 14 13  1  0  0  0  0
 15 16  1  0  0  0  0
 16 11  1  0  0  0  0
 17 12  1  0  0  0  0
 19 20  1  0  0  0  0
 19 18  1  0  0  0  0
 20 18  1  0  0  0  0
 22 21  1  0  0  0  0
 23 22  1  0  0  0  0
 24 21  1  0  0  0  0
 26 27  2  0  0  0  0
 27 24  1  0  0  0  0
 27 25  1  0  0  0  0
 28 30  1  0  0  0  0
 29 30  1  0  0  0  0
 30 31  1  0  0  0  0
 31 32  2  0  0  0  0
 33 31  1  0  0  0  0
 33 35  1  0  0  0  0
 34 33  1  0  0  0  0
 35 36  1  0  0  0  0
 36 37  1  0  0  0  0
M  END
>  <MODEL>
5

>  <REMARK>
 VINA RESULT:      -3.2      2.828      7.832
  Name = 
  11 active torsions:
  status: ('A' for Active; 'I' for Inactive)
    1  A    between atoms: C_1  and  C_5
    2  A    between atoms: C_1  and  C_23
    3  A    between atoms: O_2  and  C_6
    4  A    between atoms: C_5  and  C_26
    5  A    between atoms: C_6  and  O_8
    6  A    between atoms: C_6  and  C_31
    7  A    between atoms: O_8  and  C_19
    8  A    between atoms: C_9  and  C_30
    9  A    between atoms: O_11  and  C_26
   10  A    between atoms: C_20  and  O_25
   11  A    between atoms: C_23  and  O_25
                            x       y       z     vdW  Elec       q    Type
                         _______ _______ _______ _____ _____    ______ ____

>  <TORSDO>
F 11

$$$$
=
 OpenBabel11062409253D

 37 41  0  0  1  0  0  0  0  0999 V2000
  160.0320  205.7800  150.2610 O   0  0  0  0  0  0  0  0  0  0  0  0
  160.8490  202.9370  148.2890 O   0  0  0  0  0  0  0  0  0  0  0  0
  161.8000  206.2200  152.0990 C   0  0  2  0  0  0  0  0  0  0  0  0
  160.9330  204.8980  149.6310 C   0  0  1  0  0  0  0  0  0  0  0  0
  160.7550  206.7170  151.0420 C   0  0  1  0  0  3  0  0  0  0  0  0
  160.3200  203.5300  149.4490 C   0  0  2  0  0  3  0  0  0  0  0  0
  163.1630  206.0610  151.4370 C   0  0  0  0  0  1  0  0  0  0  0  0
  160.9060  208.1180  150.4020 C   0  0  2  0  0  3  0  0  0  0  0  0
  160.9830  202.4160  152.5290 C   0  0  0  0  0  1  0  0  0  0  0  0
  161.4340  204.8520  152.7450 C   0  0  0  0  0  2  0  0  0  0  0  0
  160.3440  208.1970  149.1060 O   0  0  0  0  0  0  0  0  0  0  0  0
  160.8310  203.7640  151.8540 C   0  0  1  0  0  3  0  0  0  0  0  0
  161.5020  205.2270  148.2680 C   0  0  1  0  0  3  0  0  0  0  0  0
  161.2430  203.9860  147.4380 C   0  0  1  0  0  3  0  0  0  0  0  0
  160.7930  206.3950  147.5970 C   0  0  0  0  0  2  0  0  0  0  0  0
  161.2740  207.7100  148.1730 C   0  0  0  0  0  2  0  0  0  0  0  0
  161.4370  203.7180  150.4580 C   0  0  2  0  0  3  0  0  0  0  0  0
  161.3500  207.0450  154.5180 C   0  0  0  0  0  2  0  0  0  0  0  0
  161.9660  207.3430  153.1590 C   0  0  0  0  0  3  0  0  0  0  0  0
  160.6450  207.9830  153.5550 C   0  0  0  0  0  2  0  0  0  0  0  0
  162.4970  203.5830  146.6640 C   0  0  2  0  0  3  0  0  0  0  0  0
  163.3700  204.6700  146.5650 O   0  0  0  0  0  0  0  0  0  0  0  0
  163.1450  205.2010  145.2920 C   0  0  0  0  0  1  0  0  0  0  0  0
  162.1240  203.1560  145.3590 O   0  0  0  0  0  0  0  0  0  0  0  0
  160.2250  201.6030  145.2570 N   0  0  0  0  0  1  0  0  0  0  0  0
  160.1020  203.7830  144.4770 O   0  0  0  0  0  0  0  0  0  0  0  0
  160.8010  202.8830  145.0090 C   0  0  0  0  0  0  0  0  0  0  0  0
  162.2190  208.6240  150.4650 O   0  0  0  0  0  0  0  0  0  0  0  0
  163.1810  210.3550  151.8060 C   0  0  0  0  0  1  0  0  0  0  0  0
  162.0900  209.9730  150.8210 C   0  0  1  0  0  3  0  0  0  0  0  0
  162.1700  210.8550  149.6070 C   0  0  0  0  0  0  0  0  0  0  0  0
  162.7260  210.4360  148.6020 O   0  0  0  0  0  0  0  0  0  0  0  0
  161.5810  212.2360  149.6230 C   0  0  2  0  0  3  0  0  0  0  0  0
  160.4340  212.3160  150.6150 C   0  0  0  0  0  1  0  0  0  0  0  0
  161.1160  212.6380  148.2340 C   0  0  0  0  0  2  0  0  0  0  0  0
  161.2820  214.0120  148.0580 O   0  0  0  0  0  0  0  0  0  0  0  0
  162.6470  214.1710  147.8230 C   0  0  0  0  0  1  0  0  0  0  0  0
  3  7  1  6  0  0  0
  3 10  1  0  0  0  0
  3 19  1  0  0  0  0
  4  1  1  1  0  0  0
  4 17  1  0  0  0  0
  5  1  1  6  0  0  0
  5  3  1  0  0  0  0
  6  2  1  6  0  0  0
  6  4  1  0  0  0  0
  6 17  1  0  0  0  0
  8 28  1  6  0  0  0
  8  5  1  0  0  0  0
 11  8  1  0  0  0  0
 12  9  1  1  0  0  0
 12 10  1  0  0  0  0
 13 15  1  6  0  0  0
 13  4  1  0  0  0  0
 14 21  1  1  0  0  0
 14 13  1  0  0  0  0
 14  2  1  0  0  0  0
 15 16  1  0  0  0  0
 16 11  1  0  0  0  0
 17 12  1  0  0  0  0
 19 20  1  0  0  0  0
 19 18  1  0  0  0  0
 20 18  1  0  0  0  0
 22 21  1  0  0  0  0
 23 22  1  0  0  0  0
 24 21  1  0  0  0  0
 26 27  2  0  0  0  0
 27 25  1  0  0  0  0
 27 24  1  0  0  0  0
 28 30  1  0  0  0  0
 30 29  1  0  0  0  0
 31 33  1  0  0  0  0
 31 30  1  0  0  0  0
 32 31  2  0  0  0  0
 33 34  1  0  0  0  0
 35 33  1  0  0  0  0
 36 35  1  0  0  0  0
 37 36  1  0  0  0  0
M  END
>  <MODEL>
6

>  <REMARK>
 VINA RESULT:      -2.9      3.265      7.638
  Name = 
  11 active torsions:
  status: ('A' for Active; 'I' for Inactive)
    1  A    between atoms: C_1  and  C_5
    2  A    between atoms: C_1  and  C_23
    3  A    between atoms: O_2  and  C_6
    4  A    between atoms: C_5  and  C_26
    5  A    between atoms: C_6  and  O_8
    6  A    between atoms: C_6  and  C_31
    7  A    between atoms: O_8  and  C_19
    8  A    between atoms: C_9  and  C_30
    9  A    between atoms: O_11  and  C_26
   10  A    between atoms: C_20  and  O_25
   11  A    between atoms: C_23  and  O_25
                            x       y       z     vdW  Elec       q    Type
                         _______ _______ _______ _____ _____    ______ ____

>  <TORSDO>
F 11

$$$$
