=
 OpenBabel11052422203D

 25 28  0  0  1  0  0  0  0  0999 V2000
  161.4330  205.3900  149.2070 C   0  0  0  0  0  0  0  0  0  0  0  0
  161.4790  206.4970  150.0770 C   0  0  0  0  0  0  0  0  0  0  0  0
  160.8180  203.8530  150.9620 C   0  0  0  0  0  3  0  0  0  0  0  0
  161.6450  205.2630  147.8490 C   0  0  0  0  0  0  0  0  0  0  0  0
  161.8270  209.0480  149.9580 C   0  0  0  0  0  0  0  0  0  0  0  0
  161.9250  204.3730  145.2400 C   0  0  0  0  0  3  0  0  0  0  0  0
  160.8600  204.9220  151.8630 C   0  0  0  0  0  3  0  0  0  0  0  0
  161.4480  203.9330  147.5480 C   0  0  0  0  0  0  0  0  0  0  0  0
  161.5810  203.4530  146.2470 C   0  0  0  0  0  2  0  0  0  0  0  0
  161.1390  207.2830  152.5610 C   0  0  1  0  0  3  0  0  0  0  0  0
  161.4730  206.7310  153.8020 O   0  0  0  0  0  1  0  0  0  0  0  0
  161.8470  207.8030  149.4630 C   0  0  0  0  0  3  0  0  0  0  0  0
  162.1250  205.7340  145.5500 C   0  0  0  0  0  3  0  0  0  0  0  0
  161.1160  204.1150  149.6360 C   0  0  0  0  0  0  0  0  0  0  0  0
  161.1190  203.2050  148.6360 N   0  0  0  0  0  0  0  0  0  0  0  0
  162.0050  208.4960  152.3340 C   0  0  0  0  0  2  0  0  0  0  0  0
  161.9840  206.1960  146.8700 C   0  0  0  0  0  3  0  0  0  0  0  0
  161.3160  209.3620  151.3160 C   0  0  0  0  0  2  0  0  0  0  0  0
  161.2060  206.2370  151.4650 C   0  0  0  0  0  0  0  0  0  0  0  0
  162.3910  212.5360  148.4420 N   0  0  0  0  0  0  0  0  0  0  0  0
  161.9560  213.9200  148.5290 C   0  0  0  0  0  1  0  0  0  0  0  0
  163.4560  212.2030  147.5110 C   0  0  0  0  0  1  0  0  0  0  0  0
  162.2310  210.1610  149.1480 N   0  0  0  0  0  2  0  0  0  0  0  0
  160.8600  211.8320  150.0530 O   0  0  0  0  0  0  0  0  0  0  0  0
  161.7890  211.5240  149.2580 C   0  0  0  0  0  0  0  0  0  0  0  0
  1 14  1  0  0  0  0
  1  2  2  0  0  0  0
  2 19  1  0  0  0  0
  3  7  1  0  0  0  0
  4  1  1  0  0  0  0
  5 18  1  0  0  0  0
  6 13  2  0  0  0  0
  6  9  1  0  0  0  0
  8  4  1  0  0  0  0
  8 15  2  0  0  0  0
  9  8  1  0  0  0  0
 10 11  1  1  0  0  0
 12  5  2  0  0  0  0
 12  2  1  0  0  0  0
 13 17  1  0  0  0  0
 14  3  2  0  0  0  0
 15 14  1  0  0  0  0
 16 10  1  0  0  0  0
 17  4  2  0  0  0  0
 18 16  1  0  0  0  0
 19  7  2  0  0  0  0
 19 10  1  0  0  0  0
 20 21  1  0  0  0  0
 20 25  1  0  0  0  0
 22 20  1  0  0  0  0
 23 25  1  0  0  0  0
 23  5  1  0  0  0  0
 25 24  2  0  0  0  0
M  END
>  <MODEL>
1

>  <REMARK>
 VINA RESULT:      -9.9      0.000      0.000
  Name = 
  1 active torsions:
  status: ('A' for Active; 'I' for Inactive)
    1  A    between atoms: C_6  and  N_15
                            x       y       z     vdW  Elec       q    Type
                         _______ _______ _______ _____ _____    ______ ____

>  <TORSDO>
F 1

$$$$
=
 OpenBabel11052422203D

 25 28  0  0  1  0  0  0  0  0999 V2000
  161.4290  205.6210  149.4340 C   0  0  0  0  0  0  0  0  0  0  0  0
  161.5580  206.8870  150.0380 C   0  0  0  0  0  0  0  0  0  0  0  0
  162.0140  206.4460  147.2440 C   0  0  0  0  0  3  0  0  0  0  0  0
  161.1060  204.3770  149.9380 C   0  0  0  0  0  0  0  0  0  0  0  0
  161.4590  207.9370  152.3890 C   0  0  0  0  0  0  0  0  0  0  0  0
  160.5470  201.6900  150.3210 C   0  0  0  0  0  3  0  0  0  0  0  0
  162.1460  207.7220  147.7990 C   0  0  0  0  0  3  0  0  0  0  0  0
  161.1460  203.5040  148.8720 C   0  0  0  0  0  0  0  0  0  0  0  0
  160.8700  202.1480  149.0310 C   0  0  0  0  0  2  0  0  0  0  0  0
  162.1570  209.4100  149.6130 C   0  0  1  0  0  3  0  0  0  0  0  0
  161.8610  210.3120  148.5870 O   0  0  0  0  0  1  0  0  0  0  0  0
  161.2790  206.9520  151.4990 C   0  0  0  0  0  3  0  0  0  0  0  0
  160.5080  202.5850  151.4110 C   0  0  0  0  0  3  0  0  0  0  0  0
  161.6470  205.4100  148.0860 C   0  0  0  0  0  0  0  0  0  0  0  0
  161.4800  204.1190  147.7180 N   0  0  0  0  0  0  0  0  0  0  0  0
  161.4020  209.8340  150.8470 C   0  0  0  0  0  2  0  0  0  0  0  0
  160.7910  203.9500  151.2270 C   0  0  0  0  0  3  0  0  0  0  0  0
  162.0970  209.2290  152.0350 C   0  0  0  0  0  2  0  0  0  0  0  0
  161.9050  207.9810  149.1710 C   0  0  0  0  0  0  0  0  0  0  0  0
  160.4080  208.3930  156.0590 N   0  0  0  0  0  0  0  0  0  0  0  0
  160.1630  209.4030  157.0760 C   0  0  0  0  0  1  0  0  0  0  0  0
  160.1700  207.0000  156.3970 C   0  0  0  0  0  1  0  0  0  0  0  0
  161.1110  207.7460  153.7680 N   0  0  0  0  0  2  0  0  0  0  0  0
  161.0780  209.9770  154.4840 O   0  0  0  0  0  0  0  0  0  0  0  0
  160.8690  208.7630  154.7540 C   0  0  0  0  0  0  0  0  0  0  0  0
  1  4  1  0  0  0  0
  1  2  1  0  0  0  0
  2 12  1  0  0  0  0
  3  7  2  0  0  0  0
  3 14  1  0  0  0  0
  4 17  2  0  0  0  0
  5 23  1  0  0  0  0
  6 13  2  0  0  0  0
  7 19  1  0  0  0  0
  8  9  1  0  0  0  0
  8  4  1  0  0  0  0
  9  6  1  0  0  0  0
 10 11  1  6  0  0  0
 10 16  1  0  0  0  0
 12  5  2  0  0  0  0
 14  1  2  0  0  0  0
 15 14  1  0  0  0  0
 15  8  2  0  0  0  0
 16 18  1  0  0  0  0
 17 13  1  0  0  0  0
 18  5  1  0  0  0  0
 19 10  1  0  0  0  0
 19  2  2  0  0  0  0
 20 22  1  0  0  0  0
 20 21  1  0  0  0  0
 23 25  1  0  0  0  0
 24 25  2  0  0  0  0
 25 20  1  0  0  0  0
M  END
>  <MODEL>
2

>  <REMARK>
 VINA RESULT:      -9.8      2.595      5.072
  Name = 
  1 active torsions:
  status: ('A' for Active; 'I' for Inactive)
    1  A    between atoms: C_6  and  N_15
                            x       y       z     vdW  Elec       q    Type
                         _______ _______ _______ _____ _____    ______ ____

>  <TORSDO>
F 1

$$$$
=
 OpenBabel11052422203D

 25 28  0  0  1  0  0  0  0  0999 V2000
  161.3160  206.2350  150.7480 C   0  0  0  0  0  0  0  0  0  0  0  0
  161.3830  207.4970  151.3710 C   0  0  0  0  0  0  0  0  0  0  0  0
  160.8290  205.0820  152.8100 C   0  0  0  0  0  3  0  0  0  0  0  0
  161.4600  205.8370  149.4340 C   0  0  0  0  0  0  0  0  0  0  0  0
  161.6660  209.9730  150.7180 C   0  0  0  0  0  0  0  0  0  0  0  0
  161.6220  204.4360  147.0490 C   0  0  0  0  0  3  0  0  0  0  0  0
  160.8930  206.3120  153.4710 C   0  0  0  0  0  3  0  0  0  0  0  0
  161.2770  204.4700  149.4210 C   0  0  0  0  0  0  0  0  0  0  0  0
  161.3530  203.7370  148.2390 C   0  0  0  0  0  2  0  0  0  0  0  0
  161.1550  208.7690  153.6580 C   0  0  1  0  0  3  0  0  0  0  0  0
  161.5660  208.4860  154.9650 O   0  0  0  0  0  1  0  0  0  0  0  0
  161.6880  208.6540  150.4850 C   0  0  0  0  0  3  0  0  0  0  0  0
  161.8080  205.8340  147.0640 C   0  0  0  0  0  3  0  0  0  0  0  0
  161.0500  205.0710  151.4430 C   0  0  0  0  0  0  0  0  0  0  0  0
  161.0210  203.9760  150.6500 N   0  0  0  0  0  0  0  0  0  0  0  0
  161.9810  209.9190  153.1420 C   0  0  0  0  0  2  0  0  0  0  0  0
  161.7260  206.5540  148.2690 C   0  0  0  0  0  3  0  0  0  0  0  0
  161.2200  210.5520  152.0090 C   0  0  0  0  0  2  0  0  0  0  0  0
  161.1880  207.5220  152.7960 C   0  0  0  0  0  0  0  0  0  0  0  0
  161.9940  213.0600  148.4480 N   0  0  0  0  0  0  0  0  0  0  0  0
  161.4490  214.3870  148.2140 C   0  0  0  0  0  1  0  0  0  0  0  0
  163.1040  212.6130  147.6240 C   0  0  0  0  0  1  0  0  0  0  0  0
  162.0020  210.9030  149.6770 N   0  0  0  0  0  2  0  0  0  0  0  0
  160.4820  212.6180  150.1680 O   0  0  0  0  0  0  0  0  0  0  0  0
  161.4520  212.2140  149.4700 C   0  0  0  0  0  0  0  0  0  0  0  0
  1  2  2  0  0  0  0
  1 14  1  0  0  0  0
  2 19  1  0  0  0  0
  3  7  1  0  0  0  0
  4  1  1  0  0  0  0
  5 18  1  0  0  0  0
  6 13  2  0  0  0  0
  6  9  1  0  0  0  0
  8  4  1  0  0  0  0
  8 15  2  0  0  0  0
  9  8  1  0  0  0  0
 10 11  1  1  0  0  0
 12  5  2  0  0  0  0
 12  2  1  0  0  0  0
 13 17  1  0  0  0  0
 14  3  2  0  0  0  0
 15 14  1  0  0  0  0
 16 10  1  0  0  0  0
 17  4  2  0  0  0  0
 18 16  1  0  0  0  0
 19  7  2  0  0  0  0
 19 10  1  0  0  0  0
 20 25  1  0  0  0  0
 21 20  1  0  0  0  0
 22 20  1  0  0  0  0
 23  5  1  0  0  0  0
 25 23  1  0  0  0  0
 25 24  2  0  0  0  0
M  END
>  <MODEL>
3

>  <REMARK>
 VINA RESULT:      -9.5      1.102      1.619
  Name = 
  1 active torsions:
  status: ('A' for Active; 'I' for Inactive)
    1  A    between atoms: C_6  and  N_15
                            x       y       z     vdW  Elec       q    Type
                         _______ _______ _______ _____ _____    ______ ____

>  <TORSDO>
F 1

$$$$
=
 OpenBabel11052422203D

 25 28  0  0  1  0  0  0  0  0999 V2000
  161.1740  206.3480  151.7980 C   0  0  0  0  0  0  0  0  0  0  0  0
  161.2790  206.3240  150.3940 C   0  0  0  0  0  0  0  0  0  0  0  0
  161.3480  203.9500  151.9970 C   0  0  0  0  0  3  0  0  0  0  0  0
  161.0420  207.3810  152.7040 C   0  0  1  0  0  3  0  0  0  0  0  0
  161.4420  207.9840  148.4290 C   0  0  0  0  0  0  0  0  0  0  0  0
  160.7890  208.9600  154.9670 C   0  0  0  0  0  3  0  0  0  0  0  0
  161.4480  203.8780  150.6040 C   0  0  0  0  0  3  0  0  0  0  0  0
  161.0000  206.7980  153.9530 C   0  0  0  0  0  0  0  0  0  0  0  0
  160.8730  207.5630  155.1090 C   0  0  0  0  0  3  0  0  0  0  0  0
  161.5810  204.7710  148.2960 C   0  0  1  0  0  3  0  0  0  0  0  0
  161.0560  203.5270  147.9330 O   0  0  0  0  0  1  0  0  0  0  0  0
  161.2180  207.6430  149.7050 C   0  0  0  0  0  3  0  0  0  0  0  0
  160.8340  209.5550  153.6890 C   0  0  0  0  0  3  0  0  0  0  0  0
  161.2060  205.2020  152.5700 C   0  0  0  0  0  0  0  0  0  0  0  0
  161.1010  205.4530  153.8940 N   0  0  0  0  0  0  0  0  0  0  0  0
  160.9850  205.8180  147.3900 C   0  0  0  0  0  2  0  0  0  0  0  0
  160.9640  208.7620  152.5350 C   0  0  0  0  0  3  0  0  0  0  0  0
  161.9020  207.0100  147.4090 C   0  0  0  0  0  2  0  0  0  0  0  0
  161.3940  205.0290  149.7780 C   0  0  0  0  0  0  0  0  0  0  0  0
  161.7730  211.7920  148.0120 N   0  0  0  0  0  0  0  0  0  0  0  0
  162.3310  212.9800  148.6360 C   0  0  0  0  0  1  0  0  0  0  0  0
  161.0990  211.9340  146.7330 C   0  0  0  0  0  1  0  0  0  0  0  0
  161.3230  209.3510  148.0080 N   0  0  0  0  0  2  0  0  0  0  0  0
  162.4710  210.4100  149.7550 O   0  0  0  0  0  0  0  0  0  0  0  0
  161.8890  210.5100  148.6400 C   0  0  0  0  0  0  0  0  0  0  0  0
  1 14  2  0  0  0  0
  1  4  1  0  0  0  0
  2  1  1  0  0  0  0
  3 14  1  0  0  0  0
  4 17  1  1  0  0  0
  4  8  1  0  0  0  0
  5 12  2  0  0  0  0
  6  9  2  0  0  0  0
  7  3  2  0  0  0  0
  8  9  1  0  0  0  0
 10 11  1  6  0  0  0
 10 19  1  0  0  0  0
 12  2  1  0  0  0  0
 13  6  1  0  0  0  0
 14 15  1  0  0  0  0
 15  8  2  0  0  0  0
 16 18  1  0  0  0  0
 16 10  1  0  0  0  0
 17 13  2  0  0  0  0
 18  5  1  0  0  0  0
 19  2  2  0  0  0  0
 19  7  1  0  0  0  0
 20 21  1  0  0  0  0
 20 25  1  0  0  0  0
 22 20  1  0  0  0  0
 23  5  1  0  0  0  0
 23 25  1  0  0  0  0
 25 24  2  0  0  0  0
M  END
>  <MODEL>
4

>  <REMARK>
 VINA RESULT:      -9.2      2.238      4.967
  Name = 
  1 active torsions:
  status: ('A' for Active; 'I' for Inactive)
    1  A    between atoms: C_6  and  N_15
                            x       y       z     vdW  Elec       q    Type
                         _______ _______ _______ _____ _____    ______ ____

>  <TORSDO>
F 1

$$$$
=
 OpenBabel11052422203D

 25 28  0  0  1  0  0  0  0  0999 V2000
  161.1280  203.7190  147.9160 C   0  0  0  0  0  0  0  0  0  0  0  0
  161.1900  204.0920  149.2730 C   0  0  0  0  0  0  0  0  0  0  0  0
  160.8630  201.3750  148.4240 C   0  0  0  0  0  3  0  0  0  0  0  0
  161.1800  204.4490  146.7460 C   0  0  0  0  0  0  0  0  0  0  0  0
  161.3100  206.2390  150.6940 C   0  0  0  0  0  0  0  0  0  0  0  0
  161.2060  205.3200  144.1160 C   0  0  0  0  0  3  0  0  0  0  0  0
  160.9290  201.6990  149.7830 C   0  0  0  0  0  3  0  0  0  0  0  0
  161.0570  203.5410  145.7170 C   0  0  0  0  0  0  0  0  0  0  0  0
  161.0660  203.9460  144.3840 C   0  0  0  0  0  2  0  0  0  0  0  0
  161.0970  203.2040  151.7440 C   0  0  1  0  0  3  0  0  0  0  0  0
  161.6270  202.0800  152.3860 O   0  0  0  0  0  1  0  0  0  0  0  0
  161.3700  205.5440  149.5500 C   0  0  0  0  0  3  0  0  0  0  0  0
  161.3310  206.2470  145.1710 C   0  0  0  0  0  3  0  0  0  0  0  0
  160.9720  202.4080  147.5090 C   0  0  0  0  0  0  0  0  0  0  0  0
  160.9250  202.2740  146.1630 N   0  0  0  0  0  0  0  0  0  0  0  0
  161.8260  204.4230  152.2480 C   0  0  0  0  0  2  0  0  0  0  0  0
  161.3170  205.8160  146.5090 C   0  0  0  0  0  3  0  0  0  0  0  0
  160.9480  205.6160  151.9910 C   0  0  0  0  0  2  0  0  0  0  0  0
  161.1140  203.0280  150.2380 C   0  0  0  0  0  0  0  0  0  0  0  0
  161.9560  209.9070  149.7400 N   0  0  0  0  0  0  0  0  0  0  0  0
  162.3640  210.7610  148.6360 C   0  0  0  0  0  1  0  0  0  0  0  0
  161.5850  210.5320  150.9970 C   0  0  0  0  0  1  0  0  0  0  0  0
  161.5180  207.6590  150.6960 N   0  0  0  0  0  2  0  0  0  0  0  0
  162.2510  207.9600  148.4910 O   0  0  0  0  0  0  0  0  0  0  0  0
  161.9160  208.4830  149.5890 C   0  0  0  0  0  0  0  0  0  0  0  0
  1  2  2  0  0  0  0
  2 12  1  0  0  0  0
  2 19  1  0  0  0  0
  3  7  1  0  0  0  0
  4  1  1  0  0  0  0
  5 23  1  0  0  0  0
  5 18  1  0  0  0  0
  6  9  1  0  0  0  0
  6 13  2  0  0  0  0
  7 19  2  0  0  0  0
  8 15  2  0  0  0  0
  8  4  1  0  0  0  0
  9  8  1  0  0  0  0
 10 16  1  0  0  0  0
 10 11  1  1  0  0  0
 12  5  2  0  0  0  0
 13 17  1  0  0  0  0
 14  1  1  0  0  0  0
 14  3  2  0  0  0  0
 15 14  1  0  0  0  0
 17  4  2  0  0  0  0
 18 16  1  0  0  0  0
 19 10  1  0  0  0  0
 20 22  1  0  0  0  0
 21 20  1  0  0  0  0
 24 25  2  0  0  0  0
 25 20  1  0  0  0  0
 25 23  1  0  0  0  0
M  END
>  <MODEL>
5

>  <REMARK>
 VINA RESULT:      -9.0      1.964      3.101
  Name = 
  1 active torsions:
  status: ('A' for Active; 'I' for Inactive)
    1  A    between atoms: C_6  and  N_15
                            x       y       z     vdW  Elec       q    Type
                         _______ _______ _______ _____ _____    ______ ____

>  <TORSDO>
F 1

$$$$
=
 OpenBabel11052422203D

 25 28  0  0  1  0  0  0  0  0999 V2000
  161.2260  207.6340  152.6210 C   0  0  0  0  0  0  0  0  0  0  0  0
  161.4180  207.4350  151.2390 C   0  0  0  0  0  0  0  0  0  0  0  0
  161.0270  205.2740  153.0800 C   0  0  0  0  0  3  0  0  0  0  0  0
  161.1890  208.7720  153.4010 C   0  0  0  0  0  0  0  0  0  0  0  0
  161.9560  208.8200  149.1340 C   0  0  0  0  0  0  0  0  0  0  0  0
  161.0250  210.6200  155.4600 C   0  0  0  0  0  3  0  0  0  0  0  0
  161.2060  205.0300  151.7150 C   0  0  0  0  0  3  0  0  0  0  0  0
  160.9780  208.3470  154.6950 C   0  0  0  0  0  0  0  0  0  0  0  0
  160.8900  209.2510  155.7520 C   0  0  0  0  0  3  0  0  0  0  0  0
  161.6230  205.6250  149.3450 C   0  0  1  0  0  3  0  0  0  0  0  0
  160.9430  204.4340  149.0720 O   0  0  0  0  0  1  0  0  0  0  0  0
  161.6000  208.6620  150.4150 C   0  0  0  0  0  2  0  0  0  0  0  0
  161.2430  211.0520  154.1340 C   0  0  0  0  0  3  0  0  0  0  0  0
  161.0350  206.5910  153.5060 C   0  0  1  0  0  3  0  0  0  0  0  0
  160.8810  207.0040  154.7850 N   0  0  0  0  0  0  0  0  0  0  0  0
  161.2510  206.6350  148.2900 C   0  0  0  0  0  2  0  0  0  0  0  0
  161.3290  210.1220  153.0840 C   0  0  0  0  0  3  0  0  0  0  0  0
  162.3320  207.6800  148.2610 C   0  0  0  0  0  2  0  0  0  0  0  0
  161.3790  206.0750  150.7730 C   0  0  0  0  0  0  0  0  0  0  0  0
  161.9770  212.6120  148.5000 N   0  0  0  0  0  0  0  0  0  0  0  0
  161.5810  213.8850  149.0800 C   0  0  0  0  0  1  0  0  0  0  0  0
  162.6910  212.6220  147.2340 C   0  0  0  0  0  1  0  0  0  0  0  0
  162.0700  210.1320  148.5650 N   0  0  0  0  0  0  0  0  0  0  0  0
  161.0470  211.3920  150.2550 O   0  0  0  0  0  0  0  0  0  0  0  0
  161.6750  211.3780  149.1620 C   0  0  0  0  0  0  0  0  0  0  0  0
  1  4  2  0  0  0  0
  1 14  1  0  0  0  0
  2  1  1  0  0  0  0
  4  8  1  0  0  0  0
  5 12  1  0  0  0  0
  6  9  2  0  0  0  0
  7  3  2  0  0  0  0
  8 15  2  0  0  0  0
  8  9  1  0  0  0  0
 10 11  1  6  0  0  0
 10 19  1  0  0  0  0
 12  2  1  0  0  0  0
 13  6  1  0  0  0  0
 14  3  1  1  0  0  0
 14 15  1  0  0  0  0
 16 10  1  0  0  0  0
 17  4  1  0  0  0  0
 17 13  2  0  0  0  0
 18 16  1  0  0  0  0
 18  5  1  0  0  0  0
 19  2  2  0  0  0  0
 19  7  1  0  0  0  0
 20 21  1  0  0  0  0
 20 25  1  0  0  0  0
 22 20  1  0  0  0  0
 23  5  2  0  0  0  0
 23 25  1  0  0  0  0
 25 24  2  0  0  0  0
M  END
>  <MODEL>
6

>  <REMARK>
 VINA RESULT:      -8.6      2.358      5.363
  Name = 
  1 active torsions:
  status: ('A' for Active; 'I' for Inactive)
    1  A    between atoms: C_6  and  N_15
                            x       y       z     vdW  Elec       q    Type
                         _______ _______ _______ _____ _____    ______ ____

>  <TORSDO>
F 1

$$$$
=
 OpenBabel11052422203D

 25 28  0  0  1  0  0  0  0  0999 V2000
  161.5580  207.1660  151.0660 C   0  0  0  0  0  0  0  0  0  0  0  0
  161.3200  205.8240  150.7110 C   0  0  0  0  0  0  0  0  0  0  0  0
  161.7270  206.6650  153.4190 C   0  0  0  0  0  3  0  0  0  0  0  0
  161.6700  208.3210  150.3180 C   0  0  1  0  0  3  0  0  0  0  0  0
  161.0350  204.3980  148.5830 C   0  0  0  0  0  0  0  0  0  0  0  0
  162.0030  210.9180  149.4100 C   0  0  0  0  0  3  0  0  0  0  0  0
  161.4860  205.3220  153.1140 C   0  0  0  0  0  3  0  0  0  0  0  0
  161.9190  209.3390  151.2130 C   0  0  0  0  0  0  0  0  0  0  0  0
  162.0910  210.6550  150.7890 C   0  0  0  0  0  3  0  0  0  0  0  0
  161.0740  203.3760  151.6350 C   0  0  1  0  0  3  0  0  0  0  0  0
  160.4520  202.8290  152.7610 O   0  0  0  0  0  1  0  0  0  0  0  0
  161.1200  205.5500  149.2610 C   0  0  0  0  0  3  0  0  0  0  0  0
  161.7490  209.8740  148.4960 C   0  0  0  0  0  3  0  0  0  0  0  0
  161.7530  207.5700  152.3720 C   0  0  0  0  0  0  0  0  0  0  0  0
  161.9760  208.8990  152.4880 N   0  0  0  0  0  0  0  0  0  0  0  0
  160.2980  202.9540  150.4140 C   0  0  0  0  0  2  0  0  0  0  0  0
  161.5810  208.5530  148.9460 C   0  0  0  0  0  3  0  0  0  0  0  0
  161.2150  203.0740  149.2290 C   0  0  0  0  0  2  0  0  0  0  0  0
  161.2560  204.8740  151.7890 C   0  0  0  0  0  0  0  0  0  0  0  0
  161.2930  205.0050  144.7950 N   0  0  0  0  0  0  0  0  0  0  0  0
  161.9570  205.8280  143.7970 C   0  0  0  0  0  1  0  0  0  0  0  0
  160.4000  203.9540  144.3400 C   0  0  0  0  0  1  0  0  0  0  0  0
  160.8450  204.4010  147.1610 N   0  0  0  0  0  2  0  0  0  0  0  0
  162.2910  206.1460  146.5670 O   0  0  0  0  0  0  0  0  0  0  0  0
  161.5190  205.2220  146.1930 C   0  0  0  0  0  0  0  0  0  0  0  0
  1 14  1  0  0  0  0
  2  1  2  0  0  0  0
  2 19  1  0  0  0  0
  4 17  1  6  0  0  0
  4  1  1  0  0  0  0
  4  8  1  0  0  0  0
  5 18  1  0  0  0  0
  5 12  2  0  0  0  0
  6  9  2  0  0  0  0
  7  3  1  0  0  0  0
  8 15  2  0  0  0  0
  9  8  1  0  0  0  0
 10 19  1  0  0  0  0
 10 11  1  1  0  0  0
 12  2  1  0  0  0  0
 13 17  2  0  0  0  0
 13  6  1  0  0  0  0
 14 15  1  0  0  0  0
 14  3  2  0  0  0  0
 16 10  1  0  0  0  0
 18 16  1  0  0  0  0
 19  7  2  0  0  0  0
 20 25  1  0  0  0  0
 21 20  1  0  0  0  0
 22 20  1  0  0  0  0
 23  5  1  0  0  0  0
 25 24  2  0  0  0  0
 25 23  1  0  0  0  0
M  END
>  <MODEL>
7

>  <REMARK>
 VINA RESULT:      -8.5      2.414      5.821
  Name = 
  1 active torsions:
  status: ('A' for Active; 'I' for Inactive)
    1  A    between atoms: C_6  and  N_15
                            x       y       z     vdW  Elec       q    Type
                         _______ _______ _______ _____ _____    ______ ____

>  <TORSDO>
F 1

$$$$
=
 OpenBabel11052422203D

 25 28  0  0  1  0  0  0  0  0999 V2000
  161.5650  206.7830  149.5400 C   0  0  0  0  0  0  0  0  0  0  0  0
  161.3130  205.7150  150.4230 C   0  0  0  0  0  0  0  0  0  0  0  0
  161.4630  205.3780  147.5820 C   0  0  0  0  0  3  0  0  0  0  0  0
  161.7700  208.1320  149.7460 C   0  0  0  0  0  0  0  0  0  0  0  0
  160.9100  205.3270  152.9390 C   0  0  0  0  0  0  0  0  0  0  0  0
  162.2280  210.8540  149.4970 C   0  0  0  0  0  3  0  0  0  0  0  0
  161.2180  204.2870  148.4210 C   0  0  0  0  0  3  0  0  0  0  0  0
  161.9560  208.6900  148.4990 C   0  0  0  0  0  0  0  0  0  0  0  0
  162.1880  210.0550  148.3400 C   0  0  0  0  0  2  0  0  0  0  0  0
  160.8240  203.1380  150.5810 C   0  0  1  0  0  3  0  0  0  0  0  0
  161.3340  202.0170  149.9180 O   0  0  0  0  0  1  0  0  0  0  0  0
  161.2740  206.0520  151.8730 C   0  0  0  0  0  3  0  0  0  0  0  0
  162.0360  210.2810  150.7720 C   0  0  0  0  0  3  0  0  0  0  0  0
  161.6380  206.6190  148.1700 C   0  0  0  0  0  0  0  0  0  0  0  0
  161.8780  207.7750  147.5110 N   0  0  0  0  0  0  0  0  0  0  0  0
  161.2990  203.0990  152.0110 C   0  0  0  0  0  2  0  0  0  0  0  0
  161.8010  208.9010  150.9080 C   0  0  0  0  0  3  0  0  0  0  0  0
  160.3650  203.9520  152.8230 C   0  0  0  0  0  2  0  0  0  0  0  0
  161.1620  204.4120  149.8310 C   0  0  0  0  0  0  0  0  0  0  0  0
  160.7760  207.6580  155.9940 N   0  0  0  0  0  0  0  0  0  0  0  0
  160.6590  209.0540  156.3800 C   0  0  0  0  0  1  0  0  0  0  0  0
  160.8310  206.6530  157.0420 C   0  0  0  0  0  1  0  0  0  0  0  0
  160.9550  205.8940  154.2560 N   0  0  0  0  0  2  0  0  0  0  0  0
  160.7910  208.1690  153.7190 O   0  0  0  0  0  0  0  0  0  0  0  0
  160.8320  207.2800  154.6130 C   0  0  0  0  0  0  0  0  0  0  0  0
  1  4  1  0  0  0  0
  1  2  2  0  0  0  0
  2 12  1  0  0  0  0
  3 14  2  0  0  0  0
  3  7  1  0  0  0  0
  4 17  2  0  0  0  0
  5 23  1  0  0  0  0
  6 13  2  0  0  0  0
  7 19  2  0  0  0  0
  8  4  1  0  0  0  0
  9  8  1  0  0  0  0
  9  6  1  0  0  0  0
 10 11  1  6  0  0  0
 10 16  1  0  0  0  0
 12  5  2  0  0  0  0
 13 17  1  0  0  0  0
 14  1  1  0  0  0  0
 15 14  1  0  0  0  0
 15  8  2  0  0  0  0
 16 18  1  0  0  0  0
 18  5  1  0  0  0  0
 19  2  1  0  0  0  0
 19 10  1  0  0  0  0
 20 21  1  0  0  0  0
 20 22  1  0  0  0  0
 23 25  1  0  0  0  0
 24 25  2  0  0  0  0
 25 20  1  0  0  0  0
M  END
>  <MODEL>
8

>  <REMARK>
 VINA RESULT:      -8.3      2.855      5.850
  Name = 
  1 active torsions:
  status: ('A' for Active; 'I' for Inactive)
    1  A    between atoms: C_6  and  N_15
                            x       y       z     vdW  Elec       q    Type
                         _______ _______ _______ _____ _____    ______ ____

>  <TORSDO>
F 1

$$$$
=
 OpenBabel11052422203D

 25 28  0  0  1  0  0  0  0  0999 V2000
  161.0040  203.4470  149.0170 C   0  0  0  0  0  0  0  0  0  0  0  0
  161.1530  204.2800  147.8910 C   0  0  0  0  0  0  0  0  0  0  0  0
  160.8780  201.4350  147.6920 C   0  0  0  0  0  3  0  0  0  0  0  0
  160.9680  203.7100  150.3710 C   0  0  1  0  0  3  0  0  0  0  0  0
  161.5840  206.7640  147.3550 C   0  0  0  0  0  0  0  0  0  0  0  0
  160.8310  203.5800  153.1360 C   0  0  0  0  0  3  0  0  0  0  0  0
  161.0150  202.2240  146.5460 C   0  0  0  0  0  3  0  0  0  0  0  0
  160.8120  202.4930  150.9980 C   0  0  0  0  0  0  0  0  0  0  0  0
  160.7390  202.3930  152.3860 C   0  0  0  0  0  3  0  0  0  0  0  0
  161.3350  204.3250  145.2700 C   0  0  1  0  0  3  0  0  0  0  0  0
  160.6750  203.6390  144.2450 O   0  0  0  0  0  1  0  0  0  0  0  0
  161.2770  205.7390  148.1610 C   0  0  0  0  0  3  0  0  0  0  0  0
  160.9920  204.8240  152.4920 C   0  0  0  0  0  3  0  0  0  0  0  0
  160.8700  202.0760  148.9190 C   0  0  0  0  0  0  0  0  0  0  0  0
  160.7500  201.4690  150.1220 N   0  0  0  0  0  0  0  0  0  0  0  0
  160.9030  205.7680  145.2280 C   0  0  0  0  0  2  0  0  0  0  0  0
  161.0640  204.9010  151.0900 C   0  0  0  0  0  3  0  0  0  0  0  0
  161.9570  206.5780  145.9310 C   0  0  0  0  0  2  0  0  0  0  0  0
  161.1300  203.6360  146.6050 C   0  0  0  0  0  0  0  0  0  0  0  0
  162.0640  209.8960  149.5330 N   0  0  0  0  0  0  0  0  0  0  0  0
  162.3310  210.3280  150.8950 C   0  0  0  0  0  1  0  0  0  0  0  0
  161.9560  210.9070  148.4950 C   0  0  0  0  0  1  0  0  0  0  0  0
  161.6460  208.1030  147.8680 N   0  0  0  0  0  2  0  0  0  0  0  0
  162.0060  207.6450  150.1380 O   0  0  0  0  0  0  0  0  0  0  0  0
  161.9170  208.5050  149.2210 C   0  0  0  0  0  0  0  0  0  0  0  0
  1  4  1  0  0  0  0
  2 12  1  0  0  0  0
  2  1  1  0  0  0  0
  3 14  1  0  0  0  0
  4  8  1  0  0  0  0
  4 17  1  1  0  0  0
  5 23  1  0  0  0  0
  5 12  2  0  0  0  0
  7 19  1  0  0  0  0
  7  3  2  0  0  0  0
  8  9  1  0  0  0  0
  9  6  2  0  0  0  0
 10 11  1  6  0  0  0
 10 19  1  0  0  0  0
 13  6  1  0  0  0  0
 14  1  2  0  0  0  0
 14 15  1  0  0  0  0
 15  8  2  0  0  0  0
 16 10  1  0  0  0  0
 16 18  1  0  0  0  0
 17 13  2  0  0  0  0
 18  5  1  0  0  0  0
 19  2  2  0  0  0  0
 20 21  1  0  0  0  0
 22 20  1  0  0  0  0
 23 25  1  0  0  0  0
 25 20  1  0  0  0  0
 25 24  2  0  0  0  0
M  END
>  <MODEL>
9

>  <REMARK>
 VINA RESULT:      -8.2      2.535      5.093
  Name = 
  1 active torsions:
  status: ('A' for Active; 'I' for Inactive)
    1  A    between atoms: C_6  and  N_15
                            x       y       z     vdW  Elec       q    Type
                         _______ _______ _______ _____ _____    ______ ____

>  <TORSDO>
F 1

$$$$
