=
 OpenBabel11052421493D

 30 32  0  0  1  0  0  0  0  0999 V2000
  161.0920  202.3560  151.1000 C   0  0  0  0  0  0  0  0  0  0  0  0
  161.0100  201.0210  150.5940 N   0  0  0  0  0  2  0  0  0  0  0  0
  161.0200  202.5510  152.3430 O   0  0  0  0  0  0  0  0  0  0  0  0
  160.8220  203.1800  148.7440 C   0  0  2  0  0  3  0  0  0  0  0  0
  161.1060  200.7610  149.1900 C   0  0  0  0  0  3  0  0  0  0  0  0
  161.3660  203.4970  150.1490 C   0  0  1  0  0  3  0  0  0  0  0  0
  161.0650  201.7590  148.3090 C   0  0  0  0  0  3  0  0  0  0  0  0
  161.8960  204.6910  145.4120 C   0  0  0  0  0  3  0  0  0  0  0  0
  162.2580  205.9810  145.8040 C   0  0  0  0  0  3  0  0  0  0  0  0
  161.4330  203.7710  146.3570 C   0  0  0  0  0  0  0  0  0  0  0  0
  161.7010  205.4480  148.0920 C   0  0  0  0  0  3  0  0  0  0  0  0
  161.0510  202.4050  145.8980 C   0  0  0  0  0  1  0  0  0  0  0  0
  162.1630  206.3680  147.1470 C   0  0  0  0  0  0  0  0  0  0  0  0
  161.3350  204.1470  147.7110 C   0  0  0  0  0  0  0  0  0  0  0  0
  160.8520  208.0170  149.2070 O   0  0  0  0  0  0  0  0  0  0  0  0
  161.8540  208.4640  148.5890 C   0  0  0  0  0  0  0  0  0  0  0  0
  162.5190  207.6860  147.5860 N   0  0  0  0  0  2  0  0  0  0  0  0
  162.3610  209.8230  148.9090 C   0  0  0  0  0  1  0  0  0  0  0  0
  161.4230  205.5570  151.4920 C   0  0  0  0  0  3  0  0  0  0  0  0
  160.7620  204.7780  150.6420 C   0  0  0  0  0  3  0  0  0  0  0  0
  160.8080  206.8270  151.9720 C   0  0  0  0  0  2  0  0  0  0  0  0
  161.3450  207.1980  153.3490 C   0  0  2  0  0  3  0  0  0  0  0  0
  160.9690  206.2240  154.2730 O   0  0  0  0  0  1  0  0  0  0  0  0
  161.1190  211.0190  154.1570 C   0  0  0  0  0  2  0  0  0  0  0  0
  160.8690  208.5740  153.8270 C   0  0  1  0  0  3  0  0  0  0  0  0
  161.4110  210.2510  155.4320 C   0  0  2  0  0  0  0  0  0  0  0  0
  161.2670  208.8130  155.2100 N   0  0  0  0  0  2  0  0  0  0  0  0
  161.4650  209.9240  152.7720 S   0  0  0  0  0  0  0  0  0  0  0  0
  160.5240  210.6570  156.4280 O   0  0  0  0  0  1  0  0  0  0  0  0
  162.8280  210.5440  155.8800 C   0  0  0  0  0  1  0  0  0  0  0  0
  1  3  2  0  0  0  0
  2  1  1  0  0  0  0
  4 14  1  6  0  0  0
  4  6  1  0  0  0  0
  5  2  1  0  0  0  0
  6 20  1  1  0  0  0
  6  1  1  0  0  0  0
  7  4  1  0  0  0  0
  7  5  2  0  0  0  0
  8  9  2  0  0  0  0
  8 10  1  0  0  0  0
  9 13  1  0  0  0  0
 10 14  2  0  0  0  0
 12 10  1  0  0  0  0
 13 17  1  0  0  0  0
 13 11  2  0  0  0  0
 14 11  1  0  0  0  0
 16 18  1  0  0  0  0
 16 15  2  0  0  0  0
 17 16  1  0  0  0  0
 19 21  1  0  0  0  0
 20 19  2  0  0  0  0
 21 22  1  0  0  0  0
 22 23  1  1  0  0  0
 24 26  1  0  0  0  0
 25 22  1  6  0  0  0
 25 27  1  0  0  0  0
 26 30  1  1  0  0  0
 26 29  1  0  0  0  0
 27 26  1  0  0  0  0
 28 25  1  0  0  0  0
 28 24  1  0  0  0  0
M  END
>  <MODEL>
1

>  <REMARK>
 VINA RESULT:      -9.0      0.000      0.000
  Name = 
  6 active torsions:
  status: ('A' for Active; 'I' for Inactive)
    1  A    between atoms: C_1  and  C_4
    2  A    between atoms: C_4  and  C_27
    3  A    between atoms: C_5  and  C_22
    4  A    between atoms: C_8  and  C_27
    5  A    between atoms: N_16  and  C_25
    6  A    between atoms: C_19  and  C_29
                            x       y       z     vdW  Elec       q    Type
                         _______ _______ _______ _____ _____    ______ ____

>  <TORSDO>
F 6

$$$$
=
 OpenBabel11052421493D

 30 32  0  0  1  0  0  0  0  0999 V2000
  161.7420  207.3610  152.2470 C   0  0  0  0  0  0  0  0  0  0  0  0
  161.4950  206.5400  153.3910 N   0  0  0  0  0  2  0  0  0  0  0  0
  162.0260  208.5780  152.4090 O   0  0  0  0  0  0  0  0  0  0  0  0
  160.8370  205.5040  150.8190 C   0  0  2  0  0  3  0  0  0  0  0  0
  161.1870  205.1500  153.2450 C   0  0  0  0  0  3  0  0  0  0  0  0
  161.7610  206.7350  150.8720 C   0  0  1  0  0  3  0  0  0  0  0  0
  160.9200  204.6350  152.0470 C   0  0  0  0  0  3  0  0  0  0  0  0
  161.2300  202.5430  148.4500 C   0  0  0  0  0  3  0  0  0  0  0  0
  161.4350  203.1950  147.2330 C   0  0  0  0  0  3  0  0  0  0  0  0
  161.0400  203.2800  149.6220 C   0  0  0  0  0  0  0  0  0  0  0  0
  161.2640  205.3320  148.3440 C   0  0  0  0  0  3  0  0  0  0  0  0
  160.8190  202.5460  150.9010 C   0  0  0  0  0  1  0  0  0  0  0  0
  161.4530  204.5950  147.1720 C   0  0  0  0  0  0  0  0  0  0  0  0
  161.0580  204.6880  149.5750 C   0  0  0  0  0  0  0  0  0  0  0  0
  160.3340  203.9740  144.5180 O   0  0  0  0  0  0  0  0  0  0  0  0
  161.0970  204.9660  144.6610 C   0  0  0  0  0  0  0  0  0  0  0  0
  161.6530  205.3000  145.9390 N   0  0  0  0  0  2  0  0  0  0  0  0
  161.4230  205.8110  143.4840 C   0  0  0  0  0  1  0  0  0  0  0  0
  162.1810  208.6640  149.4040 C   0  0  0  0  0  3  0  0  0  0  0  0
  161.3440  207.7180  149.8170 C   0  0  0  0  0  3  0  0  0  0  0  0
  161.7520  209.6310  148.3540 C   0  0  0  0  0  2  0  0  0  0  0  0
  162.2000  211.0440  148.7110 C   0  0  2  0  0  3  0  0  0  0  0  0
  161.6590  211.4070  149.9440 O   0  0  0  0  0  1  0  0  0  0  0  0
  160.8450  214.2400  146.9060 C   0  0  0  0  0  2  0  0  0  0  0  0
  161.8110  212.0810  147.6510 C   0  0  1  0  0  3  0  0  0  0  0  0
  159.8780  213.0910  146.6910 C   0  0  2  0  0  0  0  0  0  0  0  0
  160.4650  211.8320  147.1460 N   0  0  0  0  0  2  0  0  0  0  0  0
  161.9360  213.7840  148.2630 S   0  0  0  0  0  0  0  0  0  0  0  0
  159.5710  212.9960  145.3340 O   0  0  0  0  0  1  0  0  0  0  0  0
  158.6060  213.3550  147.4690 C   0  0  0  0  0  1  0  0  0  0  0  0
  1  3  2  0  0  0  0
  1  2  1  0  0  0  0
  4 14  1  6  0  0  0
  4  6  1  0  0  0  0
  4  7  1  0  0  0  0
  5  2  1  0  0  0  0
  6 20  1  6  0  0  0
  6  1  1  0  0  0  0
  7  5  2  0  0  0  0
  8 10  1  0  0  0  0
  9  8  2  0  0  0  0
 10 12  1  0  0  0  0
 11 14  1  0  0  0  0
 13  9  1  0  0  0  0
 13 11  2  0  0  0  0
 14 10  2  0  0  0  0
 15 16  2  0  0  0  0
 16 17  1  0  0  0  0
 17 13  1  0  0  0  0
 18 16  1  0  0  0  0
 19 20  2  0  0  0  0
 21 22  1  0  0  0  0
 21 19  1  0  0  0  0
 22 23  1  1  0  0  0
 24 28  1  0  0  0  0
 25 28  1  0  0  0  0
 25 22  1  1  0  0  0
 26 24  1  0  0  0  0
 26 27  1  0  0  0  0
 26 30  1  1  0  0  0
 27 25  1  0  0  0  0
 29 26  1  0  0  0  0
M  END
>  <MODEL>
2

>  <REMARK>
 VINA RESULT:      -8.9      3.085      5.885
  Name = 
  6 active torsions:
  status: ('A' for Active; 'I' for Inactive)
    1  A    between atoms: C_1  and  C_4
    2  A    between atoms: C_4  and  C_27
    3  A    between atoms: C_5  and  C_22
    4  A    between atoms: C_8  and  C_27
    5  A    between atoms: N_16  and  C_25
    6  A    between atoms: C_19  and  C_29
                            x       y       z     vdW  Elec       q    Type
                         _______ _______ _______ _____ _____    ______ ____

>  <TORSDO>
F 6

$$$$
=
 OpenBabel11052421493D

 30 32  0  0  1  0  0  0  0  0999 V2000
  161.0370  204.7560  145.2920 C   0  0  0  0  0  0  0  0  0  0  0  0
  160.6750  203.5820  144.5600 N   0  0  0  0  0  0  0  0  0  0  0  0
  161.2200  205.8380  144.6730 O   0  0  0  0  0  0  0  0  0  0  0  0
  161.4480  203.2880  147.2870 C   0  0  2  0  0  3  0  0  0  0  0  0
  160.4430  202.3400  145.2310 C   0  0  0  0  0  3  0  0  0  0  0  0
  161.0910  204.7050  146.8010 C   0  0  1  0  0  3  0  0  0  0  0  0
  160.7540  202.1940  146.5180 C   0  0  0  0  0  2  0  0  0  0  0  0
  161.0320  201.7250  150.7390 C   0  0  0  0  0  3  0  0  0  0  0  0
  160.8250  202.8590  151.5270 C   0  0  0  0  0  3  0  0  0  0  0  0
  161.2300  201.8500  149.3610 C   0  0  0  0  0  0  0  0  0  0  0  0
  161.0110  204.2590  149.5680 C   0  0  0  0  0  3  0  0  0  0  0  0
  161.4530  200.6150  148.5560 C   0  0  0  0  0  1  0  0  0  0  0  0
  160.8130  204.1340  150.9460 C   0  0  0  0  0  0  0  0  0  0  0  0
  161.2190  203.1260  148.7650 C   0  0  0  0  0  0  0  0  0  0  0  0
  162.8490  205.8550  152.2010 O   0  0  0  0  0  0  0  0  0  0  0  0
  161.6270  206.1340  152.3260 C   0  0  0  0  0  0  0  0  0  0  0  0
  160.6120  205.3220  151.7240 N   0  0  0  0  0  2  0  0  0  0  0  0
  161.2290  207.3320  153.1090 C   0  0  0  0  0  1  0  0  0  0  0  0
  161.6900  206.8660  147.8110 C   0  0  0  0  0  3  0  0  0  0  0  0
  162.0870  205.6860  147.3460 C   0  0  0  0  0  3  0  0  0  0  0  0
  162.6920  207.8290  148.3510 C   0  0  0  0  0  2  0  0  0  0  0  0
  162.1840  208.4680  149.6380 C   0  0  2  0  0  3  0  0  0  0  0  0
  160.8400  208.1430  149.8200 O   0  0  0  0  0  1  0  0  0  0  0  0
  161.5120  212.3170  149.8190 C   0  0  0  0  0  2  0  0  0  0  0  0
  162.3550  209.9910  149.6590 C   0  0  1  0  0  3  0  0  0  0  0  0
  161.7880  211.9210  148.3810 C   0  0  2  0  0  0  0  0  0  0  0  0
  162.2740  210.5440  148.3110 N   0  0  0  0  0  2  0  0  0  0  0  0
  161.1500  210.8130  150.7370 S   0  0  0  0  0  0  0  0  0  0  0  0
  162.7460  212.7780  147.8420 O   0  0  0  0  0  1  0  0  0  0  0  0
  160.5100  212.0380  147.5750 C   0  0  0  0  0  1  0  0  0  0  0  0
  1  6  1  0  0  0  0
  2  5  2  0  0  0  0
  2  1  1  0  0  0  0
  3  1  2  0  0  0  0
  4 14  1  1  0  0  0
  5  7  1  0  0  0  0
  6  4  1  0  0  0  0
  6 20  1  6  0  0  0
  7  4  1  0  0  0  0
  8  9  1  0  0  0  0
 10  8  2  0  0  0  0
 11 13  1  0  0  0  0
 12 10  1  0  0  0  0
 13  9  2  0  0  0  0
 13 17  1  0  0  0  0
 14 10  1  0  0  0  0
 14 11  2  0  0  0  0
 15 16  2  0  0  0  0
 16 18  1  0  0  0  0
 17 16  1  0  0  0  0
 19 21  1  0  0  0  0
 20 19  2  0  0  0  0
 21 22  1  0  0  0  0
 22 23  1  6  0  0  0
 24 28  1  0  0  0  0
 25 22  1  6  0  0  0
 25 28  1  0  0  0  0
 26 30  1  6  0  0  0
 26 24  1  0  0  0  0
 27 26  1  0  0  0  0
 27 25  1  0  0  0  0
 29 26  1  0  0  0  0
M  END
>  <MODEL>
3

>  <REMARK>
 VINA RESULT:      -8.9      2.543      5.192
  Name = 
  6 active torsions:
  status: ('A' for Active; 'I' for Inactive)
    1  A    between atoms: C_1  and  C_4
    2  A    between atoms: C_4  and  C_27
    3  A    between atoms: C_5  and  C_22
    4  A    between atoms: C_8  and  C_27
    5  A    between atoms: N_16  and  C_25
    6  A    between atoms: C_19  and  C_29
                            x       y       z     vdW  Elec       q    Type
                         _______ _______ _______ _____ _____    ______ ____

>  <TORSDO>
F 6

$$$$
=
 OpenBabel11052421493D

 30 32  0  0  1  0  0  0  0  0999 V2000
  161.0890  207.9970  154.4890 C   0  0  0  0  0  0  0  0  0  0  0  0
  161.6790  208.6170  155.6340 N   0  0  0  0  0  2  0  0  0  0  0  0
  160.9800  206.7420  154.4540 O   0  0  0  0  0  0  0  0  0  0  0  0
  161.2530  210.2050  153.3070 C   0  0  2  0  0  3  0  0  0  0  0  0
  161.8040  210.0400  155.7160 C   0  0  0  0  0  3  0  0  0  0  0  0
  160.5130  208.8580  153.3900 C   0  0  1  0  0  3  0  0  0  0  0  0
  161.5660  210.8060  154.6520 C   0  0  0  0  0  3  0  0  0  0  0  0
  158.6000  212.6080  151.9940 C   0  0  0  0  0  3  0  0  0  0  0  0
  159.2060  213.0680  150.8230 C   0  0  0  0  0  3  0  0  0  0  0  0
  159.2510  211.6760  152.8060 C   0  0  0  0  0  0  0  0  0  0  0  0
  161.1230  211.6660  151.2600 C   0  0  0  0  0  3  0  0  0  0  0  0
  158.5720  211.2140  154.0510 C   0  0  0  0  0  1  0  0  0  0  0  0
  160.4730  212.5990  150.4490 C   0  0  0  0  0  0  0  0  0  0  0  0
  160.5240  211.1950  152.4400 C   0  0  0  0  0  0  0  0  0  0  0  0
  161.8650  210.9900  148.4110 O   0  0  0  0  0  0  0  0  0  0  0  0
  161.8040  212.2420  148.2880 C   0  0  0  0  0  0  0  0  0  0  0  0
  161.1300  213.0540  149.2580 N   0  0  0  0  0  2  0  0  0  0  0  0
  162.4400  212.8910  147.1130 C   0  0  0  0  0  1  0  0  0  0  0  0
  161.7540  207.8930  151.4980 C   0  0  0  0  0  3  0  0  0  0  0  0
  160.5810  208.1670  152.0600 C   0  0  0  0  0  3  0  0  0  0  0  0
  161.8040  207.2050  150.1770 C   0  0  0  0  0  2  0  0  0  0  0  0
  161.0580  205.8770  150.2340 C   0  0  2  0  0  3  0  0  0  0  0  0
  161.7840  204.9670  151.0020 O   0  0  0  0  0  1  0  0  0  0  0  0
  161.2150  203.6980  146.9890 C   0  0  0  0  0  2  0  0  0  0  0  0
  160.7870  205.2820  148.8480 C   0  0  1  0  0  3  0  0  0  0  0  0
  161.8140  205.0630  146.7090 C   0  0  2  0  0  0  0  0  0  0  0  0
  161.5570  205.9760  147.8220 N   0  0  0  0  0  2  0  0  0  0  0  0
  161.1230  203.5020  148.7750 S   0  0  0  0  0  0  0  0  0  0  0  0
  161.2520  205.5830  145.5440 O   0  0  0  0  0  1  0  0  0  0  0  0
  163.3100  204.9230  146.5170 C   0  0  0  0  0  1  0  0  0  0  0  0
  1  2  1  0  0  0  0
  2  5  1  0  0  0  0
  3  1  2  0  0  0  0
  4 14  1  6  0  0  0
  4  6  1  0  0  0  0
  4  7  1  0  0  0  0
  6 20  1  6  0  0  0
  6  1  1  0  0  0  0
  7  5  2  0  0  0  0
  8 10  1  0  0  0  0
  9  8  2  0  0  0  0
 10 12  1  0  0  0  0
 11 14  1  0  0  0  0
 13  9  1  0  0  0  0
 13 11  2  0  0  0  0
 14 10  2  0  0  0  0
 16 15  2  0  0  0  0
 16 17  1  0  0  0  0
 17 13  1  0  0  0  0
 18 16  1  0  0  0  0
 19 20  2  0  0  0  0
 21 22  1  0  0  0  0
 21 19  1  0  0  0  0
 22 23  1  1  0  0  0
 24 28  1  0  0  0  0
 25 22  1  1  0  0  0
 26 30  1  6  0  0  0
 26 24  1  0  0  0  0
 26 27  1  0  0  0  0
 27 25  1  0  0  0  0
 28 25  1  0  0  0  0
 29 26  1  0  0  0  0
M  END
>  <MODEL>
4

>  <REMARK>
 VINA RESULT:      -8.6      2.846      7.943
  Name = 
  6 active torsions:
  status: ('A' for Active; 'I' for Inactive)
    1  A    between atoms: C_1  and  C_4
    2  A    between atoms: C_4  and  C_27
    3  A    between atoms: C_5  and  C_22
    4  A    between atoms: C_8  and  C_27
    5  A    between atoms: N_16  and  C_25
    6  A    between atoms: C_19  and  C_29
                            x       y       z     vdW  Elec       q    Type
                         _______ _______ _______ _____ _____    ______ ____

>  <TORSDO>
F 6

$$$$
=
 OpenBabel11052421493D

 30 32  0  0  1  0  0  0  0  0999 V2000
  161.0100  202.6870  151.4730 C   0  0  0  0  0  0  0  0  0  0  0  0
  160.8820  201.3930  150.8800 N   0  0  0  0  0  2  0  0  0  0  0  0
  160.9870  202.7970  152.7280 O   0  0  0  0  0  0  0  0  0  0  0  0
  160.6730  203.6780  149.1910 C   0  0  2  0  0  3  0  0  0  0  0  0
  160.9210  201.2290  149.4590 C   0  0  0  0  0  3  0  0  0  0  0  0
  161.2740  203.8870  150.5930 C   0  0  1  0  0  3  0  0  0  0  0  0
  160.8700  202.2860  148.6500 C   0  0  0  0  0  3  0  0  0  0  0  0
  162.0450  205.2940  146.0220 C   0  0  0  0  0  3  0  0  0  0  0  0
  162.0510  206.6420  146.3860 C   0  0  0  0  0  3  0  0  0  0  0  0
  161.6050  204.3220  146.9240 C   0  0  0  0  0  0  0  0  0  0  0  0
  161.1780  206.0630  148.5610 C   0  0  0  0  0  3  0  0  0  0  0  0
  161.6100  202.8940  146.4960 C   0  0  0  0  0  1  0  0  0  0  0  0
  161.6170  207.0350  147.6590 C   0  0  0  0  0  0  0  0  0  0  0  0
  161.1690  204.7040  148.2080 C   0  0  0  0  0  0  0  0  0  0  0  0
  162.6750  208.2110  150.1450 O   0  0  0  0  0  0  0  0  0  0  0  0
  162.1220  208.9490  149.2870 C   0  0  0  0  0  0  0  0  0  0  0  0
  161.6010  208.4110  148.0650 N   0  0  0  0  0  2  0  0  0  0  0  0
  162.0090  210.4070  149.5450 C   0  0  0  0  0  1  0  0  0  0  0  0
  161.4220  205.8460  152.0730 C   0  0  0  0  0  3  0  0  0  0  0  0
  160.7150  205.1420  151.1950 C   0  0  0  0  0  3  0  0  0  0  0  0
  160.8520  207.0920  152.6600 C   0  0  0  0  0  2  0  0  0  0  0  0
  161.2410  207.2200  154.1280 C   0  0  2  0  0  3  0  0  0  0  0  0
  160.2550  206.6350  154.9240 O   0  0  0  0  0  1  0  0  0  0  0  0
  161.2330  210.5780  156.1340 C   0  0  0  0  0  2  0  0  0  0  0  0
  161.4620  208.6720  154.5650 C   0  0  1  0  0  3  0  0  0  0  0  0
  160.2350  210.6690  154.9950 C   0  0  2  0  0  0  0  0  0  0  0  0
  160.3830  209.5310  154.0900 N   0  0  0  0  0  2  0  0  0  0  0  0
  161.6400  208.8410  156.3620 S   0  0  0  0  0  0  0  0  0  0  0  0
  160.4470  211.8530  154.2900 O   0  0  0  0  0  1  0  0  0  0  0  0
  158.8300  210.6750  155.5610 C   0  0  0  0  0  1  0  0  0  0  0  0
  1  3  2  0  0  0  0
  2  1  1  0  0  0  0
  4 14  1  6  0  0  0
  4  6  1  0  0  0  0
  5  2  1  0  0  0  0
  6 20  1  1  0  0  0
  6  1  1  0  0  0  0
  7  4  1  0  0  0  0
  7  5  2  0  0  0  0
  8  9  2  0  0  0  0
  8 10  1  0  0  0  0
  9 13  1  0  0  0  0
 10 14  2  0  0  0  0
 12 10  1  0  0  0  0
 13 17  1  0  0  0  0
 13 11  2  0  0  0  0
 14 11  1  0  0  0  0
 16 18  1  0  0  0  0
 16 15  2  0  0  0  0
 17 16  1  0  0  0  0
 19 21  1  0  0  0  0
 20 19  2  0  0  0  0
 21 22  1  0  0  0  0
 22 23  1  1  0  0  0
 24 28  1  0  0  0  0
 25 22  1  1  0  0  0
 25 28  1  0  0  0  0
 26 30  1  1  0  0  0
 26 24  1  0  0  0  0
 27 25  1  0  0  0  0
 27 26  1  0  0  0  0
 29 26  1  0  0  0  0
M  END
>  <MODEL>
5

>  <REMARK>
 VINA RESULT:      -8.5      1.300      1.461
  Name = 
  6 active torsions:
  status: ('A' for Active; 'I' for Inactive)
    1  A    between atoms: C_1  and  C_4
    2  A    between atoms: C_4  and  C_27
    3  A    between atoms: C_5  and  C_22
    4  A    between atoms: C_8  and  C_27
    5  A    between atoms: N_16  and  C_25
    6  A    between atoms: C_19  and  C_29
                            x       y       z     vdW  Elec       q    Type
                         _______ _______ _______ _____ _____    ______ ____

>  <TORSDO>
F 6

$$$$
=
 OpenBabel11052421493D

 30 32  0  0  1  0  0  0  0  0999 V2000
  161.1600  206.5690  154.0090 C   0  0  0  0  0  0  0  0  0  0  0  0
  161.2070  206.7310  155.4280 N   0  0  0  0  0  2  0  0  0  0  0  0
  161.3500  205.4280  153.5100 O   0  0  0  0  0  0  0  0  0  0  0  0
  161.1920  209.0710  153.8020 C   0  0  2  0  0  3  0  0  0  0  0  0
  160.9780  208.0100  156.0300 C   0  0  0  0  0  3  0  0  0  0  0  0
  160.7830  207.7440  153.1380 C   0  0  1  0  0  3  0  0  0  0  0  0
  160.9220  209.1120  155.2840 C   0  0  0  0  0  3  0  0  0  0  0  0
  160.5930  211.9520  151.3790 C   0  0  0  0  0  3  0  0  0  0  0  0
  159.3710  212.4460  151.8410 C   0  0  0  0  0  3  0  0  0  0  0  0
  161.1960  210.8610  152.0090 C   0  0  0  0  0  0  0  0  0  0  0  0
  159.3410  210.7630  153.5720 C   0  0  0  0  0  3  0  0  0  0  0  0
  162.4990  210.3610  151.4820 C   0  0  0  0  0  1  0  0  0  0  0  0
  158.7370  211.8540  152.9410 C   0  0  0  0  0  0  0  0  0  0  0  0
  160.5710  210.2590  153.1180 C   0  0  0  0  0  0  0  0  0  0  0  0
  158.2470  213.7230  155.1650 O   0  0  0  0  0  0  0  0  0  0  0  0
  157.2750  213.2350  154.5290 C   0  0  0  0  0  0  0  0  0  0  0  0
  157.4780  212.3280  153.4390 N   0  0  0  0  0  2  0  0  0  0  0  0
  155.8900  213.6100  154.9140 C   0  0  0  0  0  1  0  0  0  0  0  0
  160.7030  207.2870  150.7210 C   0  0  0  0  0  3  0  0  0  0  0  0
  161.4180  207.6480  151.7820 C   0  0  0  0  0  3  0  0  0  0  0  0
  161.3500  207.1980  149.3820 C   0  0  0  0  0  2  0  0  0  0  0  0
  160.7250  206.0790  148.5570 C   0  0  2  0  0  3  0  0  0  0  0  0
  160.7880  204.8830  149.2720 O   0  0  0  0  0  1  0  0  0  0  0  0
  161.4030  205.2730  144.7900 C   0  0  0  0  0  2  0  0  0  0  0  0
  161.3920  205.8980  147.1890 C   0  0  1  0  0  3  0  0  0  0  0  0
  162.0040  204.1810  145.6550 C   0  0  2  0  0  0  0  0  0  0  0  0
  161.9770  204.5680  147.0650 N   0  0  0  0  0  2  0  0  0  0  0  0
  160.2520  206.2030  145.8120 S   0  0  0  0  0  0  0  0  0  0  0  0
  163.3220  203.9530  145.2620 O   0  0  0  0  0  1  0  0  0  0  0  0
  161.2060  202.9050  145.4760 C   0  0  0  0  0  1  0  0  0  0  0  0
  1  2  1  0  0  0  0
  2  5  1  0  0  0  0
  3  1  2  0  0  0  0
  4 14  1  6  0  0  0
  4  7  1  0  0  0  0
  6 20  1  6  0  0  0
  6  4  1  0  0  0  0
  6  1  1  0  0  0  0
  7  5  2  0  0  0  0
  8  9  2  0  0  0  0
  8 10  1  0  0  0  0
  9 13  1  0  0  0  0
 10 14  2  0  0  0  0
 12 10  1  0  0  0  0
 13 17  1  0  0  0  0
 13 11  2  0  0  0  0
 14 11  1  0  0  0  0
 16 18  1  0  0  0  0
 16 15  2  0  0  0  0
 17 16  1  0  0  0  0
 19 20  2  0  0  0  0
 21 19  1  0  0  0  0
 22 23  1  1  0  0  0
 22 21  1  0  0  0  0
 24 26  1  0  0  0  0
 24 28  1  0  0  0  0
 25 22  1  1  0  0  0
 26 30  1  6  0  0  0
 26 27  1  0  0  0  0
 27 25  1  0  0  0  0
 28 25  1  0  0  0  0
 29 26  1  0  0  0  0
M  END
>  <MODEL>
6

>  <REMARK>
 VINA RESULT:      -8.4      3.113      8.454
  Name = 
  6 active torsions:
  status: ('A' for Active; 'I' for Inactive)
    1  A    between atoms: C_1  and  C_4
    2  A    between atoms: C_4  and  C_27
    3  A    between atoms: C_5  and  C_22
    4  A    between atoms: C_8  and  C_27
    5  A    between atoms: N_16  and  C_25
    6  A    between atoms: C_19  and  C_29
                            x       y       z     vdW  Elec       q    Type
                         _______ _______ _______ _____ _____    ______ ____

>  <TORSDO>
F 6

$$$$
=
 OpenBabel11052421493D

 30 32  0  0  1  0  0  0  0  0999 V2000
  161.4810  211.5940  150.4780 C   0  0  0  0  0  0  0  0  0  0  0  0
  160.4400  212.4870  150.8810 N   0  0  0  0  0  0  0  0  0  0  0  0
  162.1930  211.8850  149.4790 O   0  0  0  0  0  0  0  0  0  0  0  0
  160.5120  209.8860  152.0420 C   0  0  2  0  0  3  0  0  0  0  0  0
  159.6240  212.1980  152.0200 C   0  0  0  0  0  3  0  0  0  0  0  0
  161.7790  210.3720  151.3150 C   0  0  1  0  0  3  0  0  0  0  0  0
  159.6740  211.0030  152.6070 C   0  0  0  0  0  2  0  0  0  0  0  0
  161.4480  208.3110  155.3850 C   0  0  0  0  0  3  0  0  0  0  0  0
  161.3760  206.9520  155.0740 C   0  0  0  0  0  3  0  0  0  0  0  0
  161.1760  209.2730  154.4090 C   0  0  0  0  0  0  0  0  0  0  0  0
  160.7580  207.4990  152.8050 C   0  0  0  0  0  3  0  0  0  0  0  0
  161.2590  210.7150  154.7820 C   0  0  0  0  0  1  0  0  0  0  0  0
  161.0300  206.5370  153.7820 C   0  0  0  0  0  0  0  0  0  0  0  0
  160.8280  208.8700  153.1050 C   0  0  0  0  0  0  0  0  0  0  0  0
  161.9550  205.2240  151.3110 O   0  0  0  0  0  0  0  0  0  0  0  0
  161.3950  204.5450  152.2110 C   0  0  0  0  0  0  0  0  0  0  0  0
  160.9380  205.1510  153.4270 N   0  0  0  0  0  2  0  0  0  0  0  0
  161.2060  203.0850  152.0120 C   0  0  0  0  0  1  0  0  0  0  0  0
  161.6140  208.7230  149.4970 C   0  0  0  0  0  3  0  0  0  0  0  0
  162.3340  209.2580  150.4780 C   0  0  0  0  0  3  0  0  0  0  0  0
  162.1810  207.6170  148.6750 C   0  0  0  0  0  2  0  0  0  0  0  0
  161.0890  206.9470  147.8480 C   0  0  2  0  0  3  0  0  0  0  0  0
  160.4400  205.9880  148.6250 O   0  0  0  0  0  1  0  0  0  0  0  0
  161.3950  204.9300  144.5110 C   0  0  0  0  0  2  0  0  0  0  0  0
  161.6210  206.2990  146.5660 C   0  0  1  0  0  3  0  0  0  0  0  0
  162.0470  204.1470  145.6340 C   0  0  2  0  0  0  0  0  0  0  0  0
  162.1600  204.9710  146.8370 N   0  0  0  0  0  2  0  0  0  0  0  0
  160.3660  206.2010  145.2610 S   0  0  0  0  0  0  0  0  0  0  0  0
  163.3170  203.7350  145.2330 O   0  0  0  0  0  1  0  0  0  0  0  0
  161.2060  202.9260  145.9470 C   0  0  0  0  0  1  0  0  0  0  0  0
  1  2  1  0  0  0  0
  1  6  1  0  0  0  0
  2  5  2  0  0  0  0
  3  1  2  0  0  0  0
  4  7  1  0  0  0  0
  4 14  1  1  0  0  0
  5  7  1  0  0  0  0
  6 20  1  6  0  0  0
  6  4  1  0  0  0  0
  9  8  1  0  0  0  0
 10 12  1  0  0  0  0
 10  8  2  0  0  0  0
 11 14  2  0  0  0  0
 11 13  1  0  0  0  0
 13  9  2  0  0  0  0
 14 10  1  0  0  0  0
 15 16  2  0  0  0  0
 16 17  1  0  0  0  0
 17 13  1  0  0  0  0
 18 16  1  0  0  0  0
 19 20  2  0  0  0  0
 21 19  1  0  0  0  0
 22 23  1  1  0  0  0
 22 21  1  0  0  0  0
 24 28  1  0  0  0  0
 24 26  1  0  0  0  0
 25 27  1  0  0  0  0
 25 22  1  1  0  0  0
 26 30  1  1  0  0  0
 26 27  1  0  0  0  0
 28 25  1  0  0  0  0
 29 26  1  0  0  0  0
M  END
>  <MODEL>
7

>  <REMARK>
 VINA RESULT:      -8.4      2.928      8.771
  Name = 
  6 active torsions:
  status: ('A' for Active; 'I' for Inactive)
    1  A    between atoms: C_1  and  C_4
    2  A    between atoms: C_4  and  C_27
    3  A    between atoms: C_5  and  C_22
    4  A    between atoms: C_8  and  C_27
    5  A    between atoms: N_16  and  C_25
    6  A    between atoms: C_19  and  C_29
                            x       y       z     vdW  Elec       q    Type
                         _______ _______ _______ _____ _____    ______ ____

>  <TORSDO>
F 6

$$$$
=
 OpenBabel11052421493D

 30 32  0  0  1  0  0  0  0  0999 V2000
  160.6540  204.1320  150.9780 C   0  0  0  0  0  0  0  0  0  0  0  0
  160.8750  203.7680  152.3430 N   0  0  0  0  0  0  0  0  0  0  0  0
  160.3100  203.2460  150.1510 O   0  0  0  0  0  0  0  0  0  0  0  0
  161.7100  206.3530  151.4810 C   0  0  2  0  0  3  0  0  0  0  0  0
  161.2500  204.7520  153.3130 C   0  0  0  0  0  3  0  0  0  0  0  0
  160.7330  205.5850  150.5720 C   0  0  1  0  0  3  0  0  0  0  0  0
  161.6000  205.9800  152.9360 C   0  0  0  0  0  2  0  0  0  0  0  0
  162.0790  209.8770  150.0730 C   0  0  0  0  0  3  0  0  0  0  0  0
  161.3150  210.6130  150.9810 C   0  0  0  0  0  3  0  0  0  0  0  0
  162.2190  208.4950  150.2260 C   0  0  0  0  0  0  0  0  0  0  0  0
  160.8230  208.5940  152.2100 C   0  0  0  0  0  3  0  0  0  0  0  0
  163.0380  207.7440  149.2320 C   0  0  0  0  0  1  0  0  0  0  0  0
  160.6820  209.9750  152.0560 C   0  0  0  0  0  0  0  0  0  0  0  0
  161.5890  207.8420  151.3040 C   0  0  0  0  0  0  0  0  0  0  0  0
  161.5110  211.1020  154.6490 O   0  0  0  0  0  0  0  0  0  0  0  0
  160.3190  211.2280  154.2630 C   0  0  0  0  0  0  0  0  0  0  0  0
  159.8840  210.6970  153.0050 N   0  0  0  0  0  2  0  0  0  0  0  0
  159.3440  211.9440  155.1250 C   0  0  0  0  0  1  0  0  0  0  0  0
  160.2600  205.8840  148.1760 C   0  0  0  0  0  3  0  0  0  0  0  0
  161.1610  205.7310  149.1420 C   0  0  0  0  0  3  0  0  0  0  0  0
  160.7030  206.0290  146.7600 C   0  0  0  0  0  2  0  0  0  0  0  0
  161.9940  205.2560  146.5190 C   0  0  2  0  0  3  0  0  0  0  0  0
  162.7950  205.9570  145.6190 O   0  0  0  0  0  1  0  0  0  0  0  0
  160.3160  201.9620  145.2390 C   0  0  0  0  0  2  0  0  0  0  0  0
  161.7530  203.8350  145.9970 C   0  0  1  0  0  3  0  0  0  0  0  0
  160.7740  201.7700  146.6730 C   0  0  2  0  0  0  0  0  0  0  0  0
  161.6110  202.8900  147.1000 N   0  0  0  0  0  2  0  0  0  0  0  0
  160.3100  203.7290  144.9030 S   0  0  0  0  0  0  0  0  0  0  0  0
  161.5020  200.5850  146.7690 O   0  0  0  0  0  1  0  0  0  0  0  0
  159.5620  201.6820  147.5780 C   0  0  0  0  0  1  0  0  0  0  0  0
  1  2  1  0  0  0  0
  2  5  2  0  0  0  0
  3  1  2  0  0  0  0
  4 14  1  1  0  0  0
  4  7  1  0  0  0  0
  6 20  1  6  0  0  0
  6  1  1  0  0  0  0
  6  4  1  0  0  0  0
  7  5  1  0  0  0  0
  8 10  2  0  0  0  0
  8  9  1  0  0  0  0
  9 13  2  0  0  0  0
 10 14  1  0  0  0  0
 12 10  1  0  0  0  0
 13 11  1  0  0  0  0
 13 17  1  0  0  0  0
 14 11  2  0  0  0  0
 16 15  2  0  0  0  0
 16 18  1  0  0  0  0
 17 16  1  0  0  0  0
 19 20  2  0  0  0  0
 21 19  1  0  0  0  0
 22 23  1  6  0  0  0
 22 21  1  0  0  0  0
 24 26  1  0  0  0  0
 25 22  1  1  0  0  0
 25 27  1  0  0  0  0
 26 29  1  0  0  0  0
 26 27  1  0  0  0  0
 26 30  1  1  0  0  0
 28 24  1  0  0  0  0
 28 25  1  0  0  0  0
M  END
>  <MODEL>
8

>  <REMARK>
 VINA RESULT:      -8.3      2.913      7.511
  Name = 
  6 active torsions:
  status: ('A' for Active; 'I' for Inactive)
    1  A    between atoms: C_1  and  C_4
    2  A    between atoms: C_4  and  C_27
    3  A    between atoms: C_5  and  C_22
    4  A    between atoms: C_8  and  C_27
    5  A    between atoms: N_16  and  C_25
    6  A    between atoms: C_19  and  C_29
                            x       y       z     vdW  Elec       q    Type
                         _______ _______ _______ _____ _____    ______ ____

>  <TORSDO>
F 6

$$$$
=
 OpenBabel11052421493D

 30 32  0  0  1  0  0  0  0  0999 V2000
  160.8990  205.7400  145.7560 C   0  0  0  0  0  0  0  0  0  0  0  0
  160.6930  204.8760  144.6350 N   0  0  0  0  0  0  0  0  0  0  0  0
  160.9590  206.9850  145.5730 O   0  0  0  0  0  0  0  0  0  0  0  0
  161.4580  203.7060  147.1190 C   0  0  2  0  0  3  0  0  0  0  0  0
  160.6020  203.4580  144.8080 C   0  0  0  0  0  3  0  0  0  0  0  0
  160.9390  205.1560  147.1480 C   0  0  1  0  0  3  0  0  0  0  0  0
  160.9120  202.8930  145.9730 C   0  0  0  0  0  2  0  0  0  0  0  0
  161.0200  200.9580  149.7240 C   0  0  0  0  0  3  0  0  0  0  0  0
  160.8380  201.7120  150.8860 C   0  0  0  0  0  3  0  0  0  0  0  0
  161.2170  201.5930  148.4950 C   0  0  0  0  0  0  0  0  0  0  0  0
  161.0470  203.7470  149.6020 C   0  0  0  0  0  3  0  0  0  0  0  0
  161.4120  200.7520  147.2790 C   0  0  0  0  0  1  0  0  0  0  0  0
  160.8510  203.1120  150.8320 C   0  0  0  0  0  0  0  0  0  0  0  0
  161.2290  203.0000  148.4270 C   0  0  0  0  0  0  0  0  0  0  0  0
  162.5730  205.2910  151.8160 O   0  0  0  0  0  0  0  0  0  0  0  0
  161.5380  204.9710  152.4570 C   0  0  0  0  0  0  0  0  0  0  0  0
  160.6750  203.9200  152.0040 N   0  0  0  0  0  2  0  0  0  0  0  0
  161.2010  205.6990  153.7070 C   0  0  0  0  0  1  0  0  0  0  0  0
  161.3010  207.0290  148.7020 C   0  0  0  0  0  3  0  0  0  0  0  0
  161.8010  205.9760  148.0620 C   0  0  0  0  0  3  0  0  0  0  0  0
  162.1710  207.8320  149.6070 C   0  0  0  0  0  2  0  0  0  0  0  0
  161.5950  209.2290  149.8050 C   0  0  2  0  0  3  0  0  0  0  0  0
  162.3280  210.1460  149.0520 O   0  0  0  0  0  1  0  0  0  0  0  0
  160.6070  209.7420  153.5550 C   0  0  0  0  0  2  0  0  0  0  0  0
  161.5750  209.6670  151.2740 C   0  0  1  0  0  3  0  0  0  0  0  0
  160.2980  211.0050  152.7750 C   0  0  2  0  0  0  0  0  0  0  0  0
  160.8700  210.9340  151.4310 N   0  0  0  0  0  2  0  0  0  0  0  0
  160.8470  208.4140  152.3650 S   0  0  0  0  0  0  0  0  0  0  0  0
  160.8310  212.1040  153.4480 O   0  0  0  0  0  1  0  0  0  0  0  0
  158.7960  211.1720  152.6670 C   0  0  0  0  0  1  0  0  0  0  0  0
  1  6  1  0  0  0  0
  2  5  2  0  0  0  0
  2  1  1  0  0  0  0
  3  1  2  0  0  0  0
  4  6  1  0  0  0  0
  4 14  1  1  0  0  0
  5  7  1  0  0  0  0
  6 20  1  1  0  0  0
  7  4  1  0  0  0  0
  8  9  1  0  0  0  0
 10  8  2  0  0  0  0
 11 13  1  0  0  0  0
 12 10  1  0  0  0  0
 13  9  2  0  0  0  0
 13 17  1  0  0  0  0
 14 10  1  0  0  0  0
 14 11  2  0  0  0  0
 15 16  2  0  0  0  0
 16 18  1  0  0  0  0
 17 16  1  0  0  0  0
 19 21  1  0  0  0  0
 20 19  2  0  0  0  0
 21 22  1  0  0  0  0
 22 23  1  6  0  0  0
 25 22  1  6  0  0  0
 25 27  1  0  0  0  0
 25 28  1  0  0  0  0
 26 30  1  6  0  0  0
 26 29  1  0  0  0  0
 26 24  1  0  0  0  0
 27 26  1  0  0  0  0
 28 24  1  0  0  0  0
M  END
>  <MODEL>
9

>  <REMARK>
 VINA RESULT:      -8.2      2.103      4.555
  Name = 
  6 active torsions:
  status: ('A' for Active; 'I' for Inactive)
    1  A    between atoms: C_1  and  C_4
    2  A    between atoms: C_4  and  C_27
    3  A    between atoms: C_5  and  C_22
    4  A    between atoms: C_8  and  C_27
    5  A    between atoms: N_16  and  C_25
    6  A    between atoms: C_19  and  C_29
                            x       y       z     vdW  Elec       q    Type
                         _______ _______ _______ _____ _____    ______ ____

>  <TORSDO>
F 6

$$$$
