=
 OpenBabel11062409413D

 34 38  0  0  0  0  0  0  0  0999 V2000
  160.6330  210.2690  153.4040 C   0  0  0  0  0  0  0  0  0  0  0  0
  159.9050  213.0810  150.8590 C   0  0  0  0  0  3  0  0  0  0  0  0
  159.1250  212.6310  153.0800 C   0  0  0  0  0  3  0  0  0  0  0  0
  159.5130  210.1980  155.7650 C   0  0  0  0  0  2  0  0  0  0  0  0
  158.5720  211.1470  156.2600 O   0  0  0  0  0  0  0  0  0  0  0  0
  159.0690  211.8970  154.2520 C   0  0  0  0  0  0  0  0  0  0  0  0
  159.8040  210.7590  154.4190 C   0  0  0  0  0  0  0  0  0  0  0  0
  158.3340  212.1460  155.3170 C   0  0  0  0  0  3  0  0  0  0  0  0
  160.5640  213.0300  149.7090 C   0  0  0  0  0  3  0  0  0  0  0  0
  161.5850  212.0810  149.2550 C   0  0  0  0  0  0  0  0  0  0  0  0
  162.0200  211.0400  149.9610 C   0  0  0  0  0  3  0  0  0  0  0  0
  159.9710  212.2120  152.0410 C   0  0  0  0  0  0  0  0  0  0  0  0
  161.6310  210.5650  151.2920 C   0  0  0  0  0  3  0  0  0  0  0  0
  160.7610  211.0290  152.2000 C   0  0  0  0  0  0  0  0  0  0  0  0
  162.1670  212.3010  147.9150 C   0  0  0  0  0  0  0  0  0  0  0  0
  163.4160  212.2980  147.7570 O   0  0  0  0  0  0  0  0  0  0  0  0
  161.3270  212.5220  146.7830 N   0  0  0  0  0  1  0  0  0  0  0  0
  161.3440  208.9500  153.5940 C   0  0  0  0  0  2  0  0  0  0  0  0
  160.4530  207.7600  153.2290 C   0  0  0  0  0  2  0  0  0  0  0  0
  161.2150  206.4400  153.0750 C   0  0  0  0  0  2  0  0  0  0  0  0
  161.6450  206.6290  149.3290 C   0  0  0  0  0  3  0  0  0  0  0  0
  161.1730  204.6370  151.2610 C   0  0  0  0  0  0  0  0  0  0  0  0
  161.1970  203.6860  147.1400 C   0  0  0  0  0  0  0  0  0  0  0  0
  161.4260  205.0000  147.5650 C   0  0  0  0  0  3  0  0  0  0  0  0
  161.4230  205.3140  148.9260 C   0  0  0  0  0  0  0  0  0  0  0  0
  160.9730  203.5690  152.2950 C   0  0  0  0  0  1  0  0  0  0  0  0
  160.9670  202.9890  149.4560 C   0  0  0  0  0  3  0  0  0  0  0  0
  161.1890  204.3040  149.8900 C   0  0  0  0  0  0  0  0  0  0  0  0
  160.9700  202.6830  148.0920 C   0  0  0  0  0  3  0  0  0  0  0  0
  161.3350  205.9860  151.6490 C   0  0  0  0  0  0  0  0  0  0  0  0
  161.6000  206.9610  150.6830 C   0  0  0  0  0  3  0  0  0  0  0  0
  161.1970  203.3650  145.7030 C   0  0  0  0  0  0  0  0  0  0  0  0
  160.7040  202.1440  145.2590 O   0  0  0  0  0  1  0  0  0  0  0  0
  161.6450  204.1920  144.8650 O   0  0  0  0  0  0  0  0  0  0  0  0
  1 18  1  0  0  0  0
  1  7  2  0  0  0  0
  2 12  1  0  0  0  0
  3  6  1  0  0  0  0
  4  5  1  0  0  0  0
  6  7  1  0  0  0  0
  6  8  2  0  0  0  0
  7  4  1  0  0  0  0
  8  5  1  0  0  0  0
  9  2  2  0  0  0  0
 10  9  1  0  0  0  0
 10 11  2  0  0  0  0
 11 13  1  0  0  0  0
 12 14  1  0  0  0  0
 12  3  2  0  0  0  0
 13 14  2  0  0  0  0
 14  1  1  0  0  0  0
 15 10  1  0  0  0  0
 16 15  2  0  0  0  0
 17 15  1  0  0  0  0
 19 18  1  0  0  0  0
 20 19  1  0  0  0  0
 21 31  1  0  0  0  0
 22 30  1  0  0  0  0
 22 26  1  0  0  0  0
 23 24  2  0  0  0  0
 23 29  1  0  0  0  0
 24 25  1  0  0  0  0
 25 21  2  0  0  0  0
 25 28  1  0  0  0  0
 27 28  1  0  0  0  0
 28 22  2  0  0  0  0
 29 27  2  0  0  0  0
 30 20  1  0  0  0  0
 31 30  2  0  0  0  0
 32 23  1  0  0  0  0
 33 32  1  0  0  0  0
 34 32  2  0  0  0  0
M  END
>  <MODEL>
1

>  <REMARK>
 VINA RESULT:      -9.9      0.000      0.000
  Name = 
  6 active torsions:
  status: ('A' for Active; 'I' for Inactive)
    1  A    between atoms: C_1  and  C_9
    2  A    between atoms: C_3  and  C_25
    3  A    between atoms: C_7  and  C_11
    4  A    between atoms: C_8  and  C_9
    5  A    between atoms: C_8  and  C_18
    6  A    between atoms: C_18  and  C_30
                            x       y       z     vdW  Elec       q    Type
                         _______ _______ _______ _____ _____    ______ ____

>  <TORSDO>
F 6

$$$$
=
 OpenBabel11062409413D

 34 38  0  0  0  0  0  0  0  0999 V2000
  160.8510  210.0420  152.9300 C   0  0  0  0  0  0  0  0  0  0  0  0
  159.7640  213.0690  150.7920 C   0  0  0  0  0  3  0  0  0  0  0  0
  159.1460  212.2900  152.9730 C   0  0  0  0  0  3  0  0  0  0  0  0
  159.8740  209.5920  155.3130 C   0  0  0  0  0  2  0  0  0  0  0  0
  158.8900  210.3920  155.9650 O   0  0  0  0  0  0  0  0  0  0  0  0
  159.2140  211.4180  154.0450 C   0  0  0  0  0  0  0  0  0  0  0  0
  160.0440  210.3350  154.0350 C   0  0  0  0  0  0  0  0  0  0  0  0
  158.5230  211.4730  155.1660 C   0  0  0  0  0  3  0  0  0  0  0  0
  160.3590  213.2130  149.6160 C   0  0  0  0  0  3  0  0  0  0  0  0
  161.4240  212.4150  149.0010 C   0  0  0  0  0  0  0  0  0  0  0  0
  161.9780  211.3370  149.5500 C   0  0  0  0  0  3  0  0  0  0  0  0
  159.9640  212.0720  151.8520 C   0  0  0  0  0  0  0  0  0  0  0  0
  161.7030  210.6740  150.8280 C   0  0  0  0  0  3  0  0  0  0  0  0
  160.8520  210.9500  151.8260 C   0  0  0  0  0  0  0  0  0  0  0  0
  161.9110  212.8440  147.6730 C   0  0  0  0  0  0  0  0  0  0  0  0
  163.0990  212.6090  147.3260 O   0  0  0  0  0  0  0  0  0  0  0  0
  161.0490  213.5300  146.7670 N   0  0  0  0  0  1  0  0  0  0  0  0
  161.6730  208.7740  152.9210 C   0  0  0  0  0  2  0  0  0  0  0  0
  160.8250  207.5430  152.5920 C   0  0  0  0  0  2  0  0  0  0  0  0
  161.5720  206.2160  152.7500 C   0  0  0  0  0  2  0  0  0  0  0  0
  160.6900  202.9780  151.0220 C   0  0  0  0  0  3  0  0  0  0  0  0
  161.4680  205.5780  150.2750 C   0  0  0  0  0  0  0  0  0  0  0  0
  160.9880  202.5480  147.3630 C   0  0  0  0  0  0  0  0  0  0  0  0
  160.7600  202.2730  148.7170 C   0  0  0  0  0  3  0  0  0  0  0  0
  160.9140  203.2740  149.6780 C   0  0  0  0  0  0  0  0  0  0  0  0
  161.8320  206.9770  149.8750 C   0  0  0  0  0  1  0  0  0  0  0  0
  161.5210  204.8490  147.9340 C   0  0  0  0  0  3  0  0  0  0  0  0
  161.3010  204.5800  149.2920 C   0  0  0  0  0  0  0  0  0  0  0  0
  161.3670  203.8410  146.9780 C   0  0  0  0  0  3  0  0  0  0  0  0
  161.3000  205.2450  151.6380 C   0  0  0  0  0  0  0  0  0  0  0  0
  160.8830  203.9590  151.9940 C   0  0  0  0  0  3  0  0  0  0  0  0
  160.8290  201.4850  146.3570 C   0  0  0  0  0  0  0  0  0  0  0  0
  161.2940  200.2020  146.6170 O   0  0  0  0  0  1  0  0  0  0  0  0
  160.2730  201.7290  145.2540 O   0  0  0  0  0  0  0  0  0  0  0  0
  1  7  2  0  0  0  0
  2 12  1  0  0  0  0
  3  6  1  0  0  0  0
  4  5  1  0  0  0  0
  6  8  2  0  0  0  0
  7  6  1  0  0  0  0
  7  4  1  0  0  0  0
  8  5  1  0  0  0  0
  9  2  2  0  0  0  0
 10 11  2  0  0  0  0
 10  9  1  0  0  0  0
 11 13  1  0  0  0  0
 12  3  2  0  0  0  0
 13 14  2  0  0  0  0
 14 12  1  0  0  0  0
 14  1  1  0  0  0  0
 15 10  1  0  0  0  0
 16 15  2  0  0  0  0
 17 15  1  0  0  0  0
 18  1  1  0  0  0  0
 19 20  1  0  0  0  0
 19 18  1  0  0  0  0
 21 31  1  0  0  0  0
 22 30  1  0  0  0  0
 23 24  2  0  0  0  0
 24 25  1  0  0  0  0
 25 21  2  0  0  0  0
 26 22  1  0  0  0  0
 27 28  1  0  0  0  0
 28 25  1  0  0  0  0
 28 22  2  0  0  0  0
 29 23  1  0  0  0  0
 29 27  2  0  0  0  0
 30 31  2  0  0  0  0
 30 20  1  0  0  0  0
 32 33  1  0  0  0  0
 32 23  1  0  0  0  0
 34 32  2  0  0  0  0
M  END
>  <MODEL>
2

>  <REMARK>
 VINA RESULT:      -9.6      0.858      1.711
  Name = 
  6 active torsions:
  status: ('A' for Active; 'I' for Inactive)
    1  A    between atoms: C_1  and  C_9
    2  A    between atoms: C_3  and  C_25
    3  A    between atoms: C_7  and  C_11
    4  A    between atoms: C_8  and  C_9
    5  A    between atoms: C_8  and  C_18
    6  A    between atoms: C_18  and  C_30
                            x       y       z     vdW  Elec       q    Type
                         _______ _______ _______ _____ _____    ______ ____

>  <TORSDO>
F 6

$$$$
=
 OpenBabel11062409413D

 34 38  0  0  0  0  0  0  0  0999 V2000
  161.3560  211.0450  150.9740 C   0  0  0  0  0  0  0  0  0  0  0  0
  158.6700  213.2780  152.6210 C   0  0  0  0  0  3  0  0  0  0  0  0
  159.8740  213.4080  150.5530 C   0  0  0  0  0  3  0  0  0  0  0  0
  162.4060  211.6090  148.6470 C   0  0  0  0  0  2  0  0  0  0  0  0
  162.0880  212.7500  147.8540 O   0  0  0  0  0  0  0  0  0  0  0  0
  160.7900  212.9570  149.6190 C   0  0  0  0  0  0  0  0  0  0  0  0
  161.5020  211.8090  149.8120 C   0  0  0  0  0  0  0  0  0  0  0  0
  161.1160  213.5310  148.4780 C   0  0  0  0  0  3  0  0  0  0  0  0
  158.1850  212.8670  153.7850 C   0  0  0  0  0  3  0  0  0  0  0  0
  158.4770  211.6470  154.5440 C   0  0  0  0  0  0  0  0  0  0  0  0
  159.3490  210.7130  154.1730 C   0  0  0  0  0  3  0  0  0  0  0  0
  159.6530  212.6610  151.7210 C   0  0  0  0  0  0  0  0  0  0  0  0
  160.2160  210.6380  152.9930 C   0  0  0  0  0  3  0  0  0  0  0  0
  160.3800  211.4470  151.9370 C   0  0  0  0  0  0  0  0  0  0  0  0
  157.7470  211.4480  155.8130 C   0  0  0  0  0  0  0  0  0  0  0  0
  156.5210  211.1560  155.8020 O   0  0  0  0  0  0  0  0  0  0  0  0
  158.4140  211.5840  157.0670 N   0  0  0  0  0  1  0  0  0  0  0  0
  162.2430  209.8410  151.1910 C   0  0  0  0  0  2  0  0  0  0  0  0
  161.9950  208.7500  150.1470 C   0  0  0  0  0  2  0  0  0  0  0  0
  161.2480  207.5290  150.6930 C   0  0  0  0  0  2  0  0  0  0  0  0
  161.5910  205.5190  147.5160 C   0  0  0  0  0  3  0  0  0  0  0  0
  161.0990  205.0160  150.2410 C   0  0  0  0  0  0  0  0  0  0  0  0
  160.9880  201.8740  147.4110 C   0  0  0  0  0  0  0  0  0  0  0  0
  161.2720  203.1840  147.0060 C   0  0  0  0  0  3  0  0  0  0  0  0
  161.3140  204.2210  147.9400 C   0  0  0  0  0  0  0  0  0  0  0  0
  160.8890  204.7420  151.7010 C   0  0  0  0  0  1  0  0  0  0  0  0
  160.7920  202.6410  149.7080 C   0  0  0  0  0  3  0  0  0  0  0  0
  161.0700  203.9570  149.3090 C   0  0  0  0  0  0  0  0  0  0  0  0
  160.7510  201.6090  148.7670 C   0  0  0  0  0  3  0  0  0  0  0  0
  161.3170  206.3360  149.7850 C   0  0  0  0  0  0  0  0  0  0  0  0
  161.5900  206.5680  148.4350 C   0  0  0  0  0  3  0  0  0  0  0  0
  160.9410  200.7890  146.4180 C   0  0  0  0  0  0  0  0  0  0  0  0
  160.2900  200.9790  145.2050 O   0  0  0  0  0  0  0  0  0  0  0  0
  161.4880  199.6800  146.6580 O   0  0  0  0  0  1  0  0  0  0  0  0
  1 18  1  0  0  0  0
  1 14  1  0  0  0  0
  2  9  2  0  0  0  0
  3 12  2  0  0  0  0
  4  7  1  0  0  0  0
  5  8  1  0  0  0  0
  5  4  1  0  0  0  0
  6  7  1  0  0  0  0
  6  3  1  0  0  0  0
  7  1  2  0  0  0  0
  8  6  2  0  0  0  0
  9 10  1  0  0  0  0
 10 15  1  0  0  0  0
 11 10  2  0  0  0  0
 12 14  1  0  0  0  0
 12  2  1  0  0  0  0
 13 11  1  0  0  0  0
 14 13  2  0  0  0  0
 15 17  1  0  0  0  0
 16 15  2  0  0  0  0
 19 20  1  0  0  0  0
 19 18  1  0  0  0  0
 21 25  2  0  0  0  0
 21 31  1  0  0  0  0
 22 26  1  0  0  0  0
 23 29  1  0  0  0  0
 24 23  2  0  0  0  0
 24 25  1  0  0  0  0
 25 28  1  0  0  0  0
 28 27  1  0  0  0  0
 28 22  2  0  0  0  0
 29 27  2  0  0  0  0
 30 22  1  0  0  0  0
 30 20  1  0  0  0  0
 31 30  2  0  0  0  0
 32 34  1  0  0  0  0
 32 23  1  0  0  0  0
 33 32  2  0  0  0  0
M  END
>  <MODEL>
3

>  <REMARK>
 VINA RESULT:      -9.2      2.249      4.735
  Name = 
  6 active torsions:
  status: ('A' for Active; 'I' for Inactive)
    1  A    between atoms: C_1  and  C_9
    2  A    between atoms: C_3  and  C_25
    3  A    between atoms: C_7  and  C_11
    4  A    between atoms: C_8  and  C_9
    5  A    between atoms: C_8  and  C_18
    6  A    between atoms: C_18  and  C_30
                            x       y       z     vdW  Elec       q    Type
                         _______ _______ _______ _____ _____    ______ ____

>  <TORSDO>
F 6

$$$$
=
 OpenBabel11062409413D

 34 38  0  0  0  0  0  0  0  0999 V2000
  159.4880  212.4370  152.3220 C   0  0  0  0  0  0  0  0  0  0  0  0
  158.4070  214.2110  149.0670 C   0  0  0  0  0  3  0  0  0  0  0  0
  157.4530  214.0770  151.2610 C   0  0  0  0  0  3  0  0  0  0  0  0
  158.0860  212.5820  154.5240 C   0  0  0  0  0  2  0  0  0  0  0  0
  156.8540  213.2850  154.6720 O   0  0  0  0  0  0  0  0  0  0  0  0
  157.4240  213.6580  152.5800 C   0  0  0  0  0  0  0  0  0  0  0  0
  158.4110  212.8730  153.1020 C   0  0  0  0  0  0  0  0  0  0  0  0
  156.4960  213.9120  153.4800 C   0  0  0  0  0  3  0  0  0  0  0  0
  159.2210  214.0970  148.0260 C   0  0  0  0  0  3  0  0  0  0  0  0
  160.5220  213.4270  147.9230 C   0  0  0  0  0  0  0  0  0  0  0  0
  161.1150  212.7660  148.9140 C   0  0  0  0  0  3  0  0  0  0  0  0
  158.5300  213.7070  150.4410 C   0  0  0  0  0  0  0  0  0  0  0  0
  160.6740  212.5210  150.2900 C   0  0  0  0  0  3  0  0  0  0  0  0
  159.5830  212.8950  150.9720 C   0  0  0  0  0  0  0  0  0  0  0  0
  161.2170  213.4950  146.6210 C   0  0  0  0  0  0  0  0  0  0  0  0
  160.6330  213.1230  145.5690 O   0  0  0  0  0  0  0  0  0  0  0  0
  162.5560  213.9790  146.5340 N   0  0  0  0  0  1  0  0  0  0  0  0
  160.4990  211.4830  152.9140 C   0  0  0  0  0  2  0  0  0  0  0  0
  160.0840  210.0210  152.7300 C   0  0  0  0  0  2  0  0  0  0  0  0
  161.2040  209.0180  153.0190 C   0  0  0  0  0  2  0  0  0  0  0  0
  161.1880  207.1640  149.7300 C   0  0  0  0  0  3  0  0  0  0  0  0
  161.2450  206.5190  152.4690 C   0  0  0  0  0  0  0  0  0  0  0  0
  160.9670  203.4800  149.5410 C   0  0  0  0  0  0  0  0  0  0  0  0
  161.0330  204.8260  149.1620 C   0  0  0  0  0  3  0  0  0  0  0  0
  161.1300  205.8300  150.1280 C   0  0  0  0  0  0  0  0  0  0  0  0
  161.3280  206.1770  153.9270 C   0  0  0  0  0  1  0  0  0  0  0  0
  161.1020  204.1440  151.8740 C   0  0  0  0  0  3  0  0  0  0  0  0
  161.1630  205.4950  151.5020 C   0  0  0  0  0  0  0  0  0  0  0  0
  161.0030  203.1460  150.9020 C   0  0  0  0  0  3  0  0  0  0  0  0
  161.2370  207.8700  152.0520 C   0  0  0  0  0  0  0  0  0  0  0  0
  161.2400  208.1760  150.6880 C   0  0  0  0  0  3  0  0  0  0  0  0
  160.8590  202.4290  148.5160 C   0  0  0  0  0  0  0  0  0  0  0  0
  161.2280  202.6940  147.2030 O   0  0  0  0  0  0  0  0  0  0  0  0
  160.4310  201.2840  148.8180 O   0  0  0  0  0  1  0  0  0  0  0  0
  1 18  1  0  0  0  0
  1  7  2  0  0  0  0
  2 12  1  0  0  0  0
  3  6  1  0  0  0  0
  4  5  1  0  0  0  0
  6  7  1  0  0  0  0
  6  8  2  0  0  0  0
  7  4  1  0  0  0  0
  8  5  1  0  0  0  0
  9  2  2  0  0  0  0
 10  9  1  0  0  0  0
 10 11  2  0  0  0  0
 11 13  1  0  0  0  0
 12 14  1  0  0  0  0
 12  3  2  0  0  0  0
 13 14  2  0  0  0  0
 14  1  1  0  0  0  0
 15 10  1  0  0  0  0
 16 15  2  0  0  0  0
 17 15  1  0  0  0  0
 19 18  1  0  0  0  0
 19 20  1  0  0  0  0
 21 25  2  0  0  0  0
 21 31  1  0  0  0  0
 22 26  1  0  0  0  0
 23 29  1  0  0  0  0
 24 23  2  0  0  0  0
 24 25  1  0  0  0  0
 25 28  1  0  0  0  0
 28 27  1  0  0  0  0
 28 22  2  0  0  0  0
 29 27  2  0  0  0  0
 30 22  1  0  0  0  0
 30 20  1  0  0  0  0
 31 30  2  0  0  0  0
 32 34  1  0  0  0  0
 32 23  1  0  0  0  0
 33 32  2  0  0  0  0
M  END
>  <MODEL>
4

>  <REMARK>
 VINA RESULT:      -9.2      1.741      2.613
  Name = 
  6 active torsions:
  status: ('A' for Active; 'I' for Inactive)
    1  A    between atoms: C_1  and  C_9
    2  A    between atoms: C_3  and  C_25
    3  A    between atoms: C_7  and  C_11
    4  A    between atoms: C_8  and  C_9
    5  A    between atoms: C_8  and  C_18
    6  A    between atoms: C_18  and  C_30
                            x       y       z     vdW  Elec       q    Type
                         _______ _______ _______ _____ _____    ______ ____

>  <TORSDO>
F 6

$$$$
=
 OpenBabel11062409413D

 34 38  0  0  0  0  0  0  0  0999 V2000
  159.8600  211.0500  153.0330 C   0  0  0  0  0  0  0  0  0  0  0  0
  159.5100  213.6360  150.1870 C   0  0  0  0  0  3  0  0  0  0  0  0
  158.3540  213.3070  152.2610 C   0  0  0  0  0  3  0  0  0  0  0  0
  158.3320  211.0910  155.1550 C   0  0  0  0  0  2  0  0  0  0  0  0
  157.2830  212.0260  155.3970 O   0  0  0  0  0  0  0  0  0  0  0  0
  158.1110  212.6550  153.4580 C   0  0  0  0  0  0  0  0  0  0  0  0
  158.8440  211.5700  153.8420 C   0  0  0  0  0  0  0  0  0  0  0  0
  157.1870  212.9430  154.3510 C   0  0  0  0  0  3  0  0  0  0  0  0
  160.3680  213.5360  149.1820 C   0  0  0  0  0  3  0  0  0  0  0  0
  161.4870  212.6080  148.9930 C   0  0  0  0  0  0  0  0  0  0  0  0
  161.8230  211.6420  149.8450 C   0  0  0  0  0  3  0  0  0  0  0  0
  159.3900  212.8570  151.4260 C   0  0  0  0  0  0  0  0  0  0  0  0
  161.2150  211.2440  151.1180 C   0  0  0  0  0  3  0  0  0  0  0  0
  160.1790  211.7280  151.8170 C   0  0  0  0  0  0  0  0  0  0  0  0
  162.2960  212.7610  147.7660 C   0  0  0  0  0  0  0  0  0  0  0  0
  163.4220  212.2050  147.6740 O   0  0  0  0  0  0  0  0  0  0  0  0
  161.8160  213.5380  146.6700 N   0  0  0  0  0  1  0  0  0  0  0  0
  160.5700  209.7830  153.4510 C   0  0  0  0  0  2  0  0  0  0  0  0
  160.4560  208.6850  152.3910 C   0  0  0  0  0  2  0  0  0  0  0  0
  161.6900  207.7840  152.2970 C   0  0  0  0  0  2  0  0  0  0  0  0
  160.9930  204.1480  151.5570 C   0  0  0  0  0  3  0  0  0  0  0  0
  161.5450  206.4890  150.0950 C   0  0  0  0  0  0  0  0  0  0  0  0
  161.1900  202.7560  148.1380 C   0  0  0  0  0  0  0  0  0  0  0  0
  161.0330  202.8470  149.5270 C   0  0  0  0  0  3  0  0  0  0  0  0
  161.1450  204.0800  150.1730 C   0  0  0  0  0  0  0  0  0  0  0  0
  161.7860  207.7470  149.3130 C   0  0  0  0  0  1  0  0  0  0  0  0
  161.5680  205.1540  148.0370 C   0  0  0  0  0  3  0  0  0  0  0  0
  161.4180  205.2520  149.4290 C   0  0  0  0  0  0  0  0  0  0  0  0
  161.4550  203.9160  147.3990 C   0  0  0  0  0  3  0  0  0  0  0  0
  161.4520  206.5310  151.5050 C   0  0  0  0  0  0  0  0  0  0  0  0
  161.1480  205.3670  152.2160 C   0  0  0  0  0  3  0  0  0  0  0  0
  161.0750  201.4510  147.4670 C   0  0  0  0  0  0  0  0  0  0  0  0
  161.5190  200.2970  148.1020 O   0  0  0  0  0  1  0  0  0  0  0  0
  160.5770  201.3690  146.3130 O   0  0  0  0  0  0  0  0  0  0  0  0
  1 18  1  0  0  0  0
  1  7  2  0  0  0  0
  2 12  1  0  0  0  0
  3  6  1  0  0  0  0
  4  5  1  0  0  0  0
  6  7  1  0  0  0  0
  6  8  2  0  0  0  0
  7  4  1  0  0  0  0
  8  5  1  0  0  0  0
  9  2  2  0  0  0  0
 10  9  1  0  0  0  0
 10 11  2  0  0  0  0
 11 13  1  0  0  0  0
 12 14  1  0  0  0  0
 12  3  2  0  0  0  0
 13 14  2  0  0  0  0
 14  1  1  0  0  0  0
 15 10  1  0  0  0  0
 16 15  2  0  0  0  0
 17 15  1  0  0  0  0
 19 18  1  0  0  0  0
 20 19  1  0  0  0  0
 21 31  1  0  0  0  0
 22 30  1  0  0  0  0
 23 24  2  0  0  0  0
 24 25  1  0  0  0  0
 25 21  2  0  0  0  0
 26 22  1  0  0  0  0
 27 28  1  0  0  0  0
 28 22  2  0  0  0  0
 28 25  1  0  0  0  0
 29 27  2  0  0  0  0
 29 23  1  0  0  0  0
 30 31  2  0  0  0  0
 30 20  1  0  0  0  0
 32 33  1  0  0  0  0
 32 23  1  0  0  0  0
 34 32  2  0  0  0  0
M  END
>  <MODEL>
5

>  <REMARK>
 VINA RESULT:      -9.0      1.104      1.963
  Name = 
  6 active torsions:
  status: ('A' for Active; 'I' for Inactive)
    1  A    between atoms: C_1  and  C_9
    2  A    between atoms: C_3  and  C_25
    3  A    between atoms: C_7  and  C_11
    4  A    between atoms: C_8  and  C_9
    5  A    between atoms: C_8  and  C_18
    6  A    between atoms: C_18  and  C_30
                            x       y       z     vdW  Elec       q    Type
                         _______ _______ _______ _____ _____    ______ ____

>  <TORSDO>
F 6

$$$$
=
 OpenBabel11062409413D

 34 38  0  0  0  0  0  0  0  0999 V2000
  161.1370  206.7460  150.4640 C   0  0  0  0  0  0  0  0  0  0  0  0
  161.2070  203.5620  148.2810 C   0  0  0  0  0  3  0  0  0  0  0  0
  161.2070  203.9310  150.6490 C   0  0  0  0  0  3  0  0  0  0  0  0
  161.1510  206.6480  153.0770 C   0  0  0  0  0  2  0  0  0  0  0  0
  161.2030  205.4550  153.8570 O   0  0  0  0  0  0  0  0  0  0  0  0
  161.1880  204.7260  151.7810 C   0  0  0  0  0  0  0  0  0  0  0  0
  161.1430  206.0870  151.6990 C   0  0  0  0  0  0  0  0  0  0  0  0
  161.2260  204.3290  153.0370 C   0  0  0  0  0  3  0  0  0  0  0  0
  161.1570  203.7380  146.9670 C   0  0  0  0  0  3  0  0  0  0  0  0
  161.0280  204.9760  146.1920 C   0  0  0  0  0  0  0  0  0  0  0  0
  160.9630  206.1970  146.7180 C   0  0  0  0  0  3  0  0  0  0  0  0
  161.1590  204.5330  149.3810 C   0  0  0  0  0  0  0  0  0  0  0  0
  161.0080  206.6320  148.1170 C   0  0  0  0  0  3  0  0  0  0  0  0
  161.0990  205.9590  149.2720 C   0  0  0  0  0  0  0  0  0  0  0  0
  160.9690  204.8510  144.7210 C   0  0  0  0  0  0  0  0  0  0  0  0
  160.3760  203.8750  144.1900 O   0  0  0  0  0  0  0  0  0  0  0  0
  161.5810  205.8280  143.8810 N   0  0  0  0  0  1  0  0  0  0  0  0
  161.1960  208.2550  150.4240 C   0  0  0  0  0  2  0  0  0  0  0  0
  162.3310  208.8080  151.2880 C   0  0  0  0  0  2  0  0  0  0  0  0
  162.1950  210.2990  151.6090 C   0  0  0  0  0  2  0  0  0  0  0  0
  160.1380  210.0040  154.7610 C   0  0  0  0  0  3  0  0  0  0  0  0
  160.1280  211.5680  152.4210 C   0  0  0  0  0  0  0  0  0  0  0  0
  157.0350  211.9420  155.2810 C   0  0  0  0  0  0  0  0  0  0  0  0
  158.0830  211.0360  155.4850 C   0  0  0  0  0  3  0  0  0  0  0  0
  159.1070  210.9160  154.5440 C   0  0  0  0  0  0  0  0  0  0  0  0
  160.1530  212.4380  151.1990 C   0  0  0  0  0  1  0  0  0  0  0  0
  158.0450  212.6190  153.1780 C   0  0  0  0  0  3  0  0  0  0  0  0
  159.0960  211.7110  153.3720 C   0  0  0  0  0  0  0  0  0  0  0  0
  157.0230  212.7330  154.1250 C   0  0  0  0  0  3  0  0  0  0  0  0
  161.1300  210.5940  152.6260 C   0  0  0  0  0  0  0  0  0  0  0  0
  161.1420  209.8450  153.8060 C   0  0  0  0  0  3  0  0  0  0  0  0
  155.9560  212.0570  156.2770 C   0  0  0  0  0  0  0  0  0  0  0  0
  155.7580  213.2530  156.9570 O   0  0  0  0  0  1  0  0  0  0  0  0
  155.2070  211.0750  156.5230 O   0  0  0  0  0  0  0  0  0  0  0  0
  1  7  2  0  0  0  0
  2 12  1  0  0  0  0
  3  6  1  0  0  0  0
  4  5  1  0  0  0  0
  6  8  2  0  0  0  0
  7  6  1  0  0  0  0
  7  4  1  0  0  0  0
  8  5  1  0  0  0  0
  9  2  2  0  0  0  0
 10 11  2  0  0  0  0
 10  9  1  0  0  0  0
 11 13  1  0  0  0  0
 12  3  2  0  0  0  0
 13 14  2  0  0  0  0
 14 12  1  0  0  0  0
 14  1  1  0  0  0  0
 15 10  1  0  0  0  0
 16 15  2  0  0  0  0
 17 15  1  0  0  0  0
 18  1  1  0  0  0  0
 18 19  1  0  0  0  0
 19 20  1  0  0  0  0
 20 30  1  0  0  0  0
 22 30  2  0  0  0  0
 22 28  1  0  0  0  0
 23 24  1  0  0  0  0
 23 32  1  0  0  0  0
 25 21  1  0  0  0  0
 25 24  2  0  0  0  0
 26 22  1  0  0  0  0
 27 28  2  0  0  0  0
 27 29  1  0  0  0  0
 28 25  1  0  0  0  0
 29 23  2  0  0  0  0
 30 31  1  0  0  0  0
 31 21  2  0  0  0  0
 32 34  2  0  0  0  0
 32 33  1  0  0  0  0
M  END
>  <MODEL>
6

>  <REMARK>
 VINA RESULT:      -8.8      2.469      8.775
  Name = 
  6 active torsions:
  status: ('A' for Active; 'I' for Inactive)
    1  A    between atoms: C_1  and  C_9
    2  A    between atoms: C_3  and  C_25
    3  A    between atoms: C_7  and  C_11
    4  A    between atoms: C_8  and  C_9
    5  A    between atoms: C_8  and  C_18
    6  A    between atoms: C_18  and  C_30
                            x       y       z     vdW  Elec       q    Type
                         _______ _______ _______ _____ _____    ______ ____

>  <TORSDO>
F 6

$$$$
=
 OpenBabel11062409413D

 34 38  0  0  0  0  0  0  0  0999 V2000
  160.9590  204.3370  150.4960 C   0  0  0  0  0  0  0  0  0  0  0  0
  161.8760  206.4410  147.3900 C   0  0  0  0  0  3  0  0  0  0  0  0
  161.5110  204.0980  147.7390 C   0  0  0  0  0  3  0  0  0  0  0  0
  160.6610  201.7420  150.3860 C   0  0  0  0  0  2  0  0  0  0  0  0
  160.8280  200.9420  149.2180 O   0  0  0  0  0  0  0  0  0  0  0  0
  161.2060  202.9900  148.5100 C   0  0  0  0  0  0  0  0  0  0  0  0
  160.9280  203.1010  149.8420 C   0  0  0  0  0  0  0  0  0  0  0  0
  161.1570  201.7330  148.1190 C   0  0  0  0  0  3  0  0  0  0  0  0
  161.9610  207.7530  147.5620 C   0  0  0  0  0  3  0  0  0  0  0  0
  161.7100  208.5590  148.7620 C   0  0  0  0  0  0  0  0  0  0  0  0
  161.3610  208.0670  149.9470 C   0  0  0  0  0  3  0  0  0  0  0  0
  161.5160  205.3720  148.3310 C   0  0  0  0  0  0  0  0  0  0  0  0
  161.1500  206.6800  150.3750 C   0  0  0  0  0  3  0  0  0  0  0  0
  161.2140  205.5120  149.7230 C   0  0  0  0  0  0  0  0  0  0  0  0
  161.8600  210.0240  148.6370 C   0  0  0  0  0  0  0  0  0  0  0  0
  161.5770  210.6020  147.5540 O   0  0  0  0  0  0  0  0  0  0  0  0
  162.3290  210.8040  149.7350 N   0  0  0  0  0  1  0  0  0  0  0  0
  160.7500  204.3950  151.9910 C   0  0  0  0  0  2  0  0  0  0  0  0
  161.6250  205.4630  152.6520 C   0  0  0  0  0  2  0  0  0  0  0  0
  161.1860  205.8330  154.0710 C   0  0  0  0  0  2  0  0  0  0  0  0
  160.8110  209.4890  153.2080 C   0  0  0  0  0  3  0  0  0  0  0  0
  160.3670  207.8330  155.4400 C   0  0  0  0  0  0  0  0  0  0  0  0
  159.8280  212.0190  155.7170 C   0  0  0  0  0  0  0  0  0  0  0  0
  160.2300  211.4340  154.5090 C   0  0  0  0  0  3  0  0  0  0  0  0
  160.4030  210.0520  154.4160 C   0  0  0  0  0  0  0  0  0  0  0  0
  160.0800  206.9420  156.6130 C   0  0  0  0  0  1  0  0  0  0  0  0
  159.7640  209.8200  156.7470 C   0  0  0  0  0  3  0  0  0  0  0  0
  160.1720  209.2270  155.5430 C   0  0  0  0  0  0  0  0  0  0  0  0
  159.5940  211.2040  156.8320 C   0  0  0  0  0  3  0  0  0  0  0  0
  160.8430  207.2860  154.2270 C   0  0  0  0  0  0  0  0  0  0  0  0
  161.0300  208.1150  153.1170 C   0  0  0  0  0  3  0  0  0  0  0  0
  159.6530  213.4780  155.8070 C   0  0  0  0  0  0  0  0  0  0  0  0
  160.2230  214.1870  156.8570 O   0  0  0  0  0  1  0  0  0  0  0  0
  158.9850  214.0960  154.9350 O   0  0  0  0  0  0  0  0  0  0  0  0
  1 18  1  0  0  0  0
  2  9  2  0  0  0  0
  2 12  1  0  0  0  0
  3 12  2  0  0  0  0
  3  6  1  0  0  0  0
  5  4  1  0  0  0  0
  6  7  1  0  0  0  0
  7  4  1  0  0  0  0
  7  1  2  0  0  0  0
  8  6  2  0  0  0  0
  8  5  1  0  0  0  0
  9 10  1  0  0  0  0
 10 11  2  0  0  0  0
 11 13  1  0  0  0  0
 12 14  1  0  0  0  0
 14 13  2  0  0  0  0
 14  1  1  0  0  0  0
 15 10  1  0  0  0  0
 15 17  1  0  0  0  0
 16 15  2  0  0  0  0
 18 19  1  0  0  0  0
 19 20  1  0  0  0  0
 20 30  1  0  0  0  0
 21 25  1  0  0  0  0
 22 28  1  0  0  0  0
 22 26  1  0  0  0  0
 23 32  1  0  0  0  0
 23 29  1  0  0  0  0
 24 23  2  0  0  0  0
 25 24  1  0  0  0  0
 25 28  2  0  0  0  0
 27 29  2  0  0  0  0
 28 27  1  0  0  0  0
 30 22  2  0  0  0  0
 31 21  2  0  0  0  0
 31 30  1  0  0  0  0
 32 33  1  0  0  0  0
 34 32  2  0  0  0  0
M  END
>  <MODEL>
7

>  <REMARK>
 VINA RESULT:      -8.8      2.167      8.502
  Name = 
  6 active torsions:
  status: ('A' for Active; 'I' for Inactive)
    1  A    between atoms: C_1  and  C_9
    2  A    between atoms: C_3  and  C_25
    3  A    between atoms: C_7  and  C_11
    4  A    between atoms: C_8  and  C_9
    5  A    between atoms: C_8  and  C_18
    6  A    between atoms: C_18  and  C_30
                            x       y       z     vdW  Elec       q    Type
                         _______ _______ _______ _____ _____    ______ ____

>  <TORSDO>
F 6

$$$$
=
 OpenBabel11062409413D

 34 38  0  0  0  0  0  0  0  0999 V2000
  161.7490  205.5880  149.7480 C   0  0  0  0  0  0  0  0  0  0  0  0
  161.2480  204.6150  146.0450 C   0  0  0  0  0  3  0  0  0  0  0  0
  161.7050  206.6910  147.1520 C   0  0  0  0  0  3  0  0  0  0  0  0
  162.2370  208.0470  150.4930 C   0  0  0  0  0  2  0  0  0  0  0  0
  162.3310  209.1690  149.6190 O   0  0  0  0  0  0  0  0  0  0  0  0
  161.9440  207.4790  148.2640 C   0  0  0  0  0  0  0  0  0  0  0  0
  161.9770  206.9500  149.5210 C   0  0  0  0  0  0  0  0  0  0  0  0
  162.1470  208.7810  148.2930 C   0  0  0  0  0  3  0  0  0  0  0  0
  161.0460  203.3300  145.7880 C   0  0  0  0  0  3  0  0  0  0  0  0
  161.0270  202.1830  146.7010 C   0  0  0  0  0  0  0  0  0  0  0  0
  161.1970  202.2600  148.0190 C   0  0  0  0  0  3  0  0  0  0  0  0
  161.5100  205.3100  147.3120 C   0  0  0  0  0  0  0  0  0  0  0  0
  161.4230  203.4240  148.8810 C   0  0  0  0  0  3  0  0  0  0  0  0
  161.5540  204.7320  148.6210 C   0  0  0  0  0  0  0  0  0  0  0  0
  160.8020  200.8490  146.1080 C   0  0  0  0  0  0  0  0  0  0  0  0
  161.2480  199.8170  146.6780 O   0  0  0  0  0  0  0  0  0  0  0  0
  160.0810  200.7070  144.8860 N   0  0  0  0  0  1  0  0  0  0  0  0
  161.6880  205.0680  151.1650 C   0  0  0  0  0  2  0  0  0  0  0  0
  160.7140  205.8710  152.0300 C   0  0  0  0  0  2  0  0  0  0  0  0
  161.3140  206.3540  153.3540 C   0  0  0  0  0  2  0  0  0  0  0  0
  160.4180  210.0130  153.0960 C   0  0  0  0  0  3  0  0  0  0  0  0
  160.4580  208.0270  155.0900 C   0  0  0  0  0  0  0  0  0  0  0  0
  159.4880  212.0300  156.0490 C   0  0  0  0  0  0  0  0  0  0  0  0
  159.7940  211.6710  154.7310 C   0  0  0  0  0  3  0  0  0  0  0  0
  160.1090  210.3490  154.4130 C   0  0  0  0  0  0  0  0  0  0  0  0
  160.4290  206.9560  156.1410 C   0  0  0  0  0  1  0  0  0  0  0  0
  159.8090  209.7230  156.7390 C   0  0  0  0  0  3  0  0  0  0  0  0
  160.1220  209.3560  155.4220 C   0  0  0  0  0  0  0  0  0  0  0  0
  159.4960  211.0490  157.0500 C   0  0  0  0  0  3  0  0  0  0  0  0
  160.8310  207.7160  153.7630 C   0  0  0  0  0  0  0  0  0  0  0  0
  160.7780  208.7040  152.7760 C   0  0  0  0  0  3  0  0  0  0  0  0
  159.1620  213.4280  156.3760 C   0  0  0  0  0  0  0  0  0  0  0  0
  157.8360  213.8310  156.4810 O   0  0  0  0  0  0  0  0  0  0  0  0
  160.0800  214.2710  156.5610 O   0  0  0  0  0  1  0  0  0  0  0  0
  1 18  1  0  0  0  0
  2 12  1  0  0  0  0
  3 12  2  0  0  0  0
  3  6  1  0  0  0  0
  5  4  1  0  0  0  0
  6  8  2  0  0  0  0
  6  7  1  0  0  0  0
  7  1  2  0  0  0  0
  7  4  1  0  0  0  0
  8  5  1  0  0  0  0
  9  2  2  0  0  0  0
  9 10  1  0  0  0  0
 10 11  2  0  0  0  0
 11 13  1  0  0  0  0
 12 14  1  0  0  0  0
 14 13  2  0  0  0  0
 14  1  1  0  0  0  0
 15 16  2  0  0  0  0
 15 10  1  0  0  0  0
 17 15  1  0  0  0  0
 18 19  1  0  0  0  0
 19 20  1  0  0  0  0
 20 30  1  0  0  0  0
 21 25  1  0  0  0  0
 22 28  1  0  0  0  0
 22 26  1  0  0  0  0
 23 32  1  0  0  0  0
 23 29  1  0  0  0  0
 24 23  2  0  0  0  0
 25 24  1  0  0  0  0
 25 28  2  0  0  0  0
 27 29  2  0  0  0  0
 28 27  1  0  0  0  0
 30 22  2  0  0  0  0
 31 21  2  0  0  0  0
 31 30  1  0  0  0  0
 32 33  2  0  0  0  0
 32 34  1  0  0  0  0
M  END
>  <MODEL>
8

>  <REMARK>
 VINA RESULT:      -8.4      2.973      9.213
  Name = 
  6 active torsions:
  status: ('A' for Active; 'I' for Inactive)
    1  A    between atoms: C_1  and  C_9
    2  A    between atoms: C_3  and  C_25
    3  A    between atoms: C_7  and  C_11
    4  A    between atoms: C_8  and  C_9
    5  A    between atoms: C_8  and  C_18
    6  A    between atoms: C_18  and  C_30
                            x       y       z     vdW  Elec       q    Type
                         _______ _______ _______ _____ _____    ______ ____

>  <TORSDO>
F 6

$$$$
=
 OpenBabel11062409413D

 34 38  0  0  0  0  0  0  0  0999 V2000
  161.0830  211.2800  151.1110 C   0  0  0  0  0  0  0  0  0  0  0  0
  158.3710  213.6960  152.4190 C   0  0  0  0  0  3  0  0  0  0  0  0
  159.7340  213.6680  150.4490 C   0  0  0  0  0  3  0  0  0  0  0  0
  162.3300  211.6740  148.8460 C   0  0  0  0  0  2  0  0  0  0  0  0
  162.1200  212.7800  147.9720 O   0  0  0  0  0  0  0  0  0  0  0  0
  160.7000  213.1320  149.6150 C   0  0  0  0  0  0  0  0  0  0  0  0
  161.3490  211.9720  149.9240 C   0  0  0  0  0  0  0  0  0  0  0  0
  161.1360  213.6290  148.4750 C   0  0  0  0  0  3  0  0  0  0  0  0
  157.7810  213.3700  153.5610 C   0  0  0  0  0  3  0  0  0  0  0  0
  157.9650  212.1840  154.4050 C   0  0  0  0  0  0  0  0  0  0  0  0
  158.8250  211.2000  154.1540 C   0  0  0  0  0  3  0  0  0  0  0  0
  159.3940  212.9950  151.6340 C   0  0  0  0  0  0  0  0  0  0  0  0
  159.7760  211.0280  153.0520 C   0  0  0  0  0  3  0  0  0  0  0  0
  160.0530  211.7700  151.9710 C   0  0  0  0  0  0  0  0  0  0  0  0
  157.1320  212.0830  155.6210 C   0  0  0  0  0  0  0  0  0  0  0  0
  157.4300  212.7430  156.6520 O   0  0  0  0  0  0  0  0  0  0  0  0
  155.9820  211.2390  155.6500 N   0  0  0  0  0  1  0  0  0  0  0  0
  161.9020  210.0590  151.4600 C   0  0  0  0  0  2  0  0  0  0  0  0
  161.2040  208.7620  151.0450 C   0  0  0  0  0  2  0  0  0  0  0  0
  161.9380  207.4940  151.4910 C   0  0  0  0  0  2  0  0  0  0  0  0
  160.8850  203.9770  150.6100 C   0  0  0  0  0  3  0  0  0  0  0  0
  161.7890  206.2690  149.2500 C   0  0  0  0  0  0  0  0  0  0  0  0
  161.1420  202.6410  147.1740 C   0  0  0  0  0  0  0  0  0  0  0  0
  160.9080  202.7210  148.5520 C   0  0  0  0  0  3  0  0  0  0  0  0
  161.1170  203.9200  149.2370 C   0  0  0  0  0  0  0  0  0  0  0  0
  162.2200  207.5060  148.5190 C   0  0  0  0  0  1  0  0  0  0  0  0
  161.7930  204.9810  147.1620 C   0  0  0  0  0  3  0  0  0  0  0  0
  161.5660  205.0680  148.5430 C   0  0  0  0  0  0  0  0  0  0  0  0
  161.5840  203.7780  146.4840 C   0  0  0  0  0  3  0  0  0  0  0  0
  161.6110  206.2920  150.6520 C   0  0  0  0  0  0  0  0  0  0  0  0
  161.1330  205.1570  151.3110 C   0  0  0  0  0  3  0  0  0  0  0  0
  160.9250  201.3710  146.4610 C   0  0  0  0  0  0  0  0  0  0  0  0
  161.2610  200.1650  147.0640 O   0  0  0  0  0  1  0  0  0  0  0  0
  160.4350  201.3670  145.3010 O   0  0  0  0  0  0  0  0  0  0  0  0
  1 18  1  0  0  0  0
  1 14  1  0  0  0  0
  2  9  2  0  0  0  0
  3 12  2  0  0  0  0
  4  7  1  0  0  0  0
  5  8  1  0  0  0  0
  5  4  1  0  0  0  0
  6  7  1  0  0  0  0
  6  3  1  0  0  0  0
  7  1  2  0  0  0  0
  8  6  2  0  0  0  0
  9 10  1  0  0  0  0
 10 15  1  0  0  0  0
 11 10  2  0  0  0  0
 12 14  1  0  0  0  0
 12  2  1  0  0  0  0
 13 11  1  0  0  0  0
 14 13  2  0  0  0  0
 15 17  1  0  0  0  0
 15 16  2  0  0  0  0
 19 18  1  0  0  0  0
 19 20  1  0  0  0  0
 21 31  1  0  0  0  0
 22 30  1  0  0  0  0
 23 24  2  0  0  0  0
 24 25  1  0  0  0  0
 25 21  2  0  0  0  0
 26 22  1  0  0  0  0
 27 28  1  0  0  0  0
 28 25  1  0  0  0  0
 28 22  2  0  0  0  0
 29 27  2  0  0  0  0
 29 23  1  0  0  0  0
 30 31  2  0  0  0  0
 30 20  1  0  0  0  0
 32 33  1  0  0  0  0
 32 23  1  0  0  0  0
 34 32  2  0  0  0  0
M  END
>  <MODEL>
9

>  <REMARK>
 VINA RESULT:      -8.3      2.202      4.832
  Name = 
  6 active torsions:
  status: ('A' for Active; 'I' for Inactive)
    1  A    between atoms: C_1  and  C_9
    2  A    between atoms: C_3  and  C_25
    3  A    between atoms: C_7  and  C_11
    4  A    between atoms: C_8  and  C_9
    5  A    between atoms: C_8  and  C_18
    6  A    between atoms: C_18  and  C_30
                            x       y       z     vdW  Elec       q    Type
                         _______ _______ _______ _____ _____    ______ ____

>  <TORSDO>
F 6

$$$$
