=
 OpenBabel11052423213D

 27 30  0  0  1  0  0  0  0  0999 V2000
  161.2360  206.6480  148.8880 C   0  0  2  0  0  3  0  0  0  0  0  0
  160.9970  207.8710  149.5470 O   0  0  0  0  0  0  0  0  0  0  0  0
  160.6510  206.0810  151.0360 N   0  0  2  0  0  0  0  0  0  0  0  0
  160.8540  203.3520  150.8260 C   0  0  0  0  0  0  0  0  0  0  0  0
  162.5890  205.6340  152.5750 C   0  0  0  0  0  1  0  0  0  0  0  0
  160.7010  202.1470  150.7040 O   0  0  0  0  0  0  0  0  0  0  0  0
  161.4590  205.6130  149.9470 C   0  0  1  0  0  3  0  0  0  0  0  0
  160.6360  207.5460  150.8800 C   0  0  1  0  0  3  0  0  0  0  0  0
  160.7820  203.9480  152.2250 C   0  0  0  0  0  2  0  0  0  0  0  0
  162.0120  203.6280  148.7570 O   0  0  0  0  0  1  0  0  0  0  0  0
  161.0370  204.1980  149.5770 C   0  0  1  0  0  3  0  0  0  0  0  0
  161.0960  205.4510  152.2900 C   0  0  2  0  0  3  0  0  0  0  0  0
  163.0350  210.2570  152.4120 C   0  0  0  0  0  2  0  0  0  0  0  0
  162.2920  210.1930  153.7540 C   0  0  0  0  0  2  0  0  0  0  0  0
  160.9080  210.0870  153.5380 O   0  0  0  0  0  0  0  0  0  0  0  0
  161.4860  208.3290  151.9010 C   0  0  2  0  0  3  0  0  0  0  0  0
  160.6480  208.7600  153.1270 C   0  0  0  0  0  2  0  0  0  0  0  0
  162.2750  209.5150  151.3050 C   0  0  1  0  0  3  0  0  0  0  0  0
  162.1050  211.0960  149.3790 C   0  0  0  0  0  1  0  0  0  0  0  0
  161.3650  210.4830  150.5530 C   0  0  0  0  0  2  0  0  0  0  0  0
  162.3630  206.7240  147.9400 N   0  0  0  0  0  2  0  0  0  0  0  0
  161.2880  205.2930  144.0570 C   0  0  0  0  0  2  0  0  0  0  0  0
  162.0630  206.3230  146.5550 C   0  0  0  0  0  3  0  0  0  0  0  0
  162.7410  205.0080  146.1630 C   0  0  0  0  0  2  0  0  0  0  0  0
  162.5620  204.6980  144.6710 C   0  0  0  0  0  2  0  0  0  0  0  0
  160.1730  205.4130  145.0900 C   0  0  0  0  0  2  0  0  0  0  0  0
  160.5660  206.3850  146.2060 C   0  0  0  0  0  2  0  0  0  0  0  0
  1 21  1  6  0  0  0
  1  2  1  0  0  0  0
  1  7  1  0  0  0  0
  2  8  1  0  0  0  0
  3 12  1  0  0  0  0
  4  9  1  0  0  0  0
  6  4  2  0  0  0  0
  7  3  1  0  0  0  0
  8  3  1  0  0  0  0
  8 16  1  0  0  0  0
  9 12  1  0  0  0  0
 10 11  1  0  0  0  0
 11  7  1  0  0  0  0
 11  4  1  0  0  0  0
 12  5  1  0  0  0  0
 13 14  1  0  0  0  0
 15 14  1  0  0  0  0
 16 17  1  0  0  0  0
 17 15  1  0  0  0  0
 18 16  1  0  0  0  0
 18 13  1  0  0  0  0
 19 20  1  0  0  0  0
 20 18  1  0  0  0  0
 22 25  1  0  0  0  0
 22 26  1  0  0  0  0
 23 21  1  0  0  0  0
 24 23  1  0  0  0  0
 25 24  1  0  0  0  0
 26 27  1  0  0  0  0
 27 23  1  0  0  0  0
M  END
>  <MODEL>
1

>  <REMARK>
 VINA RESULT:      -6.2      0.000      0.000
  Name = 
  4 active torsions:
  status: ('A' for Active; 'I' for Inactive)
    1  A    between atoms: C_1  and  N_15
    2  A    between atoms: C_9  and  N_15
    3  A    between atoms: C_14  and  C_19
    4  A    between atoms: C_17  and  C_21
                            x       y       z     vdW  Elec       q    Type
                         _______ _______ _______ _____ _____    ______ ____

>  <TORSDO>
F 4

$$$$
=
 OpenBabel11052423213D

 27 30  0  0  1  0  0  0  0  0999 V2000
  161.2100  209.5230  150.5140 C   0  0  2  0  0  3  0  0  0  0  0  0
  160.7730  209.7950  151.8250 O   0  0  0  0  0  0  0  0  0  0  0  0
  160.7160  207.4750  151.4300 N   0  0  2  0  0  0  0  0  0  0  0  0
  161.3590  205.8840  149.2880 C   0  0  0  0  0  0  0  0  0  0  0  0
  162.6940  206.2250  152.3510 C   0  0  0  0  0  1  0  0  0  0  0  0
  161.4040  205.1780  148.2930 O   0  0  0  0  0  0  0  0  0  0  0  0
  161.5940  208.0760  150.4670 C   0  0  1  0  0  3  0  0  0  0  0  0
  160.4650  208.5410  152.4140 C   0  0  1  0  0  3  0  0  0  0  0  0
  161.1860  205.2080  150.6410 C   0  0  0  0  0  2  0  0  0  0  0  0
  162.4660  207.7420  148.2780 O   0  0  0  0  0  1  0  0  0  0  0  0
  161.4080  207.3930  149.1200 C   0  0  1  0  0  3  0  0  0  0  0  0
  161.2520  206.1660  151.8410 C   0  0  2  0  0  3  0  0  0  0  0  0
  162.0150  209.3820  155.9280 C   0  0  0  0  0  2  0  0  0  0  0  0
  161.6280  207.9940  156.4590 C   0  0  0  0  0  2  0  0  0  0  0  0
  160.3560  207.6320  155.9860 O   0  0  0  0  0  0  0  0  0  0  0  0
  161.1720  208.3680  153.7740 C   0  0  2  0  0  3  0  0  0  0  0  0
  160.5010  207.2680  154.6280 C   0  0  0  0  0  2  0  0  0  0  0  0
  161.3580  209.6760  154.5720 C   0  0  1  0  0  3  0  0  0  0  0  0
  160.2250  211.9020  154.5850 C   0  0  0  0  0  1  0  0  0  0  0  0
  160.0350  210.4090  154.7790 C   0  0  0  0  0  2  0  0  0  0  0  0
  162.3130  210.4030  150.0870 N   0  0  0  0  0  2  0  0  0  0  0  0
  161.5720  213.4810  147.2130 C   0  0  0  0  0  2  0  0  0  0  0  0
  161.9840  211.3810  149.0370 C   0  0  0  0  0  3  0  0  0  0  0  0
  161.0700  212.5000  149.5410 C   0  0  0  0  0  2  0  0  0  0  0  0
  160.5980  213.4080  148.3970 C   0  0  0  0  0  2  0  0  0  0  0  0
  163.0140  213.2790  147.6630 C   0  0  0  0  0  2  0  0  0  0  0  0
  163.2110  211.8800  148.2530 C   0  0  0  0  0  2  0  0  0  0  0  0
  1 21  1  1  0  0  0
  1  2  1  0  0  0  0
  2  8  1  0  0  0  0
  3 12  1  0  0  0  0
  3  8  1  0  0  0  0
  4  9  1  0  0  0  0
  6  4  2  0  0  0  0
  7  1  1  0  0  0  0
  7  3  1  0  0  0  0
  8 16  1  0  0  0  0
  9 12  1  0  0  0  0
 10 11  1  0  0  0  0
 11  4  1  0  0  0  0
 11  7  1  0  0  0  0
 12  5  1  0  0  0  0
 13 14  1  0  0  0  0
 15 14  1  0  0  0  0
 16 18  1  0  0  0  0
 16 17  1  0  0  0  0
 17 15  1  0  0  0  0
 18 20  1  0  0  0  0
 18 13  1  0  0  0  0
 19 20  1  0  0  0  0
 22 26  1  0  0  0  0
 22 25  1  0  0  0  0
 23 24  1  0  0  0  0
 23 21  1  0  0  0  0
 25 24  1  0  0  0  0
 26 27  1  0  0  0  0
 27 23  1  0  0  0  0
M  END
>  <MODEL>
2

>  <REMARK>
 VINA RESULT:      -6.2      2.529      4.746
  Name = 
  4 active torsions:
  status: ('A' for Active; 'I' for Inactive)
    1  A    between atoms: C_1  and  N_15
    2  A    between atoms: C_9  and  N_15
    3  A    between atoms: C_14  and  C_19
    4  A    between atoms: C_17  and  C_21
                            x       y       z     vdW  Elec       q    Type
                         _______ _______ _______ _____ _____    ______ ____

>  <TORSDO>
F 4

$$$$
=
 OpenBabel11052423213D

 27 30  0  0  1  0  0  0  0  0999 V2000
  161.6450  207.0560  152.0540 C   0  0  2  0  0  3  0  0  0  0  0  0
  161.7730  207.3680  153.4230 O   0  0  0  0  0  0  0  0  0  0  0  0
  162.0780  209.3110  152.1290 N   0  0  2  0  0  0  0  0  0  0  0  0
  162.0180  209.8450  149.4370 C   0  0  0  0  0  0  0  0  0  0  0  0
  160.0440  210.7820  151.9880 C   0  0  0  0  0  1  0  0  0  0  0  0
  162.2350  210.0700  148.2570 O   0  0  0  0  0  0  0  0  0  0  0  0
  161.3840  208.3410  151.3310 C   0  0  1  0  0  3  0  0  0  0  0  0
  162.0380  208.7600  153.4940 C   0  0  1  0  0  3  0  0  0  0  0  0
  161.9480  211.0290  150.3930 C   0  0  0  0  0  2  0  0  0  0  0  0
  161.0210  207.7080  149.0670 O   0  0  0  0  0  1  0  0  0  0  0  0
  161.8990  208.4030  149.9000 C   0  0  1  0  0  3  0  0  0  0  0  0
  161.5610  210.6580  151.8330 C   0  0  2  0  0  3  0  0  0  0  0  0
  159.3220  209.3200  156.2810 C   0  0  0  0  0  2  0  0  0  0  0  0
  160.0100  210.6190  156.7260 C   0  0  0  0  0  2  0  0  0  0  0  0
  161.4060  210.4600  156.7050 O   0  0  0  0  0  0  0  0  0  0  0  0
  161.0740  209.4680  154.4670 C   0  0  2  0  0  3  0  0  0  0  0  0
  161.8120  210.4990  155.3520 C   0  0  0  0  0  2  0  0  0  0  0  0
  160.1980  208.5160  155.3100 C   0  0  1  0  0  3  0  0  0  0  0  0
  160.2590  206.9570  157.2610 C   0  0  0  0  0  1  0  0  0  0  0  0
  161.0400  207.5020  156.0800 C   0  0  0  0  0  2  0  0  0  0  0  0
  160.5970  206.0510  151.7960 N   0  0  0  0  0  2  0  0  0  0  0  0
  161.6100  202.2340  150.1570 C   0  0  0  0  0  2  0  0  0  0  0  0
  161.0640  204.7600  151.2670 C   0  0  0  0  0  3  0  0  0  0  0  0
  160.5820  203.5720  152.1030 C   0  0  0  0  0  2  0  0  0  0  0  0
  161.2190  202.2540  151.6410 C   0  0  0  0  0  2  0  0  0  0  0  0
  160.6970  203.1300  149.3270 C   0  0  0  0  0  2  0  0  0  0  0  0
  160.8360  204.5940  149.7540 C   0  0  0  0  0  2  0  0  0  0  0  0
  1 21  1  1  0  0  0
  1  2  1  0  0  0  0
  2  8  1  0  0  0  0
  3  8  1  0  0  0  0
  4 11  1  0  0  0  0
  4  9  1  0  0  0  0
  6  4  2  0  0  0  0
  7  1  1  0  0  0  0
  7  3  1  0  0  0  0
  8 16  1  0  0  0  0
  9 12  1  0  0  0  0
 10 11  1  0  0  0  0
 11  7  1  0  0  0  0
 12  5  1  0  0  0  0
 12  3  1  0  0  0  0
 13 14  1  0  0  0  0
 15 14  1  0  0  0  0
 16 18  1  0  0  0  0
 16 17  1  0  0  0  0
 17 15  1  0  0  0  0
 18 20  1  0  0  0  0
 18 13  1  0  0  0  0
 20 19  1  0  0  0  0
 22 25  1  0  0  0  0
 23 21  1  0  0  0  0
 23 24  1  0  0  0  0
 25 24  1  0  0  0  0
 26 27  1  0  0  0  0
 26 22  1  0  0  0  0
 27 23  1  0  0  0  0
M  END
>  <MODEL>
3

>  <REMARK>
 VINA RESULT:      -5.9      2.949      5.346
  Name = 
  4 active torsions:
  status: ('A' for Active; 'I' for Inactive)
    1  A    between atoms: C_1  and  N_15
    2  A    between atoms: C_9  and  N_15
    3  A    between atoms: C_14  and  C_19
    4  A    between atoms: C_17  and  C_21
                            x       y       z     vdW  Elec       q    Type
                         _______ _______ _______ _____ _____    ______ ____

>  <TORSDO>
F 4

$$$$
=
 OpenBabel11052423213D

 27 30  0  0  1  0  0  0  0  0999 V2000
  160.5310  205.6000  150.4830 C   0  0  2  0  0  3  0  0  0  0  0  0
  160.2300  205.2690  149.1460 O   0  0  0  0  0  0  0  0  0  0  0  0
  160.8850  207.5260  149.2820 N   0  0  2  0  0  0  0  0  0  0  0  0
  161.6910  209.1630  151.3320 C   0  0  0  0  0  0  0  0  0  0  0  0
  163.2800  207.9430  148.6360 C   0  0  0  0  0  1  0  0  0  0  0  0
  161.8190  209.9710  152.2380 O   0  0  0  0  0  0  0  0  0  0  0  0
  161.3610  206.8470  150.4530 C   0  0  1  0  0  3  0  0  0  0  0  0
  160.4460  206.4460  148.3830 C   0  0  1  0  0  3  0  0  0  0  0  0
  161.9560  209.6340  149.9080 C   0  0  0  0  0  2  0  0  0  0  0  0
  161.9570  207.2410  152.7220 O   0  0  0  0  0  1  0  0  0  0  0  0
  161.2120  207.7600  151.6610 C   0  0  1  0  0  3  0  0  0  0  0  0
  161.8800  208.5230  148.8500 C   0  0  2  0  0  3  0  0  0  0  0  0
  162.7840  204.5610  145.8460 C   0  0  0  0  0  2  0  0  0  0  0  0
  162.2680  205.4270  144.6880 C   0  0  0  0  0  2  0  0  0  0  0  0
  160.8840  205.6310  144.8130 O   0  0  0  0  0  0  0  0  0  0  0  0
  161.3640  206.1730  147.1750 C   0  0  2  0  0  3  0  0  0  0  0  0
  160.6900  206.5780  145.8440 C   0  0  0  0  0  2  0  0  0  0  0  0
  161.9350  204.7400  147.1120 C   0  0  1  0  0  3  0  0  0  0  0  0
  161.2080  202.4930  146.3000 C   0  0  0  0  0  1  0  0  0  0  0  0
  160.8310  203.6860  147.1570 C   0  0  0  0  0  2  0  0  0  0  0  0
  161.2040  204.5030  151.2020 N   0  0  0  0  0  2  0  0  0  0  0  0
  160.9490  200.6080  149.4570 C   0  0  0  0  0  2  0  0  0  0  0  0
  161.2080  203.1970  150.5230 C   0  0  0  0  0  3  0  0  0  0  0  0
  161.7930  202.0820  151.3920 C   0  0  0  0  0  2  0  0  0  0  0  0
  161.9500  200.7710  150.6090 C   0  0  0  0  0  2  0  0  0  0  0  0
  159.6380  201.3280  149.7490 C   0  0  0  0  0  2  0  0  0  0  0  0
  159.8620  202.8390  149.8680 C   0  0  0  0  0  2  0  0  0  0  0  0
  1 21  1  6  0  0  0
  2  1  1  0  0  0  0
  3  7  1  0  0  0  0
  4 11  1  0  0  0  0
  4  6  2  0  0  0  0
  5 12  1  0  0  0  0
  7  1  1  0  0  0  0
  7 11  1  0  0  0  0
  8  2  1  0  0  0  0
  8  3  1  0  0  0  0
  9  4  1  0  0  0  0
 11 10  1  0  0  0  0
 12  3  1  0  0  0  0
 12  9  1  0  0  0  0
 13 18  1  0  0  0  0
 14 15  1  0  0  0  0
 14 13  1  0  0  0  0
 15 17  1  0  0  0  0
 16  8  1  0  0  0  0
 17 16  1  0  0  0  0
 18 20  1  0  0  0  0
 18 16  1  0  0  0  0
 19 20  1  0  0  0  0
 22 26  1  0  0  0  0
 22 25  1  0  0  0  0
 23 21  1  0  0  0  0
 23 24  1  0  0  0  0
 25 24  1  0  0  0  0
 26 27  1  0  0  0  0
 27 23  1  0  0  0  0
M  END
>  <MODEL>
4

>  <REMARK>
 VINA RESULT:      -4.8      2.018      6.222
  Name = 
  4 active torsions:
  status: ('A' for Active; 'I' for Inactive)
    1  A    between atoms: C_1  and  N_15
    2  A    between atoms: C_9  and  N_15
    3  A    between atoms: C_14  and  C_19
    4  A    between atoms: C_17  and  C_21
                            x       y       z     vdW  Elec       q    Type
                         _______ _______ _______ _____ _____    ______ ____

>  <TORSDO>
F 4

$$$$
=
 OpenBabel11052423213D

 27 30  0  0  1  0  0  0  0  0999 V2000
  161.0760  211.2540  140.1790 C   0  0  2  0  0  3  0  0  0  0  0  0
  160.3440  212.3600  139.7040 O   0  0  0  0  0  0  0  0  0  0  0  0
  160.2880  210.6250  138.1140 N   0  0  2  0  0  0  0  0  0  0  0  0
  161.3250  208.0860  138.0180 C   0  0  0  0  0  0  0  0  0  0  0  0
  158.1800  209.2550  138.1630 C   0  0  0  0  0  1  0  0  0  0  0  0
  161.9610  207.0600  137.8390 O   0  0  0  0  0  0  0  0  0  0  0  0
  160.6360  210.0610  139.3870 C   0  0  1  0  0  3  0  0  0  0  0  0
  159.8430  211.9940  138.4280 C   0  0  1  0  0  3  0  0  0  0  0  0
  160.2400  208.4430  137.0110 C   0  0  0  0  0  2  0  0  0  0  0  0
  161.7940  208.2210  140.3550 O   0  0  0  0  0  1  0  0  0  0  0  0
  161.6910  208.9820  139.1880 C   0  0  1  0  0  3  0  0  0  0  0  0
  159.4200  209.6890  137.3790 C   0  0  2  0  0  3  0  0  0  0  0  0
  156.1780  213.0400  139.3930 C   0  0  0  0  0  2  0  0  0  0  0  0
  155.8840  213.4430  137.9420 C   0  0  0  0  0  2  0  0  0  0  0  0
  156.9970  214.0930  137.3830 O   0  0  0  0  0  0  0  0  0  0  0  0
  158.3230  212.2360  138.3300 C   0  0  2  0  0  3  0  0  0  0  0  0
  157.9640  213.1010  137.0990 C   0  0  0  0  0  2  0  0  0  0  0  0
  157.6740  212.7810  139.6200 C   0  0  1  0  0  3  0  0  0  0  0  0
  158.0790  214.2730  141.5820 C   0  0  0  0  0  1  0  0  0  0  0  0
  158.3600  214.0550  140.1070 C   0  0  0  0  0  2  0  0  0  0  0  0
  160.9170  211.0460  141.6300 N   0  0  0  0  0  2  0  0  0  0  0  0
  161.7080  214.2760  144.3170 C   0  0  0  0  0  2  0  0  0  0  0  0
  161.1290  212.2330  142.4740 C   0  0  0  0  0  3  0  0  0  0  0  0
  160.2880  212.2030  143.7530 C   0  0  0  0  0  2  0  0  0  0  0  0
  160.3890  213.5220  144.5310 C   0  0  0  0  0  2  0  0  0  0  0  0
  162.8570  213.3190  144.0200 C   0  0  0  0  0  2  0  0  0  0  0  0
  162.6130  212.5660  142.7080 C   0  0  0  0  0  2  0  0  0  0  0  0
  1 21  1  1  0  0  0
  2  1  1  0  0  0  0
  3  8  1  0  0  0  0
  3  7  1  0  0  0  0
  4 11  1  0  0  0  0
  6  4  2  0  0  0  0
  7  1  1  0  0  0  0
  8  2  1  0  0  0  0
  9 12  1  0  0  0  0
  9  4  1  0  0  0  0
 11  7  1  0  0  0  0
 11 10  1  0  0  0  0
 12  3  1  0  0  0  0
 12  5  1  0  0  0  0
 13 18  1  0  0  0  0
 14 13  1  0  0  0  0
 15 14  1  0  0  0  0
 16  8  1  0  0  0  0
 16 18  1  0  0  0  0
 17 15  1  0  0  0  0
 17 16  1  0  0  0  0
 18 20  1  0  0  0  0
 20 19  1  0  0  0  0
 21 23  1  0  0  0  0
 22 25  1  0  0  0  0
 23 27  1  0  0  0  0
 23 24  1  0  0  0  0
 24 25  1  0  0  0  0
 26 22  1  0  0  0  0
 27 26  1  0  0  0  0
M  END
>  <MODEL>
5

>  <REMARK>
 VINA RESULT:      -4.8      9.204     12.485
  Name = 
  4 active torsions:
  status: ('A' for Active; 'I' for Inactive)
    1  A    between atoms: C_1  and  N_15
    2  A    between atoms: C_9  and  N_15
    3  A    between atoms: C_14  and  C_19
    4  A    between atoms: C_17  and  C_21
                            x       y       z     vdW  Elec       q    Type
                         _______ _______ _______ _____ _____    ______ ____

>  <TORSDO>
F 4

$$$$
=
 OpenBabel11052423213D

 27 30  0  0  1  0  0  0  0  0999 V2000
  162.0950  209.4370  149.0280 C   0  0  2  0  0  3  0  0  0  0  0  0
  162.3760  208.9510  150.3200 O   0  0  0  0  0  0  0  0  0  0  0  0
  161.9530  211.2650  150.4130 N   0  0  2  0  0  0  0  0  0  0  0  0
  161.2950  213.1650  148.5460 C   0  0  0  0  0  0  0  0  0  0  0  0
  159.6210  211.8550  151.1460 C   0  0  0  0  0  1  0  0  0  0  0  0
  161.2400  214.0650  147.7230 O   0  0  0  0  0  0  0  0  0  0  0  0
  161.3980  210.7530  149.1930 C   0  0  1  0  0  3  0  0  0  0  0  0
  162.2910  210.0640  151.1960 C   0  0  1  0  0  3  0  0  0  0  0  0
  161.0960  213.5200  150.0130 C   0  0  0  0  0  2  0  0  0  0  0  0
  160.8190  211.4230  146.9850 O   0  0  0  0  0  1  0  0  0  0  0  0
  161.6250  211.7590  148.0740 C   0  0  1  0  0  3  0  0  0  0  0  0
  161.0710  212.3100  150.9590 C   0  0  2  0  0  3  0  0  0  0  0  0
  160.0520  208.1030  153.7660 C   0  0  0  0  0  2  0  0  0  0  0  0
  160.4520  209.0700  154.8900 C   0  0  0  0  0  2  0  0  0  0  0  0
  161.8160  209.3920  154.7910 O   0  0  0  0  0  0  0  0  0  0  0  0
  161.3630  209.7690  152.3920 C   0  0  2  0  0  3  0  0  0  0  0  0
  161.9560  210.3000  153.7180 C   0  0  0  0  0  2  0  0  0  0  0  0
  160.9210  208.2950  152.5150 C   0  0  1  0  0  3  0  0  0  0  0  0
  161.6910  205.9870  153.0790 C   0  0  0  0  0  1  0  0  0  0  0  0
  162.1160  207.3450  152.5540 C   0  0  0  0  0  2  0  0  0  0  0  0
  161.3060  208.4890  148.2220 N   0  0  0  0  0  2  0  0  0  0  0  0
  161.6230  204.2750  148.8780 C   0  0  0  0  0  2  0  0  0  0  0  0
  161.5030  207.0640  148.5340 C   0  0  0  0  0  3  0  0  0  0  0  0
  160.3180  206.4570  149.2890 C   0  0  0  0  0  2  0  0  0  0  0  0
  160.6140  205.0250  149.7570 C   0  0  0  0  0  2  0  0  0  0  0  0
  161.5680  204.7540  147.4310 C   0  0  0  0  0  2  0  0  0  0  0  0
  161.9720  206.2280  147.3300 C   0  0  0  0  0  2  0  0  0  0  0  0
  1 21  1  1  0  0  0
  1  7  1  0  0  0  0
  1  2  1  0  0  0  0
  2  8  1  0  0  0  0
  3 12  1  0  0  0  0
  3  8  1  0  0  0  0
  4  9  1  0  0  0  0
  6  4  2  0  0  0  0
  7  3  1  0  0  0  0
  8 16  1  0  0  0  0
  9 12  1  0  0  0  0
 10 11  1  0  0  0  0
 11  4  1  0  0  0  0
 11  7  1  0  0  0  0
 12  5  1  0  0  0  0
 13 14  1  0  0  0  0
 15 14  1  0  0  0  0
 16 18  1  0  0  0  0
 16 17  1  0  0  0  0
 17 15  1  0  0  0  0
 18 20  1  0  0  0  0
 18 13  1  0  0  0  0
 20 19  1  0  0  0  0
 21 23  1  0  0  0  0
 22 25  1  0  0  0  0
 23 24  1  0  0  0  0
 24 25  1  0  0  0  0
 26 22  1  0  0  0  0
 27 26  1  0  0  0  0
 27 23  1  0  0  0  0
M  END
>  <MODEL>
6

>  <REMARK>
 VINA RESULT:      -4.7      2.465      5.553
  Name = 
  4 active torsions:
  status: ('A' for Active; 'I' for Inactive)
    1  A    between atoms: C_1  and  N_15
    2  A    between atoms: C_9  and  N_15
    3  A    between atoms: C_14  and  C_19
    4  A    between atoms: C_17  and  C_21
                            x       y       z     vdW  Elec       q    Type
                         _______ _______ _______ _____ _____    ______ ____

>  <TORSDO>
F 4

$$$$
=
 OpenBabel11052423213D

 27 30  0  0  1  0  0  0  0  0999 V2000
  161.8550  207.0550  150.3500 C   0  0  2  0  0  3  0  0  0  0  0  0
  161.9820  206.7840  151.7270 O   0  0  0  0  0  0  0  0  0  0  0  0
  162.2390  209.0920  151.3420 N   0  0  2  0  0  0  0  0  0  0  0  0
  162.1580  210.6780  149.1040 C   0  0  0  0  0  0  0  0  0  0  0  0
  160.1730  210.4480  151.8030 C   0  0  0  0  0  1  0  0  0  0  0  0
  162.3650  211.3690  148.1200 O   0  0  0  0  0  0  0  0  0  0  0  0
  161.5630  208.5180  150.2140 C   0  0  1  0  0  3  0  0  0  0  0  0
  162.2170  208.0300  152.3630 C   0  0  1  0  0  3  0  0  0  0  0  0
  162.0650  211.3660  150.4590 C   0  0  0  0  0  2  0  0  0  0  0  0
  161.2060  208.8580  147.8870 O   0  0  0  0  0  1  0  0  0  0  0  0
  162.0710  209.1700  148.9360 C   0  0  1  0  0  3  0  0  0  0  0  0
  161.6920  210.4310  151.6200 C   0  0  2  0  0  3  0  0  0  0  0  0
  159.5620  207.3260  155.1770 C   0  0  0  0  0  2  0  0  0  0  0  0
  160.1790  208.4150  156.0660 C   0  0  0  0  0  2  0  0  0  0  0  0
  161.5800  208.3770  155.9790 O   0  0  0  0  0  0  0  0  0  0  0  0
  161.2400  208.2580  153.5350 C   0  0  2  0  0  3  0  0  0  0  0  0
  161.9390  208.9410  154.7340 C   0  0  0  0  0  2  0  0  0  0  0  0
  160.4570  207.0020  153.9720 C   0  0  1  0  0  3  0  0  0  0  0  0
  161.1300  204.6730  153.3690 C   0  0  0  0  0  1  0  0  0  0  0  0
  161.3870  205.8390  154.3060 C   0  0  0  0  0  2  0  0  0  0  0  0
  160.8280  206.2220  149.6980 N   0  0  0  0  0  2  0  0  0  0  0  0
  161.6040  202.1120  148.8090 C   0  0  0  0  0  2  0  0  0  0  0  0
  161.1970  204.8160  149.4650 C   0  0  0  0  0  3  0  0  0  0  0  0
  160.2510  203.8360  150.1620 C   0  0  0  0  0  2  0  0  0  0  0  0
  160.7500  202.3880  150.0530 C   0  0  0  0  0  2  0  0  0  0  0  0
  161.2060  203.0140  147.6460 C   0  0  0  0  0  2  0  0  0  0  0  0
  161.4630  204.4850  147.9860 C   0  0  0  0  0  2  0  0  0  0  0  0
  1 21  1  1  0  0  0
  1  2  1  0  0  0  0
  2  8  1  0  0  0  0
  3 12  1  0  0  0  0
  3  8  1  0  0  0  0
  4  9  1  0  0  0  0
  6  4  2  0  0  0  0
  7  1  1  0  0  0  0
  7  3  1  0  0  0  0
  8 16  1  0  0  0  0
  9 12  1  0  0  0  0
 10 11  1  0  0  0  0
 11  4  1  0  0  0  0
 11  7  1  0  0  0  0
 12  5  1  0  0  0  0
 13 14  1  0  0  0  0
 15 14  1  0  0  0  0
 16 18  1  0  0  0  0
 16 17  1  0  0  0  0
 17 15  1  0  0  0  0
 18 20  1  0  0  0  0
 18 13  1  0  0  0  0
 19 20  1  0  0  0  0
 22 25  1  0  0  0  0
 23 21  1  0  0  0  0
 23 24  1  0  0  0  0
 25 24  1  0  0  0  0
 26 27  1  0  0  0  0
 26 22  1  0  0  0  0
 27 23  1  0  0  0  0
M  END
>  <MODEL>
7

>  <REMARK>
 VINA RESULT:      -4.7      2.321      4.936
  Name = 
  4 active torsions:
  status: ('A' for Active; 'I' for Inactive)
    1  A    between atoms: C_1  and  N_15
    2  A    between atoms: C_9  and  N_15
    3  A    between atoms: C_14  and  C_19
    4  A    between atoms: C_17  and  C_21
                            x       y       z     vdW  Elec       q    Type
                         _______ _______ _______ _____ _____    ______ ____

>  <TORSDO>
F 4

$$$$
=
 OpenBabel11052423213D

 27 30  0  0  1  0  0  0  0  0999 V2000
  161.0210  206.0200  148.9110 C   0  0  2  0  0  3  0  0  0  0  0  0
  160.7230  206.9870  149.8910 O   0  0  0  0  0  0  0  0  0  0  0  0
  160.4520  204.8290  150.7920 N   0  0  2  0  0  0  0  0  0  0  0  0
  160.7800  202.2900  149.8040 C   0  0  0  0  0  0  0  0  0  0  0  0
  162.4010  204.0380  152.1690 C   0  0  0  0  0  1  0  0  0  0  0  0
  160.6830  201.1670  149.3360 O   0  0  0  0  0  0  0  0  0  0  0  0
  161.2860  204.7320  149.6280 C   0  0  1  0  0  3  0  0  0  0  0  0
  160.3720  206.2740  151.0670 C   0  0  1  0  0  3  0  0  0  0  0  0
  160.6750  202.4510  151.3150 C   0  0  0  0  0  2  0  0  0  0  0  0
  161.9340  203.2030  147.9240 O   0  0  0  0  0  1  0  0  0  0  0  0
  160.9300  203.4680  148.8580 C   0  0  1  0  0  3  0  0  0  0  0  0
  160.9200  203.8820  151.8180 C   0  0  2  0  0  3  0  0  0  0  0  0
  162.3610  208.6390  153.4980 C   0  0  0  0  0  2  0  0  0  0  0  0
  161.8460  207.8600  154.7160 C   0  0  0  0  0  2  0  0  0  0  0  0
  160.4960  207.5150  154.5370 O   0  0  0  0  0  0  0  0  0  0  0  0
  161.1800  206.7640  152.2850 C   0  0  2  0  0  3  0  0  0  0  0  0
  160.4560  206.4450  153.6140 C   0  0  0  0  0  2  0  0  0  0  0  0
  161.6180  208.2420  152.2140 C   0  0  1  0  0  3  0  0  0  0  0  0
  160.7980  210.5970  152.3710 C   0  0  0  0  0  1  0  0  0  0  0  0
  160.4320  209.1760  151.9840 C   0  0  0  0  0  2  0  0  0  0  0  0
  162.1470  206.4140  148.0450 N   0  0  0  0  0  2  0  0  0  0  0  0
  161.3960  205.4990  143.9360 C   0  0  0  0  0  2  0  0  0  0  0  0
  161.9500  206.2050  146.6010 C   0  0  0  0  0  3  0  0  0  0  0  0
  162.7910  205.0490  146.0540 C   0  0  0  0  0  2  0  0  0  0  0  0
  162.7060  204.9580  144.5240 C   0  0  0  0  0  2  0  0  0  0  0  0
  160.2360  205.3320  144.9120 C   0  0  0  0  0  2  0  0  0  0  0  0
  160.4700  206.1550  146.1820 C   0  0  0  0  0  2  0  0  0  0  0  0
  1 21  1  1  0  0  0
  1  7  1  0  0  0  0
  1  2  1  0  0  0  0
  2  8  1  0  0  0  0
  3  8  1  0  0  0  0
  3 12  1  0  0  0  0
  4  9  1  0  0  0  0
  6  4  2  0  0  0  0
  7  3  1  0  0  0  0
  8 16  1  0  0  0  0
  9 12  1  0  0  0  0
 10 11  1  0  0  0  0
 11  7  1  0  0  0  0
 11  4  1  0  0  0  0
 12  5  1  0  0  0  0
 13 14  1  0  0  0  0
 15 14  1  0  0  0  0
 16 17  1  0  0  0  0
 17 15  1  0  0  0  0
 18 16  1  0  0  0  0
 18 13  1  0  0  0  0
 20 18  1  0  0  0  0
 20 19  1  0  0  0  0
 22 25  1  0  0  0  0
 22 26  1  0  0  0  0
 23 21  1  0  0  0  0
 24 23  1  0  0  0  0
 25 24  1  0  0  0  0
 26 27  1  0  0  0  0
 27 23  1  0  0  0  0
M  END
>  <MODEL>
8

>  <REMARK>
 VINA RESULT:      -4.5      1.355      1.576
  Name = 
  4 active torsions:
  status: ('A' for Active; 'I' for Inactive)
    1  A    between atoms: C_1  and  N_15
    2  A    between atoms: C_9  and  N_15
    3  A    between atoms: C_14  and  C_19
    4  A    between atoms: C_17  and  C_21
                            x       y       z     vdW  Elec       q    Type
                         _______ _______ _______ _____ _____    ______ ____

>  <TORSDO>
F 4

$$$$
=
 OpenBabel11052423213D

 27 30  0  0  1  0  0  0  0  0999 V2000
  161.1290  207.1730  151.7760 C   0  0  2  0  0  3  0  0  0  0  0  0
  160.6470  206.0020  151.1590 O   0  0  0  0  0  0  0  0  0  0  0  0
  161.0240  207.6630  149.5330 N   0  0  2  0  0  0  0  0  0  0  0  0
  161.9560  210.2430  149.6180 C   0  0  0  0  0  0  0  0  0  0  0  0
  163.2000  207.4170  148.2970 C   0  0  0  0  0  1  0  0  0  0  0  0
  162.1340  211.4500  149.6450 O   0  0  0  0  0  0  0  0  0  0  0  0
  161.7760  208.0010  150.7080 C   0  0  1  0  0  3  0  0  0  0  0  0
  160.5770  206.2790  149.7680 C   0  0  1  0  0  3  0  0  0  0  0  0
  161.9110  209.5540  148.2610 C   0  0  0  0  0  2  0  0  0  0  0  0
  162.6980  209.8700  151.8560 O   0  0  0  0  0  1  0  0  0  0  0  0
  161.7230  209.5060  150.9250 C   0  0  1  0  0  3  0  0  0  0  0  0
  161.7960  208.0230  148.3320 C   0  0  2  0  0  3  0  0  0  0  0  0
  161.9560  202.7800  148.6250 C   0  0  0  0  0  2  0  0  0  0  0  0
  161.8150  203.1780  147.1490 C   0  0  0  0  0  2  0  0  0  0  0  0
  160.6250  203.8990  146.9530 O   0  0  0  0  0  0  0  0  0  0  0  0
  161.3020  205.1990  148.9410 C   0  0  2  0  0  3  0  0  0  0  0  0
  160.8310  205.1980  147.4680 C   0  0  0  0  0  2  0  0  0  0  0  0
  161.2590  203.7830  149.5540 C   0  0  1  0  0  3  0  0  0  0  0  0
  159.7240  201.8200  149.7310 C   0  0  0  0  0  1  0  0  0  0  0  0
  159.8290  203.3300  149.8380 C   0  0  0  0  0  2  0  0  0  0  0  0
  162.0490  206.8910  152.8930 N   0  0  0  0  0  2  0  0  0  0  0  0
  160.2790  207.9380  156.6420 C   0  0  0  0  0  2  0  0  0  0  0  0
  161.5530  207.2360  154.2350 C   0  0  0  0  0  3  0  0  0  0  0  0
  161.2060  208.7210  154.3700 C   0  0  0  0  0  2  0  0  0  0  0  0
  160.8600  209.0950  155.8180 C   0  0  0  0  0  2  0  0  0  0  0  0
  159.5170  206.9530  155.7610 C   0  0  0  0  0  2  0  0  0  0  0  0
  160.4560  206.2880  154.7500 C   0  0  0  0  0  2  0  0  0  0  0  0
  1 21  1  1  0  0  0
  2  1  1  0  0  0  0
  3  8  1  0  0  0  0
  3  7  1  0  0  0  0
  4  6  2  0  0  0  0
  4 11  1  0  0  0  0
  5 12  1  0  0  0  0
  7 11  1  0  0  0  0
  7  1  1  0  0  0  0
  8  2  1  0  0  0  0
  9 12  1  0  0  0  0
  9  4  1  0  0  0  0
 11 10  1  0  0  0  0
 12  3  1  0  0  0  0
 13 18  1  0  0  0  0
 14 13  1  0  0  0  0
 15 14  1  0  0  0  0
 15 17  1  0  0  0  0
 16 18  1  0  0  0  0
 16  8  1  0  0  0  0
 17 16  1  0  0  0  0
 18 20  1  0  0  0  0
 19 20  1  0  0  0  0
 21 23  1  0  0  0  0
 23 24  1  0  0  0  0
 23 27  1  0  0  0  0
 24 25  1  0  0  0  0
 25 22  1  0  0  0  0
 26 22  1  0  0  0  0
 27 26  1  0  0  0  0
M  END
>  <MODEL>
9

>  <REMARK>
 VINA RESULT:      -4.5      2.148      7.465
  Name = 
  4 active torsions:
  status: ('A' for Active; 'I' for Inactive)
    1  A    between atoms: C_1  and  N_15
    2  A    between atoms: C_9  and  N_15
    3  A    between atoms: C_14  and  C_19
    4  A    between atoms: C_17  and  C_21
                            x       y       z     vdW  Elec       q    Type
                         _______ _______ _______ _____ _____    ______ ____

>  <TORSDO>
F 4

$$$$
