=
 OpenBabel11052423053D

 28 30  0  0  1  0  0  0  0  0999 V2000
  156.8050  212.3380  154.6760 C   0  0  0  0  0  2  0  0  0  0  0  0
  158.5930  214.4520  153.4410 C   0  0  0  0  0  1  0  0  0  0  0  0
  158.6290  212.9790  153.0330 C   0  0  1  0  0  0  0  0  0  0  0  0
  158.4910  212.0240  157.2150 O   0  0  0  0  0  0  0  0  0  0  0  0
  160.2630  214.3960  150.8140 O   0  0  0  0  0  1  0  0  0  0  0  0
  157.6760  212.7600  152.0170 O   0  0  0  0  0  0  0  0  0  0  0  0
  160.3380  211.1990  152.4140 C   0  0  0  0  0  2  0  0  0  0  0  0
  160.2150  210.5740  153.7900 C   0  0  1  0  0  3  0  0  0  0  0  0
  160.0050  212.6850  152.4340 C   0  0  1  0  0  3  0  0  0  0  0  0
  160.3640  210.6950  157.1830 O   0  0  0  0  0  0  0  0  0  0  0  0
  158.7680  210.6790  154.2880 C   0  0  1  0  0  3  0  0  0  0  0  0
  157.0650  212.1600  157.2220 C   0  0  0  0  0  2  0  0  0  0  0  0
  158.6500  210.0190  155.6770 C   0  0  0  0  0  2  0  0  0  0  0  0
  159.1960  210.9000  156.7610 C   0  0  0  0  0  0  0  0  0  0  0  0
  159.8230  213.0850  151.0000 C   0  0  1  0  0  3  0  0  0  0  0  0
  156.3680  211.6420  155.9620 C   0  0  0  0  0  2  0  0  0  0  0  0
  158.2910  212.1570  154.3030 C   0  0  2  0  0  3  0  0  0  0  0  0
  158.3220  213.0170  150.7880 C   0  0  0  0  0  2  0  0  0  0  0  0
  160.7300  209.1230  153.7850 C   0  0  2  0  0  3  0  0  0  0  0  0
  161.4910  207.9930  155.5320 C   0  0  0  0  0  1  0  0  0  0  0  0
  161.8450  208.9860  154.6180 O   0  0  0  0  0  0  0  0  0  0  0  0
  161.0070  208.5700  152.3780 C   0  0  2  0  0  3  0  0  0  0  0  0
  161.0310  207.1030  152.4130 C   0  0  0  0  0  0  0  0  0  0  0  0
  161.0520  205.8980  152.4430 C   0  0  0  0  0  0  0  0  0  0  0  0
  161.0770  204.4360  152.4790 C   0  0  0  0  0  1  0  0  0  0  0  0
  162.2220  209.0520  151.8780 O   0  0  0  0  0  0  0  0  0  0  0  0
  162.2350  208.6710  150.5340 C   0  0  0  0  0  2  0  0  0  0  0  0
  162.1050  209.8030  149.7300 O   0  0  0  0  0  1  0  0  0  0  0  0
  1 16  1  0  0  0  0
  3  2  1  1  0  0  0
  3 17  1  0  0  0  0
  4 12  1  0  0  0  0
  6  3  1  0  0  0  0
  7  8  1  0  0  0  0
  8 19  1  6  0  0  0
  8 11  1  0  0  0  0
  9  7  1  6  0  0  0
  9  3  1  0  0  0  0
 11 17  1  0  0  0  0
 11 13  1  1  0  0  0
 13 14  1  0  0  0  0
 14 10  2  0  0  0  0
 14  4  1  0  0  0  0
 15  5  1  1  0  0  0
 15  9  1  0  0  0  0
 16 12  1  0  0  0  0
 17  1  1  6  0  0  0
 18 15  1  0  0  0  0
 18  6  1  0  0  0  0
 19 21  1  1  0  0  0
 21 20  1  0  0  0  0
 22 23  1  1  0  0  0
 22 19  1  0  0  0  0
 23 24  3  0  0  0  0
 24 25  1  0  0  0  0
 26 22  1  0  0  0  0
 27 26  1  0  0  0  0
 28 27  1  0  0  0  0
M  END
>  <MODEL>
1

>  <REMARK>
 VINA RESULT:      -5.2      0.000      0.000
  Name = 
  6 active torsions:
  status: ('A' for Active; 'I' for Inactive)
    1  A    between atoms: C_9  and  C_12
    2  A    between atoms: C_9  and  C_13
    3  A    between atoms: C_9  and  O_14
    4  A    between atoms: C_10  and  C_13
    5  A    between atoms: C_13  and  O_24
    6  A    between atoms: O_14  and  C_18
                            x       y       z     vdW  Elec       q    Type
                         _______ _______ _______ _____ _____    ______ ____

>  <TORSDO>
F 6

$$$$
=
 OpenBabel11052423053D

 28 30  0  0  1  0  0  0  0  0999 V2000
  158.3860  213.4130  151.3950 C   0  0  0  0  0  2  0  0  0  0  0  0
  160.9220  214.4530  150.1000 C   0  0  0  0  0  1  0  0  0  0  0  0
  160.4930  212.9860  150.0480 C   0  0  1  0  0  0  0  0  0  0  0  0
  159.5600  213.3210  154.2240 O   0  0  0  0  0  0  0  0  0  0  0  0
  162.7570  213.1640  147.9390 O   0  0  0  0  0  1  0  0  0  0  0  0
  159.6460  212.7940  148.9380 O   0  0  0  0  0  0  0  0  0  0  0  0
  161.5420  210.6730  150.1990 C   0  0  0  0  0  2  0  0  0  0  0  0
  161.0550  210.5240  151.6270 C   0  0  1  0  0  3  0  0  0  0  0  0
  161.7420  212.1340  149.8180 C   0  0  1  0  0  3  0  0  0  0  0  0
  160.8500  211.5330  154.8660 O   0  0  0  0  0  0  0  0  0  0  0  0
  159.6860  211.1980  151.7900 C   0  0  1  0  0  3  0  0  0  0  0  0
  158.2770  213.8800  153.9150 C   0  0  0  0  0  2  0  0  0  0  0  0
  159.1910  211.0180  153.2390 C   0  0  0  0  0  2  0  0  0  0  0  0
  159.8800  211.9570  154.1850 C   0  0  0  0  0  0  0  0  0  0  0  0
  161.8740  212.1550  148.3240 C   0  0  1  0  0  3  0  0  0  0  0  0
  157.5920  213.2700  152.6910 C   0  0  0  0  0  2  0  0  0  0  0  0
  159.7500  212.6940  151.3770 C   0  0  2  0  0  3  0  0  0  0  0  0
  160.4750  212.4900  147.8370 C   0  0  0  0  0  2  0  0  0  0  0  0
  161.0340  209.0430  152.0510 C   0  0  2  0  0  3  0  0  0  0  0  0
  161.2070  208.2930  154.1290 C   0  0  0  0  0  1  0  0  0  0  0  0
  161.9610  208.8030  153.0710 O   0  0  0  0  0  0  0  0  0  0  0  0
  161.2170  208.0630  150.8820 C   0  0  2  0  0  3  0  0  0  0  0  0
  161.1280  206.6810  151.3690 C   0  0  0  0  0  0  0  0  0  0  0  0
  161.0550  205.5460  151.7670 C   0  0  0  0  0  0  0  0  0  0  0  0
  160.9650  204.1680  152.2510 C   0  0  0  0  0  1  0  0  0  0  0  0
  162.4470  208.2620  150.2460 O   0  0  0  0  0  0  0  0  0  0  0  0
  162.4260  207.4030  149.1440 C   0  0  0  0  0  2  0  0  0  0  0  0
  161.5780  207.9220  148.1670 O   0  0  0  0  0  1  0  0  0  0  0  0
  1 16  1  0  0  0  0
  3  2  1  1  0  0  0
  3 17  1  0  0  0  0
  6  3  1  0  0  0  0
  7  8  1  0  0  0  0
  8 11  1  0  0  0  0
  8 19  1  6  0  0  0
  9  3  1  0  0  0  0
  9  7  1  6  0  0  0
 11 13  1  1  0  0  0
 12  4  1  0  0  0  0
 13 14  1  0  0  0  0
 14  4  1  0  0  0  0
 14 10  2  0  0  0  0
 15  5  1  1  0  0  0
 15  9  1  0  0  0  0
 16 12  1  0  0  0  0
 17  1  1  6  0  0  0
 17 11  1  0  0  0  0
 18 15  1  0  0  0  0
 18  6  1  0  0  0  0
 19 21  1  1  0  0  0
 21 20  1  0  0  0  0
 22 23  1  1  0  0  0
 22 19  1  0  0  0  0
 23 24  3  0  0  0  0
 24 25  1  0  0  0  0
 26 22  1  0  0  0  0
 27 26  1  0  0  0  0
 28 27  1  0  0  0  0
M  END
>  <MODEL>
2

>  <REMARK>
 VINA RESULT:      -4.0      1.943      2.855
  Name = 
  6 active torsions:
  status: ('A' for Active; 'I' for Inactive)
    1  A    between atoms: C_9  and  C_12
    2  A    between atoms: C_9  and  C_13
    3  A    between atoms: C_9  and  O_14
    4  A    between atoms: C_10  and  C_13
    5  A    between atoms: C_13  and  O_24
    6  A    between atoms: O_14  and  C_18
                            x       y       z     vdW  Elec       q    Type
                         _______ _______ _______ _____ _____    ______ ____

>  <TORSDO>
F 6

$$$$
=
 OpenBabel11052423053D

 28 30  0  0  1  0  0  0  0  0999 V2000
  160.3600  203.0460  146.0700 C   0  0  0  0  0  2  0  0  0  0  0  0
  161.6640  201.0290  147.9190 C   0  0  0  0  0  1  0  0  0  0  0  0
  160.8740  202.2390  148.4190 C   0  0  1  0  0  0  0  0  0  0  0  0
  162.9550  204.5630  145.4700 O   0  0  0  0  0  0  0  0  0  0  0  0
  161.2040  200.4810  150.9500 O   0  0  0  0  0  1  0  0  0  0  0  0
  159.5110  201.8920  148.5090 O   0  0  0  0  0  0  0  0  0  0  0  0
  161.0010  203.9850  150.2650 C   0  0  0  0  0  2  0  0  0  0  0  0
  161.5110  205.0180  149.2800 C   0  0  1  0  0  3  0  0  0  0  0  0
  161.3530  202.5670  149.8340 C   0  0  1  0  0  3  0  0  0  0  0  0
  163.7250  206.1360  146.9560 O   0  0  0  0  0  0  0  0  0  0  0  0
  160.8490  204.8130  147.9110 C   0  0  1  0  0  3  0  0  0  0  0  0
  162.0210  204.1590  144.4620 C   0  0  0  0  0  2  0  0  0  0  0  0
  161.3580  205.8840  146.9250 C   0  0  0  0  0  2  0  0  0  0  0  0
  162.7360  205.5690  146.4220 C   0  0  0  0  0  0  0  0  0  0  0  0
  160.5080  201.6590  150.6770 C   0  0  1  0  0  3  0  0  0  0  0  0
  160.5710  204.0510  144.9400 C   0  0  0  0  0  2  0  0  0  0  0  0
  161.0960  203.3730  147.3850 C   0  0  2  0  0  3  0  0  0  0  0  0
  159.3100  201.3500  149.7980 C   0  0  0  0  0  2  0  0  0  0  0  0
  161.3070  206.4450  149.8230 C   0  0  2  0  0  3  0  0  0  0  0  0
  161.6490  208.3470  148.7370 C   0  0  0  0  0  1  0  0  0  0  0  0
  162.3190  207.3000  149.3730 O   0  0  0  0  0  0  0  0  0  0  0  0
  161.1540  206.5110  151.3500 C   0  0  2  0  0  3  0  0  0  0  0  0
  160.8270  207.8800  151.7620 C   0  0  0  0  0  0  0  0  0  0  0  0
  160.5600  209.0060  152.1020 C   0  0  0  0  0  0  0  0  0  0  0  0
  160.2350  210.3710  152.5150 C   0  0  0  0  0  1  0  0  0  0  0  0
  162.3240  206.0900  151.9910 O   0  0  0  0  0  0  0  0  0  0  0  0
  161.9810  205.9960  153.3420 C   0  0  0  0  0  2  0  0  0  0  0  0
  161.0750  204.9510  153.5190 O   0  0  0  0  0  1  0  0  0  0  0  0
  3  2  1  6  0  0  0
  3  6  1  0  0  0  0
  3  9  1  0  0  0  0
  4 14  1  0  0  0  0
  6 18  1  0  0  0  0
  8 19  1  1  0  0  0
  8  7  1  0  0  0  0
  9  7  1  1  0  0  0
  9 15  1  0  0  0  0
 11 13  1  6  0  0  0
 11  8  1  0  0  0  0
 12 16  1  0  0  0  0
 12  4  1  0  0  0  0
 14 13  1  0  0  0  0
 14 10  2  0  0  0  0
 15  5  1  6  0  0  0
 16  1  1  0  0  0  0
 17  1  1  6  0  0  0
 17 11  1  0  0  0  0
 17  3  1  0  0  0  0
 18 15  1  0  0  0  0
 19 21  1  1  0  0  0
 19 22  1  0  0  0  0
 20 21  1  0  0  0  0
 22 23  1  6  0  0  0
 22 26  1  0  0  0  0
 23 24  3  0  0  0  0
 24 25  1  0  0  0  0
 26 27  1  0  0  0  0
 27 28  1  0  0  0  0
M  END
>  <MODEL>
3

>  <REMARK>
 VINA RESULT:      -3.7      4.737     10.050
  Name = 
  6 active torsions:
  status: ('A' for Active; 'I' for Inactive)
    1  A    between atoms: C_9  and  C_12
    2  A    between atoms: C_9  and  C_13
    3  A    between atoms: C_9  and  O_14
    4  A    between atoms: C_10  and  C_13
    5  A    between atoms: C_13  and  O_24
    6  A    between atoms: O_14  and  C_18
                            x       y       z     vdW  Elec       q    Type
                         _______ _______ _______ _____ _____    ______ ____

>  <TORSDO>
F 6

$$$$
=
 OpenBabel11052423053D

 28 30  0  0  1  0  0  0  0  0999 V2000
  160.6650  207.8340  153.6420 C   0  0  0  0  0  2  0  0  0  0  0  0
  162.0410  209.5000  155.7690 C   0  0  0  0  0  1  0  0  0  0  0  0
  160.8400  209.9930  154.9620 C   0  0  1  0  0  0  0  0  0  0  0  0
  162.7690  208.3840  151.4820 O   0  0  0  0  0  0  0  0  0  0  0  0
  161.0790  212.0580  157.2610 O   0  0  0  0  0  1  0  0  0  0  0  0
  159.6550  209.5940  155.6120 O   0  0  0  0  0  0  0  0  0  0  0  0
  160.0240  212.1290  153.8450 C   0  0  0  0  0  2  0  0  0  0  0  0
  160.4220  211.5920  152.4840 C   0  0  1  0  0  3  0  0  0  0  0  0
  160.8640  211.5220  154.9610 C   0  0  1  0  0  3  0  0  0  0  0  0
  162.6840  210.3380  150.2790 O   0  0  0  0  0  0  0  0  0  0  0  0
  160.1810  210.0780  152.4240 C   0  0  1  0  0  3  0  0  0  0  0  0
  162.2510  207.0800  151.7710 C   0  0  0  0  0  2  0  0  0  0  0  0
  160.5670  209.5490  151.0280 C   0  0  0  0  0  2  0  0  0  0  0  0
  162.0540  209.4230  150.8700 C   0  0  0  0  0  0  0  0  0  0  0  0
  160.1510  211.8550  156.2390 C   0  0  1  0  0  3  0  0  0  0  0  0
  160.8270  207.0680  152.3320 C   0  0  0  0  0  2  0  0  0  0  0  0
  160.9520  209.3470  153.5570 C   0  0  2  0  0  3  0  0  0  0  0  0
  159.3310  210.6130  156.5360 C   0  0  0  0  0  2  0  0  0  0  0  0
  159.6910  212.3480  151.3580 C   0  0  2  0  0  3  0  0  0  0  0  0
  160.8110  212.9780  149.5530 C   0  0  0  0  0  1  0  0  0  0  0  0
  160.4880  213.3790  150.8500 O   0  0  0  0  0  0  0  0  0  0  0  0
  158.2980  212.8580  151.7580 C   0  0  2  0  0  3  0  0  0  0  0  0
  157.5670  213.3030  150.5660 C   0  0  0  0  0  0  0  0  0  0  0  0
  156.9680  213.6680  149.5860 C   0  0  0  0  0  0  0  0  0  0  0  0
  156.2400  214.1120  148.3970 C   0  0  0  0  0  1  0  0  0  0  0  0
  158.3930  213.9100  152.6760 O   0  0  0  0  0  0  0  0  0  0  0  0
  157.0780  214.1510  153.0830 C   0  0  0  0  0  2  0  0  0  0  0  0
  156.8370  213.4940  154.2890 O   0  0  0  0  0  1  0  0  0  0  0  0
  3  6  1  0  0  0  0
  3  2  1  1  0  0  0
  4 12  1  0  0  0  0
  6 18  1  0  0  0  0
  8 19  1  6  0  0  0
  8  7  1  0  0  0  0
  9  7  1  6  0  0  0
  9  3  1  0  0  0  0
  9 15  1  0  0  0  0
 10 14  2  0  0  0  0
 11 13  1  6  0  0  0
 11  8  1  0  0  0  0
 11 17  1  0  0  0  0
 12 16  1  0  0  0  0
 14 13  1  0  0  0  0
 14  4  1  0  0  0  0
 15 18  1  0  0  0  0
 15  5  1  1  0  0  0
 16  1  1  0  0  0  0
 17  1  1  1  0  0  0
 17  3  1  0  0  0  0
 19 21  1  1  0  0  0
 19 22  1  0  0  0  0
 20 21  1  0  0  0  0
 22 23  1  6  0  0  0
 22 26  1  0  0  0  0
 24 23  3  0  0  0  0
 25 24  1  0  0  0  0
 26 27  1  0  0  0  0
 27 28  1  0  0  0  0
M  END
>  <MODEL>
4

>  <REMARK>
 VINA RESULT:      -3.6      1.653      6.481
  Name = 
  6 active torsions:
  status: ('A' for Active; 'I' for Inactive)
    1  A    between atoms: C_9  and  C_12
    2  A    between atoms: C_9  and  C_13
    3  A    between atoms: C_9  and  O_14
    4  A    between atoms: C_10  and  C_13
    5  A    between atoms: C_13  and  O_24
    6  A    between atoms: O_14  and  C_18
                            x       y       z     vdW  Elec       q    Type
                         _______ _______ _______ _____ _____    ______ ____

>  <TORSDO>
F 6

$$$$
=
 OpenBabel11052423053D

 28 30  0  0  1  0  0  0  0  0999 V2000
  160.3090  204.8050  147.5540 C   0  0  0  0  0  2  0  0  0  0  0  0
  161.9560  202.7870  149.1040 C   0  0  0  0  0  1  0  0  0  0  0  0
  161.1490  203.9020  149.7700 C   0  0  1  0  0  0  0  0  0  0  0  0
  162.7060  206.5470  146.7690 O   0  0  0  0  0  0  0  0  0  0  0  0
  161.8940  202.0280  152.1230 O   0  0  0  0  0  1  0  0  0  0  0  0
  159.8330  203.4480  149.9900 O   0  0  0  0  0  0  0  0  0  0  0  0
  161.3720  205.5400  151.7040 C   0  0  0  0  0  2  0  0  0  0  0  0
  161.6910  206.6660  150.7390 C   0  0  1  0  0  3  0  0  0  0  0  0
  161.7670  204.1820  151.1410 C   0  0  1  0  0  3  0  0  0  0  0  0
  163.5360  208.0830  148.2610 O   0  0  0  0  0  0  0  0  0  0  0  0
  160.8890  206.4920  149.4430 C   0  0  1  0  0  3  0  0  0  0  0  0
  161.6900  206.1340  145.8470 C   0  0  0  0  0  2  0  0  0  0  0  0
  161.2050  207.6550  148.4800 C   0  0  0  0  0  2  0  0  0  0  0  0
  162.5320  207.4760  147.8050 C   0  0  0  0  0  0  0  0  0  0  0  0
  161.0910  203.1640  152.0110 C   0  0  1  0  0  3  0  0  0  0  0  0
  160.3170  205.8880  146.4770 C   0  0  0  0  0  2  0  0  0  0  0  0
  161.1700  205.1080  148.7960 C   0  0  2  0  0  3  0  0  0  0  0  0
  159.8220  202.8180  151.2530 C   0  0  0  0  0  2  0  0  0  0  0  0
  161.4560  208.0390  151.3960 C   0  0  2  0  0  3  0  0  0  0  0  0
  162.3310  209.9960  150.8340 C   0  0  0  0  0  1  0  0  0  0  0  0
  162.6420  208.7790  151.4440 O   0  0  0  0  0  0  0  0  0  0  0  0
  160.7870  207.9580  152.7770 C   0  0  2  0  0  3  0  0  0  0  0  0
  160.1940  209.2540  153.1230 C   0  0  0  0  0  0  0  0  0  0  0  0
  159.7060  210.3190  153.4080 C   0  0  0  0  0  0  0  0  0  0  0  0
  159.1130  211.6110  153.7540 C   0  0  0  0  0  1  0  0  0  0  0  0
  161.7080  207.5800  153.7600 O   0  0  0  0  0  0  0  0  0  0  0  0
  160.9370  207.3290  154.8980 C   0  0  0  0  0  2  0  0  0  0  0  0
  161.5800  207.8510  156.0200 O   0  0  0  0  0  1  0  0  0  0  0  0
  3  2  1  6  0  0  0
  3  6  1  0  0  0  0
  3  9  1  0  0  0  0
  4 14  1  0  0  0  0
  6 18  1  0  0  0  0
  8 19  1  1  0  0  0
  8  7  1  0  0  0  0
  9  7  1  1  0  0  0
  9 15  1  0  0  0  0
 11 13  1  6  0  0  0
 11  8  1  0  0  0  0
 12 16  1  0  0  0  0
 12  4  1  0  0  0  0
 14 10  2  0  0  0  0
 14 13  1  0  0  0  0
 15  5  1  6  0  0  0
 16  1  1  0  0  0  0
 17  1  1  6  0  0  0
 17 11  1  0  0  0  0
 17  3  1  0  0  0  0
 18 15  1  0  0  0  0
 19 21  1  1  0  0  0
 19 22  1  0  0  0  0
 20 21  1  0  0  0  0
 22 23  1  1  0  0  0
 22 26  1  0  0  0  0
 23 24  3  0  0  0  0
 24 25  1  0  0  0  0
 26 27  1  0  0  0  0
 27 28  1  0  0  0  0
M  END
>  <MODEL>
5

>  <REMARK>
 VINA RESULT:      -3.6      3.197      8.590
  Name = 
  6 active torsions:
  status: ('A' for Active; 'I' for Inactive)
    1  A    between atoms: C_9  and  C_12
    2  A    between atoms: C_9  and  C_13
    3  A    between atoms: C_9  and  O_14
    4  A    between atoms: C_10  and  C_13
    5  A    between atoms: C_13  and  O_24
    6  A    between atoms: O_14  and  C_18
                            x       y       z     vdW  Elec       q    Type
                         _______ _______ _______ _____ _____    ______ ____

>  <TORSDO>
F 6

$$$$
=
 OpenBabel11052423053D

 28 30  0  0  1  0  0  0  0  0999 V2000
  160.3730  206.9400  154.6910 C   0  0  0  0  0  2  0  0  0  0  0  0
  162.2750  208.5110  156.4530 C   0  0  0  0  0  1  0  0  0  0  0  0
  161.2960  209.1680  155.4780 C   0  0  1  0  0  0  0  0  0  0  0  0
  162.4940  206.2160  152.6010 O   0  0  0  0  0  0  0  0  0  0  0  0
  162.2690  211.5240  157.2410 O   0  0  0  0  0  1  0  0  0  0  0  0
  160.0590  209.3570  156.1270 O   0  0  0  0  0  0  0  0  0  0  0  0
  161.2320  211.1160  153.8430 C   0  0  0  0  0  2  0  0  0  0  0  0
  161.3960  210.1650  152.6740 C   0  0  1  0  0  3  0  0  0  0  0  0
  161.8380  210.5530  155.1210 C   0  0  1  0  0  3  0  0  0  0  0  0
  163.0530  207.7340  150.9710 O   0  0  0  0  0  0  0  0  0  0  0  0
  160.6550  208.8520  152.9540 C   0  0  1  0  0  3  0  0  0  0  0  0
  161.5690  205.2710  153.1540 C   0  0  0  0  0  2  0  0  0  0  0  0
  160.8100  207.9030  151.7480 C   0  0  0  0  0  2  0  0  0  0  0  0
  162.1610  207.2540  151.7190 C   0  0  0  0  0  0  0  0  0  0  0  0
  161.3070  211.4020  156.2380 C   0  0  1  0  0  3  0  0  0  0  0  0
  160.2380  205.8710  153.6100 C   0  0  0  0  0  2  0  0  0  0  0  0
  161.1540  208.2020  154.2740 C   0  0  2  0  0  3  0  0  0  0  0  0
  160.1200  210.6170  156.7640 C   0  0  0  0  0  2  0  0  0  0  0  0
  160.9430  210.8260  151.3580 C   0  0  2  0  0  3  0  0  0  0  0  0
  161.5690  210.2460  149.3130 C   0  0  0  0  0  1  0  0  0  0  0  0
  162.0070  210.9200  150.4540 O   0  0  0  0  0  0  0  0  0  0  0  0
  160.2500  212.1830  151.5540 C   0  0  2  0  0  3  0  0  0  0  0  0
  159.1100  212.0360  152.4660 C   0  0  0  0  0  0  0  0  0  0  0  0
  158.1730  211.9170  153.2150 C   0  0  0  0  0  0  0  0  0  0  0  0
  157.0370  211.7720  154.1250 C   0  0  0  0  0  1  0  0  0  0  0  0
  159.8140  212.7060  150.3310 O   0  0  0  0  0  0  0  0  0  0  0  0
  160.4560  213.9410  150.2190 C   0  0  0  0  0  2  0  0  0  0  0  0
  161.3730  213.8950  149.1700 O   0  0  0  0  0  1  0  0  0  0  0  0
  3  6  1  0  0  0  0
  3  2  1  1  0  0  0
  4 12  1  0  0  0  0
  6 18  1  0  0  0  0
  8 19  1  6  0  0  0
  8 11  1  0  0  0  0
  8  7  1  0  0  0  0
  9  7  1  6  0  0  0
  9  3  1  0  0  0  0
  9 15  1  0  0  0  0
 10 14  2  0  0  0  0
 11 13  1  6  0  0  0
 11 17  1  0  0  0  0
 12 16  1  0  0  0  0
 14 13  1  0  0  0  0
 14  4  1  0  0  0  0
 15 18  1  0  0  0  0
 15  5  1  1  0  0  0
 16  1  1  0  0  0  0
 17  1  1  1  0  0  0
 17  3  1  0  0  0  0
 19 21  1  6  0  0  0
 19 22  1  0  0  0  0
 20 21  1  0  0  0  0
 22 23  1  1  0  0  0
 23 24  3  0  0  0  0
 24 25  1  0  0  0  0
 26 22  1  0  0  0  0
 27 26  1  0  0  0  0
 28 27  1  0  0  0  0
M  END
>  <MODEL>
6

>  <REMARK>
 VINA RESULT:      -3.5      1.751      5.933
  Name = 
  6 active torsions:
  status: ('A' for Active; 'I' for Inactive)
    1  A    between atoms: C_9  and  C_12
    2  A    between atoms: C_9  and  C_13
    3  A    between atoms: C_9  and  O_14
    4  A    between atoms: C_10  and  C_13
    5  A    between atoms: C_13  and  O_24
    6  A    between atoms: O_14  and  C_18
                            x       y       z     vdW  Elec       q    Type
                         _______ _______ _______ _____ _____    ______ ____

>  <TORSDO>
F 6

$$$$
=
 OpenBabel11052423053D

 28 30  0  0  1  0  0  0  0  0999 V2000
  158.2510  214.2280  153.5140 C   0  0  0  0  0  2  0  0  0  0  0  0
  155.7000  212.8420  154.3870 C   0  0  0  0  0  1  0  0  0  0  0  0
  157.0160  212.7450  155.1600 C   0  0  1  0  0  0  0  0  0  0  0  0
  158.9610  212.1450  151.3820 O   0  0  0  0  0  0  0  0  0  0  0  0
  154.9170  211.6060  157.1350 O   0  0  0  0  0  1  0  0  0  0  0  0
  157.0970  213.8240  156.0650 O   0  0  0  0  0  0  0  0  0  0  0  0
  158.3720  211.0090  156.4320 C   0  0  0  0  0  2  0  0  0  0  0  0
  159.3210  210.8620  155.2590 C   0  0  1  0  0  3  0  0  0  0  0  0
  156.9870  211.4600  155.9880 C   0  0  1  0  0  3  0  0  0  0  0  0
  160.0060  210.1940  151.9970 O   0  0  0  0  0  0  0  0  0  0  0  0
  159.5160  212.2170  154.5660 C   0  0  1  0  0  3  0  0  0  0  0  0
  159.0050  213.5590  151.1550 C   0  0  0  0  0  2  0  0  0  0  0  0
  160.5010  212.0590  153.3900 C   0  0  0  0  0  2  0  0  0  0  0  0
  159.8480  211.4270  152.1970 C   0  0  0  0  0  0  0  0  0  0  0  0
  156.2780  211.8980  157.2360 C   0  0  1  0  0  3  0  0  0  0  0  0
  159.2840  214.3980  152.4030 C   0  0  0  0  0  2  0  0  0  0  0  0
  158.1550  212.8100  154.1100 C   0  0  2  0  0  3  0  0  0  0  0  0
  156.4750  213.4030  157.2610 C   0  0  0  0  0  2  0  0  0  0  0  0
  160.6550  210.2330  155.7030 C   0  0  2  0  0  3  0  0  0  0  0  0
  162.7860  210.8200  155.8630 C   0  0  0  0  0  1  0  0  0  0  0  0
  161.7230  210.7490  154.9610 O   0  0  0  0  0  0  0  0  0  0  0  0
  160.6500  208.6970  155.6870 C   0  0  2  0  0  3  0  0  0  0  0  0
  160.9980  208.2090  154.3480 C   0  0  0  0  0  0  0  0  0  0  0  0
  161.2840  207.8060  153.2480 C   0  0  0  0  0  0  0  0  0  0  0  0
  161.6320  207.3180  151.9140 C   0  0  0  0  0  1  0  0  0  0  0  0
  159.3990  208.1940  156.0640 O   0  0  0  0  0  0  0  0  0  0  0  0
  159.6640  206.9240  156.5830 C   0  0  0  0  0  2  0  0  0  0  0  0
  160.8820  206.9430  157.2600 O   0  0  0  0  0  1  0  0  0  0  0  0
  3  2  1  6  0  0  0
  3  9  1  0  0  0  0
  3  6  1  0  0  0  0
  4 14  1  0  0  0  0
  6 18  1  0  0  0  0
  8 19  1  1  0  0  0
  8  7  1  0  0  0  0
  9  7  1  1  0  0  0
  9 15  1  0  0  0  0
 10 14  2  0  0  0  0
 11 13  1  6  0  0  0
 11  8  1  0  0  0  0
 12  4  1  0  0  0  0
 12 16  1  0  0  0  0
 14 13  1  0  0  0  0
 15  5  1  6  0  0  0
 15 18  1  0  0  0  0
 16  1  1  0  0  0  0
 17  1  1  1  0  0  0
 17 11  1  0  0  0  0
 17  3  1  0  0  0  0
 19 21  1  6  0  0  0
 21 20  1  0  0  0  0
 22 23  1  6  0  0  0
 22 19  1  0  0  0  0
 22 26  1  0  0  0  0
 24 23  3  0  0  0  0
 25 24  1  0  0  0  0
 26 27  1  0  0  0  0
 27 28  1  0  0  0  0
M  END
>  <MODEL>
7

>  <REMARK>
 VINA RESULT:      -3.1      1.783      4.712
  Name = 
  6 active torsions:
  status: ('A' for Active; 'I' for Inactive)
    1  A    between atoms: C_9  and  C_12
    2  A    between atoms: C_9  and  C_13
    3  A    between atoms: C_9  and  O_14
    4  A    between atoms: C_10  and  C_13
    5  A    between atoms: C_13  and  O_24
    6  A    between atoms: O_14  and  C_18
                            x       y       z     vdW  Elec       q    Type
                         _______ _______ _______ _____ _____    ______ ____

>  <TORSDO>
F 6

$$$$
=
 OpenBabel11052423053D

 28 30  0  0  1  0  0  0  0  0999 V2000
  162.2280  205.6800  151.5290 C   0  0  0  0  0  2  0  0  0  0  0  0
  159.8170  203.8810  151.9100 C   0  0  0  0  0  1  0  0  0  0  0  0
  160.9340  203.5880  150.9070 C   0  0  1  0  0  0  0  0  0  0  0  0
  160.7490  207.7300  149.7970 O   0  0  0  0  0  0  0  0  0  0  0  0
  159.3470  200.9300  151.0360 O   0  0  0  0  0  1  0  0  0  0  0  0
  161.9550  202.8640  151.5560 O   0  0  0  0  0  0  0  0  0  0  0  0
  161.2030  202.6950  148.5410 C   0  0  0  0  0  2  0  0  0  0  0  0
  161.4160  204.1000  148.0130 C   0  0  1  0  0  3  0  0  0  0  0  0
  160.3640  202.6870  149.8120 C   0  0  1  0  0  3  0  0  0  0  0  0
  160.4550  207.3280  147.5550 O   0  0  0  0  0  0  0  0  0  0  0  0
  162.1900  204.9370  149.0400 C   0  0  1  0  0  3  0  0  0  0  0  0
  161.5990  208.0850  150.8950 C   0  0  0  0  0  2  0  0  0  0  0  0
  162.4200  206.3560  148.4820 C   0  0  0  0  0  2  0  0  0  0  0  0
  161.1830  207.1990  148.5740 C   0  0  0  0  0  0  0  0  0  0  0  0
  160.5290  201.3180  150.4050 C   0  0  1  0  0  3  0  0  0  0  0  0
  162.7190  207.0830  151.1850 C   0  0  0  0  0  2  0  0  0  0  0  0
  161.4530  204.9610  150.4070 C   0  0  2  0  0  3  0  0  0  0  0  0
  161.6240  201.4960  151.4400 C   0  0  0  0  0  2  0  0  0  0  0  0
  162.1060  204.0740  146.6370 C   0  0  2  0  0  3  0  0  0  0  0  0
  164.2060  204.4410  146.0330 C   0  0  0  0  0  1  0  0  0  0  0  0
  163.0750  205.0790  146.5450 O   0  0  0  0  0  0  0  0  0  0  0  0
  161.1280  204.1260  145.4530 C   0  0  2  0  0  3  0  0  0  0  0  0
  160.5560  202.7960  145.2170 C   0  0  0  0  0  0  0  0  0  0  0  0
  160.0850  201.7030  145.0240 C   0  0  0  0  0  0  0  0  0  0  0  0
  159.5140  200.3770  144.7900 C   0  0  0  0  0  1  0  0  0  0  0  0
  161.7650  204.5810  144.2930 O   0  0  0  0  0  0  0  0  0  0  0  0
  161.1930  205.8290  144.0340 C   0  0  0  0  0  2  0  0  0  0  0  0
  160.1080  206.0290  144.8860 O   0  0  0  0  0  1  0  0  0  0  0  0
  3  6  1  0  0  0  0
  3  2  1  1  0  0  0
  4 12  1  0  0  0  0
  8 19  1  6  0  0  0
  8  7  1  0  0  0  0
  8 11  1  0  0  0  0
  9  7  1  6  0  0  0
  9 15  1  0  0  0  0
  9  3  1  0  0  0  0
 10 14  2  0  0  0  0
 11 13  1  6  0  0  0
 11 17  1  0  0  0  0
 12 16  1  0  0  0  0
 13 14  1  0  0  0  0
 14  4  1  0  0  0  0
 15  5  1  1  0  0  0
 15 18  1  0  0  0  0
 16  1  1  0  0  0  0
 17  3  1  0  0  0  0
 17  1  1  1  0  0  0
 18  6  1  0  0  0  0
 19 21  1  1  0  0  0
 20 21  1  0  0  0  0
 22 23  1  6  0  0  0
 22 19  1  0  0  0  0
 24 23  3  0  0  0  0
 25 24  1  0  0  0  0
 26 22  1  0  0  0  0
 27 26  1  0  0  0  0
 27 28  1  0  0  0  0
M  END
>  <MODEL>
8

>  <REMARK>
 VINA RESULT:      -3.0      5.577      9.523
  Name = 
  6 active torsions:
  status: ('A' for Active; 'I' for Inactive)
    1  A    between atoms: C_9  and  C_12
    2  A    between atoms: C_9  and  C_13
    3  A    between atoms: C_9  and  O_14
    4  A    between atoms: C_10  and  C_13
    5  A    between atoms: C_13  and  O_24
    6  A    between atoms: O_14  and  C_18
                            x       y       z     vdW  Elec       q    Type
                         _______ _______ _______ _____ _____    ______ ____

>  <TORSDO>
F 6

$$$$
=
 OpenBabel11052423053D

 28 30  0  0  1  0  0  0  0  0999 V2000
  162.3730  209.7950  140.1290 C   0  0  0  0  0  2  0  0  0  0  0  0
  163.8980  211.4090  138.0650 C   0  0  0  0  0  1  0  0  0  0  0  0
  162.6350  211.9160  138.7630 C   0  0  1  0  0  0  0  0  0  0  0  0
  160.9360  208.0360  138.0710 O   0  0  0  0  0  0  0  0  0  0  0  0
  163.7930  214.4500  137.4060 O   0  0  0  0  0  1  0  0  0  0  0  0
  163.0000  212.5480  139.9690 O   0  0  0  0  0  0  0  0  0  0  0  0
  160.5290  213.2280  138.2050 C   0  0  0  0  0  2  0  0  0  0  0  0
  159.7160  211.9490  138.1740 C   0  0  1  0  0  3  0  0  0  0  0  0
  161.9930  212.9780  137.8700 C   0  0  1  0  0  3  0  0  0  0  0  0
  159.0540  208.8220  137.0160 O   0  0  0  0  0  0  0  0  0  0  0  0
  160.2350  210.9700  139.2350 C   0  0  1  0  0  3  0  0  0  0  0  0
  161.5790  207.5210  139.2430 C   0  0  0  0  0  2  0  0  0  0  0  0
  159.3860  209.6820  139.2100 C   0  0  0  0  0  2  0  0  0  0  0  0
  159.7550  208.7930  138.0600 C   0  0  0  0  0  0  0  0  0  0  0  0
  162.7260  214.2230  138.2750 C   0  0  1  0  0  3  0  0  0  0  0  0
  161.6300  208.4940  140.4240 C   0  0  0  0  0  2  0  0  0  0  0  0
  161.7450  210.6750  139.0290 C   0  0  2  0  0  3  0  0  0  0  0  0
  163.2570  213.9020  139.6600 C   0  0  0  0  0  2  0  0  0  0  0  0
  158.2130  212.2450  138.3330 C   0  0  2  0  0  3  0  0  0  0  0  0
  156.6340  211.0220  137.3740 C   0  0  0  0  0  1  0  0  0  0  0  0
  157.5360  212.0570  137.1240 O   0  0  0  0  0  0  0  0  0  0  0  0
  157.9160  213.6270  138.9350 C   0  0  2  0  0  3  0  0  0  0  0  0
  158.2650  213.6380  140.3600 C   0  0  0  0  0  0  0  0  0  0  0  0
  158.5540  213.6470  141.5300 C   0  0  0  0  0  0  0  0  0  0  0  0
  158.9040  213.6580  142.9510 C   0  0  0  0  0  1  0  0  0  0  0  0
  156.5670  213.9660  138.7750 O   0  0  0  0  0  0  0  0  0  0  0  0
  155.9960  213.7750  140.0360 C   0  0  0  0  0  2  0  0  0  0  0  0
  154.8340  213.0160  139.9100 O   0  0  0  0  0  1  0  0  0  0  0  0
  1 16  1  0  0  0  0
  3  2  1  6  0  0  0
  3 17  1  0  0  0  0
  3  6  1  0  0  0  0
  4 12  1  0  0  0  0
  8  7  1  0  0  0  0
  8 19  1  1  0  0  0
  8 11  1  0  0  0  0
  9  7  1  1  0  0  0
  9 15  1  0  0  0  0
  9  3  1  0  0  0  0
 10 14  2  0  0  0  0
 11 13  1  6  0  0  0
 12 16  1  0  0  0  0
 14  4  1  0  0  0  0
 14 13  1  0  0  0  0
 15  5  1  6  0  0  0
 15 18  1  0  0  0  0
 17 11  1  0  0  0  0
 17  1  1  1  0  0  0
 18  6  1  0  0  0  0
 19 21  1  6  0  0  0
 19 22  1  0  0  0  0
 21 20  1  0  0  0  0
 22 23  1  1  0  0  0
 23 24  3  0  0  0  0
 24 25  1  0  0  0  0
 26 22  1  0  0  0  0
 26 27  1  0  0  0  0
 28 27  1  0  0  0  0
M  END
>  <MODEL>
9

>  <REMARK>
 VINA RESULT:      -3.0     12.287     15.740
  Name = 
  6 active torsions:
  status: ('A' for Active; 'I' for Inactive)
    1  A    between atoms: C_9  and  C_12
    2  A    between atoms: C_9  and  C_13
    3  A    between atoms: C_9  and  O_14
    4  A    between atoms: C_10  and  C_13
    5  A    between atoms: C_13  and  O_24
    6  A    between atoms: O_14  and  C_18
                            x       y       z     vdW  Elec       q    Type
                         _______ _______ _______ _____ _____    ______ ____

>  <TORSDO>
F 6

$$$$
