=
 OpenBabel11052421453D

 30 32  0  0  1  0  0  0  0  0999 V2000
  161.9010  206.8760  151.0930 C   0  0  1  0  0  3  0  0  0  0  0  0
  162.3050  205.4660  151.5540 C   0  0  1  0  0  3  0  0  0  0  0  0
  160.7430  206.8560  149.6670 S   0  0  0  0  0  0  0  0  0  0  0  0
  161.9340  202.8650  150.1560 C   0  0  1  0  0  3  0  0  0  0  0  0
  161.1350  205.0700  147.6280 C   0  0  2  0  0  3  0  0  0  0  0  0
  162.5320  207.0850  147.7420 O   0  0  0  0  0  1  0  0  0  0  0  0
  161.4680  203.0940  151.5940 C   0  0  2  0  0  3  0  0  0  0  0  0
  161.9120  206.0880  148.4990 C   0  0  1  0  0  3  0  0  0  0  0  0
  161.4610  203.7440  147.9600 O   0  0  0  0  0  0  0  0  0  0  0  0
  160.2430  202.1890  151.6330 C   0  0  0  0  0  2  0  0  0  0  0  0
  161.6990  201.4990  149.9840 O   0  0  0  0  0  0  0  0  0  0  0  0
  163.3350  205.4910  152.6700 C   0  0  0  0  0  1  0  0  0  0  0  0
  161.1280  204.5570  151.9050 C   0  0  0  0  0  2  0  0  0  0  0  0
  160.3300  201.5100  150.2570 C   0  0  2  0  0  3  0  0  0  0  0  0
  159.8000  202.4900  149.2170 C   0  0  0  0  0  2  0  0  0  0  0  0
  160.9090  203.5230  149.2270 C   0  0  1  0  0  3  0  0  0  0  0  0
  161.3080  205.2680  146.1250 C   0  0  0  0  0  2  0  0  0  0  0  0
  160.4170  203.3230  144.8440 C   0  0  0  0  0  1  0  0  0  0  0  0
  161.6600  203.9600  145.4350 C   0  0  0  0  0  2  0  0  0  0  0  0
  161.4460  207.8060  152.2420 C   0  0  2  0  0  3  0  0  0  0  0  0
  160.8770  207.1310  154.5400 C   0  0  0  0  0  2  0  0  0  0  0  0
  160.5460  207.1570  153.2520 C   0  0  0  0  0  3  0  0  0  0  0  0
  160.8700  209.1450  151.7620 C   0  0  2  0  0  3  0  0  0  0  0  0
  161.9250  210.1040  151.3060 C   0  0  0  0  0  3  0  0  0  0  0  0
  162.1200  210.2890  150.1150 O   0  0  0  0  0  0  0  0  0  0  0  0
  159.9990  209.7780  152.8370 C   0  0  0  0  0  2  0  0  0  0  0  0
  160.4500  211.5260  153.0550 S   0  0  0  0  0  0  0  0  0  0  0  0
  160.7230  211.3430  154.8400 C   0  0  0  0  0  3  0  0  0  0  0  0
  159.6030  210.5190  155.4390 C   0  0  0  0  0  1  0  0  0  0  0  0
  162.0430  210.6440  155.0810 C   0  0  0  0  0  1  0  0  0  0  0  0
  1  2  1  0  0  0  0
  1 20  1  1  0  0  0
  2 13  1  0  0  0  0
  2 12  1  1  0  0  0
  3  1  1  0  0  0  0
  4 11  1  6  0  0  0
  4  7  1  0  0  0  0
  5 17  1  6  0  0  0
  5  9  1  0  0  0  0
  5  8  1  0  0  0  0
  7 10  1  6  0  0  0
  7 13  1  0  0  0  0
  8  6  1  6  0  0  0
  8  3  1  0  0  0  0
  9 16  1  0  0  0  0
 11 14  1  0  0  0  0
 14 15  1  6  0  0  0
 14 10  1  0  0  0  0
 16 15  1  6  0  0  0
 16  4  1  0  0  0  0
 18 19  1  0  0  0  0
 19 17  1  0  0  0  0
 20 22  1  6  0  0  0
 22 21  2  0  0  0  0
 23 24  1  1  0  0  0
 23 20  1  0  0  0  0
 23 26  1  0  0  0  0
 25 24  2  0  0  0  0
 26 27  1  0  0  0  0
 27 28  1  0  0  0  0
 28 30  1  0  0  0  0
 28 29  1  0  0  0  0
M  END
>  <MODEL>
1

>  <REMARK>
 VINA RESULT:      -5.0      0.000      0.000
  Name = 
  9 active torsions:
  status: ('A' for Active; 'I' for Inactive)
    1  A    between atoms: C_1  and  C_22
    2  A    between atoms: C_2  and  C_14
    3  A    between atoms: C_3  and  S_28
    4  A    between atoms: C_6  and  C_8
    5  A    between atoms: C_6  and  C_21
    6  A    between atoms: C_14  and  C_20
    7  A    between atoms: C_14  and  C_22
    8  A    between atoms: C_20  and  S_28
    9  A    between atoms: C_22  and  C_29
                            x       y       z     vdW  Elec       q    Type
                         _______ _______ _______ _____ _____    ______ ____

>  <TORSDO>
F 9

$$$$
=
 OpenBabel11052421453D

 30 32  0  0  1  0  0  0  0  0999 V2000
  159.6240  211.9340  153.7960 C   0  0  1  0  0  3  0  0  0  0  0  0
  160.2540  211.5310  155.1390 C   0  0  1  0  0  3  0  0  0  0  0  0
  159.3550  210.5020  152.6760 S   0  0  0  0  0  0  0  0  0  0  0  0
  161.5550  208.9630  155.8980 C   0  0  1  0  0  3  0  0  0  0  0  0
  161.2690  208.5520  152.4870 C   0  0  2  0  0  3  0  0  0  0  0  0
  161.6060  210.6810  151.3100 O   0  0  0  0  0  1  0  0  0  0  0  0
  160.4300  209.5870  156.7250 C   0  0  2  0  0  3  0  0  0  0  0  0
  161.1210  210.0940  152.4820 C   0  0  1  0  0  3  0  0  0  0  0  0
  161.8660  208.0890  153.6720 O   0  0  0  0  0  0  0  0  0  0  0  0
  159.7540  208.3300  157.2610 C   0  0  0  0  0  2  0  0  0  0  0  0
  161.9450  207.8860  156.6960 O   0  0  0  0  0  0  0  0  0  0  0  0
  160.5610  212.7300  156.0210 C   0  0  0  0  0  1  0  0  0  0  0  0
  159.4750  210.4620  155.9050 C   0  0  0  0  0  2  0  0  0  0  0  0
  160.7100  207.2390  156.7510 C   0  0  2  0  0  3  0  0  0  0  0  0
  160.4030  206.9970  155.2780 C   0  0  0  0  0  2  0  0  0  0  0  0
  160.9150  208.2920  154.6790 C   0  0  1  0  0  3  0  0  0  0  0  0
  162.0310  207.9910  151.2890 C   0  0  0  0  0  2  0  0  0  0  0  0
  161.0470  207.3060  149.1020 C   0  0  0  0  0  1  0  0  0  0  0  0
  161.2130  206.9350  150.5630 C   0  0  0  0  0  2  0  0  0  0  0  0
  158.3840  212.8480  153.9330 C   0  0  2  0  0  3  0  0  0  0  0  0
  156.4480  212.2100  155.3130 C   0  0  0  0  0  2  0  0  0  0  0  0
  157.0910  212.1190  154.1520 C   0  0  0  0  0  3  0  0  0  0  0  0
  158.2550  213.8860  152.8100 C   0  0  2  0  0  3  0  0  0  0  0  0
  156.8730  214.4530  152.6960 C   0  0  0  0  0  3  0  0  0  0  0  0
  156.2430  214.3410  151.6570 O   0  0  0  0  0  0  0  0  0  0  0  0
  158.7070  213.3060  151.4790 C   0  0  0  0  0  2  0  0  0  0  0  0
  159.8550  214.4510  150.6570 S   0  0  0  0  0  0  0  0  0  0  0  0
  159.9150  213.4660  149.1340 C   0  0  0  0  0  3  0  0  0  0  0  0
  159.2430  214.2310  148.0130 C   0  0  0  0  0  1  0  0  0  0  0  0
  161.3570  213.1960  148.7620 C   0  0  0  0  0  1  0  0  0  0  0  0
  1 20  1  1  0  0  0
  1  2  1  0  0  0  0
  2 13  1  0  0  0  0
  2 12  1  1  0  0  0
  3  1  1  0  0  0  0
  4 11  1  1  0  0  0
  4  7  1  0  0  0  0
  5 17  1  6  0  0  0
  5  9  1  0  0  0  0
  7 13  1  6  0  0  0
  7 10  1  0  0  0  0
  8  6  1  6  0  0  0
  8  5  1  0  0  0  0
  8  3  1  0  0  0  0
  9 16  1  0  0  0  0
 11 14  1  0  0  0  0
 14 15  1  6  0  0  0
 14 10  1  0  0  0  0
 16 15  1  1  0  0  0
 16  4  1  0  0  0  0
 18 19  1  0  0  0  0
 19 17  1  0  0  0  0
 20 22  1  6  0  0  0
 22 21  2  0  0  0  0
 23 26  1  6  0  0  0
 23 20  1  0  0  0  0
 24 23  1  0  0  0  0
 25 24  2  0  0  0  0
 27 26  1  0  0  0  0
 28 27  1  0  0  0  0
 29 28  1  0  0  0  0
 30 28  1  0  0  0  0
M  END
>  <MODEL>
2

>  <REMARK>
 VINA RESULT:      -4.4      3.683      6.850
  Name = 
  9 active torsions:
  status: ('A' for Active; 'I' for Inactive)
    1  A    between atoms: C_1  and  C_22
    2  A    between atoms: C_2  and  C_14
    3  A    between atoms: C_3  and  S_28
    4  A    between atoms: C_6  and  C_8
    5  A    between atoms: C_6  and  C_21
    6  A    between atoms: C_14  and  C_20
    7  A    between atoms: C_14  and  C_22
    8  A    between atoms: C_20  and  S_28
    9  A    between atoms: C_22  and  C_29
                            x       y       z     vdW  Elec       q    Type
                         _______ _______ _______ _____ _____    ______ ____

>  <TORSDO>
F 9

$$$$
=
 OpenBabel11052421453D

 30 32  0  0  1  0  0  0  0  0999 V2000
  160.9480  204.3550  149.9360 C   0  0  1  0  0  3  0  0  0  0  0  0
  160.6310  205.3670  148.8220 C   0  0  1  0  0  3  0  0  0  0  0  0
  161.7840  202.8440  149.3100 S   0  0  0  0  0  0  0  0  0  0  0  0
  160.6690  204.9720  145.8730 C   0  0  1  0  0  3  0  0  0  0  0  0
  160.9540  201.7120  146.9580 C   0  0  2  0  0  3  0  0  0  0  0  0
  159.6370  201.3430  148.9970 O   0  0  0  0  0  1  0  0  0  0  0  0
  161.4260  206.1120  146.5550 C   0  0  2  0  0  3  0  0  0  0  0  0
  160.3880  202.2800  148.2830 C   0  0  1  0  0  3  0  0  0  0  0  0
  160.6860  202.5610  145.8700 O   0  0  0  0  0  0  0  0  0  0  0  0
  162.6210  206.2470  145.6190 C   0  0  0  0  0  2  0  0  0  0  0  0
  160.8450  205.2700  144.5200 O   0  0  0  0  0  0  0  0  0  0  0  0
  159.8550  206.5690  149.3330 C   0  0  0  0  0  1  0  0  0  0  0  0
  161.8430  205.7960  147.9970 C   0  0  0  0  0  2  0  0  0  0  0  0
  162.2400  205.2560  144.5060 C   0  0  2  0  0  3  0  0  0  0  0  0
  162.5560  203.8500  145.0030 C   0  0  0  0  0  2  0  0  0  0  0  0
  161.4860  203.6920  146.0660 C   0  0  1  0  0  3  0  0  0  0  0  0
  160.4740  200.3010  146.6240 C   0  0  0  0  0  2  0  0  0  0  0  0
  161.2980  198.3350  145.3310 C   0  0  0  0  0  1  0  0  0  0  0  0
  161.6480  199.3640  146.3890 C   0  0  0  0  0  2  0  0  0  0  0  0
  161.6450  204.9760  151.1690 C   0  0  2  0  0  3  0  0  0  0  0  0
  160.6260  203.1680  152.4930 C   0  0  0  0  0  2  0  0  0  0  0  0
  161.3750  204.2670  152.4630 C   0  0  0  0  0  3  0  0  0  0  0  0
  161.4250  206.4890  151.3070 C   0  0  2  0  0  3  0  0  0  0  0  0
  162.6700  207.2840  151.0620 C   0  0  0  0  0  3  0  0  0  0  0  0
  162.6970  208.1390  150.1910 O   0  0  0  0  0  0  0  0  0  0  0  0
  160.8320  206.8300  152.6650 C   0  0  0  0  0  2  0  0  0  0  0  0
  160.8480  208.6300  152.9190 S   0  0  0  0  0  0  0  0  0  0  0  0
  160.9360  208.4810  154.7250 C   0  0  0  0  0  3  0  0  0  0  0  0
  160.0460  209.5290  155.3610 C   0  0  0  0  0  1  0  0  0  0  0  0
  160.4660  207.1050  155.1440 C   0  0  0  0  0  1  0  0  0  0  0  0
  1 20  1  1  0  0  0
  2 12  1  1  0  0  0
  2  1  1  0  0  0  0
  3  1  1  0  0  0  0
  4 11  1  6  0  0  0
  4 16  1  0  0  0  0
  4  7  1  0  0  0  0
  5 17  1  6  0  0  0
  5  8  1  0  0  0  0
  7 10  1  6  0  0  0
  7 13  1  0  0  0  0
  8  6  1  1  0  0  0
  8  3  1  0  0  0  0
  9 16  1  0  0  0  0
  9  5  1  0  0  0  0
 13  2  1  0  0  0  0
 14 11  1  0  0  0  0
 14 15  1  1  0  0  0
 14 10  1  0  0  0  0
 16 15  1  6  0  0  0
 18 19  1  0  0  0  0
 19 17  1  0  0  0  0
 20 23  1  0  0  0  0
 20 22  1  1  0  0  0
 22 21  2  0  0  0  0
 23 24  1  1  0  0  0
 23 26  1  0  0  0  0
 25 24  2  0  0  0  0
 26 27  1  0  0  0  0
 27 28  1  0  0  0  0
 28 30  1  0  0  0  0
 28 29  1  0  0  0  0
M  END
>  <MODEL>
3

>  <REMARK>
 VINA RESULT:      -4.2      2.222      4.405
  Name = 
  9 active torsions:
  status: ('A' for Active; 'I' for Inactive)
    1  A    between atoms: C_1  and  C_22
    2  A    between atoms: C_2  and  C_14
    3  A    between atoms: C_3  and  S_28
    4  A    between atoms: C_6  and  C_8
    5  A    between atoms: C_6  and  C_21
    6  A    between atoms: C_14  and  C_20
    7  A    between atoms: C_14  and  C_22
    8  A    between atoms: C_20  and  S_28
    9  A    between atoms: C_22  and  C_29
                            x       y       z     vdW  Elec       q    Type
                         _______ _______ _______ _____ _____    ______ ____

>  <TORSDO>
F 9

$$$$
=
 OpenBabel11052421453D

 30 32  0  0  1  0  0  0  0  0999 V2000
  161.7390  206.7360  149.9410 C   0  0  1  0  0  3  0  0  0  0  0  0
  162.0710  205.5120  150.8110 C   0  0  1  0  0  3  0  0  0  0  0  0
  160.7440  206.3080  148.4570 S   0  0  0  0  0  0  0  0  0  0  0  0
  161.8190  202.6220  150.1440 C   0  0  1  0  0  3  0  0  0  0  0  0
  161.3310  204.0390  147.0390 C   0  0  2  0  0  3  0  0  0  0  0  0
  162.7350  206.0330  146.7490 O   0  0  0  0  0  1  0  0  0  0  0  0
  161.2020  203.2280  151.4060 C   0  0  2  0  0  3  0  0  0  0  0  0
  162.0220  205.2700  147.6780 C   0  0  1  0  0  3  0  0  0  0  0  0
  161.6010  202.8600  147.7550 O   0  0  0  0  0  0  0  0  0  0  0  0
  159.9680  202.3480  151.5580 C   0  0  0  0  0  2  0  0  0  0  0  0
  161.5860  201.2580  150.3280 O   0  0  0  0  0  0  0  0  0  0  0  0
  162.9730  205.8590  151.9830 C   0  0  0  0  0  1  0  0  0  0  0  0
  160.8500  204.7140  151.2660 C   0  0  0  0  0  2  0  0  0  0  0  0
  160.1960  201.3200  150.4370 C   0  0  2  0  0  3  0  0  0  0  0  0
  159.7950  201.9700  149.1180 C   0  0  0  0  0  2  0  0  0  0  0  0
  160.9110  202.9850  148.9660 C   0  0  1  0  0  3  0  0  0  0  0  0
  161.6710  203.8230  145.5670 C   0  0  0  0  0  2  0  0  0  0  0  0
  161.2310  205.5000  143.7740 C   0  0  0  0  0  1  0  0  0  0  0  0
  160.6130  204.4380  144.6640 C   0  0  0  0  0  2  0  0  0  0  0  0
  161.1740  207.9360  150.7350 C   0  0  2  0  0  3  0  0  0  0  0  0
  162.1020  209.3760  148.9660 C   0  0  0  0  0  2  0  0  0  0  0  0
  161.4220  209.2750  150.1060 C   0  0  0  0  0  3  0  0  0  0  0  0
  161.5670  207.9370  152.2180 C   0  0  2  0  0  3  0  0  0  0  0  0
  160.4910  207.3920  153.1070 C   0  0  0  0  0  3  0  0  0  0  0  0
  160.7790  206.7980  154.1340 O   0  0  0  0  0  0  0  0  0  0  0  0
  161.9800  209.3290  152.6700 C   0  0  0  0  0  2  0  0  0  0  0  0
  160.5440  210.2180  153.3450 S   0  0  0  0  0  0  0  0  0  0  0  0
  161.4730  210.8530  154.7690 C   0  0  0  0  0  3  0  0  0  0  0  0
  160.6120  211.8360  155.5340 C   0  0  0  0  0  1  0  0  0  0  0  0
  161.8530  209.7050  155.6790 C   0  0  0  0  0  1  0  0  0  0  0  0
  1 20  1  1  0  0  0
  1  2  1  0  0  0  0
  2 13  1  0  0  0  0
  2 12  1  1  0  0  0
  3  1  1  0  0  0  0
  4 11  1  1  0  0  0
  4  7  1  0  0  0  0
  5 17  1  6  0  0  0
  5  8  1  0  0  0  0
  5  9  1  0  0  0  0
  7 13  1  6  0  0  0
  7 10  1  0  0  0  0
  8  6  1  6  0  0  0
  8  3  1  0  0  0  0
  9 16  1  0  0  0  0
 11 14  1  0  0  0  0
 14 15  1  6  0  0  0
 14 10  1  0  0  0  0
 16 15  1  6  0  0  0
 16  4  1  0  0  0  0
 18 19  1  0  0  0  0
 19 17  1  0  0  0  0
 20 22  1  6  0  0  0
 20 23  1  0  0  0  0
 21 22  2  0  0  0  0
 23 26  1  1  0  0  0
 23 24  1  0  0  0  0
 24 25  2  0  0  0  0
 26 27  1  0  0  0  0
 27 28  1  0  0  0  0
 28 29  1  0  0  0  0
 28 30  1  0  0  0  0
M  END
>  <MODEL>
4

>  <REMARK>
 VINA RESULT:      -4.0      1.472      2.112
  Name = 
  9 active torsions:
  status: ('A' for Active; 'I' for Inactive)
    1  A    between atoms: C_1  and  C_22
    2  A    between atoms: C_2  and  C_14
    3  A    between atoms: C_3  and  S_28
    4  A    between atoms: C_6  and  C_8
    5  A    between atoms: C_6  and  C_21
    6  A    between atoms: C_14  and  C_20
    7  A    between atoms: C_14  and  C_22
    8  A    between atoms: C_20  and  S_28
    9  A    between atoms: C_22  and  C_29
                            x       y       z     vdW  Elec       q    Type
                         _______ _______ _______ _____ _____    ______ ____

>  <TORSDO>
F 9

$$$$
=
 OpenBabel11052421453D

 30 32  0  0  1  0  0  0  0  0999 V2000
  161.0440  211.0650  153.1400 C   0  0  1  0  0  3  0  0  0  0  0  0
  161.6370  209.9220  153.9800 C   0  0  1  0  0  3  0  0  0  0  0  0
  160.3700  210.4930  151.5300 S   0  0  0  0  0  0  0  0  0  0  0  0
  162.3220  207.1490  153.1420 C   0  0  1  0  0  3  0  0  0  0  0  0
  161.7410  208.6170  150.0770 C   0  0  2  0  0  3  0  0  0  0  0  0
  162.5110  210.9490  150.0560 O   0  0  0  0  0  1  0  0  0  0  0  0
  161.4330  207.4430  154.3520 C   0  0  2  0  0  3  0  0  0  0  0  0
  161.9700  209.9380  150.8550 C   0  0  1  0  0  3  0  0  0  0  0  0
  162.2780  207.5120  150.7590 O   0  0  0  0  0  0  0  0  0  0  0  0
  160.5070  206.2330  154.3110 C   0  0  0  0  0  2  0  0  0  0  0  0
  162.4880  205.7650  153.2270 O   0  0  0  0  0  0  0  0  0  0  0  0
  162.2770  210.4170  155.2660 C   0  0  0  0  0  1  0  0  0  0  0  0
  160.6700  208.7700  154.2460 C   0  0  0  0  0  2  0  0  0  0  0  0
  161.1380  205.4130  153.1750 C   0  0  2  0  0  3  0  0  0  0  0  0
  160.6940  206.0260  151.8520 C   0  0  0  0  0  2  0  0  0  0  0  0
  161.4670  207.3300  151.8850 C   0  0  1  0  0  3  0  0  0  0  0  0
  162.2720  208.6320  148.6460 C   0  0  0  0  0  2  0  0  0  0  0  0
  160.9590  206.6760  147.8280 C   0  0  0  0  0  1  0  0  0  0  0  0
  162.3510  207.2250  148.0760 C   0  0  0  0  0  2  0  0  0  0  0  0
  160.0720  211.9800  153.9220 C   0  0  2  0  0  3  0  0  0  0  0  0
  160.0730  212.7870  156.2480 C   0  0  0  0  0  2  0  0  0  0  0  0
  160.0620  211.7580  155.4060 C   0  0  0  0  0  3  0  0  0  0  0  0
  158.6480  212.0000  153.3510 C   0  0  2  0  0  3  0  0  0  0  0  0
  158.2380  213.3510  152.8510 C   0  0  0  0  0  3  0  0  0  0  0  0
  159.0790  214.1540  152.4790 O   0  0  0  0  0  0  0  0  0  0  0  0
  157.6470  211.4820  154.3730 C   0  0  0  0  0  2  0  0  0  0  0  0
  156.3270  212.7060  154.6290 S   0  0  0  0  0  0  0  0  0  0  0  0
  155.5790  211.7700  155.9930 C   0  0  0  0  0  3  0  0  0  0  0  0
  155.3860  210.3300  155.5690 C   0  0  0  0  0  1  0  0  0  0  0  0
  156.4890  211.8200  157.2000 C   0  0  0  0  0  1  0  0  0  0  0  0
  1 20  1  1  0  0  0
  1  2  1  0  0  0  0
  2 13  1  0  0  0  0
  2 12  1  1  0  0  0
  3  1  1  0  0  0  0
  4 11  1  1  0  0  0
  4  7  1  0  0  0  0
  5 17  1  6  0  0  0
  5  9  1  0  0  0  0
  5  8  1  0  0  0  0
  7 13  1  6  0  0  0
  8  6  1  6  0  0  0
  8  3  1  0  0  0  0
  9 16  1  0  0  0  0
 10  7  1  0  0  0  0
 14 15  1  6  0  0  0
 14 11  1  0  0  0  0
 14 10  1  0  0  0  0
 16 15  1  6  0  0  0
 16  4  1  0  0  0  0
 18 19  1  0  0  0  0
 19 17  1  0  0  0  0
 20 22  1  1  0  0  0
 22 21  2  0  0  0  0
 23 24  1  1  0  0  0
 23 20  1  0  0  0  0
 23 26  1  0  0  0  0
 25 24  2  0  0  0  0
 26 27  1  0  0  0  0
 27 28  1  0  0  0  0
 28 30  1  0  0  0  0
 29 28  1  0  0  0  0
M  END
>  <MODEL>
5

>  <REMARK>
 VINA RESULT:      -3.8      2.819      4.843
  Name = 
  9 active torsions:
  status: ('A' for Active; 'I' for Inactive)
    1  A    between atoms: C_1  and  C_22
    2  A    between atoms: C_2  and  C_14
    3  A    between atoms: C_3  and  S_28
    4  A    between atoms: C_6  and  C_8
    5  A    between atoms: C_6  and  C_21
    6  A    between atoms: C_14  and  C_20
    7  A    between atoms: C_14  and  C_22
    8  A    between atoms: C_20  and  S_28
    9  A    between atoms: C_22  and  C_29
                            x       y       z     vdW  Elec       q    Type
                         _______ _______ _______ _____ _____    ______ ____

>  <TORSDO>
F 9

$$$$
=
 OpenBabel11052421453D

 30 32  0  0  1  0  0  0  0  0999 V2000
  161.5020  207.1540  151.2240 C   0  0  1  0  0  3  0  0  0  0  0  0
  161.9070  205.7970  151.8230 C   0  0  1  0  0  3  0  0  0  0  0  0
  160.6210  206.9920  149.6200 S   0  0  0  0  0  0  0  0  0  0  0  0
  161.9590  203.1210  150.5200 C   0  0  1  0  0  3  0  0  0  0  0  0
  161.4840  205.1570  147.7790 C   0  0  2  0  0  3  0  0  0  0  0  0
  162.7060  207.2720  148.0290 O   0  0  0  0  0  1  0  0  0  0  0  0
  161.2300  203.3740  151.8410 C   0  0  2  0  0  3  0  0  0  0  0  0
  162.0260  206.2640  148.7170 C   0  0  1  0  0  3  0  0  0  0  0  0
  161.8300  203.8730  148.2330 O   0  0  0  0  0  0  0  0  0  0  0  0
  160.0790  202.3850  151.7130 C   0  0  0  0  0  2  0  0  0  0  0  0
  161.8470  201.7360  150.3820 O   0  0  0  0  0  0  0  0  0  0  0  0
  162.7180  205.9430  153.0990 C   0  0  0  0  0  1  0  0  0  0  0  0
  160.7460  204.8200  152.0090 C   0  0  0  0  0  2  0  0  0  0  0  0
  160.4540  201.6590  150.4100 C   0  0  2  0  0  3  0  0  0  0  0  0
  160.0550  202.5540  149.2430 C   0  0  0  0  0  2  0  0  0  0  0  0
  161.0760  203.6650  149.3930 C   0  0  1  0  0  3  0  0  0  0  0  0
  161.9100  205.3070  146.3200 C   0  0  0  0  0  2  0  0  0  0  0  0
  160.7050  203.6600  144.8860 C   0  0  0  0  0  1  0  0  0  0  0  0
  161.9930  203.9540  145.6320 C   0  0  0  0  0  2  0  0  0  0  0  0
  160.7900  208.0940  152.2240 C   0  0  2  0  0  3  0  0  0  0  0  0
  161.8250  210.0280  151.1060 C   0  0  0  0  0  2  0  0  0  0  0  0
  160.8380  209.5490  151.8580 C   0  0  0  0  0  3  0  0  0  0  0  0
  161.2060  207.8740  153.6840 C   0  0  2  0  0  3  0  0  0  0  0  0
  160.0980  207.3290  154.5310 C   0  0  0  0  0  3  0  0  0  0  0  0
  160.2660  206.3190  155.1960 O   0  0  0  0  0  0  0  0  0  0  0  0
  161.7630  209.1530  154.2900 C   0  0  0  0  0  2  0  0  0  0  0  0
  161.4820  209.1670  156.0860 S   0  0  0  0  0  0  0  0  0  0  0  0
  160.5030  210.6940  156.0290 C   0  0  0  0  0  3  0  0  0  0  0  0
  160.8310  211.4550  154.7610 C   0  0  0  0  0  1  0  0  0  0  0  0
  159.0290  210.3520  156.0400 C   0  0  0  0  0  1  0  0  0  0  0  0
  1  2  1  0  0  0  0
  1 20  1  1  0  0  0
  2 13  1  0  0  0  0
  2 12  1  1  0  0  0
  3  1  1  0  0  0  0
  4 11  1  6  0  0  0
  4  7  1  0  0  0  0
  5 17  1  6  0  0  0
  5  9  1  0  0  0  0
  5  8  1  0  0  0  0
  7 10  1  6  0  0  0
  7 13  1  0  0  0  0
  8  6  1  6  0  0  0
  8  3  1  0  0  0  0
  9 16  1  0  0  0  0
 11 14  1  0  0  0  0
 14 15  1  6  0  0  0
 14 10  1  0  0  0  0
 16 15  1  6  0  0  0
 16  4  1  0  0  0  0
 18 19  1  0  0  0  0
 19 17  1  0  0  0  0
 20 22  1  6  0  0  0
 20 23  1  0  0  0  0
 21 22  2  0  0  0  0
 23 26  1  1  0  0  0
 23 24  1  0  0  0  0
 24 25  2  0  0  0  0
 26 27  1  0  0  0  0
 28 30  1  0  0  0  0
 28 27  1  0  0  0  0
 29 28  1  0  0  0  0
M  END
>  <MODEL>
6

>  <REMARK>
 VINA RESULT:      -3.8      1.551      2.171
  Name = 
  9 active torsions:
  status: ('A' for Active; 'I' for Inactive)
    1  A    between atoms: C_1  and  C_22
    2  A    between atoms: C_2  and  C_14
    3  A    between atoms: C_3  and  S_28
    4  A    between atoms: C_6  and  C_8
    5  A    between atoms: C_6  and  C_21
    6  A    between atoms: C_14  and  C_20
    7  A    between atoms: C_14  and  C_22
    8  A    between atoms: C_20  and  S_28
    9  A    between atoms: C_22  and  C_29
                            x       y       z     vdW  Elec       q    Type
                         _______ _______ _______ _____ _____    ______ ____

>  <TORSDO>
F 9

$$$$
=
 OpenBabel11052421453D

 30 32  0  0  1  0  0  0  0  0999 V2000
  160.4070  210.7860  152.7380 C   0  0  1  0  0  3  0  0  0  0  0  0
  159.8410  211.6990  151.6380 C   0  0  1  0  0  3  0  0  0  0  0  0
  161.9610  209.9440  152.2370 S   0  0  0  0  0  0  0  0  0  0  0  0
  160.5770  211.8310  148.7570 C   0  0  1  0  0  3  0  0  0  0  0  0
  162.2010  208.9390  149.7000 C   0  0  2  0  0  3  0  0  0  0  0  0
  160.8930  207.6960  151.3640 O   0  0  0  0  0  1  0  0  0  0  0  0
  160.5610  213.0690  149.6550 C   0  0  2  0  0  3  0  0  0  0  0  0
  161.2110  208.9710  150.8910 C   0  0  1  0  0  3  0  0  0  0  0  0
  161.7520  209.7290  148.6280 O   0  0  0  0  0  0  0  0  0  0  0  0
  161.6860  213.8800  149.0230 C   0  0  0  0  0  2  0  0  0  0  0  0
  160.8210  212.3830  147.4980 O   0  0  0  0  0  0  0  0  0  0  0  0
  158.5080  212.3170  152.0230 C   0  0  0  0  0  1  0  0  0  0  0  0
  160.8210  212.7590  151.1340 C   0  0  0  0  0  2  0  0  0  0  0  0
  162.0290  213.0120  147.8010 C   0  0  2  0  0  3  0  0  0  0  0  0
  162.8900  211.8490  148.2790 C   0  0  0  0  0  2  0  0  0  0  0  0
  161.8620  211.0550  149.0620 C   0  0  1  0  0  3  0  0  0  0  0  0
  162.5260  207.5370  149.1910 C   0  0  0  0  0  2  0  0  0  0  0  0
  160.6560  206.2550  148.1530 C   0  0  0  0  0  1  0  0  0  0  0  0
  161.7830  207.2380  147.8990 C   0  0  0  0  0  2  0  0  0  0  0  0
  160.4920  211.4570  154.1290 C   0  0  2  0  0  3  0  0  0  0  0  0
  162.2560  210.9410  155.7670 C   0  0  0  0  0  2  0  0  0  0  0  0
  161.1020  210.6010  155.2000 C   0  0  0  0  0  3  0  0  0  0  0  0
  159.1700  212.0780  154.5980 C   0  0  2  0  0  3  0  0  0  0  0  0
  159.3640  213.3220  155.4090 C   0  0  0  0  0  3  0  0  0  0  0  0
  159.0060  214.4050  154.9760 O   0  0  0  0  0  0  0  0  0  0  0  0
  158.3360  211.0630  155.3660 C   0  0  0  0  0  2  0  0  0  0  0  0
  157.6340  211.8340  156.8560 S   0  0  0  0  0  0  0  0  0  0  0  0
  155.9480  211.8460  156.1830 C   0  0  0  0  0  3  0  0  0  0  0  0
  155.6990  213.1590  155.4730 C   0  0  0  0  0  1  0  0  0  0  0  0
  155.7860  210.7060  155.2010 C   0  0  0  0  0  1  0  0  0  0  0  0
  1 20  1  1  0  0  0
  2 12  1  1  0  0  0
  2  1  1  0  0  0  0
  3  1  1  0  0  0  0
  4 11  1  6  0  0  0
  4 16  1  0  0  0  0
  4  7  1  0  0  0  0
  5 17  1  6  0  0  0
  5  8  1  0  0  0  0
  7 10  1  6  0  0  0
  7 13  1  0  0  0  0
  8  6  1  1  0  0  0
  8  3  1  0  0  0  0
  9 16  1  0  0  0  0
  9  5  1  0  0  0  0
 11 14  1  0  0  0  0
 13  2  1  0  0  0  0
 14 15  1  1  0  0  0
 14 10  1  0  0  0  0
 16 15  1  6  0  0  0
 19 18  1  0  0  0  0
 19 17  1  0  0  0  0
 20 23  1  0  0  0  0
 20 22  1  1  0  0  0
 22 21  2  0  0  0  0
 23 26  1  1  0  0  0
 23 24  1  0  0  0  0
 25 24  2  0  0  0  0
 26 27  1  0  0  0  0
 28 27  1  0  0  0  0
 29 28  1  0  0  0  0
 30 28  1  0  0  0  0
M  END
>  <MODEL>
7

>  <REMARK>
 VINA RESULT:      -3.7      3.396      6.811
  Name = 
  9 active torsions:
  status: ('A' for Active; 'I' for Inactive)
    1  A    between atoms: C_1  and  C_22
    2  A    between atoms: C_2  and  C_14
    3  A    between atoms: C_3  and  S_28
    4  A    between atoms: C_6  and  C_8
    5  A    between atoms: C_6  and  C_21
    6  A    between atoms: C_14  and  C_20
    7  A    between atoms: C_14  and  C_22
    8  A    between atoms: C_20  and  S_28
    9  A    between atoms: C_22  and  C_29
                            x       y       z     vdW  Elec       q    Type
                         _______ _______ _______ _____ _____    ______ ____

>  <TORSDO>
F 9

$$$$
=
 OpenBabel11052421453D

 30 32  0  0  1  0  0  0  0  0999 V2000
  160.8290  209.5050  153.9390 C   0  0  1  0  0  3  0  0  0  0  0  0
  160.4950  209.8880  152.4880 C   0  0  1  0  0  3  0  0  0  0  0  0
  161.9420  208.0480  154.0550 S   0  0  0  0  0  0  0  0  0  0  0  0
  160.9230  208.3180  149.9960 C   0  0  1  0  0  3  0  0  0  0  0  0
  161.5570  205.9130  152.3830 C   0  0  2  0  0  3  0  0  0  0  0  0
  160.0860  206.1930  154.3290 O   0  0  0  0  0  1  0  0  0  0  0  0
  161.4230  209.7550  150.1550 C   0  0  2  0  0  3  0  0  0  0  0  0
  160.7680  206.8680  153.3130 C   0  0  1  0  0  3  0  0  0  0  0  0
  161.2920  206.1700  151.0270 O   0  0  0  0  0  0  0  0  0  0  0  0
  162.6840  209.7020  149.2990 C   0  0  0  0  0  2  0  0  0  0  0  0
  161.2050  208.0550  148.6540 O   0  0  0  0  0  0  0  0  0  0  0  0
  159.4990  211.0320  152.4030 C   0  0  0  0  0  1  0  0  0  0  0  0
  161.7170  210.1470  151.6080 C   0  0  0  0  0  2  0  0  0  0  0  0
  162.5800  208.2880  148.7040 C   0  0  2  0  0  3  0  0  0  0  0  0
  163.0400  207.2980  149.7670 C   0  0  0  0  0  2  0  0  0  0  0  0
  161.8920  207.4040  150.7510 C   0  0  1  0  0  3  0  0  0  0  0  0
  161.3290  204.4300  152.6670 C   0  0  0  0  0  2  0  0  0  0  0  0
  161.2070  202.4160  151.2010 C   0  0  0  0  0  1  0  0  0  0  0  0
  160.5840  203.7610  151.5230 C   0  0  0  0  0  2  0  0  0  0  0  0
  161.2830  210.6960  154.8140 C   0  0  2  0  0  3  0  0  0  0  0  0
  163.0910  210.7290  156.4860 C   0  0  0  0  0  2  0  0  0  0  0  0
  162.7310  210.6670  155.2070 C   0  0  0  0  0  3  0  0  0  0  0  0
  160.3820  210.9500  156.0300 C   0  0  2  0  0  3  0  0  0  0  0  0
  159.6080  209.7370  156.4460 C   0  0  0  0  0  3  0  0  0  0  0  0
  160.0940  208.9290  157.2220 O   0  0  0  0  0  0  0  0  0  0  0  0
  159.4450  212.1210  155.7770 C   0  0  0  0  0  2  0  0  0  0  0  0
  158.0280  212.0440  156.9140 S   0  0  0  0  0  0  0  0  0  0  0  0
  156.8250  212.4190  155.6080 C   0  0  0  0  0  3  0  0  0  0  0  0
  157.4780  213.2910  154.5570 C   0  0  0  0  0  1  0  0  0  0  0  0
  156.3530  211.1310  154.9690 C   0  0  0  0  0  1  0  0  0  0  0  0
  1  3  1  0  0  0  0
  1 20  1  6  0  0  0
  2 12  1  1  0  0  0
  2  1  1  0  0  0  0
  4 11  1  6  0  0  0
  4  7  1  0  0  0  0
  4 16  1  0  0  0  0
  5 17  1  1  0  0  0
  5  8  1  0  0  0  0
  7 10  1  6  0  0  0
  7 13  1  0  0  0  0
  8  3  1  0  0  0  0
  8  6  1  1  0  0  0
  9  5  1  0  0  0  0
 11 14  1  0  0  0  0
 13  2  1  0  0  0  0
 14 10  1  1  0  0  0
 14 15  1  0  0  0  0
 16 15  1  6  0  0  0
 16  9  1  0  0  0  0
 18 19  1  0  0  0  0
 19 17  1  0  0  0  0
 20 22  1  1  0  0  0
 20 23  1  0  0  0  0
 22 21  2  0  0  0  0
 23 26  1  6  0  0  0
 23 24  1  0  0  0  0
 24 25  2  0  0  0  0
 26 27  1  0  0  0  0
 28 27  1  0  0  0  0
 29 28  1  0  0  0  0
 30 28  1  0  0  0  0
M  END
>  <MODEL>
8

>  <REMARK>
 VINA RESULT:      -3.7      2.744      5.592
  Name = 
  9 active torsions:
  status: ('A' for Active; 'I' for Inactive)
    1  A    between atoms: C_1  and  C_22
    2  A    between atoms: C_2  and  C_14
    3  A    between atoms: C_3  and  S_28
    4  A    between atoms: C_6  and  C_8
    5  A    between atoms: C_6  and  C_21
    6  A    between atoms: C_14  and  C_20
    7  A    between atoms: C_14  and  C_22
    8  A    between atoms: C_20  and  S_28
    9  A    between atoms: C_22  and  C_29
                            x       y       z     vdW  Elec       q    Type
                         _______ _______ _______ _____ _____    ______ ____

>  <TORSDO>
F 9

$$$$
=
 OpenBabel11052421453D

 30 32  0  0  1  0  0  0  0  0999 V2000
  161.7220  205.9520  150.3330 C   0  0  1  0  0  3  0  0  0  0  0  0
  162.4470  207.3070  150.2790 C   0  0  1  0  0  3  0  0  0  0  0  0
  160.3140  205.9420  151.5120 S   0  0  0  0  0  0  0  0  0  0  0  0
  162.2410  209.6110  152.1520 C   0  0  1  0  0  3  0  0  0  0  0  0
  160.5710  207.1820  153.9410 C   0  0  2  0  0  3  0  0  0  0  0  0
  161.5980  204.9780  153.6050 O   0  0  0  0  0  1  0  0  0  0  0  0
  162.0520  209.7640  150.6420 C   0  0  2  0  0  3  0  0  0  0  0  0
  161.3270  206.2090  153.0030 C   0  0  1  0  0  3  0  0  0  0  0  0
  161.1800  208.4480  153.9790 O   0  0  0  0  0  0  0  0  0  0  0  0
  161.0340  210.8980  150.6070 C   0  0  0  0  0  2  0  0  0  0  0  0
  162.2110  210.9370  152.5890 O   0  0  0  0  0  0  0  0  0  0  0  0
  163.6670  207.2790  149.3750 C   0  0  0  0  0  1  0  0  0  0  0  0
  161.5400  208.4930  149.9540 C   0  0  0  0  0  2  0  0  0  0  0  0
  160.9470  211.2670  152.0970 C   0  0  2  0  0  3  0  0  0  0  0  0
  160.0540  210.2400  152.7820 C   0  0  0  0  0  2  0  0  0  0  0  0
  160.9490  209.0180  152.7220 C   0  0  1  0  0  3  0  0  0  0  0  0
  160.3920  206.6680  155.3670 C   0  0  0  0  0  2  0  0  0  0  0  0
  160.6820  208.2640  157.2610 C   0  0  0  0  0  1  0  0  0  0  0  0
  159.7070  207.7050  156.2430 C   0  0  0  0  0  2  0  0  0  0  0  0
  161.3640  205.3760  148.9430 C   0  0  2  0  0  3  0  0  0  0  0  0
  160.6710  206.5820  146.9110 C   0  0  0  0  0  2  0  0  0  0  0  0
  160.3910  206.2030  148.1550 C   0  0  0  0  0  3  0  0  0  0  0  0
  160.9430  203.9010  148.9750 C   0  0  2  0  0  3  0  0  0  0  0  0
  161.2510  203.2340  150.2800 C   0  0  0  0  0  3  0  0  0  0  0  0
  160.5770  202.2930  150.6690 O   0  0  0  0  0  0  0  0  0  0  0  0
  161.5670  203.1330  147.8200 C   0  0  0  0  0  2  0  0  0  0  0  0
  160.5550  201.6760  147.4200 S   0  0  0  0  0  0  0  0  0  0  0  0
  160.8350  201.8400  145.6340 C   0  0  0  0  0  3  0  0  0  0  0  0
  159.6760  201.2190  144.8840 C   0  0  0  0  0  1  0  0  0  0  0  0
  160.9400  203.3060  145.2710 C   0  0  0  0  0  1  0  0  0  0  0  0
  1 20  1  6  0  0  0
  1  3  1  0  0  0  0
  2 12  1  6  0  0  0
  2  1  1  0  0  0  0
  3  8  1  0  0  0  0
  4 11  1  1  0  0  0
  4 16  1  0  0  0  0
  5  9  1  0  0  0  0
  5 17  1  1  0  0  0
  7 13  1  1  0  0  0
  7  4  1  0  0  0  0
  8  6  1  1  0  0  0
  8  5  1  0  0  0  0
 10  7  1  0  0  0  0
 13  2  1  0  0  0  0
 14 10  1  6  0  0  0
 14 11  1  0  0  0  0
 14 15  1  0  0  0  0
 16 15  1  1  0  0  0
 16  9  1  0  0  0  0
 17 19  1  0  0  0  0
 19 18  1  0  0  0  0
 20 22  1  1  0  0  0
 20 23  1  0  0  0  0
 21 22  2  0  0  0  0
 23 26  1  6  0  0  0
 23 24  1  0  0  0  0
 24 25  2  0  0  0  0
 27 26  1  0  0  0  0
 28 27  1  0  0  0  0
 29 28  1  0  0  0  0
 30 28  1  0  0  0  0
M  END
>  <MODEL>
9

>  <REMARK>
 VINA RESULT:      -3.6      2.254      8.307
  Name = 
  9 active torsions:
  status: ('A' for Active; 'I' for Inactive)
    1  A    between atoms: C_1  and  C_22
    2  A    between atoms: C_2  and  C_14
    3  A    between atoms: C_3  and  S_28
    4  A    between atoms: C_6  and  C_8
    5  A    between atoms: C_6  and  C_21
    6  A    between atoms: C_14  and  C_20
    7  A    between atoms: C_14  and  C_22
    8  A    between atoms: C_20  and  S_28
    9  A    between atoms: C_22  and  C_29
                            x       y       z     vdW  Elec       q    Type
                         _______ _______ _______ _____ _____    ______ ____

>  <TORSDO>
F 9

$$$$
