=
 OpenBabel11052422563D

 28 31  0  0  1  0  0  0  0  0999 V2000
  160.6450  208.1280  152.7670 C   0  0  1  0  0  3  0  0  0  0  0  0
  160.5450  203.6790  150.0050 C   0  0  0  0  0  3  0  0  0  0  0  0
  162.4500  209.2710  148.2710 O   0  0  0  0  0  1  0  0  0  0  0  0
  161.7400  204.2360  147.9650 C   0  0  0  0  0  0  0  0  0  0  0  0
  161.3780  206.0220  149.6790 C   0  0  0  0  0  0  0  0  0  0  0  0
  160.8930  201.9900  148.3080 C   0  0  0  0  0  0  0  0  0  0  0  0
  161.2280  204.6230  149.2220 C   0  0  0  0  0  0  0  0  0  0  0  0
  162.3020  206.5790  147.4800 N   0  0  0  0  0  2  0  0  0  0  0  0
  161.5790  202.9190  147.5220 C   0  0  0  0  0  3  0  0  0  0  0  0
  161.5730  208.7180  150.4620 C   0  0  0  0  0  0  0  0  0  0  0  0
  160.9660  206.4180  150.9570 C   0  0  0  0  0  3  0  0  0  0  0  0
  162.5580  205.1820  147.1340 C   0  0  0  0  0  2  0  0  0  0  0  0
  161.6980  210.3890  152.3260 C   0  0  0  0  0  2  0  0  0  0  0  0
  161.9740  208.3260  149.1750 C   0  0  0  0  0  0  0  0  0  0  0  0
  161.5810  210.1790  150.8230 C   0  0  0  0  0  2  0  0  0  0  0  0
  160.7280  200.6550  147.8480 N   0  0  0  0  0  1  0  0  0  0  0  0
  160.3790  202.3690  149.5500 C   0  0  0  0  0  3  0  0  0  0  0  0
  161.8980  206.9790  148.7940 C   0  0  0  0  0  0  0  0  0  0  0  0
  160.5860  209.6380  153.0390 C   0  0  0  0  0  2  0  0  0  0  0  0
  161.0710  207.7530  151.3630 C   0  0  0  0  0  0  0  0  0  0  0  0
  161.3250  207.3040  153.8770 C   0  0  2  0  0  3  0  0  0  0  0  0
  161.6100  206.0020  153.4570 O   0  0  0  0  0  1  0  0  0  0  0  0
  160.6660  207.3280  155.2630 C   0  0  0  0  0  2  0  0  0  0  0  0
  160.5610  209.5740  156.4840 N   0  0  0  0  0  0  0  0  0  0  0  0
  162.3310  208.0780  156.7790 O   0  0  0  0  0  0  0  0  0  0  0  0
  161.2420  208.3410  156.2030 C   0  0  0  0  0  0  0  0  0  0  0  0
  159.1770  209.7800  156.0900 C   0  0  0  0  0  1  0  0  0  0  0  0
  161.2140  210.6150  157.2590 C   0  0  0  0  0  1  0  0  0  0  0  0
  1 19  1  0  0  0  0
  1 21  1  1  0  0  0
  3 14  1  0  0  0  0
  4  7  1  0  0  0  0
  5 11  1  0  0  0  0
  6 17  2  0  0  0  0
  7  5  1  0  0  0  0
  7  2  2  0  0  0  0
  8 18  1  0  0  0  0
  9  4  2  0  0  0  0
  9  6  1  0  0  0  0
 10 15  1  0  0  0  0
 10 20  1  0  0  0  0
 11 20  2  0  0  0  0
 12  8  1  0  0  0  0
 12  4  1  0  0  0  0
 13 19  1  0  0  0  0
 14 10  2  0  0  0  0
 15 13  1  0  0  0  0
 16  6  1  0  0  0  0
 17  2  1  0  0  0  0
 18 14  1  0  0  0  0
 18  5  2  0  0  0  0
 20  1  1  0  0  0  0
 21 22  1  6  0  0  0
 21 23  1  0  0  0  0
 23 26  1  0  0  0  0
 24 28  1  0  0  0  0
 26 24  1  0  0  0  0
 26 25  2  0  0  0  0
 27 24  1  0  0  0  0
M  END
>  <MODEL>
1

>  <REMARK>
 VINA RESULT:      -9.6      0.000      0.000
  Name = 
  3 active torsions:
  status: ('A' for Active; 'I' for Inactive)
    1  A    between atoms: C_1  and  C_2
    2  A    between atoms: C_2  and  C_3
    3  A    between atoms: C_3  and  C_11
                            x       y       z     vdW  Elec       q    Type
                         _______ _______ _______ _____ _____    ______ ____

>  <TORSDO>
F 3

$$$$
=
 OpenBabel11052422563D

 28 31  0  0  1  0  0  0  0  0999 V2000
  161.3860  209.5230  152.7290 C   0  0  1  0  0  3  0  0  0  0  0  0
  161.7980  207.0070  148.1540 C   0  0  0  0  0  3  0  0  0  0  0  0
  161.0130  204.6770  153.7990 O   0  0  0  0  0  1  0  0  0  0  0  0
  161.2730  204.7020  148.7110 C   0  0  0  0  0  0  0  0  0  0  0  0
  161.3260  206.4050  150.5430 C   0  0  0  0  0  0  0  0  0  0  0  0
  161.7640  205.3210  146.4190 C   0  0  0  0  0  0  0  0  0  0  0  0
  161.4550  206.0420  149.1150 C   0  0  0  0  0  0  0  0  0  0  0  0
  161.1030  204.0230  151.0670 N   0  0  0  0  0  2  0  0  0  0  0  0
  161.4170  204.3530  147.3650 C   0  0  0  0  0  3  0  0  0  0  0  0
  161.1930  207.0370  153.2810 C   0  0  0  0  0  0  0  0  0  0  0  0
  161.4070  207.7380  150.9650 C   0  0  0  0  0  3  0  0  0  0  0  0
  160.8140  203.6520  149.6830 C   0  0  0  0  0  2  0  0  0  0  0  0
  160.7270  208.7520  155.0500 C   0  0  0  0  0  2  0  0  0  0  0  0
  161.1250  205.6990  152.8620 C   0  0  0  0  0  0  0  0  0  0  0  0
  161.2320  207.3470  154.7540 C   0  0  0  0  0  2  0  0  0  0  0  0
  161.9150  204.9580  145.0530 N   0  0  0  0  0  1  0  0  0  0  0  0
  161.9510  206.6480  146.8130 C   0  0  0  0  0  3  0  0  0  0  0  0
  161.1680  205.3870  151.4960 C   0  0  0  0  0  0  0  0  0  0  0  0
  161.5190  209.7650  154.2400 C   0  0  0  0  0  2  0  0  0  0  0  0
  161.3290  208.0660  152.3230 C   0  0  0  0  0  0  0  0  0  0  0  0
  160.3480  210.4190  152.0270 C   0  0  2  0  0  3  0  0  0  0  0  0
  160.9410  211.5450  151.4500 O   0  0  0  0  0  1  0  0  0  0  0  0
  159.0880  210.7800  152.8250 C   0  0  0  0  0  2  0  0  0  0  0  0
  158.8400  213.1080  153.8590 N   0  0  0  0  0  0  0  0  0  0  0  0
  158.2590  212.6630  151.6400 O   0  0  0  0  0  0  0  0  0  0  0  0
  158.6940  212.2230  152.7370 C   0  0  0  0  0  0  0  0  0  0  0  0
  159.6140  212.7240  155.0280 C   0  0  0  0  0  1  0  0  0  0  0  0
  158.2940  214.4530  153.8100 C   0  0  0  0  0  1  0  0  0  0  0  0
  1 21  1  1  0  0  0
  1 19  1  0  0  0  0
  2  7  1  0  0  0  0
  4  7  2  0  0  0  0
  4 12  1  0  0  0  0
  5 11  2  0  0  0  0
  5 18  1  0  0  0  0
  6 17  1  0  0  0  0
  6  9  2  0  0  0  0
  7  5  1  0  0  0  0
  8 18  1  0  0  0  0
  9  4  1  0  0  0  0
 10 15  1  0  0  0  0
 11 20  1  0  0  0  0
 12  8  1  0  0  0  0
 14 10  1  0  0  0  0
 14  3  1  0  0  0  0
 15 13  1  0  0  0  0
 16  6  1  0  0  0  0
 17  2  2  0  0  0  0
 18 14  2  0  0  0  0
 19 13  1  0  0  0  0
 20  1  1  0  0  0  0
 20 10  2  0  0  0  0
 21 22  1  1  0  0  0
 21 23  1  0  0  0  0
 24 27  1  0  0  0  0
 25 26  2  0  0  0  0
 26 23  1  0  0  0  0
 26 24  1  0  0  0  0
 28 24  1  0  0  0  0
M  END
>  <MODEL>
2

>  <REMARK>
 VINA RESULT:      -9.3      2.557      4.225
  Name = 
  3 active torsions:
  status: ('A' for Active; 'I' for Inactive)
    1  A    between atoms: C_1  and  C_2
    2  A    between atoms: C_2  and  C_3
    3  A    between atoms: C_3  and  C_11
                            x       y       z     vdW  Elec       q    Type
                         _______ _______ _______ _____ _____    ______ ____

>  <TORSDO>
F 3

$$$$
=
 OpenBabel11052422563D

 28 31  0  0  1  0  0  0  0  0999 V2000
  161.6160  204.0810  149.0600 C   0  0  1  0  0  3  0  0  0  0  0  0
  161.1720  206.2640  153.7990 C   0  0  0  0  0  3  0  0  0  0  0  0
  161.7070  209.0000  148.3100 O   0  0  0  0  0  1  0  0  0  0  0  0
  160.8870  208.6280  153.3240 C   0  0  0  0  0  0  0  0  0  0  0  0
  161.2440  207.0470  151.4180 C   0  0  0  0  0  0  0  0  0  0  0  0
  160.8540  207.8320  155.6140 C   0  0  0  0  0  0  0  0  0  0  0  0
  161.0860  207.3080  152.8660 C   0  0  0  0  0  0  0  0  0  0  0  0
  161.2500  209.4680  151.0430 N   0  0  0  0  0  2  0  0  0  0  0  0
  160.7600  208.8790  154.6940 C   0  0  0  0  0  3  0  0  0  0  0  0
  161.6610  206.6040  148.6710 C   0  0  0  0  0  0  0  0  0  0  0  0
  161.3490  205.7430  150.9210 C   0  0  0  0  0  3  0  0  0  0  0  0
  160.6940  209.7650  152.3610 C   0  0  0  0  0  2  0  0  0  0  0  0
  161.4980  205.0410  146.7180 C   0  0  0  0  0  2  0  0  0  0  0  0
  161.5700  207.9140  149.1690 C   0  0  0  0  0  0  0  0  0  0  0  0
  161.9950  206.3890  147.2190 C   0  0  0  0  0  2  0  0  0  0  0  0
  160.7300  208.0960  157.0060 N   0  0  0  0  0  1  0  0  0  0  0  0
  161.0560  206.5240  155.1670 C   0  0  0  0  0  3  0  0  0  0  0  0
  161.3390  208.1330  150.5330 C   0  0  0  0  0  0  0  0  0  0  0  0
  162.0520  203.9290  147.5950 C   0  0  0  0  0  2  0  0  0  0  0  0
  161.5430  205.5090  149.5550 C   0  0  0  0  0  0  0  0  0  0  0  0
  160.4120  203.2070  149.4610 C   0  0  2  0  0  3  0  0  0  0  0  0
  160.6260  202.5550  150.6780 O   0  0  0  0  0  1  0  0  0  0  0  0
  159.8550  202.2570  148.3930 C   0  0  0  0  0  2  0  0  0  0  0  0
  160.9030  200.6630  146.6870 N   0  0  0  0  0  0  0  0  0  0  0  0
  161.4460  200.5890  148.9580 O   0  0  0  0  0  0  0  0  0  0  0  0
  160.7660  201.1210  148.0410 C   0  0  0  0  0  0  0  0  0  0  0  0
  160.3840  201.4360  145.5710 C   0  0  0  0  0  1  0  0  0  0  0  0
  161.6550  199.4540  146.3920 C   0  0  0  0  0  1  0  0  0  0  0  0
  1 21  1  6  0  0  0
  1 20  1  0  0  0  0
  2 17  1  0  0  0  0
  3 14  1  0  0  0  0
  4  9  2  0  0  0  0
  5  7  1  0  0  0  0
  6 16  1  0  0  0  0
  7  4  1  0  0  0  0
  7  2  2  0  0  0  0
  8 12  1  0  0  0  0
  9  6  1  0  0  0  0
 10 14  2  0  0  0  0
 10 20  1  0  0  0  0
 11  5  1  0  0  0  0
 12  4  1  0  0  0  0
 13 15  1  0  0  0  0
 13 19  1  0  0  0  0
 14 18  1  0  0  0  0
 15 10  1  0  0  0  0
 17  6  2  0  0  0  0
 18  8  1  0  0  0  0
 18  5  2  0  0  0  0
 19  1  1  0  0  0  0
 20 11  2  0  0  0  0
 21 22  1  1  0  0  0
 23 21  1  0  0  0  0
 24 26  1  0  0  0  0
 26 23  1  0  0  0  0
 26 25  2  0  0  0  0
 27 24  1  0  0  0  0
 28 24  1  0  0  0  0
M  END
>  <MODEL>
3

>  <REMARK>
 VINA RESULT:      -9.2      2.306      7.806
  Name = 
  3 active torsions:
  status: ('A' for Active; 'I' for Inactive)
    1  A    between atoms: C_1  and  C_2
    2  A    between atoms: C_2  and  C_3
    3  A    between atoms: C_3  and  C_11
                            x       y       z     vdW  Elec       q    Type
                         _______ _______ _______ _____ _____    ______ ____

>  <TORSDO>
F 3

$$$$
=
 OpenBabel11052422563D

 28 31  0  0  1  0  0  0  0  0999 V2000
  161.1690  210.6330  153.4350 C   0  0  1  0  0  3  0  0  0  0  0  0
  161.4860  207.7900  149.0480 C   0  0  0  0  0  3  0  0  0  0  0  0
  161.0690  205.8730  154.8850 O   0  0  0  0  0  1  0  0  0  0  0  0
  161.0940  205.5150  149.8030 C   0  0  0  0  0  0  0  0  0  0  0  0
  161.1520  207.3560  151.4960 C   0  0  0  0  0  0  0  0  0  0  0  0
  161.4500  205.9750  147.4490 C   0  0  0  0  0  0  0  0  0  0  0  0
  161.2320  206.8880  150.0940 C   0  0  0  0  0  0  0  0  0  0  0  0
  161.0640  205.0140  152.2090 N   0  0  0  0  0  2  0  0  0  0  0  0
  161.1920  205.0690  148.4810 C   0  0  0  0  0  3  0  0  0  0  0  0
  161.1170  208.1920  154.1820 C   0  0  0  0  0  0  0  0  0  0  0  0
  161.1920  208.7190  151.8110 C   0  0  0  0  0  3  0  0  0  0  0  0
  160.7300  204.5250  150.8730 C   0  0  0  0  0  2  0  0  0  0  0  0
  160.6540  210.0170  155.8370 C   0  0  0  0  0  2  0  0  0  0  0  0
  161.0910  206.8240  153.8690 C   0  0  0  0  0  0  0  0  0  0  0  0
  161.2090  208.6160  155.6230 C   0  0  0  0  0  2  0  0  0  0  0  0
  161.5550  205.5130  146.1080 N   0  0  0  0  0  1  0  0  0  0  0  0
  161.5930  207.3350  147.7320 C   0  0  0  0  0  3  0  0  0  0  0  0
  161.0860  206.4090  152.5300 C   0  0  0  0  0  0  0  0  0  0  0  0
  161.3600  210.9970  154.9150 C   0  0  0  0  0  2  0  0  0  0  0  0
  161.1610  209.1480  153.1430 C   0  0  0  0  0  0  0  0  0  0  0  0
  160.0600  211.4270  152.7190 C   0  0  2  0  0  3  0  0  0  0  0  0
  160.4590  211.8440  151.4460 O   0  0  0  0  0  1  0  0  0  0  0  0
  159.3950  212.5610  153.5110 C   0  0  0  0  0  2  0  0  0  0  0  0
  156.9460  213.2670  153.7380 N   0  0  0  0  0  0  0  0  0  0  0  0
  157.6970  211.1510  154.3850 O   0  0  0  0  0  0  0  0  0  0  0  0
  157.9790  212.2850  153.9140 C   0  0  0  0  0  0  0  0  0  0  0  0
  157.1610  214.4530  152.9260 C   0  0  0  0  0  1  0  0  0  0  0  0
  155.6200  213.0470  154.2910 C   0  0  0  0  0  1  0  0  0  0  0  0
  1 21  1  1  0  0  0
  1 19  1  0  0  0  0
  2  7  1  0  0  0  0
  4  7  2  0  0  0  0
  4 12  1  0  0  0  0
  5 11  2  0  0  0  0
  5 18  1  0  0  0  0
  6 17  1  0  0  0  0
  6  9  2  0  0  0  0
  7  5  1  0  0  0  0
  8 18  1  0  0  0  0
  9  4  1  0  0  0  0
 10 15  1  0  0  0  0
 11 20  1  0  0  0  0
 12  8  1  0  0  0  0
 14 10  1  0  0  0  0
 14  3  1  0  0  0  0
 15 13  1  0  0  0  0
 16  6  1  0  0  0  0
 17  2  2  0  0  0  0
 18 14  2  0  0  0  0
 19 13  1  0  0  0  0
 20  1  1  0  0  0  0
 20 10  2  0  0  0  0
 21 22  1  6  0  0  0
 21 23  1  0  0  0  0
 23 26  1  0  0  0  0
 24 26  1  0  0  0  0
 24 28  1  0  0  0  0
 26 25  2  0  0  0  0
 27 24  1  0  0  0  0
M  END
>  <MODEL>
4

>  <REMARK>
 VINA RESULT:      -9.0      2.893      4.665
  Name = 
  3 active torsions:
  status: ('A' for Active; 'I' for Inactive)
    1  A    between atoms: C_1  and  C_2
    2  A    between atoms: C_2  and  C_3
    3  A    between atoms: C_3  and  C_11
                            x       y       z     vdW  Elec       q    Type
                         _______ _______ _______ _____ _____    ______ ____

>  <TORSDO>
F 3

$$$$
=
 OpenBabel11052422563D

 28 31  0  0  1  0  0  0  0  0999 V2000
  162.3980  209.3640  150.6240 C   0  0  1  0  0  3  0  0  0  0  0  0
  161.8070  204.9400  147.8840 C   0  0  0  0  0  3  0  0  0  0  0  0
  160.8900  205.9270  153.8930 O   0  0  0  0  0  1  0  0  0  0  0  0
  160.7580  203.4180  149.4600 C   0  0  0  0  0  0  0  0  0  0  0  0
  161.3820  205.7160  150.2320 C   0  0  0  0  0  0  0  0  0  0  0  0
  161.2140  202.7000  147.1900 C   0  0  0  0  0  0  0  0  0  0  0  0
  161.3050  204.6870  149.1710 C   0  0  0  0  0  0  0  0  0  0  0  0
  160.6030  204.0350  151.8340 N   0  0  0  0  0  2  0  0  0  0  0  0
  160.7060  202.4370  148.4650 C   0  0  0  0  0  3  0  0  0  0  0  0
  161.6230  207.6040  152.3030 C   0  0  0  0  0  0  0  0  0  0  0  0
  161.8300  207.0120  149.9560 C   0  0  0  0  0  3  0  0  0  0  0  0
  160.1250  203.1300  150.7910 C   0  0  0  0  0  2  0  0  0  0  0  0
  161.7440  210.0130  152.9840 C   0  0  0  0  0  2  0  0  0  0  0  0
  161.1860  206.2990  152.5850 C   0  0  0  0  0  0  0  0  0  0  0  0
  161.8520  208.5650  153.4380 C   0  0  0  0  0  2  0  0  0  0  0  0
  161.1630  201.6960  146.1840 N   0  0  0  0  0  1  0  0  0  0  0  0
  161.7610  203.9520  146.8990 C   0  0  0  0  0  3  0  0  0  0  0  0
  161.0440  205.3660  151.5490 C   0  0  0  0  0  0  0  0  0  0  0  0
  162.7030  210.2640  151.8310 C   0  0  0  0  0  2  0  0  0  0  0  0
  161.9420  207.9650  150.9760 C   0  0  0  0  0  0  0  0  0  0  0  0
  161.5710  210.0420  149.5150 C   0  0  2  0  0  3  0  0  0  0  0  0
  161.8350  209.4890  148.2590 O   0  0  0  0  0  1  0  0  0  0  0  0
  161.5800  211.5760  149.4790 C   0  0  0  0  0  2  0  0  0  0  0  0
  161.3050  212.6960  147.1940 N   0  0  0  0  0  0  0  0  0  0  0  0
  163.4040  212.2080  148.0970 O   0  0  0  0  0  0  0  0  0  0  0  0
  162.1520  212.1610  148.2230 C   0  0  0  0  0  0  0  0  0  0  0  0
  159.8910  212.9410  147.4300 C   0  0  0  0  0  1  0  0  0  0  0  0
  161.8650  213.0980  145.9160 C   0  0  0  0  0  1  0  0  0  0  0  0
  1 21  1  1  0  0  0
  1 20  1  0  0  0  0
  1 19  1  0  0  0  0
  2  7  1  0  0  0  0
  4 12  1  0  0  0  0
  5 18  1  0  0  0  0
  6  9  2  0  0  0  0
  7  4  2  0  0  0  0
  7  5  1  0  0  0  0
  9  4  1  0  0  0  0
 10 14  1  0  0  0  0
 10 15  1  0  0  0  0
 11  5  2  0  0  0  0
 11 20  1  0  0  0  0
 12  8  1  0  0  0  0
 13 15  1  0  0  0  0
 14  3  1  0  0  0  0
 16  6  1  0  0  0  0
 17  6  1  0  0  0  0
 17  2  2  0  0  0  0
 18  8  1  0  0  0  0
 18 14  2  0  0  0  0
 19 13  1  0  0  0  0
 20 10  2  0  0  0  0
 21 22  1  6  0  0  0
 23 21  1  0  0  0  0
 24 27  1  0  0  0  0
 24 26  1  0  0  0  0
 25 26  2  0  0  0  0
 26 23  1  0  0  0  0
 28 24  1  0  0  0  0
M  END
>  <MODEL>
5

>  <REMARK>
 VINA RESULT:      -8.7      2.454      5.335
  Name = 
  3 active torsions:
  status: ('A' for Active; 'I' for Inactive)
    1  A    between atoms: C_1  and  C_2
    2  A    between atoms: C_2  and  C_3
    3  A    between atoms: C_3  and  C_11
                            x       y       z     vdW  Elec       q    Type
                         _______ _______ _______ _____ _____    ______ ____

>  <TORSDO>
F 3

$$$$
=
 OpenBabel11052422563D

 28 31  0  0  1  0  0  0  0  0999 V2000
  160.8140  211.1360  153.7130 C   0  0  1  0  0  3  0  0  0  0  0  0
  161.6510  208.3000  149.3910 C   0  0  0  0  0  3  0  0  0  0  0  0
  160.8420  206.3820  155.1860 O   0  0  0  0  0  1  0  0  0  0  0  0
  161.3170  206.0100  150.1270 C   0  0  0  0  0  0  0  0  0  0  0  0
  161.1340  207.8570  151.8050 C   0  0  0  0  0  0  0  0  0  0  0  0
  161.8470  206.4810  147.8090 C   0  0  0  0  0  0  0  0  0  0  0  0
  161.3580  207.3900  150.4190 C   0  0  0  0  0  0  0  0  0  0  0  0
  161.1100  205.5150  152.5260 N   0  0  0  0  0  2  0  0  0  0  0  0
  161.5510  205.5660  148.8210 C   0  0  0  0  0  3  0  0  0  0  0  0
  160.8260  208.6980  154.4720 C   0  0  0  0  0  0  0  0  0  0  0  0
  161.0750  209.2210  152.1120 C   0  0  0  0  0  3  0  0  0  0  0  0
  160.9160  205.0060  151.1700 C   0  0  0  0  0  2  0  0  0  0  0  0
  160.1290  210.5010  156.0680 C   0  0  0  0  0  2  0  0  0  0  0  0
  160.9000  207.3290  154.1680 C   0  0  0  0  0  0  0  0  0  0  0  0
  160.7730  209.1310  155.9120 C   0  0  0  0  0  2  0  0  0  0  0  0
  162.0900  206.0210  146.4850 N   0  0  0  0  0  1  0  0  0  0  0  0
  161.8940  207.8470  148.0920 C   0  0  0  0  0  3  0  0  0  0  0  0
  161.0300  206.9100  152.8370 C   0  0  0  0  0  0  0  0  0  0  0  0
  160.8580  211.5140  155.2020 C   0  0  0  0  0  2  0  0  0  0  0  0
  160.9080  209.6520  153.4340 C   0  0  0  0  0  0  0  0  0  0  0  0
  159.7290  211.8680  152.9000 C   0  0  2  0  0  3  0  0  0  0  0  0
  158.5980  211.0690  152.7070 O   0  0  0  0  0  1  0  0  0  0  0  0
  160.1760  212.5520  151.6010 C   0  0  0  0  0  2  0  0  0  0  0  0
  159.2280  213.6310  149.4830 N   0  0  0  0  0  0  0  0  0  0  0  0
  157.9860  213.4560  151.4540 O   0  0  0  0  0  0  0  0  0  0  0  0
  159.0750  213.2450  150.8580 C   0  0  0  0  0  0  0  0  0  0  0  0
  160.3340  213.1390  148.6780 C   0  0  0  0  0  1  0  0  0  0  0  0
  158.2210  214.4530  148.8330 C   0  0  0  0  0  1  0  0  0  0  0  0
  1 21  1  1  0  0  0
  1 19  1  0  0  0  0
  2  7  1  0  0  0  0
  4  7  2  0  0  0  0
  4 12  1  0  0  0  0
  5 11  2  0  0  0  0
  5 18  1  0  0  0  0
  6 17  1  0  0  0  0
  6  9  2  0  0  0  0
  7  5  1  0  0  0  0
  8 18  1  0  0  0  0
  9  4  1  0  0  0  0
 10 15  1  0  0  0  0
 11 20  1  0  0  0  0
 12  8  1  0  0  0  0
 14 10  1  0  0  0  0
 14  3  1  0  0  0  0
 15 13  1  0  0  0  0
 16  6  1  0  0  0  0
 17  2  2  0  0  0  0
 18 14  2  0  0  0  0
 19 13  1  0  0  0  0
 20  1  1  0  0  0  0
 20 10  2  0  0  0  0
 21 22  1  6  0  0  0
 23 21  1  0  0  0  0
 24 26  1  0  0  0  0
 26 25  2  0  0  0  0
 26 23  1  0  0  0  0
 27 24  1  0  0  0  0
 28 24  1  0  0  0  0
M  END
>  <MODEL>
6

>  <REMARK>
 VINA RESULT:      -8.4      3.160      5.525
  Name = 
  3 active torsions:
  status: ('A' for Active; 'I' for Inactive)
    1  A    between atoms: C_1  and  C_2
    2  A    between atoms: C_2  and  C_3
    3  A    between atoms: C_3  and  C_11
                            x       y       z     vdW  Elec       q    Type
                         _______ _______ _______ _____ _____    ______ ____

>  <TORSDO>
F 3

$$$$
=
 OpenBabel11052422563D

 28 31  0  0  1  0  0  0  0  0999 V2000
  161.5590  210.3430  152.8880 C   0  0  1  0  0  3  0  0  0  0  0  0
  161.9020  207.4370  148.5460 C   0  0  0  0  0  3  0  0  0  0  0  0
  160.8310  205.6370  154.3360 O   0  0  0  0  0  1  0  0  0  0  0  0
  161.2080  205.2250  149.2720 C   0  0  0  0  0  0  0  0  0  0  0  0
  161.3360  207.0670  150.9610 C   0  0  0  0  0  0  0  0  0  0  0  0
  161.7930  205.6200  146.9530 C   0  0  0  0  0  0  0  0  0  0  0  0
  161.4720  206.5790  149.5710 C   0  0  0  0  0  0  0  0  0  0  0  0
  160.9390  204.7560  151.6700 N   0  0  0  0  0  2  0  0  0  0  0  0
  161.3590  204.7570  147.9630 C   0  0  0  0  0  3  0  0  0  0  0  0
  161.1840  207.9300  153.6340 C   0  0  0  0  0  0  0  0  0  0  0  0
  161.4990  208.4210  151.2760 C   0  0  0  0  0  3  0  0  0  0  0  0
  160.6570  204.2920  150.3120 C   0  0  0  0  0  2  0  0  0  0  0  0
  160.7960  209.8120  155.2450 C   0  0  0  0  0  2  0  0  0  0  0  0
  161.0340  206.5690  153.3230 C   0  0  0  0  0  0  0  0  0  0  0  0
  161.2100  208.3570  155.0770 C   0  0  0  0  0  2  0  0  0  0  0  0
  161.9500  205.1350  145.6250 N   0  0  0  0  0  1  0  0  0  0  0  0
  162.0610  206.9590  147.2430 C   0  0  0  0  0  3  0  0  0  0  0  0
  161.0870  206.1430  151.9890 C   0  0  0  0  0  0  0  0  0  0  0  0
  161.6740  210.7000  154.3780 C   0  0  0  0  0  2  0  0  0  0  0  0
  161.4120  208.8650  152.6000 C   0  0  0  0  0  0  0  0  0  0  0  0
  160.6010  211.2450  152.0870 C   0  0  2  0  0  3  0  0  0  0  0  0
  159.2660  211.0160  152.4280 O   0  0  0  0  0  1  0  0  0  0  0  0
  160.8030  211.2970  150.5670 C   0  0  0  0  0  2  0  0  0  0  0  0
  161.5850  213.0630  148.8880 N   0  0  0  0  0  0  0  0  0  0  0  0
  159.8970  213.4880  150.4470 O   0  0  0  0  0  0  0  0  0  0  0  0
  160.7390  212.6750  149.9820 C   0  0  0  0  0  0  0  0  0  0  0  0
  162.3400  212.0790  148.1290 C   0  0  0  0  0  1  0  0  0  0  0  0
  161.6320  214.4480  148.4500 C   0  0  0  0  0  1  0  0  0  0  0  0
  1 21  1  1  0  0  0
  1 19  1  0  0  0  0
  2  7  1  0  0  0  0
  4  7  2  0  0  0  0
  4 12  1  0  0  0  0
  5 11  2  0  0  0  0
  5 18  1  0  0  0  0
  6 17  1  0  0  0  0
  6  9  2  0  0  0  0
  7  5  1  0  0  0  0
  8 18  1  0  0  0  0
  9  4  1  0  0  0  0
 10 15  1  0  0  0  0
 11 20  1  0  0  0  0
 12  8  1  0  0  0  0
 14 10  1  0  0  0  0
 14  3  1  0  0  0  0
 15 13  1  0  0  0  0
 16  6  1  0  0  0  0
 17  2  2  0  0  0  0
 18 14  2  0  0  0  0
 19 13  1  0  0  0  0
 20  1  1  0  0  0  0
 20 10  2  0  0  0  0
 21 22  1  6  0  0  0
 23 21  1  0  0  0  0
 24 26  1  0  0  0  0
 26 25  2  0  0  0  0
 26 23  1  0  0  0  0
 27 24  1  0  0  0  0
 28 24  1  0  0  0  0
M  END
>  <MODEL>
7

>  <REMARK>
 VINA RESULT:      -8.3      2.671      5.171
  Name = 
  3 active torsions:
  status: ('A' for Active; 'I' for Inactive)
    1  A    between atoms: C_1  and  C_2
    2  A    between atoms: C_2  and  C_3
    3  A    between atoms: C_3  and  C_11
                            x       y       z     vdW  Elec       q    Type
                         _______ _______ _______ _____ _____    ______ ____

>  <TORSDO>
F 3

$$$$
=
 OpenBabel11052422563D

 28 31  0  0  1  0  0  0  0  0999 V2000
  160.8790  206.2420  149.2290 C   0  0  1  0  0  3  0  0  0  0  0  0
  160.2990  210.3050  152.4810 C   0  0  0  0  0  3  0  0  0  0  0  0
  161.1740  204.3610  153.8270 O   0  0  0  0  0  1  0  0  0  0  0  0
  160.7880  209.3700  154.6690 C   0  0  0  0  0  0  0  0  0  0  0  0
  160.8180  207.8590  152.6760 C   0  0  0  0  0  0  0  0  0  0  0  0
  160.2540  211.7240  154.4400 C   0  0  0  0  0  0  0  0  0  0  0  0
  160.6450  209.2000  153.2760 C   0  0  0  0  0  0  0  0  0  0  0  0
  161.0020  206.9370  154.9380 N   0  0  0  0  0  2  0  0  0  0  0  0
  160.6030  210.6330  155.2410 C   0  0  0  0  0  3  0  0  0  0  0  0
  161.0320  205.2740  151.5860 C   0  0  0  0  0  0  0  0  0  0  0  0
  160.7760  207.6710  151.2890 C   0  0  0  0  0  3  0  0  0  0  0  0
  161.2470  208.2420  155.5480 C   0  0  0  0  0  2  0  0  0  0  0  0
  161.5790  203.8370  149.6070 C   0  0  0  0  0  2  0  0  0  0  0  0
  161.0610  205.4580  152.9780 C   0  0  0  0  0  0  0  0  0  0  0  0
  161.0370  203.8760  151.0280 C   0  0  0  0  0  2  0  0  0  0  0  0
  160.0610  213.0040  155.0290 N   0  0  0  0  0  1  0  0  0  0  0  0
  160.1050  211.5610  153.0610 C   0  0  0  0  0  3  0  0  0  0  0  0
  160.9770  206.7480  153.5190 C   0  0  0  0  0  0  0  0  0  0  0  0
  160.7890  204.7930  148.7270 C   0  0  0  0  0  2  0  0  0  0  0  0
  160.8950  206.3920  150.7350 C   0  0  0  0  0  0  0  0  0  0  0  0
  161.9190  207.1090  148.4930 C   0  0  2  0  0  3  0  0  0  0  0  0
  161.4840  208.4290  148.3490 O   0  0  0  0  0  1  0  0  0  0  0  0
  162.4910  206.5490  147.1850 C   0  0  0  0  0  2  0  0  0  0  0  0
  161.6450  204.9680  145.3590 N   0  0  0  0  0  0  0  0  0  0  0  0
  160.3860  206.7860  146.1140 O   0  0  0  0  0  0  0  0  0  0  0  0
  161.4550  206.1240  146.1890 C   0  0  0  0  0  0  0  0  0  0  0  0
  162.7070  204.0120  145.6250 C   0  0  0  0  0  1  0  0  0  0  0  0
  160.7130  204.6740  144.2840 C   0  0  0  0  0  1  0  0  0  0  0  0
  1 21  1  6  0  0  0
  1 20  1  0  0  0  0
  2 17  2  0  0  0  0
  2  7  1  0  0  0  0
  4  9  1  0  0  0  0
  4 12  1  0  0  0  0
  5  7  1  0  0  0  0
  5 18  1  0  0  0  0
  6 16  1  0  0  0  0
  6  9  2  0  0  0  0
  7  4  2  0  0  0  0
  8 12  1  0  0  0  0
 10 14  1  0  0  0  0
 11  5  2  0  0  0  0
 13 15  1  0  0  0  0
 14 18  2  0  0  0  0
 14  3  1  0  0  0  0
 15 10  1  0  0  0  0
 17  6  1  0  0  0  0
 18  8  1  0  0  0  0
 19  1  1  0  0  0  0
 19 13  1  0  0  0  0
 20 11  1  0  0  0  0
 20 10  2  0  0  0  0
 21 22  1  6  0  0  0
 23 21  1  0  0  0  0
 24 27  1  0  0  0  0
 24 26  1  0  0  0  0
 25 26  2  0  0  0  0
 26 23  1  0  0  0  0
 28 24  1  0  0  0  0
M  END
>  <MODEL>
8

>  <REMARK>
 VINA RESULT:      -8.3      2.009      8.443
  Name = 
  3 active torsions:
  status: ('A' for Active; 'I' for Inactive)
    1  A    between atoms: C_1  and  C_2
    2  A    between atoms: C_2  and  C_3
    3  A    between atoms: C_3  and  C_11
                            x       y       z     vdW  Elec       q    Type
                         _______ _______ _______ _____ _____    ______ ____

>  <TORSDO>
F 3

$$$$
=
 OpenBabel11052422563D

 28 31  0  0  1  0  0  0  0  0999 V2000
  160.8500  204.0710  148.8960 C   0  0  1  0  0  3  0  0  0  0  0  0
  161.4880  209.2580  148.5570 C   0  0  0  0  0  3  0  0  0  0  0  0
  161.2680  205.7030  153.5800 O   0  0  0  0  0  1  0  0  0  0  0  0
  162.0180  209.9270  150.8310 C   0  0  0  0  0  0  0  0  0  0  0  0
  161.5110  207.5210  150.3660 C   0  0  0  0  0  0  0  0  0  0  0  0
  161.9560  211.5780  149.0570 C   0  0  0  0  0  0  0  0  0  0  0  0
  161.6870  208.9150  149.9040 C   0  0  0  0  0  0  0  0  0  0  0  0
  161.7550  208.3170  152.6700 N   0  0  0  0  0  2  0  0  0  0  0  0
  162.1610  211.2490  150.3990 C   0  0  0  0  0  3  0  0  0  0  0  0
  161.0650  204.9050  151.3000 C   0  0  0  0  0  0  0  0  0  0  0  0
  161.2750  206.4790  149.4620 C   0  0  0  0  0  3  0  0  0  0  0  0
  162.3310  209.5970  152.2620 C   0  0  0  0  0  2  0  0  0  0  0  0
  161.0780  202.4430  150.8250 C   0  0  0  0  0  2  0  0  0  0  0  0
  161.2880  205.9510  152.2100 C   0  0  0  0  0  0  0  0  0  0  0  0
  160.7190  203.5360  151.8210 C   0  0  0  0  0  2  0  0  0  0  0  0
  162.0980  212.9260  148.6260 N   0  0  0  0  0  1  0  0  0  0  0  0
  161.6230  210.5830  148.1350 C   0  0  0  0  0  3  0  0  0  0  0  0
  161.5320  207.2490  151.7430 C   0  0  0  0  0  0  0  0  0  0  0  0
  160.4080  202.7240  149.4890 C   0  0  0  0  0  2  0  0  0  0  0  0
  161.0660  205.1710  149.9130 C   0  0  0  0  0  0  0  0  0  0  0  0
  161.9560  203.9670  147.8290 C   0  0  2  0  0  3  0  0  0  0  0  0
  162.6730  205.1600  147.7060 O   0  0  0  0  0  1  0  0  0  0  0  0
  161.5520  203.3990  146.4620 C   0  0  0  0  0  2  0  0  0  0  0  0
  161.1720  205.1800  144.6640 N   0  0  0  0  0  0  0  0  0  0  0  0
  163.2040  204.0480  144.8850 O   0  0  0  0  0  0  0  0  0  0  0  0
  162.0230  204.2090  145.2930 C   0  0  0  0  0  0  0  0  0  0  0  0
  159.9310  205.6130  145.2850 C   0  0  0  0  0  1  0  0  0  0  0  0
  161.5830  205.8280  143.4300 C   0  0  0  0  0  1  0  0  0  0  0  0
  1 21  1  1  0  0  0
  1 19  1  0  0  0  0
  1 20  1  0  0  0  0
  2  7  1  0  0  0  0
  4 12  1  0  0  0  0
  5 18  1  0  0  0  0
  6  9  2  0  0  0  0
  7  5  1  0  0  0  0
  7  4  2  0  0  0  0
  9  4  1  0  0  0  0
 10 15  1  0  0  0  0
 10 14  1  0  0  0  0
 11 20  1  0  0  0  0
 11  5  2  0  0  0  0
 12  8  1  0  0  0  0
 13 15  1  0  0  0  0
 14  3  1  0  0  0  0
 16  6  1  0  0  0  0
 17  2  2  0  0  0  0
 17  6  1  0  0  0  0
 18 14  2  0  0  0  0
 18  8  1  0  0  0  0
 19 13  1  0  0  0  0
 20 10  2  0  0  0  0
 21 22  1  6  0  0  0
 23 21  1  0  0  0  0
 24 27  1  0  0  0  0
 24 26  1  0  0  0  0
 25 26  2  0  0  0  0
 26 23  1  0  0  0  0
 28 24  1  0  0  0  0
M  END
>  <MODEL>
9

>  <REMARK>
 VINA RESULT:      -8.2      2.677      8.118
  Name = 
  3 active torsions:
  status: ('A' for Active; 'I' for Inactive)
    1  A    between atoms: C_1  and  C_2
    2  A    between atoms: C_2  and  C_3
    3  A    between atoms: C_3  and  C_11
                            x       y       z     vdW  Elec       q    Type
                         _______ _______ _______ _____ _____    ______ ____

>  <TORSDO>
F 3

$$$$
