=
 OpenBabel11062407423D

 34 40  0  0  1  0  0  0  0  0999 V2000
  160.9960  207.9430  154.3760 C   0  0  0  0  0  0  0  0  0  0  0  0
  161.5500  210.0090  153.1990 C   0  0  0  0  0  0  0  0  0  0  0  0
  161.4560  207.9000  151.9970 C   0  0  0  0  0  0  0  0  0  0  0  0
  161.9050  207.9950  149.6410 C   0  0  0  0  0  0  0  0  0  0  0  0
  161.0890  209.9980  155.5700 C   0  0  0  0  0  3  0  0  0  0  0  0
  161.4250  210.7030  154.4040 C   0  0  0  0  0  3  0  0  0  0  0  0
  161.9740  209.9580  150.8660 C   0  0  0  0  0  0  0  0  0  0  0  0
  161.3340  208.6120  153.1930 C   0  0  0  0  0  0  0  0  0  0  0  0
  162.3280  209.1300  148.3260 S   0  0  0  0  0  0  0  0  0  0  0  0
  160.8830  208.6490  155.5340 N   0  0  0  0  0  0  0  0  0  0  0  0
  161.2550  206.5060  151.9400 C   0  0  0  0  0  0  0  0  0  0  0  0
  160.7780  206.5590  154.3440 C   0  0  0  0  0  3  0  0  0  0  0  0
  161.8680  210.6570  152.0350 N   0  0  0  0  0  0  0  0  0  0  0  0
  161.7150  206.6130  149.5300 C   0  0  0  0  0  3  0  0  0  0  0  0
  161.3910  205.8420  150.6780 C   0  0  0  0  0  0  0  0  0  0  0  0
  162.3070  210.5430  149.5310 C   0  0  1  0  0  3  0  0  0  0  0  0
  161.7760  208.6030  150.8490 C   0  0  0  0  0  0  0  0  0  0  0  0
  160.9030  205.8480  153.1360 C   0  0  0  0  0  3  0  0  0  0  0  0
  160.6460  202.4440  149.1310 C   0  0  0  0  0  0  0  0  0  0  0  0
  160.8320  201.5990  150.2270 C   0  0  0  0  0  3  0  0  0  0  0  0
  161.2140  204.3730  150.5040 C   0  0  0  0  0  0  0  0  0  0  0  0
  161.2010  202.1330  151.4630 C   0  0  0  0  0  3  0  0  0  0  0  0
  160.8310  203.8210  149.2700 C   0  0  0  0  0  3  0  0  0  0  0  0
  161.3880  203.5110  151.6010 C   0  0  0  0  0  3  0  0  0  0  0  0
  160.2820  201.9280  147.9310 F   0  0  0  0  0  0  0  0  0  0  0  0
  161.2430  211.5480  149.1290 C   0  0  0  0  0  2  0  0  0  0  0  0
  161.6430  212.2300  147.9070 N   0  0  0  0  0  2  0  0  0  0  0  0
  162.3460  214.1290  145.9740 F   0  0  0  0  0  0  0  0  0  0  0  0
  160.6950  212.7480  146.9720 C   0  0  0  0  0  0  0  0  0  0  0  0
  161.1940  213.4090  145.7130 C   0  0  1  0  0  3  0  0  0  0  0  0
  158.8320  213.5910  144.9680 C   0  0  0  0  0  2  0  0  0  0  0  0
  158.4510  213.0340  146.2600 N   0  0  0  0  0  2  0  0  0  0  0  0
  159.4190  212.5780  147.1730 N   0  0  0  0  0  0  0  0  0  0  0  0
  160.1430  214.3420  145.1190 C   0  0  0  0  0  2  0  0  0  0  0  0
  1 10  1  0  0  0  0
  2  6  2  0  0  0  0
  3  8  1  0  0  0  0
  4 17  1  0  0  0  0
  6  5  1  0  0  0  0
  7 13  2  0  0  0  0
  8  2  1  0  0  0  0
  8  1  2  0  0  0  0
  9 16  1  0  0  0  0
  9  4  1  0  0  0  0
 10  5  2  0  0  0  0
 11  3  1  0  0  0  0
 11 18  1  0  0  0  0
 12  1  1  0  0  0  0
 13  2  1  0  0  0  0
 14  4  2  0  0  0  0
 14 15  1  0  0  0  0
 15 11  2  0  0  0  0
 16 26  1  6  0  0  0
 16  7  1  0  0  0  0
 17  7  1  0  0  0  0
 17  3  2  0  0  0  0
 18 12  2  0  0  0  0
 19 23  2  0  0  0  0
 19 20  1  0  0  0  0
 20 22  2  0  0  0  0
 21 15  1  0  0  0  0
 21 24  2  0  0  0  0
 22 24  1  0  0  0  0
 23 21  1  0  0  0  0
 25 19  1  0  0  0  0
 27 26  1  0  0  0  0
 29 33  2  0  0  0  0
 29 27  1  0  0  0  0
 30 28  1  1  0  0  0
 30 29  1  0  0  0  0
 31 34  1  0  0  0  0
 31 32  1  0  0  0  0
 32 33  1  0  0  0  0
 34 30  1  0  0  0  0
M  END
>  <MODEL>
1

>  <REMARK>
 VINA RESULT:     -10.4      0.000      0.000
  Name = 
  3 active torsions:
  status: ('A' for Active; 'I' for Inactive)
    1  A    between atoms: N_3  and  C_17
    2  A    between atoms: C_12  and  C_28
    3  A    between atoms: C_17  and  C_29
                            x       y       z     vdW  Elec       q    Type
                         _______ _______ _______ _____ _____    ______ ____

>  <TORSDO>
F 3

$$$$
=
 OpenBabel11062407423D

 34 40  0  0  1  0  0  0  0  0999 V2000
  161.0510  207.0420  153.8760 C   0  0  0  0  0  0  0  0  0  0  0  0
  161.5650  209.3350  153.2140 C   0  0  0  0  0  0  0  0  0  0  0  0
  161.4440  207.5740  151.5450 C   0  0  0  0  0  0  0  0  0  0  0  0
  161.8260  208.2330  149.2690 C   0  0  0  0  0  0  0  0  0  0  0  0
  161.1720  208.7530  155.5240 C   0  0  0  0  0  3  0  0  0  0  0  0
  161.4730  209.7190  154.5530 C   0  0  0  0  0  3  0  0  0  0  0  0
  161.9250  209.8470  150.9260 C   0  0  0  0  0  0  0  0  0  0  0  0
  161.3530  207.9780  152.8790 C   0  0  0  0  0  0  0  0  0  0  0  0
  162.2090  209.6550  148.2530 S   0  0  0  0  0  0  0  0  0  0  0  0
  160.9680  207.4490  155.1720 N   0  0  0  0  0  0  0  0  0  0  0  0
  161.2440  206.2320  151.1600 C   0  0  0  0  0  0  0  0  0  0  0  0
  160.8350  205.7040  153.5200 C   0  0  0  0  0  3  0  0  0  0  0  0
  161.8500  210.2460  152.2310 N   0  0  0  0  0  0  0  0  0  0  0  0
  161.6370  206.9170  148.8350 C   0  0  0  0  0  3  0  0  0  0  0  0
  161.3470  205.8900  149.7730 C   0  0  0  0  0  0  0  0  0  0  0  0
  162.2190  210.7370  149.7610 C   0  0  1  0  0  3  0  0  0  0  0  0
  161.7290  208.5330  150.5900 C   0  0  0  0  0  0  0  0  0  0  0  0
  160.9280  205.3040  152.1730 C   0  0  0  0  0  3  0  0  0  0  0  0
  160.6850  202.1440  149.6160 C   0  0  0  0  0  0  0  0  0  0  0  0
  160.8940  201.8880  148.2600 C   0  0  0  0  0  3  0  0  0  0  0  0
  161.1690  204.5040  149.2580 C   0  0  0  0  0  0  0  0  0  0  0  0
  161.2470  202.9290  147.4000 C   0  0  0  0  0  3  0  0  0  0  0  0
  160.8250  203.4430  150.1120 C   0  0  0  0  0  3  0  0  0  0  0  0
  161.3860  204.2280  147.8970 C   0  0  0  0  0  3  0  0  0  0  0  0
  160.3470  201.1330  150.4530 F   0  0  0  0  0  0  0  0  0  0  0  0
  161.1410  211.8000  149.6400 C   0  0  0  0  0  2  0  0  0  0  0  0
  160.9820  212.1860  148.2460 N   0  0  0  0  0  2  0  0  0  0  0  0
  161.0000  213.5330  145.7920 F   0  0  0  0  0  0  0  0  0  0  0  0
  159.8540  212.9290  147.7800 C   0  0  0  0  0  0  0  0  0  0  0  0
  159.7480  213.2570  146.3130 C   0  0  1  0  0  3  0  0  0  0  0  0
  157.5020  214.2130  146.7710 C   0  0  0  0  0  2  0  0  0  0  0  0
  157.7480  213.9430  148.1820 N   0  0  0  0  0  2  0  0  0  0  0  0
  158.8960  213.2480  148.6040 N   0  0  0  0  0  0  0  0  0  0  0  0
  158.8300  214.4520  146.0730 C   0  0  0  0  0  2  0  0  0  0  0  0
  1 10  1  0  0  0  0
  2  6  2  0  0  0  0
  3  8  1  0  0  0  0
  4 17  1  0  0  0  0
  6  5  1  0  0  0  0
  7 13  2  0  0  0  0
  8  2  1  0  0  0  0
  8  1  2  0  0  0  0
  9  4  1  0  0  0  0
  9 16  1  0  0  0  0
 10  5  2  0  0  0  0
 11  3  1  0  0  0  0
 11 18  1  0  0  0  0
 12  1  1  0  0  0  0
 13  2  1  0  0  0  0
 14  4  2  0  0  0  0
 14 15  1  0  0  0  0
 15 11  2  0  0  0  0
 16 26  1  6  0  0  0
 16  7  1  0  0  0  0
 17  7  1  0  0  0  0
 17  3  2  0  0  0  0
 18 12  2  0  0  0  0
 19 23  1  0  0  0  0
 19 25  1  0  0  0  0
 20 19  2  0  0  0  0
 21 15  1  0  0  0  0
 21 23  2  0  0  0  0
 22 24  2  0  0  0  0
 22 20  1  0  0  0  0
 24 21  1  0  0  0  0
 27 26  1  0  0  0  0
 29 27  1  0  0  0  0
 29 33  2  0  0  0  0
 30 28  1  1  0  0  0
 30 29  1  0  0  0  0
 31 32  1  0  0  0  0
 32 33  1  0  0  0  0
 34 30  1  0  0  0  0
 34 31  1  0  0  0  0
M  END
>  <MODEL>
2

>  <REMARK>
 VINA RESULT:     -10.2      1.175      1.533
  Name = 
  3 active torsions:
  status: ('A' for Active; 'I' for Inactive)
    1  A    between atoms: N_3  and  C_17
    2  A    between atoms: C_12  and  C_28
    3  A    between atoms: C_17  and  C_29
                            x       y       z     vdW  Elec       q    Type
                         _______ _______ _______ _____ _____    ______ ____

>  <TORSDO>
F 3

$$$$
=
 OpenBabel11062407423D

 34 40  0  0  1  0  0  0  0  0999 V2000
  161.0540  206.7740  154.0700 C   0  0  0  0  0  0  0  0  0  0  0  0
  161.4510  209.1380  153.6030 C   0  0  0  0  0  0  0  0  0  0  0  0
  161.3760  207.5240  151.7880 C   0  0  0  0  0  0  0  0  0  0  0  0
  161.6820  208.3960  149.5720 C   0  0  0  0  0  0  0  0  0  0  0  0
  161.1310  208.3400  155.8590 C   0  0  0  0  0  3  0  0  0  0  0  0
  161.3690  209.4000  154.9710 C   0  0  0  0  0  3  0  0  0  0  0  0
  161.7410  209.8630  151.3620 C   0  0  0  0  0  0  0  0  0  0  0  0
  161.2940  207.8070  153.1540 C   0  0  0  0  0  0  0  0  0  0  0  0
  161.9800  209.9160  148.6790 S   0  0  0  0  0  0  0  0  0  0  0  0
  160.9790  207.0630  155.3970 N   0  0  0  0  0  0  0  0  0  0  0  0
  161.2290  206.2130  151.2910 C   0  0  0  0  0  0  0  0  0  0  0  0
  160.8920  205.4640  153.6010 C   0  0  0  0  0  3  0  0  0  0  0  0
  161.6740  210.1430  152.6980 N   0  0  0  0  0  0  0  0  0  0  0  0
  161.5440  207.1150  149.0280 C   0  0  0  0  0  3  0  0  0  0  0  0
  161.3190  205.9980  149.8780 C   0  0  0  0  0  0  0  0  0  0  0  0
  161.9710  210.8630  150.2760 C   0  0  1  0  0  3  0  0  0  0  0  0
  161.5980  208.5750  150.9160 C   0  0  0  0  0  0  0  0  0  0  0  0
  160.9750  205.1870  152.2240 C   0  0  0  0  0  3  0  0  0  0  0  0
  160.6860  202.2770  149.3810 C   0  0  0  0  0  0  0  0  0  0  0  0
  161.0190  202.1220  148.0340 C   0  0  0  0  0  3  0  0  0  0  0  0
  161.1930  204.6550  149.2460 C   0  0  0  0  0  0  0  0  0  0  0  0
  161.4460  203.2230  147.2910 C   0  0  0  0  0  3  0  0  0  0  0  0
  160.7760  203.5340  149.9830 C   0  0  0  0  0  3  0  0  0  0  0  0
  161.5350  204.4810  147.8930 C   0  0  0  0  0  3  0  0  0  0  0  0
  160.2760  201.2070  150.1060 F   0  0  0  0  0  0  0  0  0  0  0  0
  160.8440  211.8810  150.2650 C   0  0  0  0  0  2  0  0  0  0  0  0
  160.4000  212.1400  151.6270 N   0  0  0  0  0  2  0  0  0  0  0  0
  159.2070  212.0040  154.1560 F   0  0  0  0  0  0  0  0  0  0  0  0
  159.1620  212.7920  151.9180 C   0  0  0  0  0  0  0  0  0  0  0  0
  158.7920  213.0530  153.3560 C   0  0  1  0  0  3  0  0  0  0  0  0
  156.8060  214.2970  152.5350 C   0  0  0  0  0  2  0  0  0  0  0  0
  157.1980  213.9040  151.1880 N   0  0  0  0  0  2  0  0  0  0  0  0
  158.4050  213.2210  150.9480 N   0  0  0  0  0  0  0  0  0  0  0  0
  157.2880  213.2450  153.5200 C   0  0  0  0  0  2  0  0  0  0  0  0
  1 10  1  0  0  0  0
  2  6  2  0  0  0  0
  3  8  1  0  0  0  0
  4 17  1  0  0  0  0
  6  5  1  0  0  0  0
  7 13  2  0  0  0  0
  8  2  1  0  0  0  0
  8  1  2  0  0  0  0
  9  4  1  0  0  0  0
  9 16  1  0  0  0  0
 10  5  2  0  0  0  0
 11  3  1  0  0  0  0
 11 18  1  0  0  0  0
 12  1  1  0  0  0  0
 13  2  1  0  0  0  0
 14  4  2  0  0  0  0
 14 15  1  0  0  0  0
 15 11  2  0  0  0  0
 16 26  1  6  0  0  0
 16  7  1  0  0  0  0
 17  7  1  0  0  0  0
 17  3  2  0  0  0  0
 18 12  2  0  0  0  0
 19 23  1  0  0  0  0
 19 25  1  0  0  0  0
 20 19  2  0  0  0  0
 21 15  1  0  0  0  0
 21 23  2  0  0  0  0
 22 24  2  0  0  0  0
 22 20  1  0  0  0  0
 24 21  1  0  0  0  0
 26 27  1  0  0  0  0
 27 29  1  0  0  0  0
 29 30  1  0  0  0  0
 30 34  1  0  0  0  0
 30 28  1  1  0  0  0
 31 34  1  0  0  0  0
 32 31  1  0  0  0  0
 33 32  1  0  0  0  0
 33 29  2  0  0  0  0
M  END
>  <MODEL>
3

>  <REMARK>
 VINA RESULT:      -9.9      2.807      3.589
  Name = 
  3 active torsions:
  status: ('A' for Active; 'I' for Inactive)
    1  A    between atoms: N_3  and  C_17
    2  A    between atoms: C_12  and  C_28
    3  A    between atoms: C_17  and  C_29
                            x       y       z     vdW  Elec       q    Type
                         _______ _______ _______ _____ _____    ______ ____

>  <TORSDO>
F 3

$$$$
=
 OpenBabel11062407423D

 34 40  0  0  1  0  0  0  0  0999 V2000
  161.0310  206.7000  153.9420 C   0  0  0  0  0  0  0  0  0  0  0  0
  161.4150  209.0770  153.5380 C   0  0  0  0  0  0  0  0  0  0  0  0
  161.3790  207.5070  151.6840 C   0  0  0  0  0  0  0  0  0  0  0  0
  161.7110  208.4350  149.4940 C   0  0  0  0  0  0  0  0  0  0  0  0
  161.0690  208.2230  155.7690 C   0  0  0  0  0  3  0  0  0  0  0  0
  161.3100  209.3060  154.9110 C   0  0  0  0  0  3  0  0  0  0  0  0
  161.7320  209.8580  151.3200 C   0  0  0  0  0  0  0  0  0  0  0  0
  161.2760  207.7560  153.0550 C   0  0  0  0  0  0  0  0  0  0  0  0
  162.0090  209.9780  148.6420 S   0  0  0  0  0  0  0  0  0  0  0  0
  160.9340  206.9570  155.2750 N   0  0  0  0  0  0  0  0  0  0  0  0
  161.2510  206.2080  151.1530 C   0  0  0  0  0  0  0  0  0  0  0  0
  160.8860  205.4000  153.4400 C   0  0  0  0  0  3  0  0  0  0  0  0
  161.6430  210.1050  152.6610 N   0  0  0  0  0  0  0  0  0  0  0  0
  161.5910  207.1660  148.9180 C   0  0  0  0  0  3  0  0  0  0  0  0
  161.3640  206.0270  149.7370 C   0  0  0  0  0  0  0  0  0  0  0  0
  161.9690  210.8870  150.2610 C   0  0  1  0  0  3  0  0  0  0  0  0
  161.6060  208.5810  150.8410 C   0  0  0  0  0  0  0  0  0  0  0  0
  160.9920  205.1570  152.0570 C   0  0  0  0  0  3  0  0  0  0  0  0
  161.4020  203.2920  147.0880 C   0  0  0  0  0  0  0  0  0  0  0  0
  160.9920  202.1860  147.8340 C   0  0  0  0  0  3  0  0  0  0  0  0
  161.2580  204.6990  149.0710 C   0  0  0  0  0  0  0  0  0  0  0  0
  160.7070  202.3280  149.1930 C   0  0  0  0  0  3  0  0  0  0  0  0
  161.5300  204.5410  147.7020 C   0  0  0  0  0  3  0  0  0  0  0  0
  160.8360  203.5770  149.8070 C   0  0  0  0  0  3  0  0  0  0  0  0
  161.6740  203.1570  145.7670 F   0  0  0  0  0  0  0  0  0  0  0  0
  160.8340  211.8950  150.2580 C   0  0  0  0  0  2  0  0  0  0  0  0
  160.3930  212.1450  151.6220 N   0  0  0  0  0  2  0  0  0  0  0  0
  159.2060  211.9930  154.1530 F   0  0  0  0  0  0  0  0  0  0  0  0
  159.1540  212.7940  151.9200 C   0  0  0  0  0  0  0  0  0  0  0  0
  158.7880  213.0460  153.3600 C   0  0  1  0  0  3  0  0  0  0  0  0
  156.7980  214.2920  152.5520 C   0  0  0  0  0  2  0  0  0  0  0  0
  157.1880  213.9070  151.2010 N   0  0  0  0  0  2  0  0  0  0  0  0
  158.3940  213.2270  150.9550 N   0  0  0  0  0  0  0  0  0  0  0  0
  157.2840  213.2350  153.5290 C   0  0  0  0  0  2  0  0  0  0  0  0
  1 10  1  0  0  0  0
  2  6  2  0  0  0  0
  3  8  1  0  0  0  0
  4 17  1  0  0  0  0
  6  5  1  0  0  0  0
  7 13  2  0  0  0  0
  8  2  1  0  0  0  0
  8  1  2  0  0  0  0
  9  4  1  0  0  0  0
  9 16  1  0  0  0  0
 10  5  2  0  0  0  0
 11  3  1  0  0  0  0
 11 18  1  0  0  0  0
 12  1  1  0  0  0  0
 13  2  1  0  0  0  0
 14  4  2  0  0  0  0
 14 15  1  0  0  0  0
 15 11  2  0  0  0  0
 16 26  1  6  0  0  0
 16  7  1  0  0  0  0
 17  7  1  0  0  0  0
 17  3  2  0  0  0  0
 18 12  2  0  0  0  0
 19 23  2  0  0  0  0
 19 20  1  0  0  0  0
 20 22  2  0  0  0  0
 21 15  1  0  0  0  0
 21 24  2  0  0  0  0
 22 24  1  0  0  0  0
 23 21  1  0  0  0  0
 25 19  1  0  0  0  0
 26 27  1  0  0  0  0
 27 29  1  0  0  0  0
 29 30  1  0  0  0  0
 30 34  1  0  0  0  0
 30 28  1  1  0  0  0
 31 34  1  0  0  0  0
 32 31  1  0  0  0  0
 33 32  1  0  0  0  0
 33 29  2  0  0  0  0
M  END
>  <MODEL>
4

>  <REMARK>
 VINA RESULT:      -9.9      2.831      3.555
  Name = 
  3 active torsions:
  status: ('A' for Active; 'I' for Inactive)
    1  A    between atoms: N_3  and  C_17
    2  A    between atoms: C_12  and  C_28
    3  A    between atoms: C_17  and  C_29
                            x       y       z     vdW  Elec       q    Type
                         _______ _______ _______ _____ _____    ______ ____

>  <TORSDO>
F 3

$$$$
=
 OpenBabel11062407423D

 34 40  0  0  1  0  0  0  0  0999 V2000
  161.0940  205.2860  152.1130 C   0  0  0  0  0  0  0  0  0  0  0  0
  161.2760  207.5380  153.0400 C   0  0  0  0  0  0  0  0  0  0  0  0
  161.4110  207.1850  150.6400 C   0  0  0  0  0  0  0  0  0  0  0  0
  161.6990  209.1470  149.2880 C   0  0  0  0  0  0  0  0  0  0  0  0
  160.9650  205.6140  154.4660 C   0  0  0  0  0  3  0  0  0  0  0  0
  161.1260  207.0000  154.3200 C   0  0  0  0  0  3  0  0  0  0  0  0
  161.5620  209.3900  151.5860 C   0  0  0  0  0  0  0  0  0  0  0  0
  161.2610  206.6650  151.9290 C   0  0  0  0  0  0  0  0  0  0  0  0
  161.8760  210.9240  149.3920 S   0  0  0  0  0  0  0  0  0  0  0  0
  160.9520  204.7940  153.3730 N   0  0  0  0  0  0  0  0  0  0  0  0
  161.4070  206.3560  149.5000 C   0  0  0  0  0  0  0  0  0  0  0  0
  161.0740  204.4410  150.9960 C   0  0  0  0  0  3  0  0  0  0  0  0
  161.4280  208.8860  152.8490 N   0  0  0  0  0  0  0  0  0  0  0  0
  161.7020  208.3690  148.1250 C   0  0  0  0  0  3  0  0  0  0  0  0
  161.5610  206.9580  148.2100 C   0  0  0  0  0  0  0  0  0  0  0  0
  161.7270  210.8360  151.2410 C   0  0  1  0  0  3  0  0  0  0  0  0
  161.5580  208.5530  150.5020 C   0  0  0  0  0  0  0  0  0  0  0  0
  161.2260  204.9720  149.7010 C   0  0  0  0  0  3  0  0  0  0  0  0
  162.6880  204.6460  145.4020 C   0  0  0  0  0  0  0  0  0  0  0  0
  161.6200  204.7610  144.5100 C   0  0  0  0  0  3  0  0  0  0  0  0
  161.5840  206.1780  146.9420 C   0  0  0  0  0  0  0  0  0  0  0  0
  160.5370  205.5850  144.8220 C   0  0  0  0  0  3  0  0  0  0  0  0
  162.6720  205.3530  146.6080 C   0  0  0  0  0  3  0  0  0  0  0  0
  160.5210  206.2910  146.0290 C   0  0  0  0  0  3  0  0  0  0  0  0
  163.7430  203.8510  145.0990 F   0  0  0  0  0  0  0  0  0  0  0  0
  160.5080  211.6170  151.6980 C   0  0  0  0  0  2  0  0  0  0  0  0
  160.6150  211.9130  153.1190 N   0  0  0  0  0  2  0  0  0  0  0  0
  160.9340  211.7680  155.8960 F   0  0  0  0  0  0  0  0  0  0  0  0
  159.4990  211.8180  154.0070 C   0  0  0  0  0  0  0  0  0  0  0  0
  159.6870  212.1760  155.4590 C   0  0  1  0  0  3  0  0  0  0  0  0
  157.2430  211.8640  155.7690 C   0  0  0  0  0  2  0  0  0  0  0  0
  157.1880  211.4360  154.3770 N   0  0  0  0  0  2  0  0  0  0  0  0
  158.3220  211.5010  153.5470 N   0  0  0  0  0  0  0  0  0  0  0  0
  158.6140  211.5370  156.3350 C   0  0  0  0  0  2  0  0  0  0  0  0
  1 10  1  0  0  0  0
  2  6  2  0  0  0  0
  3  8  1  0  0  0  0
  4  9  1  0  0  0  0
  4 17  1  0  0  0  0
  6  5  1  0  0  0  0
  7 13  2  0  0  0  0
  8  1  2  0  0  0  0
  8  2  1  0  0  0  0
  9 16  1  0  0  0  0
 10  5  2  0  0  0  0
 11 18  1  0  0  0  0
 11  3  1  0  0  0  0
 12  1  1  0  0  0  0
 13  2  1  0  0  0  0
 14 15  1  0  0  0  0
 14  4  2  0  0  0  0
 15 11  2  0  0  0  0
 16  7  1  0  0  0  0
 16 26  1  6  0  0  0
 17  3  2  0  0  0  0
 17  7  1  0  0  0  0
 18 12  2  0  0  0  0
 19 23  1  0  0  0  0
 20 22  1  0  0  0  0
 20 19  2  0  0  0  0
 21 15  1  0  0  0  0
 22 24  2  0  0  0  0
 23 21  2  0  0  0  0
 24 21  1  0  0  0  0
 25 19  1  0  0  0  0
 26 27  1  0  0  0  0
 27 29  1  0  0  0  0
 29 30  1  0  0  0  0
 30 28  1  1  0  0  0
 30 34  1  0  0  0  0
 31 34  1  0  0  0  0
 32 31  1  0  0  0  0
 33 29  2  0  0  0  0
 33 32  1  0  0  0  0
M  END
>  <MODEL>
5

>  <REMARK>
 VINA RESULT:      -9.8      3.692      5.476
  Name = 
  3 active torsions:
  status: ('A' for Active; 'I' for Inactive)
    1  A    between atoms: N_3  and  C_17
    2  A    between atoms: C_12  and  C_28
    3  A    between atoms: C_17  and  C_29
                            x       y       z     vdW  Elec       q    Type
                         _______ _______ _______ _____ _____    ______ ____

>  <TORSDO>
F 3

$$$$
=
 OpenBabel11062407423D

 34 40  0  0  1  0  0  0  0  0999 V2000
  161.0270  207.0570  153.7770 C   0  0  0  0  0  0  0  0  0  0  0  0
  161.5700  209.3620  153.1810 C   0  0  0  0  0  0  0  0  0  0  0  0
  161.4730  207.6410  151.4680 C   0  0  0  0  0  0  0  0  0  0  0  0
  161.9070  208.3520  149.2160 C   0  0  0  0  0  0  0  0  0  0  0  0
  161.1240  208.7280  155.4680 C   0  0  0  0  0  3  0  0  0  0  0  0
  161.4510  209.7150  154.5260 C   0  0  0  0  0  3  0  0  0  0  0  0
  161.9810  209.9260  150.9130 C   0  0  0  0  0  0  0  0  0  0  0  0
  161.3570  208.0150  152.8090 C   0  0  0  0  0  0  0  0  0  0  0  0
  162.3200  209.7950  148.2430 S   0  0  0  0  0  0  0  0  0  0  0  0
  160.9200  207.4340  155.0800 N   0  0  0  0  0  0  0  0  0  0  0  0
  161.2730  206.3110  151.0470 C   0  0  0  0  0  0  0  0  0  0  0  0
  160.8110  205.7300  153.3840 C   0  0  0  0  0  3  0  0  0  0  0  0
  161.8810  210.2940  152.2250 N   0  0  0  0  0  0  0  0  0  0  0  0
  161.7190  207.0480  148.7480 C   0  0  0  0  0  3  0  0  0  0  0  0
  161.4030  206.0010  149.6550 C   0  0  0  0  0  0  0  0  0  0  0  0
  162.3050  210.8410  149.7760 C   0  0  1  0  0  3  0  0  0  0  0  0
  161.7840  208.6220  150.5420 C   0  0  0  0  0  0  0  0  0  0  0  0
  160.9300  205.3610  152.0310 C   0  0  0  0  0  3  0  0  0  0  0  0
  161.2360  203.0670  147.2340 C   0  0  0  0  0  0  0  0  0  0  0  0
  160.8300  202.0370  148.0840 C   0  0  0  0  0  3  0  0  0  0  0  0
  161.2270  204.6290  149.1030 C   0  0  0  0  0  0  0  0  0  0  0  0
  160.6140  202.2950  149.4390 C   0  0  0  0  0  3  0  0  0  0  0  0
  161.4290  204.3550  147.7400 C   0  0  0  0  0  3  0  0  0  0  0  0
  160.8080  203.5830  149.9440 C   0  0  0  0  0  3  0  0  0  0  0  0
  161.4410  202.8190  145.9180 F   0  0  0  0  0  0  0  0  0  0  0  0
  161.2360  211.9140  149.6580 C   0  0  0  0  0  2  0  0  0  0  0  0
  160.6650  211.8960  148.3200 N   0  0  0  0  0  2  0  0  0  0  0  0
  160.0750  211.3590  145.6370 F   0  0  0  0  0  0  0  0  0  0  0  0
  161.1880  212.6920  147.2540 C   0  0  0  0  0  0  0  0  0  0  0  0
  160.5150  212.6430  145.9060 C   0  0  1  0  0  3  0  0  0  0  0  0
  162.0580  214.4400  145.1590 C   0  0  0  0  0  2  0  0  0  0  0  0
  162.7020  214.3370  146.4630 N   0  0  0  0  0  2  0  0  0  0  0  0
  162.1820  213.5050  147.4710 N   0  0  0  0  0  0  0  0  0  0  0  0
  161.4590  213.0930  144.7950 C   0  0  0  0  0  2  0  0  0  0  0  0
  1 10  1  0  0  0  0
  2  6  2  0  0  0  0
  3  8  1  0  0  0  0
  4 17  1  0  0  0  0
  6  5  1  0  0  0  0
  7 13  2  0  0  0  0
  8  2  1  0  0  0  0
  8  1  2  0  0  0  0
  9  4  1  0  0  0  0
  9 16  1  0  0  0  0
 10  5  2  0  0  0  0
 11  3  1  0  0  0  0
 11 18  1  0  0  0  0
 12  1  1  0  0  0  0
 13  2  1  0  0  0  0
 14  4  2  0  0  0  0
 14 15  1  0  0  0  0
 15 11  2  0  0  0  0
 16 26  1  6  0  0  0
 16  7  1  0  0  0  0
 17  7  1  0  0  0  0
 17  3  2  0  0  0  0
 18 12  2  0  0  0  0
 19 23  2  0  0  0  0
 19 20  1  0  0  0  0
 20 22  2  0  0  0  0
 21 15  1  0  0  0  0
 21 24  2  0  0  0  0
 22 24  1  0  0  0  0
 23 21  1  0  0  0  0
 25 19  1  0  0  0  0
 27 26  1  0  0  0  0
 29 33  2  0  0  0  0
 29 27  1  0  0  0  0
 30 28  1  6  0  0  0
 30 29  1  0  0  0  0
 31 32  1  0  0  0  0
 32 33  1  0  0  0  0
 34 31  1  0  0  0  0
 34 30  1  0  0  0  0
M  END
>  <MODEL>
6

>  <REMARK>
 VINA RESULT:      -9.8      1.375      1.719
  Name = 
  3 active torsions:
  status: ('A' for Active; 'I' for Inactive)
    1  A    between atoms: N_3  and  C_17
    2  A    between atoms: C_12  and  C_28
    3  A    between atoms: C_17  and  C_29
                            x       y       z     vdW  Elec       q    Type
                         _______ _______ _______ _____ _____    ______ ____

>  <TORSDO>
F 3

$$$$
=
 OpenBabel11062407423D

 34 40  0  0  1  0  0  0  0  0999 V2000
  161.9550  208.8190  149.0140 C   0  0  0  0  0  0  0  0  0  0  0  0
  161.6190  210.0970  151.0670 C   0  0  0  0  0  0  0  0  0  0  0  0
  161.3870  207.6790  151.0760 C   0  0  0  0  0  0  0  0  0  0  0  0
  160.8490  206.6670  153.1860 C   0  0  0  0  0  0  0  0  0  0  0  0
  162.1800  211.1860  148.9860 C   0  0  0  0  0  3  0  0  0  0  0  0
  161.8860  211.2680  150.3550 C   0  0  0  0  0  3  0  0  0  0  0  0
  161.0870  208.9670  153.0840 C   0  0  0  0  0  0  0  0  0  0  0  0
  161.6530  208.8610  150.3810 C   0  0  0  0  0  0  0  0  0  0  0  0
  160.5170  207.0590  154.8990 S   0  0  0  0  0  0  0  0  0  0  0  0
  162.2100  209.9780  148.3500 N   0  0  0  0  0  0  0  0  0  0  0  0
  161.4050  206.4220  150.4370 C   0  0  0  0  0  0  0  0  0  0  0  0
  161.9930  207.5810  148.3570 C   0  0  0  0  0  3  0  0  0  0  0  0
  161.3350  210.1280  152.4070 N   0  0  0  0  0  0  0  0  0  0  0  0
  160.8550  205.3970  152.6000 C   0  0  0  0  0  3  0  0  0  0  0  0
  161.1280  205.2510  151.2130 C   0  0  0  0  0  0  0  0  0  0  0  0
  160.7720  208.8630  154.5420 C   0  0  1  0  0  3  0  0  0  0  0  0
  161.1090  207.7650  152.4290 C   0  0  0  0  0  0  0  0  0  0  0  0
  161.7230  206.3940  149.0640 C   0  0  0  0  0  3  0  0  0  0  0  0
  160.8670  202.3610  148.7470 C   0  0  0  0  0  0  0  0  0  0  0  0
  161.0190  201.2640  149.5970 C   0  0  0  0  0  3  0  0  0  0  0  0
  161.1080  203.8770  150.6390 C   0  0  0  0  0  0  0  0  0  0  0  0
  161.2090  201.4640  150.9650 C   0  0  0  0  0  3  0  0  0  0  0  0
  160.9070  203.6580  149.2650 C   0  0  0  0  0  3  0  0  0  0  0  0
  161.2500  202.7610  151.4830 C   0  0  0  0  0  3  0  0  0  0  0  0
  160.6770  202.1690  147.4190 F   0  0  0  0  0  0  0  0  0  0  0  0
  161.9380  209.3900  155.3600 C   0  0  0  0  0  2  0  0  0  0  0  0
  161.6730  210.7600  155.7720 N   0  0  0  0  0  2  0  0  0  0  0  0
  161.1760  213.1000  157.2260 F   0  0  0  0  0  0  0  0  0  0  0  0
  160.3480  211.2510  155.9900 C   0  0  0  0  0  0  0  0  0  0  0  0
  160.1580  212.6940  156.3820 C   0  0  1  0  0  3  0  0  0  0  0  0
  157.7070  212.3340  156.2110 C   0  0  0  0  0  2  0  0  0  0  0  0
  157.9990  210.9320  155.9380 N   0  0  0  0  0  2  0  0  0  0  0  0
  159.3210  210.4790  155.7760 N   0  0  0  0  0  0  0  0  0  0  0  0
  158.8160  212.9120  157.0730 C   0  0  0  0  0  2  0  0  0  0  0  0
  1  8  1  0  0  0  0
  2 13  1  0  0  0  0
  3 17  1  0  0  0  0
  4  9  1  0  0  0  0
  5  6  1  0  0  0  0
  6  2  2  0  0  0  0
  7 16  1  0  0  0  0
  8  2  1  0  0  0  0
  8  3  2  0  0  0  0
 10  5  2  0  0  0  0
 10  1  1  0  0  0  0
 11  3  1  0  0  0  0
 11 15  1  0  0  0  0
 12  1  2  0  0  0  0
 12 18  1  0  0  0  0
 13  7  2  0  0  0  0
 14  4  1  0  0  0  0
 15 14  2  0  0  0  0
 16  9  1  0  0  0  0
 16 26  1  1  0  0  0
 17  7  1  0  0  0  0
 17  4  2  0  0  0  0
 18 11  2  0  0  0  0
 19 23  2  0  0  0  0
 19 20  1  0  0  0  0
 20 22  2  0  0  0  0
 21 15  1  0  0  0  0
 21 24  2  0  0  0  0
 22 24  1  0  0  0  0
 23 21  1  0  0  0  0
 25 19  1  0  0  0  0
 26 27  1  0  0  0  0
 27 29  1  0  0  0  0
 29 30  1  0  0  0  0
 30 34  1  0  0  0  0
 30 28  1  1  0  0  0
 31 34  1  0  0  0  0
 32 31  1  0  0  0  0
 33 32  1  0  0  0  0
 33 29  2  0  0  0  0
M  END
>  <MODEL>
7

>  <REMARK>
 VINA RESULT:      -9.7      3.160      6.019
  Name = 
  3 active torsions:
  status: ('A' for Active; 'I' for Inactive)
    1  A    between atoms: N_3  and  C_17
    2  A    between atoms: C_12  and  C_28
    3  A    between atoms: C_17  and  C_29
                            x       y       z     vdW  Elec       q    Type
                         _______ _______ _______ _____ _____    ______ ____

>  <TORSDO>
F 3

$$$$
=
 OpenBabel11062407423D

 34 40  0  0  1  0  0  0  0  0999 V2000
  161.0360  206.3140  152.9610 C   0  0  0  0  0  0  0  0  0  0  0  0
  161.3450  208.7290  153.1420 C   0  0  0  0  0  0  0  0  0  0  0  0
  161.4800  207.6340  150.9770 C   0  0  0  0  0  0  0  0  0  0  0  0
  161.8970  209.0550  149.0880 C   0  0  0  0  0  0  0  0  0  0  0  0
  160.9060  207.3690  155.0880 C   0  0  0  0  0  3  0  0  0  0  0  0
  161.1520  208.6280  154.5210 C   0  0  0  0  0  3  0  0  0  0  0  0
  161.7550  210.0140  151.1900 C   0  0  0  0  0  0  0  0  0  0  0  0
  161.2870  207.5540  152.3590 C   0  0  0  0  0  0  0  0  0  0  0  0
  162.1800  210.7620  148.6370 S   0  0  0  0  0  0  0  0  0  0  0  0
  160.8530  206.2500  154.3070 N   0  0  0  0  0  0  0  0  0  0  0  0
  161.4360  206.4910  150.1540 C   0  0  0  0  0  0  0  0  0  0  0  0
  160.9740  205.1630  152.1630 C   0  0  0  0  0  3  0  0  0  0  0  0
  161.5800  209.9390  152.5430 N   0  0  0  0  0  0  0  0  0  0  0  0
  161.8630  207.9530  148.2270 C   0  0  0  0  0  3  0  0  0  0  0  0
  161.6360  206.6490  148.7440 C   0  0  0  0  0  0  0  0  0  0  0  0
  162.0100  211.2670  150.4150 C   0  0  1  0  0  3  0  0  0  0  0  0
  161.7090  208.8800  150.4220 C   0  0  0  0  0  0  0  0  0  0  0  0
  161.1690  205.2520  150.7720 C   0  0  0  0  0  3  0  0  0  0  0  0
  161.5770  204.6430  145.5090 C   0  0  0  0  0  0  0  0  0  0  0  0
  161.5420  203.3360  146.0000 C   0  0  0  0  0  3  0  0  0  0  0  0
  161.6230  205.5110  147.7840 C   0  0  0  0  0  0  0  0  0  0  0  0
  161.5400  203.1090  147.3770 C   0  0  0  0  0  3  0  0  0  0  0  0
  161.6140  205.7220  146.3950 C   0  0  0  0  0  3  0  0  0  0  0  0
  161.5780  204.1890  148.2640 C   0  0  0  0  0  3  0  0  0  0  0  0
  161.5740  204.8650  144.1720 F   0  0  0  0  0  0  0  0  0  0  0  0
  160.8360  212.2170  150.5720 C   0  0  0  0  0  2  0  0  0  0  0  0
  160.2850  212.5410  149.2650 N   0  0  0  0  0  2  0  0  0  0  0  0
  159.5140  213.8130  146.8930 F   0  0  0  0  0  0  0  0  0  0  0  0
  158.9890  213.1210  149.1020 C   0  0  0  0  0  0  0  0  0  0  0  0
  158.4790  213.3930  147.7100 C   0  0  1  0  0  3  0  0  0  0  0  0
  156.3130  214.0650  148.7220 C   0  0  0  0  0  2  0  0  0  0  0  0
  156.9360  213.8670  150.0250 N   0  0  0  0  0  2  0  0  0  0  0  0
  158.2340  213.3370  150.1410 N   0  0  0  0  0  0  0  0  0  0  0  0
  157.3820  214.4530  147.7150 C   0  0  0  0  0  2  0  0  0  0  0  0
  1 10  1  0  0  0  0
  2  6  2  0  0  0  0
  3  8  1  0  0  0  0
  4 17  1  0  0  0  0
  6  5  1  0  0  0  0
  7 13  2  0  0  0  0
  8  1  2  0  0  0  0
  8  2  1  0  0  0  0
  9  4  1  0  0  0  0
  9 16  1  0  0  0  0
 10  5  2  0  0  0  0
 11 18  1  0  0  0  0
 11  3  1  0  0  0  0
 12  1  1  0  0  0  0
 13  2  1  0  0  0  0
 14 15  1  0  0  0  0
 14  4  2  0  0  0  0
 15 11  2  0  0  0  0
 16 26  1  6  0  0  0
 16  7  1  0  0  0  0
 17  3  2  0  0  0  0
 17  7  1  0  0  0  0
 18 12  2  0  0  0  0
 19 20  2  0  0  0  0
 19 23  1  0  0  0  0
 20 22  1  0  0  0  0
 21 24  1  0  0  0  0
 21 15  1  0  0  0  0
 22 24  2  0  0  0  0
 23 21  2  0  0  0  0
 25 19  1  0  0  0  0
 27 26  1  0  0  0  0
 29 27  1  0  0  0  0
 29 33  2  0  0  0  0
 30 28  1  6  0  0  0
 30 34  1  0  0  0  0
 30 29  1  0  0  0  0
 31 32  1  0  0  0  0
 32 33  1  0  0  0  0
 34 31  1  0  0  0  0
M  END
>  <MODEL>
8

>  <REMARK>
 VINA RESULT:      -9.4      2.306      2.827
  Name = 
  3 active torsions:
  status: ('A' for Active; 'I' for Inactive)
    1  A    between atoms: N_3  and  C_17
    2  A    between atoms: C_12  and  C_28
    3  A    between atoms: C_17  and  C_29
                            x       y       z     vdW  Elec       q    Type
                         _______ _______ _______ _____ _____    ______ ____

>  <TORSDO>
F 3

$$$$
=
 OpenBabel11062407423D

 34 40  0  0  1  0  0  0  0  0999 V2000
  160.7290  212.8160  150.2630 C   0  0  0  0  0  0  0  0  0  0  0  0
  161.8370  210.8270  149.3820 C   0  0  0  0  0  0  0  0  0  0  0  0
  160.8460  210.7980  151.6000 C   0  0  0  0  0  0  0  0  0  0  0  0
  161.0050  208.7320  152.8120 C   0  0  0  0  0  0  0  0  0  0  0  0
  161.6990  212.8640  148.0920 C   0  0  0  0  0  3  0  0  0  0  0  0
  162.1190  211.5300  148.2090 C   0  0  0  0  0  3  0  0  0  0  0  0
  161.9240  208.8500  150.6910 C   0  0  0  0  0  0  0  0  0  0  0  0
  161.1360  211.4850  150.4180 C   0  0  0  0  0  0  0  0  0  0  0  0
  161.6420  207.0650  152.6900 S   0  0  0  0  0  0  0  0  0  0  0  0
  161.0200  213.4730  149.1080 N   0  0  0  0  0  0  0  0  0  0  0  0
  160.1530  211.4110  152.6640 C   0  0  0  0  0  0  0  0  0  0  0  0
  160.0270  213.4450  151.3000 C   0  0  0  0  0  3  0  0  0  0  0  0
  162.2210  209.5210  149.5380 N   0  0  0  0  0  0  0  0  0  0  0  0
  160.3210  209.2930  153.8960 C   0  0  0  0  0  3  0  0  0  0  0  0
  159.8860  210.6440  153.8440 C   0  0  0  0  0  0  0  0  0  0  0  0
  162.2780  207.4270  150.9830 C   0  0  1  0  0  3  0  0  0  0  0  0
  161.2520  209.4800  151.7050 C   0  0  0  0  0  0  0  0  0  0  0  0
  159.7390  212.7470  152.4880 C   0  0  0  0  0  3  0  0  0  0  0  0
  157.1210  211.6500  156.2620 C   0  0  0  0  0  0  0  0  0  0  0  0
  157.8550  212.2930  157.2600 C   0  0  0  0  0  3  0  0  0  0  0  0
  159.1740  211.1940  155.0310 C   0  0  0  0  0  0  0  0  0  0  0  0
  159.2420  212.3980  157.1490 C   0  0  0  0  0  3  0  0  0  0  0  0
  157.7760  211.1070  155.1530 C   0  0  0  0  0  3  0  0  0  0  0  0
  159.8970  211.8540  156.0400 C   0  0  0  0  0  3  0  0  0  0  0  0
  155.7740  211.5520  156.3660 F   0  0  0  0  0  0  0  0  0  0  0  0
  161.6030  206.5110  149.9770 C   0  0  0  0  0  2  0  0  0  0  0  0
  161.1950  205.2770  150.6290 N   0  0  0  0  0  2  0  0  0  0  0  0
  161.1240  202.8150  151.9600 F   0  0  0  0  0  0  0  0  0  0  0  0
  161.0920  204.0370  149.9260 C   0  0  0  0  0  0  0  0  0  0  0  0
  160.6270  202.8100  150.6690 C   0  0  1  0  0  3  0  0  0  0  0  0
  160.6520  201.5890  148.5070 C   0  0  0  0  0  2  0  0  0  0  0  0
  161.1940  202.8010  147.9040 N   0  0  0  0  0  2  0  0  0  0  0  0
  161.3230  203.9900  148.6450 N   0  0  0  0  0  0  0  0  0  0  0  0
  161.0700  201.5310  149.9660 C   0  0  0  0  0  2  0  0  0  0  0  0
  1  8  2  0  0  0  0
  1 12  1  0  0  0  0
  2 13  1  0  0  0  0
  2  8  1  0  0  0  0
  3 17  1  0  0  0  0
  3 11  2  0  0  0  0
  4 14  1  0  0  0  0
  5  6  1  0  0  0  0
  5 10  2  0  0  0  0
  6  2  2  0  0  0  0
  7 16  1  0  0  0  0
  7 17  1  0  0  0  0
  8  3  1  0  0  0  0
  9  4  1  0  0  0  0
 10  1  1  0  0  0  0
 11 15  1  0  0  0  0
 12 18  2  0  0  0  0
 13  7  2  0  0  0  0
 15 14  2  0  0  0  0
 15 21  1  0  0  0  0
 16 26  1  6  0  0  0
 16  9  1  0  0  0  0
 17  4  2  0  0  0  0
 18 11  1  0  0  0  0
 19 25  1  0  0  0  0
 19 20  1  0  0  0  0
 21 23  1  0  0  0  0
 21 24  2  0  0  0  0
 22 20  2  0  0  0  0
 23 19  2  0  0  0  0
 24 22  1  0  0  0  0
 26 27  1  0  0  0  0
 29 27  1  0  0  0  0
 29 30  1  0  0  0  0
 30 28  1  1  0  0  0
 31 34  1  0  0  0  0
 32 31  1  0  0  0  0
 32 33  1  0  0  0  0
 33 29  2  0  0  0  0
 34 30  1  0  0  0  0
M  END
>  <MODEL>
9

>  <REMARK>
 VINA RESULT:      -9.0      3.823      8.440
  Name = 
  3 active torsions:
  status: ('A' for Active; 'I' for Inactive)
    1  A    between atoms: N_3  and  C_17
    2  A    between atoms: C_12  and  C_28
    3  A    between atoms: C_17  and  C_29
                            x       y       z     vdW  Elec       q    Type
                         _______ _______ _______ _____ _____    ______ ____

>  <TORSDO>
F 3

$$$$
