=
 OpenBabel11062407443D

 34 38  0  0  1  0  0  0  0  0999 V2000
  161.5190  209.0490  155.5270 C   0  0  2  0  0  3  0  0  0  0  0  0
  160.7810  207.6600  153.5500 C   0  0  1  0  0  3  0  0  0  0  0  0
  160.7780  210.2160  153.4890 C   0  0  0  0  0  0  0  0  0  0  0  0
  159.8460  212.4120  151.5060 C   0  0  0  0  0  3  0  0  0  0  0  0
  161.2770  206.5500  154.2370 O   0  0  0  0  0  1  0  0  0  0  0  0
  160.9010  208.8860  151.3760 C   0  0  0  0  0  2  0  0  0  0  0  0
  161.0410  208.9690  154.2670 C   0  0  2  0  0  3  0  0  0  0  0  0
  160.7370  211.4320  151.3080 C   0  0  0  0  0  0  0  0  0  0  0  0
  160.4570  211.5100  154.2080 C   0  0  1  0  0  3  0  0  0  0  0  0
  162.2200  210.6090  156.1100 S   0  0  0  0  0  0  0  0  0  0  0  0
  161.4670  207.7320  152.1960 C   0  0  0  0  0  2  0  0  0  0  0  0
  158.8610  212.4700  152.6020 C   0  0  0  0  0  3  0  0  0  0  0  0
  159.0730  212.0030  153.8380 C   0  0  0  0  0  0  0  0  0  0  0  0
  160.8210  210.1930  152.1340 C   0  0  0  0  0  0  0  0  0  0  0  0
  160.6980  211.5000  155.7220 C   0  0  0  0  0  2  0  0  0  0  0  0
  155.8480  210.8690  155.4820 C   0  0  0  0  0  0  0  0  0  0  0  0
  155.7000  211.8260  156.4890 C   0  0  0  0  0  3  0  0  0  0  0  0
  157.9190  211.9300  154.7680 C   0  0  0  0  0  0  0  0  0  0  0  0
  156.6510  212.8380  156.6370 C   0  0  0  0  0  3  0  0  0  0  0  0
  156.9490  210.9240  154.6250 C   0  0  0  0  0  3  0  0  0  0  0  0
  157.7530  212.8920  155.7780 C   0  0  0  0  0  3  0  0  0  0  0  0
  154.9230  209.8910  155.3360 F   0  0  0  0  0  0  0  0  0  0  0  0
  160.4240  207.6680  157.2610 C   0  0  0  0  0  1  0  0  0  0  0  0
  161.4990  207.9350  156.3720 O   0  0  0  0  0  0  0  0  0  0  0  0
  161.6260  211.5540  150.1180 C   0  0  0  0  0  2  0  0  0  0  0  0
  161.2200  213.0660  149.1990 S   0  0  0  0  0  0  0  0  0  0  0  0
  161.3920  212.2160  147.6050 C   0  0  0  0  0  2  0  0  0  0  0  0
  162.8940  213.1060  145.4680 O   0  0  0  0  0  1  0  0  0  0  0  0
  160.6920  213.0070  146.5090 C   0  0  1  0  0  3  0  0  0  0  0  0
  161.6640  213.7640  145.5620 C   0  0  2  0  0  3  0  0  0  0  0  0
  159.6810  214.2000  144.2600 C   0  0  0  0  0  2  0  0  0  0  0  0
  158.9350  212.9400  144.7140 C   0  0  0  0  0  2  0  0  0  0  0  0
  159.7470  212.1120  145.7160 C   0  0  0  0  0  2  0  0  0  0  0  0
  161.1200  213.9480  144.2090 N   0  0  0  0  0  2  0  0  0  0  0  0
  1 10  1  0  0  0  0
  1 24  1  6  0  0  0
  2  5  1  1  0  0  0
  2  7  1  0  0  0  0
  3  9  1  0  0  0  0
  4 12  1  0  0  0  0
  6 14  1  0  0  0  0
  6 11  1  0  0  0  0
  7  3  1  6  0  0  0
  7  1  1  0  0  0  0
  8  4  2  0  0  0  0
  8 14  1  0  0  0  0
  9 15  1  1  0  0  0
 11  2  1  0  0  0  0
 12 13  2  0  0  0  0
 13  9  1  0  0  0  0
 13 18  1  0  0  0  0
 14  3  2  0  0  0  0
 15 10  1  0  0  0  0
 16 17  1  0  0  0  0
 17 19  2  0  0  0  0
 18 21  2  0  0  0  0
 20 18  1  0  0  0  0
 20 16  2  0  0  0  0
 21 19  1  0  0  0  0
 22 16  1  0  0  0  0
 24 23  1  0  0  0  0
 25  8  1  0  0  0  0
 26 25  1  0  0  0  0
 27 26  1  0  0  0  0
 29 27  1  1  0  0  0
 30 28  1  6  0  0  0
 30 29  1  0  0  0  0
 31 32  1  0  0  0  0
 32 33  1  0  0  0  0
 33 29  1  0  0  0  0
 34 31  1  0  0  0  0
 34 30  1  0  0  0  0
M  END
>  <MODEL>
1

>  <REMARK>
 VINA RESULT:      -6.0      0.000      0.000
  Name = 
  6 active torsions:
  status: ('A' for Active; 'I' for Inactive)
    1  A    between atoms: C_1  and  O_19
    2  A    between atoms: C_3  and  C_13
    3  A    between atoms: C_3  and  S_17
    4  A    between atoms: C_12  and  C_28
    5  A    between atoms: S_17  and  C_29
    6  A    between atoms: C_18  and  C_29
                            x       y       z     vdW  Elec       q    Type
                         _______ _______ _______ _____ _____    ______ ____

>  <TORSDO>
F 6

$$$$
=
 OpenBabel11062407443D

 34 38  0  0  1  0  0  0  0  0999 V2000
  161.5140  208.6160  155.9130 C   0  0  2  0  0  3  0  0  0  0  0  0
  160.7030  206.9070  154.2380 C   0  0  1  0  0  3  0  0  0  0  0  0
  161.2190  209.3210  153.5720 C   0  0  0  0  0  0  0  0  0  0  0  0
  160.9400  211.0510  151.0120 C   0  0  0  0  0  3  0  0  0  0  0  0
  160.8970  205.9460  155.2320 O   0  0  0  0  0  1  0  0  0  0  0  0
  161.2720  207.4860  151.8760 C   0  0  0  0  0  2  0  0  0  0  0  0
  161.1510  208.2930  154.6530 C   0  0  2  0  0  3  0  0  0  0  0  0
  161.6310  209.9160  151.1820 C   0  0  0  0  0  0  0  0  0  0  0  0
  161.0980  210.7930  153.9100 C   0  0  1  0  0  3  0  0  0  0  0  0
  162.4560  210.1300  156.2030 S   0  0  0  0  0  0  0  0  0  0  0  0
  161.5140  206.5060  153.0180 C   0  0  0  0  0  2  0  0  0  0  0  0
  159.8880  211.5590  151.9120 C   0  0  0  0  0  3  0  0  0  0  0  0
  159.8830  211.4010  153.2400 C   0  0  0  0  0  0  0  0  0  0  0  0
  161.3850  208.9390  152.2810 C   0  0  0  0  0  0  0  0  0  0  0  0
  161.1870  211.1360  155.4010 C   0  0  0  0  0  2  0  0  0  0  0  0
  156.7230  213.2180  154.2880 C   0  0  0  0  0  0  0  0  0  0  0  0
  156.3630  212.5090  155.4370 C   0  0  0  0  0  3  0  0  0  0  0  0
  158.6550  211.7700  153.9870 C   0  0  0  0  0  0  0  0  0  0  0  0
  157.1470  211.4360  155.8680 C   0  0  0  0  0  3  0  0  0  0  0  0
  157.8640  212.8530  153.5700 C   0  0  0  0  0  3  0  0  0  0  0  0
  158.2890  211.0710  155.1490 C   0  0  0  0  0  3  0  0  0  0  0  0
  155.9660  214.2620  153.8730 F   0  0  0  0  0  0  0  0  0  0  0  0
  159.8590  207.3670  157.2610 C   0  0  0  0  0  1  0  0  0  0  0  0
  161.1900  207.7800  156.9870 O   0  0  0  0  0  0  0  0  0  0  0  0
  162.6350  209.5700  150.1360 C   0  0  0  0  0  2  0  0  0  0  0  0
  161.7940  209.2450  148.5600 S   0  0  0  0  0  0  0  0  0  0  0  0
  161.2780  207.5930  149.1070 C   0  0  0  0  0  2  0  0  0  0  0  0
  160.4790  204.9770  149.4700 O   0  0  0  0  0  1  0  0  0  0  0  0
  161.8310  206.5310  148.1670 C   0  0  1  0  0  3  0  0  0  0  0  0
  161.6210  205.0770  148.6700 C   0  0  2  0  0  3  0  0  0  0  0  0
  162.4200  204.4560  146.4810 C   0  0  0  0  0  2  0  0  0  0  0  0
  161.9380  205.7350  145.7870 C   0  0  0  0  0  2  0  0  0  0  0  0
  161.2680  206.7080  146.7620 C   0  0  0  0  0  2  0  0  0  0  0  0
  161.5190  204.1000  147.5750 N   0  0  0  0  0  2  0  0  0  0  0  0
  1 10  1  0  0  0  0
  1 24  1  6  0  0  0
  2  7  1  0  0  0  0
  2  5  1  1  0  0  0
  3  9  1  0  0  0  0
  4  8  2  0  0  0  0
  4 12  1  0  0  0  0
  6 14  1  0  0  0  0
  6 11  1  0  0  0  0
  7  3  1  6  0  0  0
  7  1  1  0  0  0  0
  8 14  1  0  0  0  0
  9 15  1  1  0  0  0
 11  2  1  0  0  0  0
 12 13  2  0  0  0  0
 13  9  1  0  0  0  0
 13 18  1  0  0  0  0
 14  3  2  0  0  0  0
 15 10  1  0  0  0  0
 16 17  1  0  0  0  0
 17 19  2  0  0  0  0
 18 21  2  0  0  0  0
 20 18  1  0  0  0  0
 20 16  2  0  0  0  0
 21 19  1  0  0  0  0
 22 16  1  0  0  0  0
 24 23  1  0  0  0  0
 25  8  1  0  0  0  0
 26 27  1  0  0  0  0
 26 25  1  0  0  0  0
 29 30  1  0  0  0  0
 29 27  1  1  0  0  0
 30 28  1  6  0  0  0
 31 34  1  0  0  0  0
 32 31  1  0  0  0  0
 32 33  1  0  0  0  0
 33 29  1  0  0  0  0
 34 30  1  0  0  0  0
M  END
>  <MODEL>
2

>  <REMARK>
 VINA RESULT:      -4.9      3.716      4.349
  Name = 
  6 active torsions:
  status: ('A' for Active; 'I' for Inactive)
    1  A    between atoms: C_1  and  O_19
    2  A    between atoms: C_3  and  C_13
    3  A    between atoms: C_3  and  S_17
    4  A    between atoms: C_12  and  C_28
    5  A    between atoms: S_17  and  C_29
    6  A    between atoms: C_18  and  C_29
                            x       y       z     vdW  Elec       q    Type
                         _______ _______ _______ _____ _____    ______ ____

>  <TORSDO>
F 6

$$$$
=
 OpenBabel11062407443D

 34 38  0  0  1  0  0  0  0  0999 V2000
  162.4430  205.4630  146.3460 C   0  0  2  0  0  3  0  0  0  0  0  0
  160.3050  206.3470  147.3640 C   0  0  1  0  0  3  0  0  0  0  0  0
  161.5260  204.3170  148.3240 C   0  0  0  0  0  0  0  0  0  0  0  0
  160.9980  202.2300  150.5580 C   0  0  0  0  0  3  0  0  0  0  0  0
  160.4450  207.4510  146.5190 O   0  0  0  0  0  1  0  0  0  0  0  0
  159.9930  205.6810  149.7510 C   0  0  0  0  0  2  0  0  0  0  0  0
  161.4680  205.3810  147.2780 C   0  0  2  0  0  3  0  0  0  0  0  0
  161.0870  203.5630  150.6640 C   0  0  0  0  0  0  0  0  0  0  0  0
  162.2540  203.0160  148.0500 C   0  0  1  0  0  3  0  0  0  0  0  0
  163.9940  204.5750  146.6070 S   0  0  0  0  0  0  0  0  0  0  0  0
  160.2240  206.8460  148.7960 C   0  0  0  0  0  2  0  0  0  0  0  0
  160.8030  201.4790  149.3050 C   0  0  0  0  0  3  0  0  0  0  0  0
  161.3010  201.8410  148.1180 C   0  0  0  0  0  0  0  0  0  0  0  0
  160.9230  204.5090  149.5230 C   0  0  0  0  0  0  0  0  0  0  0  0
  163.1240  203.0020  146.7880 C   0  0  0  0  0  2  0  0  0  0  0  0
  160.8550  199.1190  145.5130 C   0  0  0  0  0  0  0  0  0  0  0  0
  160.0150  199.7510  144.5930 C   0  0  0  0  0  3  0  0  0  0  0  0
  160.8390  201.1110  146.9100 C   0  0  0  0  0  0  0  0  0  0  0  0
  159.5900  201.0620  144.8210 C   0  0  0  0  0  3  0  0  0  0  0  0
  161.2670  199.7970  146.6630 C   0  0  0  0  0  3  0  0  0  0  0  0
  160.0030  201.7400  145.9720 C   0  0  0  0  0  3  0  0  0  0  0  0
  161.2710  197.8500  145.2890 F   0  0  0  0  0  0  0  0  0  0  0  0
  161.6060  205.7690  144.0400 C   0  0  0  0  0  1  0  0  0  0  0  0
  162.2710  206.2460  145.2000 O   0  0  0  0  0  0  0  0  0  0  0  0
  161.2560  204.1250  152.0340 C   0  0  0  0  0  2  0  0  0  0  0  0
  162.2740  205.6280  151.9600 S   0  0  0  0  0  0  0  0  0  0  0  0
  161.2070  206.4800  153.1560 C   0  0  0  0  0  2  0  0  0  0  0  0
  161.5570  208.4760  155.0300 O   0  0  0  0  0  1  0  0  0  0  0  0
  160.9830  207.9240  152.7260 C   0  0  1  0  0  3  0  0  0  0  0  0
  160.8440  208.9170  153.9120 C   0  0  2  0  0  3  0  0  0  0  0  0
  160.9340  210.6090  152.1960 C   0  0  0  0  0  2  0  0  0  0  0  0
  161.7660  209.7730  151.2160 C   0  0  0  0  0  2  0  0  0  0  0  0
  162.0740  208.3750  151.7630 C   0  0  0  0  0  2  0  0  0  0  0  0
  161.2870  210.2780  153.5750 N   0  0  0  0  0  2  0  0  0  0  0  0
  1 24  1  1  0  0  0
  1 10  1  0  0  0  0
  1  7  1  0  0  0  0
  2  5  1  6  0  0  0
  2 11  1  0  0  0  0
  3 14  2  0  0  0  0
  4  8  2  0  0  0  0
  7  2  1  0  0  0  0
  7  3  1  1  0  0  0
  8 25  1  0  0  0  0
  9 15  1  6  0  0  0
  9 13  1  0  0  0  0
  9  3  1  0  0  0  0
 10 15  1  0  0  0  0
 11  6  1  0  0  0  0
 12  4  1  0  0  0  0
 13 12  2  0  0  0  0
 14  6  1  0  0  0  0
 14  8  1  0  0  0  0
 16 20  1  0  0  0  0
 17 19  1  0  0  0  0
 17 16  2  0  0  0  0
 18 13  1  0  0  0  0
 19 21  2  0  0  0  0
 20 18  2  0  0  0  0
 21 18  1  0  0  0  0
 22 16  1  0  0  0  0
 23 24  1  0  0  0  0
 26 25  1  0  0  0  0
 26 27  1  0  0  0  0
 29 27  1  1  0  0  0
 29 30  1  0  0  0  0
 30 28  1  1  0  0  0
 31 34  1  0  0  0  0
 32 33  1  0  0  0  0
 32 31  1  0  0  0  0
 33 29  1  0  0  0  0
 34 30  1  0  0  0  0
M  END
>  <MODEL>
3

>  <REMARK>
 VINA RESULT:      -4.5      6.995     10.926
  Name = 
  6 active torsions:
  status: ('A' for Active; 'I' for Inactive)
    1  A    between atoms: C_1  and  O_19
    2  A    between atoms: C_3  and  C_13
    3  A    between atoms: C_3  and  S_17
    4  A    between atoms: C_12  and  C_28
    5  A    between atoms: S_17  and  C_29
    6  A    between atoms: C_18  and  C_29
                            x       y       z     vdW  Elec       q    Type
                         _______ _______ _______ _____ _____    ______ ____

>  <TORSDO>
F 6

$$$$
=
 OpenBabel11062407443D

 34 38  0  0  1  0  0  0  0  0999 V2000
  161.7320  210.6390  155.7910 C   0  0  2  0  0  3  0  0  0  0  0  0
  159.5850  209.3260  156.0060 C   0  0  1  0  0  3  0  0  0  0  0  0
  161.2490  208.9030  154.1120 C   0  0  0  0  0  0  0  0  0  0  0  0
  161.3440  207.1430  151.5590 C   0  0  0  0  0  3  0  0  0  0  0  0
  159.4320  209.9190  157.2610 O   0  0  0  0  0  1  0  0  0  0  0  0
  159.6450  207.1240  154.8270 C   0  0  0  0  0  2  0  0  0  0  0  0
  160.8900  209.6890  155.3300 C   0  0  2  0  0  3  0  0  0  0  0  0
  161.1960  206.7580  152.8340 C   0  0  0  0  0  0  0  0  0  0  0  0
  162.1710  209.4950  153.0660 C   0  0  1  0  0  3  0  0  0  0  0  0
  163.4390  210.6720  155.1980 S   0  0  0  0  0  0  0  0  0  0  0  0
  159.5600  207.8180  156.1820 C   0  0  0  0  0  2  0  0  0  0  0  0
  161.1630  208.5150  151.0490 C   0  0  0  0  0  3  0  0  0  0  0  0
  161.4610  209.6240  151.7330 C   0  0  0  0  0  0  0  0  0  0  0  0
  160.7460  207.6560  153.9360 C   0  0  0  0  0  0  0  0  0  0  0  0
  162.8960  210.7810  153.4790 C   0  0  0  0  0  2  0  0  0  0  0  0
  161.1570  212.6520  149.4680 C   0  0  0  0  0  0  0  0  0  0  0  0
  160.2330  213.4300  150.1690 C   0  0  0  0  0  3  0  0  0  0  0  0
  161.0200  210.9300  151.1820 C   0  0  0  0  0  0  0  0  0  0  0  0
  159.7050  212.9690  151.3770 C   0  0  0  0  0  3  0  0  0  0  0  0
  161.5510  211.4110  149.9740 C   0  0  0  0  0  3  0  0  0  0  0  0
  160.0990  211.7270  151.8830 C   0  0  0  0  0  3  0  0  0  0  0  0
  161.6740  213.1020  148.2990 F   0  0  0  0  0  0  0  0  0  0  0  0
  160.5110  212.7030  156.3910 C   0  0  0  0  0  1  0  0  0  0  0  0
  161.3040  211.5770  156.7360 O   0  0  0  0  0  0  0  0  0  0  0  0
  161.3990  205.3120  153.1330 C   0  0  0  0  0  2  0  0  0  0  0  0
  162.4990  204.5750  151.8900 S   0  0  0  0  0  0  0  0  0  0  0  0
  161.1290  203.6490  151.1420 C   0  0  0  0  0  2  0  0  0  0  0  0
  159.6840  201.6820  149.8520 O   0  0  0  0  0  1  0  0  0  0  0  0
  161.4120  203.3930  149.6670 C   0  0  1  0  0  3  0  0  0  0  0  0
  160.8290  202.0530  149.1400 C   0  0  2  0  0  3  0  0  0  0  0  0
  161.4850  202.8920  146.9760 C   0  0  0  0  0  2  0  0  0  0  0  0
  161.3580  204.3720  147.3550 C   0  0  0  0  0  2  0  0  0  0  0  0
  160.9390  204.5650  148.8160 C   0  0  0  0  0  2  0  0  0  0  0  0
  160.5030  202.0930  147.7070 N   0  0  0  0  0  2  0  0  0  0  0  0
  1 24  1  1  0  0  0
  2 11  1  0  0  0  0
  2  5  1  1  0  0  0
  4  8  2  0  0  0  0
  6 11  1  0  0  0  0
  7  3  1  1  0  0  0
  7  1  1  0  0  0  0
  7  2  1  0  0  0  0
  8 25  1  0  0  0  0
  8 14  1  0  0  0  0
  9 15  1  1  0  0  0
  9  3  1  0  0  0  0
 10  1  1  0  0  0  0
 12  4  1  0  0  0  0
 12 13  2  0  0  0  0
 13  9  1  0  0  0  0
 14  3  2  0  0  0  0
 14  6  1  0  0  0  0
 15 10  1  0  0  0  0
 16 20  2  0  0  0  0
 16 17  1  0  0  0  0
 17 19  2  0  0  0  0
 18 13  1  0  0  0  0
 18 21  2  0  0  0  0
 19 21  1  0  0  0  0
 20 18  1  0  0  0  0
 22 16  1  0  0  0  0
 23 24  1  0  0  0  0
 26 25  1  0  0  0  0
 27 26  1  0  0  0  0
 29 27  1  1  0  0  0
 30 29  1  0  0  0  0
 30 28  1  1  0  0  0
 31 32  1  0  0  0  0
 31 34  1  0  0  0  0
 32 33  1  0  0  0  0
 33 29  1  0  0  0  0
 34 30  1  0  0  0  0
M  END
>  <MODEL>
4

>  <REMARK>
 VINA RESULT:      -4.4      4.479      7.023
  Name = 
  6 active torsions:
  status: ('A' for Active; 'I' for Inactive)
    1  A    between atoms: C_1  and  O_19
    2  A    between atoms: C_3  and  C_13
    3  A    between atoms: C_3  and  S_17
    4  A    between atoms: C_12  and  C_28
    5  A    between atoms: S_17  and  C_29
    6  A    between atoms: C_18  and  C_29
                            x       y       z     vdW  Elec       q    Type
                         _______ _______ _______ _____ _____    ______ ____

>  <TORSDO>
F 6

$$$$
=
 OpenBabel11062407443D

 34 38  0  0  1  0  0  0  0  0999 V2000
  160.8870  213.1110  146.8860 C   0  0  2  0  0  3  0  0  0  0  0  0
  158.4150  212.9220  147.3720 C   0  0  1  0  0  3  0  0  0  0  0  0
  160.1710  212.8510  149.2280 C   0  0  0  0  0  0  0  0  0  0  0  0
  160.1810  212.3580  152.2920 C   0  0  0  0  0  3  0  0  0  0  0  0
  158.1990  213.2710  146.0370 O   0  0  0  0  0  1  0  0  0  0  0  0
  157.8160  213.5270  149.7210 C   0  0  0  0  0  2  0  0  0  0  0  0
  159.8760  212.9570  147.7690 C   0  0  2  0  0  3  0  0  0  0  0  0
  159.5290  213.3020  151.5990 C   0  0  0  0  0  0  0  0  0  0  0  0
  161.5110  212.3230  149.7000 C   0  0  1  0  0  3  0  0  0  0  0  0
  162.5190  213.5990  147.4870 S   0  0  0  0  0  0  0  0  0  0  0  0
  157.6740  213.9130  148.2530 C   0  0  0  0  0  2  0  0  0  0  0  0
  160.7790  211.1350  151.7240 C   0  0  0  0  0  3  0  0  0  0  0  0
  161.3350  211.0560  150.5110 C   0  0  0  0  0  0  0  0  0  0  0  0
  159.2380  213.2230  150.1390 C   0  0  0  0  0  0  0  0  0  0  0  0
  162.5850  212.1890  148.6140 C   0  0  0  0  0  2  0  0  0  0  0  0
  162.1860  207.3610  150.3760 C   0  0  0  0  0  0  0  0  0  0  0  0
  162.4350  207.1840  149.0130 C   0  0  0  0  0  3  0  0  0  0  0  0
  161.6940  209.7130  149.9900 C   0  0  0  0  0  0  0  0  0  0  0  0
  162.3230  208.2660  148.1360 C   0  0  0  0  0  3  0  0  0  0  0  0
  161.8220  208.6190  150.8610 C   0  0  0  0  0  3  0  0  0  0  0  0
  161.9580  209.5250  148.6220 C   0  0  0  0  0  3  0  0  0  0  0  0
  162.3000  206.3130  151.2270 F   0  0  0  0  0  0  0  0  0  0  0  0
  161.6650  213.2200  144.5430 C   0  0  0  0  0  1  0  0  0  0  0  0
  160.6760  212.9230  145.5170 O   0  0  0  0  0  0  0  0  0  0  0  0
  158.9750  214.4500  152.3730 C   0  0  0  0  0  2  0  0  0  0  0  0
  158.5880  213.9190  154.0660 S   0  0  0  0  0  0  0  0  0  0  0  0
  156.8850  213.4910  153.6070 C   0  0  0  0  0  2  0  0  0  0  0  0
  156.9580  210.9890  154.7700 O   0  0  0  0  0  1  0  0  0  0  0  0
  156.0490  213.2490  154.8560 C   0  0  1  0  0  3  0  0  0  0  0  0
  155.8700  211.7480  155.2110 C   0  0  2  0  0  3  0  0  0  0  0  0
  154.8910  212.5890  157.2480 C   0  0  0  0  0  2  0  0  0  0  0  0
  155.6860  213.9000  157.2550 C   0  0  0  0  0  2  0  0  0  0  0  0
  156.6120  214.0250  156.0400 C   0  0  0  0  0  2  0  0  0  0  0  0
  155.6840  211.5160  156.6510 N   0  0  0  0  0  2  0  0  0  0  0  0
  1 24  1  6  0  0  0
  1 10  1  0  0  0  0
  1  7  1  0  0  0  0
  2  5  1  6  0  0  0
  2  7  1  0  0  0  0
  2 11  1  0  0  0  0
  3  9  1  0  0  0  0
  3 14  2  0  0  0  0
  6 14  1  0  0  0  0
  7  3  1  1  0  0  0
  8  4  2  0  0  0  0
  8 25  1  0  0  0  0
  9 15  1  6  0  0  0
  9 13  1  0  0  0  0
 10 15  1  0  0  0  0
 11  6  1  0  0  0  0
 12  4  1  0  0  0  0
 13 12  2  0  0  0  0
 14  8  1  0  0  0  0
 16 20  1  0  0  0  0
 16 22  1  0  0  0  0
 17 16  2  0  0  0  0
 18 13  1  0  0  0  0
 18 20  2  0  0  0  0
 19 21  2  0  0  0  0
 19 17  1  0  0  0  0
 21 18  1  0  0  0  0
 23 24  1  0  0  0  0
 25 26  1  0  0  0  0
 27 26  1  0  0  0  0
 29 27  1  6  0  0  0
 29 30  1  0  0  0  0
 29 33  1  0  0  0  0
 30 28  1  1  0  0  0
 30 34  1  0  0  0  0
 31 32  1  0  0  0  0
 33 32  1  0  0  0  0
 34 31  1  0  0  0  0
M  END
>  <MODEL>
5

>  <REMARK>
 VINA RESULT:      -4.4      3.952      8.947
  Name = 
  6 active torsions:
  status: ('A' for Active; 'I' for Inactive)
    1  A    between atoms: C_1  and  O_19
    2  A    between atoms: C_3  and  C_13
    3  A    between atoms: C_3  and  S_17
    4  A    between atoms: C_12  and  C_28
    5  A    between atoms: S_17  and  C_29
    6  A    between atoms: C_18  and  C_29
                            x       y       z     vdW  Elec       q    Type
                         _______ _______ _______ _____ _____    ______ ____

>  <TORSDO>
F 6

$$$$
=
 OpenBabel11062407443D

 34 38  0  0  1  0  0  0  0  0999 V2000
  160.8700  212.5460  149.0000 C   0  0  2  0  0  3  0  0  0  0  0  0
  158.7340  212.5840  150.3490 C   0  0  1  0  0  3  0  0  0  0  0  0
  160.8220  211.3430  151.1480 C   0  0  0  0  0  0  0  0  0  0  0  0
  161.5540  209.4730  153.5130 C   0  0  0  0  0  3  0  0  0  0  0  0
  158.2710  213.5510  149.4550 O   0  0  0  0  0  1  0  0  0  0  0  0
  159.0860  212.1050  152.7760 C   0  0  0  0  0  2  0  0  0  0  0  0
  160.1690  212.1730  150.0920 C   0  0  2  0  0  3  0  0  0  0  0  0
  161.0890  210.7280  153.5530 C   0  0  0  0  0  0  0  0  0  0  0  0
  161.9800  210.4310  150.7940 C   0  0  1  0  0  3  0  0  0  0  0  0
  162.6710  212.4010  149.0110 S   0  0  0  0  0  0  0  0  0  0  0  0
  158.6630  213.1550  151.7550 C   0  0  0  0  0  2  0  0  0  0  0  0
  161.5110  208.5780  152.3410 C   0  0  0  0  0  3  0  0  0  0  0  0
  161.6300  208.9840  151.0720 C   0  0  0  0  0  0  0  0  0  0  0  0
  160.3770  211.3980  152.4270 C   0  0  0  0  0  0  0  0  0  0  0  0
  162.5800  210.6390  149.4000 C   0  0  0  0  0  2  0  0  0  0  0  0
  160.6380  205.7860  149.2880 C   0  0  0  0  0  0  0  0  0  0  0  0
  160.8670  206.1310  147.9540 C   0  0  0  0  0  3  0  0  0  0  0  0
  161.3450  208.0050  149.9930 C   0  0  0  0  0  0  0  0  0  0  0  0
  161.3390  207.4060  147.6340 C   0  0  0  0  0  3  0  0  0  0  0  0
  160.8810  206.7170  150.3010 C   0  0  0  0  0  3  0  0  0  0  0  0
  161.5810  208.3370  148.6480 C   0  0  0  0  0  3  0  0  0  0  0  0
  160.1860  204.5480  149.6000 F   0  0  0  0  0  0  0  0  0  0  0  0
  160.4260  212.5510  146.5680 C   0  0  0  0  0  1  0  0  0  0  0  0
  160.2190  213.0640  147.8750 O   0  0  0  0  0  0  0  0  0  0  0  0
  161.2060  211.4530  154.8510 C   0  0  0  0  0  2  0  0  0  0  0  0
  160.4170  210.4850  156.1690 S   0  0  0  0  0  0  0  0  0  0  0  0
  159.8010  211.9850  156.9840 C   0  0  0  0  0  2  0  0  0  0  0  0
  159.0200  214.1430  155.4510 O   0  0  0  0  0  1  0  0  0  0  0  0
  158.3170  212.1690  156.6960 C   0  0  1  0  0  3  0  0  0  0  0  0
  157.9520  213.5780  156.1540 C   0  0  2  0  0  3  0  0  0  0  0  0
  155.7760  212.6090  155.7740 C   0  0  0  0  0  2  0  0  0  0  0  0
  156.2900  211.1760  155.5920 C   0  0  0  0  0  2  0  0  0  0  0  0
  157.8100  211.0780  155.7600 C   0  0  0  0  0  2  0  0  0  0  0  0
  156.7650  213.5700  155.2870 N   0  0  0  0  0  2  0  0  0  0  0  0
  1 24  1  1  0  0  0
  1 10  1  0  0  0  0
  1  7  1  0  0  0  0
  2  5  1  6  0  0  0
  2 11  1  0  0  0  0
  3 14  2  0  0  0  0
  4  8  2  0  0  0  0
  7  2  1  0  0  0  0
  7  3  1  1  0  0  0
  8 25  1  0  0  0  0
  9 15  1  6  0  0  0
  9 13  1  0  0  0  0
  9  3  1  0  0  0  0
 10 15  1  0  0  0  0
 11  6  1  0  0  0  0
 12  4  1  0  0  0  0
 13 12  2  0  0  0  0
 14  6  1  0  0  0  0
 14  8  1  0  0  0  0
 16 22  1  0  0  0  0
 16 20  1  0  0  0  0
 17 16  2  0  0  0  0
 18 20  2  0  0  0  0
 18 13  1  0  0  0  0
 19 17  1  0  0  0  0
 19 21  2  0  0  0  0
 21 18  1  0  0  0  0
 23 24  1  0  0  0  0
 25 26  1  0  0  0  0
 26 27  1  0  0  0  0
 29 27  1  6  0  0  0
 30 28  1  6  0  0  0
 30 29  1  0  0  0  0
 32 33  1  0  0  0  0
 32 31  1  0  0  0  0
 33 29  1  0  0  0  0
 34 31  1  0  0  0  0
 34 30  1  0  0  0  0
M  END
>  <MODEL>
6

>  <REMARK>
 VINA RESULT:      -3.9      3.539      8.330
  Name = 
  6 active torsions:
  status: ('A' for Active; 'I' for Inactive)
    1  A    between atoms: C_1  and  O_19
    2  A    between atoms: C_3  and  C_13
    3  A    between atoms: C_3  and  S_17
    4  A    between atoms: C_12  and  C_28
    5  A    between atoms: S_17  and  C_29
    6  A    between atoms: C_18  and  C_29
                            x       y       z     vdW  Elec       q    Type
                         _______ _______ _______ _____ _____    ______ ____

>  <TORSDO>
F 6

$$$$
