=
 OpenBabel11062409043D

 37 43  0  0  1  0  0  0  0  0999 V2000
  161.9470  210.5330  148.5460 C   0  0  0  0  0  2  0  0  0  0  0  0
  161.7530  206.2250  147.4840 C   0  0  0  0  0  0  0  0  0  0  0  0
  160.8340  207.1670  151.5620 C   0  0  1  0  0  3  0  0  0  0  0  0
  161.5240  212.0140  148.4550 C   0  0  2  0  0  3  0  0  0  0  0  0
  160.5060  210.3810  152.3320 O   0  0  0  0  0  0  0  0  0  0  0  0
  160.9400  205.4880  149.7260 C   0  0  0  0  0  0  0  0  0  0  0  0
  161.8410  208.3190  151.6890 C   0  0  2  0  0  3  0  0  0  0  0  0
  160.1480  212.2900  149.1380 C   0  0  1  0  0  3  0  0  0  0  0  0
  161.0400  206.7420  150.1560 C   0  0  0  0  0  0  0  0  0  0  0  0
  161.4580  209.4090  152.7440 C   0  0  2  0  0  3  0  0  0  0  0  0
  160.5300  204.4460  150.6910 C   0  0  0  0  0  3  0  0  0  0  0  0
  161.7990  207.7130  149.4370 C   0  0  0  0  0  0  0  0  0  0  0  0
  160.5730  206.5920  146.6060 C   0  0  0  0  0  1  0  0  0  0  0  0
  160.8340  206.3110  153.9390 C   0  0  0  0  0  2  0  0  0  0  0  0
  160.6100  204.7050  152.0100 C   0  0  0  0  0  3  0  0  0  0  0  0
  162.2400  207.4750  148.1990 C   0  0  0  0  0  3  0  0  0  0  0  0
  160.1570  212.1700  150.6710 C   0  0  0  0  0  2  0  0  0  0  0  0
  160.8640  210.9020  151.0770 C   0  0  1  0  0  3  0  0  0  0  0  0
  161.2120  206.0090  152.4960 C   0  0  1  0  0  3  0  0  0  0  0  0
  162.2170  208.7530  150.3170 N   0  0  0  0  0  0  0  0  0  0  0  0
  161.3470  205.1940  148.4130 O   0  0  0  0  0  0  0  0  0  0  0  0
  161.0050  208.8210  154.0980 C   0  0  1  0  0  3  0  0  0  0  0  0
  162.8650  205.6930  146.6040 C   0  0  0  0  0  1  0  0  0  0  0  0
  162.2510  211.0480  150.9140 O   0  0  0  0  0  0  0  0  0  0  0  0
  159.6170  213.6730  148.7950 C   0  0  0  0  0  1  0  0  0  0  0  0
  162.5800  210.1290  149.9040 C   0  0  2  0  0  3  0  0  0  0  0  0
  161.6470  207.4850  154.4860 C   0  0  0  0  0  2  0  0  0  0  0  0
  160.0700  210.5040  155.7320 C   0  0  0  0  0  3  0  0  0  0  0  0
  161.1740  209.8230  155.1960 C   0  0  0  0  0  0  0  0  0  0  0  0
  162.4540  210.0770  155.6990 C   0  0  0  0  0  3  0  0  0  0  0  0
  163.9960  211.2700  157.2610 C   0  0  0  0  0  1  0  0  0  0  0  0
  161.5320  211.6810  157.2610 C   0  0  0  0  0  3  0  0  0  0  0  0
  162.6340  211.0040  156.7290 C   0  0  0  0  0  0  0  0  0  0  0  0
  160.2500  211.4320  156.7620 C   0  0  0  0  0  3  0  0  0  0  0  0
  161.5670  212.4660  146.9880 C   0  0  0  0  0  2  0  0  0  0  0  0
  162.9420  214.4220  147.7270 C   0  0  0  0  0  1  0  0  0  0  0  0
  162.7640  213.3570  146.6630 C   0  0  0  0  0  2  0  0  0  0  0  0
  2 16  1  0  0  0  0
  2 21  1  0  0  0  0
  3  9  1  6  0  0  0
  3  7  1  0  0  0  0
  3 19  1  0  0  0  0
  4 35  1  6  0  0  0
  4  1  1  0  0  0  0
  4  8  1  0  0  0  0
  6  9  2  0  0  0  0
  6 11  1  0  0  0  0
  7 20  1  6  0  0  0
  7 10  1  0  0  0  0
  8 25  1  1  0  0  0
  8 17  1  0  0  0  0
 10  5  1  6  0  0  0
 10 22  1  0  0  0  0
 11 15  2  0  0  0  0
 12  9  1  0  0  0  0
 12 20  1  0  0  0  0
 13  2  1  0  0  0  0
 14 27  1  0  0  0  0
 16 12  2  0  0  0  0
 18 17  1  1  0  0  0
 18  5  1  0  0  0  0
 19 15  1  6  0  0  0
 19 14  1  0  0  0  0
 21  6  1  0  0  0  0
 22 27  1  0  0  0  0
 22 29  1  1  0  0  0
 23  2  1  0  0  0  0
 24 18  1  0  0  0  0
 26  1  1  6  0  0  0
 26 20  1  0  0  0  0
 26 24  1  0  0  0  0
 28 34  1  0  0  0  0
 29 30  1  0  0  0  0
 29 28  2  0  0  0  0
 30 33  2  0  0  0  0
 33 31  1  0  0  0  0
 33 32  1  0  0  0  0
 34 32  2  0  0  0  0
 37 35  1  0  0  0  0
 37 36  1  0  0  0  0
M  END
>  <MODEL>
1

>  <REMARK>
 VINA RESULT:      -7.5      0.000      0.000
  Name = 
  3 active torsions:
  status: ('A' for Active; 'I' for Inactive)
    1  A    between atoms: C_5  and  C_17
    2  A    between atoms: C_6  and  C_31
    3  A    between atoms: C_17  and  C_23
                            x       y       z     vdW  Elec       q    Type
                         _______ _______ _______ _____ _____    ______ ____

>  <TORSDO>
F 3

$$$$
=
 OpenBabel11062409043D

 37 43  0  0  1  0  0  0  0  0999 V2000
  162.0080  206.9350  152.1970 C   0  0  0  0  0  2  0  0  0  0  0  0
  160.1280  208.5310  155.8910 C   0  0  0  0  0  0  0  0  0  0  0  0
  159.8690  211.0620  152.4420 C   0  0  1  0  0  3  0  0  0  0  0  0
  162.1760  205.9300  151.0370 C   0  0  2  0  0  3  0  0  0  0  0  0
  160.8340  209.7630  149.5410 O   0  0  0  0  0  0  0  0  0  0  0  0
  159.2240  210.5850  154.7990 C   0  0  0  0  0  0  0  0  0  0  0  0
  161.2440  210.6900  151.8690 C   0  0  2  0  0  3  0  0  0  0  0  0
  161.0500  206.0550  149.9640 C   0  0  1  0  0  3  0  0  0  0  0  0
  159.8170  210.2250  153.6670 C   0  0  0  0  0  0  0  0  0  0  0  0
  161.3660  210.8300  150.3160 C   0  0  2  0  0  3  0  0  0  0  0  0
  158.5040  211.8760  154.8350 C   0  0  0  0  0  3  0  0  0  0  0  0
  160.8480  209.2380  153.6510 C   0  0  0  0  0  0  0  0  0  0  0  0
  159.1280  207.3980  155.7580 C   0  0  0  0  0  1  0  0  0  0  0  0
  159.6790  213.4460  151.6290 C   0  0  0  0  0  2  0  0  0  0  0  0
  158.7500  212.7920  153.8790 C   0  0  0  0  0  3  0  0  0  0  0  0
  161.0930  208.4730  154.7180 C   0  0  0  0  0  3  0  0  0  0  0  0
  161.1000  207.3460  149.1300 C   0  0  0  0  0  2  0  0  0  0  0  0
  161.2920  208.5320  150.0410 C   0  0  1  0  0  3  0  0  0  0  0  0
  159.8300  212.5420  152.8440 C   0  0  1  0  0  3  0  0  0  0  0  0
  161.6790  209.4180  152.5090 N   0  0  0  0  0  0  0  0  0  0  0  0
  159.4130  209.7870  155.9410 O   0  0  0  0  0  0  0  0  0  0  0  0
  160.8010  212.1600  149.7730 C   0  0  1  0  0  3  0  0  0  0  0  0
  160.9010  208.3460  157.1790 C   0  0  0  0  0  1  0  0  0  0  0  0
  162.6190  208.5800  150.5000 O   0  0  0  0  0  0  0  0  0  0  0  0
  161.0670  204.8870  148.9910 C   0  0  0  0  0  1  0  0  0  0  0  0
  162.5150  208.3670  151.8830 C   0  0  2  0  0  3  0  0  0  0  0  0
  160.9060  213.3580  150.7220 C   0  0  0  0  0  2  0  0  0  0  0  0
  162.7920  212.5860  148.2810 C   0  0  0  0  0  3  0  0  0  0  0  0
  161.4010  212.4900  148.4440 C   0  0  0  0  0  0  0  0  0  0  0  0
  160.5600  212.6960  147.3450 C   0  0  0  0  0  3  0  0  0  0  0  0
  160.2030  213.2170  144.9280 C   0  0  0  0  0  1  0  0  0  0  0  0
  162.4870  213.0950  145.9330 C   0  0  0  0  0  3  0  0  0  0  0  0
  161.1010  212.9990  146.0920 C   0  0  0  0  0  0  0  0  0  0  0  0
  163.3320  212.8890  147.0270 C   0  0  0  0  0  3  0  0  0  0  0  0
  162.3040  204.5100  151.6080 C   0  0  0  0  0  2  0  0  0  0  0  0
  160.7010  202.6210  151.9560 C   0  0  0  0  0  1  0  0  0  0  0  0
  161.0560  204.0410  152.3510 C   0  0  0  0  0  2  0  0  0  0  0  0
  2 21  1  0  0  0  0
  2 23  1  0  0  0  0
  3 19  1  0  0  0  0
  3  9  1  1  0  0  0
  4 35  1  1  0  0  0
  4  1  1  0  0  0  0
  5 18  1  0  0  0  0
  6 11  1  0  0  0  0
  6 21  1  0  0  0  0
  7  3  1  0  0  0  0
  7 20  1  6  0  0  0
  8 25  1  6  0  0  0
  8  4  1  0  0  0  0
  9  6  2  0  0  0  0
 10  5  1  6  0  0  0
 10  7  1  0  0  0  0
 12  9  1  0  0  0  0
 12 16  2  0  0  0  0
 13  2  1  0  0  0  0
 15 11  2  0  0  0  0
 16  2  1  0  0  0  0
 17  8  1  0  0  0  0
 18 17  1  6  0  0  0
 18 24  1  0  0  0  0
 19 14  1  6  0  0  0
 19 15  1  0  0  0  0
 20 12  1  0  0  0  0
 22 29  1  6  0  0  0
 22 10  1  0  0  0  0
 22 27  1  0  0  0  0
 24 26  1  0  0  0  0
 26  1  1  6  0  0  0
 26 20  1  0  0  0  0
 27 14  1  0  0  0  0
 28 29  1  0  0  0  0
 30 29  2  0  0  0  0
 31 33  1  0  0  0  0
 32 33  2  0  0  0  0
 32 34  1  0  0  0  0
 33 30  1  0  0  0  0
 34 28  2  0  0  0  0
 35 37  1  0  0  0  0
 36 37  1  0  0  0  0
M  END
>  <MODEL>
2

>  <REMARK>
 VINA RESULT:      -5.4      2.011      7.754
  Name = 
  3 active torsions:
  status: ('A' for Active; 'I' for Inactive)
    1  A    between atoms: C_5  and  C_17
    2  A    between atoms: C_6  and  C_31
    3  A    between atoms: C_17  and  C_23
                            x       y       z     vdW  Elec       q    Type
                         _______ _______ _______ _____ _____    ______ ____

>  <TORSDO>
F 3

$$$$
=
 OpenBabel11062409043D

 37 43  0  0  1  0  0  0  0  0999 V2000
  162.2180  208.2600  151.5690 C   0  0  0  0  0  2  0  0  0  0  0  0
  160.3520  210.6000  154.8500 C   0  0  0  0  0  0  0  0  0  0  0  0
  160.0090  212.3080  150.9350 C   0  0  1  0  0  3  0  0  0  0  0  0
  162.3910  207.0290  150.6550 C   0  0  2  0  0  3  0  0  0  0  0  0
  160.9640  210.4190  148.3750 O   0  0  0  0  0  0  0  0  0  0  0  0
  159.3990  212.3510  153.3480 C   0  0  0  0  0  0  0  0  0  0  0  0
  161.3840  211.8400  150.4370 C   0  0  2  0  0  3  0  0  0  0  0  0
  161.2510  206.8980  149.5970 C   0  0  1  0  0  3  0  0  0  0  0  0
  159.9860  211.7600  152.3140 C   0  0  0  0  0  0  0  0  0  0  0  0
  161.4850  211.6380  148.8890 C   0  0  2  0  0  3  0  0  0  0  0  0
  158.6560  213.6080  153.1110 C   0  0  0  0  0  3  0  0  0  0  0  0
  161.0330  210.8100  152.5000 C   0  0  0  0  0  0  0  0  0  0  0  0
  159.3710  209.4510  154.9840 C   0  0  0  0  0  1  0  0  0  0  0  0
  159.7660  214.4530  149.6210 C   0  0  0  0  0  2  0  0  0  0  0  0
  158.8750  214.2950  151.9730 C   0  0  0  0  0  3  0  0  0  0  0  0
  161.3050  210.3010  153.7040 C   0  0  0  0  0  3  0  0  0  0  0  0
  161.2680  207.9750  148.5000 C   0  0  0  0  0  2  0  0  0  0  0  0
  161.4490  209.3350  149.1250 C   0  0  1  0  0  3  0  0  0  0  0  0
  159.9480  213.8400  151.0030 C   0  0  1  0  0  3  0  0  0  0  0  0
  161.8480  210.7470  151.3330 N   0  0  0  0  0  0  0  0  0  0  0  0
  159.6150  211.8260  154.6340 O   0  0  0  0  0  0  0  0  0  0  0  0
  160.8900  212.8080  148.0770 C   0  0  1  0  0  3  0  0  0  0  0  0
  161.1430  210.7140  156.1350 C   0  0  0  0  0  1  0  0  0  0  0  0
  162.7800  209.5020  149.5430 O   0  0  0  0  0  0  0  0  0  0  0  0
  161.2780  205.5450  148.9040 C   0  0  0  0  0  1  0  0  0  0  0  0
  162.6960  209.5960  150.9410 C   0  0  2  0  0  3  0  0  0  0  0  0
  160.9850  214.1870  148.7380 C   0  0  0  0  0  2  0  0  0  0  0  0
  162.8120  213.1990  146.4860 C   0  0  0  0  0  3  0  0  0  0  0  0
  161.4690  212.8460  146.6980 C   0  0  0  0  0  0  0  0  0  0  0  0
  160.6600  212.5180  145.6060 C   0  0  0  0  0  3  0  0  0  0  0  0
  160.3190  212.1910  143.1530 C   0  0  0  0  0  1  0  0  0  0  0  0
  162.5200  212.8930  144.1020 C   0  0  0  0  0  3  0  0  0  0  0  0
  161.1830  212.5410  144.3100 C   0  0  0  0  0  0  0  0  0  0  0  0
  163.3340  213.2220  145.1890 C   0  0  0  0  0  3  0  0  0  0  0  0
  162.5510  205.7710  151.5220 C   0  0  0  0  0  2  0  0  0  0  0  0
  160.8380  204.1600  152.3780 C   0  0  0  0  0  1  0  0  0  0  0  0
  161.4020  205.5620  152.5050 C   0  0  0  0  0  2  0  0  0  0  0  0
  2 13  1  0  0  0  0
  2 23  1  0  0  0  0
  3 19  1  0  0  0  0
  3  9  1  1  0  0  0
  4 35  1  1  0  0  0
  4  1  1  0  0  0  0
  5 18  1  0  0  0  0
  6 21  1  0  0  0  0
  7  3  1  0  0  0  0
  7 20  1  1  0  0  0
  8 25  1  6  0  0  0
  8  4  1  0  0  0  0
  9 12  1  0  0  0  0
  9  6  2  0  0  0  0
 10  5  1  1  0  0  0
 10  7  1  0  0  0  0
 11  6  1  0  0  0  0
 12 16  2  0  0  0  0
 15 11  2  0  0  0  0
 16  2  1  0  0  0  0
 17  8  1  0  0  0  0
 18 17  1  6  0  0  0
 18 24  1  0  0  0  0
 19 14  1  6  0  0  0
 19 15  1  0  0  0  0
 20 12  1  0  0  0  0
 21  2  1  0  0  0  0
 22 29  1  6  0  0  0
 22 27  1  0  0  0  0
 22 10  1  0  0  0  0
 24 26  1  0  0  0  0
 26 20  1  0  0  0  0
 26  1  1  6  0  0  0
 27 14  1  0  0  0  0
 28 29  1  0  0  0  0
 30 29  2  0  0  0  0
 31 33  1  0  0  0  0
 32 33  2  0  0  0  0
 32 34  1  0  0  0  0
 33 30  1  0  0  0  0
 34 28  2  0  0  0  0
 35 37  1  0  0  0  0
 36 37  1  0  0  0  0
M  END
>  <MODEL>
3

>  <REMARK>
 VINA RESULT:      -5.2      1.805      8.263
  Name = 
  3 active torsions:
  status: ('A' for Active; 'I' for Inactive)
    1  A    between atoms: C_5  and  C_17
    2  A    between atoms: C_6  and  C_31
    3  A    between atoms: C_17  and  C_23
                            x       y       z     vdW  Elec       q    Type
                         _______ _______ _______ _____ _____    ______ ____

>  <TORSDO>
F 3

$$$$
