=
 OpenBabel11062408183D

 32 35  0  0  1  0  0  0  0  0999 V2000
  160.8320  205.2220  153.1460 O   0  0  0  0  0  0  0  0  0  0  0  0
  160.9960  207.4310  154.7700 O   0  0  0  0  0  0  0  0  0  0  0  0
  161.0120  207.1980  148.8480 C   0  0  1  0  0  3  0  0  0  0  0  0
  161.1780  204.3380  152.0940 C   0  0  0  0  0  2  0  0  0  0  0  0
  162.2800  207.6790  148.5110 O   0  0  0  0  0  1  0  0  0  0  0  0
  161.2020  207.5920  153.5370 C   0  0  0  0  0  0  0  0  0  0  0  0
  160.8600  205.6920  148.4770 C   0  0  2  0  0  3  0  0  0  0  0  0
  160.9910  205.1410  150.8380 C   0  0  2  0  0  3  0  0  0  0  0  0
  161.5050  204.7160  149.4790 C   0  0  0  0  0  2  0  0  0  0  0  0
  160.7150  207.4870  150.3430 C   0  0  0  0  0  2  0  0  0  0  0  0
  162.9720  206.6550  151.1570 C   0  0  0  0  0  1  0  0  0  0  0  0
  161.0500  206.4770  152.6420 N   0  0  0  0  0  0  0  0  0  0  0  0
  161.4500  206.4900  151.2460 C   0  0  2  0  0  0  0  0  0  0  0  0
  162.3510  204.0900  145.3070 C   0  0  0  0  0  1  0  0  0  0  0  0
  161.2270  205.3790  147.0550 C   0  0  0  0  0  3  0  0  0  0  0  0
  162.0200  204.3560  146.7340 C   0  0  0  0  0  3  0  0  0  0  0  0
  161.5740  208.9520  153.0360 C   0  0  0  0  0  2  0  0  0  0  0  0
  160.4480  209.9470  153.2760 C   0  0  0  0  0  2  0  0  0  0  0  0
  160.5710  211.1470  152.3520 C   0  0  0  0  0  2  0  0  0  0  0  0
  159.3170  211.7370  152.1670 O   0  0  0  0  0  0  0  0  0  0  0  0
  158.2870  213.6090  151.1220 C   0  0  0  0  0  1  0  0  0  0  0  0
  159.5870  212.9730  151.5740 C   0  0  2  0  0  3  0  0  0  0  0  0
  160.4930  212.7860  150.3690 C   0  0  0  0  0  2  0  0  0  0  0  0
  160.8870  211.8720  147.6850 C   0  0  2  0  0  3  0  0  0  0  0  0
  160.1160  213.7630  149.2580 C   0  0  2  0  0  3  0  0  0  0  0  0
  160.3880  213.3520  147.7820 C   0  0  1  0  0  0  0  0  0  0  0  0
  162.1900  211.4860  148.4030 C   0  0  0  0  0  1  0  0  0  0  0  0
  161.3320  214.2850  148.5750 C   0  0  0  0  0  2  0  0  0  0  0  0
  161.1290  212.8160  146.5280 C   0  0  1  0  0  3  0  0  0  0  0  0
  162.5730  213.2920  146.3040 C   0  0  0  0  0  2  0  0  0  0  0  0
  162.8770  213.3120  144.8210 C   0  0  0  0  0  2  0  0  0  0  0  0
  161.6100  213.0320  144.0410 C   0  0  0  0  0  1  0  0  0  0  0  0
  3  5  1  1  0  0  0
  3 10  1  0  0  0  0
  4  1  1  0  0  0  0
  6  2  2  0  0  0  0
  7 15  1  6  0  0  0
  7  3  1  0  0  0  0
  7  9  1  0  0  0  0
  8  9  1  6  0  0  0
  8 13  1  0  0  0  0
  8  4  1  0  0  0  0
 10 13  1  0  0  0  0
 12  1  1  0  0  0  0
 12  6  1  0  0  0  0
 13 11  1  6  0  0  0
 13 12  1  0  0  0  0
 14 16  1  0  0  0  0
 16 15  2  0  0  0  0
 17 18  1  0  0  0  0
 17  6  1  0  0  0  0
 19 18  1  0  0  0  0
 20 19  1  0  0  0  0
 22 21  1  6  0  0  0
 22 20  1  0  0  0  0
 23 22  1  0  0  0  0
 24 26  1  0  0  0  0
 24 27  1  1  0  0  0
 25 23  1  1  0  0  0
 26 28  1  1  0  0  0
 26 25  1  0  0  0  0
 28 25  1  0  0  0  0
 29 30  1  1  0  0  0
 29 24  1  0  0  0  0
 29 26  1  0  0  0  0
 31 30  1  0  0  0  0
 32 31  1  0  0  0  0
M  END
>  <MODEL>
1

>  <REMARK>
 VINA RESULT:      -7.1      0.000      0.000
  Name = 
  10 active torsions:
  status: ('A' for Active; 'I' for Inactive)
    1  A    between atoms: C_6  and  C_17
    2  A    between atoms: C_9  and  O_31
    3  A    between atoms: C_9  and  C_32
    4  A    between atoms: C_10  and  C_28
    5  A    between atoms: C_12  and  C_17
    6  A    between atoms: C_12  and  O_31
    7  A    between atoms: C_14  and  C_21
    8  A    between atoms: C_14  and  C_29
    9  A    between atoms: C_15  and  C_19
   10  A    between atoms: C_28  and  C_32
                            x       y       z     vdW  Elec       q    Type
                         _______ _______ _______ _____ _____    ______ ____

>  <TORSDO>
F 10

$$$$
=
 OpenBabel11062408183D

 32 35  0  0  1  0  0  0  0  0999 V2000
  162.6300  207.7490  148.5530 O   0  0  0  0  0  0  0  0  0  0  0  0
  162.3330  208.8320  151.0610 O   0  0  0  0  0  0  0  0  0  0  0  0
  161.1800  203.3000  149.2730 C   0  0  1  0  0  3  0  0  0  0  0  0
  162.2730  207.0380  147.3810 C   0  0  0  0  0  2  0  0  0  0  0  0
  159.7980  203.1890  149.4470 O   0  0  0  0  0  1  0  0  0  0  0  0
  161.8560  207.6850  150.8560 C   0  0  0  0  0  0  0  0  0  0  0  0
  161.5680  203.2480  147.7640 C   0  0  2  0  0  3  0  0  0  0  0  0
  162.0320  205.6300  147.8430 C   0  0  2  0  0  3  0  0  0  0  0  0
  161.3570  204.5680  147.0000 C   0  0  0  0  0  2  0  0  0  0  0  0
  161.7030  204.5740  149.9880 C   0  0  0  0  0  2  0  0  0  0  0  0
  159.8810  206.0830  149.0640 C   0  0  0  0  0  1  0  0  0  0  0  0
  162.0560  207.0500  149.5830 N   0  0  0  0  0  0  0  0  0  0  0  0
  161.3910  205.8280  149.1640 C   0  0  2  0  0  0  0  0  0  0  0  0
  160.1000  200.9190  145.0700 C   0  0  0  0  0  1  0  0  0  0  0  0
  160.9980  202.0660  147.0340 C   0  0  0  0  0  3  0  0  0  0  0  0
  160.6610  202.1210  145.7450 C   0  0  0  0  0  3  0  0  0  0  0  0
  161.1130  207.0020  151.9620 C   0  0  0  0  0  2  0  0  0  0  0  0
  162.0730  206.4850  153.0240 C   0  0  0  0  0  2  0  0  0  0  0  0
  161.3400  206.1630  154.3150 C   0  0  0  0  0  2  0  0  0  0  0  0
  160.3100  207.0850  154.5210 O   0  0  0  0  0  0  0  0  0  0  0  0
  160.3910  207.3890  156.8780 C   0  0  0  0  0  1  0  0  0  0  0  0
  160.7840  207.9370  155.5210 C   0  0  2  0  0  3  0  0  0  0  0  0
  160.1850  209.3230  155.3520 C   0  0  0  0  0  2  0  0  0  0  0  0
  159.3370  212.0210  154.9080 C   0  0  2  0  0  3  0  0  0  0  0  0
  160.8770  210.0720  154.2170 C   0  0  2  0  0  3  0  0  0  0  0  0
  160.3990  211.5130  153.8760 C   0  0  1  0  0  0  0  0  0  0  0  0
  158.0230  211.2390  155.0560 C   0  0  0  0  0  1  0  0  0  0  0  0
  159.9510  210.2720  153.0700 C   0  0  0  0  0  2  0  0  0  0  0  0
  159.4500  212.7010  153.5620 C   0  0  1  0  0  3  0  0  0  0  0  0
  158.3160  212.4510  152.5540 C   0  0  0  0  0  2  0  0  0  0  0  0
  158.3940  213.4700  151.4370 C   0  0  0  0  0  2  0  0  0  0  0  0
  159.8330  213.6170  150.9870 C   0  0  0  0  0  1  0  0  0  0  0  0
  1 12  1  0  0  0  0
  3  5  1  6  0  0  0
  3 10  1  0  0  0  0
  4  8  1  0  0  0  0
  4  1  1  0  0  0  0
  6  2  2  0  0  0  0
  6 17  1  0  0  0  0
  7 15  1  6  0  0  0
  7  3  1  0  0  0  0
  8  9  1  6  0  0  0
  8 13  1  0  0  0  0
  9  7  1  0  0  0  0
 12  6  1  0  0  0  0
 13 11  1  6  0  0  0
 13 12  1  0  0  0  0
 13 10  1  0  0  0  0
 14 16  1  0  0  0  0
 16 15  2  0  0  0  0
 17 18  1  0  0  0  0
 18 19  1  0  0  0  0
 19 20  1  0  0  0  0
 20 22  1  0  0  0  0
 22 21  1  1  0  0  0
 23 22  1  0  0  0  0
 24 27  1  6  0  0  0
 25 23  1  1  0  0  0
 26 28  1  6  0  0  0
 26 25  1  0  0  0  0
 26 24  1  0  0  0  0
 28 25  1  0  0  0  0
 29 30  1  6  0  0  0
 29 26  1  0  0  0  0
 29 24  1  0  0  0  0
 31 30  1  0  0  0  0
 32 31  1  0  0  0  0
M  END
>  <MODEL>
2

>  <REMARK>
 VINA RESULT:      -6.9      2.879      5.357
  Name = 
  10 active torsions:
  status: ('A' for Active; 'I' for Inactive)
    1  A    between atoms: C_6  and  C_17
    2  A    between atoms: C_9  and  O_31
    3  A    between atoms: C_9  and  C_32
    4  A    between atoms: C_10  and  C_28
    5  A    between atoms: C_12  and  C_17
    6  A    between atoms: C_12  and  O_31
    7  A    between atoms: C_14  and  C_21
    8  A    between atoms: C_14  and  C_29
    9  A    between atoms: C_15  and  C_19
   10  A    between atoms: C_28  and  C_32
                            x       y       z     vdW  Elec       q    Type
                         _______ _______ _______ _____ _____    ______ ____

>  <TORSDO>
F 10

$$$$
=
 OpenBabel11062408183D

 32 35  0  0  1  0  0  0  0  0999 V2000
  161.1460  207.8290  153.4110 O   0  0  0  0  0  0  0  0  0  0  0  0
  161.5020  210.3340  152.3390 O   0  0  0  0  0  0  0  0  0  0  0  0
  160.7680  205.1810  149.5050 C   0  0  1  0  0  3  0  0  0  0  0  0
  161.3620  206.4420  153.6040 C   0  0  0  0  0  2  0  0  0  0  0  0
  161.9810  205.0090  148.8310 O   0  0  0  0  0  1  0  0  0  0  0  0
  161.5490  209.3480  151.5570 C   0  0  0  0  0  0  0  0  0  0  0  0
  160.5800  204.1030  150.6150 C   0  0  2  0  0  3  0  0  0  0  0  0
  161.0120  205.8100  152.2870 C   0  0  2  0  0  3  0  0  0  0  0  0
  161.3530  204.3820  151.9180 C   0  0  0  0  0  2  0  0  0  0  0  0
  160.6610  206.6320  150.0450 C   0  0  0  0  0  2  0  0  0  0  0  0
  163.0090  206.6560  151.0140 C   0  0  0  0  0  1  0  0  0  0  0  0
  161.2910  208.0280  152.0630 N   0  0  0  0  0  0  0  0  0  0  0  0
  161.5110  206.8050  151.3080 C   0  0  2  0  0  0  0  0  0  0  0  0
  160.9870  200.9760  148.4040 C   0  0  0  0  0  1  0  0  0  0  0  0
  160.7650  202.6950  150.1290 C   0  0  0  0  0  3  0  0  0  0  0  0
  160.8000  202.3890  148.8320 C   0  0  0  0  0  3  0  0  0  0  0  0
  161.8460  209.5860  150.1100 C   0  0  0  0  0  2  0  0  0  0  0  0
  161.7790  211.0700  149.7770 C   0  0  0  0  0  2  0  0  0  0  0  0
  162.3080  211.3430  148.3790 C   0  0  0  0  0  2  0  0  0  0  0  0
  161.4170  212.1650  147.6840 O   0  0  0  0  0  0  0  0  0  0  0  0
  162.7670  214.1070  147.9350 C   0  0  0  0  0  1  0  0  0  0  0  0
  162.2280  213.0600  146.9810 C   0  0  2  0  0  3  0  0  0  0  0  0
  161.4220  213.7490  145.8930 C   0  0  0  0  0  2  0  0  0  0  0  0
  160.3730  213.4590  143.2450 C   0  0  2  0  0  3  0  0  0  0  0  0
  162.3320  214.1930  144.7510 C   0  0  2  0  0  3  0  0  0  0  0  0
  161.8480  213.9800  143.2880 C   0  0  1  0  0  0  0  0  0  0  0  0
  160.0480  212.1180  143.9210 C   0  0  0  0  0  1  0  0  0  0  0  0
  162.8370  213.0200  143.9870 C   0  0  0  0  0  2  0  0  0  0  0  0
  161.2590  213.2870  142.0310 C   0  0  1  0  0  3  0  0  0  0  0  0
  161.7460  211.8630  141.7160 C   0  0  0  0  0  2  0  0  0  0  0  0
  162.4950  211.8620  140.4000 C   0  0  0  0  0  2  0  0  0  0  0  0
  162.5020  213.2610  139.8210 C   0  0  0  0  0  1  0  0  0  0  0  0
  1  4  1  0  0  0  0
  3  5  1  1  0  0  0
  3 10  1  0  0  0  0
  3  7  1  0  0  0  0
  6 12  1  0  0  0  0
  6  2  2  0  0  0  0
  7 15  1  6  0  0  0
  7  9  1  0  0  0  0
  8  9  1  6  0  0  0
  8  4  1  0  0  0  0
 10 13  1  0  0  0  0
 12  1  1  0  0  0  0
 13 11  1  6  0  0  0
 13 12  1  0  0  0  0
 13  8  1  0  0  0  0
 14 16  1  0  0  0  0
 16 15  2  0  0  0  0
 17  6  1  0  0  0  0
 18 17  1  0  0  0  0
 19 18  1  0  0  0  0
 20 19  1  0  0  0  0
 22 20  1  0  0  0  0
 22 21  1  1  0  0  0
 23 22  1  0  0  0  0
 24 26  1  0  0  0  0
 24 27  1  1  0  0  0
 25 23  1  1  0  0  0
 26 28  1  1  0  0  0
 26 25  1  0  0  0  0
 28 25  1  0  0  0  0
 29 30  1  1  0  0  0
 29 24  1  0  0  0  0
 29 26  1  0  0  0  0
 31 30  1  0  0  0  0
 32 31  1  0  0  0  0
M  END
>  <MODEL>
3

>  <REMARK>
 VINA RESULT:      -6.7      2.109      3.825
  Name = 
  10 active torsions:
  status: ('A' for Active; 'I' for Inactive)
    1  A    between atoms: C_6  and  C_17
    2  A    between atoms: C_9  and  O_31
    3  A    between atoms: C_9  and  C_32
    4  A    between atoms: C_10  and  C_28
    5  A    between atoms: C_12  and  C_17
    6  A    between atoms: C_12  and  O_31
    7  A    between atoms: C_14  and  C_21
    8  A    between atoms: C_14  and  C_29
    9  A    between atoms: C_15  and  C_19
   10  A    between atoms: C_28  and  C_32
                            x       y       z     vdW  Elec       q    Type
                         _______ _______ _______ _____ _____    ______ ____

>  <TORSDO>
F 10

$$$$
=
 OpenBabel11062408183D

 32 35  0  0  1  0  0  0  0  0999 V2000
  160.8300  204.7570  153.2140 O   0  0  0  0  0  0  0  0  0  0  0  0
  160.7580  206.8020  155.0470 O   0  0  0  0  0  0  0  0  0  0  0  0
  160.8720  207.1540  149.1320 C   0  0  1  0  0  3  0  0  0  0  0  0
  161.2740  204.0180  152.0890 C   0  0  0  0  0  2  0  0  0  0  0  0
  162.0920  207.7840  148.8710 O   0  0  0  0  0  1  0  0  0  0  0  0
  160.9630  207.1010  153.8410 C   0  0  0  0  0  0  0  0  0  0  0  0
  160.8720  205.6840  148.6140 C   0  0  2  0  0  3  0  0  0  0  0  0
  161.0250  204.9180  150.9140 C   0  0  2  0  0  3  0  0  0  0  0  0
  161.5960  204.6800  149.5320 C   0  0  0  0  0  2  0  0  0  0  0  0
  160.5290  207.2650  150.6410 C   0  0  0  0  0  2  0  0  0  0  0  0
  162.8460  206.5770  151.4210 C   0  0  0  0  0  1  0  0  0  0  0  0
  160.9310  206.0710  152.8390 N   0  0  0  0  0  0  0  0  0  0  0  0
  161.3460  206.2590  151.4590 C   0  0  2  0  0  0  0  0  0  0  0  0
  162.2320  204.3530  145.2650 C   0  0  0  0  0  1  0  0  0  0  0  0
  161.2860  205.5480  147.1770 C   0  0  0  0  0  3  0  0  0  0  0  0
  161.8410  204.4340  146.6990 C   0  0  0  0  0  3  0  0  0  0  0  0
  161.2070  208.5330  153.4810 C   0  0  0  0  0  2  0  0  0  0  0  0
  161.3430  209.3920  154.7300 C   0  0  0  0  0  2  0  0  0  0  0  0
  159.9900  209.9090  155.1900 C   0  0  0  0  0  2  0  0  0  0  0  0
  160.1630  210.8970  156.1640 O   0  0  0  0  0  0  0  0  0  0  0  0
  157.8580  211.0380  155.5930 C   0  0  0  0  0  1  0  0  0  0  0  0
  159.1190  211.8000  155.9490 C   0  0  2  0  0  3  0  0  0  0  0  0
  159.4710  212.7390  154.8080 C   0  0  0  0  0  2  0  0  0  0  0  0
  158.6560  212.0930  152.1410 C   0  0  2  0  0  3  0  0  0  0  0  0
  158.2210  213.4470  154.2910 C   0  0  2  0  0  3  0  0  0  0  0  0
  157.7790  213.1980  152.8200 C   0  0  1  0  0  0  0  0  0  0  0  0
  160.1690  212.3270  152.0190 C   0  0  0  0  0  1  0  0  0  0  0  0
  158.5710  214.4530  153.2520 C   0  0  0  0  0  2  0  0  0  0  0  0
  157.8590  213.0460  151.2770 C   0  0  1  0  0  3  0  0  0  0  0  0
  158.6470  214.1140  150.5020 C   0  0  0  0  0  2  0  0  0  0  0  0
  158.6410  213.7780  149.0250 C   0  0  0  0  0  2  0  0  0  0  0  0
  157.2600  213.3100  148.6200 C   0  0  0  0  0  1  0  0  0  0  0  0
  3  5  1  1  0  0  0
  3 10  1  0  0  0  0
  4  1  1  0  0  0  0
  6  2  2  0  0  0  0
  7 15  1  6  0  0  0
  7  3  1  0  0  0  0
  7  9  1  0  0  0  0
  8  9  1  6  0  0  0
  8 13  1  0  0  0  0
  8  4  1  0  0  0  0
 10 13  1  0  0  0  0
 12  1  1  0  0  0  0
 12  6  1  0  0  0  0
 13 11  1  6  0  0  0
 13 12  1  0  0  0  0
 14 16  1  0  0  0  0
 16 15  2  0  0  0  0
 17  6  1  0  0  0  0
 17 18  1  0  0  0  0
 18 19  1  0  0  0  0
 19 20  1  0  0  0  0
 22 21  1  6  0  0  0
 22 20  1  0  0  0  0
 23 22  1  0  0  0  0
 24 27  1  6  0  0  0
 24 26  1  0  0  0  0
 25 23  1  6  0  0  0
 26 28  1  6  0  0  0
 26 25  1  0  0  0  0
 28 25  1  0  0  0  0
 29 30  1  6  0  0  0
 29 24  1  0  0  0  0
 29 26  1  0  0  0  0
 31 30  1  0  0  0  0
 32 31  1  0  0  0  0
M  END
>  <MODEL>
4

>  <REMARK>
 VINA RESULT:      -6.5      2.363      3.437
  Name = 
  10 active torsions:
  status: ('A' for Active; 'I' for Inactive)
    1  A    between atoms: C_6  and  C_17
    2  A    between atoms: C_9  and  O_31
    3  A    between atoms: C_9  and  C_32
    4  A    between atoms: C_10  and  C_28
    5  A    between atoms: C_12  and  C_17
    6  A    between atoms: C_12  and  O_31
    7  A    between atoms: C_14  and  C_21
    8  A    between atoms: C_14  and  C_29
    9  A    between atoms: C_15  and  C_19
   10  A    between atoms: C_28  and  C_32
                            x       y       z     vdW  Elec       q    Type
                         _______ _______ _______ _____ _____    ______ ____

>  <TORSDO>
F 10

$$$$
=
 OpenBabel11062408183D

 32 35  0  0  1  0  0  0  0  0999 V2000
  160.8260  206.0310  153.3980 O   0  0  0  0  0  0  0  0  0  0  0  0
  160.7250  208.7770  153.4420 O   0  0  0  0  0  0  0  0  0  0  0  0
  160.8070  205.1640  148.7440 C   0  0  1  0  0  3  0  0  0  0  0  0
  161.2790  204.7410  153.0270 C   0  0  0  0  0  2  0  0  0  0  0  0
  162.0140  205.4820  148.1150 O   0  0  0  0  0  1  0  0  0  0  0  0
  160.9190  208.2140  152.3320 C   0  0  0  0  0  0  0  0  0  0  0  0
  160.8320  203.7150  149.3170 C   0  0  2  0  0  3  0  0  0  0  0  0
  161.0090  204.6470  151.5530 C   0  0  2  0  0  3  0  0  0  0  0  0
  161.5780  203.5670  150.6570 C   0  0  0  0  0  2  0  0  0  0  0  0
  160.4690  206.2340  149.8160 C   0  0  0  0  0  2  0  0  0  0  0  0
  162.8010  206.2520  150.8210 C   0  0  0  0  0  1  0  0  0  0  0  0
  160.9020  206.7790  152.2520 N   0  0  0  0  0  0  0  0  0  0  0  0
  161.3070  206.0200  151.0810 C   0  0  2  0  0  0  0  0  0  0  0  0
  161.5370  200.3800  147.5240 C   0  0  0  0  0  1  0  0  0  0  0  0
  161.2410  202.6750  148.3150 C   0  0  0  0  0  3  0  0  0  0  0  0
  161.1150  201.3690  148.5540 C   0  0  0  0  0  3  0  0  0  0  0  0
  161.1360  209.0620  151.1180 C   0  0  0  0  0  2  0  0  0  0  0  0
  162.4110  209.8820  151.2470 C   0  0  0  0  0  2  0  0  0  0  0  0
  162.6830  210.6750  149.9800 C   0  0  0  0  0  2  0  0  0  0  0  0
  161.5510  211.4160  149.6280 O   0  0  0  0  0  0  0  0  0  0  0  0
  163.3290  212.2280  148.2730 C   0  0  0  0  0  1  0  0  0  0  0  0
  161.8440  211.9410  148.3670 C   0  0  2  0  0  3  0  0  0  0  0  0
  161.0740  213.2330  148.1500 C   0  0  0  0  0  2  0  0  0  0  0  0
  158.9960  214.2800  146.4830 C   0  0  2  0  0  3  0  0  0  0  0  0
  161.5200  213.9120  146.8580 C   0  0  2  0  0  3  0  0  0  0  0  0
  160.4300  214.4250  145.8720 C   0  0  1  0  0  0  0  0  0  0  0  0
  158.4960  212.8780  146.8610 C   0  0  0  0  0  1  0  0  0  0  0  0
  161.1690  213.0820  145.6730 C   0  0  0  0  0  2  0  0  0  0  0  0
  159.1550  214.4470  144.9880 C   0  0  1  0  0  3  0  0  0  0  0  0
  158.8810  213.2130  144.1130 C   0  0  0  0  0  2  0  0  0  0  0  0
  158.9490  213.6010  142.6510 C   0  0  0  0  0  2  0  0  0  0  0  0
  160.3380  213.3190  142.1180 C   0  0  0  0  0  1  0  0  0  0  0  0
  3  5  1  1  0  0  0
  3  7  1  0  0  0  0
  3 10  1  0  0  0  0
  4  1  1  0  0  0  0
  6  2  2  0  0  0  0
  7 15  1  6  0  0  0
  7  9  1  0  0  0  0
  8  9  1  6  0  0  0
  8  4  1  0  0  0  0
 10 13  1  0  0  0  0
 12  6  1  0  0  0  0
 12  1  1  0  0  0  0
 13 11  1  6  0  0  0
 13  8  1  0  0  0  0
 13 12  1  0  0  0  0
 14 16  1  0  0  0  0
 15 16  2  0  0  0  0
 17 18  1  0  0  0  0
 17  6  1  0  0  0  0
 19 18  1  0  0  0  0
 20 19  1  0  0  0  0
 22 21  1  1  0  0  0
 22 20  1  0  0  0  0
 23 22  1  0  0  0  0
 24 27  1  6  0  0  0
 25 23  1  1  0  0  0
 26 28  1  6  0  0  0
 26 24  1  0  0  0  0
 26 25  1  0  0  0  0
 28 25  1  0  0  0  0
 29 30  1  6  0  0  0
 29 26  1  0  0  0  0
 29 24  1  0  0  0  0
 31 30  1  0  0  0  0
 32 31  1  0  0  0  0
M  END
>  <MODEL>
5

>  <REMARK>
 VINA RESULT:      -6.1      1.984      2.872
  Name = 
  10 active torsions:
  status: ('A' for Active; 'I' for Inactive)
    1  A    between atoms: C_6  and  C_17
    2  A    between atoms: C_9  and  O_31
    3  A    between atoms: C_9  and  C_32
    4  A    between atoms: C_10  and  C_28
    5  A    between atoms: C_12  and  C_17
    6  A    between atoms: C_12  and  O_31
    7  A    between atoms: C_14  and  C_21
    8  A    between atoms: C_14  and  C_29
    9  A    between atoms: C_15  and  C_19
   10  A    between atoms: C_28  and  C_32
                            x       y       z     vdW  Elec       q    Type
                         _______ _______ _______ _____ _____    ______ ____

>  <TORSDO>
F 10

$$$$
=
 OpenBabel11062408183D

 32 35  0  0  1  0  0  0  0  0999 V2000
  160.6440  205.1620  149.9500 O   0  0  0  0  0  0  0  0  0  0  0  0
  160.6090  204.0630  152.4670 O   0  0  0  0  0  0  0  0  0  0  0  0
  161.7330  209.6690  150.9060 C   0  0  1  0  0  3  0  0  0  0  0  0
  161.1380  205.9060  148.8500 C   0  0  0  0  0  2  0  0  0  0  0  0
  163.0650  209.8480  151.2910 O   0  0  0  0  0  1  0  0  0  0  0  0
  161.0520  205.2360  152.3440 C   0  0  0  0  0  0  0  0  0  0  0  0
  161.5790  209.7220  149.3570 C   0  0  2  0  0  3  0  0  0  0  0  0
  161.2330  207.3190  149.3500 C   0  0  2  0  0  3  0  0  0  0  0  0
  161.9730  208.4240  148.6270 C   0  0  0  0  0  2  0  0  0  0  0  0
  161.1740  208.3610  151.5260 C   0  0  0  0  0  2  0  0  0  0  0  0
  163.1920  206.9580  150.8850 C   0  0  0  0  0  1  0  0  0  0  0  0
  161.0160  205.8760  151.0580 N   0  0  0  0  0  0  0  0  0  0  0  0
  161.6740  207.1360  150.7530 C   0  0  2  0  0  0  0  0  0  0  0  0
  162.3090  213.3300  148.2230 C   0  0  0  0  0  1  0  0  0  0  0  0
  162.1920  210.9410  148.7290 C   0  0  0  0  0  3  0  0  0  0  0  0
  161.6600  212.1550  148.8670 C   0  0  0  0  0  3  0  0  0  0  0  0
  161.5800  205.9410  153.5540 C   0  0  0  0  0  2  0  0  0  0  0  0
  160.4620  206.6550  154.2990 C   0  0  0  0  0  2  0  0  0  0  0  0
  161.0180  207.5630  155.3830 C   0  0  0  0  0  2  0  0  0  0  0  0
  160.4310  208.8280  155.2930 O   0  0  0  0  0  0  0  0  0  0  0  0
  162.2860  209.8880  156.3380 C   0  0  0  0  0  1  0  0  0  0  0  0
  161.4950  209.7020  155.0580 C   0  0  2  0  0  3  0  0  0  0  0  0
  160.9690  211.0520  154.6000 C   0  0  0  0  0  2  0  0  0  0  0  0
  158.6370  211.5120  153.0060 C   0  0  2  0  0  3  0  0  0  0  0  0
  159.6940  211.4150  155.3550 C   0  0  2  0  0  3  0  0  0  0  0  0
  158.4160  211.7590  154.5360 C   0  0  1  0  0  0  0  0  0  0  0  0
  159.7400  212.3030  152.2850 C   0  0  0  0  0  1  0  0  0  0  0  0
  159.3370  212.8440  155.1390 C   0  0  0  0  0  2  0  0  0  0  0  0
  157.5000  212.4010  153.4600 C   0  0  1  0  0  3  0  0  0  0  0  0
  157.6510  213.9110  153.2150 C   0  0  0  0  0  2  0  0  0  0  0  0
  156.4740  214.4150  152.4060 C   0  0  0  0  0  2  0  0  0  0  0  0
  156.7750  214.2650  150.9290 C   0  0  0  0  0  1  0  0  0  0  0  0
  1 12  1  0  0  0  0
  3  5  1  6  0  0  0
  3 10  1  0  0  0  0
  4  8  1  0  0  0  0
  4  1  1  0  0  0  0
  6  2  2  0  0  0  0
  6 17  1  0  0  0  0
  7 15  1  6  0  0  0
  7  3  1  0  0  0  0
  8  9  1  6  0  0  0
  8 13  1  0  0  0  0
  9  7  1  0  0  0  0
 12  6  1  0  0  0  0
 13 11  1  1  0  0  0
 13 12  1  0  0  0  0
 13 10  1  0  0  0  0
 14 16  1  0  0  0  0
 15 16  2  0  0  0  0
 17 18  1  0  0  0  0
 18 19  1  0  0  0  0
 20 19  1  0  0  0  0
 22 20  1  0  0  0  0
 22 21  1  1  0  0  0
 23 22  1  0  0  0  0
 24 27  1  6  0  0  0
 24 29  1  0  0  0  0
 24 26  1  0  0  0  0
 25 23  1  6  0  0  0
 26 28  1  6  0  0  0
 26 25  1  0  0  0  0
 28 25  1  0  0  0  0
 29 30  1  6  0  0  0
 29 26  1  0  0  0  0
 31 30  1  0  0  0  0
 32 31  1  0  0  0  0
M  END
>  <MODEL>
6

>  <REMARK>
 VINA RESULT:      -6.0      2.111      5.543
  Name = 
  10 active torsions:
  status: ('A' for Active; 'I' for Inactive)
    1  A    between atoms: C_6  and  C_17
    2  A    between atoms: C_9  and  O_31
    3  A    between atoms: C_9  and  C_32
    4  A    between atoms: C_10  and  C_28
    5  A    between atoms: C_12  and  C_17
    6  A    between atoms: C_12  and  O_31
    7  A    between atoms: C_14  and  C_21
    8  A    between atoms: C_14  and  C_29
    9  A    between atoms: C_15  and  C_19
   10  A    between atoms: C_28  and  C_32
                            x       y       z     vdW  Elec       q    Type
                         _______ _______ _______ _____ _____    ______ ____

>  <TORSDO>
F 10

$$$$
=
 OpenBabel11062408183D

 32 35  0  0  1  0  0  0  0  0999 V2000
  160.7570  204.8560  153.0660 O   0  0  0  0  0  0  0  0  0  0  0  0
  160.8900  206.8760  154.9230 O   0  0  0  0  0  0  0  0  0  0  0  0
  161.2000  207.2700  149.0180 C   0  0  1  0  0  3  0  0  0  0  0  0
  161.1350  204.0790  151.9430 C   0  0  0  0  0  2  0  0  0  0  0  0
  162.4950  207.7480  148.7960 O   0  0  0  0  0  1  0  0  0  0  0  0
  161.1610  207.1590  153.7270 C   0  0  0  0  0  0  0  0  0  0  0  0
  161.0320  205.8170  148.4810 C   0  0  2  0  0  3  0  0  0  0  0  0
  161.0310  205.0150  150.7730 C   0  0  2  0  0  3  0  0  0  0  0  0
  161.6030  204.7220  149.4030 C   0  0  0  0  0  2  0  0  0  0  0  0
  160.8340  207.4070  150.5200 C   0  0  0  0  0  2  0  0  0  0  0  0
  163.0280  206.4310  151.3480 C   0  0  0  0  0  1  0  0  0  0  0  0
  161.0290  206.1510  152.7110 N   0  0  0  0  0  0  0  0  0  0  0  0
  161.5000  206.3000  151.3440 C   0  0  2  0  0  0  0  0  0  0  0  0
  161.7670  204.3760  144.9860 C   0  0  0  0  0  1  0  0  0  0  0  0
  161.4630  205.6450  147.0530 C   0  0  0  0  0  3  0  0  0  0  0  0
  161.3240  204.4900  146.4020 C   0  0  0  0  0  3  0  0  0  0  0  0
  161.5890  208.5540  153.3920 C   0  0  0  0  0  2  0  0  0  0  0  0
  160.4780  209.5500  153.6880 C   0  0  0  0  0  2  0  0  0  0  0  0
  160.0500  210.2850  152.4290 C   0  0  0  0  0  2  0  0  0  0  0  0
  160.5470  211.5910  152.4470 O   0  0  0  0  0  0  0  0  0  0  0  0
  159.7240  213.2990  151.0120 C   0  0  0  0  0  1  0  0  0  0  0  0
  159.4360  212.4010  152.1980 C   0  0  2  0  0  3  0  0  0  0  0  0
  159.1370  213.2630  153.4120 C   0  0  0  0  0  2  0  0  0  0  0  0
  158.2390  213.6640  156.1010 C   0  0  2  0  0  3  0  0  0  0  0  0
  157.6300  213.4080  153.6090 C   0  0  2  0  0  3  0  0  0  0  0  0
  157.0780  213.5430  155.0580 C   0  0  1  0  0  0  0  0  0  0  0  0
  159.2470  212.5100  156.2150 C   0  0  0  0  0  1  0  0  0  0  0  0
  157.0640  212.2070  154.2810 C   0  0  0  0  0  2  0  0  0  0  0  0
  156.8570  213.2630  156.5680 C   0  0  1  0  0  3  0  0  0  0  0  0
  156.6580  211.7990  156.9930 C   0  0  0  0  0  2  0  0  0  0  0  0
  155.1820  211.5210  157.1830 C   0  0  0  0  0  2  0  0  0  0  0  0
  154.7800  210.3300  156.3390 C   0  0  0  0  0  1  0  0  0  0  0  0
  3  5  1  1  0  0  0
  3 10  1  0  0  0  0
  4  1  1  0  0  0  0
  6  2  2  0  0  0  0
  7 15  1  6  0  0  0
  7  3  1  0  0  0  0
  7  9  1  0  0  0  0
  8  9  1  6  0  0  0
  8 13  1  0  0  0  0
  8  4  1  0  0  0  0
 10 13  1  0  0  0  0
 12  1  1  0  0  0  0
 12  6  1  0  0  0  0
 13 11  1  6  0  0  0
 13 12  1  0  0  0  0
 14 16  1  0  0  0  0
 16 15  2  0  0  0  0
 17 18  1  0  0  0  0
 17  6  1  0  0  0  0
 19 20  1  0  0  0  0
 19 18  1  0  0  0  0
 22 21  1  6  0  0  0
 22 20  1  0  0  0  0
 22 23  1  0  0  0  0
 24 27  1  6  0  0  0
 24 29  1  0  0  0  0
 25 23  1  1  0  0  0
 25 28  1  0  0  0  0
 25 26  1  0  0  0  0
 26 28  1  1  0  0  0
 26 24  1  0  0  0  0
 26 29  1  0  0  0  0
 29 30  1  6  0  0  0
 30 31  1  0  0  0  0
 32 31  1  0  0  0  0
M  END
>  <MODEL>
7

>  <REMARK>
 VINA RESULT:      -6.0      2.726      5.611
  Name = 
  10 active torsions:
  status: ('A' for Active; 'I' for Inactive)
    1  A    between atoms: C_6  and  C_17
    2  A    between atoms: C_9  and  O_31
    3  A    between atoms: C_9  and  C_32
    4  A    between atoms: C_10  and  C_28
    5  A    between atoms: C_12  and  C_17
    6  A    between atoms: C_12  and  O_31
    7  A    between atoms: C_14  and  C_21
    8  A    between atoms: C_14  and  C_29
    9  A    between atoms: C_15  and  C_19
   10  A    between atoms: C_28  and  C_32
                            x       y       z     vdW  Elec       q    Type
                         _______ _______ _______ _____ _____    ______ ____

>  <TORSDO>
F 10

$$$$
=
 OpenBabel11062408183D

 32 35  0  0  1  0  0  0  0  0999 V2000
  157.7510  211.0260  156.3840 O   0  0  0  0  0  0  0  0  0  0  0  0
  160.3010  210.1480  156.9080 O   0  0  0  0  0  0  0  0  0  0  0  0
  158.4540  213.7200  152.5550 C   0  0  1  0  0  3  0  0  0  0  0  0
  156.5890  211.2990  155.6220 C   0  0  0  0  0  2  0  0  0  0  0  0
  158.7210  212.9820  151.3990 O   0  0  0  0  0  1  0  0  0  0  0  0
  160.1010  210.7550  155.8230 C   0  0  0  0  0  0  0  0  0  0  0  0
  156.9210  213.9010  152.7700 C   0  0  2  0  0  3  0  0  0  0  0  0
  157.0290  212.2990  154.5910 C   0  0  2  0  0  3  0  0  0  0  0  0
  156.2090  212.6770  153.3770 C   0  0  0  0  0  2  0  0  0  0  0  0
  159.1640  213.0730  153.7740 C   0  0  0  0  0  2  0  0  0  0  0  0
  158.4100  210.7140  153.2120 C   0  0  0  0  0  1  0  0  0  0  0  0
  158.8000  211.2990  155.5440 N   0  0  0  0  0  0  0  0  0  0  0  0
  158.3970  211.8370  154.2560 C   0  0  2  0  0  0  0  0  0  0  0  0
  154.4350  214.4490  149.8790 C   0  0  0  0  0  1  0  0  0  0  0  0
  156.2020  214.4460  151.5690 C   0  0  0  0  0  3  0  0  0  0  0  0
  155.1090  213.8660  151.0710 C   0  0  0  0  0  3  0  0  0  0  0  0
  161.2370  210.9170  154.8630 C   0  0  0  0  0  2  0  0  0  0  0  0
  161.9540  209.5930  154.6400 C   0  0  0  0  0  2  0  0  0  0  0  0
  161.1270  208.6630  153.7680 C   0  0  0  0  0  2  0  0  0  0  0  0
  160.7460  209.3210  152.5960 O   0  0  0  0  0  0  0  0  0  0  0  0
  161.9850  210.3580  150.8500 C   0  0  0  0  0  1  0  0  0  0  0  0
  161.8080  209.1230  151.7100 C   0  0  2  0  0  3  0  0  0  0  0  0
  161.5230  207.9300  150.8140 C   0  0  0  0  0  2  0  0  0  0  0  0
  160.3220  206.2070  148.8680 C   0  0  2  0  0  3  0  0  0  0  0  0
  161.7640  208.2890  149.3500 C   0  0  2  0  0  3  0  0  0  0  0  0
  161.2060  207.3410  148.2490 C   0  0  1  0  0  0  0  0  0  0  0  0
  160.9660  205.2390  149.8740 C   0  0  0  0  0  1  0  0  0  0  0  0
  162.6820  207.3100  148.7070 C   0  0  0  0  0  2  0  0  0  0  0  0
  160.8810  206.0370  147.4730 C   0  0  1  0  0  3  0  0  0  0  0  0
  162.0190  205.0190  147.2940 C   0  0  0  0  0  2  0  0  0  0  0  0
  161.6370  204.0110  146.2310 C   0  0  0  0  0  2  0  0  0  0  0  0
  160.9960  204.7280  145.0620 C   0  0  0  0  0  1  0  0  0  0  0  0
  3  5  1  6  0  0  0
  3  7  1  0  0  0  0
  3 10  1  0  0  0  0
  4  1  1  0  0  0  0
  6  2  2  0  0  0  0
  7 15  1  6  0  0  0
  7  9  1  0  0  0  0
  8  9  1  6  0  0  0
  8  4  1  0  0  0  0
 10 13  1  0  0  0  0
 12  6  1  0  0  0  0
 12  1  1  0  0  0  0
 13 11  1  6  0  0  0
 13  8  1  0  0  0  0
 13 12  1  0  0  0  0
 14 16  1  0  0  0  0
 16 15  2  0  0  0  0
 17  6  1  0  0  0  0
 18 17  1  0  0  0  0
 19 18  1  0  0  0  0
 20 19  1  0  0  0  0
 22 21  1  6  0  0  0
 22 20  1  0  0  0  0
 23 22  1  0  0  0  0
 24 27  1  1  0  0  0
 25 23  1  1  0  0  0
 26 28  1  1  0  0  0
 26 24  1  0  0  0  0
 26 25  1  0  0  0  0
 28 25  1  0  0  0  0
 29 30  1  1  0  0  0
 29 26  1  0  0  0  0
 29 24  1  0  0  0  0
 31 30  1  0  0  0  0
 32 31  1  0  0  0  0
M  END
>  <MODEL>
8

>  <REMARK>
 VINA RESULT:      -5.5      3.330      7.464
  Name = 
  10 active torsions:
  status: ('A' for Active; 'I' for Inactive)
    1  A    between atoms: C_6  and  C_17
    2  A    between atoms: C_9  and  O_31
    3  A    between atoms: C_9  and  C_32
    4  A    between atoms: C_10  and  C_28
    5  A    between atoms: C_12  and  C_17
    6  A    between atoms: C_12  and  O_31
    7  A    between atoms: C_14  and  C_21
    8  A    between atoms: C_14  and  C_29
    9  A    between atoms: C_15  and  C_19
   10  A    between atoms: C_28  and  C_32
                            x       y       z     vdW  Elec       q    Type
                         _______ _______ _______ _____ _____    ______ ____

>  <TORSDO>
F 10

$$$$
=
 OpenBabel11062408183D

 32 35  0  0  1  0  0  0  0  0999 V2000
  162.7480  210.8380  154.9980 O   0  0  0  0  0  0  0  0  0  0  0  0
  163.3020  209.9530  152.4570 O   0  0  0  0  0  0  0  0  0  0  0  0
  158.1780  212.0100  154.6090 C   0  0  1  0  0  3  0  0  0  0  0  0
  162.0500  210.9460  156.2260 C   0  0  0  0  0  2  0  0  0  0  0  0
  157.3270  210.9040  154.5240 O   0  0  0  0  0  1  0  0  0  0  0  0
  162.0980  210.1750  152.7520 C   0  0  0  0  0  0  0  0  0  0  0  0
  158.4590  212.3950  156.0930 C   0  0  2  0  0  3  0  0  0  0  0  0
  160.7020  211.4950  155.8570 C   0  0  2  0  0  3  0  0  0  0  0  0
  159.5140  211.5180  156.7950 C   0  0  0  0  0  2  0  0  0  0  0  0
  159.4720  211.7470  153.7960 C   0  0  0  0  0  2  0  0  0  0  0  0
  159.8310  209.4170  154.7420 C   0  0  0  0  0  1  0  0  0  0  0  0
  161.7720  210.7130  154.0440 N   0  0  0  0  0  0  0  0  0  0  0  0
  160.4210  210.8220  154.5670 C   0  0  2  0  0  0  0  0  0  0  0  0
  154.8580  213.1170  157.2520 C   0  0  0  0  0  1  0  0  0  0  0  0
  157.2170  212.5690  156.9190 C   0  0  0  0  0  3  0  0  0  0  0  0
  156.0590  212.9600  156.3870 C   0  0  0  0  0  3  0  0  0  0  0  0
  161.0390  209.8980  151.7310 C   0  0  0  0  0  2  0  0  0  0  0  0
  161.6550  209.4100  150.4270 C   0  0  0  0  0  2  0  0  0  0  0  0
  161.2550  207.9730  150.1370 C   0  0  0  0  0  2  0  0  0  0  0  0
  161.6330  207.1490  151.2010 O   0  0  0  0  0  0  0  0  0  0  0  0
  161.3050  204.9150  151.9480 C   0  0  0  0  0  1  0  0  0  0  0  0
  160.7350  206.0800  151.1650 C   0  0  2  0  0  3  0  0  0  0  0  0
  160.5010  205.6450  149.7280 C   0  0  0  0  0  2  0  0  0  0  0  0
  161.9610  205.6100  147.2650 C   0  0  2  0  0  3  0  0  0  0  0  0
  161.2810  204.3690  149.4210 C   0  0  2  0  0  3  0  0  0  0  0  0
  162.0240  204.2610  148.0580 C   0  0  1  0  0  0  0  0  0  0  0  0
  160.5850  206.1680  146.8720 C   0  0  0  0  0  1  0  0  0  0  0  0
  160.6430  203.6120  148.3080 C   0  0  0  0  0  2  0  0  0  0  0  0
  162.2900  204.3290  146.5300 C   0  0  1  0  0  3  0  0  0  0  0  0
  161.2080  203.7590  145.5980 C   0  0  0  0  0  2  0  0  0  0  0  0
  161.1960  202.2480  145.6990 C   0  0  0  0  0  2  0  0  0  0  0  0
  159.8820  201.7170  145.1670 C   0  0  0  0  0  1  0  0  0  0  0  0
  1  4  1  0  0  0  0
  2  6  2  0  0  0  0
  3  5  1  1  0  0  0
  3  7  1  0  0  0  0
  6 12  1  0  0  0  0
  7  9  1  0  0  0  0
  7 15  1  1  0  0  0
  8  4  1  1  0  0  0
  8  9  1  0  0  0  0
 10 13  1  0  0  0  0
 10  3  1  0  0  0  0
 12 13  1  0  0  0  0
 12  1  1  0  0  0  0
 13 11  1  1  0  0  0
 13  8  1  0  0  0  0
 16 15  2  0  0  0  0
 16 14  1  0  0  0  0
 17  6  1  0  0  0  0
 18 17  1  0  0  0  0
 19 18  1  0  0  0  0
 19 20  1  0  0  0  0
 22 20  1  0  0  0  0
 22 21  1  1  0  0  0
 23 22  1  0  0  0  0
 24 27  1  6  0  0  0
 24 26  1  0  0  0  0
 25 23  1  6  0  0  0
 26 28  1  6  0  0  0
 26 25  1  0  0  0  0
 28 25  1  0  0  0  0
 29 30  1  6  0  0  0
 29 24  1  0  0  0  0
 29 26  1  0  0  0  0
 30 31  1  0  0  0  0
 32 31  1  0  0  0  0
M  END
>  <MODEL>
9

>  <REMARK>
 VINA RESULT:      -5.2      3.422      8.532
  Name = 
  10 active torsions:
  status: ('A' for Active; 'I' for Inactive)
    1  A    between atoms: C_6  and  C_17
    2  A    between atoms: C_9  and  O_31
    3  A    between atoms: C_9  and  C_32
    4  A    between atoms: C_10  and  C_28
    5  A    between atoms: C_12  and  C_17
    6  A    between atoms: C_12  and  O_31
    7  A    between atoms: C_14  and  C_21
    8  A    between atoms: C_14  and  C_29
    9  A    between atoms: C_15  and  C_19
   10  A    between atoms: C_28  and  C_32
                            x       y       z     vdW  Elec       q    Type
                         _______ _______ _______ _____ _____    ______ ____

>  <TORSDO>
F 10

$$$$
