=
 OpenBabel11062410443D

 32 38  0  0  1  0  0  0  0  0999 V2000
  160.2140  209.1610  156.5000 N   0  0  0  0  0  0  0  0  0  0  0  0
  161.3530  206.5680  152.2360 C   0  0  2  0  0  3  0  0  0  0  0  0
  161.8080  210.1610  148.8940 C   0  0  0  0  0  2  0  0  0  0  0  0
  162.4990  209.2080  148.1290 O   0  0  0  0  0  0  0  0  0  0  0  0
  161.0180  204.3040  151.3680 C   0  0  0  0  0  0  0  0  0  0  0  0
  160.9680  203.4370  150.2640 C   0  0  0  0  0  0  0  0  0  0  0  0
  160.8200  207.1280  154.5530 C   0  0  0  0  0  0  0  0  0  0  0  0
  161.2020  208.9180  152.9840 N   0  0  0  0  0  0  0  0  0  0  0  0
  160.8770  201.7140  148.0490 C   0  0  0  0  0  3  0  0  0  0  0  0
  160.1810  209.5630  155.0870 C   0  0  0  0  0  2  0  0  0  0  0  0
  162.0110  209.8570  150.3770 C   0  0  0  0  0  2  0  0  0  0  0  0
  161.8440  207.9900  152.0460 C   0  0  2  0  0  3  0  0  0  0  0  0
  161.6980  208.4540  150.6700 N   0  0  2  0  0  0  0  0  0  0  0  0
  161.4840  206.1810  149.8540 C   0  0  0  0  0  0  0  0  0  0  0  0
  160.6650  201.2110  149.3350 C   0  0  0  0  0  3  0  0  0  0  0  0
  159.7040  207.7920  156.6800 C   0  0  0  0  0  2  0  0  0  0  0  0
  160.8130  208.5540  154.1700 C   0  0  0  0  0  0  0  0  0  0  0  0
  160.7100  202.0690  150.4380 C   0  0  0  0  0  3  0  0  0  0  0  0
  160.5640  206.7380  155.9700 C   0  0  0  0  0  2  0  0  0  0  0  0
  161.7380  208.0270  148.1840 C   0  0  0  0  0  2  0  0  0  0  0  0
  161.6770  207.4940  149.5990 C   0  0  1  0  0  3  0  0  0  0  0  0
  161.4270  205.2850  148.7750 C   0  0  0  0  0  3  0  0  0  0  0  0
  161.0570  206.1910  153.6360 C   0  0  0  0  0  3  0  0  0  0  0  0
  160.8090  203.7580  152.6340 O   0  0  0  0  0  1  0  0  0  0  0  0
  161.1340  203.0750  147.8640 C   0  0  0  0  0  3  0  0  0  0  0  0
  161.2930  205.6960  151.1870 C   0  0  0  0  0  0  0  0  0  0  0  0
  161.1800  203.9350  148.9660 C   0  0  0  0  0  0  0  0  0  0  0  0
  161.5740  209.2880  157.0190 C   0  0  0  0  0  2  0  0  0  0  0  0
  163.1270  210.7440  155.7650 C   0  0  0  0  0  0  0  0  0  0  0  0
  162.0630  210.7160  156.8590 C   0  0  2  0  0  3  0  0  0  0  0  0
  163.4300  210.8250  157.2590 C   0  0  0  0  0  2  0  0  0  0  0  0
  163.4730  210.7090  154.5950 O   0  0  0  0  0  0  0  0  0  0  0  0
  1 16  1  0  0  0  0
  1 28  1  0  0  0  0
  2 23  1  1  0  0  0
  3 11  1  0  0  0  0
  4 20  1  0  0  0  0
  4  3  1  0  0  0  0
  5 24  1  0  0  0  0
  6 18  1  0  0  0  0
  6  5  2  0  0  0  0
  7 19  1  0  0  0  0
  8 17  2  0  0  0  0
  9 15  1  0  0  0  0
 10  1  1  0  0  0  0
 12  2  1  0  0  0  0
 12  8  1  1  0  0  0
 13 11  1  6  0  0  0
 13 12  1  0  0  0  0
 14 26  2  0  0  0  0
 15 18  2  0  0  0  0
 17  7  1  0  0  0  0
 17 10  1  0  0  0  0
 19 16  1  0  0  0  0
 21 20  1  6  0  0  0
 21 14  1  0  0  0  0
 21 13  1  0  0  0  0
 22 27  2  0  0  0  0
 22 14  1  0  0  0  0
 23  7  2  0  0  0  0
 25  9  2  0  0  0  0
 25 27  1  0  0  0  0
 26  5  1  0  0  0  0
 26  2  1  0  0  0  0
 27  6  1  0  0  0  0
 29 30  1  0  0  0  0
 29 31  1  0  0  0  0
 30 28  1  1  0  0  0
 30 31  1  0  0  0  0
 32 29  2  0  0  0  0
M  END
>  <MODEL>
1

>  <REMARK>
 VINA RESULT:     -11.5      0.000      0.000
  Name = 
  2 active torsions:
  status: ('A' for Active; 'I' for Inactive)
    1  A    between atoms: N_2  and  C_24
    2  A    between atoms: C_10  and  C_24
                            x       y       z     vdW  Elec       q    Type
                         _______ _______ _______ _____ _____    ______ ____

>  <TORSDO>
F 2

$$$$
