=
 OpenBabel11062408463D

 55 60  0  0  1  0  0  0  0  0999 V2000
  157.9630  214.4530  142.8160 C   0  0  2  0  0  3  0  0  0  0  0  0
  162.4620  213.1180  146.0870 C   0  0  0  0  0  2  0  0  0  0  0  0
  163.8230  214.4290  143.9280 O   0  0  0  0  0  1  0  0  0  0  0  0
  161.1150  213.3430  148.1540 C   0  0  1  0  0  3  0  0  0  0  0  0
  163.2870  213.3630  139.3360 C   0  0  0  0  0  2  0  0  0  0  0  0
  163.0390  213.0650  137.9730 O   0  0  0  0  0  0  0  0  0  0  0  0
  160.8910  213.8980  139.6680 C   0  0  2  0  0  3  0  0  0  0  0  0
  161.1240  214.3860  138.3600 O   0  0  0  0  0  0  0  0  0  0  0  0
  163.3460  212.6700  142.3600 C   0  0  0  0  0  2  0  0  0  0  0  0
  161.6990  213.3460  137.5960 C   0  0  0  0  0  2  0  0  0  0  0  0
  155.6430  214.3460  143.7910 C   0  0  0  0  0  2  0  0  0  0  0  0
  162.0760  213.1100  140.2360 C   0  0  2  0  0  3  0  0  0  0  0  0
  156.9130  214.0650  146.3780 C   0  0  0  0  0  0  0  0  0  0  0  0
  159.3030  213.7440  142.7980 C   0  0  0  0  0  2  0  0  0  0  0  0
  157.6490  214.3060  145.2860 C   0  0  0  0  0  3  0  0  0  0  0  0
  158.5290  213.9260  140.4410 C   0  0  2  0  0  3  0  0  0  0  0  0
  161.3810  212.4780  146.9340 C   0  0  0  0  0  2  0  0  0  0  0  0
  159.5990  213.0990  139.7440 C   0  0  0  0  0  2  0  0  0  0  0  0
  162.2930  212.7070  144.6360 C   0  0  0  0  0  2  0  0  0  0  0  0
  163.5300  213.0650  143.8220 C   0  0  2  0  0  3  0  0  0  0  0  0
  154.7960  214.1560  145.0690 C   0  0  0  0  0  2  0  0  0  0  0  0
  159.8610  214.1410  147.9470 C   0  0  0  0  0  3  0  0  0  0  0  0
  157.1060  213.9040  143.9440 C   0  0  2  0  0  3  0  0  0  0  0  0
  162.3530  213.5850  141.6520 C   0  0  0  0  0  2  0  0  0  0  0  0
  158.2220  213.3390  141.8170 C   0  0  2  0  0  3  0  0  0  0  0  0
  158.6500  213.5890  148.0400 C   0  0  0  0  0  3  0  0  0  0  0  0
  157.4310  214.4010  147.7430 C   0  0  0  0  0  2  0  0  0  0  0  0
  155.5460  213.4630  146.2160 C   0  0  0  0  0  2  0  0  0  0  0  0
  155.9980  213.9940  140.4000 C   0  0  0  0  0  2  0  0  0  0  0  0
  154.7580  212.9320  138.8560 C   0  0  2  0  0  3  0  0  0  0  0  0
  157.2660  212.9920  138.4250 C   0  0  0  0  0  2  0  0  0  0  0  0
  155.8770  212.8610  137.7960 C   0  0  0  0  0  2  0  0  0  0  0  0
  155.2710  212.8140  140.1600 O   0  0  0  0  0  0  0  0  0  0  0  0
  157.2830  214.0350  139.5560 C   0  0  2  0  0  3  0  0  0  0  0  0
  153.6790  211.8780  138.6240 C   0  0  2  0  0  3  0  0  0  0  0  0
  152.4100  212.4020  138.8770 O   0  0  0  0  0  1  0  0  0  0  0  0
  153.9150  210.6540  139.4880 C   0  0  0  0  0  1  0  0  0  0  0  0
  161.0160  212.5090  149.3440 N   0  0  0  0  0  2  0  0  0  0  0  0
  161.6210  210.3240  147.9630 O   0  0  0  0  0  0  0  0  0  0  0  0
  162.0670  211.1440  149.1430 S   0  0  0  0  0  0  0  0  0  0  0  0
  163.4580  211.6520  148.8950 O   0  0  0  0  0  0  0  0  0  0  0  0
  162.0520  210.1460  150.6010 C   0  0  0  0  0  0  0  0  0  0  0  0
  162.7090  210.4920  151.5690 O   0  0  0  0  0  0  0  0  0  0  0  0
  160.5110  208.7990  152.0180 C   0  0  0  0  0  1  0  0  0  0  0  0
  161.2500  208.8760  150.6890 C   0  0  2  0  0  3  0  0  0  0  0  0
  161.3340  205.6060  151.6710 C   0  0  0  0  0  0  0  0  0  0  0  0
  163.3480  207.9690  149.9650 O   0  0  0  0  0  1  0  0  0  0  0  0
  161.5190  204.7750  152.8890 C   0  0  0  0  0  1  0  0  0  0  0  0
  161.4340  206.8380  149.1390 C   0  0  1  0  0  3  0  0  0  0  0  0
  160.4250  205.2440  150.7650 C   0  0  0  0  0  3  0  0  0  0  0  0
  162.0530  207.5980  150.3350 C   0  0  2  0  0  0  0  0  0  0  0  0
  160.1720  206.0800  149.5480 C   0  0  0  0  0  2  0  0  0  0  0  0
  162.1440  206.7340  151.4770 O   0  0  0  0  0  0  0  0  0  0  0  0
  161.1540  207.7020  148.0760 O   0  0  0  0  0  0  0  0  0  0  0  0
  161.7130  207.0840  146.9560 C   0  0  0  0  0  1  0  0  0  0  0  0
  1 14  1  1  0  0  0
  1 23  1  0  0  0  0
  2 17  1  0  0  0  0
  4 38  1  1  0  0  0
  6  5  1  0  0  0  0
  7 18  1  6  0  0  0
  7 12  1  0  0  0  0
  8  7  1  0  0  0  0
  9 20  1  0  0  0  0
 10  6  1  0  0  0  0
 10  8  1  0  0  0  0
 11 21  1  0  0  0  0
 12  5  1  6  0  0  0
 12 24  1  0  0  0  0
 13 27  1  0  0  0  0
 15 13  2  0  0  0  0
 16 18  1  6  0  0  0
 16 25  1  0  0  0  0
 17  4  1  0  0  0  0
 19  2  1  0  0  0  0
 20  3  1  6  0  0  0
 20 19  1  0  0  0  0
 21 28  1  0  0  0  0
 22 26  2  0  0  0  0
 22  4  1  0  0  0  0
 23 11  1  6  0  0  0
 23 15  1  0  0  0  0
 24  9  1  0  0  0  0
 25 14  1  1  0  0  0
 25  1  1  0  0  0  0
 27 26  1  0  0  0  0
 28 13  1  0  0  0  0
 30 35  1  6  0  0  0
 30 33  1  0  0  0  0
 32 31  1  0  0  0  0
 32 30  1  0  0  0  0
 33 29  1  0  0  0  0
 34 31  1  6  0  0  0
 34 29  1  0  0  0  0
 34 16  1  0  0  0  0
 35 36  1  0  0  0  0
 35 37  1  1  0  0  0
 39 40  2  0  0  0  0
 40 38  1  0  0  0  0
 40 42  1  0  0  0  0
 41 40  2  0  0  0  0
 42 45  1  0  0  0  0
 42 43  2  0  0  0  0
 45 44  1  1  0  0  0
 46 48  1  0  0  0  0
 49 54  1  6  0  0  0
 49 52  1  0  0  0  0
 49 51  1  0  0  0  0
 50 46  2  0  0  0  0
 51 47  1  6  0  0  0
 51 45  1  0  0  0  0
 51 53  1  0  0  0  0
 52 50  1  0  0  0  0
 53 46  1  0  0  0  0
 55 54  1  0  0  0  0
M  END
>  <MODEL>
1

>  <REMARK>
 VINA RESULT:      -2.4      0.000      0.000
  Name = 
  8 active torsions:
  status: ('A' for Active; 'I' for Inactive)
    1  A    between atoms: C_6  and  C_14
    2  A    between atoms: C_6  and  S_20
    3  A    between atoms: C_8  and  N_22
    4  A    between atoms: C_10  and  C_32
    5  A    between atoms: O_11  and  C_29
    6  A    between atoms: C_14  and  C_38
    7  A    between atoms: S_20  and  N_22
    8  A    between atoms: C_33  and  C_52
                            x       y       z     vdW  Elec       q    Type
                         _______ _______ _______ _____ _____    ______ ____

>  <TORSDO>
F 8

$$$$
=
 OpenBabel11062408463D

 55 60  0  0  1  0  0  0  0  0999 V2000
  157.9760  214.4510  143.2460 C   0  0  2  0  0  3  0  0  0  0  0  0
  162.4750  213.0750  146.5000 C   0  0  0  0  0  2  0  0  0  0  0  0
  163.8340  214.4190  144.3600 O   0  0  0  0  0  1  0  0  0  0  0  0
  161.1270  213.2680  148.5680 C   0  0  1  0  0  3  0  0  0  0  0  0
  163.3030  213.4190  139.7530 C   0  0  0  0  0  2  0  0  0  0  0  0
  163.0560  213.1410  138.3850 O   0  0  0  0  0  0  0  0  0  0  0  0
  160.9060  213.9460  140.0910 C   0  0  2  0  0  3  0  0  0  0  0  0
  161.1390  214.4530  138.7910 O   0  0  0  0  0  0  0  0  0  0  0  0
  163.3610  212.6830  142.7660 C   0  0  0  0  0  2  0  0  0  0  0  0
  161.7160  213.4250  138.0120 C   0  0  0  0  0  2  0  0  0  0  0  0
  155.6550  214.3260  144.2180 C   0  0  0  0  0  2  0  0  0  0  0  0
  162.0920  213.1520  140.6490 C   0  0  2  0  0  3  0  0  0  0  0  0
  156.9250  214.0100  146.8010 C   0  0  0  0  0  0  0  0  0  0  0  0
  159.3160  213.7440  143.2180 C   0  0  0  0  0  2  0  0  0  0  0  0
  157.6600  214.2670  145.7130 C   0  0  0  0  0  3  0  0  0  0  0  0
  158.5430  213.9590  140.8630 C   0  0  2  0  0  3  0  0  0  0  0  0
  161.3950  212.4210  147.3370 C   0  0  0  0  0  2  0  0  0  0  0  0
  159.6150  213.1440  140.1550 C   0  0  0  0  0  2  0  0  0  0  0  0
  162.3070  212.6850  145.0420 C   0  0  0  0  0  2  0  0  0  0  0  0
  163.5440  213.0570  144.2340 C   0  0  2  0  0  3  0  0  0  0  0  0
  154.8070  214.1160  145.4930 C   0  0  0  0  0  2  0  0  0  0  0  0
  159.8720  214.0670  148.3730 C   0  0  0  0  0  3  0  0  0  0  0  0
  157.1190  213.8840  144.3650 C   0  0  2  0  0  3  0  0  0  0  0  0
  162.3680  213.6060  142.0710 C   0  0  0  0  0  2  0  0  0  0  0  0
  158.2370  213.3520  142.2310 C   0  0  2  0  0  3  0  0  0  0  0  0
  158.6610  213.5120  148.4570 C   0  0  0  0  0  3  0  0  0  0  0  0
  157.4410  214.3260  148.1710 C   0  0  0  0  0  2  0  0  0  0  0  0
  155.5580  213.4080  146.6300 C   0  0  0  0  0  2  0  0  0  0  0  0
  156.0550  214.4260  140.8160 C   0  0  0  0  0  2  0  0  0  0  0  0
  154.6060  213.2770  139.5410 C   0  0  2  0  0  3  0  0  0  0  0  0
  157.0740  212.8370  139.0990 C   0  0  0  0  0  2  0  0  0  0  0  0
  155.6590  212.8030  138.5170 C   0  0  0  0  0  2  0  0  0  0  0  0
  155.1430  213.3560  140.8380 O   0  0  0  0  0  0  0  0  0  0  0  0
  157.2970  214.0790  139.9790 C   0  0  2  0  0  3  0  0  0  0  0  0
  153.3660  212.3870  139.5440 C   0  0  2  0  0  3  0  0  0  0  0  0
  153.6760  211.1050  140.0020 O   0  0  0  0  0  1  0  0  0  0  0  0
  152.7460  212.3060  138.1610 C   0  0  0  0  0  1  0  0  0  0  0  0
  161.0290  212.4170  149.7470 N   0  0  0  0  0  2  0  0  0  0  0  0
  161.2230  210.0920  148.4810 O   0  0  0  0  0  0  0  0  0  0  0  0
  161.9500  210.9760  149.4570 S   0  0  0  0  0  0  0  0  0  0  0  0
  163.2750  211.3730  148.8730 O   0  0  0  0  0  0  0  0  0  0  0  0
  162.2070  210.1060  150.9730 C   0  0  0  0  0  0  0  0  0  0  0  0
  162.7530  209.0150  150.9510 O   0  0  0  0  0  0  0  0  0  0  0  0
  162.9040  210.5910  153.3130 C   0  0  0  0  0  1  0  0  0  0  0  0
  161.7710  210.6690  152.2980 C   0  0  2  0  0  3  0  0  0  0  0  0
  160.7080  208.0470  154.2120 C   0  0  0  0  0  0  0  0  0  0  0  0
  159.4320  210.3690  151.8610 O   0  0  0  0  0  1  0  0  0  0  0  0
  160.7750  206.5640  154.2710 C   0  0  0  0  0  1  0  0  0  0  0  0
  159.9790  210.7680  154.1340 C   0  0  1  0  0  3  0  0  0  0  0  0
  160.8010  208.7510  155.3410 C   0  0  0  0  0  3  0  0  0  0  0  0
  160.4210  210.1020  152.8100 C   0  0  2  0  0  0  0  0  0  0  0  0
  160.7880  210.2480  155.3210 C   0  0  0  0  0  2  0  0  0  0  0  0
  160.5090  208.6800  152.9760 O   0  0  0  0  0  0  0  0  0  0  0  0
  160.0720  212.1620  154.0590 O   0  0  0  0  0  0  0  0  0  0  0  0
  159.7480  212.6110  155.3410 C   0  0  0  0  0  1  0  0  0  0  0  0
  1 14  1  1  0  0  0
  1 23  1  0  0  0  0
  2 17  1  0  0  0  0
  4 38  1  1  0  0  0
  6  5  1  0  0  0  0
  7 18  1  6  0  0  0
  7 12  1  0  0  0  0
  8  7  1  0  0  0  0
  9 20  1  0  0  0  0
 10  6  1  0  0  0  0
 10  8  1  0  0  0  0
 11 21  1  0  0  0  0
 12  5  1  6  0  0  0
 12 24  1  0  0  0  0
 13 27  1  0  0  0  0
 15 13  2  0  0  0  0
 16 18  1  6  0  0  0
 16 25  1  0  0  0  0
 17  4  1  0  0  0  0
 19  2  1  0  0  0  0
 20  3  1  6  0  0  0
 20 19  1  0  0  0  0
 21 28  1  0  0  0  0
 22 26  2  0  0  0  0
 22  4  1  0  0  0  0
 23 11  1  6  0  0  0
 23 15  1  0  0  0  0
 24  9  1  0  0  0  0
 25 14  1  1  0  0  0
 25  1  1  0  0  0  0
 27 26  1  0  0  0  0
 28 13  1  0  0  0  0
 29 33  1  0  0  0  0
 30 35  1  1  0  0  0
 30 33  1  0  0  0  0
 32 31  1  0  0  0  0
 32 30  1  0  0  0  0
 34 31  1  1  0  0  0
 34 29  1  0  0  0  0
 34 16  1  0  0  0  0
 35 37  1  6  0  0  0
 35 36  1  0  0  0  0
 39 40  2  0  0  0  0
 40 38  1  0  0  0  0
 40 42  1  0  0  0  0
 41 40  2  0  0  0  0
 42 45  1  0  0  0  0
 43 42  2  0  0  0  0
 45 51  1  0  0  0  0
 45 44  1  1  0  0  0
 46 48  1  0  0  0  0
 46 50  2  0  0  0  0
 49 54  1  6  0  0  0
 49 52  1  0  0  0  0
 51 47  1  6  0  0  0
 51 53  1  0  0  0  0
 51 49  1  0  0  0  0
 52 50  1  0  0  0  0
 53 46  1  0  0  0  0
 54 55  1  0  0  0  0
M  END
>  <MODEL>
2

>  <REMARK>
 VINA RESULT:       0.0      1.584      2.681
  Name = 
  8 active torsions:
  status: ('A' for Active; 'I' for Inactive)
    1  A    between atoms: C_6  and  C_14
    2  A    between atoms: C_6  and  S_20
    3  A    between atoms: C_8  and  N_22
    4  A    between atoms: C_10  and  C_32
    5  A    between atoms: O_11  and  C_29
    6  A    between atoms: C_14  and  C_38
    7  A    between atoms: S_20  and  N_22
    8  A    between atoms: C_33  and  C_52
                            x       y       z     vdW  Elec       q    Type
                         _______ _______ _______ _____ _____    ______ ____

>  <TORSDO>
F 8

$$$$
