=
 OpenBabel11052422443D

 31 33  0  0  1  0  0  0  0  0999 V2000
  157.2600  213.7170  153.2870 C   0  0  0  0  0  0  0  0  0  0  0  0
  158.7880  210.2740  153.7700 C   0  0  0  0  0  2  0  0  0  0  0  0
  158.5680  211.6780  153.2810 C   0  0  0  0  0  0  0  0  0  0  0  0
  158.1690  214.3050  152.4010 C   0  0  0  0  0  3  0  0  0  0  0  0
  160.6810  210.1320  152.1750 N   0  0  0  0  0  0  0  0  0  0  0  0
  156.1890  214.4210  153.7230 F   0  0  0  0  0  0  0  0  0  0  0  0
  160.6030  211.5190  151.9360 N   0  0  0  0  0  2  0  0  0  0  0  0
  160.2360  209.8010  153.5440 C   0  0  1  0  0  3  0  0  0  0  0  0
  157.4610  212.4050  153.7280 C   0  0  0  0  0  3  0  0  0  0  0  0
  159.4660  212.2640  152.3740 C   0  0  0  0  0  0  0  0  0  0  0  0
  159.2740  213.5800  151.9460 C   0  0  0  0  0  3  0  0  0  0  0  0
  161.2050  210.2330  154.6640 C   0  0  1  0  0  3  0  0  0  0  0  0
  160.4450  212.0230  155.9260 C   0  0  0  0  0  2  0  0  0  0  0  0
  161.2730  211.6400  154.8510 O   0  0  0  0  0  0  0  0  0  0  0  0
  160.9910  211.4790  157.2580 C   0  0  0  0  0  2  0  0  0  0  0  0
  163.0070  210.2820  157.0430 C   0  0  0  0  0  1  0  0  0  0  0  0
  161.0140  209.4280  155.9700 C   0  0  2  0  0  3  0  0  0  0  0  0
  161.5590  210.1260  157.1480 N   0  0  0  0  0  0  0  0  0  0  0  0
  161.4030  207.9470  155.8900 C   0  0  0  0  0  2  0  0  0  0  0  0
  160.2040  207.0130  155.9250 C   0  0  0  0  0  1  0  0  0  0  0  0
  162.0100  209.5920  151.8360 C   0  0  0  0  0  2  0  0  0  0  0  0
  161.8800  208.4070  149.7220 C   0  0  0  0  0  0  0  0  0  0  0  0
  162.0000  208.3280  151.0200 C   0  0  0  0  0  0  0  0  0  0  0  0
  161.7680  208.4790  148.4910 O   0  0  0  0  0  0  0  0  0  0  0  0
  162.3080  207.0120  151.6580 C   0  0  0  0  0  2  0  0  0  0  0  0
  161.0930  206.1010  151.6420 C   0  0  0  0  0  2  0  0  0  0  0  0
  161.2060  205.1310  150.4870 C   0  0  0  0  0  2  0  0  0  0  0  0
  160.7860  203.7480  150.9460 C   0  0  0  0  0  2  0  0  0  0  0  0
  160.7770  202.8000  149.7930 C   0  0  0  0  0  0  0  0  0  0  0  0
  160.7740  201.3320  150.0420 C   0  0  0  0  0  1  0  0  0  0  0  0
  160.7930  203.2220  148.6470 O   0  0  0  0  0  0  0  0  0  0  0  0
  1  6  1  0  0  0  0
  1  9  1  0  0  0  0
  3  9  2  0  0  0  0
  3  2  1  0  0  0  0
  4  1  2  0  0  0  0
  5  8  1  0  0  0  0
  7  5  1  0  0  0  0
  7 10  1  0  0  0  0
  8  2  1  1  0  0  0
  8 12  1  0  0  0  0
 10  3  1  0  0  0  0
 11 10  2  0  0  0  0
 11  4  1  0  0  0  0
 12 14  1  1  0  0  0
 12 17  1  0  0  0  0
 13 15  1  0  0  0  0
 14 13  1  0  0  0  0
 16 18  1  0  0  0  0
 17 19  1  6  0  0  0
 17 18  1  0  0  0  0
 18 15  1  0  0  0  0
 19 20  1  0  0  0  0
 21  5  1  0  0  0  0
 22 23  2  0  0  0  0
 23 25  1  0  0  0  0
 23 21  1  0  0  0  0
 24 22  2  0  0  0  0
 26 25  1  0  0  0  0
 27 28  1  0  0  0  0
 27 26  1  0  0  0  0
 29 30  1  0  0  0  0
 29 28  1  0  0  0  0
 31 29  2  0  0  0  0
M  END
>  <MODEL>
1

>  <REMARK>
 VINA RESULT:      -6.6      0.000      0.000
  Name = 
  9 active torsions:
  status: ('A' for Active; 'I' for Inactive)
    1  A    between atoms: C_1  and  C_24
    2  A    between atoms: C_5  and  C_21
    3  A    between atoms: C_6  and  C_7
    4  A    between atoms: C_6  and  C_19
    5  A    between atoms: C_7  and  C_9
    6  A    between atoms: C_9  and  C_23
    7  A    between atoms: N_15  and  C_23
    8  A    between atoms: C_17  and  C_30
    9  A    between atoms: C_19  and  C_24
                            x       y       z     vdW  Elec       q    Type
                         _______ _______ _______ _____ _____    ______ ____

>  <TORSDO>
F 9

$$$$
=
 OpenBabel11052422443D

 31 33  0  0  1  0  0  0  0  0999 V2000
  161.2900  205.8500  144.9730 C   0  0  0  0  0  0  0  0  0  0  0  0
  160.1020  206.6090  148.5000 C   0  0  0  0  0  2  0  0  0  0  0  0
  160.9050  206.0560  147.3560 C   0  0  0  0  0  0  0  0  0  0  0  0
  162.4150  205.0570  145.2210 C   0  0  0  0  0  3  0  0  0  0  0  0
  161.5200  205.2480  150.0100 N   0  0  0  0  0  0  0  0  0  0  0  0
  160.9330  206.1380  143.6990 F   0  0  0  0  0  0  0  0  0  0  0  0
  162.4000  204.9600  148.9480 N   0  0  0  0  0  2  0  0  0  0  0  0
  160.8780  206.5650  149.8290 C   0  0  1  0  0  3  0  0  0  0  0  0
  160.5360  206.3500  146.0400 C   0  0  0  0  0  3  0  0  0  0  0  0
  162.0220  205.2410  147.6000 C   0  0  0  0  0  0  0  0  0  0  0  0
  162.7840  204.7540  146.5350 C   0  0  0  0  0  3  0  0  0  0  0  0
  161.8130  207.7760  150.0330 C   0  0  1  0  0  3  0  0  0  0  0  0
  161.8130  209.2740  148.2650 C   0  0  0  0  0  2  0  0  0  0  0  0
  162.4890  208.1840  148.8520 O   0  0  0  0  0  0  0  0  0  0  0  0
  161.9100  210.5240  149.1580 C   0  0  0  0  0  2  0  0  0  0  0  0
  163.1780  210.2000  151.1150 C   0  0  0  0  0  1  0  0  0  0  0  0
  161.1410  208.9310  150.8120 C   0  0  2  0  0  3  0  0  0  0  0  0
  161.8140  210.2240  150.5950 N   0  0  0  0  0  0  0  0  0  0  0  0
  160.8260  208.6330  152.2830 C   0  0  0  0  0  2  0  0  0  0  0  0
  160.1960  209.8110  153.0080 C   0  0  0  0  0  1  0  0  0  0  0  0
  162.1700  205.0810  151.3220 C   0  0  0  0  0  2  0  0  0  0  0  0
  161.0130  205.2850  153.4450 C   0  0  0  0  0  0  0  0  0  0  0  0
  161.2880  204.5360  152.4120 C   0  0  0  0  0  0  0  0  0  0  0  0
  160.7500  205.9940  154.4260 O   0  0  0  0  0  0  0  0  0  0  0  0
  160.5830  203.2290  152.2350 C   0  0  0  0  0  2  0  0  0  0  0  0
  161.4140  202.2710  151.4000 C   0  0  0  0  0  2  0  0  0  0  0  0
  160.5050  201.4950  150.4720 C   0  0  0  0  0  2  0  0  0  0  0  0
  160.4140  202.2100  149.1390 C   0  0  0  0  0  2  0  0  0  0  0  0
  160.9590  201.3470  148.0490 C   0  0  0  0  0  0  0  0  0  0  0  0
  160.7180  201.7120  146.6250 C   0  0  0  0  0  1  0  0  0  0  0  0
  161.5820  200.3330  148.3190 O   0  0  0  0  0  0  0  0  0  0  0  0
  1  4  2  0  0  0  0
  1  9  1  0  0  0  0
  3 10  1  0  0  0  0
  3  2  1  0  0  0  0
  4 11  1  0  0  0  0
  5 21  1  0  0  0  0
  6  1  1  0  0  0  0
  7  5  1  0  0  0  0
  8  2  1  6  0  0  0
  8  5  1  0  0  0  0
  8 12  1  0  0  0  0
  9  3  2  0  0  0  0
 10  7  1  0  0  0  0
 11 10  2  0  0  0  0
 12 14  1  6  0  0  0
 12 17  1  0  0  0  0
 13 14  1  0  0  0  0
 13 15  1  0  0  0  0
 15 18  1  0  0  0  0
 17 19  1  1  0  0  0
 18 17  1  0  0  0  0
 18 16  1  0  0  0  0
 19 20  1  0  0  0  0
 21 23  1  0  0  0  0
 22 24  2  0  0  0  0
 23 22  2  0  0  0  0
 25 23  1  0  0  0  0
 26 25  1  0  0  0  0
 27 26  1  0  0  0  0
 28 27  1  0  0  0  0
 29 31  2  0  0  0  0
 29 28  1  0  0  0  0
 30 29  1  0  0  0  0
M  END
>  <MODEL>
2

>  <REMARK>
 VINA RESULT:      -6.5      3.982      7.075
  Name = 
  9 active torsions:
  status: ('A' for Active; 'I' for Inactive)
    1  A    between atoms: C_1  and  C_24
    2  A    between atoms: C_5  and  C_21
    3  A    between atoms: C_6  and  C_7
    4  A    between atoms: C_6  and  C_19
    5  A    between atoms: C_7  and  C_9
    6  A    between atoms: C_9  and  C_23
    7  A    between atoms: N_15  and  C_23
    8  A    between atoms: C_17  and  C_30
    9  A    between atoms: C_19  and  C_24
                            x       y       z     vdW  Elec       q    Type
                         _______ _______ _______ _____ _____    ______ ____

>  <TORSDO>
F 9

$$$$
=
 OpenBabel11052422443D

 31 33  0  0  1  0  0  0  0  0999 V2000
  160.5100  213.2180  150.0700 C   0  0  0  0  0  0  0  0  0  0  0  0
  159.3870  210.7010  152.6830 C   0  0  0  0  0  2  0  0  0  0  0  0
  160.1510  211.3400  151.5580 C   0  0  0  0  0  0  0  0  0  0  0  0
  161.5910  212.5510  149.4850 C   0  0  0  0  0  3  0  0  0  0  0  0
  160.7350  208.6570  152.2930 N   0  0  0  0  0  0  0  0  0  0  0  0
  160.1630  214.4530  149.6380 F   0  0  0  0  0  0  0  0  0  0  0  0
  161.5920  209.3700  151.4300 N   0  0  0  0  0  2  0  0  0  0  0  0
  160.1670  209.5420  153.3300 C   0  0  1  0  0  3  0  0  0  0  0  0
  159.7920  212.6140  151.1080 C   0  0  0  0  0  3  0  0  0  0  0  0
  161.2230  210.6640  150.9520 C   0  0  0  0  0  0  0  0  0  0  0  0
  161.9500  211.2740  149.9270 C   0  0  0  0  0  3  0  0  0  0  0  0
  161.1690  210.0030  154.4090 C   0  0  1  0  0  3  0  0  0  0  0  0
  160.6080  212.0140  155.4150 C   0  0  0  0  0  2  0  0  0  0  0  0
  161.3980  211.4060  154.4170 O   0  0  0  0  0  0  0  0  0  0  0  0
  161.0760  211.5890  156.8180 C   0  0  0  0  0  2  0  0  0  0  0  0
  162.9430  210.1540  156.8050 C   0  0  0  0  0  1  0  0  0  0  0  0
  160.8750  209.4000  155.8020 C   0  0  2  0  0  3  0  0  0  0  0  0
  161.4860  210.1780  156.8940 N   0  0  0  0  0  0  0  0  0  0  0  0
  161.0910  207.8860  155.9200 C   0  0  0  0  0  2  0  0  0  0  0  0
  159.8170  207.1250  156.2480 C   0  0  0  0  0  1  0  0  0  0  0  0
  161.3830  207.4490  152.8330 C   0  0  0  0  0  2  0  0  0  0  0  0
  161.1940  205.0940  152.2790 C   0  0  0  0  0  0  0  0  0  0  0  0
  161.4970  206.2970  151.8720 C   0  0  0  0  0  0  0  0  0  0  0  0
  160.9060  203.9520  152.6620 O   0  0  0  0  0  0  0  0  0  0  0  0
  161.7720  206.5420  150.4230 C   0  0  0  0  0  2  0  0  0  0  0  0
  160.5930  206.1200  149.5650 C   0  0  0  0  0  2  0  0  0  0  0  0
  161.0920  205.3230  148.3810 C   0  0  0  0  0  2  0  0  0  0  0  0
  160.8220  206.0930  147.1030 C   0  0  0  0  0  2  0  0  0  0  0  0
  161.6850  205.5820  145.9970 C   0  0  0  0  0  0  0  0  0  0  0  0
  162.9530  204.8690  146.3170 C   0  0  0  0  0  1  0  0  0  0  0  0
  161.3680  205.7650  144.8330 O   0  0  0  0  0  0  0  0  0  0  0  0
  1  9  1  0  0  0  0
  3  2  1  0  0  0  0
  4 11  1  0  0  0  0
  4  1  2  0  0  0  0
  5 21  1  0  0  0  0
  5  8  1  0  0  0  0
  6  1  1  0  0  0  0
  7  5  1  0  0  0  0
  8  2  1  6  0  0  0
  8 12  1  0  0  0  0
  9  3  2  0  0  0  0
 10  7  1  0  0  0  0
 10  3  1  0  0  0  0
 11 10  2  0  0  0  0
 12 14  1  1  0  0  0
 12 17  1  0  0  0  0
 13 15  1  0  0  0  0
 14 13  1  0  0  0  0
 15 18  1  0  0  0  0
 16 18  1  0  0  0  0
 17 19  1  6  0  0  0
 17 18  1  0  0  0  0
 19 20  1  0  0  0  0
 22 24  2  0  0  0  0
 23 22  2  0  0  0  0
 23 21  1  0  0  0  0
 25 23  1  0  0  0  0
 26 25  1  0  0  0  0
 27 26  1  0  0  0  0
 28 27  1  0  0  0  0
 29 30  1  0  0  0  0
 29 28  1  0  0  0  0
 31 29  2  0  0  0  0
M  END
>  <MODEL>
3

>  <REMARK>
 VINA RESULT:      -6.0      2.372      3.136
  Name = 
  9 active torsions:
  status: ('A' for Active; 'I' for Inactive)
    1  A    between atoms: C_1  and  C_24
    2  A    between atoms: C_5  and  C_21
    3  A    between atoms: C_6  and  C_7
    4  A    between atoms: C_6  and  C_19
    5  A    between atoms: C_7  and  C_9
    6  A    between atoms: C_9  and  C_23
    7  A    between atoms: N_15  and  C_23
    8  A    between atoms: C_17  and  C_30
    9  A    between atoms: C_19  and  C_24
                            x       y       z     vdW  Elec       q    Type
                         _______ _______ _______ _____ _____    ______ ____

>  <TORSDO>
F 9

$$$$
=
 OpenBabel11052422443D

 31 33  0  0  1  0  0  0  0  0999 V2000
  160.4200  213.2050  150.3940 C   0  0  0  0  0  0  0  0  0  0  0  0
  159.4080  210.5450  152.9100 C   0  0  0  0  0  2  0  0  0  0  0  0
  160.1310  211.2500  151.7970 C   0  0  0  0  0  0  0  0  0  0  0  0
  161.4940  212.5850  149.7480 C   0  0  0  0  0  3  0  0  0  0  0  0
  160.7750  208.5450  152.3830 N   0  0  0  0  0  0  0  0  0  0  0  0
  160.0420  214.4530  150.0330 F   0  0  0  0  0  0  0  0  0  0  0  0
  161.5970  209.3120  151.5330 N   0  0  0  0  0  2  0  0  0  0  0  0
  160.2230  209.3680  153.4770 C   0  0  1  0  0  3  0  0  0  0  0  0
  159.7400  212.5380  151.4200 C   0  0  0  0  0  3  0  0  0  0  0  0
  161.1950  210.6220  151.1290 C   0  0  0  0  0  0  0  0  0  0  0  0
  161.8840  211.2940  150.1170 C   0  0  0  0  0  3  0  0  0  0  0  0
  161.2480  209.7930  154.5500 C   0  0  1  0  0  3  0  0  0  0  0  0
  160.7850  211.8390  155.5350 C   0  0  0  0  0  2  0  0  0  0  0  0
  161.5430  211.1830  154.5430 O   0  0  0  0  0  0  0  0  0  0  0  0
  161.2350  211.4060  156.9420 C   0  0  0  0  0  2  0  0  0  0  0  0
  163.0310  209.8840  156.9420 C   0  0  0  0  0  1  0  0  0  0  0  0
  160.9270  209.2190  155.9500 C   0  0  2  0  0  3  0  0  0  0  0  0
  161.5770  209.9780  157.0330 N   0  0  0  0  0  0  0  0  0  0  0  0
  161.0720  207.6970  156.0830 C   0  0  0  0  0  2  0  0  0  0  0  0
  160.0540  207.0830  157.0300 C   0  0  0  0  0  1  0  0  0  0  0  0
  161.4560  207.3220  152.8450 C   0  0  0  0  0  2  0  0  0  0  0  0
  161.5240  206.2810  150.6540 C   0  0  0  0  0  0  0  0  0  0  0  0
  161.3240  206.1310  151.9360 C   0  0  0  0  0  0  0  0  0  0  0  0
  161.7140  206.4190  149.4380 O   0  0  0  0  0  0  0  0  0  0  0  0
  161.1490  204.7590  152.5030 C   0  0  0  0  0  2  0  0  0  0  0  0
  160.5640  203.8120  151.4700 C   0  0  0  0  0  2  0  0  0  0  0  0
  161.5360  202.6820  151.2150 C   0  0  0  0  0  2  0  0  0  0  0  0
  160.8210  201.5500  150.5040 C   0  0  0  0  0  2  0  0  0  0  0  0
  161.0780  201.6160  149.0350 C   0  0  0  0  0  0  0  0  0  0  0  0
  161.1560  202.9400  148.3560 C   0  0  0  0  0  1  0  0  0  0  0  0
  161.2040  200.5920  148.3840 O   0  0  0  0  0  0  0  0  0  0  0  0
  1  9  1  0  0  0  0
  3  2  1  0  0  0  0
  4 11  1  0  0  0  0
  4  1  2  0  0  0  0
  5 21  1  0  0  0  0
  5  8  1  0  0  0  0
  6  1  1  0  0  0  0
  7  5  1  0  0  0  0
  8  2  1  6  0  0  0
  8 12  1  0  0  0  0
  9  3  2  0  0  0  0
 10  7  1  0  0  0  0
 10  3  1  0  0  0  0
 11 10  2  0  0  0  0
 12 14  1  1  0  0  0
 12 17  1  0  0  0  0
 13 15  1  0  0  0  0
 14 13  1  0  0  0  0
 15 18  1  0  0  0  0
 16 18  1  0  0  0  0
 17 19  1  6  0  0  0
 17 18  1  0  0  0  0
 19 20  1  0  0  0  0
 22 23  2  0  0  0  0
 23 25  1  0  0  0  0
 23 21  1  0  0  0  0
 24 22  2  0  0  0  0
 26 25  1  0  0  0  0
 27 26  1  0  0  0  0
 28 27  1  0  0  0  0
 29 28  1  0  0  0  0
 30 29  1  0  0  0  0
 31 29  2  0  0  0  0
M  END
>  <MODEL>
4

>  <REMARK>
 VINA RESULT:      -5.9      1.809      2.418
  Name = 
  9 active torsions:
  status: ('A' for Active; 'I' for Inactive)
    1  A    between atoms: C_1  and  C_24
    2  A    between atoms: C_5  and  C_21
    3  A    between atoms: C_6  and  C_7
    4  A    between atoms: C_6  and  C_19
    5  A    between atoms: C_7  and  C_9
    6  A    between atoms: C_9  and  C_23
    7  A    between atoms: N_15  and  C_23
    8  A    between atoms: C_17  and  C_30
    9  A    between atoms: C_19  and  C_24
                            x       y       z     vdW  Elec       q    Type
                         _______ _______ _______ _____ _____    ______ ____

>  <TORSDO>
F 9

$$$$
=
 OpenBabel11052422443D

 31 33  0  0  1  0  0  0  0  0999 V2000
  161.4480  205.4630  144.2400 C   0  0  0  0  0  0  0  0  0  0  0  0
  162.7130  204.5170  147.6940 C   0  0  0  0  0  2  0  0  0  0  0  0
  161.9020  205.1520  146.5990 C   0  0  0  0  0  0  0  0  0  0  0  0
  160.3750  206.3030  144.5550 C   0  0  0  0  0  3  0  0  0  0  0  0
  161.4200  205.8940  149.3000 N   0  0  0  0  0  0  0  0  0  0  0  0
  161.7460  205.2030  142.9450 F   0  0  0  0  0  0  0  0  0  0  0  0
  160.5200  206.2640  148.2810 N   0  0  0  0  0  2  0  0  0  0  0  0
  161.9860  204.5520  149.0500 C   0  0  1  0  0  3  0  0  0  0  0  0
  162.2100  204.8870  145.2610 C   0  0  0  0  0  3  0  0  0  0  0  0
  160.8370  206.0130  146.9110 C   0  0  0  0  0  0  0  0  0  0  0  0
  160.0670  206.5760  145.8910 C   0  0  0  0  0  3  0  0  0  0  0  0
  160.9960  203.3850  149.2470 C   0  0  1  0  0  3  0  0  0  0  0  0
  161.1310  201.7520  147.6060 C   0  0  0  0  0  2  0  0  0  0  0  0
  160.4330  202.9010  148.0350 O   0  0  0  0  0  0  0  0  0  0  0  0
  160.9020  200.5800  148.5760 C   0  0  0  0  0  2  0  0  0  0  0  0
  159.4500  201.0860  150.3590 C   0  0  0  0  0  1  0  0  0  0  0  0
  161.5470  202.2780  150.1770 C   0  0  2  0  0  3  0  0  0  0  0  0
  160.8590  200.9890  149.9890 N   0  0  0  0  0  0  0  0  0  0  0  0
  161.7180  202.6840  151.6460 C   0  0  0  0  0  2  0  0  0  0  0  0
  160.4680  203.3090  152.2420 C   0  0  0  0  0  1  0  0  0  0  0  0
  160.8240  206.0460  150.6390 C   0  0  0  0  0  2  0  0  0  0  0  0
  161.8800  208.1490  151.2330 C   0  0  0  0  0  0  0  0  0  0  0  0
  161.5920  206.9260  151.5880 C   0  0  0  0  0  0  0  0  0  0  0  0
  162.1540  209.3100  150.8990 O   0  0  0  0  0  0  0  0  0  0  0  0
  161.8640  206.4760  152.9870 C   0  0  0  0  0  2  0  0  0  0  0  0
  160.7140  206.8410  153.9100 C   0  0  0  0  0  2  0  0  0  0  0  0
  161.2040  207.8060  154.9660 C   0  0  0  0  0  2  0  0  0  0  0  0
  160.2640  208.9940  155.0410 C   0  0  0  0  0  2  0  0  0  0  0  0
  160.7600  210.1030  154.1740 C   0  0  0  0  0  0  0  0  0  0  0  0
  159.7910  210.9370  153.4110 C   0  0  0  0  0  1  0  0  0  0  0  0
  161.9580  210.3170  154.0710 O   0  0  0  0  0  0  0  0  0  0  0  0
  1  4  2  0  0  0  0
  1  9  1  0  0  0  0
  3 10  1  0  0  0  0
  3  2  1  0  0  0  0
  4 11  1  0  0  0  0
  5 21  1  0  0  0  0
  6  1  1  0  0  0  0
  7  5  1  0  0  0  0
  8  2  1  6  0  0  0
  8 12  1  0  0  0  0
  8  5  1  0  0  0  0
  9  3  2  0  0  0  0
 10  7  1  0  0  0  0
 11 10  2  0  0  0  0
 12 14  1  6  0  0  0
 12 17  1  0  0  0  0
 13 14  1  0  0  0  0
 13 15  1  0  0  0  0
 15 18  1  0  0  0  0
 17 19  1  1  0  0  0
 18 17  1  0  0  0  0
 18 16  1  0  0  0  0
 19 20  1  0  0  0  0
 21 23  1  0  0  0  0
 22 23  2  0  0  0  0
 23 25  1  0  0  0  0
 24 22  2  0  0  0  0
 25 26  1  0  0  0  0
 26 27  1  0  0  0  0
 27 28  1  0  0  0  0
 29 28  1  0  0  0  0
 30 29  1  0  0  0  0
 31 29  2  0  0  0  0
M  END
>  <MODEL>
5

>  <REMARK>
 VINA RESULT:      -5.7      4.325      8.998
  Name = 
  9 active torsions:
  status: ('A' for Active; 'I' for Inactive)
    1  A    between atoms: C_1  and  C_24
    2  A    between atoms: C_5  and  C_21
    3  A    between atoms: C_6  and  C_7
    4  A    between atoms: C_6  and  C_19
    5  A    between atoms: C_7  and  C_9
    6  A    between atoms: C_9  and  C_23
    7  A    between atoms: N_15  and  C_23
    8  A    between atoms: C_17  and  C_30
    9  A    between atoms: C_19  and  C_24
                            x       y       z     vdW  Elec       q    Type
                         _______ _______ _______ _____ _____    ______ ____

>  <TORSDO>
F 9

$$$$
=
 OpenBabel11052422443D

 31 33  0  0  1  0  0  0  0  0999 V2000
  161.5730  205.4950  144.2440 C   0  0  0  0  0  0  0  0  0  0  0  0
  162.7110  204.5730  147.7490 C   0  0  0  0  0  2  0  0  0  0  0  0
  161.9280  205.1840  146.6210 C   0  0  0  0  0  0  0  0  0  0  0  0
  160.4540  206.2900  144.5130 C   0  0  0  0  0  3  0  0  0  0  0  0
  161.2910  205.8870  149.3000 N   0  0  0  0  0  0  0  0  0  0  0  0
  161.9410  205.2560  142.9640 F   0  0  0  0  0  0  0  0  0  0  0  0
  160.4270  206.2300  148.2410 N   0  0  0  0  0  2  0  0  0  0  0  0
  161.9200  204.5710  149.0700 C   0  0  1  0  0  3  0  0  0  0  0  0
  162.3080  204.9410  145.2980 C   0  0  0  0  0  3  0  0  0  0  0  0
  160.8170  206.0020  146.8870 C   0  0  0  0  0  0  0  0  0  0  0  0
  160.0740  206.5420  145.8340 C   0  0  0  0  0  3  0  0  0  0  0  0
  160.9690  203.3640  149.2130 C   0  0  1  0  0  3  0  0  0  0  0  0
  161.1960  201.7830  147.5340 C   0  0  0  0  0  2  0  0  0  0  0  0
  160.4490  202.8940  147.9770 O   0  0  0  0  0  0  0  0  0  0  0  0
  160.9890  200.5770  148.4670 C   0  0  0  0  0  2  0  0  0  0  0  0
  159.4810  200.9840  150.2300 C   0  0  0  0  0  1  0  0  0  0  0  0
  161.5380  202.2530  150.1270 C   0  0  2  0  0  3  0  0  0  0  0  0
  160.9000  200.9460  149.8890 N   0  0  0  0  0  0  0  0  0  0  0  0
  161.6630  202.6250  151.6100 C   0  0  0  0  0  2  0  0  0  0  0  0
  160.4720  203.4130  152.1290 C   0  0  0  0  0  1  0  0  0  0  0  0
  160.6270  206.0070  150.6100 C   0  0  0  0  0  2  0  0  0  0  0  0
  160.9740  206.8950  152.8420 C   0  0  0  0  0  0  0  0  0  0  0  0
  161.2750  206.9650  151.5730 C   0  0  0  0  0  0  0  0  0  0  0  0
  160.6910  206.8320  154.0460 O   0  0  0  0  0  0  0  0  0  0  0  0
  162.3840  207.8600  151.1220 C   0  0  0  0  0  2  0  0  0  0  0  0
  161.8650  209.2500  150.8000 C   0  0  0  0  0  2  0  0  0  0  0  0
  162.0650  210.1520  151.9980 C   0  0  0  0  0  2  0  0  0  0  0  0
  160.7160  210.6130  152.5140 C   0  0  0  0  0  2  0  0  0  0  0  0
  160.8340  211.0830  153.9250 C   0  0  0  0  0  0  0  0  0  0  0  0
  161.7870  210.4110  154.8520 C   0  0  0  0  0  1  0  0  0  0  0  0
  160.1380  212.0010  154.3310 O   0  0  0  0  0  0  0  0  0  0  0  0
  1  4  2  0  0  0  0
  1  9  1  0  0  0  0
  3 10  1  0  0  0  0
  3  2  1  0  0  0  0
  4 11  1  0  0  0  0
  5 21  1  0  0  0  0
  6  1  1  0  0  0  0
  7  5  1  0  0  0  0
  8  2  1  6  0  0  0
  8 12  1  0  0  0  0
  8  5  1  0  0  0  0
  9  3  2  0  0  0  0
 10  7  1  0  0  0  0
 11 10  2  0  0  0  0
 12 14  1  6  0  0  0
 12 17  1  0  0  0  0
 13 14  1  0  0  0  0
 13 15  1  0  0  0  0
 15 18  1  0  0  0  0
 17 19  1  1  0  0  0
 18 17  1  0  0  0  0
 18 16  1  0  0  0  0
 19 20  1  0  0  0  0
 21 23  1  0  0  0  0
 22 24  2  0  0  0  0
 23 22  2  0  0  0  0
 25 23  1  0  0  0  0
 26 25  1  0  0  0  0
 26 27  1  0  0  0  0
 27 28  1  0  0  0  0
 28 29  1  0  0  0  0
 29 31  2  0  0  0  0
 29 30  1  0  0  0  0
M  END
>  <MODEL>
6

>  <REMARK>
 VINA RESULT:      -5.4      4.386      9.187
  Name = 
  9 active torsions:
  status: ('A' for Active; 'I' for Inactive)
    1  A    between atoms: C_1  and  C_24
    2  A    between atoms: C_5  and  C_21
    3  A    between atoms: C_6  and  C_7
    4  A    between atoms: C_6  and  C_19
    5  A    between atoms: C_7  and  C_9
    6  A    between atoms: C_9  and  C_23
    7  A    between atoms: N_15  and  C_23
    8  A    between atoms: C_17  and  C_30
    9  A    between atoms: C_19  and  C_24
                            x       y       z     vdW  Elec       q    Type
                         _______ _______ _______ _____ _____    ______ ____

>  <TORSDO>
F 9

$$$$
=
 OpenBabel11052422443D

 31 33  0  0  1  0  0  0  0  0999 V2000
  160.9050  203.1800  151.4550 C   0  0  0  0  0  0  0  0  0  0  0  0
  162.5910  206.2520  152.9200 C   0  0  0  0  0  2  0  0  0  0  0  0
  161.7740  205.3710  152.0180 C   0  0  0  0  0  0  0  0  0  0  0  0
  160.2270  203.7280  150.3620 C   0  0  0  0  0  3  0  0  0  0  0  0
  162.1600  208.1000  151.3240 N   0  0  0  0  0  0  0  0  0  0  0  0
  160.8110  201.8550  151.7150 F   0  0  0  0  0  0  0  0  0  0  0  0
  161.2000  207.3160  150.6530 N   0  0  0  0  0  2  0  0  0  0  0  0
  162.2360  207.7410  152.7550 C   0  0  1  0  0  3  0  0  0  0  0  0
  161.6780  204.0020  152.2840 C   0  0  0  0  0  3  0  0  0  0  0  0
  161.1090  205.9130  150.9060 C   0  0  0  0  0  0  0  0  0  0  0  0
  160.3250  205.0950  150.0880 C   0  0  0  0  0  3  0  0  0  0  0  0
  161.0200  208.1790  153.5980 C   0  0  1  0  0  3  0  0  0  0  0  0
  160.2980  206.5770  155.1090 C   0  0  0  0  0  2  0  0  0  0  0  0
  160.0810  207.1380  153.8340 O   0  0  0  0  0  0  0  0  0  0  0  0
  159.9620  207.5900  156.2180 C   0  0  0  0  0  2  0  0  0  0  0  0
  159.1640  209.6540  155.4120 C   0  0  0  0  0  1  0  0  0  0  0  0
  161.4190  208.9730  154.8640 C   0  0  2  0  0  3  0  0  0  0  0  0
  160.3610  208.9680  155.8900 N   0  0  0  0  0  0  0  0  0  0  0  0
  162.0290  210.3560  154.6050 C   0  0  0  0  0  2  0  0  0  0  0  0
  162.7140  210.9430  155.8280 C   0  0  0  0  0  1  0  0  0  0  0  0
  161.9560  209.5390  151.0830 C   0  0  0  0  0  2  0  0  0  0  0  0
  161.8580  211.2220  149.3370 C   0  0  0  0  0  0  0  0  0  0  0  0
  162.0940  209.9760  149.6500 C   0  0  0  0  0  0  0  0  0  0  0  0
  161.6360  212.4030  149.0380 O   0  0  0  0  0  0  0  0  0  0  0  0
  162.6700  209.0510  148.6270 C   0  0  0  0  0  2  0  0  0  0  0  0
  161.5800  208.2330  147.9580 C   0  0  0  0  0  2  0  0  0  0  0  0
  162.1690  206.9410  147.4370 C   0  0  0  0  0  2  0  0  0  0  0  0
  161.1300  206.2080  146.6110 C   0  0  0  0  0  2  0  0  0  0  0  0
  161.7920  205.3990  145.5450 C   0  0  0  0  0  0  0  0  0  0  0  0
  163.0770  204.7030  145.8340 C   0  0  0  0  0  1  0  0  0  0  0  0
  161.2960  205.3220  144.4320 O   0  0  0  0  0  0  0  0  0  0  0  0
  1  6  1  0  0  0  0
  1  9  1  0  0  0  0
  3  9  2  0  0  0  0
  3  2  1  0  0  0  0
  4  1  2  0  0  0  0
  5  8  1  0  0  0  0
  7 10  1  0  0  0  0
  7  5  1  0  0  0  0
  8  2  1  6  0  0  0
  8 12  1  0  0  0  0
 10  3  1  0  0  0  0
 11  4  1  0  0  0  0
 11 10  2  0  0  0  0
 12 14  1  1  0  0  0
 12 17  1  0  0  0  0
 13 15  1  0  0  0  0
 14 13  1  0  0  0  0
 16 18  1  0  0  0  0
 17 19  1  6  0  0  0
 17 18  1  0  0  0  0
 18 15  1  0  0  0  0
 19 20  1  0  0  0  0
 21  5  1  0  0  0  0
 22 23  2  0  0  0  0
 23 21  1  0  0  0  0
 24 22  2  0  0  0  0
 25 23  1  0  0  0  0
 26 25  1  0  0  0  0
 27 26  1  0  0  0  0
 28 27  1  0  0  0  0
 29 30  1  0  0  0  0
 29 28  1  0  0  0  0
 31 29  2  0  0  0  0
M  END
>  <MODEL>
7

>  <REMARK>
 VINA RESULT:      -5.4      3.693      5.883
  Name = 
  9 active torsions:
  status: ('A' for Active; 'I' for Inactive)
    1  A    between atoms: C_1  and  C_24
    2  A    between atoms: C_5  and  C_21
    3  A    between atoms: C_6  and  C_7
    4  A    between atoms: C_6  and  C_19
    5  A    between atoms: C_7  and  C_9
    6  A    between atoms: C_9  and  C_23
    7  A    between atoms: N_15  and  C_23
    8  A    between atoms: C_17  and  C_30
    9  A    between atoms: C_19  and  C_24
                            x       y       z     vdW  Elec       q    Type
                         _______ _______ _______ _____ _____    ______ ____

>  <TORSDO>
F 9

$$$$
=
 OpenBabel11052422443D

 31 33  0  0  1  0  0  0  0  0999 V2000
  161.2410  209.6980  152.4340 C   0  0  0  0  0  0  0  0  0  0  0  0
  160.0810  206.8150  150.2510 C   0  0  0  0  0  2  0  0  0  0  0  0
  160.9320  207.9120  150.8260 C   0  0  0  0  0  0  0  0  0  0  0  0
  162.5220  209.9360  151.9270 C   0  0  0  0  0  3  0  0  0  0  0  0
  161.8300  206.5180  148.5190 N   0  0  0  0  0  0  0  0  0  0  0  0
  160.7710  210.4440  153.4620 F   0  0  0  0  0  0  0  0  0  0  0  0
  162.7020  207.3630  149.2340 N   0  0  0  0  0  2  0  0  0  0  0  0
  160.9080  205.8090  149.4300 C   0  0  1  0  0  3  0  0  0  0  0  0
  160.4470  208.6860  151.8860 C   0  0  0  0  0  3  0  0  0  0  0  0
  162.2100  208.1700  150.3050 C   0  0  0  0  0  0  0  0  0  0  0  0
  163.0090  209.1700  150.8640 C   0  0  0  0  0  3  0  0  0  0  0  0
  161.5650  204.7090  150.2900 C   0  0  1  0  0  3  0  0  0  0  0  0
  161.2050  204.9550  152.5660 C   0  0  0  0  0  2  0  0  0  0  0  0
  162.1120  205.1860  151.5120 O   0  0  0  0  0  0  0  0  0  0  0  0
  161.0500  203.4470  152.8330 C   0  0  0  0  0  2  0  0  0  0  0  0
  162.3990  202.0920  151.4590 C   0  0  0  0  0  1  0  0  0  0  0  0
  160.6770  203.4520  150.4400 C   0  0  2  0  0  3  0  0  0  0  0  0
  161.0510  202.6330  151.6070 N   0  0  0  0  0  0  0  0  0  0  0  0
  160.4650  202.6420  149.1550 C   0  0  0  0  0  2  0  0  0  0  0  0
  159.7030  201.3470  149.3860 C   0  0  0  0  0  1  0  0  0  0  0  0
  162.5620  205.6250  147.6030 C   0  0  0  0  0  2  0  0  0  0  0  0
  160.8880  205.7870  145.8530 C   0  0  0  0  0  0  0  0  0  0  0  0
  161.7390  205.0300  146.4920 C   0  0  0  0  0  0  0  0  0  0  0  0
  160.0810  206.5020  145.2450 O   0  0  0  0  0  0  0  0  0  0  0  0
  162.0170  203.6470  145.9990 C   0  0  0  0  0  2  0  0  0  0  0  0
  160.8600  203.1230  145.1660 C   0  0  0  0  0  2  0  0  0  0  0  0
  160.2390  201.9320  145.8620 C   0  0  0  0  0  2  0  0  0  0  0  0
  160.4370  200.6910  145.0140 C   0  0  0  0  0  2  0  0  0  0  0  0
  161.1170  199.6240  145.8060 C   0  0  0  0  0  0  0  0  0  0  0  0
  161.2050  198.2410  145.2620 C   0  0  0  0  0  1  0  0  0  0  0  0
  161.5810  199.8750  146.9070 O   0  0  0  0  0  0  0  0  0  0  0  0
  1  6  1  0  0  0  0
  2  3  1  0  0  0  0
  3  9  1  0  0  0  0
  4  1  1  0  0  0  0
  5  7  1  0  0  0  0
  5  8  1  0  0  0  0
  7 10  1  0  0  0  0
  8  2  1  1  0  0  0
  8 12  1  0  0  0  0
  9  1  2  0  0  0  0
 10  3  2  0  0  0  0
 10 11  1  0  0  0  0
 11  4  2  0  0  0  0
 12 17  1  0  0  0  0
 12 14  1  1  0  0  0
 13 15  1  0  0  0  0
 14 13  1  0  0  0  0
 16 18  1  0  0  0  0
 17 19  1  6  0  0  0
 17 18  1  0  0  0  0
 18 15  1  0  0  0  0
 19 20  1  0  0  0  0
 21  5  1  0  0  0  0
 22 23  2  0  0  0  0
 23 21  1  0  0  0  0
 24 22  2  0  0  0  0
 25 23  1  0  0  0  0
 26 27  1  0  0  0  0
 26 25  1  0  0  0  0
 28 29  1  0  0  0  0
 28 27  1  0  0  0  0
 29 31  2  0  0  0  0
 30 29  1  0  0  0  0
M  END
>  <MODEL>
8

>  <REMARK>
 VINA RESULT:      -5.3      4.051      6.576
  Name = 
  9 active torsions:
  status: ('A' for Active; 'I' for Inactive)
    1  A    between atoms: C_1  and  C_24
    2  A    between atoms: C_5  and  C_21
    3  A    between atoms: C_6  and  C_7
    4  A    between atoms: C_6  and  C_19
    5  A    between atoms: C_7  and  C_9
    6  A    between atoms: C_9  and  C_23
    7  A    between atoms: N_15  and  C_23
    8  A    between atoms: C_17  and  C_30
    9  A    between atoms: C_19  and  C_24
                            x       y       z     vdW  Elec       q    Type
                         _______ _______ _______ _____ _____    ______ ____

>  <TORSDO>
F 9

$$$$
=
 OpenBabel11052422443D

 31 33  0  0  1  0  0  0  0  0999 V2000
  161.5750  205.4530  144.2470 C   0  0  0  0  0  0  0  0  0  0  0  0
  162.7340  204.5660  147.7540 C   0  0  0  0  0  2  0  0  0  0  0  0
  161.9440  205.1650  146.6240 C   0  0  0  0  0  0  0  0  0  0  0  0
  160.4570  206.2490  144.5150 C   0  0  0  0  0  3  0  0  0  0  0  0
  161.3220  205.8930  149.3000 N   0  0  0  0  0  0  0  0  0  0  0  0
  161.9360  205.2020  142.9670 F   0  0  0  0  0  0  0  0  0  0  0  0
  160.4510  206.2250  148.2440 N   0  0  0  0  0  2  0  0  0  0  0  0
  161.9510  204.5750  149.0790 C   0  0  1  0  0  3  0  0  0  0  0  0
  162.3170  204.9090  145.3010 C   0  0  0  0  0  3  0  0  0  0  0  0
  160.8340  205.9840  146.8890 C   0  0  0  0  0  0  0  0  0  0  0  0
  160.0840  206.5130  145.8360 C   0  0  0  0  0  3  0  0  0  0  0  0
  161.0020  203.3690  149.2390 C   0  0  1  0  0  3  0  0  0  0  0  0
  161.2090  201.7800  147.5640 C   0  0  0  0  0  2  0  0  0  0  0  0
  160.4670  202.8930  148.0120 O   0  0  0  0  0  0  0  0  0  0  0  0
  161.0140  200.5780  148.5050 C   0  0  0  0  0  2  0  0  0  0  0  0
  159.5280  200.9930  150.2850 C   0  0  0  0  0  1  0  0  0  0  0  0
  161.5830  202.2620  150.1500 C   0  0  2  0  0  3  0  0  0  0  0  0
  160.9430  200.9540  149.9260 N   0  0  0  0  0  0  0  0  0  0  0  0
  161.7270  202.6390  151.6300 C   0  0  0  0  0  2  0  0  0  0  0  0
  160.4550  203.2230  152.2220 C   0  0  0  0  0  1  0  0  0  0  0  0
  160.6660  206.0240  150.6130 C   0  0  0  0  0  2  0  0  0  0  0  0
  161.3950  206.6440  152.8430 C   0  0  0  0  0  0  0  0  0  0  0  0
  161.3420  206.9610  151.5780 C   0  0  0  0  0  0  0  0  0  0  0  0
  161.4490  206.3450  154.0440 O   0  0  0  0  0  0  0  0  0  0  0  0
  162.1020  208.1470  151.0780 C   0  0  0  0  0  2  0  0  0  0  0  0
  161.3000  209.4230  151.2550 C   0  0  0  0  0  2  0  0  0  0  0  0
  162.0210  210.5690  150.5800 C   0  0  0  0  0  2  0  0  0  0  0  0
  162.1910  210.2600  149.1050 C   0  0  0  0  0  2  0  0  0  0  0  0
  161.9790  211.4910  148.2900 C   0  0  0  0  0  0  0  0  0  0  0  0
  163.1470  212.3190  147.8810 C   0  0  0  0  0  1  0  0  0  0  0  0
  160.8510  211.8360  147.9740 O   0  0  0  0  0  0  0  0  0  0  0  0
  1  4  2  0  0  0  0
  1  9  1  0  0  0  0
  3 10  1  0  0  0  0
  3  2  1  0  0  0  0
  4 11  1  0  0  0  0
  5 21  1  0  0  0  0
  6  1  1  0  0  0  0
  7  5  1  0  0  0  0
  8  2  1  6  0  0  0
  8 12  1  0  0  0  0
  8  5  1  0  0  0  0
  9  3  2  0  0  0  0
 10  7  1  0  0  0  0
 11 10  2  0  0  0  0
 12 14  1  6  0  0  0
 12 17  1  0  0  0  0
 13 14  1  0  0  0  0
 13 15  1  0  0  0  0
 15 18  1  0  0  0  0
 17 19  1  1  0  0  0
 18 17  1  0  0  0  0
 18 16  1  0  0  0  0
 19 20  1  0  0  0  0
 21 23  1  0  0  0  0
 22 24  2  0  0  0  0
 23 22  2  0  0  0  0
 25 26  1  0  0  0  0
 25 23  1  0  0  0  0
 27 26  1  0  0  0  0
 28 27  1  0  0  0  0
 29 28  1  0  0  0  0
 30 29  1  0  0  0  0
 31 29  2  0  0  0  0
M  END
>  <MODEL>
9

>  <REMARK>
 VINA RESULT:      -5.2      4.932      9.160
  Name = 
  9 active torsions:
  status: ('A' for Active; 'I' for Inactive)
    1  A    between atoms: C_1  and  C_24
    2  A    between atoms: C_5  and  C_21
    3  A    between atoms: C_6  and  C_7
    4  A    between atoms: C_6  and  C_19
    5  A    between atoms: C_7  and  C_9
    6  A    between atoms: C_9  and  C_23
    7  A    between atoms: N_15  and  C_23
    8  A    between atoms: C_17  and  C_30
    9  A    between atoms: C_19  and  C_24
                            x       y       z     vdW  Elec       q    Type
                         _______ _______ _______ _____ _____    ______ ____

>  <TORSDO>
F 9

$$$$
