=
 OpenBabel11052422563D

 28 32  0  0  0  0  0  0  0  0999 V2000
  161.2420  204.9830  148.8430 N   0  0  0  0  0  0  0  0  0  0  0  0
  160.7090  206.5180  153.6330 C   0  0  0  0  0  3  0  0  0  0  0  0
  162.2640  209.8680  148.6250 C   0  0  0  0  0  1  0  0  0  0  0  0
  161.2010  208.8980  153.5520 C   0  0  0  0  0  0  0  0  0  0  0  0
  161.3020  207.5840  151.5130 C   0  0  0  0  0  0  0  0  0  0  0  0
  160.6140  207.8510  155.6540 C   0  0  0  0  0  0  0  0  0  0  0  0
  161.0700  207.6540  152.8940 C   0  0  0  0  0  0  0  0  0  0  0  0
  161.7760  209.9610  151.5080 C   0  0  0  0  0  3  0  0  0  0  0  0
  160.9730  208.9890  154.9270 C   0  0  0  0  0  3  0  0  0  0  0  0
  161.7460  207.4120  148.7330 C   0  0  0  0  0  0  0  0  0  0  0  0
  161.1770  206.3340  150.8120 N   0  0  0  0  0  0  0  0  0  0  0  0
  161.5480  210.0070  152.8470 N   0  0  0  0  0  0  0  0  0  0  0  0
  161.7790  206.0160  146.7860 C   0  0  0  0  0  3  0  0  0  0  0  0
  161.8930  208.6810  149.3880 N   0  0  0  0  0  0  0  0  0  0  0  0
  161.9290  207.2830  147.4510 N   0  0  0  0  0  0  0  0  0  0  0  0
  160.3720  207.9510  157.1180 C   0  0  0  0  0  1  0  0  0  0  0  0
  160.4820  206.6180  155.0090 C   0  0  0  0  0  3  0  0  0  0  0  0
  161.6600  208.7520  150.8080 C   0  0  0  0  0  0  0  0  0  0  0  0
  161.4530  204.9450  147.4520 N   0  0  0  0  0  0  0  0  0  0  0  0
  161.3760  206.2340  149.5300 C   0  0  0  0  0  0  0  0  0  0  0  0
  160.8280  203.7720  149.5380 C   0  0  0  0  0  2  0  0  0  0  0  0
  161.0030  202.5840  148.6520 C   0  0  0  0  0  0  0  0  0  0  0  0
  161.2820  200.3410  147.0060 C   0  0  0  0  0  0  0  0  0  0  0  0
  160.6850  202.6700  147.2920 C   0  0  0  0  0  3  0  0  0  0  0  0
  161.4540  201.3730  149.1890 C   0  0  0  0  0  3  0  0  0  0  0  0
  161.5940  200.2530  148.3660 C   0  0  0  0  0  3  0  0  0  0  0  0
  161.4190  199.2540  146.2070 F   0  0  0  0  0  0  0  0  0  0  0  0
  160.8260  201.5480  146.4690 C   0  0  0  0  0  3  0  0  0  0  0  0
  1 20  1  0  0  0  0
  1 21  1  0  0  0  0
  2 17  1  0  0  0  0
  3 14  1  0  0  0  0
  4  9  2  0  0  0  0
  5  7  1  0  0  0  0
  6 16  1  0  0  0  0
  7  4  1  0  0  0  0
  7  2  2  0  0  0  0
  8 12  2  0  0  0  0
  9  6  1  0  0  0  0
 10 14  1  0  0  0  0
 10 20  1  0  0  0  0
 11  5  1  0  0  0  0
 12  4  1  0  0  0  0
 13 15  1  0  0  0  0
 13 19  2  0  0  0  0
 14 18  1  0  0  0  0
 15 10  2  0  0  0  0
 17  6  2  0  0  0  0
 18  8  1  0  0  0  0
 18  5  2  0  0  0  0
 19  1  1  0  0  0  0
 20 11  2  0  0  0  0
 22 25  1  0  0  0  0
 22 21  1  0  0  0  0
 23 26  1  0  0  0  0
 24 22  2  0  0  0  0
 26 25  2  0  0  0  0
 27 23  1  0  0  0  0
 28 23  2  0  0  0  0
 28 24  1  0  0  0  0
M  END
>  <MODEL>
1

>  <REMARK>
 VINA RESULT:     -10.5      0.000      0.000
  Name = 
  2 active torsions:
  status: ('A' for Active; 'I' for Inactive)
    1  A    between atoms: N_1  and  C_2
    2  A    between atoms: C_2  and  C_3
                            x       y       z     vdW  Elec       q    Type
                         _______ _______ _______ _____ _____    ______ ____

>  <TORSDO>
F 2

$$$$
=
 OpenBabel11052422563D

 28 32  0  0  0  0  0  0  0  0999 V2000
  161.8930  208.9790  150.1250 N   0  0  0  0  0  0  0  0  0  0  0  0
  161.4230  204.1810  148.5940 C   0  0  0  0  0  3  0  0  0  0  0  0
  160.9570  206.4910  154.3540 C   0  0  0  0  0  1  0  0  0  0  0  0
  160.9630  202.9480  150.6400 C   0  0  0  0  0  0  0  0  0  0  0  0
  161.2990  205.3510  150.7390 C   0  0  0  0  0  0  0  0  0  0  0  0
  161.0840  201.7830  148.5210 C   0  0  0  0  0  0  0  0  0  0  0  0
  161.2310  204.1710  149.9830 C   0  0  0  0  0  0  0  0  0  0  0  0
  160.8340  204.0570  152.7360 C   0  0  0  0  0  3  0  0  0  0  0  0
  160.8910  201.7620  149.9050 C   0  0  0  0  0  3  0  0  0  0  0  0
  161.4230  207.7440  152.2270 C   0  0  0  0  0  0  0  0  0  0  0  0
  161.5690  206.6130  150.1030 N   0  0  0  0  0  0  0  0  0  0  0  0
  160.7750  202.9250  151.9860 N   0  0  0  0  0  0  0  0  0  0  0  0
  161.7390  210.1180  152.1900 C   0  0  0  0  0  3  0  0  0  0  0  0
  161.1600  206.5080  152.9090 N   0  0  0  0  0  0  0  0  0  0  0  0
  161.4800  208.8760  152.8670 N   0  0  0  0  0  0  0  0  0  0  0  0
  161.0060  200.5190  147.7420 C   0  0  0  0  0  1  0  0  0  0  0  0
  161.3480  202.9900  147.8670 C   0  0  0  0  0  3  0  0  0  0  0  0
  161.0970  205.2950  152.1340 C   0  0  0  0  0  0  0  0  0  0  0  0
  161.9280  210.1530  150.9010 N   0  0  0  0  0  0  0  0  0  0  0  0
  161.6300  207.7280  150.7710 C   0  0  0  0  0  0  0  0  0  0  0  0
  162.0580  209.0710  148.6800 C   0  0  0  0  0  2  0  0  0  0  0  0
  162.0450  210.4990  148.2500 C   0  0  0  0  0  0  0  0  0  0  0  0
  162.0390  213.1620  147.3950 C   0  0  0  0  0  0  0  0  0  0  0  0
  160.8750  211.0660  147.7320 C   0  0  0  0  0  3  0  0  0  0  0  0
  163.2140  211.2650  148.3330 C   0  0  0  0  0  3  0  0  0  0  0  0
  163.2100  212.5960  147.9070 C   0  0  0  0  0  3  0  0  0  0  0  0
  162.0350  214.4530  146.9830 F   0  0  0  0  0  0  0  0  0  0  0  0
  160.8720  212.3980  147.3060 C   0  0  0  0  0  3  0  0  0  0  0  0
  1 20  1  0  0  0  0
  1 19  1  0  0  0  0
  2  7  1  0  0  0  0
  4 12  1  0  0  0  0
  5 18  2  0  0  0  0
  6  9  2  0  0  0  0
  7  4  2  0  0  0  0
  7  5  1  0  0  0  0
  9  4  1  0  0  0  0
 10 15  2  0  0  0  0
 10 14  1  0  0  0  0
 11  5  1  0  0  0  0
 11 20  2  0  0  0  0
 12  8  2  0  0  0  0
 13 15  1  0  0  0  0
 14  3  1  0  0  0  0
 16  6  1  0  0  0  0
 17  6  1  0  0  0  0
 17  2  2  0  0  0  0
 18  8  1  0  0  0  0
 18 14  1  0  0  0  0
 19 13  2  0  0  0  0
 20 10  1  0  0  0  0
 21  1  1  0  0  0  0
 22 25  1  0  0  0  0
 22 21  1  0  0  0  0
 23 26  1  0  0  0  0
 24 22  2  0  0  0  0
 26 25  2  0  0  0  0
 27 23  1  0  0  0  0
 28 23  2  0  0  0  0
 28 24  1  0  0  0  0
M  END
>  <MODEL>
2

>  <REMARK>
 VINA RESULT:      -9.8      3.371      7.864
  Name = 
  2 active torsions:
  status: ('A' for Active; 'I' for Inactive)
    1  A    between atoms: N_1  and  C_2
    2  A    between atoms: C_2  and  C_3
                            x       y       z     vdW  Elec       q    Type
                         _______ _______ _______ _____ _____    ______ ____

>  <TORSDO>
F 2

$$$$
=
 OpenBabel11052422563D

 28 32  0  0  0  0  0  0  0  0999 V2000
  161.1420  207.5270  152.1920 N   0  0  0  0  0  0  0  0  0  0  0  0
  161.2270  206.4930  147.2410 C   0  0  0  0  0  3  0  0  0  0  0  0
  161.1790  202.5340  152.0410 C   0  0  0  0  0  1  0  0  0  0  0  0
  161.2430  204.0630  147.1430 C   0  0  0  0  0  0  0  0  0  0  0  0
  161.2090  205.1740  149.3010 C   0  0  0  0  0  0  0  0  0  0  0  0
  161.2600  205.3610  145.0990 C   0  0  0  0  0  0  0  0  0  0  0  0
  161.2270  205.2560  147.9010 C   0  0  0  0  0  0  0  0  0  0  0  0
  161.2240  202.7560  149.1250 C   0  0  0  0  0  3  0  0  0  0  0  0
  161.2600  204.1230  145.7470 C   0  0  0  0  0  3  0  0  0  0  0  0
  161.1560  205.0450  152.1180 C   0  0  0  0  0  0  0  0  0  0  0  0
  161.1910  206.3680  150.1040 N   0  0  0  0  0  0  0  0  0  0  0  0
  161.2420  202.8570  147.7700 N   0  0  0  0  0  0  0  0  0  0  0  0
  161.0880  206.2560  154.1840 C   0  0  0  0  0  3  0  0  0  0  0  0
  161.1820  203.8250  151.3610 N   0  0  0  0  0  0  0  0  0  0  0  0
  161.1200  205.0380  153.4190 N   0  0  0  0  0  0  0  0  0  0  0  0
  161.2780  205.4210  143.6130 C   0  0  0  0  0  1  0  0  0  0  0  0
  161.2430  206.5440  145.8440 C   0  0  0  0  0  3  0  0  0  0  0  0
  161.2070  203.9080  149.9230 C   0  0  0  0  0  0  0  0  0  0  0  0
  161.0960  207.4180  153.5940 N   0  0  0  0  0  0  0  0  0  0  0  0
  161.1660  206.3300  151.4040 C   0  0  0  0  0  0  0  0  0  0  0  0
  161.0950  208.8460  151.5740 C   0  0  0  0  0  2  0  0  0  0  0  0
  160.7690  209.8820  152.5960 C   0  0  0  0  0  0  0  0  0  0  0  0
  160.1340  211.7870  154.5420 C   0  0  0  0  0  0  0  0  0  0  0  0
  161.6950  210.1960  153.5970 C   0  0  0  0  0  3  0  0  0  0  0  0
  159.5220  210.5170  152.5740 C   0  0  0  0  0  3  0  0  0  0  0  0
  159.2050  211.4690  153.5460 C   0  0  0  0  0  3  0  0  0  0  0  0
  159.8260  212.7120  155.4840 F   0  0  0  0  0  0  0  0  0  0  0  0
  161.3770  211.1500  154.5690 C   0  0  0  0  0  3  0  0  0  0  0  0
  1 19  1  0  0  0  0
  2  7  1  0  0  0  0
  4 12  2  0  0  0  0
  4  7  1  0  0  0  0
  5 18  1  0  0  0  0
  5 11  1  0  0  0  0
  6  9  2  0  0  0  0
  6 17  1  0  0  0  0
  7  5  2  0  0  0  0
  8 18  2  0  0  0  0
  9  4  1  0  0  0  0
 10 15  2  0  0  0  0
 11 20  2  0  0  0  0
 12  8  1  0  0  0  0
 14  3  1  0  0  0  0
 14 10  1  0  0  0  0
 15 13  1  0  0  0  0
 16  6  1  0  0  0  0
 17  2  2  0  0  0  0
 18 14  1  0  0  0  0
 19 13  2  0  0  0  0
 20 10  1  0  0  0  0
 20  1  1  0  0  0  0
 21  1  1  0  0  0  0
 21 22  1  0  0  0  0
 22 24  1  0  0  0  0
 23 28  1  0  0  0  0
 23 27  1  0  0  0  0
 24 28  2  0  0  0  0
 25 22  2  0  0  0  0
 25 26  1  0  0  0  0
 26 23  2  0  0  0  0
M  END
>  <MODEL>
3

>  <REMARK>
 VINA RESULT:      -9.6      3.676      8.765
  Name = 
  2 active torsions:
  status: ('A' for Active; 'I' for Inactive)
    1  A    between atoms: N_1  and  C_2
    2  A    between atoms: C_2  and  C_3
                            x       y       z     vdW  Elec       q    Type
                         _______ _______ _______ _____ _____    ______ ____

>  <TORSDO>
F 2

$$$$
=
 OpenBabel11052422563D

 28 32  0  0  0  0  0  0  0  0999 V2000
  161.6710  207.4400  152.7430 N   0  0  0  0  0  0  0  0  0  0  0  0
  161.9820  211.0730  149.2370 C   0  0  0  0  0  3  0  0  0  0  0  0
  159.0750  211.2130  154.7370 C   0  0  0  0  0  1  0  0  0  0  0  0
  160.7250  212.9240  150.1880 C   0  0  0  0  0  0  0  0  0  0  0  0
  160.9300  210.8500  151.4340 C   0  0  0  0  0  0  0  0  0  0  0  0
  161.7640  213.1530  148.0130 C   0  0  0  0  0  0  0  0  0  0  0  0
  161.2170  211.6030  150.2860 C   0  0  0  0  0  0  0  0  0  0  0  0
  159.6950  212.7390  152.3200 C   0  0  0  0  0  3  0  0  0  0  0  0
  161.0010  213.6910  149.0540 C   0  0  0  0  0  3  0  0  0  0  0  0
  160.3840  209.3160  153.7370 C   0  0  0  0  0  0  0  0  0  0  0  0
  161.4150  209.5020  151.5670 N   0  0  0  0  0  0  0  0  0  0  0  0
  159.9830  213.4510  151.1990 N   0  0  0  0  0  0  0  0  0  0  0  0
  160.6860  207.2330  154.8810 C   0  0  0  0  0  3  0  0  0  0  0  0
  159.8690  210.6530  153.6480 N   0  0  0  0  0  0  0  0  0  0  0  0
  160.1690  208.5720  154.7830 N   0  0  0  0  0  0  0  0  0  0  0  0
  162.0560  213.9710  146.8070 C   0  0  0  0  0  1  0  0  0  0  0  0
  162.2540  211.8470  148.1050 C   0  0  0  0  0  3  0  0  0  0  0  0
  160.1590  211.4250  152.4660 C   0  0  0  0  0  0  0  0  0  0  0  0
  161.3920  206.7150  153.9170 N   0  0  0  0  0  0  0  0  0  0  0  0
  161.1760  208.7790  152.6210 C   0  0  0  0  0  0  0  0  0  0  0  0
  162.5090  206.8390  151.7130 C   0  0  0  0  0  2  0  0  0  0  0  0
  161.8240  205.6570  151.1160 C   0  0  0  0  0  0  0  0  0  0  0  0
  160.5860  203.4250  149.9720 C   0  0  0  0  0  0  0  0  0  0  0  0
  161.7270  204.4630  151.8390 C   0  0  0  0  0  3  0  0  0  0  0  0
  161.3080  205.7300  149.8170 C   0  0  0  0  0  3  0  0  0  0  0  0
  160.6890  204.6150  149.2460 C   0  0  0  0  0  3  0  0  0  0  0  0
  159.9840  202.3440  149.4190 F   0  0  0  0  0  0  0  0  0  0  0  0
  161.1060  203.3470  151.2670 C   0  0  0  0  0  3  0  0  0  0  0  0
  1 19  1  0  0  0  0
  2  7  1  0  0  0  0
  4  7  2  0  0  0  0
  4 12  1  0  0  0  0
  5 11  1  0  0  0  0
  5 18  2  0  0  0  0
  6 17  1  0  0  0  0
  6  9  2  0  0  0  0
  7  5  1  0  0  0  0
  8 18  1  0  0  0  0
  9  4  1  0  0  0  0
 10 15  2  0  0  0  0
 11 20  2  0  0  0  0
 12  8  2  0  0  0  0
 14 10  1  0  0  0  0
 14  3  1  0  0  0  0
 15 13  1  0  0  0  0
 16  6  1  0  0  0  0
 17  2  2  0  0  0  0
 18 14  1  0  0  0  0
 19 13  2  0  0  0  0
 20  1  1  0  0  0  0
 20 10  1  0  0  0  0
 21  1  1  0  0  0  0
 22 21  1  0  0  0  0
 22 24  1  0  0  0  0
 23 28  1  0  0  0  0
 25 22  2  0  0  0  0
 26 25  1  0  0  0  0
 26 23  2  0  0  0  0
 27 23  1  0  0  0  0
 28 24  2  0  0  0  0
M  END
>  <MODEL>
4

>  <REMARK>
 VINA RESULT:      -9.0      2.757      5.987
  Name = 
  2 active torsions:
  status: ('A' for Active; 'I' for Inactive)
    1  A    between atoms: N_1  and  C_2
    2  A    between atoms: C_2  and  C_3
                            x       y       z     vdW  Elec       q    Type
                         _______ _______ _______ _____ _____    ______ ____

>  <TORSDO>
F 2

$$$$
=
 OpenBabel11052422563D

 28 32  0  0  0  0  0  0  0  0999 V2000
  161.1010  203.9900  149.6530 N   0  0  0  0  0  0  0  0  0  0  0  0
  161.8510  208.9070  148.7360 C   0  0  0  0  0  3  0  0  0  0  0  0
  161.0210  206.0510  154.2020 C   0  0  0  0  0  1  0  0  0  0  0  0
  161.8170  209.9330  150.9410 C   0  0  0  0  0  0  0  0  0  0  0  0
  161.4970  207.5360  150.7310 C   0  0  0  0  0  0  0  0  0  0  0  0
  162.1690  211.2980  148.9710 C   0  0  0  0  0  0  0  0  0  0  0  0
  161.7210  208.7820  150.1270 C   0  0  0  0  0  0  0  0  0  0  0  0
  161.4800  208.6280  152.8950 C   0  0  0  0  0  3  0  0  0  0  0  0
  162.0410  211.1830  150.3590 C   0  0  0  0  0  3  0  0  0  0  0  0
  161.0650  205.0130  151.9150 C   0  0  0  0  0  0  0  0  0  0  0  0
  161.3940  206.3430  149.9320 N   0  0  0  0  0  0  0  0  0  0  0  0
  161.6950  209.8260  152.2900 N   0  0  0  0  0  0  0  0  0  0  0  0
  160.7950  202.6560  151.5800 C   0  0  0  0  0  3  0  0  0  0  0  0
  161.1520  206.1750  152.7540 N   0  0  0  0  0  0  0  0  0  0  0  0
  160.8780  203.8260  152.4130 N   0  0  0  0  0  0  0  0  0  0  0  0
  162.4060  212.6300  148.3550 C   0  0  0  0  0  1  0  0  0  0  0  0
  162.0740  210.1620  148.1620 C   0  0  0  0  0  3  0  0  0  0  0  0
  161.3750  207.4560  152.1340 C   0  0  0  0  0  0  0  0  0  0  0  0
  160.9050  202.7480  150.2850 N   0  0  0  0  0  0  0  0  0  0  0  0
  161.1960  205.1700  150.4590 C   0  0  0  0  0  0  0  0  0  0  0  0
  161.2700  204.0380  148.2060 C   0  0  0  0  0  2  0  0  0  0  0  0
  161.2100  202.6620  147.6340 C   0  0  0  0  0  0  0  0  0  0  0  0
  161.1480  200.0880  146.5420 C   0  0  0  0  0  0  0  0  0  0  0  0
  161.5640  201.5590  148.4200 C   0  0  0  0  0  3  0  0  0  0  0  0
  160.8330  202.4760  146.2990 C   0  0  0  0  0  3  0  0  0  0  0  0
  160.8010  201.1900  145.7540 C   0  0  0  0  0  3  0  0  0  0  0  0
  161.1160  198.8410  146.0130 F   0  0  0  0  0  0  0  0  0  0  0  0
  161.5310  200.2720  147.8730 C   0  0  0  0  0  3  0  0  0  0  0  0
  1 19  1  0  0  0  0
  1 20  1  0  0  0  0
  2  7  1  0  0  0  0
  4 12  1  0  0  0  0
  5 18  2  0  0  0  0
  6  9  2  0  0  0  0
  7  5  1  0  0  0  0
  7  4  2  0  0  0  0
  9  4  1  0  0  0  0
 10 15  2  0  0  0  0
 10 14  1  0  0  0  0
 11 20  2  0  0  0  0
 11  5  1  0  0  0  0
 12  8  2  0  0  0  0
 13 15  1  0  0  0  0
 14  3  1  0  0  0  0
 16  6  1  0  0  0  0
 17  2  2  0  0  0  0
 17  6  1  0  0  0  0
 18 14  1  0  0  0  0
 18  8  1  0  0  0  0
 19 13  2  0  0  0  0
 20 10  1  0  0  0  0
 21  1  1  0  0  0  0
 22 21  1  0  0  0  0
 22 24  1  0  0  0  0
 23 28  1  0  0  0  0
 25 22  2  0  0  0  0
 26 25  1  0  0  0  0
 26 23  2  0  0  0  0
 27 23  1  0  0  0  0
 28 24  2  0  0  0  0
M  END
>  <MODEL>
5

>  <REMARK>
 VINA RESULT:      -8.7      1.529      4.265
  Name = 
  2 active torsions:
  status: ('A' for Active; 'I' for Inactive)
    1  A    between atoms: N_1  and  C_2
    2  A    between atoms: C_2  and  C_3
                            x       y       z     vdW  Elec       q    Type
                         _______ _______ _______ _____ _____    ______ ____

>  <TORSDO>
F 2

$$$$
=
 OpenBabel11052422563D

 28 32  0  0  0  0  0  0  0  0999 V2000
  161.8560  207.6370  152.3950 N   0  0  0  0  0  0  0  0  0  0  0  0
  162.1370  211.3750  148.9980 C   0  0  0  0  0  3  0  0  0  0  0  0
  159.0450  211.2490  154.3970 C   0  0  0  0  0  1  0  0  0  0  0  0
  160.7750  213.1480  149.9540 C   0  0  0  0  0  0  0  0  0  0  0  0
  161.0220  211.0510  151.1510 C   0  0  0  0  0  0  0  0  0  0  0  0
  161.8760  213.4770  147.8220 C   0  0  0  0  0  0  0  0  0  0  0  0
  161.3170  211.8450  150.0330 C   0  0  0  0  0  0  0  0  0  0  0  0
  159.6830  212.8640  152.0430 C   0  0  0  0  0  3  0  0  0  0  0  0
  161.0570  213.9560  148.8490 C   0  0  0  0  0  3  0  0  0  0  0  0
  160.4630  209.4330  153.3930 C   0  0  0  0  0  0  0  0  0  0  0  0
  161.5570  209.7200  151.2650 N   0  0  0  0  0  0  0  0  0  0  0  0
  159.9790  213.6170  150.9510 N   0  0  0  0  0  0  0  0  0  0  0  0
  160.8100  207.3330  154.4920 C   0  0  0  0  0  3  0  0  0  0  0  0
  159.8970  210.7510  153.3210 N   0  0  0  0  0  0  0  0  0  0  0  0
  160.2430  208.6530  154.4110 N   0  0  0  0  0  0  0  0  0  0  0  0
  162.1740  214.3390  146.6480 C   0  0  0  0  0  1  0  0  0  0  0  0
  162.4150  212.1900  147.8960 C   0  0  0  0  0  3  0  0  0  0  0  0
  160.1940  211.5660  152.1710 C   0  0  0  0  0  0  0  0  0  0  0  0
  161.5690  206.8700  153.5390 N   0  0  0  0  0  0  0  0  0  0  0  0
  161.3120  208.9590  152.2910 C   0  0  0  0  0  0  0  0  0  0  0  0
  162.7520  207.0990  151.3790 C   0  0  0  0  0  2  0  0  0  0  0  0
  162.0120  206.8820  150.1030 C   0  0  0  0  0  0  0  0  0  0  0  0
  160.6610  206.4380  147.6940 C   0  0  0  0  0  0  0  0  0  0  0  0
  160.9740  205.9440  150.0440 C   0  0  0  0  0  3  0  0  0  0  0  0
  162.3780  207.5910  148.9530 C   0  0  0  0  0  3  0  0  0  0  0  0
  161.7020  207.3700  147.7500 C   0  0  0  0  0  3  0  0  0  0  0  0
  160.0050  206.2240  146.5270 F   0  0  0  0  0  0  0  0  0  0  0  0
  160.2980  205.7240  148.8400 C   0  0  0  0  0  3  0  0  0  0  0  0
  1 19  1  0  0  0  0
  2  7  1  0  0  0  0
  4  7  2  0  0  0  0
  4 12  1  0  0  0  0
  5 11  1  0  0  0  0
  5 18  2  0  0  0  0
  6 17  1  0  0  0  0
  6  9  2  0  0  0  0
  7  5  1  0  0  0  0
  8 18  1  0  0  0  0
  9  4  1  0  0  0  0
 10 15  2  0  0  0  0
 11 20  2  0  0  0  0
 12  8  2  0  0  0  0
 14 10  1  0  0  0  0
 14  3  1  0  0  0  0
 15 13  1  0  0  0  0
 16  6  1  0  0  0  0
 17  2  2  0  0  0  0
 18 14  1  0  0  0  0
 19 13  2  0  0  0  0
 20  1  1  0  0  0  0
 20 10  1  0  0  0  0
 21  1  1  0  0  0  0
 22 21  1  0  0  0  0
 23 26  2  0  0  0  0
 23 28  1  0  0  0  0
 24 22  1  0  0  0  0
 25 22  2  0  0  0  0
 26 25  1  0  0  0  0
 27 23  1  0  0  0  0
 28 24  2  0  0  0  0
M  END
>  <MODEL>
6

>  <REMARK>
 VINA RESULT:      -8.3      3.275      6.314
  Name = 
  2 active torsions:
  status: ('A' for Active; 'I' for Inactive)
    1  A    between atoms: N_1  and  C_2
    2  A    between atoms: C_2  and  C_3
                            x       y       z     vdW  Elec       q    Type
                         _______ _______ _______ _____ _____    ______ ____

>  <TORSDO>
F 2

$$$$
=
 OpenBabel11052422563D

 28 32  0  0  0  0  0  0  0  0999 V2000
  161.2360  206.6090  151.5960 N   0  0  0  0  0  0  0  0  0  0  0  0
  161.2320  206.1250  146.5620 C   0  0  0  0  0  3  0  0  0  0  0  0
  161.1880  201.6630  150.8990 C   0  0  0  0  0  1  0  0  0  0  0  0
  161.2070  203.7200  146.1970 C   0  0  0  0  0  0  0  0  0  0  0  0
  161.2220  204.5880  148.4640 C   0  0  0  0  0  0  0  0  0  0  0  0
  161.2150  205.2350  144.3080 C   0  0  0  0  0  0  0  0  0  0  0  0
  161.2210  204.8230  147.0820 C   0  0  0  0  0  0  0  0  0  0  0  0
  161.1940  202.2040  148.0240 C   0  0  0  0  0  3  0  0  0  0  0  0
  161.2040  203.9330  144.8160 C   0  0  0  0  0  3  0  0  0  0  0  0
  161.2070  204.1510  151.2510 C   0  0  0  0  0  0  0  0  0  0  0  0
  161.2360  205.6860  149.3940 N   0  0  0  0  0  0  0  0  0  0  0  0
  161.1950  202.4530  146.6880 N   0  0  0  0  0  0  0  0  0  0  0  0
  161.1900  205.1290  153.4380 C   0  0  0  0  0  3  0  0  0  0  0  0
  161.2030  203.0210  150.3650 N   0  0  0  0  0  0  0  0  0  0  0  0
  161.1900  204.0020  152.5440 N   0  0  0  0  0  0  0  0  0  0  0  0
  161.2130  205.4580  142.8380 C   0  0  0  0  0  1  0  0  0  0  0  0
  161.2280  206.3280  145.1780 C   0  0  0  0  0  3  0  0  0  0  0  0
  161.2080  203.2610  148.9440 C   0  0  0  0  0  0  0  0  0  0  0  0
  161.2080  206.3480  152.9790 N   0  0  0  0  0  0  0  0  0  0  0  0
  161.2280  205.5060  150.6820 C   0  0  0  0  0  0  0  0  0  0  0  0
  161.2020  207.9890  151.1280 C   0  0  0  0  0  2  0  0  0  0  0  0
  161.2010  208.9270  152.2870 C   0  0  0  0  0  0  0  0  0  0  0  0
  161.1760  210.7240  154.4300 C   0  0  0  0  0  0  0  0  0  0  0  0
  160.1130  208.9520  153.1680 C   0  0  0  0  0  3  0  0  0  0  0  0
  162.2720  209.8070  152.4750 C   0  0  0  0  0  3  0  0  0  0  0  0
  162.2600  210.7040  153.5470 C   0  0  0  0  0  3  0  0  0  0  0  0
  161.1660  211.5940  155.4690 F   0  0  0  0  0  0  0  0  0  0  0  0
  160.1030  209.8500  154.2400 C   0  0  0  0  0  3  0  0  0  0  0  0
  1 19  1  0  0  0  0
  2  7  1  0  0  0  0
  4 12  2  0  0  0  0
  4  7  1  0  0  0  0
  5 18  1  0  0  0  0
  5 11  1  0  0  0  0
  6  9  2  0  0  0  0
  6 17  1  0  0  0  0
  7  5  2  0  0  0  0
  8 18  2  0  0  0  0
  9  4  1  0  0  0  0
 10 15  2  0  0  0  0
 11 20  2  0  0  0  0
 12  8  1  0  0  0  0
 14  3  1  0  0  0  0
 14 10  1  0  0  0  0
 15 13  1  0  0  0  0
 16  6  1  0  0  0  0
 17  2  2  0  0  0  0
 18 14  1  0  0  0  0
 19 13  2  0  0  0  0
 20 10  1  0  0  0  0
 20  1  1  0  0  0  0
 21  1  1  0  0  0  0
 21 22  1  0  0  0  0
 22 25  2  0  0  0  0
 22 24  1  0  0  0  0
 23 27  1  0  0  0  0
 24 28  2  0  0  0  0
 25 26  1  0  0  0  0
 26 23  2  0  0  0  0
 28 23  1  0  0  0  0
M  END
>  <MODEL>
7

>  <REMARK>
 VINA RESULT:      -8.1      3.496      8.696
  Name = 
  2 active torsions:
  status: ('A' for Active; 'I' for Inactive)
    1  A    between atoms: N_1  and  C_2
    2  A    between atoms: C_2  and  C_3
                            x       y       z     vdW  Elec       q    Type
                         _______ _______ _______ _____ _____    ______ ____

>  <TORSDO>
F 2

$$$$
=
 OpenBabel11052422563D

 28 32  0  0  0  0  0  0  0  0999 V2000
  161.9820  207.2120  150.8460 N   0  0  0  0  0  0  0  0  0  0  0  0
  159.8350  209.8120  154.6160 C   0  0  0  0  0  3  0  0  0  0  0  0
  161.6050  211.8400  149.0050 C   0  0  0  0  0  1  0  0  0  0  0  0
  159.6390  212.0730  153.7400 C   0  0  0  0  0  0  0  0  0  0  0  0
  160.6230  210.3350  152.3600 C   0  0  0  0  0  0  0  0  0  0  0  0
  158.8550  211.5640  155.9740 C   0  0  0  0  0  0  0  0  0  0  0  0
  160.0360  210.7270  153.5720 C   0  0  0  0  0  0  0  0  0  0  0  0
  160.3920  212.6100  151.5540 C   0  0  0  0  0  3  0  0  0  0  0  0
  159.0520  212.4830  154.9400 C   0  0  0  0  0  3  0  0  0  0  0  0
  161.7910  209.5110  149.9280 C   0  0  0  0  0  0  0  0  0  0  0  0
  161.0390  208.9730  152.1540 N   0  0  0  0  0  0  0  0  0  0  0  0
  159.8270  212.9690  152.7360 N   0  0  0  0  0  0  0  0  0  0  0  0
  162.7120  207.7050  148.6520 C   0  0  0  0  0  3  0  0  0  0  0  0
  161.4010  210.8840  150.0880 N   0  0  0  0  0  0  0  0  0  0  0  0
  162.3240  209.0790  148.8220 N   0  0  0  0  0  0  0  0  0  0  0  0
  158.2300  212.0030  157.2490 C   0  0  0  0  0  1  0  0  0  0  0  0
  159.2460  210.2310  155.8120 C   0  0  0  0  0  3  0  0  0  0  0  0
  160.8040  211.2880  151.3350 C   0  0  0  0  0  0  0  0  0  0  0  0
  162.5430  206.8380  149.6100 N   0  0  0  0  0  0  0  0  0  0  0  0
  161.5780  208.5730  151.0400 C   0  0  0  0  0  0  0  0  0  0  0  0
  161.7630  206.1980  151.8690 C   0  0  0  0  0  2  0  0  0  0  0  0
  161.3650  204.9060  151.2380 C   0  0  0  0  0  0  0  0  0  0  0  0
  160.6670  202.4820  150.0300 C   0  0  0  0  0  0  0  0  0  0  0  0
  161.5570  203.7020  151.9240 C   0  0  0  0  0  3  0  0  0  0  0  0
  160.8310  204.8960  149.9440 C   0  0  0  0  0  3  0  0  0  0  0  0
  160.4820  203.6850  149.3420 C   0  0  0  0  0  3  0  0  0  0  0  0
  160.3270  201.3080  149.4460 F   0  0  0  0  0  0  0  0  0  0  0  0
  161.2060  202.4900  151.3200 C   0  0  0  0  0  3  0  0  0  0  0  0
  1 20  1  0  0  0  0
  1 21  1  0  0  0  0
  2 17  1  0  0  0  0
  3 14  1  0  0  0  0
  4  9  2  0  0  0  0
  5  7  1  0  0  0  0
  6 16  1  0  0  0  0
  7  4  1  0  0  0  0
  7  2  2  0  0  0  0
  8 12  2  0  0  0  0
  9  6  1  0  0  0  0
 10 14  1  0  0  0  0
 10 20  1  0  0  0  0
 11  5  1  0  0  0  0
 12  4  1  0  0  0  0
 13 15  1  0  0  0  0
 13 19  2  0  0  0  0
 14 18  1  0  0  0  0
 15 10  2  0  0  0  0
 17  6  2  0  0  0  0
 18  8  1  0  0  0  0
 18  5  2  0  0  0  0
 19  1  1  0  0  0  0
 20 11  2  0  0  0  0
 22 21  1  0  0  0  0
 22 24  1  0  0  0  0
 23 28  1  0  0  0  0
 25 22  2  0  0  0  0
 26 25  1  0  0  0  0
 26 23  2  0  0  0  0
 27 23  1  0  0  0  0
 28 24  2  0  0  0  0
M  END
>  <MODEL>
8

>  <REMARK>
 VINA RESULT:      -7.8      2.366      3.462
  Name = 
  2 active torsions:
  status: ('A' for Active; 'I' for Inactive)
    1  A    between atoms: N_1  and  C_2
    2  A    between atoms: C_2  and  C_3
                            x       y       z     vdW  Elec       q    Type
                         _______ _______ _______ _____ _____    ______ ____

>  <TORSDO>
F 2

$$$$
=
 OpenBabel11052422563D

 28 32  0  0  0  0  0  0  0  0999 V2000
  161.4770  208.8740  152.6110 N   0  0  0  0  0  0  0  0  0  0  0  0
  160.7840  204.0820  151.1470 C   0  0  0  0  0  3  0  0  0  0  0  0
  162.3610  209.0150  147.6960 C   0  0  0  0  0  1  0  0  0  0  0  0
  161.2120  204.1260  148.7540 C   0  0  0  0  0  0  0  0  0  0  0  0
  161.3860  206.1780  150.0380 C   0  0  0  0  0  0  0  0  0  0  0  0
  160.6170  202.0470  149.8430 C   0  0  0  0  0  0  0  0  0  0  0  0
  161.1260  204.8010  149.9920 C   0  0  0  0  0  0  0  0  0  0  0  0
  161.8010  206.1440  147.6500 C   0  0  0  0  0  3  0  0  0  0  0  0
  160.9570  202.7540  148.6870 C   0  0  0  0  0  3  0  0  0  0  0  0
  161.9210  208.9440  150.1690 C   0  0  0  0  0  0  0  0  0  0  0  0
  161.3080  206.8970  151.2830 N   0  0  0  0  0  0  0  0  0  0  0  0
  161.5440  204.8100  147.6270 N   0  0  0  0  0  0  0  0  0  0  0  0
  162.0940  210.8940  151.5500 C   0  0  0  0  0  3  0  0  0  0  0  0
  162.0030  208.2740  148.9020 N   0  0  0  0  0  0  0  0  0  0  0  0
  162.1690  210.2170  150.2830 N   0  0  0  0  0  0  0  0  0  0  0  0
  160.3460  200.5870  149.7690 C   0  0  0  0  0  1  0  0  0  0  0  0
  160.5310  202.7100  151.0710 C   0  0  0  0  0  3  0  0  0  0  0  0
  161.7300  206.8610  148.8530 C   0  0  0  0  0  0  0  0  0  0  0  0
  161.7700  210.2510  152.6360 N   0  0  0  0  0  0  0  0  0  0  0  0
  161.5520  208.1720  151.3640 C   0  0  0  0  0  0  0  0  0  0  0  0
  161.1710  208.1850  153.8580 C   0  0  0  0  0  2  0  0  0  0  0  0
  160.3840  209.0750  154.7590 C   0  0  0  0  0  0  0  0  0  0  0  0
  158.9460  210.7830  156.4440 C   0  0  0  0  0  0  0  0  0  0  0  0
  159.3720  209.8870  154.2350 C   0  0  0  0  0  3  0  0  0  0  0  0
  160.6820  209.1250  156.1260 C   0  0  0  0  0  3  0  0  0  0  0  0
  159.9620  209.9770  156.9670 C   0  0  0  0  0  3  0  0  0  0  0  0
  158.2480  211.6090  157.2610 F   0  0  0  0  0  0  0  0  0  0  0  0
  158.6520  210.7390  155.0780 C   0  0  0  0  0  3  0  0  0  0  0  0
  1 19  1  0  0  0  0
  1 21  1  0  0  0  0
  3 14  1  0  0  0  0
  4  7  1  0  0  0  0
  5 11  1  0  0  0  0
  6 17  2  0  0  0  0
  7  5  1  0  0  0  0
  7  2  2  0  0  0  0
  8 18  1  0  0  0  0
  9  4  2  0  0  0  0
  9  6  1  0  0  0  0
 10 15  2  0  0  0  0
 10 20  1  0  0  0  0
 11 20  2  0  0  0  0
 12  8  2  0  0  0  0
 12  4  1  0  0  0  0
 13 19  2  0  0  0  0
 14 10  1  0  0  0  0
 15 13  1  0  0  0  0
 16  6  1  0  0  0  0
 17  2  1  0  0  0  0
 18 14  1  0  0  0  0
 18  5  2  0  0  0  0
 20  1  1  0  0  0  0
 21 22  1  0  0  0  0
 22 25  1  0  0  0  0
 23 26  1  0  0  0  0
 23 27  1  0  0  0  0
 24 22  2  0  0  0  0
 24 28  1  0  0  0  0
 25 26  2  0  0  0  0
 28 23  2  0  0  0  0
M  END
>  <MODEL>
9

>  <REMARK>
 VINA RESULT:      -7.7      3.467      7.946
  Name = 
  2 active torsions:
  status: ('A' for Active; 'I' for Inactive)
    1  A    between atoms: N_1  and  C_2
    2  A    between atoms: C_2  and  C_3
                            x       y       z     vdW  Elec       q    Type
                         _______ _______ _______ _____ _____    ______ ____

>  <TORSDO>
F 2

$$$$
