=
 OpenBabel11052422423D

 31 34  0  0  1  0  0  0  0  0999 V2000
  160.9980  204.4150  152.4810 C   0  0  0  0  0  0  0  0  0  0  0  0
  161.3700  205.7540  148.9760 C   0  0  0  0  0  0  0  0  0  0  0  0
  161.3070  204.6260  148.0910 C   0  0  0  0  0  0  0  0  0  0  0  0
  162.1620  210.7080  150.5940 O   0  0  0  0  0  0  0  0  0  0  0  0
  162.0080  210.7070  149.3430 C   0  0  0  0  0  0  0  0  0  0  0  0
  161.0810  202.2260  147.6770 C   0  0  0  0  0  3  0  0  0  0  0  0
  161.2670  205.6700  150.3990 C   0  0  0  0  0  0  0  0  0  0  0  0
  161.0710  205.5960  153.2180 C   0  0  0  0  0  3  0  0  0  0  0  0
  161.1390  203.3080  148.5550 C   0  0  0  0  0  3  0  0  0  0  0  0
  161.6190  208.1870  149.2190 C   0  0  0  0  0  0  0  0  0  0  0  0
  160.8300  203.2300  153.1140 F   0  0  0  0  0  0  0  0  0  0  0  0
  161.5850  206.1020  146.1680 C   0  0  0  0  0  3  0  0  0  0  0  0
  161.1900  202.4360  146.3050 C   0  0  0  0  0  3  0  0  0  0  0  0
  161.5140  208.0570  150.5640 N   0  0  0  0  0  0  0  0  0  0  0  0
  161.5450  207.0460  148.4000 C   0  0  0  0  0  0  0  0  0  0  0  0
  161.7920  209.4850  148.6290 N   0  0  0  0  0  2  0  0  0  0  0  0
  161.0950  204.4560  151.0880 C   0  0  0  0  0  3  0  0  0  0  0  0
  161.4610  203.9070  144.4650 F   0  0  0  0  0  0  0  0  0  0  0  0
  161.3440  206.8590  151.1690 C   0  0  0  0  0  0  0  0  0  0  0  0
  161.2440  206.8150  152.5630 C   0  0  0  0  0  3  0  0  0  0  0  0
  161.6480  207.1980  147.0140 C   0  0  0  0  0  3  0  0  0  0  0  0
  161.4170  204.8210  146.6850 C   0  0  0  0  0  0  0  0  0  0  0  0
  161.3570  203.7260  145.8060 C   0  0  0  0  0  0  0  0  0  0  0  0
  163.4250  212.0590  147.8000 C   0  0  0  0  0  1  0  0  0  0  0  0
  162.1130  211.9830  148.5730 C   0  0  1  0  0  3  0  0  0  0  0  0
  161.2690  212.3590  146.3440 O   0  0  0  0  0  1  0  0  0  0  0  0
  160.8880  212.1900  147.6770 C   0  0  2  0  0  3  0  0  0  0  0  0
  160.0570  213.3840  148.1260 C   0  0  0  0  0  2  0  0  0  0  0  0
  158.8260  213.5180  147.2990 C   0  0  0  0  0  0  0  0  0  0  0  0
  157.7520  212.5990  147.4630 N   0  0  0  0  0  1  0  0  0  0  0  0
  158.7280  214.4530  146.4630 O   0  0  0  0  0  0  0  0  0  0  0  0
  1 11  1  0  0  0  0
  1  8  1  0  0  0  0
  2  7  1  0  0  0  0
  3  9  1  0  0  0  0
  3  2  2  0  0  0  0
  5  4  2  0  0  0  0
  6  9  2  0  0  0  0
  7 17  1  0  0  0  0
  7 19  2  0  0  0  0
 10 14  2  0  0  0  0
 12 22  2  0  0  0  0
 12 21  1  0  0  0  0
 13  6  1  0  0  0  0
 14 19  1  0  0  0  0
 15  2  1  0  0  0  0
 15 10  1  0  0  0  0
 16 10  1  0  0  0  0
 16  5  1  0  0  0  0
 17  1  2  0  0  0  0
 18 23  1  0  0  0  0
 19 20  1  0  0  0  0
 20  8  2  0  0  0  0
 21 15  2  0  0  0  0
 22  3  1  0  0  0  0
 23 13  2  0  0  0  0
 23 22  1  0  0  0  0
 25 24  1  6  0  0  0
 25  5  1  0  0  0  0
 27 26  1  6  0  0  0
 27 28  1  0  0  0  0
 27 25  1  0  0  0  0
 29 30  1  0  0  0  0
 29 28  1  0  0  0  0
 31 29  2  0  0  0  0
M  END
>  <MODEL>
1

>  <REMARK>
 VINA RESULT:     -10.4      0.000      0.000
  Name = 
  4 active torsions:
  status: ('A' for Active; 'I' for Inactive)
    1  A    between atoms: C_1  and  C_24
    2  A    between atoms: C_9  and  C_22
    3  A    between atoms: C_19  and  C_22
    4  A    between atoms: C_19  and  C_24
                            x       y       z     vdW  Elec       q    Type
                         _______ _______ _______ _____ _____    ______ ____

>  <TORSDO>
F 4

$$$$
=
 OpenBabel11052422423D

 31 34  0  0  1  0  0  0  0  0999 V2000
  161.0490  201.6550  150.5490 C   0  0  0  0  0  0  0  0  0  0  0  0
  161.1310  204.9600  148.7370 C   0  0  0  0  0  0  0  0  0  0  0  0
  161.1240  204.6650  147.3330 C   0  0  0  0  0  0  0  0  0  0  0  0
  161.5660  207.7650  153.1790 O   0  0  0  0  0  0  0  0  0  0  0  0
  161.3520  208.5520  152.2190 C   0  0  0  0  0  0  0  0  0  0  0  0
  161.0880  203.0850  145.4670 C   0  0  0  0  0  3  0  0  0  0  0  0
  161.1060  203.9720  149.7700 C   0  0  0  0  0  0  0  0  0  0  0  0
  161.0550  202.0860  151.8750 C   0  0  0  0  0  3  0  0  0  0  0  0
  161.0940  203.3490  146.8360 C   0  0  0  0  0  3  0  0  0  0  0  0
  161.1790  206.6780  150.4940 C   0  0  0  0  0  0  0  0  0  0  0  0
  161.0170  200.3310  150.2670 F   0  0  0  0  0  0  0  0  0  0  0  0
  161.1770  207.0490  146.8170 C   0  0  0  0  0  3  0  0  0  0  0  0
  161.1110  204.1350  144.5540 C   0  0  0  0  0  3  0  0  0  0  0  0
  161.1510  205.7050  151.4370 N   0  0  0  0  0  0  0  0  0  0  0  0
  161.1640  206.3300  149.1320 C   0  0  0  0  0  0  0  0  0  0  0  0
  161.2090  208.0610  150.8810 N   0  0  0  0  0  2  0  0  0  0  0  0
  161.0740  202.5900  149.5120 C   0  0  0  0  0  3  0  0  0  0  0  0
  161.1620  206.4620  144.0990 F   0  0  0  0  0  0  0  0  0  0  0  0
  161.1160  204.3900  151.1250 C   0  0  0  0  0  0  0  0  0  0  0  0
  161.0880  203.4500  152.1610 C   0  0  0  0  0  3  0  0  0  0  0  0
  161.1860  207.3450  148.1710 C   0  0  0  0  0  3  0  0  0  0  0  0
  161.1470  205.7270  146.3850 C   0  0  0  0  0  0  0  0  0  0  0  0
  161.1400  205.4540  145.0060 C   0  0  0  0  0  0  0  0  0  0  0  0
  161.3290  210.7990  151.1390 C   0  0  0  0  0  1  0  0  0  0  0  0
  161.3070  210.0270  152.4530 C   0  0  1  0  0  3  0  0  0  0  0  0
  159.1580  211.1140  152.6120 O   0  0  0  0  0  1  0  0  0  0  0  0
  160.1190  210.4090  153.3410 C   0  0  2  0  0  3  0  0  0  0  0  0
  160.5570  211.2370  154.5410 C   0  0  0  0  0  2  0  0  0  0  0  0
  161.3410  210.4120  155.5010 C   0  0  0  0  0  0  0  0  0  0  0  0
  162.7060  210.7200  155.7590 N   0  0  0  0  0  1  0  0  0  0  0  0
  160.7940  209.4470  156.0960 O   0  0  0  0  0  0  0  0  0  0  0  0
  1  8  1  0  0  0  0
  2 15  1  0  0  0  0
  2  7  1  0  0  0  0
  3  2  2  0  0  0  0
  5 25  1  0  0  0  0
  5  4  2  0  0  0  0
  6  9  2  0  0  0  0
  7 19  2  0  0  0  0
  8 20  2  0  0  0  0
  9  3  1  0  0  0  0
 10 16  1  0  0  0  0
 10 14  2  0  0  0  0
 11  1  1  0  0  0  0
 12 21  1  0  0  0  0
 13 23  2  0  0  0  0
 13  6  1  0  0  0  0
 15 10  1  0  0  0  0
 16  5  1  0  0  0  0
 17  7  1  0  0  0  0
 17  1  2  0  0  0  0
 18 23  1  0  0  0  0
 19 14  1  0  0  0  0
 19 20  1  0  0  0  0
 21 15  2  0  0  0  0
 22 12  2  0  0  0  0
 22  3  1  0  0  0  0
 23 22  1  0  0  0  0
 25 24  1  6  0  0  0
 25 27  1  0  0  0  0
 27 26  1  6  0  0  0
 27 28  1  0  0  0  0
 28 29  1  0  0  0  0
 29 30  1  0  0  0  0
 29 31  2  0  0  0  0
M  END
>  <MODEL>
2

>  <REMARK>
 VINA RESULT:      -9.7      3.075      4.449
  Name = 
  4 active torsions:
  status: ('A' for Active; 'I' for Inactive)
    1  A    between atoms: C_1  and  C_24
    2  A    between atoms: C_9  and  C_22
    3  A    between atoms: C_19  and  C_22
    4  A    between atoms: C_19  and  C_24
                            x       y       z     vdW  Elec       q    Type
                         _______ _______ _______ _____ _____    ______ ____

>  <TORSDO>
F 4

$$$$
=
 OpenBabel11052422423D

 31 34  0  0  1  0  0  0  0  0999 V2000
  161.9550  210.9730  149.6880 C   0  0  0  0  0  0  0  0  0  0  0  0
  161.3750  208.1280  152.0920 C   0  0  0  0  0  0  0  0  0  0  0  0
  161.2580  208.7060  153.4000 C   0  0  0  0  0  0  0  0  0  0  0  0
  161.8900  204.4340  148.3650 O   0  0  0  0  0  0  0  0  0  0  0  0
  161.4650  203.8930  149.4210 C   0  0  0  0  0  0  0  0  0  0  0  0
  161.2430  210.6310  154.9080 C   0  0  0  0  0  3  0  0  0  0  0  0
  161.6010  208.8770  150.8950 C   0  0  0  0  0  0  0  0  0  0  0  0
  162.0440  210.2800  148.4820 C   0  0  0  0  0  3  0  0  0  0  0  0
  161.3600  210.0900  153.6280 C   0  0  0  0  0  3  0  0  0  0  0  0
  161.3710  206.0900  150.7180 C   0  0  0  0  0  0  0  0  0  0  0  0
  162.0790  212.3220  149.7050 F   0  0  0  0  0  0  0  0  0  0  0  0
  160.9200  206.4900  154.3640 C   0  0  0  0  0  3  0  0  0  0  0  0
  161.0190  209.7960  155.9990 C   0  0  0  0  0  3  0  0  0  0  0  0
  161.5820  206.8430  149.6110 N   0  0  0  0  0  0  0  0  0  0  0  0
  161.2580  206.7120  151.9730 C   0  0  0  0  0  0  0  0  0  0  0  0
  161.2480  204.6630  150.6090 N   0  0  0  0  0  2  0  0  0  0  0  0
  161.7360  210.2770  150.8780 C   0  0  0  0  0  3  0  0  0  0  0  0
  160.6930  207.6230  156.8930 F   0  0  0  0  0  0  0  0  0  0  0  0
  161.6990  208.1900  149.6590 C   0  0  0  0  0  0  0  0  0  0  0  0
  161.9160  208.8920  148.4680 C   0  0  0  0  0  3  0  0  0  0  0  0
  161.0330  205.9210  153.1050 C   0  0  0  0  0  3  0  0  0  0  0  0
  161.0290  207.8670  154.5280 C   0  0  0  0  0  0  0  0  0  0  0  0
  160.9120  208.4180  155.8150 C   0  0  0  0  0  0  0  0  0  0  0  0
  160.8790  201.9550  150.8760 C   0  0  0  0  0  1  0  0  0  0  0  0
  161.2380  202.4160  149.4680 C   0  0  1  0  0  3  0  0  0  0  0  0
  159.1360  201.3160  149.0270 O   0  0  0  0  0  1  0  0  0  0  0  0
  160.2060  201.9820  148.4240 C   0  0  2  0  0  3  0  0  0  0  0  0
  160.8260  201.0910  147.3570 C   0  0  0  0  0  2  0  0  0  0  0  0
  160.6940  201.7050  146.0060 C   0  0  0  0  0  0  0  0  0  0  0  0
  160.0270  201.0020  144.9640 N   0  0  0  0  0  1  0  0  0  0  0  0
  161.1620  202.8520  145.7880 O   0  0  0  0  0  0  0  0  0  0  0  0
  1 11  1  0  0  0  0
  1 17  1  0  0  0  0
  2  3  1  0  0  0  0
  3  9  2  0  0  0  0
  3 22  1  0  0  0  0
  4  5  2  0  0  0  0
  5 25  1  0  0  0  0
  5 16  1  0  0  0  0
  6 13  2  0  0  0  0
  7  2  1  0  0  0  0
  8  1  2  0  0  0  0
  9  6  1  0  0  0  0
 10 15  1  0  0  0  0
 12 22  1  0  0  0  0
 14 19  1  0  0  0  0
 14 10  2  0  0  0  0
 15  2  2  0  0  0  0
 15 21  1  0  0  0  0
 16 10  1  0  0  0  0
 17  7  2  0  0  0  0
 19  7  1  0  0  0  0
 20  8  1  0  0  0  0
 20 19  2  0  0  0  0
 21 12  2  0  0  0  0
 22 23  2  0  0  0  0
 23 13  1  0  0  0  0
 23 18  1  0  0  0  0
 25 24  1  1  0  0  0
 27 26  1  1  0  0  0
 27 25  1  0  0  0  0
 28 27  1  0  0  0  0
 29 28  1  0  0  0  0
 30 29  1  0  0  0  0
 31 29  2  0  0  0  0
M  END
>  <MODEL>
3

>  <REMARK>
 VINA RESULT:      -9.5      4.243      8.633
  Name = 
  4 active torsions:
  status: ('A' for Active; 'I' for Inactive)
    1  A    between atoms: C_1  and  C_24
    2  A    between atoms: C_9  and  C_22
    3  A    between atoms: C_19  and  C_22
    4  A    between atoms: C_19  and  C_24
                            x       y       z     vdW  Elec       q    Type
                         _______ _______ _______ _____ _____    ______ ____

>  <TORSDO>
F 4

$$$$
=
 OpenBabel11052422423D

 31 34  0  0  1  0  0  0  0  0999 V2000
  161.0820  204.5150  151.9480 C   0  0  0  0  0  0  0  0  0  0  0  0
  161.1930  208.1110  153.0750 C   0  0  0  0  0  0  0  0  0  0  0  0
  160.9120  208.1150  154.4820 C   0  0  0  0  0  0  0  0  0  0  0  0
  161.9640  209.9630  148.1990 O   0  0  0  0  0  0  0  0  0  0  0  0
  162.1260  210.9030  149.0240 C   0  0  0  0  0  0  0  0  0  0  0  0
  160.3850  206.9630  156.5740 C   0  0  0  0  0  3  0  0  0  0  0  0
  161.2450  206.9340  152.2650 C   0  0  0  0  0  0  0  0  0  0  0  0
  161.3700  204.6590  150.5920 C   0  0  0  0  0  3  0  0  0  0  0  0
  160.6550  206.9360  155.2060 C   0  0  0  0  0  3  0  0  0  0  0  0
  161.7110  209.4200  151.0610 C   0  0  0  0  0  0  0  0  0  0  0  0
  160.8630  203.2830  152.4670 F   0  0  0  0  0  0  0  0  0  0  0  0
  161.1350  210.5440  154.5340 C   0  0  0  0  0  3  0  0  0  0  0  0
  160.3650  208.1760  157.2560 C   0  0  0  0  0  3  0  0  0  0  0  0
  161.7530  208.2760  150.3350 N   0  0  0  0  0  0  0  0  0  0  0  0
  161.4380  209.3630  152.4380 C   0  0  0  0  0  0  0  0  0  0  0  0
  161.9600  210.6860  150.4300 N   0  0  0  0  0  2  0  0  0  0  0  0
  161.0210  205.6410  152.7720 C   0  0  0  0  0  3  0  0  0  0  0  0
  160.5910  210.5370  157.2610 F   0  0  0  0  0  0  0  0  0  0  0  0
  161.5330  207.0590  150.8820 C   0  0  0  0  0  0  0  0  0  0  0  0
  161.5950  205.9280  150.0610 C   0  0  0  0  0  3  0  0  0  0  0  0
  161.4050  210.5520  153.1740 C   0  0  0  0  0  3  0  0  0  0  0  0
  160.8880  209.3460  155.1970 C   0  0  0  0  0  0  0  0  0  0  0  0
  160.6150  209.3660  156.5750 C   0  0  0  0  0  0  0  0  0  0  0  0
  163.4380  212.2540  147.3900 C   0  0  0  0  0  1  0  0  0  0  0  0
  162.4350  212.2820  148.5380 C   0  0  1  0  0  3  0  0  0  0  0  0
  161.2790  213.6790  146.9470 O   0  0  0  0  0  1  0  0  0  0  0  0
  161.1540  213.0430  148.1840 C   0  0  2  0  0  3  0  0  0  0  0  0
  160.7960  214.0680  149.2510 C   0  0  0  0  0  2  0  0  0  0  0  0
  159.5580  213.6720  149.9770 C   0  0  0  0  0  0  0  0  0  0  0  0
  159.6220  213.3040  151.3500 N   0  0  0  0  0  1  0  0  0  0  0  0
  158.4500  213.6740  149.3810 O   0  0  0  0  0  0  0  0  0  0  0  0
  1 11  1  0  0  0  0
  1 17  1  0  0  0  0
  2  3  1  0  0  0  0
  3 22  2  0  0  0  0
  3  9  1  0  0  0  0
  4  5  2  0  0  0  0
  5 16  1  0  0  0  0
  6 13  1  0  0  0  0
  7 17  2  0  0  0  0
  7  2  1  0  0  0  0
  8  1  2  0  0  0  0
  9  6  2  0  0  0  0
 10 15  1  0  0  0  0
 12 22  1  0  0  0  0
 14 19  1  0  0  0  0
 14 10  2  0  0  0  0
 15  2  2  0  0  0  0
 15 21  1  0  0  0  0
 16 10  1  0  0  0  0
 19  7  1  0  0  0  0
 20  8  1  0  0  0  0
 20 19  2  0  0  0  0
 21 12  2  0  0  0  0
 22 23  1  0  0  0  0
 23 13  2  0  0  0  0
 23 18  1  0  0  0  0
 25 24  1  6  0  0  0
 25  5  1  0  0  0  0
 27 26  1  6  0  0  0
 27 25  1  0  0  0  0
 27 28  1  0  0  0  0
 28 29  1  0  0  0  0
 29 30  1  0  0  0  0
 31 29  2  0  0  0  0
M  END
>  <MODEL>
4

>  <REMARK>
 VINA RESULT:      -9.0      2.851      5.911
  Name = 
  4 active torsions:
  status: ('A' for Active; 'I' for Inactive)
    1  A    between atoms: C_1  and  C_24
    2  A    between atoms: C_9  and  C_22
    3  A    between atoms: C_19  and  C_22
    4  A    between atoms: C_19  and  C_24
                            x       y       z     vdW  Elec       q    Type
                         _______ _______ _______ _____ _____    ______ ____

>  <TORSDO>
F 4

$$$$
=
 OpenBabel11052422423D

 31 34  0  0  1  0  0  0  0  0999 V2000
  162.0990  207.1070  147.3070 C   0  0  0  0  0  0  0  0  0  0  0  0
  161.2210  205.0110  150.3150 C   0  0  0  0  0  0  0  0  0  0  0  0
  161.1130  203.6540  149.8590 C   0  0  0  0  0  0  0  0  0  0  0  0
  160.8280  209.1770  153.5210 O   0  0  0  0  0  0  0  0  0  0  0  0
  160.7840  208.1240  154.2120 C   0  0  0  0  0  0  0  0  0  0  0  0
  161.2060  201.9640  148.0950 C   0  0  0  0  0  3  0  0  0  0  0  0
  161.5420  206.1220  149.4740 C   0  0  0  0  0  0  0  0  0  0  0  0
  162.1750  208.3730  147.8860 C   0  0  0  0  0  3  0  0  0  0  0  0
  161.3150  203.2880  148.5160 C   0  0  0  0  0  3  0  0  0  0  0  0
  161.0800  206.5820  152.1990 C   0  0  0  0  0  0  0  0  0  0  0  0
  162.3310  206.9530  145.9810 F   0  0  0  0  0  0  0  0  0  0  0  0
  160.5790  202.9210  152.1240 C   0  0  0  0  0  3  0  0  0  0  0  0
  160.8900  200.9650  149.0120 C   0  0  0  0  0  3  0  0  0  0  0  0
  161.3910  207.6030  151.3630 N   0  0  0  0  0  0  0  0  0  0  0  0
  160.9940  205.2720  151.6980 C   0  0  0  0  0  0  0  0  0  0  0  0
  160.8530  206.8340  153.5950 N   0  0  0  0  0  2  0  0  0  0  0  0
  161.7870  205.9970  148.0950 C   0  0  0  0  0  3  0  0  0  0  0  0
  160.3750  200.2970  151.2280 F   0  0  0  0  0  0  0  0  0  0  0  0
  161.6200  207.4180  150.0430 C   0  0  0  0  0  0  0  0  0  0  0  0
  161.9360  208.5270  149.2510 C   0  0  0  0  0  3  0  0  0  0  0  0
  160.6790  204.2280  152.5750 C   0  0  0  0  0  3  0  0  0  0  0  0
  160.7910  202.6200  150.7820 C   0  0  0  0  0  0  0  0  0  0  0  0
  160.6820  201.2870  150.3520 C   0  0  0  0  0  0  0  0  0  0  0  0
  160.8590  206.8610  156.3600 C   0  0  0  0  0  1  0  0  0  0  0  0
  160.5960  208.2060  155.6920 C   0  0  1  0  0  3  0  0  0  0  0  0
  162.4410  208.8280  157.1180 O   0  0  0  0  0  1  0  0  0  0  0  0
  161.4350  209.3380  156.2940 C   0  0  2  0  0  3  0  0  0  0  0  0
  160.5760  210.3160  157.0840 C   0  0  0  0  0  2  0  0  0  0  0  0
  159.8330  211.2290  156.1720 C   0  0  0  0  0  0  0  0  0  0  0  0
  158.4160  211.1420  156.0730 N   0  0  0  0  0  1  0  0  0  0  0  0
  160.4560  212.0890  155.4970 O   0  0  0  0  0  0  0  0  0  0  0  0
  1  8  2  0  0  0  0
  1 17  1  0  0  0  0
  2 15  1  0  0  0  0
  3  2  2  0  0  0  0
  3 22  1  0  0  0  0
  4  5  2  0  0  0  0
  5 25  1  0  0  0  0
  6  9  2  0  0  0  0
  6 13  1  0  0  0  0
  7 19  1  0  0  0  0
  7  2  1  0  0  0  0
  8 20  1  0  0  0  0
  9  3  1  0  0  0  0
 10 16  1  0  0  0  0
 11  1  1  0  0  0  0
 12 21  1  0  0  0  0
 13 23  2  0  0  0  0
 14 10  2  0  0  0  0
 15 10  1  0  0  0  0
 15 21  2  0  0  0  0
 16  5  1  0  0  0  0
 17  7  2  0  0  0  0
 19 14  1  0  0  0  0
 20 19  2  0  0  0  0
 22 12  2  0  0  0  0
 23 22  1  0  0  0  0
 23 18  1  0  0  0  0
 25 27  1  0  0  0  0
 25 24  1  1  0  0  0
 27 28  1  0  0  0  0
 27 26  1  1  0  0  0
 29 28  1  0  0  0  0
 30 29  1  0  0  0  0
 31 29  2  0  0  0  0
M  END
>  <MODEL>
5

>  <REMARK>
 VINA RESULT:      -8.8      3.539      6.257
  Name = 
  4 active torsions:
  status: ('A' for Active; 'I' for Inactive)
    1  A    between atoms: C_1  and  C_24
    2  A    between atoms: C_9  and  C_22
    3  A    between atoms: C_19  and  C_22
    4  A    between atoms: C_19  and  C_24
                            x       y       z     vdW  Elec       q    Type
                         _______ _______ _______ _____ _____    ______ ____

>  <TORSDO>
F 4

$$$$
=
 OpenBabel11052422423D

 31 34  0  0  1  0  0  0  0  0999 V2000
  160.9830  206.9590  154.2090 C   0  0  0  0  0  0  0  0  0  0  0  0
  161.4940  207.4770  150.5100 C   0  0  0  0  0  0  0  0  0  0  0  0
  161.6480  208.8890  150.3060 C   0  0  0  0  0  0  0  0  0  0  0  0
  160.8070  202.3780  149.3620 O   0  0  0  0  0  0  0  0  0  0  0  0
  161.2260  202.9750  148.3340 C   0  0  0  0  0  0  0  0  0  0  0  0
  161.7480  211.1850  151.1400 C   0  0  0  0  0  3  0  0  0  0  0  0
  161.2790  206.8640  151.7840 C   0  0  0  0  0  0  0  0  0  0  0  0
  160.8550  205.5710  154.2620 C   0  0  0  0  0  3  0  0  0  0  0  0
  161.5960  209.8170  151.3620 C   0  0  0  0  0  3  0  0  0  0  0  0
  161.4120  205.2340  149.5100 C   0  0  0  0  0  0  0  0  0  0  0  0
  160.9060  207.6890  155.3470 F   0  0  0  0  0  0  0  0  0  0  0  0
  161.9220  208.5260  147.9090 C   0  0  0  0  0  3  0  0  0  0  0  0
  161.9560  211.6630  149.8490 C   0  0  0  0  0  3  0  0  0  0  0  0
  161.2130  204.6990  150.7390 N   0  0  0  0  0  0  0  0  0  0  0  0
  161.5610  206.6250  149.3700 C   0  0  0  0  0  0  0  0  0  0  0  0
  161.4840  204.3840  148.3540 N   0  0  0  0  0  2  0  0  0  0  0  0
  161.1920  207.5940  152.9840 C   0  0  0  0  0  3  0  0  0  0  0  0
  162.2190  211.2640  147.5270 F   0  0  0  0  0  0  0  0  0  0  0  0
  161.1430  205.4550  151.8590 C   0  0  0  0  0  0  0  0  0  0  0  0
  160.9350  204.8220  153.0890 C   0  0  0  0  0  3  0  0  0  0  0  0
  161.7730  207.1600  148.0950 C   0  0  0  0  0  3  0  0  0  0  0  0
  161.8620  209.3960  148.9930 C   0  0  0  0  0  0  0  0  0  0  0  0
  162.0140  210.7760  148.7760 C   0  0  0  0  0  0  0  0  0  0  0  0
  160.8330  200.8180  147.1480 C   0  0  0  0  0  1  0  0  0  0  0  0
  161.4030  202.2290  147.0520 C   0  0  1  0  0  3  0  0  0  0  0  0
  160.3420  202.1550  144.8850 O   0  0  0  0  0  1  0  0  0  0  0  0
  160.8300  203.0170  145.8700 C   0  0  2  0  0  3  0  0  0  0  0  0
  161.8670  203.9520  145.2620 C   0  0  0  0  0  2  0  0  0  0  0  0
  161.2120  205.1100  144.5910 C   0  0  0  0  0  0  0  0  0  0  0  0
  160.1900  205.8380  145.2600 N   0  0  0  0  0  1  0  0  0  0  0  0
  161.5730  205.4530  143.4360 O   0  0  0  0  0  0  0  0  0  0  0  0
  1  8  1  0  0  0  0
  1 11  1  0  0  0  0
  2  7  1  0  0  0  0
  3  2  1  0  0  0  0
  3  9  1  0  0  0  0
  5 16  1  0  0  0  0
  5  4  2  0  0  0  0
  6  9  2  0  0  0  0
  7 19  2  0  0  0  0
  7 17  1  0  0  0  0
 10 14  2  0  0  0  0
 12 21  2  0  0  0  0
 12 22  1  0  0  0  0
 13  6  1  0  0  0  0
 14 19  1  0  0  0  0
 15 10  1  0  0  0  0
 15  2  2  0  0  0  0
 16 10  1  0  0  0  0
 17  1  2  0  0  0  0
 18 23  1  0  0  0  0
 19 20  1  0  0  0  0
 20  8  2  0  0  0  0
 21 15  1  0  0  0  0
 22  3  2  0  0  0  0
 23 22  1  0  0  0  0
 23 13  2  0  0  0  0
 25 24  1  1  0  0  0
 25  5  1  0  0  0  0
 27 26  1  6  0  0  0
 27 25  1  0  0  0  0
 28 27  1  0  0  0  0
 29 30  1  0  0  0  0
 29 28  1  0  0  0  0
 31 29  2  0  0  0  0
M  END
>  <MODEL>
6

>  <REMARK>
 VINA RESULT:      -8.1      3.892      6.805
  Name = 
  4 active torsions:
  status: ('A' for Active; 'I' for Inactive)
    1  A    between atoms: C_1  and  C_24
    2  A    between atoms: C_9  and  C_22
    3  A    between atoms: C_19  and  C_22
    4  A    between atoms: C_19  and  C_24
                            x       y       z     vdW  Elec       q    Type
                         _______ _______ _______ _____ _____    ______ ____

>  <TORSDO>
F 4

$$$$
=
 OpenBabel11052422423D

 31 34  0  0  1  0  0  0  0  0999 V2000
  161.1410  201.5860  150.5340 C   0  0  0  0  0  0  0  0  0  0  0  0
  161.0670  204.9230  148.7820 C   0  0  0  0  0  0  0  0  0  0  0  0
  161.1140  204.6550  147.3740 C   0  0  0  0  0  0  0  0  0  0  0  0
  161.2170  207.6640  153.2830 O   0  0  0  0  0  0  0  0  0  0  0  0
  160.9800  208.4550  152.3310 C   0  0  0  0  0  0  0  0  0  0  0  0
  161.2220  203.1110  145.4800 C   0  0  0  0  0  3  0  0  0  0  0  0
  161.0760  203.9160  149.7970 C   0  0  0  0  0  0  0  0  0  0  0  0
  161.0870  201.9910  151.8670 C   0  0  0  0  0  3  0  0  0  0  0  0
  161.1780  203.3490  146.8540 C   0  0  0  0  0  3  0  0  0  0  0  0
  160.9660  206.6070  150.5700 C   0  0  0  0  0  0  0  0  0  0  0  0
  161.1970  200.2680  150.2280 F   0  0  0  0  0  0  0  0  0  0  0  0
  161.0350  207.0470  146.9010 C   0  0  0  0  0  3  0  0  0  0  0  0
  161.2040  204.1780  144.5870 C   0  0  0  0  0  3  0  0  0  0  0  0
  160.9730  205.6170  151.4950 N   0  0  0  0  0  0  0  0  0  0  0  0
  161.0070  206.2850  149.2020 C   0  0  0  0  0  0  0  0  0  0  0  0
  160.9010  207.9820  150.9820 N   0  0  0  0  0  2  0  0  0  0  0  0
  161.1360  202.5400  149.5140 C   0  0  0  0  0  3  0  0  0  0  0  0
  161.1250  206.5120  144.1740 F   0  0  0  0  0  0  0  0  0  0  0  0
  161.0270  204.3080  151.1590 C   0  0  0  0  0  0  0  0  0  0  0  0
  161.0300  203.3490  152.1780 C   0  0  0  0  0  3  0  0  0  0  0  0
  160.9910  207.3180  148.2600 C   0  0  0  0  0  3  0  0  0  0  0  0
  161.0970  205.7340  146.4450 C   0  0  0  0  0  0  0  0  0  0  0  0
  161.1420  205.4870  145.0630 C   0  0  0  0  0  0  0  0  0  0  0  0
  161.6750  210.3550  153.7880 C   0  0  0  0  0  1  0  0  0  0  0  0
  160.8390  209.9210  152.5900 C   0  0  1  0  0  3  0  0  0  0  0  0
  162.5210  210.7920  151.0950 O   0  0  0  0  0  1  0  0  0  0  0  0
  161.1450  210.7360  151.3300 C   0  0  2  0  0  3  0  0  0  0  0  0
  160.5860  212.1490  151.4250 C   0  0  0  0  0  2  0  0  0  0  0  0
  160.7330  212.8690  150.1290 C   0  0  0  0  0  0  0  0  0  0  0  0
  161.1970  212.1750  148.9760 N   0  0  0  0  0  1  0  0  0  0  0  0
  160.4330  214.0880  150.0490 O   0  0  0  0  0  0  0  0  0  0  0  0
  1  8  1  0  0  0  0
  2 15  1  0  0  0  0
  2  7  1  0  0  0  0
  3  2  2  0  0  0  0
  5 25  1  0  0  0  0
  5  4  2  0  0  0  0
  6  9  2  0  0  0  0
  7 19  2  0  0  0  0
  8 20  2  0  0  0  0
  9  3  1  0  0  0  0
 10 16  1  0  0  0  0
 10 14  2  0  0  0  0
 11  1  1  0  0  0  0
 12 21  1  0  0  0  0
 13 23  2  0  0  0  0
 13  6  1  0  0  0  0
 15 10  1  0  0  0  0
 16  5  1  0  0  0  0
 17  7  1  0  0  0  0
 17  1  2  0  0  0  0
 18 23  1  0  0  0  0
 19 14  1  0  0  0  0
 19 20  1  0  0  0  0
 21 15  2  0  0  0  0
 22 12  2  0  0  0  0
 22  3  1  0  0  0  0
 23 22  1  0  0  0  0
 25 24  1  1  0  0  0
 27 26  1  1  0  0  0
 27 28  1  0  0  0  0
 27 25  1  0  0  0  0
 29 28  1  0  0  0  0
 30 29  1  0  0  0  0
 31 29  2  0  0  0  0
M  END
>  <MODEL>
7

>  <REMARK>
 VINA RESULT:      -8.1      2.189      3.208
  Name = 
  4 active torsions:
  status: ('A' for Active; 'I' for Inactive)
    1  A    between atoms: C_1  and  C_24
    2  A    between atoms: C_9  and  C_22
    3  A    between atoms: C_19  and  C_22
    4  A    between atoms: C_19  and  C_24
                            x       y       z     vdW  Elec       q    Type
                         _______ _______ _______ _____ _____    ______ ____

>  <TORSDO>
F 4

$$$$
=
 OpenBabel11052422423D

 31 34  0  0  1  0  0  0  0  0999 V2000
  161.3130  203.9210  145.2550 C   0  0  0  0  0  0  0  0  0  0  0  0
  161.2060  204.8300  148.9120 C   0  0  0  0  0  0  0  0  0  0  0  0
  160.9830  203.6120  149.6370 C   0  0  0  0  0  0  0  0  0  0  0  0
  161.6410  210.0010  147.9820 O   0  0  0  0  0  0  0  0  0  0  0  0
  161.7670  209.7960  149.2200 C   0  0  0  0  0  0  0  0  0  0  0  0
  160.6270  201.1940  149.7230 C   0  0  0  0  0  3  0  0  0  0  0  0
  161.3110  204.9150  147.4890 C   0  0  0  0  0  0  0  0  0  0  0  0
  161.5350  205.1730  144.6820 C   0  0  0  0  0  3  0  0  0  0  0  0
  160.8430  202.3660  148.9990 C   0  0  0  0  0  3  0  0  0  0  0  0
  161.5450  207.2620  149.0000 C   0  0  0  0  0  0  0  0  0  0  0  0
  161.2060  202.8250  144.4660 F   0  0  0  0  0  0  0  0  0  0  0  0
  161.0290  204.8410  151.7440 C   0  0  0  0  0  3  0  0  0  0  0  0
  160.5460  201.2380  151.1120 C   0  0  0  0  0  3  0  0  0  0  0  0
  161.6410  207.2920  147.6480 N   0  0  0  0  0  0  0  0  0  0  0  0
  161.3330  206.0380  149.6580 C   0  0  0  0  0  0  0  0  0  0  0  0
  161.6740  208.4740  149.7610 N   0  0  0  0  0  2  0  0  0  0  0  0
  161.2030  203.7980  146.6410 C   0  0  0  0  0  3  0  0  0  0  0  0
  160.5990  202.4730  153.1360 F   0  0  0  0  0  0  0  0  0  0  0  0
  161.5330  206.1800  146.8870 C   0  0  0  0  0  0  0  0  0  0  0  0
  161.6450  206.2990  145.4970 C   0  0  0  0  0  3  0  0  0  0  0  0
  161.2430  206.0240  151.0530 C   0  0  0  0  0  3  0  0  0  0  0  0
  160.8980  203.6380  151.0570 C   0  0  0  0  0  0  0  0  0  0  0  0
  160.6800  202.4530  151.7820 C   0  0  0  0  0  0  0  0  0  0  0  0
  161.5810  212.2670  149.4920 C   0  0  0  0  0  1  0  0  0  0  0  0
  161.9550  210.9470  150.1550 C   0  0  1  0  0  3  0  0  0  0  0  0
  160.4830  211.8520  151.8400 O   0  0  0  0  0  1  0  0  0  0  0  0
  161.2070  210.7150  151.4720 C   0  0  2  0  0  3  0  0  0  0  0  0
  162.1570  210.3280  152.5970 C   0  0  0  0  0  2  0  0  0  0  0  0
  161.4110  209.7490  153.7490 C   0  0  0  0  0  0  0  0  0  0  0  0
  161.2320  210.5100  154.9380 N   0  0  0  0  0  1  0  0  0  0  0  0
  160.9280  208.5900  153.6680 O   0  0  0  0  0  0  0  0  0  0  0  0
  1 17  1  0  0  0  0
  2  3  2  0  0  0  0
  2 15  1  0  0  0  0
  3 22  1  0  0  0  0
  4  5  2  0  0  0  0
  5 16  1  0  0  0  0
  5 25  1  0  0  0  0
  6 13  1  0  0  0  0
  7  2  1  0  0  0  0
  8  1  2  0  0  0  0
  8 20  1  0  0  0  0
  9  3  1  0  0  0  0
  9  6  2  0  0  0  0
 10 15  1  0  0  0  0
 10 16  1  0  0  0  0
 11  1  1  0  0  0  0
 13 23  2  0  0  0  0
 14 10  2  0  0  0  0
 15 21  2  0  0  0  0
 17  7  2  0  0  0  0
 19  7  1  0  0  0  0
 19 14  1  0  0  0  0
 20 19  2  0  0  0  0
 21 12  1  0  0  0  0
 22 12  2  0  0  0  0
 22 23  1  0  0  0  0
 23 18  1  0  0  0  0
 25 24  1  6  0  0  0
 25 27  1  0  0  0  0
 27 26  1  1  0  0  0
 27 28  1  0  0  0  0
 28 29  1  0  0  0  0
 29 30  1  0  0  0  0
 31 29  2  0  0  0  0
M  END
>  <MODEL>
8

>  <REMARK>
 VINA RESULT:      -7.8      2.101      5.278
  Name = 
  4 active torsions:
  status: ('A' for Active; 'I' for Inactive)
    1  A    between atoms: C_1  and  C_24
    2  A    between atoms: C_9  and  C_22
    3  A    between atoms: C_19  and  C_22
    4  A    between atoms: C_19  and  C_24
                            x       y       z     vdW  Elec       q    Type
                         _______ _______ _______ _____ _____    ______ ____

>  <TORSDO>
F 4

$$$$
=
 OpenBabel11052422423D

 31 34  0  0  1  0  0  0  0  0999 V2000
  161.3080  204.0590  146.0570 C   0  0  0  0  0  0  0  0  0  0  0  0
  161.3640  205.9080  149.3420 C   0  0  0  0  0  0  0  0  0  0  0  0
  161.2340  204.9220  150.3760 C   0  0  0  0  0  0  0  0  0  0  0  0
  161.5290  210.6530  147.0500 O   0  0  0  0  0  0  0  0  0  0  0  0
  161.7320  210.7890  148.2860 C   0  0  0  0  0  0  0  0  0  0  0  0
  160.9840  202.6070  151.1220 C   0  0  0  0  0  3  0  0  0  0  0  0
  161.3870  205.6130  147.9430 C   0  0  0  0  0  0  0  0  0  0  0  0
  161.4450  205.1180  145.1610 C   0  0  0  0  0  3  0  0  0  0  0  0
  161.1100  203.5480  150.1010 C   0  0  0  0  0  3  0  0  0  0  0  0
  161.6050  208.2840  148.7610 C   0  0  0  0  0  0  0  0  0  0  0  0
  161.2040  202.7900  145.5950 F   0  0  0  0  0  0  0  0  0  0  0  0
  161.3430  206.6700  152.0750 C   0  0  0  0  0  3  0  0  0  0  0  0
  160.9780  203.0180  152.4520 C   0  0  0  0  0  3  0  0  0  0  0  0
  161.6250  207.9550  147.4460 N   0  0  0  0  0  0  0  0  0  0  0  0
  161.4810  207.2750  149.7310 C   0  0  0  0  0  0  0  0  0  0  0  0
  161.7250  209.6570  149.1630 N   0  0  0  0  0  2  0  0  0  0  0  0
  161.2800  204.3070  147.4310 C   0  0  0  0  0  3  0  0  0  0  0  0
  161.0910  204.7490  154.0690 F   0  0  0  0  0  0  0  0  0  0  0  0
  161.5220  206.6760  147.0150 C   0  0  0  0  0  0  0  0  0  0  0  0
  161.5520  206.4230  145.6390 C   0  0  0  0  0  3  0  0  0  0  0  0
  161.4690  207.6310  151.0840 C   0  0  0  0  0  3  0  0  0  0  0  0
  161.2260  205.3240  151.7420 C   0  0  0  0  0  0  0  0  0  0  0  0
  161.0980  204.3710  152.7660 C   0  0  0  0  0  0  0  0  0  0  0  0
  163.0910  212.8780  148.2150 C   0  0  0  0  0  1  0  0  0  0  0  0
  161.9220  212.1520  148.8700 C   0  0  1  0  0  3  0  0  0  0  0  0
  160.5790  213.7620  147.6750 O   0  0  0  0  0  1  0  0  0  0  0  0
  160.6220  212.9610  148.8190 C   0  0  2  0  0  3  0  0  0  0  0  0
  160.4510  213.8300  150.0570 C   0  0  0  0  0  2  0  0  0  0  0  0
  159.5300  213.1880  151.0360 C   0  0  0  0  0  0  0  0  0  0  0  0
  160.0410  212.2900  152.0150 N   0  0  0  0  0  1  0  0  0  0  0  0
  158.2990  213.4480  151.0070 O   0  0  0  0  0  0  0  0  0  0  0  0
  1 17  1  0  0  0  0
  2 15  2  0  0  0  0
  2  3  1  0  0  0  0
  3 22  1  0  0  0  0
  4  5  2  0  0  0  0
  5 25  1  0  0  0  0
  5 16  1  0  0  0  0
  6 13  2  0  0  0  0
  7  2  1  0  0  0  0
  8 20  1  0  0  0  0
  8  1  2  0  0  0  0
  9  3  2  0  0  0  0
  9  6  1  0  0  0  0
 10 16  1  0  0  0  0
 10 15  1  0  0  0  0
 11  1  1  0  0  0  0
 13 23  1  0  0  0  0
 14 10  2  0  0  0  0
 15 21  1  0  0  0  0
 17  7  2  0  0  0  0
 19 14  1  0  0  0  0
 19  7  1  0  0  0  0
 20 19  2  0  0  0  0
 21 12  2  0  0  0  0
 22 12  1  0  0  0  0
 22 23  2  0  0  0  0
 23 18  1  0  0  0  0
 25 24  1  6  0  0  0
 27 26  1  6  0  0  0
 27 25  1  0  0  0  0
 27 28  1  0  0  0  0
 28 29  1  0  0  0  0
 29 30  1  0  0  0  0
 31 29  2  0  0  0  0
M  END
>  <MODEL>
9

>  <REMARK>
 VINA RESULT:      -7.8      1.738      4.497
  Name = 
  4 active torsions:
  status: ('A' for Active; 'I' for Inactive)
    1  A    between atoms: C_1  and  C_24
    2  A    between atoms: C_9  and  C_22
    3  A    between atoms: C_19  and  C_22
    4  A    between atoms: C_19  and  C_24
                            x       y       z     vdW  Elec       q    Type
                         _______ _______ _______ _____ _____    ______ ____

>  <TORSDO>
F 4

$$$$
