=
 OpenBabel11052423113D

 27 30  0  0  1  0  0  0  0  0999 V2000
  160.8490  210.2240  153.3930 C   0  0  2  0  0  3  0  0  0  0  0  0
  162.8510  210.7030  154.9500 O   0  0  0  0  0  1  0  0  0  0  0  0
  158.4450  213.5370  152.3270 C   0  0  0  0  0  3  0  0  0  0  0  0
  160.2040  211.5190  153.1120 N   0  0  1  0  0  0  0  0  0  0  0  0
  160.1310  211.7880  151.6700 C   0  0  0  0  0  2  0  0  0  0  0  0
  161.0050  208.2730  154.9820 C   0  0  0  0  0  1  0  0  0  0  0  0
  158.6780  210.9990  155.0300 C   0  0  0  0  0  2  0  0  0  0  0  0
  159.6200  213.2130  151.4360 C   0  0  0  0  0  2  0  0  0  0  0  0
  159.9840  211.1960  155.7800 C   0  0  0  0  0  2  0  0  0  0  0  0
  158.0900  212.7400  153.3450 C   0  0  0  0  0  3  0  0  0  0  0  0
  161.3020  210.0550  155.1890 P   0  0  0  0  0  0  0  0  0  0  0  0
  158.8060  211.4340  153.5710 C   0  0  1  0  0  3  0  0  0  0  0  0
  161.5480  208.3670  157.2610 O   0  0  0  0  0  1  0  0  0  0  0  0
  163.0230  210.1130  157.2600 O   0  0  0  0  0  1  0  0  0  0  0  0
  161.7170  209.7180  156.9500 C   0  0  0  0  0  3  0  0  0  0  0  0
  162.0510  209.9160  152.4770 C   0  0  0  0  0  2  0  0  0  0  0  0
  161.8690  208.6750  151.6550 C   0  0  0  0  0  0  0  0  0  0  0  0
  160.9390  205.1750  149.4680 C   0  0  0  0  0  3  0  0  0  0  0  0
  160.6150  202.7840  149.4760 O   0  0  0  0  0  1  0  0  0  0  0  0
  162.1170  208.6710  150.1630 C   0  0  0  0  0  2  0  0  0  0  0  0
  161.2180  205.1370  152.2560 C   0  0  0  0  0  3  0  0  0  0  0  0
  160.9860  203.9480  151.5580 C   0  0  0  0  0  3  0  0  0  0  0  0
  161.5570  207.5690  152.2680 N   0  0  0  0  0  0  0  0  0  0  0  0
  160.8490  203.9660  150.1650 C   0  0  0  0  0  0  0  0  0  0  0  0
  161.1870  206.3620  150.1620 C   0  0  0  0  0  0  0  0  0  0  0  0
  161.3220  206.3450  151.5600 C   0  0  0  0  0  0  0  0  0  0  0  0
  161.2030  207.6770  149.4440 C   0  0  0  0  0  2  0  0  0  0  0  0
  1 16  1  6  0  0  0
  1 11  1  0  0  0  0
  2 11  1  0  0  0  0
  3 10  2  0  0  0  0
  4  5  1  6  0  0  0
  4  1  1  0  0  0  0
  4 12  1  0  0  0  0
  6 11  1  0  0  0  0
  7  9  1  0  0  0  0
  8  5  1  0  0  0  0
  8  3  1  0  0  0  0
 11  9  1  0  0  0  0
 11 15  1  0  0  0  0
 12 10  1  1  0  0  0
 12  7  1  0  0  0  0
 15 14  1  0  0  0  0
 15 13  1  0  0  0  0
 17 23  2  0  0  0  0
 17 16  1  0  0  0  0
 18 25  2  0  0  0  0
 18 24  1  0  0  0  0
 19 24  1  0  0  0  0
 20 17  1  0  0  0  0
 22 21  1  0  0  0  0
 24 22  2  0  0  0  0
 25 26  1  0  0  0  0
 26 21  2  0  0  0  0
 26 23  1  0  0  0  0
 27 25  1  0  0  0  0
 27 20  1  0  0  0  0
M  END
>  <MODEL>
1

>  <REMARK>
 VINA RESULT:      -8.1      0.000      0.000
  Name = 
  3 active torsions:
  status: ('A' for Active; 'I' for Inactive)
    1  A    between atoms: C_1  and  C_15
    2  A    between atoms: C_2  and  C_15
    3  A    between atoms: C_20  and  P_26
                            x       y       z     vdW  Elec       q    Type
                         _______ _______ _______ _____ _____    ______ ____

>  <TORSDO>
F 3

$$$$
=
 OpenBabel11052423113D

 27 30  0  0  1  0  0  0  0  0999 V2000
  160.8180  210.3140  152.9820 C   0  0  2  0  0  3  0  0  0  0  0  0
  162.7260  210.7230  154.6730 O   0  0  0  0  0  1  0  0  0  0  0  0
  159.0010  213.7510  151.3130 C   0  0  0  0  0  3  0  0  0  0  0  0
  160.3870  211.6370  152.4940 N   0  0  1  0  0  0  0  0  0  0  0  0
  160.4760  211.7300  151.0310 C   0  0  0  0  0  2  0  0  0  0  0  0
  160.5620  208.5740  154.7880 C   0  0  0  0  0  1  0  0  0  0  0  0
  158.6440  211.5610  154.2930 C   0  0  0  0  0  2  0  0  0  0  0  0
  160.1920  213.1690  150.5880 C   0  0  0  0  0  2  0  0  0  0  0  0
  159.8950  211.6800  155.1450 C   0  0  0  0  0  2  0  0  0  0  0  0
  158.4520  213.1390  152.3720 C   0  0  0  0  0  3  0  0  0  0  0  0
  161.0870  210.3150  154.8230 P   0  0  0  0  0  0  0  0  0  0  0  0
  158.9570  211.7910  152.8140 C   0  0  1  0  0  3  0  0  0  0  0  0
  161.6770  211.3640  157.2220 O   0  0  0  0  0  1  0  0  0  0  0  0
  160.1330  209.6790  157.2600 O   0  0  0  0  0  1  0  0  0  0  0  0
  161.2970  210.1500  156.6440 C   0  0  0  0  0  3  0  0  0  0  0  0
  162.0390  209.7430  152.2350 C   0  0  0  0  0  2  0  0  0  0  0  0
  161.7160  208.5350  151.4070 C   0  0  0  0  0  0  0  0  0  0  0  0
  161.2330  205.0330  149.0820 C   0  0  0  0  0  3  0  0  0  0  0  0
  161.3740  203.9820  146.9150 O   0  0  0  0  0  1  0  0  0  0  0  0
  160.7660  207.4670  151.9010 C   0  0  0  0  0  2  0  0  0  0  0  0
  162.3620  207.3650  148.0140 C   0  0  0  0  0  3  0  0  0  0  0  0
  162.1480  206.2510  147.1960 C   0  0  0  0  0  3  0  0  0  0  0  0
  162.2220  208.4550  150.2100 N   0  0  0  0  0  0  0  0  0  0  0  0
  161.5810  205.0870  147.7290 C   0  0  0  0  0  0  0  0  0  0  0  0
  161.4320  206.1500  149.8980 C   0  0  0  0  0  0  0  0  0  0  0  0
  162.0030  207.3180  149.3640 C   0  0  0  0  0  0  0  0  0  0  0  0
  161.1450  206.0850  151.3660 C   0  0  0  0  0  2  0  0  0  0  0  0
  1 16  1  6  0  0  0
  1 11  1  0  0  0  0
  2 11  1  0  0  0  0
  3 10  2  0  0  0  0
  4  5  1  6  0  0  0
  4 12  1  0  0  0  0
  4  1  1  0  0  0  0
  6 11  1  0  0  0  0
  7  9  1  0  0  0  0
  8  5  1  0  0  0  0
  8  3  1  0  0  0  0
 11  9  1  0  0  0  0
 11 15  1  0  0  0  0
 12 10  1  1  0  0  0
 12  7  1  0  0  0  0
 15 13  1  0  0  0  0
 15 14  1  0  0  0  0
 17 20  1  0  0  0  0
 17 16  1  0  0  0  0
 18 25  1  0  0  0  0
 19 24  1  0  0  0  0
 21 26  1  0  0  0  0
 22 24  1  0  0  0  0
 22 21  2  0  0  0  0
 23 17  2  0  0  0  0
 24 18  2  0  0  0  0
 25 27  1  0  0  0  0
 26 25  2  0  0  0  0
 26 23  1  0  0  0  0
 27 20  1  0  0  0  0
M  END
>  <MODEL>
2

>  <REMARK>
 VINA RESULT:      -7.3      1.293      2.080
  Name = 
  3 active torsions:
  status: ('A' for Active; 'I' for Inactive)
    1  A    between atoms: C_1  and  C_15
    2  A    between atoms: C_2  and  C_15
    3  A    between atoms: C_20  and  P_26
                            x       y       z     vdW  Elec       q    Type
                         _______ _______ _______ _____ _____    ______ ____

>  <TORSDO>
F 3

$$$$
=
 OpenBabel11052423113D

 27 30  0  0  1  0  0  0  0  0999 V2000
  159.0280  212.3900  153.1320 C   0  0  2  0  0  3  0  0  0  0  0  0
  159.3550  213.8130  155.2610 O   0  0  0  0  0  1  0  0  0  0  0  0
  159.1550  214.4530  149.4410 C   0  0  0  0  0  3  0  0  0  0  0  0
  159.1730  213.3000  151.9820 N   0  0  1  0  0  0  0  0  0  0  0  0
  160.2220  212.8480  151.0600 C   0  0  0  0  0  2  0  0  0  0  0  0
  157.4560  211.4560  154.8670 C   0  0  0  0  0  1  0  0  0  0  0  0
  156.6790  213.5390  152.0560 C   0  0  0  0  0  2  0  0  0  0  0  0
  160.4570  213.9120  149.9830 C   0  0  0  0  0  2  0  0  0  0  0  0
  157.0480  214.2410  153.3500 C   0  0  0  0  0  2  0  0  0  0  0  0
  157.9810  214.1870  150.0300 C   0  0  0  0  0  3  0  0  0  0  0  0
  158.0010  213.1480  154.4850 P   0  0  0  0  0  0  0  0  0  0  0  0
  157.9190  213.2510  151.2090 C   0  0  1  0  0  3  0  0  0  0  0  0
  155.6870  213.0940  155.8440 O   0  0  0  0  0  1  0  0  0  0  0  0
  157.5350  213.5600  157.1050 O   0  0  0  0  0  1  0  0  0  0  0  0
  156.9270  213.7380  155.8580 C   0  0  0  0  0  3  0  0  0  0  0  0
  160.3680  211.8560  153.6740 C   0  0  0  0  0  2  0  0  0  0  0  0
  160.4810  210.3620  153.6110 C   0  0  0  0  0  0  0  0  0  0  0  0
  161.2220  206.2060  153.3290 C   0  0  0  0  0  3  0  0  0  0  0  0
  161.4690  204.2640  151.9190 O   0  0  0  0  0  1  0  0  0  0  0  0
  160.1820  209.4930  154.8130 C   0  0  0  0  0  2  0  0  0  0  0  0
  161.0380  207.8260  151.0500 C   0  0  0  0  0  3  0  0  0  0  0  0
  161.2070  206.4440  150.9170 C   0  0  0  0  0  3  0  0  0  0  0  0
  160.7780  209.8140  152.4670 N   0  0  0  0  0  0  0  0  0  0  0  0
  161.2970  205.6340  152.0560 C   0  0  0  0  0  0  0  0  0  0  0  0
  161.0370  207.5840  153.4640 C   0  0  0  0  0  0  0  0  0  0  0  0
  160.9490  208.3980  152.3220 C   0  0  0  0  0  0  0  0  0  0  0  0
  161.0380  208.2260  154.8180 C   0  0  0  0  0  2  0  0  0  0  0  0
  1 16  1  1  0  0  0
  1 11  1  0  0  0  0
  3  8  1  0  0  0  0
  3 10  2  0  0  0  0
  4  5  1  6  0  0  0
  4  1  1  0  0  0  0
  7  9  1  0  0  0  0
  8  5  1  0  0  0  0
  9 11  1  0  0  0  0
 11  6  1  0  0  0  0
 11  2  1  0  0  0  0
 11 15  1  0  0  0  0
 12 10  1  6  0  0  0
 12  4  1  0  0  0  0
 12  7  1  0  0  0  0
 13 15  1  0  0  0  0
 15 14  1  0  0  0  0
 17 16  1  0  0  0  0
 17 20  1  0  0  0  0
 18 25  1  0  0  0  0
 19 24  1  0  0  0  0
 20 27  1  0  0  0  0
 21 26  1  0  0  0  0
 22 21  2  0  0  0  0
 22 24  1  0  0  0  0
 23 17  2  0  0  0  0
 24 18  2  0  0  0  0
 25 27  1  0  0  0  0
 26 23  1  0  0  0  0
 26 25  2  0  0  0  0
M  END
>  <MODEL>
3

>  <REMARK>
 VINA RESULT:      -6.4      2.781      4.048
  Name = 
  3 active torsions:
  status: ('A' for Active; 'I' for Inactive)
    1  A    between atoms: C_1  and  C_15
    2  A    between atoms: C_2  and  C_15
    3  A    between atoms: C_20  and  P_26
                            x       y       z     vdW  Elec       q    Type
                         _______ _______ _______ _____ _____    ______ ____

>  <TORSDO>
F 3

$$$$
=
 OpenBabel11052423113D

 27 30  0  0  1  0  0  0  0  0999 V2000
  159.6190  212.1600  151.7490 C   0  0  2  0  0  3  0  0  0  0  0  0
  159.6830  213.4530  153.9820 O   0  0  0  0  0  1  0  0  0  0  0  0
  160.0550  214.4530  148.2220 C   0  0  0  0  0  3  0  0  0  0  0  0
  159.8510  213.1440  150.6770 N   0  0  1  0  0  0  0  0  0  0  0  0
  161.0020  212.7770  149.8430 C   0  0  0  0  0  2  0  0  0  0  0  0
  157.9090  211.0800  153.2540 C   0  0  0  0  0  1  0  0  0  0  0  0
  157.3560  213.3150  150.5070 C   0  0  0  0  0  2  0  0  0  0  0  0
  161.3110  213.9120  148.8610 C   0  0  0  0  0  2  0  0  0  0  0  0
  157.5700  213.9430  151.8730 C   0  0  0  0  0  2  0  0  0  0  0  0
  158.8360  214.1220  148.6690 C   0  0  0  0  0  3  0  0  0  0  0  0
  158.4360  212.8060  153.0320 P   0  0  0  0  0  0  0  0  0  0  0  0
  158.6840  213.1120  149.7770 C   0  0  1  0  0  3  0  0  0  0  0  0
  155.9020  213.0800  153.8730 O   0  0  0  0  0  1  0  0  0  0  0  0
  157.4130  212.5780  155.5130 O   0  0  0  0  0  1  0  0  0  0  0  0
  157.2100  213.2800  154.3200 C   0  0  0  0  0  3  0  0  0  0  0  0
  160.9130  211.6260  152.3940 C   0  0  0  0  0  2  0  0  0  0  0  0
  161.2230  210.2080  152.0180 C   0  0  0  0  0  0  0  0  0  0  0  0
  161.6660  206.1340  150.9650 C   0  0  0  0  0  3  0  0  0  0  0  0
  161.7490  203.8330  151.6850 O   0  0  0  0  0  1  0  0  0  0  0  0
  161.9570  209.8700  150.7400 C   0  0  0  0  0  2  0  0  0  0  0  0
  160.9890  206.9160  153.5690 C   0  0  0  0  0  3  0  0  0  0  0  0
  161.2020  205.5650  153.2750 C   0  0  0  0  0  3  0  0  0  0  0  0
  160.9060  209.2640  152.8580 N   0  0  0  0  0  0  0  0  0  0  0  0
  161.5430  205.1750  151.9740 C   0  0  0  0  0  0  0  0  0  0  0  0
  161.4690  207.4860  151.2600 C   0  0  0  0  0  0  0  0  0  0  0  0
  161.1250  207.8780  152.5650 C   0  0  0  0  0  0  0  0  0  0  0  0
  161.5130  208.5190  150.1760 C   0  0  0  0  0  2  0  0  0  0  0  0
  1 16  1  1  0  0  0
  1 11  1  0  0  0  0
  3 10  2  0  0  0  0
  3  8  1  0  0  0  0
  4  5  1  6  0  0  0
  4  1  1  0  0  0  0
  7  9  1  0  0  0  0
  8  5  1  0  0  0  0
  9 11  1  0  0  0  0
 11  6  1  0  0  0  0
 11  2  1  0  0  0  0
 11 15  1  0  0  0  0
 12 10  1  6  0  0  0
 12  7  1  0  0  0  0
 12  4  1  0  0  0  0
 13 15  1  0  0  0  0
 15 14  1  0  0  0  0
 17 16  1  0  0  0  0
 17 23  2  0  0  0  0
 18 25  2  0  0  0  0
 18 24  1  0  0  0  0
 19 24  1  0  0  0  0
 20 17  1  0  0  0  0
 22 21  1  0  0  0  0
 24 22  2  0  0  0  0
 25 26  1  0  0  0  0
 26 23  1  0  0  0  0
 26 21  2  0  0  0  0
 27 20  1  0  0  0  0
 27 25  1  0  0  0  0
M  END
>  <MODEL>
4

>  <REMARK>
 VINA RESULT:      -5.5      2.783      3.858
  Name = 
  3 active torsions:
  status: ('A' for Active; 'I' for Inactive)
    1  A    between atoms: C_1  and  C_15
    2  A    between atoms: C_2  and  C_15
    3  A    between atoms: C_20  and  P_26
                            x       y       z     vdW  Elec       q    Type
                         _______ _______ _______ _____ _____    ______ ____

>  <TORSDO>
F 3

$$$$
=
 OpenBabel11052423113D

 27 30  0  0  1  0  0  0  0  0999 V2000
  161.3020  206.0500  151.8140 C   0  0  2  0  0  3  0  0  0  0  0  0
  163.4760  207.2850  151.1690 O   0  0  0  0  0  1  0  0  0  0  0  0
  160.8300  202.1320  150.2920 C   0  0  0  0  0  3  0  0  0  0  0  0
  161.3870  204.7000  151.2290 N   0  0  1  0  0  0  0  0  0  0  0  0
  161.2420  203.6560  152.2520 C   0  0  0  0  0  2  0  0  0  0  0  0
  160.6690  208.4580  151.4160 C   0  0  0  0  0  1  0  0  0  0  0  0
  160.1290  205.6360  149.2740 C   0  0  0  0  0  2  0  0  0  0  0  0
  161.5140  202.2830  151.6300 C   0  0  0  0  0  2  0  0  0  0  0  0
  161.4460  206.3760  149.1180 C   0  0  0  0  0  2  0  0  0  0  0  0
  160.2760  203.1770  149.6600 C   0  0  0  0  0  3  0  0  0  0  0  0
  161.8740  207.3550  150.6170 P   0  0  0  0  0  0  0  0  0  0  0  0
  160.2370  204.5290  150.3230 C   0  0  1  0  0  3  0  0  0  0  0  0
  161.6670  208.6470  148.2740 O   0  0  0  0  0  1  0  0  0  0  0  0
  162.0320  209.9910  150.0860 O   0  0  0  0  0  1  0  0  0  0  0  0
  162.3200  208.7520  149.5040 C   0  0  0  0  0  3  0  0  0  0  0  0
  162.0130  206.1850  153.1750 C   0  0  0  0  0  2  0  0  0  0  0  0
  161.3300  207.1370  154.1100 C   0  0  0  0  0  0  0  0  0  0  0  0
  159.2170  210.0030  156.3960 C   0  0  0  0  0  3  0  0  0  0  0  0
  159.0900  212.2640  157.2280 O   0  0  0  0  0  1  0  0  0  0  0  0
  160.4000  206.6480  155.1990 C   0  0  0  0  0  2  0  0  0  0  0  0
  161.4580  210.7030  154.8650 C   0  0  0  0  0  3  0  0  0  0  0  0
  160.8300  211.6600  155.6680 C   0  0  0  0  0  3  0  0  0  0  0  0
  161.6090  208.4050  154.0120 N   0  0  0  0  0  0  0  0  0  0  0  0
  159.7120  211.3100  156.4350 C   0  0  0  0  0  0  0  0  0  0  0  0
  159.8530  209.0410  155.6060 C   0  0  0  0  0  0  0  0  0  0  0  0
  160.9730  209.3920  154.8340 C   0  0  0  0  0  0  0  0  0  0  0  0
  159.2890  207.6580  155.4850 C   0  0  0  0  0  2  0  0  0  0  0  0
  1 16  1  1  0  0  0
  3  8  1  0  0  0  0
  4  1  1  0  0  0  0
  4  5  1  1  0  0  0
  8  5  1  0  0  0  0
  9  7  1  0  0  0  0
  9 11  1  0  0  0  0
 10  3  2  0  0  0  0
 10 12  1  0  0  0  0
 11  2  1  0  0  0  0
 11  6  1  0  0  0  0
 11  1  1  0  0  0  0
 12  7  1  6  0  0  0
 12  4  1  0  0  0  0
 13 15  1  0  0  0  0
 15 14  1  0  0  0  0
 15 11  1  0  0  0  0
 16 17  1  0  0  0  0
 17 20  1  0  0  0  0
 18 24  1  0  0  0  0
 20 27  1  0  0  0  0
 21 22  1  0  0  0  0
 22 24  2  0  0  0  0
 23 17  2  0  0  0  0
 23 26  1  0  0  0  0
 24 19  1  0  0  0  0
 25 18  2  0  0  0  0
 26 21  2  0  0  0  0
 26 25  1  0  0  0  0
 27 25  1  0  0  0  0
M  END
>  <MODEL>
5

>  <REMARK>
 VINA RESULT:      -5.3      2.991      7.595
  Name = 
  3 active torsions:
  status: ('A' for Active; 'I' for Inactive)
    1  A    between atoms: C_1  and  C_15
    2  A    between atoms: C_2  and  C_15
    3  A    between atoms: C_20  and  P_26
                            x       y       z     vdW  Elec       q    Type
                         _______ _______ _______ _____ _____    ______ ____

>  <TORSDO>
F 3

$$$$
=
 OpenBabel11052423113D

 27 30  0  0  1  0  0  0  0  0999 V2000
  161.5770  204.8570  148.7980 C   0  0  2  0  0  3  0  0  0  0  0  0
  163.4610  204.8870  147.0340 O   0  0  0  0  0  1  0  0  0  0  0  0
  161.2060  201.3330  151.1090 C   0  0  0  0  0  3  0  0  0  0  0  0
  161.6800  203.5720  149.5130 N   0  0  1  0  0  0  0  0  0  0  0  0
  161.8310  203.7660  150.9610 C   0  0  0  0  0  2  0  0  0  0  0  0
  160.6520  206.0520  146.7810 C   0  0  0  0  0  1  0  0  0  0  0  0
  159.9920  202.7040  147.8760 C   0  0  0  0  0  2  0  0  0  0  0  0
  162.1110  202.4200  151.6360 C   0  0  0  0  0  2  0  0  0  0  0  0
  161.1780  202.9030  146.9490 C   0  0  0  0  0  2  0  0  0  0  0  0
  160.4450  201.5140  150.0200 C   0  0  0  0  0  3  0  0  0  0  0  0
  161.7850  204.6410  146.9620 P   0  0  0  0  0  0  0  0  0  0  0  0
  160.4020  202.8580  149.3410 C   0  0  1  0  0  3  0  0  0  0  0  0
  160.7480  203.9360  144.5890 O   0  0  0  0  0  1  0  0  0  0  0  0
  162.0300  205.8280  144.5570 O   0  0  0  0  0  1  0  0  0  0  0  0
  161.8770  204.5600  145.1260 C   0  0  0  0  0  3  0  0  0  0  0  0
  162.5150  205.9500  149.3470 C   0  0  0  0  0  2  0  0  0  0  0  0
  161.8760  206.8080  150.3970 C   0  0  0  0  0  0  0  0  0  0  0  0
  160.4680  209.2530  153.5500 C   0  0  0  0  0  3  0  0  0  0  0  0
  159.7040  209.4070  155.8330 O   0  0  0  0  0  1  0  0  0  0  0  0
  161.2060  208.1190  150.0490 C   0  0  0  0  0  2  0  0  0  0  0  0
  161.0720  206.5450  153.9450 C   0  0  0  0  0  3  0  0  0  0  0  0
  160.5360  207.3040  154.9900 C   0  0  0  0  0  3  0  0  0  0  0  0
  161.8470  206.3660  151.6210 N   0  0  0  0  0  0  0  0  0  0  0  0
  160.2320  208.6560  154.7920 C   0  0  0  0  0  0  0  0  0  0  0  0
  160.9880  208.4930  152.4990 C   0  0  0  0  0  0  0  0  0  0  0  0
  161.2960  207.1360  152.6980 C   0  0  0  0  0  0  0  0  0  0  0  0
  161.3260  209.1320  151.1880 C   0  0  0  0  0  2  0  0  0  0  0  0
  1 16  1  1  0  0  0
  1  4  1  0  0  0  0
  3  8  1  0  0  0  0
  4  5  1  1  0  0  0
  5  8  1  0  0  0  0
  6 11  1  0  0  0  0
  9 11  1  0  0  0  0
  9  7  1  0  0  0  0
 10  3  2  0  0  0  0
 11  2  1  0  0  0  0
 11  1  1  0  0  0  0
 12  7  1  6  0  0  0
 12  4  1  0  0  0  0
 12 10  1  0  0  0  0
 13 15  1  0  0  0  0
 14 15  1  0  0  0  0
 15 11  1  0  0  0  0
 16 17  1  0  0  0  0
 17 23  2  0  0  0  0
 18 24  1  0  0  0  0
 20 17  1  0  0  0  0
 20 27  1  0  0  0  0
 21 22  1  0  0  0  0
 23 26  1  0  0  0  0
 24 22  2  0  0  0  0
 24 19  1  0  0  0  0
 25 26  1  0  0  0  0
 25 18  2  0  0  0  0
 26 21  2  0  0  0  0
 27 25  1  0  0  0  0
M  END
>  <MODEL>
6

>  <REMARK>
 VINA RESULT:      -5.2      3.333      8.649
  Name = 
  3 active torsions:
  status: ('A' for Active; 'I' for Inactive)
    1  A    between atoms: C_1  and  C_15
    2  A    between atoms: C_2  and  C_15
    3  A    between atoms: C_20  and  P_26
                            x       y       z     vdW  Elec       q    Type
                         _______ _______ _______ _____ _____    ______ ____

>  <TORSDO>
F 3

$$$$
=
 OpenBabel11052423113D

 27 30  0  0  1  0  0  0  0  0999 V2000
  161.0330  208.6150  153.4000 C   0  0  2  0  0  3  0  0  0  0  0  0
  162.3800  209.0290  155.5630 O   0  0  0  0  0  1  0  0  0  0  0  0
  161.3930  211.5330  150.3590 C   0  0  0  0  0  3  0  0  0  0  0  0
  161.3590  209.7140  152.4740 N   0  0  1  0  0  0  0  0  0  0  0  0
  161.8830  209.2110  151.1970 C   0  0  0  0  0  2  0  0  0  0  0  0
  159.5710  207.8640  155.3110 C   0  0  0  0  0  1  0  0  0  0  0  0
  159.3250  210.8690  153.3740 C   0  0  0  0  0  2  0  0  0  0  0  0
  162.3730  210.3850  150.3430 C   0  0  0  0  0  2  0  0  0  0  0  0
  160.2170  210.9130  154.6020 C   0  0  0  0  0  2  0  0  0  0  0  0
  160.3650  211.5730  151.2190 C   0  0  0  0  0  3  0  0  0  0  0  0
  160.7520  209.2340  155.1320 P   0  0  0  0  0  0  0  0  0  0  0  0
  160.1040  210.4100  152.1410 C   0  0  1  0  0  3  0  0  0  0  0  0
  161.1050  210.8300  157.2600 O   0  0  0  0  0  1  0  0  0  0  0  0
  158.9940  209.9850  157.0280 O   0  0  0  0  0  1  0  0  0  0  0  0
  160.3570  209.7190  156.8630 C   0  0  0  0  0  3  0  0  0  0  0  0
  162.0490  207.4570  153.3730 C   0  0  0  0  0  2  0  0  0  0  0  0
  161.6060  206.2970  152.5320 C   0  0  0  0  0  0  0  0  0  0  0  0
  160.7790  202.9560  150.0720 C   0  0  0  0  0  3  0  0  0  0  0  0
  160.4890  202.0800  147.8420 O   0  0  0  0  0  1  0  0  0  0  0  0
  160.8330  205.1390  153.1250 C   0  0  0  0  0  2  0  0  0  0  0  0
  161.5470  205.4250  148.9920 C   0  0  0  0  0  3  0  0  0  0  0  0
  161.2080  204.3640  148.1460 C   0  0  0  0  0  3  0  0  0  0  0  0
  161.8420  206.3380  151.2520 N   0  0  0  0  0  0  0  0  0  0  0  0
  160.8220  203.1310  148.6850 C   0  0  0  0  0  0  0  0  0  0  0  0
  161.1030  204.0190  150.9190 C   0  0  0  0  0  0  0  0  0  0  0  0
  161.4930  205.2560  150.3780 C   0  0  0  0  0  0  0  0  0  0  0  0
  161.1450  203.8270  152.4040 C   0  0  0  0  0  2  0  0  0  0  0  0
  1 16  1  1  0  0  0
  1 11  1  0  0  0  0
  3 10  2  0  0  0  0
  4  5  1  6  0  0  0
  4  1  1  0  0  0  0
  7  9  1  0  0  0  0
  8  3  1  0  0  0  0
  8  5  1  0  0  0  0
  9 11  1  0  0  0  0
 11  6  1  0  0  0  0
 11  2  1  0  0  0  0
 11 15  1  0  0  0  0
 12 10  1  6  0  0  0
 12  4  1  0  0  0  0
 12  7  1  0  0  0  0
 15 14  1  0  0  0  0
 15 13  1  0  0  0  0
 17 20  1  0  0  0  0
 17 16  1  0  0  0  0
 18 25  1  0  0  0  0
 19 24  1  0  0  0  0
 21 26  1  0  0  0  0
 22 24  1  0  0  0  0
 22 21  2  0  0  0  0
 23 17  2  0  0  0  0
 24 18  2  0  0  0  0
 25 27  1  0  0  0  0
 26 25  2  0  0  0  0
 26 23  1  0  0  0  0
 27 20  1  0  0  0  0
M  END
>  <MODEL>
7

>  <REMARK>
 VINA RESULT:      -5.1      1.568      2.774
  Name = 
  3 active torsions:
  status: ('A' for Active; 'I' for Inactive)
    1  A    between atoms: C_1  and  C_15
    2  A    between atoms: C_2  and  C_15
    3  A    between atoms: C_20  and  P_26
                            x       y       z     vdW  Elec       q    Type
                         _______ _______ _______ _____ _____    ______ ____

>  <TORSDO>
F 3

$$$$
