=
 OpenBabel11052423093D

 27 31  0  0  1  0  0  0  0  0999 V2000
  161.2190  210.6380  153.8350 C   0  0  1  0  0  3  0  0  0  0  0  0
  161.5250  210.0030  151.5870 N   0  0  0  0  0  0  0  0  0  0  0  0
  160.8300  209.1590  153.7230 C   0  0  1  0  0  3  0  0  0  0  0  0
  161.5320  206.3030  149.7180 C   0  0  0  0  0  3  0  0  0  0  0  0
  161.1520  203.8930  149.7680 N   0  0  0  0  0  1  0  0  0  0  0  0
  161.9560  209.9710  150.1940 C   0  0  0  0  0  2  0  0  0  0  0  0
  160.8500  206.4770  152.4250 C   0  0  0  0  0  3  0  0  0  0  0  0
  161.8560  207.6780  156.9010 O   0  0  0  0  0  0  0  0  0  0  0  0
  160.8310  205.2400  151.7760 C   0  0  0  0  0  3  0  0  0  0  0  0
  159.8710  208.9410  156.4920 C   0  0  0  0  0  2  0  0  0  0  0  0
  161.2330  208.8340  152.3260 C   0  0  0  0  0  0  0  0  0  0  0  0
  161.3440  211.1910  152.3980 C   0  0  1  0  0  3  0  0  0  0  0  0
  161.1730  205.1530  150.4250 C   0  0  0  0  0  0  0  0  0  0  0  0
  161.5560  207.5490  150.3530 C   0  0  0  0  0  0  0  0  0  0  0  0
  160.3460  211.4190  154.8100 C   0  0  0  0  0  2  0  0  0  0  0  0
  161.2150  207.6380  151.7270 C   0  0  0  0  0  0  0  0  0  0  0  0
  161.1530  208.2970  156.0620 C   0  0  0  0  0  0  0  0  0  0  0  0
  161.8860  208.6050  149.6590 N   0  0  0  0  0  0  0  0  0  0  0  0
  160.0870  210.2440  157.2610 C   0  0  0  0  0  2  0  0  0  0  0  0
  161.1840  211.4510  156.4270 S   0  0  0  0  0  0  0  0  0  0  0  0
  161.5810  208.3820  154.7000 N   0  0  0  0  0  2  0  0  0  0  0  0
  157.9130  213.4290  151.0650 C   0  0  0  0  0  3  0  0  0  0  0  0
  160.1320  211.9580  151.9390 C   0  0  0  0  0  0  0  0  0  0  0  0
  160.2890  212.9680  150.9840 C   0  0  0  0  0  3  0  0  0  0  0  0
  159.1830  213.7020  150.5470 C   0  0  0  0  0  3  0  0  0  0  0  0
  157.7500  212.4220  152.0210 C   0  0  0  0  0  3  0  0  0  0  0  0
  158.8560  211.6880  152.4590 C   0  0  0  0  0  3  0  0  0  0  0  0
  1 15  1  1  0  0  0
  2 11  1  0  0  0  0
  2 12  1  0  0  0  0
  3 11  1  6  0  0  0
  3  1  1  0  0  0  0
  3 21  1  0  0  0  0
  4 14  1  0  0  0  0
  4 13  2  0  0  0  0
  5 13  1  0  0  0  0
  6  2  1  0  0  0  0
  9  7  2  0  0  0  0
 10 19  1  0  0  0  0
 12 23  1  6  0  0  0
 12  1  1  0  0  0  0
 13  9  1  0  0  0  0
 14 16  1  0  0  0  0
 15 20  1  0  0  0  0
 16 11  2  0  0  0  0
 16  7  1  0  0  0  0
 17 10  1  0  0  0  0
 17  8  2  0  0  0  0
 18  6  1  0  0  0  0
 18 14  2  0  0  0  0
 20 19  1  0  0  0  0
 21 17  1  0  0  0  0
 22 26  1  0  0  0  0
 23 27  1  0  0  0  0
 24 23  2  0  0  0  0
 25 24  1  0  0  0  0
 25 22  2  0  0  0  0
 26 27  2  0  0  0  0
M  END
>  <MODEL>
1

>  <REMARK>
 VINA RESULT:      -6.7      0.000      0.000
  Name = 
  1 active torsions:
  status: ('A' for Active; 'I' for Inactive)
    1  A    between atoms: C_9  and  C_15
                            x       y       z     vdW  Elec       q    Type
                         _______ _______ _______ _____ _____    ______ ____

>  <TORSDO>
F 1

$$$$
=
 OpenBabel11052423093D

 27 31  0  0  1  0  0  0  0  0999 V2000
  161.2720  209.7110  153.2210 C   0  0  1  0  0  3  0  0  0  0  0  0
  161.7030  209.8790  150.9120 N   0  0  0  0  0  0  0  0  0  0  0  0
  160.8320  208.3910  152.5800 C   0  0  1  0  0  3  0  0  0  0  0  0
  161.6860  207.0660  147.8680 C   0  0  0  0  0  3  0  0  0  0  0  0
  161.2070  204.8160  147.0520 N   0  0  0  0  0  1  0  0  0  0  0  0
  162.2250  210.3070  149.6180 C   0  0  0  0  0  2  0  0  0  0  0  0
  160.8310  206.3300  150.4270 C   0  0  0  0  0  3  0  0  0  0  0  0
  161.5810  205.8390  155.0840 O   0  0  0  0  0  0  0  0  0  0  0  0
  160.8060  205.4000  149.3860 C   0  0  0  0  0  3  0  0  0  0  0  0
  159.6810  207.2840  155.0470 C   0  0  0  0  0  2  0  0  0  0  0  0
  161.3150  208.5470  151.1790 C   0  0  0  0  0  0  0  0  0  0  0  0
  161.5160  210.7210  152.0780 C   0  0  1  0  0  3  0  0  0  0  0  0
  161.2340  205.7660  148.1090 C   0  0  0  0  0  0  0  0  0  0  0  0
  161.7180  208.0090  148.8990 C   0  0  0  0  0  0  0  0  0  0  0  0
  160.3680  210.1580  154.3640 C   0  0  0  0  0  2  0  0  0  0  0  0
  161.2890  207.6370  150.1990 C   0  0  0  0  0  0  0  0  0  0  0  0
  160.9620  206.7520  154.4810 C   0  0  0  0  0  0  0  0  0  0  0  0
  162.1360  209.2180  148.6360 N   0  0  0  0  0  0  0  0  0  0  0  0
  159.8970  208.2230  156.2320 C   0  0  0  0  0  2  0  0  0  0  0  0
  161.0960  209.5750  155.9290 S   0  0  0  0  0  0  0  0  0  0  0  0
  161.4840  207.2780  153.2580 N   0  0  0  0  0  2  0  0  0  0  0  0
  158.1990  213.3990  151.4660 C   0  0  0  0  0  3  0  0  0  0  0  0
  160.3700  211.6720  151.8570 C   0  0  0  0  0  0  0  0  0  0  0  0
  159.1740  211.4690  152.5550 C   0  0  0  0  0  3  0  0  0  0  0  0
  158.0910  212.3310  152.3610 C   0  0  0  0  0  3  0  0  0  0  0  0
  159.3900  213.6060  150.7640 C   0  0  0  0  0  3  0  0  0  0  0  0
  160.4730  212.7450  150.9570 C   0  0  0  0  0  3  0  0  0  0  0  0
  1 15  1  1  0  0  0
  2 11  1  0  0  0  0
  2 12  1  0  0  0  0
  3 11  1  6  0  0  0
  3  1  1  0  0  0  0
  3 21  1  0  0  0  0
  4 13  2  0  0  0  0
  4 14  1  0  0  0  0
  5 13  1  0  0  0  0
  6  2  1  0  0  0  0
  9  7  2  0  0  0  0
 10 19  1  0  0  0  0
 12 23  1  6  0  0  0
 12  1  1  0  0  0  0
 13  9  1  0  0  0  0
 14 16  1  0  0  0  0
 15 20  1  0  0  0  0
 16  7  1  0  0  0  0
 16 11  2  0  0  0  0
 17 10  1  0  0  0  0
 17  8  2  0  0  0  0
 18 14  2  0  0  0  0
 18  6  1  0  0  0  0
 20 19  1  0  0  0  0
 21 17  1  0  0  0  0
 22 25  1  0  0  0  0
 23 24  1  0  0  0  0
 25 24  2  0  0  0  0
 26 27  1  0  0  0  0
 26 22  2  0  0  0  0
 27 23  2  0  0  0  0
M  END
>  <MODEL>
2

>  <REMARK>
 VINA RESULT:      -5.9      1.365      1.874
  Name = 
  1 active torsions:
  status: ('A' for Active; 'I' for Inactive)
    1  A    between atoms: C_9  and  C_15
                            x       y       z     vdW  Elec       q    Type
                         _______ _______ _______ _____ _____    ______ ____

>  <TORSDO>
F 1

$$$$
=
 OpenBabel11052423093D

 27 31  0  0  1  0  0  0  0  0999 V2000
  158.9950  210.9420  154.1890 C   0  0  1  0  0  3  0  0  0  0  0  0
  160.5700  209.8700  152.8030 N   0  0  0  0  0  0  0  0  0  0  0  0
  159.4370  211.9600  153.1320 C   0  0  1  0  0  3  0  0  0  0  0  0
  162.2700  210.9430  149.1780 C   0  0  0  0  0  3  0  0  0  0  0  0
  162.6500  212.5790  147.4070 N   0  0  0  0  0  1  0  0  0  0  0  0
  161.3660  208.8540  152.1240 C   0  0  0  0  0  2  0  0  0  0  0  0
  160.6170  212.7600  150.5150 C   0  0  0  0  0  3  0  0  0  0  0  0
  156.4550  213.9560  152.4490 O   0  0  0  0  0  0  0  0  0  0  0  0
  161.2170  213.1180  149.3060 C   0  0  0  0  0  3  0  0  0  0  0  0
  157.9420  214.2030  154.3010 C   0  0  0  0  0  2  0  0  0  0  0  0
  160.2750  211.1260  152.2250 C   0  0  0  0  0  0  0  0  0  0  0  0
  159.9770  209.7510  154.1210 C   0  0  1  0  0  3  0  0  0  0  0  0
  162.0410  212.2110  148.6380 C   0  0  0  0  0  0  0  0  0  0  0  0
  161.6760  210.5690  150.3880 C   0  0  0  0  0  0  0  0  0  0  0  0
  158.7470  211.5630  155.5580 C   0  0  0  0  0  2  0  0  0  0  0  0
  160.8340  211.4880  151.0640 C   0  0  0  0  0  0  0  0  0  0  0  0
  157.5020  213.5590  153.0230 C   0  0  0  0  0  0  0  0  0  0  0  0
  161.9210  209.3800  150.8700 N   0  0  0  0  0  0  0  0  0  0  0  0
  157.1200  213.7550  155.5090 C   0  0  0  0  0  2  0  0  0  0  0  0
  156.9710  211.9390  155.7020 S   0  0  0  0  0  0  0  0  0  0  0  0
  158.2670  212.4950  152.4500 N   0  0  0  0  0  2  0  0  0  0  0  0
  162.9970  209.8290  157.1910 C   0  0  0  0  0  3  0  0  0  0  0  0
  161.0460  209.7870  155.1810 C   0  0  0  0  0  0  0  0  0  0  0  0
  160.9660  208.8980  156.2570 C   0  0  0  0  0  3  0  0  0  0  0  0
  161.9390  208.9170  157.2600 C   0  0  0  0  0  3  0  0  0  0  0  0
  163.0810  210.7220  156.1190 C   0  0  0  0  0  3  0  0  0  0  0  0
  162.1090  210.7030  155.1160 C   0  0  0  0  0  3  0  0  0  0  0  0
  1 15  1  1  0  0  0
  2 12  1  0  0  0  0
  3 11  1  6  0  0  0
  3  1  1  0  0  0  0
  4 14  1  0  0  0  0
  5 13  1  0  0  0  0
  6  2  1  0  0  0  0
  7 16  1  0  0  0  0
  8 17  2  0  0  0  0
  9  7  2  0  0  0  0
 10 19  1  0  0  0  0
 11  2  1  0  0  0  0
 12  1  1  0  0  0  0
 12 23  1  1  0  0  0
 13  4  2  0  0  0  0
 13  9  1  0  0  0  0
 14 18  2  0  0  0  0
 14 16  1  0  0  0  0
 15 20  1  0  0  0  0
 16 11  2  0  0  0  0
 17 10  1  0  0  0  0
 18  6  1  0  0  0  0
 19 20  1  0  0  0  0
 21 17  1  0  0  0  0
 21  3  1  0  0  0  0
 22 25  1  0  0  0  0
 23 24  1  0  0  0  0
 24 25  2  0  0  0  0
 26 22  2  0  0  0  0
 27 23  2  0  0  0  0
 27 26  1  0  0  0  0
M  END
>  <MODEL>
3

>  <REMARK>
 VINA RESULT:      -5.8      2.907      5.666
  Name = 
  1 active torsions:
  status: ('A' for Active; 'I' for Inactive)
    1  A    between atoms: C_9  and  C_15
                            x       y       z     vdW  Elec       q    Type
                         _______ _______ _______ _____ _____    ______ ____

>  <TORSDO>
F 1

$$$$
=
 OpenBabel11052423093D

 27 31  0  0  1  0  0  0  0  0999 V2000
  161.9340  210.3870  150.5870 C   0  0  1  0  0  3  0  0  0  0  0  0
  161.4060  209.5320  152.7170 N   0  0  0  0  0  0  0  0  0  0  0  0
  160.6380  211.0670  151.0400 C   0  0  1  0  0  3  0  0  0  0  0  0
  158.6430  210.7030  155.5770 C   0  0  0  0  0  3  0  0  0  0  0  0
  156.7460  212.0760  156.2670 N   0  0  0  0  0  1  0  0  0  0  0  0
  161.4960  208.8870  154.0220 C   0  0  0  0  0  2  0  0  0  0  0  0
  158.6540  211.9580  153.0770 C   0  0  0  0  0  3  0  0  0  0  0  0
  160.8320  214.4530  149.6830 O   0  0  0  0  0  0  0  0  0  0  0  0
  157.7120  212.3250  154.0410 C   0  0  0  0  0  3  0  0  0  0  0  0
  160.1920  212.4790  148.5020 C   0  0  0  0  0  2  0  0  0  0  0  0
  160.5100  210.5910  152.4460 C   0  0  0  0  0  0  0  0  0  0  0  0
  162.1930  209.2030  151.5450 C   0  0  1  0  0  3  0  0  0  0  0  0
  157.7070  211.7000  155.2890 C   0  0  0  0  0  0  0  0  0  0  0  0
  159.5930  210.3250  154.6230 C   0  0  0  0  0  0  0  0  0  0  0  0
  161.9710  210.0940  149.0910 C   0  0  0  0  0  2  0  0  0  0  0  0
  159.6030  210.9640  153.3570 C   0  0  0  0  0  0  0  0  0  0  0  0
  160.6220  213.2140  149.7340 C   0  0  0  0  0  0  0  0  0  0  0  0
  160.4460  209.3820  154.9210 N   0  0  0  0  0  0  0  0  0  0  0  0
  161.3380  212.2370  147.5210 C   0  0  0  0  0  2  0  0  0  0  0  0
  162.8280  211.4690  148.2610 S   0  0  0  0  0  0  0  0  0  0  0  0
  160.7950  212.5140  150.9690 N   0  0  0  0  0  2  0  0  0  0  0  0
  161.0190  205.3630  149.9880 C   0  0  0  0  0  3  0  0  0  0  0  0
  161.7700  207.8710  150.9870 C   0  0  0  0  0  0  0  0  0  0  0  0
  161.9570  206.7200  151.7610 C   0  0  0  0  0  3  0  0  0  0  0  0
  161.5810  205.4690  151.2640 C   0  0  0  0  0  3  0  0  0  0  0  0
  160.8310  206.5080  149.2090 C   0  0  0  0  0  3  0  0  0  0  0  0
  161.2060  207.7600  149.7050 C   0  0  0  0  0  3  0  0  0  0  0  0
  1 15  1  6  0  0  0
  1  3  1  0  0  0  0
  1 12  1  0  0  0  0
  2  6  1  0  0  0  0
  3 21  1  1  0  0  0
  3 11  1  0  0  0  0
  6 18  1  0  0  0  0
  7 16  1  0  0  0  0
  7  9  2  0  0  0  0
  8 17  2  0  0  0  0
  9 13  1  0  0  0  0
 10 17  1  0  0  0  0
 11  2  1  0  0  0  0
 11 16  2  0  0  0  0
 12 23  1  6  0  0  0
 12  2  1  0  0  0  0
 13  4  2  0  0  0  0
 13  5  1  0  0  0  0
 14 18  2  0  0  0  0
 14  4  1  0  0  0  0
 16 14  1  0  0  0  0
 17 21  1  0  0  0  0
 19 20  1  0  0  0  0
 19 10  1  0  0  0  0
 20 15  1  0  0  0  0
 22 25  1  0  0  0  0
 23 24  1  0  0  0  0
 25 24  2  0  0  0  0
 26 27  1  0  0  0  0
 26 22  2  0  0  0  0
 27 23  2  0  0  0  0
M  END
>  <MODEL>
4

>  <REMARK>
 VINA RESULT:      -5.4      3.165      6.849
  Name = 
  1 active torsions:
  status: ('A' for Active; 'I' for Inactive)
    1  A    between atoms: C_9  and  C_15
                            x       y       z     vdW  Elec       q    Type
                         _______ _______ _______ _____ _____    ______ ____

>  <TORSDO>
F 1

$$$$
=
 OpenBabel11052423093D

 27 31  0  0  1  0  0  0  0  0999 V2000
  159.4580  213.0140  152.7050 C   0  0  1  0  0  3  0  0  0  0  0  0
  160.8020  211.9260  151.1060 N   0  0  0  0  0  0  0  0  0  0  0  0
  159.4160  211.5150  153.0210 C   0  0  1  0  0  3  0  0  0  0  0  0
  162.2490  208.0490  150.8620 C   0  0  0  0  0  3  0  0  0  0  0  0
  162.3080  205.7450  151.6650 N   0  0  0  0  0  1  0  0  0  0  0  0
  161.7860  211.6560  150.0630 C   0  0  0  0  0  2  0  0  0  0  0  0
  160.4540  208.7240  152.8980 C   0  0  0  0  0  3  0  0  0  0  0  0
  159.2210  211.3310  156.6640 O   0  0  0  0  0  0  0  0  0  0  0  0
  160.9290  207.4160  152.7890 C   0  0  0  0  0  3  0  0  0  0  0  0
  157.4170  211.7630  155.1600 C   0  0  0  0  0  2  0  0  0  0  0  0
  160.4280  210.9680  152.0740 C   0  0  0  0  0  0  0  0  0  0  0  0
  160.0880  213.1730  151.3030 C   0  0  1  0  0  3  0  0  0  0  0  0
  161.8260  207.0790  151.7740 C   0  0  0  0  0  0  0  0  0  0  0  0
  161.7820  209.3640  150.9580 C   0  0  0  0  0  0  0  0  0  0  0  0
  158.1310  213.7210  152.9570 C   0  0  0  0  0  2  0  0  0  0  0  0
  160.8760  209.7090  151.9930 C   0  0  0  0  0  0  0  0  0  0  0  0
  158.8500  211.4540  155.4680 C   0  0  0  0  0  0  0  0  0  0  0  0
  162.1890  210.2440  150.0820 N   0  0  0  0  0  0  0  0  0  0  0  0
  157.0540  213.2250  155.4160 C   0  0  0  0  0  2  0  0  0  0  0  0
  158.1750  214.4410  154.6280 S   0  0  0  0  0  0  0  0  0  0  0  0
  159.7990  211.2980  154.4100 N   0  0  0  0  0  2  0  0  0  0  0  0
  157.2310  213.8000  148.1420 C   0  0  0  0  0  3  0  0  0  0  0  0
  159.0770  213.3770  150.2060 C   0  0  0  0  0  0  0  0  0  0  0  0
  159.4730  214.0220  149.0300 C   0  0  0  0  0  3  0  0  0  0  0  0
  158.5520  214.2330  147.9990 C   0  0  0  0  0  3  0  0  0  0  0  0
  156.8290  213.1560  149.3150 C   0  0  0  0  0  3  0  0  0  0  0  0
  157.7480  212.9450  150.3460 C   0  0  0  0  0  3  0  0  0  0  0  0
  1 15  1  6  0  0  0
  1  3  1  0  0  0  0
  2 12  1  0  0  0  0
  2 11  1  0  0  0  0
  3 11  1  6  0  0  0
  3 21  1  0  0  0  0
  4 14  1  0  0  0  0
  4 13  2  0  0  0  0
  5 13  1  0  0  0  0
  6 18  1  0  0  0  0
  6  2  1  0  0  0  0
  9  7  2  0  0  0  0
 10 19  1  0  0  0  0
 10 17  1  0  0  0  0
 12 23  1  6  0  0  0
 12  1  1  0  0  0  0
 13  9  1  0  0  0  0
 14 16  1  0  0  0  0
 15 20  1  0  0  0  0
 16 11  2  0  0  0  0
 16  7  1  0  0  0  0
 17  8  2  0  0  0  0
 18 14  2  0  0  0  0
 20 19  1  0  0  0  0
 21 17  1  0  0  0  0
 22 26  1  0  0  0  0
 23 27  1  0  0  0  0
 24 23  2  0  0  0  0
 25 22  2  0  0  0  0
 25 24  1  0  0  0  0
 26 27  2  0  0  0  0
M  END
>  <MODEL>
5

>  <REMARK>
 VINA RESULT:      -5.4      2.215      2.999
  Name = 
  1 active torsions:
  status: ('A' for Active; 'I' for Inactive)
    1  A    between atoms: C_9  and  C_15
                            x       y       z     vdW  Elec       q    Type
                         _______ _______ _______ _____ _____    ______ ____

>  <TORSDO>
F 1

$$$$
=
 OpenBabel11052423093D

 27 31  0  0  1  0  0  0  0  0999 V2000
  160.3480  211.8380  153.6670 C   0  0  1  0  0  3  0  0  0  0  0  0
  160.8290  211.9130  151.3630 N   0  0  0  0  0  0  0  0  0  0  0  0
  160.4270  210.3900  153.1720 C   0  0  1  0  0  3  0  0  0  0  0  0
  161.9580  208.9800  148.6600 C   0  0  0  0  0  3  0  0  0  0  0  0
  162.3290  206.6340  148.0960 N   0  0  0  0  0  1  0  0  0  0  0  0
  161.2470  212.3640  150.0400 C   0  0  0  0  0  2  0  0  0  0  0  0
  161.2590  208.2530  151.2690 C   0  0  0  0  0  3  0  0  0  0  0  0
  161.8590  208.5220  155.9650 O   0  0  0  0  0  0  0  0  0  0  0  0
  161.6160  207.2730  150.3410 C   0  0  0  0  0  3  0  0  0  0  0  0
  159.5830  209.2040  155.7250 C   0  0  0  0  0  2  0  0  0  0  0  0
  160.9070  210.5630  151.7730 C   0  0  0  0  0  0  0  0  0  0  0  0
  160.2960  212.7490  152.4210 C   0  0  1  0  0  3  0  0  0  0  0  0
  161.9660  207.6350  149.0390 C   0  0  0  0  0  0  0  0  0  0  0  0
  161.6030  209.9740  149.5780 C   0  0  0  0  0  0  0  0  0  0  0  0
  159.2800  212.0540  154.7340 C   0  0  0  0  0  2  0  0  0  0  0  0
  161.2530  209.6070  150.9020 C   0  0  0  0  0  0  0  0  0  0  0  0
  161.0000  209.0980  155.2500 C   0  0  0  0  0  0  0  0  0  0  0  0
  161.5950  211.2200  149.1860 N   0  0  0  0  0  0  0  0  0  0  0  0
  159.3940  210.2730  156.8000 C   0  0  0  0  0  2  0  0  0  0  0  0
  160.0700  211.9200  156.3690 S   0  0  0  0  0  0  0  0  0  0  0  0
  161.3800  209.6470  153.9850 N   0  0  0  0  0  2  0  0  0  0  0  0
  156.3390  214.0790  151.3580 C   0  0  0  0  0  3  0  0  0  0  0  0
  158.9080  213.2150  152.0700 C   0  0  0  0  0  0  0  0  0  0  0  0
  158.4080  212.9550  150.7900 C   0  0  0  0  0  3  0  0  0  0  0  0
  157.1260  213.3850  150.4340 C   0  0  0  0  0  3  0  0  0  0  0  0
  156.8340  214.3430  152.6380 C   0  0  0  0  0  3  0  0  0  0  0  0
  158.1150  213.9140  152.9950 C   0  0  0  0  0  3  0  0  0  0  0  0
  1 15  1  1  0  0  0
  2 11  1  0  0  0  0
  2 12  1  0  0  0  0
  3 11  1  6  0  0  0
  3  1  1  0  0  0  0
  3 21  1  0  0  0  0
  4 13  2  0  0  0  0
  4 14  1  0  0  0  0
  5 13  1  0  0  0  0
  6  2  1  0  0  0  0
  9  7  2  0  0  0  0
 10 19  1  0  0  0  0
 12 23  1  6  0  0  0
 12  1  1  0  0  0  0
 13  9  1  0  0  0  0
 14 16  1  0  0  0  0
 15 20  1  0  0  0  0
 16  7  1  0  0  0  0
 16 11  2  0  0  0  0
 17 10  1  0  0  0  0
 17  8  2  0  0  0  0
 18 14  2  0  0  0  0
 18  6  1  0  0  0  0
 20 19  1  0  0  0  0
 21 17  1  0  0  0  0
 22 26  1  0  0  0  0
 23 27  1  0  0  0  0
 24 23  2  0  0  0  0
 25 24  1  0  0  0  0
 25 22  2  0  0  0  0
 26 27  2  0  0  0  0
M  END
>  <MODEL>
6

>  <REMARK>
 VINA RESULT:      -3.7      1.555      2.058
  Name = 
  1 active torsions:
  status: ('A' for Active; 'I' for Inactive)
    1  A    between atoms: C_9  and  C_15
                            x       y       z     vdW  Elec       q    Type
                         _______ _______ _______ _____ _____    ______ ____

>  <TORSDO>
F 1

$$$$
