=
 OpenBabel11062409433D

 34 39  0  0  1  0  0  0  0  0999 V2000
  161.7690  204.5860  148.1710 C   0  0  0  0  0  0  0  0  0  0  0  0
  160.3600  203.6810  145.3720 C   0  0  0  0  0  2  0  0  0  0  0  0
  161.7750  202.0700  146.6910 C   0  0  0  0  0  2  0  0  0  0  0  0
  160.7390  204.6740  150.7520 N   0  0  0  0  0  0  0  0  0  0  0  0
  161.8330  205.7620  148.9320 C   0  0  0  0  0  3  0  0  0  0  0  0
  160.6790  203.5070  150.0600 C   0  0  0  0  0  0  0  0  0  0  0  0
  160.0520  201.1710  149.9440 C   0  0  0  0  0  3  0  0  0  0  0  0
  160.1000  202.3790  150.6460 C   0  0  0  0  0  3  0  0  0  0  0  0
  161.3050  205.7980  150.2290 C   0  0  0  0  0  0  0  0  0  0  0  0
  161.1550  202.2090  148.0500 C   0  0  0  0  0  0  0  0  0  0  0  0
  161.2090  203.4310  148.7520 C   0  0  0  0  0  0  0  0  0  0  0  0
  160.5850  201.0860  148.6550 C   0  0  0  0  0  3  0  0  0  0  0  0
  160.2660  204.9420  144.5050 C   0  0  0  0  0  2  0  0  0  0  0  0
  161.5520  205.2240  143.7200 C   0  0  2  0  0  3  0  0  0  0  0  0
  162.6770  205.8330  144.5830 C   0  0  0  0  0  2  0  0  0  0  0  0
  161.7640  203.3940  145.9270 C   0  0  2  0  0  3  0  0  0  0  0  0
  162.3640  205.9040  146.0820 C   0  0  0  0  0  2  0  0  0  0  0  0
  162.3710  204.5320  146.7800 C   0  0  1  0  0  3  0  0  0  0  0  0
  161.8150  209.4410  151.2000 C   0  0  0  0  0  3  0  0  0  0  0  0
  160.9920  207.0110  152.3920 C   0  0  0  0  0  3  0  0  0  0  0  0
  160.8760  209.6490  154.9490 C   0  0  0  0  0  0  0  0  0  0  0  0
  161.4150  210.6140  153.6670 S   0  0  0  0  0  0  0  0  0  0  0  0
  161.4500  209.3730  152.5410 C   0  0  0  0  0  0  0  0  0  0  0  0
  160.7180  208.3290  154.4940 C   0  0  0  0  0  0  0  0  0  0  0  0
  161.0440  208.1900  153.1380 C   0  0  0  0  0  0  0  0  0  0  0  0
  160.1750  206.9810  155.4870 Cl  0  0  0  0  0  0  0  0  0  0  0  0
  161.3550  207.0390  151.0300 C   0  0  0  0  0  0  0  0  0  0  0  0
  161.7650  208.2600  150.4460 C   0  0  0  0  0  3  0  0  0  0  0  0
  160.6260  210.1600  156.3070 C   0  0  0  0  0  0  0  0  0  0  0  0
  159.4560  210.3880  156.7080 O   0  0  0  0  0  0  0  0  0  0  0  0
  161.6950  210.3940  157.1630 O   0  0  0  0  0  1  0  0  0  0  0  0
  161.2340  206.1480  142.5580 C   0  0  0  0  0  2  0  0  0  0  0  0
  162.3670  206.1400  141.5490 C   0  0  0  0  0  2  0  0  0  0  0  0
  161.9930  207.0050  140.3640 C   0  0  0  0  0  1  0  0  0  0  0  0
  1 11  2  0  0  0  0
  1  5  1  0  0  0  0
  3 10  1  0  0  0  0
  5  9  2  0  0  0  0
  6  8  1  0  0  0  0
  6  4  2  0  0  0  0
  7  8  2  0  0  0  0
  9  4  1  0  0  0  0
  9 27  1  0  0  0  0
 10 12  2  0  0  0  0
 10 11  1  0  0  0  0
 11  6  1  0  0  0  0
 12  7  1  0  0  0  0
 13  2  1  0  0  0  0
 14 32  1  6  0  0  0
 14 13  1  0  0  0  0
 14 15  1  0  0  0  0
 15 17  1  0  0  0  0
 16  2  1  1  0  0  0
 16  3  1  0  0  0  0
 16 18  1  0  0  0  0
 18 17  1  6  0  0  0
 18  1  1  0  0  0  0
 19 23  1  0  0  0  0
 20 25  1  0  0  0  0
 21 29  1  0  0  0  0
 22 21  1  0  0  0  0
 23 25  2  0  0  0  0
 23 22  1  0  0  0  0
 24 21  2  0  0  0  0
 24 26  1  0  0  0  0
 25 24  1  0  0  0  0
 27 20  2  0  0  0  0
 28 27  1  0  0  0  0
 28 19  2  0  0  0  0
 29 30  2  0  0  0  0
 29 31  1  0  0  0  0
 33 32  1  0  0  0  0
 34 33  1  0  0  0  0
M  END
>  <MODEL>
1

>  <REMARK>
 VINA RESULT:      -7.6      0.000      0.000
  Name = 
  4 active torsions:
  status: ('A' for Active; 'I' for Inactive)
    1  A    between atoms: C_3  and  C_13
    2  A    between atoms: C_3  and  C_25
    3  A    between atoms: C_7  and  C_11
    4  A    between atoms: C_18  and  C_30
                            x       y       z     vdW  Elec       q    Type
                         _______ _______ _______ _____ _____    ______ ____

>  <TORSDO>
F 4

$$$$
=
 OpenBabel11062409433D

 34 39  0  0  1  0  0  0  0  0999 V2000
  161.2320  208.9590  151.6900 C   0  0  0  0  0  0  0  0  0  0  0  0
  159.2510  211.3720  152.6350 C   0  0  0  0  0  2  0  0  0  0  0  0
  161.6450  211.8310  152.0060 C   0  0  0  0  0  2  0  0  0  0  0  0
  161.5570  207.7790  149.1930 N   0  0  0  0  0  0  0  0  0  0  0  0
  161.1230  207.5710  151.5300 C   0  0  0  0  0  3  0  0  0  0  0  0
  161.6960  209.1240  149.3070 C   0  0  0  0  0  0  0  0  0  0  0  0
  162.1550  211.2750  148.2920 C   0  0  0  0  0  3  0  0  0  0  0  0
  161.9920  209.8910  148.1770 C   0  0  0  0  0  3  0  0  0  0  0  0
  161.2810  206.9860  150.2670 C   0  0  0  0  0  0  0  0  0  0  0  0
  161.7150  211.1440  150.6740 C   0  0  0  0  0  0  0  0  0  0  0  0
  161.5520  209.7480  150.5660 C   0  0  0  0  0  0  0  0  0  0  0  0
  162.0240  211.8970  149.5370 C   0  0  0  0  0  3  0  0  0  0  0  0
  158.2450  210.7500  153.6110 C   0  0  0  0  0  2  0  0  0  0  0  0
  158.7740  210.6760  155.0470 C   0  0  2  0  0  3  0  0  0  0  0  0
  159.7840  209.5310  155.2710 C   0  0  0  0  0  2  0  0  0  0  0  0
  160.7230  211.0910  152.9740 C   0  0  2  0  0  3  0  0  0  0  0  0
  160.1870  208.7780  153.9980 C   0  0  0  0  0  2  0  0  0  0  0  0
  161.0960  209.5940  153.0610 C   0  0  1  0  0  3  0  0  0  0  0  0
  160.8110  203.2910  151.0420 C   0  0  0  0  0  3  0  0  0  0  0  0
  161.2450  204.9610  148.8020 C   0  0  0  0  0  3  0  0  0  0  0  0
  161.0270  201.4860  147.6250 C   0  0  0  0  0  0  0  0  0  0  0  0
  160.8010  201.1720  149.2730 S   0  0  0  0  0  0  0  0  0  0  0  0
  160.9090  202.7730  149.7550 C   0  0  0  0  0  0  0  0  0  0  0  0
  161.1900  202.8690  147.4410 C   0  0  0  0  0  0  0  0  0  0  0  0
  161.1220  203.5790  148.6480 C   0  0  0  0  0  0  0  0  0  0  0  0
  161.4540  203.6520  145.8880 Cl  0  0  0  0  0  0  0  0  0  0  0  0
  161.1520  205.5240  150.0900 C   0  0  0  0  0  0  0  0  0  0  0  0
  160.9340  204.6780  151.2030 C   0  0  0  0  0  3  0  0  0  0  0  0
  161.0410  200.4400  146.5890 C   0  0  0  0  0  0  0  0  0  0  0  0
  161.6270  199.3440  146.7830 O   0  0  0  0  0  1  0  0  0  0  0  0
  160.3990  200.6610  145.3770 O   0  0  0  0  0  0  0  0  0  0  0  0
  157.6040  210.5280  156.0030 C   0  0  0  0  0  2  0  0  0  0  0  0
  156.3650  211.1920  155.4300 C   0  0  0  0  0  2  0  0  0  0  0  0
  155.2310  210.1900  155.3880 C   0  0  0  0  0  1  0  0  0  0  0  0
  1 18  1  0  0  0  0
  2 16  1  0  0  0  0
  2 13  1  0  0  0  0
  4  6  2  0  0  0  0
  4  9  1  0  0  0  0
  5  1  1  0  0  0  0
  6 11  1  0  0  0  0
  7 12  1  0  0  0  0
  8  7  2  0  0  0  0
  8  6  1  0  0  0  0
  9  5  2  0  0  0  0
 10  3  1  0  0  0  0
 11 10  1  0  0  0  0
 11  1  2  0  0  0  0
 12 10  2  0  0  0  0
 13 14  1  0  0  0  0
 14 15  1  0  0  0  0
 14 32  1  1  0  0  0
 16  3  1  6  0  0  0
 16 18  1  0  0  0  0
 17 15  1  0  0  0  0
 18 17  1  1  0  0  0
 19 28  1  0  0  0  0
 20 27  1  0  0  0  0
 21 22  1  0  0  0  0
 22 23  1  0  0  0  0
 23 19  2  0  0  0  0
 24 21  2  0  0  0  0
 24 25  1  0  0  0  0
 25 20  2  0  0  0  0
 25 23  1  0  0  0  0
 26 24  1  0  0  0  0
 27  9  1  0  0  0  0
 27 28  2  0  0  0  0
 29 30  1  0  0  0  0
 29 21  1  0  0  0  0
 31 29  2  0  0  0  0
 33 32  1  0  0  0  0
 34 33  1  0  0  0  0
M  END
>  <MODEL>
2

>  <REMARK>
 VINA RESULT:      -6.9      5.220     10.008
  Name = 
  4 active torsions:
  status: ('A' for Active; 'I' for Inactive)
    1  A    between atoms: C_3  and  C_13
    2  A    between atoms: C_3  and  C_25
    3  A    between atoms: C_7  and  C_11
    4  A    between atoms: C_18  and  C_30
                            x       y       z     vdW  Elec       q    Type
                         _______ _______ _______ _____ _____    ______ ____

>  <TORSDO>
F 4

$$$$
=
 OpenBabel11062409433D

 34 39  0  0  1  0  0  0  0  0999 V2000
  160.7080  211.6610  151.0870 C   0  0  0  0  0  0  0  0  0  0  0  0
  158.4940  213.8870  150.2030 C   0  0  0  0  0  2  0  0  0  0  0  0
  160.9460  214.4530  150.2710 C   0  0  0  0  0  2  0  0  0  0  0  0
  161.9460  209.6700  149.5930 N   0  0  0  0  0  0  0  0  0  0  0  0
  160.6790  210.3240  151.5060 C   0  0  0  0  0  3  0  0  0  0  0  0
  162.0200  210.9560  149.1640 C   0  0  0  0  0  0  0  0  0  0  0  0
  162.8010  212.5820  147.5480 C   0  0  0  0  0  3  0  0  0  0  0  0
  162.7050  211.2570  147.9840 C   0  0  0  0  0  3  0  0  0  0  0  0
  161.3000  209.3260  150.7430 C   0  0  0  0  0  0  0  0  0  0  0  0
  161.5120  213.3220  149.4640 C   0  0  0  0  0  0  0  0  0  0  0  0
  161.4130  211.9880  149.9120 C   0  0  0  0  0  0  0  0  0  0  0  0
  162.2120  213.6100  148.2890 C   0  0  0  0  0  3  0  0  0  0  0  0
  157.2040  213.5400  150.9560 C   0  0  0  0  0  2  0  0  0  0  0  0
  157.1650  214.1220  152.3730 C   0  0  2  0  0  3  0  0  0  0  0  0
  158.0310  213.3400  153.3830 C   0  0  0  0  0  2  0  0  0  0  0  0
  159.7390  214.0100  151.0960 C   0  0  2  0  0  3  0  0  0  0  0  0
  158.8840  212.2270  152.7630 C   0  0  0  0  0  2  0  0  0  0  0  0
  160.0680  212.7490  151.9280 C   0  0  1  0  0  3  0  0  0  0  0  0
  161.3470  206.2280  152.9510 C   0  0  0  0  0  3  0  0  0  0  0  0
  161.0950  206.8920  150.2130 C   0  0  0  0  0  3  0  0  0  0  0  0
  160.9070  203.2350  150.5360 C   0  0  0  0  0  0  0  0  0  0  0  0
  161.1040  203.5890  152.1800 S   0  0  0  0  0  0  0  0  0  0  0  0
  161.1830  205.2500  151.9750 C   0  0  0  0  0  0  0  0  0  0  0  0
  160.9020  204.4360  149.8070 C   0  0  0  0  0  0  0  0  0  0  0  0
  161.0590  205.5600  150.6300 C   0  0  0  0  0  0  0  0  0  0  0  0
  160.7230  204.5520  148.0600 Cl  0  0  0  0  0  0  0  0  0  0  0  0
  161.2590  207.9120  151.1710 C   0  0  0  0  0  0  0  0  0  0  0  0
  161.3840  207.5670  152.5380 C   0  0  0  0  0  3  0  0  0  0  0  0
  160.7670  201.8690  150.0050 C   0  0  0  0  0  0  0  0  0  0  0  0
  161.5450  200.9500  150.3700 O   0  0  0  0  0  1  0  0  0  0  0  0
  159.7630  201.5850  149.0880 O   0  0  0  0  0  0  0  0  0  0  0  0
  155.7250  214.1680  152.8530 C   0  0  0  0  0  2  0  0  0  0  0  0
  155.5970  213.4980  154.2080 C   0  0  0  0  0  2  0  0  0  0  0  0
  154.9250  214.4480  155.1780 C   0  0  0  0  0  1  0  0  0  0  0  0
  1  5  1  0  0  0  0
  1 18  1  0  0  0  0
  2 13  1  0  0  0  0
  3 16  1  0  0  0  0
  4  9  1  0  0  0  0
  6  4  2  0  0  0  0
  6 11  1  0  0  0  0
  7  8  2  0  0  0  0
  7 12  1  0  0  0  0
  8  6  1  0  0  0  0
  9 27  1  0  0  0  0
  9  5  2  0  0  0  0
 10 11  1  0  0  0  0
 10  3  1  0  0  0  0
 11  1  2  0  0  0  0
 12 10  2  0  0  0  0
 13 14  1  0  0  0  0
 14 32  1  1  0  0  0
 14 15  1  0  0  0  0
 16  2  1  6  0  0  0
 16 18  1  0  0  0  0
 17 15  1  0  0  0  0
 18 17  1  6  0  0  0
 20 25  2  0  0  0  0
 20 27  1  0  0  0  0
 21 22  1  0  0  0  0
 23 22  1  0  0  0  0
 23 19  2  0  0  0  0
 24 21  2  0  0  0  0
 24 25  1  0  0  0  0
 25 23  1  0  0  0  0
 26 24  1  0  0  0  0
 27 28  2  0  0  0  0
 28 19  1  0  0  0  0
 29 30  1  0  0  0  0
 29 21  1  0  0  0  0
 31 29  2  0  0  0  0
 32 33  1  0  0  0  0
 33 34  1  0  0  0  0
M  END
>  <MODEL>
3

>  <REMARK>
 VINA RESULT:      -6.6      5.100      9.873
  Name = 
  4 active torsions:
  status: ('A' for Active; 'I' for Inactive)
    1  A    between atoms: C_3  and  C_13
    2  A    between atoms: C_3  and  C_25
    3  A    between atoms: C_7  and  C_11
    4  A    between atoms: C_18  and  C_30
                            x       y       z     vdW  Elec       q    Type
                         _______ _______ _______ _____ _____    ______ ____

>  <TORSDO>
F 4

$$$$
=
 OpenBabel11062409433D

 34 39  0  0  1  0  0  0  0  0999 V2000
  161.6310  210.2570  151.5410 C   0  0  0  0  0  0  0  0  0  0  0  0
  160.3880  207.6060  152.9780 C   0  0  0  0  0  2  0  0  0  0  0  0
  161.4190  209.4560  154.3400 C   0  0  0  0  0  2  0  0  0  0  0  0
  160.3750  212.5780  150.6650 N   0  0  0  0  0  0  0  0  0  0  0  0
  161.7890  210.7080  150.2230 C   0  0  0  0  0  3  0  0  0  0  0  0
  160.2160  212.1930  151.9570 C   0  0  0  0  0  0  0  0  0  0  0  0
  159.2730  212.5730  154.1550 C   0  0  0  0  0  3  0  0  0  0  0  0
  159.4250  212.9560  152.8190 C   0  0  0  0  0  3  0  0  0  0  0  0
  161.1460  211.8750  149.7890 C   0  0  0  0  0  0  0  0  0  0  0  0
  160.6950  210.6450  153.7800 C   0  0  0  0  0  0  0  0  0  0  0  0
  160.8550  211.0260  152.4320 C   0  0  0  0  0  0  0  0  0  0  0  0
  159.9110  211.4260  154.6340 C   0  0  0  0  0  3  0  0  0  0  0  0
  160.5630  206.4510  151.9850 C   0  0  0  0  0  2  0  0  0  0  0  0
  161.9470  205.7980  152.0670 C   0  0  2  0  0  3  0  0  0  0  0  0
  163.0580  206.6260  151.3870 C   0  0  0  0  0  2  0  0  0  0  0  0
  161.6740  208.3960  153.2690 C   0  0  2  0  0  3  0  0  0  0  0  0
  162.6120  208.0060  150.8920 C   0  0  0  0  0  2  0  0  0  0  0  0
  162.3530  209.0140  152.0260 C   0  0  1  0  0  3  0  0  0  0  0  0
  162.7100  213.1830  146.5770 C   0  0  0  0  0  3  0  0  0  0  0  0
  160.1700  212.4100  147.5510 C   0  0  0  0  0  3  0  0  0  0  0  0
  159.7930  213.4580  144.0480 C   0  0  0  0  0  0  0  0  0  0  0  0
  161.4600  213.7210  144.1750 S   0  0  0  0  0  0  0  0  0  0  0  0
  161.5760  213.2330  145.7740 C   0  0  0  0  0  0  0  0  0  0  0  0
  159.3110  212.9790  145.2770 C   0  0  0  0  0  0  0  0  0  0  0  0
  160.3250  212.8570  146.2370 C   0  0  0  0  0  0  0  0  0  0  0  0
  157.6310  212.5680  145.6070 Cl  0  0  0  0  0  0  0  0  0  0  0  0
  161.2960  212.3450  148.3960 C   0  0  0  0  0  0  0  0  0  0  0  0
  162.5610  212.7350  147.8970 C   0  0  0  0  0  3  0  0  0  0  0  0
  159.0180  213.7080  142.8220 C   0  0  0  0  0  0  0  0  0  0  0  0
  157.9980  214.4450  142.8390 O   0  0  0  0  0  1  0  0  0  0  0  0
  159.4130  213.1240  141.6250 O   0  0  0  0  0  0  0  0  0  0  0  0
  161.8810  204.4130  151.4490 C   0  0  0  0  0  2  0  0  0  0  0  0
  160.6450  204.2790  150.5790 C   0  0  0  0  0  2  0  0  0  0  0  0
  161.0600  204.1610  149.1280 C   0  0  0  0  0  1  0  0  0  0  0  0
  1 18  1  0  0  0  0
  1 11  1  0  0  0  0
  4  6  1  0  0  0  0
  5  1  2  0  0  0  0
  6 11  2  0  0  0  0
  6  8  1  0  0  0  0
  7 12  1  0  0  0  0
  8  7  2  0  0  0  0
  9  5  1  0  0  0  0
  9  4  2  0  0  0  0
 10  3  1  0  0  0  0
 10 12  2  0  0  0  0
 11 10  1  0  0  0  0
 13 14  1  0  0  0  0
 13  2  1  0  0  0  0
 14 32  1  6  0  0  0
 15 14  1  0  0  0  0
 16  2  1  6  0  0  0
 16  3  1  0  0  0  0
 17 15  1  0  0  0  0
 18 17  1  6  0  0  0
 18 16  1  0  0  0  0
 19 28  1  0  0  0  0
 20 27  1  0  0  0  0
 21 22  1  0  0  0  0
 21 24  2  0  0  0  0
 22 23  1  0  0  0  0
 23 25  1  0  0  0  0
 23 19  2  0  0  0  0
 24 26  1  0  0  0  0
 24 25  1  0  0  0  0
 25 20  2  0  0  0  0
 27  9  1  0  0  0  0
 28 27  2  0  0  0  0
 29 30  1  0  0  0  0
 29 21  1  0  0  0  0
 31 29  2  0  0  0  0
 33 32  1  0  0  0  0
 34 33  1  0  0  0  0
M  END
>  <MODEL>
4

>  <REMARK>
 VINA RESULT:      -6.4      5.874      9.436
  Name = 
  4 active torsions:
  status: ('A' for Active; 'I' for Inactive)
    1  A    between atoms: C_3  and  C_13
    2  A    between atoms: C_3  and  C_25
    3  A    between atoms: C_7  and  C_11
    4  A    between atoms: C_18  and  C_30
                            x       y       z     vdW  Elec       q    Type
                         _______ _______ _______ _____ _____    ______ ____

>  <TORSDO>
F 4

$$$$
=
 OpenBabel11062409433D

 34 39  0  0  1  0  0  0  0  0999 V2000
  160.9910  210.1980  153.6130 C   0  0  0  0  0  0  0  0  0  0  0  0
  160.3100  207.3770  155.1020 C   0  0  0  0  0  2  0  0  0  0  0  0
  161.8310  209.0750  156.1720 C   0  0  0  0  0  2  0  0  0  0  0  0
  159.5620  212.5830  153.5480 N   0  0  0  0  0  0  0  0  0  0  0  0
  160.6510  210.8010  152.3930 C   0  0  0  0  0  3  0  0  0  0  0  0
  159.8930  212.0480  154.7510 C   0  0  0  0  0  0  0  0  0  0  0  0
  159.8620  212.1550  157.1700 C   0  0  0  0  0  3  0  0  0  0  0  0
  159.5080  212.6920  155.9290 C   0  0  0  0  0  3  0  0  0  0  0  0
  159.9250  211.9990  152.3710 C   0  0  0  0  0  0  0  0  0  0  0  0
  160.9820  210.3080  156.0680 C   0  0  0  0  0  0  0  0  0  0  0  0
  160.6310  210.8450  154.8120 C   0  0  0  0  0  0  0  0  0  0  0  0
  160.6020  210.9710  157.2380 C   0  0  0  0  0  3  0  0  0  0  0  0
  160.0640  206.3480  153.9920 C   0  0  0  0  0  2  0  0  0  0  0  0
  161.3570  205.7140  153.4680 C   0  0  2  0  0  3  0  0  0  0  0  0
  162.1510  206.6340  152.5170 C   0  0  0  0  0  2  0  0  0  0  0  0
  161.6320  208.1500  154.9720 C   0  0  2  0  0  3  0  0  0  0  0  0
  161.5900  208.0550  152.3880 C   0  0  0  0  0  2  0  0  0  0  0  0
  161.8070  208.9200  153.6430 C   0  0  1  0  0  3  0  0  0  0  0  0
  157.9250  213.8490  149.7150 C   0  0  0  0  0  3  0  0  0  0  0  0
  160.4550  212.6200  150.0080 C   0  0  0  0  0  3  0  0  0  0  0  0
  160.2140  213.9630  146.5960 C   0  0  0  0  0  0  0  0  0  0  0  0
  158.6830  214.4500  147.1290 S   0  0  0  0  0  0  0  0  0  0  0  0
  158.8460  213.8180  148.6720 C   0  0  0  0  0  0  0  0  0  0  0  0
  160.8710  213.2930  147.6410 C   0  0  0  0  0  0  0  0  0  0  0  0
  160.0890  213.2190  148.8020 C   0  0  0  0  0  0  0  0  0  0  0  0
  162.4900  212.6110  147.5370 Cl  0  0  0  0  0  0  0  0  0  0  0  0
  159.5500  212.6310  151.0880 C   0  0  0  0  0  0  0  0  0  0  0  0
  158.2870  213.2490  150.9290 C   0  0  0  0  0  3  0  0  0  0  0  0
  160.7290  214.2260  145.2420 C   0  0  0  0  0  0  0  0  0  0  0  0
  159.9440  214.4470  144.2830 O   0  0  0  0  0  0  0  0  0  0  0  0
  162.0990  214.2320  145.0130 O   0  0  0  0  0  1  0  0  0  0  0  0
  161.0240  204.4090  152.7680 C   0  0  0  0  0  2  0  0  0  0  0  0
  161.5810  204.4080  151.3570 C   0  0  0  0  0  2  0  0  0  0  0  0
  160.6310  203.6650  150.4410 C   0  0  0  0  0  1  0  0  0  0  0  0
  1 18  1  0  0  0  0
  1 11  1  0  0  0  0
  4  6  1  0  0  0  0
  5  1  2  0  0  0  0
  6 11  2  0  0  0  0
  6  8  1  0  0  0  0
  7 12  1  0  0  0  0
  8  7  2  0  0  0  0
  9  5  1  0  0  0  0
  9  4  2  0  0  0  0
 10  3  1  0  0  0  0
 10 12  2  0  0  0  0
 11 10  1  0  0  0  0
 13  2  1  0  0  0  0
 14 32  1  6  0  0  0
 14 13  1  0  0  0  0
 15 14  1  0  0  0  0
 16  2  1  6  0  0  0
 16  3  1  0  0  0  0
 17 15  1  0  0  0  0
 18 17  1  6  0  0  0
 18 16  1  0  0  0  0
 19 28  1  0  0  0  0
 20 27  1  0  0  0  0
 21 22  1  0  0  0  0
 21 24  2  0  0  0  0
 22 23  1  0  0  0  0
 23 25  1  0  0  0  0
 23 19  2  0  0  0  0
 24 25  1  0  0  0  0
 25 20  2  0  0  0  0
 26 24  1  0  0  0  0
 27  9  1  0  0  0  0
 28 27  2  0  0  0  0
 29 21  1  0  0  0  0
 30 29  2  0  0  0  0
 31 29  1  0  0  0  0
 33 32  1  0  0  0  0
 34 33  1  0  0  0  0
M  END
>  <MODEL>
5

>  <REMARK>
 VINA RESULT:      -6.4      5.661      9.519
  Name = 
  4 active torsions:
  status: ('A' for Active; 'I' for Inactive)
    1  A    between atoms: C_3  and  C_13
    2  A    between atoms: C_3  and  C_25
    3  A    between atoms: C_7  and  C_11
    4  A    between atoms: C_18  and  C_30
                            x       y       z     vdW  Elec       q    Type
                         _______ _______ _______ _____ _____    ______ ____

>  <TORSDO>
F 4

$$$$
=
 OpenBabel11062409433D

 34 39  0  0  1  0  0  0  0  0999 V2000
  159.1040  212.3780  140.3000 C   0  0  0  0  0  0  0  0  0  0  0  0
  158.1750  209.9970  138.2740 C   0  0  0  0  0  2  0  0  0  0  0  0
  159.9450  211.6550  137.6000 C   0  0  0  0  0  2  0  0  0  0  0  0
  160.9480  212.3450  142.3820 N   0  0  0  0  0  0  0  0  0  0  0  0
  158.7450  212.8020  141.5870 C   0  0  0  0  0  3  0  0  0  0  0  0
  161.3450  211.9490  141.1450 C   0  0  0  0  0  0  0  0  0  0  0  0
  163.0810  211.1380  139.6640 C   0  0  0  0  0  3  0  0  0  0  0  0
  162.6610  211.5290  140.9390 C   0  0  0  0  0  3  0  0  0  0  0  0
  159.6790  212.7750  142.6310 C   0  0  0  0  0  0  0  0  0  0  0  0
  160.8630  211.5730  138.7840 C   0  0  0  0  0  0  0  0  0  0  0  0
  160.4330  211.9710  140.0670 C   0  0  0  0  0  0  0  0  0  0  0  0
  162.1860  211.1670  138.5900 C   0  0  0  0  0  3  0  0  0  0  0  0
  156.7050  209.7010  138.5960 C   0  0  0  0  0  2  0  0  0  0  0  0
  155.7350  210.6410  137.8720 C   0  0  2  0  0  3  0  0  0  0  0  0
  155.6510  212.0450  138.5070 C   0  0  0  0  0  2  0  0  0  0  0  0
  158.4830  211.4780  138.0070 C   0  0  2  0  0  3  0  0  0  0  0  0
  156.6520  212.2930  139.6410 C   0  0  0  0  0  2  0  0  0  0  0  0
  158.1070  212.4380  139.1590 C   0  0  1  0  0  3  0  0  0  0  0  0
  157.8130  214.4520  145.4910 C   0  0  0  0  0  3  0  0  0  0  0  0
  160.0660  212.7880  145.1000 C   0  0  0  0  0  3  0  0  0  0  0  0
  159.7330  213.4520  148.7000 C   0  0  0  0  0  0  0  0  0  0  0  0
  158.3930  214.3530  148.1880 S   0  0  0  0  0  0  0  0  0  0  0  0
  158.5930  214.0190  146.5590 C   0  0  0  0  0  0  0  0  0  0  0  0
  160.3510  212.8760  147.5790 C   0  0  0  0  0  0  0  0  0  0  0  0
  159.6990  213.2030  146.3820 C   0  0  0  0  0  0  0  0  0  0  0  0
  161.7840  211.8550  147.6350 Cl  0  0  0  0  0  0  0  0  0  0  0  0
  159.3010  213.2070  143.9930 C   0  0  0  0  0  0  0  0  0  0  0  0
  158.1760  214.0390  144.2020 C   0  0  0  0  0  3  0  0  0  0  0  0
  160.1410  213.3250  150.1090 C   0  0  0  0  0  0  0  0  0  0  0  0
  160.4980  212.2150  150.5810 O   0  0  0  0  0  0  0  0  0  0  0  0
  160.1340  214.4430  150.9330 O   0  0  0  0  0  1  0  0  0  0  0  0
  154.3570  210.0050  137.8370 C   0  0  0  0  0  2  0  0  0  0  0  0
  154.0330  209.3700  139.1770 C   0  0  0  0  0  2  0  0  0  0  0  0
  152.7600  209.9780  139.7280 C   0  0  0  0  0  1  0  0  0  0  0  0
  1  5  1  0  0  0  0
  2 13  1  0  0  0  0
  3 10  1  0  0  0  0
  4  9  1  0  0  0  0
  5  9  2  0  0  0  0
  6  4  2  0  0  0  0
  7  8  2  0  0  0  0
  8  6  1  0  0  0  0
  9 27  1  0  0  0  0
 10 11  1  0  0  0  0
 11  1  2  0  0  0  0
 11  6  1  0  0  0  0
 12 10  2  0  0  0  0
 12  7  1  0  0  0  0
 14 32  1  1  0  0  0
 14 15  1  0  0  0  0
 14 13  1  0  0  0  0
 15 17  1  0  0  0  0
 16  3  1  1  0  0  0
 16  2  1  0  0  0  0
 16 18  1  0  0  0  0
 18 17  1  1  0  0  0
 18  1  1  0  0  0  0
 19 23  1  0  0  0  0
 20 25  1  0  0  0  0
 21 29  1  0  0  0  0
 22 21  1  0  0  0  0
 23 22  1  0  0  0  0
 24 26  1  0  0  0  0
 24 21  2  0  0  0  0
 25 23  2  0  0  0  0
 25 24  1  0  0  0  0
 27 28  1  0  0  0  0
 27 20  2  0  0  0  0
 28 19  2  0  0  0  0
 29 30  2  0  0  0  0
 29 31  1  0  0  0  0
 32 33  1  0  0  0  0
 33 34  1  0  0  0  0
M  END
>  <MODEL>
6

>  <REMARK>
 VINA RESULT:      -5.2      8.102     10.390
  Name = 
  4 active torsions:
  status: ('A' for Active; 'I' for Inactive)
    1  A    between atoms: C_3  and  C_13
    2  A    between atoms: C_3  and  C_25
    3  A    between atoms: C_7  and  C_11
    4  A    between atoms: C_18  and  C_30
                            x       y       z     vdW  Elec       q    Type
                         _______ _______ _______ _____ _____    ______ ____

>  <TORSDO>
F 4

$$$$
=
 OpenBabel11062409433D

 34 39  0  0  1  0  0  0  0  0999 V2000
  161.9540  208.0650  150.5930 C   0  0  0  0  0  0  0  0  0  0  0  0
  160.4240  209.3400  153.1750 C   0  0  0  0  0  2  0  0  0  0  0  0
  162.5500  210.3600  152.2940 C   0  0  0  0  0  2  0  0  0  0  0  0
  161.5000  208.4350  147.8750 N   0  0  0  0  0  0  0  0  0  0  0  0
  161.7520  206.9700  149.7410 C   0  0  0  0  0  3  0  0  0  0  0  0
  161.7170  209.5220  148.6580 C   0  0  0  0  0  0  0  0  0  0  0  0
  161.9440  211.9210  148.8940 C   0  0  0  0  0  3  0  0  0  0  0  0
  161.7030  210.8000  148.0950 C   0  0  0  0  0  3  0  0  0  0  0  0
  161.5160  207.1660  148.3740 C   0  0  0  0  0  0  0  0  0  0  0  0
  162.2070  210.4970  150.8400 C   0  0  0  0  0  0  0  0  0  0  0  0
  161.9660  209.3600  150.0400 C   0  0  0  0  0  0  0  0  0  0  0  0
  162.2020  211.7680  150.2590 C   0  0  0  0  0  3  0  0  0  0  0  0
  159.7190  208.1750  153.8810 C   0  0  0  0  0  2  0  0  0  0  0  0
  160.6370  207.4200  154.8490 C   0  0  2  0  0  3  0  0  0  0  0  0
  161.6250  206.4680  154.1420 C   0  0  0  0  0  2  0  0  0  0  0  0
  161.9190  209.1110  152.9080 C   0  0  2  0  0  3  0  0  0  0  0  0
  161.6140  206.5600  152.6110 C   0  0  0  0  0  2  0  0  0  0  0  0
  162.2450  207.8550  152.0670 C   0  0  1  0  0  3  0  0  0  0  0  0
  160.7240  205.1330  145.2580 C   0  0  0  0  0  3  0  0  0  0  0  0
  161.4050  204.7030  147.9690 C   0  0  0  0  0  3  0  0  0  0  0  0
  160.9850  201.4290  146.3510 C   0  0  0  0  0  0  0  0  0  0  0  0
  160.6480  202.3860  144.9960 S   0  0  0  0  0  0  0  0  0  0  0  0
  160.8510  203.8510  145.7830 C   0  0  0  0  0  0  0  0  0  0  0  0
  161.2640  202.2660  147.4440 C   0  0  0  0  0  0  0  0  0  0  0  0
  161.1840  203.6250  147.1090 C   0  0  0  0  0  0  0  0  0  0  0  0
  161.6690  201.7050  149.0620 Cl  0  0  0  0  0  0  0  0  0  0  0  0
  161.2860  206.0170  147.4750 C   0  0  0  0  0  0  0  0  0  0  0  0
  160.9450  206.2190  146.1160 C   0  0  0  0  0  3  0  0  0  0  0  0
  160.9760  199.9570  146.3350 C   0  0  0  0  0  0  0  0  0  0  0  0
  161.6760  199.2960  147.1450 O   0  0  0  0  0  1  0  0  0  0  0  0
  160.1850  199.2820  145.4130 O   0  0  0  0  0  0  0  0  0  0  0  0
  159.7880  206.6430  155.8380 C   0  0  0  0  0  2  0  0  0  0  0  0
  160.1340  207.0410  157.2610 C   0  0  0  0  0  2  0  0  0  0  0  0
  161.0450  208.2500  157.2380 C   0  0  0  0  0  1  0  0  0  0  0  0
  1 18  1  0  0  0  0
  2 13  1  0  0  0  0
  4  9  2  0  0  0  0
  4  6  1  0  0  0  0
  5  1  2  0  0  0  0
  6 11  1  0  0  0  0
  7 12  2  0  0  0  0
  8  6  2  0  0  0  0
  8  7  1  0  0  0  0
  9  5  1  0  0  0  0
 10  3  1  0  0  0  0
 11  1  1  0  0  0  0
 11 10  2  0  0  0  0
 12 10  1  0  0  0  0
 13 14  1  0  0  0  0
 14 32  1  1  0  0  0
 15 14  1  0  0  0  0
 16  3  1  6  0  0  0
 16  2  1  0  0  0  0
 17 15  1  0  0  0  0
 18 17  1  1  0  0  0
 18 16  1  0  0  0  0
 19 23  2  0  0  0  0
 19 28  1  0  0  0  0
 21 24  2  0  0  0  0
 22 23  1  0  0  0  0
 22 21  1  0  0  0  0
 23 25  1  0  0  0  0
 24 26  1  0  0  0  0
 25 24  1  0  0  0  0
 25 20  2  0  0  0  0
 27 20  1  0  0  0  0
 27  9  1  0  0  0  0
 28 27  2  0  0  0  0
 29 21  1  0  0  0  0
 29 30  1  0  0  0  0
 31 29  2  0  0  0  0
 32 33  1  0  0  0  0
 34 33  1  0  0  0  0
M  END
>  <MODEL>
7

>  <REMARK>
 VINA RESULT:      -4.9      4.860      9.853
  Name = 
  4 active torsions:
  status: ('A' for Active; 'I' for Inactive)
    1  A    between atoms: C_3  and  C_13
    2  A    between atoms: C_3  and  C_25
    3  A    between atoms: C_7  and  C_11
    4  A    between atoms: C_18  and  C_30
                            x       y       z     vdW  Elec       q    Type
                         _______ _______ _______ _____ _____    ______ ____

>  <TORSDO>
F 4

$$$$
