=
 OpenBabel11062409253D

 37 38  0  0  1  0  0  0  0  0999 V2000
  157.8500  213.1940  150.0230 C   0  0  0  0  0  2  0  0  0  0  0  0
  162.1630  209.8250  156.1330 O   0  0  0  0  0  0  0  0  0  0  0  0
  157.4980  214.1090  151.1890 C   0  0  2  0  0  3  0  0  0  0  0  0
  161.3730  209.1000  152.6270 C   0  0  0  0  0  2  0  0  0  0  0  0
  159.7900  211.7440  155.0190 C   0  0  0  0  0  2  0  0  0  0  0  0
  162.4330  208.0760  153.6840 S   0  0  0  0  0  0  0  0  0  0  0  0
  161.7160  210.8710  149.3240 C   0  0  2  0  0  3  0  0  0  0  0  0
  157.5040  211.5240  154.0440 C   0  0  0  0  0  0  0  0  0  0  0  0
  157.6650  214.4410  153.5540 O   0  0  0  0  0  1  0  0  0  0  0  0
  162.1830  213.3220  149.3670 C   0  0  0  0  0  1  0  0  0  0  0  0
  161.3740  210.7550  150.8090 C   0  0  0  0  0  2  0  0  0  0  0  0
  160.4850  206.3960  154.3890 N   0  0  0  0  0  2  0  0  0  0  0  0
  157.8370  213.4900  152.5470 C   0  0  1  0  0  3  0  0  0  0  0  0
  160.3760  208.4150  155.5830 N   0  0  0  0  0  2  0  0  0  0  0  0
  161.0310  207.5330  154.6640 C   0  0  0  0  0  0  0  0  0  0  0  0
  161.3560  212.2360  148.6750 C   0  0  2  0  0  0  0  0  0  0  0  0
  156.1460  214.4530  151.1270 O   0  0  0  0  0  1  0  0  0  0  0  0
  156.9900  212.2550  152.8430 C   0  0  0  0  0  2  0  0  0  0  0  0
  159.8090  210.9240  156.6450 S   0  0  0  0  0  0  0  0  0  0  0  0
  159.8770  212.5140  148.8210 C   0  0  0  0  0  3  0  0  0  0  0  0
  162.1600  209.6290  151.4500 C   0  0  0  0  0  2  0  0  0  0  0  0
  158.9030  210.9910  154.0350 C   0  0  0  0  0  2  0  0  0  0  0  0
  156.5640  211.0450  155.0180 S   0  0  0  0  0  0  0  0  0  0  0  0
  160.9180  209.6400  156.0800 C   0  0  0  0  0  0  0  0  0  0  0  0
  159.3230  212.9720  149.9470 C   0  0  0  0  0  3  0  0  0  0  0  0
  161.9060  208.4850  148.3590 C   0  0  0  0  0  0  0  0  0  0  0  0
  161.2150  209.7230  148.5590 N   0  0  0  0  0  2  0  0  0  0  0  0
  163.0860  208.3240  148.7700 O   0  0  0  0  0  0  0  0  0  0  0  0
  161.0890  207.1560  147.4920 S   0  0  0  0  0  1  0  0  0  0  0  0
  163.0890  212.4870  146.9850 O   0  0  0  0  0  1  0  0  0  0  0  0
  161.7350  212.1880  147.1660 C   0  0  2  0  0  3  0  0  0  0  0  0
  160.2090  213.9130  143.4230 O   0  0  0  0  0  1  0  0  0  0  0  0
  160.5450  212.2520  144.9960 O   0  0  0  0  0  0  0  0  0  0  0  0
  161.1570  213.2090  144.1700 C   0  0  1  0  0  0  0  0  0  0  0  0
  162.2470  212.6190  143.2950 C   0  0  0  0  0  1  0  0  0  0  0  0
  160.9080  212.9930  146.1350 C   0  0  2  0  0  3  0  0  0  0  0  0
  161.6700  214.0190  145.3320 C   0  0  0  0  0  2  0  0  0  0  0  0
  1  3  1  0  0  0  0
  3 17  1  1  0  0  0
  3 13  1  0  0  0  0
  4  6  1  0  0  0  0
  5 19  1  0  0  0  0
  6 15  1  0  0  0  0
  7 27  1  6  0  0  0
  7 11  1  0  0  0  0
  8 23  2  0  0  0  0
 11 21  1  0  0  0  0
 12 15  2  0  0  0  0
 13 18  1  0  0  0  0
 13  9  1  1  0  0  0
 14 24  1  0  0  0  0
 15 14  1  0  0  0  0
 16 20  1  0  0  0  0
 16  7  1  0  0  0  0
 16 10  1  1  0  0  0
 18  8  1  0  0  0  0
 20 25  2  0  0  0  0
 21  4  1  0  0  0  0
 22  8  1  0  0  0  0
 22  5  1  0  0  0  0
 24  2  2  0  0  0  0
 24 19  1  0  0  0  0
 25  1  1  0  0  0  0
 26 27  1  0  0  0  0
 26 28  2  0  0  0  0
 29 26  1  0  0  0  0
 31 30  1  1  0  0  0
 31 16  1  0  0  0  0
 32 34  1  0  0  0  0
 33 36  1  0  0  0  0
 34 35  1  6  0  0  0
 34 33  1  0  0  0  0
 34 37  1  0  0  0  0
 36 31  1  1  0  0  0
 37 36  1  0  0  0  0
M  END
>  <MODEL>
1

>  <REMARK>
 VINA RESULT:      -0.5      0.000      0.000
  Name = 
  3 active torsions:
  status: ('A' for Active; 'I' for Inactive)
    1  A    between atoms: C_10  and  N_22
    2  A    between atoms: C_20  and  C_24
    3  A    between atoms: C_24  and  C_30
                            x       y       z     vdW  Elec       q    Type
                         _______ _______ _______ _____ _____    ______ ____

>  <TORSDO>
F 3

$$$$
=
 OpenBabel11062409253D

 37 38  0  0  1  0  0  0  0  0999 V2000
  160.2010  207.8970  152.8870 C   0  0  0  0  0  2  0  0  0  0  0  0
  163.2070  213.5900  147.8030 O   0  0  0  0  0  0  0  0  0  0  0  0
  161.5060  207.2510  152.4380 C   0  0  2  0  0  3  0  0  0  0  0  0
  160.1430  212.9910  149.7240 C   0  0  0  0  0  2  0  0  0  0  0  0
  163.0970  210.5590  148.9680 C   0  0  0  0  0  2  0  0  0  0  0  0
  160.4500  214.4500  148.6910 S   0  0  0  0  0  0  0  0  0  0  0  0
  159.2550  212.3410  153.3230 C   0  0  2  0  0  3  0  0  0  0  0  0
  161.6370  208.5430  148.8120 C   0  0  0  0  0  0  0  0  0  0  0  0
  163.3600  207.3940  150.9310 O   0  0  0  0  0  1  0  0  0  0  0  0
  161.1020  211.7000  154.8730 C   0  0  0  0  0  1  0  0  0  0  0  0
  160.0670  212.1690  152.0390 C   0  0  0  0  0  2  0  0  0  0  0  0
  159.2050  213.4670  146.5470 N   0  0  0  0  0  2  0  0  0  0  0  0
  162.0840  207.9030  151.1810 C   0  0  1  0  0  3  0  0  0  0  0  0
  161.3560  212.5620  146.8000 N   0  0  0  0  0  2  0  0  0  0  0  0
  160.3260  213.4810  147.1840 C   0  0  0  0  0  0  0  0  0  0  0  0
  159.6560  211.3880  154.4830 C   0  0  2  0  0  0  0  0  0  0  0  0
  161.3110  205.8830  152.2400 O   0  0  0  0  0  1  0  0  0  0  0  0
  161.1890  207.6940  149.9610 C   0  0  0  0  0  2  0  0  0  0  0  0
  163.6250  211.0260  147.2890 S   0  0  0  0  0  0  0  0  0  0  0  0
  159.5170  209.9450  154.0490 C   0  0  0  0  0  3  0  0  0  0  0  0
  159.9480  213.4010  151.1650 C   0  0  0  0  0  2  0  0  0  0  0  0
  161.6680  210.0310  148.9680 C   0  0  0  0  0  2  0  0  0  0  0  0
  161.6870  207.9620  147.5000 S   0  0  0  0  0  0  0  0  0  0  0  0
  162.6860  212.5480  147.3240 C   0  0  0  0  0  0  0  0  0  0  0  0
  160.4230  209.3140  153.2980 C   0  0  0  0  0  3  0  0  0  0  0  0
  156.9110  213.4210  153.3390 C   0  0  0  0  0  0  0  0  0  0  0  0
  157.8120  212.3440  153.0570 N   0  0  0  0  0  2  0  0  0  0  0  0
  157.3000  214.4530  153.9470 O   0  0  0  0  0  0  0  0  0  0  0  0
  155.2020  213.2880  152.8400 S   0  0  0  0  0  1  0  0  0  0  0  0
  159.4660  211.7300  156.8840 O   0  0  0  0  0  1  0  0  0  0  0  0
  158.7250  211.6620  155.7010 C   0  0  2  0  0  3  0  0  0  0  0  0
  154.6220  210.2750  156.4390 O   0  0  0  0  0  1  0  0  0  0  0  0
  156.3590  211.1460  155.1870 O   0  0  0  0  0  0  0  0  0  0  0  0
  155.6020  211.2670  156.3640 C   0  0  1  0  0  0  0  0  0  0  0  0
  155.0210  212.6560  156.5470 C   0  0  0  0  0  1  0  0  0  0  0  0
  157.4850  210.7690  155.9420 C   0  0  2  0  0  3  0  0  0  0  0  0
  156.7750  210.9670  157.2600 C   0  0  0  0  0  2  0  0  0  0  0  0
  1 25  1  0  0  0  0
  3 17  1  6  0  0  0
  3  1  1  0  0  0  0
  4 21  1  0  0  0  0
  6  4  1  0  0  0  0
  7 27  1  6  0  0  0
  7 16  1  0  0  0  0
  8 22  1  0  0  0  0
  8 18  1  0  0  0  0
 11  7  1  0  0  0  0
 12 15  2  0  0  0  0
 13  9  1  6  0  0  0
 13  3  1  0  0  0  0
 14 15  1  0  0  0  0
 14 24  1  0  0  0  0
 15  6  1  0  0  0  0
 16 10  1  1  0  0  0
 16 31  1  0  0  0  0
 18 13  1  0  0  0  0
 19 24  1  0  0  0  0
 19  5  1  0  0  0  0
 20 16  1  0  0  0  0
 21 11  1  0  0  0  0
 22  5  1  0  0  0  0
 23  8  2  0  0  0  0
 24  2  2  0  0  0  0
 25 20  2  0  0  0  0
 26 28  2  0  0  0  0
 27 26  1  0  0  0  0
 29 26  1  0  0  0  0
 31 30  1  1  0  0  0
 33 36  1  0  0  0  0
 33 34  1  0  0  0  0
 34 32  1  0  0  0  0
 34 35  1  1  0  0  0
 34 37  1  0  0  0  0
 36 31  1  1  0  0  0
 36 37  1  0  0  0  0
M  END
>  <MODEL>
2

>  <REMARK>
 VINA RESULT:       1.1      2.999      9.026
  Name = 
  3 active torsions:
  status: ('A' for Active; 'I' for Inactive)
    1  A    between atoms: C_10  and  N_22
    2  A    between atoms: C_20  and  C_24
    3  A    between atoms: C_24  and  C_30
                            x       y       z     vdW  Elec       q    Type
                         _______ _______ _______ _____ _____    ______ ____

>  <TORSDO>
F 3

$$$$
