=
 OpenBabel11052422553D

 28 31  0  0  1  0  0  0  0  0999 V2000
  160.9340  208.4540  152.4180 C   0  0  0  0  0  0  0  0  0  0  0  0
  160.1530  203.7670  150.0190 C   0  0  0  0  0  2  0  0  0  0  0  0
  162.7100  208.9570  148.0040 O   0  0  0  0  0  0  0  0  0  0  0  0
  161.3080  204.1240  147.8510 C   0  0  2  0  0  3  0  0  0  0  0  0
  161.0430  206.0520  149.4920 C   0  0  1  0  0  3  0  0  0  0  0  0
  160.8890  201.7720  148.7120 C   0  0  0  0  0  0  0  0  0  0  0  0
  161.2740  204.5420  149.3260 C   0  0  1  0  0  3  0  0  0  0  0  0
  161.9970  206.4020  147.1720 C   0  0  0  0  0  2  0  0  0  0  0  0
  161.6440  202.6370  147.7310 C   0  0  0  0  0  2  0  0  0  0  0  0
  161.7720  208.7730  150.1670 C   0  0  0  0  0  0  0  0  0  0  0  0
  161.3380  206.4260  150.9500 C   0  0  0  0  0  2  0  0  0  0  0  0
  162.3560  204.9290  147.1050 C   0  0  0  0  0  2  0  0  0  0  0  0
  161.4350  210.6600  151.5700 C   0  0  0  0  0  3  0  0  0  0  0  0
  162.1540  208.2180  148.8610 C   0  0  0  0  0  0  0  0  0  0  0  0
  161.8190  210.1150  150.3850 N   0  0  0  0  0  0  0  0  0  0  0  0
  160.9650  200.4240  148.5830 F   0  0  0  0  0  0  0  0  0  0  0  0
  160.2810  202.2850  149.7930 C   0  0  0  0  0  3  0  0  0  0  0  0
  161.8780  206.8380  148.5630 N   0  0  0  0  0  0  0  0  0  0  0  0
  160.9820  209.8400  152.6030 C   0  0  0  0  0  3  0  0  0  0  0  0
  161.3140  207.9110  151.1770 C   0  0  0  0  0  0  0  0  0  0  0  0
  160.4490  207.5770  153.5490 C   0  0  0  0  0  2  0  0  0  0  0  0
  161.5180  207.1190  154.4500 N   0  0  0  0  0  0  0  0  0  0  0  0
  161.5830  205.7650  154.3750 O   0  0  0  0  0  1  0  0  0  0  0  0
  159.7590  207.3450  156.1430 C   0  0  0  0  0  1  0  0  0  0  0  0
  161.2380  207.5290  155.8370 C   0  0  2  0  0  3  0  0  0  0  0  0
  161.5950  208.9940  156.1220 C   0  0  1  0  0  3  0  0  0  0  0  0
  160.3630  209.8050  156.4800 C   0  0  0  0  0  1  0  0  0  0  0  0
  162.5560  209.1000  157.1300 O   0  0  0  0  0  1  0  0  0  0  0  0
  1 19  1  0  0  0  0
  1 21  1  0  0  0  0
  3 14  2  0  0  0  0
  4 12  1  6  0  0  0
  4  7  1  0  0  0  0
  5 11  1  1  0  0  0
  6 17  2  0  0  0  0
  7  5  1  0  0  0  0
  7  2  1  1  0  0  0
  8 18  1  0  0  0  0
  9  4  1  0  0  0  0
  9  6  1  0  0  0  0
 10 15  2  0  0  0  0
 10 20  1  0  0  0  0
 11 20  1  0  0  0  0
 12  8  1  0  0  0  0
 13 19  2  0  0  0  0
 14 10  1  0  0  0  0
 15 13  1  0  0  0  0
 16  6  1  0  0  0  0
 17  2  1  0  0  0  0
 18 14  1  0  0  0  0
 18  5  1  0  0  0  0
 20  1  2  0  0  0  0
 21 22  1  0  0  0  0
 22 25  1  0  0  0  0
 23 22  1  0  0  0  0
 25 26  1  0  0  0  0
 25 24  1  6  0  0  0
 26 27  1  1  0  0  0
 26 28  1  0  0  0  0
M  END
>  <MODEL>
1

>  <REMARK>
 VINA RESULT:      -8.5      0.000      0.000
  Name = 
  4 active torsions:
  status: ('A' for Active; 'I' for Inactive)
    1  A    between atoms: C_1  and  C_2
    2  A    between atoms: C_2  and  N_3
    3  A    between atoms: N_3  and  C_11
    4  A    between atoms: C_6  and  C_11
                            x       y       z     vdW  Elec       q    Type
                         _______ _______ _______ _____ _____    ______ ____

>  <TORSDO>
F 4

$$$$
=
 OpenBabel11052422553D

 28 31  0  0  1  0  0  0  0  0999 V2000
  161.3490  204.2760  148.4220 C   0  0  0  0  0  0  0  0  0  0  0  0
  161.2430  205.9830  153.4630 C   0  0  0  0  0  2  0  0  0  0  0  0
  161.8960  209.0240  148.1850 O   0  0  0  0  0  0  0  0  0  0  0  0
  161.3170  208.4450  153.1520 C   0  0  2  0  0  3  0  0  0  0  0  0
  161.5760  206.8940  151.1510 C   0  0  1  0  0  3  0  0  0  0  0  0
  160.4290  207.4480  155.3120 C   0  0  0  0  0  0  0  0  0  0  0  0
  160.8900  207.1210  152.5060 C   0  0  1  0  0  3  0  0  0  0  0  0
  161.8790  209.4000  150.9390 C   0  0  0  0  0  2  0  0  0  0  0  0
  160.5330  208.6790  154.4440 C   0  0  0  0  0  2  0  0  0  0  0  0
  161.7080  206.6670  148.2660 C   0  0  0  0  0  0  0  0  0  0  0  0
  160.8670  205.7350  150.4400 C   0  0  0  0  0  2  0  0  0  0  0  0
  161.0580  209.5980  152.2000 C   0  0  0  0  0  2  0  0  0  0  0  0
  162.1100  205.2960  146.3690 C   0  0  0  0  0  3  0  0  0  0  0  0
  161.7250  207.9960  148.8950 C   0  0  0  0  0  0  0  0  0  0  0  0
  162.0790  206.5170  146.9650 N   0  0  0  0  0  0  0  0  0  0  0  0
  159.9160  207.5760  156.5620 F   0  0  0  0  0  0  0  0  0  0  0  0
  160.6770  206.2180  154.8370 C   0  0  0  0  0  3  0  0  0  0  0  0
  161.5630  208.1130  150.3190 N   0  0  0  0  0  0  0  0  0  0  0  0
  161.7510  204.1570  147.0880 C   0  0  0  0  0  3  0  0  0  0  0  0
  161.3470  205.5460  149.0290 C   0  0  0  0  0  0  0  0  0  0  0  0
  160.9550  203.0350  149.1870 C   0  0  0  0  0  2  0  0  0  0  0  0
  160.0560  202.1370  148.4450 N   0  0  0  0  0  0  0  0  0  0  0  0
  158.9960  201.8480  149.2420 O   0  0  0  0  0  1  0  0  0  0  0  0
  162.0210  200.7450  148.9050 C   0  0  0  0  0  1  0  0  0  0  0  0
  160.7550  200.8940  148.0750 C   0  0  2  0  0  3  0  0  0  0  0  0
  161.1580  200.8400  146.5950 C   0  0  1  0  0  3  0  0  0  0  0  0
  161.3320  199.4100  146.1190 C   0  0  0  0  0  1  0  0  0  0  0  0
  160.2360  201.5120  145.7890 O   0  0  0  0  0  1  0  0  0  0  0  0
  1 20  1  0  0  0  0
  1 21  1  0  0  0  0
  2 17  1  0  0  0  0
  3 14  2  0  0  0  0
  4 12  1  6  0  0  0
  4  9  1  0  0  0  0
  5 11  1  6  0  0  0
  5  7  1  0  0  0  0
  6 16  1  0  0  0  0
  7  4  1  0  0  0  0
  7  2  1  1  0  0  0
  8 12  1  0  0  0  0
  9  6  1  0  0  0  0
 10 14  1  0  0  0  0
 10 20  2  0  0  0  0
 13 15  2  0  0  0  0
 13 19  1  0  0  0  0
 14 18  1  0  0  0  0
 15 10  1  0  0  0  0
 17  6  2  0  0  0  0
 18  8  1  0  0  0  0
 18  5  1  0  0  0  0
 19  1  2  0  0  0  0
 20 11  1  0  0  0  0
 22 21  1  0  0  0  0
 22 23  1  0  0  0  0
 25 22  1  0  0  0  0
 25 24  1  1  0  0  0
 26 27  1  6  0  0  0
 26 25  1  0  0  0  0
 28 26  1  0  0  0  0
M  END
>  <MODEL>
2

>  <REMARK>
 VINA RESULT:      -8.5      3.294      7.557
  Name = 
  4 active torsions:
  status: ('A' for Active; 'I' for Inactive)
    1  A    between atoms: C_1  and  C_2
    2  A    between atoms: C_2  and  N_3
    3  A    between atoms: N_3  and  C_11
    4  A    between atoms: C_6  and  C_11
                            x       y       z     vdW  Elec       q    Type
                         _______ _______ _______ _____ _____    ______ ____

>  <TORSDO>
F 4

$$$$
=
 OpenBabel11052422553D

 28 31  0  0  1  0  0  0  0  0999 V2000
  160.9480  207.5050  152.2220 C   0  0  0  0  0  0  0  0  0  0  0  0
  161.8040  206.0910  147.1620 C   0  0  0  0  0  2  0  0  0  0  0  0
  161.0210  202.7200  152.2180 O   0  0  0  0  0  0  0  0  0  0  0  0
  161.5970  203.6210  147.2990 C   0  0  2  0  0  3  0  0  0  0  0  0
  161.5430  205.0280  149.4180 C   0  0  1  0  0  3  0  0  0  0  0  0
  161.2930  204.8150  145.0780 C   0  0  0  0  0  0  0  0  0  0  0  0
  161.1540  204.9440  147.9340 C   0  0  1  0  0  3  0  0  0  0  0  0
  161.5760  202.4970  149.5030 C   0  0  0  0  0  2  0  0  0  0  0  0
  161.0980  203.5360  145.8560 C   0  0  0  0  0  2  0  0  0  0  0  0
  161.0580  205.0850  152.2730 C   0  0  0  0  0  0  0  0  0  0  0  0
  160.7970  206.2130  150.0450 C   0  0  0  0  0  2  0  0  0  0  0  0
  161.0380  202.4490  148.0850 C   0  0  0  0  0  2  0  0  0  0  0  0
  161.1500  206.3050  154.3090 C   0  0  0  0  0  3  0  0  0  0  0  0
  161.0990  203.7970  151.5660 C   0  0  0  0  0  0  0  0  0  0  0  0
  161.1470  205.1280  153.6310 N   0  0  0  0  0  0  0  0  0  0  0  0
  161.0580  204.8070  143.7420 F   0  0  0  0  0  0  0  0  0  0  0  0
  161.5350  205.9870  145.6850 C   0  0  0  0  0  3  0  0  0  0  0  0
  161.2430  203.7730  150.1350 N   0  0  0  0  0  0  0  0  0  0  0  0
  161.0560  207.5120  153.6160 C   0  0  0  0  0  3  0  0  0  0  0  0
  160.9700  206.2770  151.5360 C   0  0  0  0  0  0  0  0  0  0  0  0
  160.8390  208.8190  151.4850 C   0  0  0  0  0  2  0  0  0  0  0  0
  162.0670  209.2070  150.7720 N   0  0  0  0  0  0  0  0  0  0  0  0
  162.7720  210.0470  151.5710 O   0  0  0  0  0  1  0  0  0  0  0  0
  162.4570  209.1990  148.3510 C   0  0  0  0  0  1  0  0  0  0  0  0
  161.7380  209.8830  149.5040 C   0  0  2  0  0  3  0  0  0  0  0  0
  162.1310  211.3660  149.4860 C   0  0  1  0  0  3  0  0  0  0  0  0
  162.6920  211.7740  148.1370 C   0  0  0  0  0  1  0  0  0  0  0  0
  161.0530  212.1850  149.8310 O   0  0  0  0  0  1  0  0  0  0  0  0
  1 19  1  0  0  0  0
  4  9  1  6  0  0  0
  4  7  1  0  0  0  0
  4 12  1  0  0  0  0
  5 11  1  1  0  0  0
  5 18  1  0  0  0  0
  6 17  2  0  0  0  0
  6  9  1  0  0  0  0
  7  2  1  6  0  0  0
  7  5  1  0  0  0  0
  8 18  1  0  0  0  0
 10 15  2  0  0  0  0
 11 20  1  0  0  0  0
 12  8  1  0  0  0  0
 14  3  2  0  0  0  0
 14 10  1  0  0  0  0
 15 13  1  0  0  0  0
 16  6  1  0  0  0  0
 17  2  1  0  0  0  0
 18 14  1  0  0  0  0
 19 13  2  0  0  0  0
 20  1  2  0  0  0  0
 20 10  1  0  0  0  0
 21  1  1  0  0  0  0
 22 21  1  0  0  0  0
 22 23  1  0  0  0  0
 25 24  1  6  0  0  0
 25 22  1  0  0  0  0
 26 27  1  6  0  0  0
 26 25  1  0  0  0  0
 26 28  1  0  0  0  0
M  END
>  <MODEL>
3

>  <REMARK>
 VINA RESULT:      -8.3      2.490      5.026
  Name = 
  4 active torsions:
  status: ('A' for Active; 'I' for Inactive)
    1  A    between atoms: C_1  and  C_2
    2  A    between atoms: C_2  and  N_3
    3  A    between atoms: N_3  and  C_11
    4  A    between atoms: C_6  and  C_11
                            x       y       z     vdW  Elec       q    Type
                         _______ _______ _______ _____ _____    ______ ____

>  <TORSDO>
F 4

$$$$
=
 OpenBabel11052422553D

 28 31  0  0  1  0  0  0  0  0999 V2000
  161.8210  209.1560  150.4950 C   0  0  0  0  0  0  0  0  0  0  0  0
  162.0430  205.0360  147.1310 C   0  0  0  0  0  2  0  0  0  0  0  0
  160.8520  205.2850  153.1360 O   0  0  0  0  0  0  0  0  0  0  0  0
  161.3130  203.1670  148.5920 C   0  0  2  0  0  3  0  0  0  0  0  0
  161.6930  205.4840  149.5740 C   0  0  1  0  0  3  0  0  0  0  0  0
  161.1420  202.9660  146.0660 C   0  0  0  0  0  0  0  0  0  0  0  0
  161.2060  204.6790  148.3590 C   0  0  1  0  0  3  0  0  0  0  0  0
  161.1810  203.4850  151.0430 C   0  0  0  0  0  2  0  0  0  0  0  0
  160.7220  202.4070  147.4040 C   0  0  0  0  0  2  0  0  0  0  0  0
  161.4050  207.2120  151.8800 C   0  0  0  0  0  0  0  0  0  0  0  0
  161.2620  206.9440  149.3870 C   0  0  0  0  0  2  0  0  0  0  0  0
  160.5610  202.7770  149.8520 C   0  0  0  0  0  2  0  0  0  0  0  0
  161.8830  209.3000  152.9050 C   0  0  0  0  0  3  0  0  0  0  0  0
  161.1220  205.7750  152.0060 C   0  0  0  0  0  0  0  0  0  0  0  0
  161.5820  207.9780  152.9910 N   0  0  0  0  0  0  0  0  0  0  0  0
  160.8310  202.2710  144.9430 F   0  0  0  0  0  0  0  0  0  0  0  0
  161.6700  204.1940  145.9410 C   0  0  0  0  0  3  0  0  0  0  0  0
  161.1720  204.9340  150.8400 N   0  0  0  0  0  0  0  0  0  0  0  0
  162.0120  209.9090  151.6570 C   0  0  0  0  0  3  0  0  0  0  0  0
  161.5340  207.7820  150.6040 C   0  0  0  0  0  0  0  0  0  0  0  0
  161.9560  209.8300  149.1500 C   0  0  0  0  0  2  0  0  0  0  0  0
  162.1730  211.2830  149.2290 N   0  0  0  0  0  0  0  0  0  0  0  0
  161.0680  211.8450  149.7830 O   0  0  0  0  0  1  0  0  0  0  0  0
  163.7140  212.6150  147.8640 C   0  0  0  0  0  1  0  0  0  0  0  0
  162.4000  211.8470  147.8870 C   0  0  2  0  0  3  0  0  0  0  0  0
  161.2910  212.8050  147.4340 C   0  0  1  0  0  3  0  0  0  0  0  0
  161.8650  214.0930  146.8740 C   0  0  0  0  0  1  0  0  0  0  0  0
  160.4450  212.2040  146.4990 O   0  0  0  0  0  1  0  0  0  0  0  0
  1 20  2  0  0  0  0
  1 19  1  0  0  0  0
  4  9  1  6  0  0  0
  4 12  1  0  0  0  0
  5 11  1  6  0  0  0
  5 18  1  0  0  0  0
  6  9  1  0  0  0  0
  7  2  1  6  0  0  0
  7  4  1  0  0  0  0
  7  5  1  0  0  0  0
 10 14  1  0  0  0  0
 10 15  2  0  0  0  0
 11 20  1  0  0  0  0
 12  8  1  0  0  0  0
 13 15  1  0  0  0  0
 14  3  2  0  0  0  0
 16  6  1  0  0  0  0
 17  6  2  0  0  0  0
 17  2  1  0  0  0  0
 18  8  1  0  0  0  0
 18 14  1  0  0  0  0
 19 13  2  0  0  0  0
 20 10  1  0  0  0  0
 21 22  1  0  0  0  0
 21  1  1  0  0  0  0
 22 23  1  0  0  0  0
 25 24  1  1  0  0  0
 25 22  1  0  0  0  0
 26 27  1  6  0  0  0
 26 25  1  0  0  0  0
 28 26  1  0  0  0  0
M  END
>  <MODEL>
4

>  <REMARK>
 VINA RESULT:      -8.2      2.527      5.537
  Name = 
  4 active torsions:
  status: ('A' for Active; 'I' for Inactive)
    1  A    between atoms: C_1  and  C_2
    2  A    between atoms: C_2  and  N_3
    3  A    between atoms: N_3  and  C_11
    4  A    between atoms: C_6  and  C_11
                            x       y       z     vdW  Elec       q    Type
                         _______ _______ _______ _____ _____    ______ ____

>  <TORSDO>
F 4

$$$$
=
 OpenBabel11052422553D

 28 31  0  0  1  0  0  0  0  0999 V2000
  161.5600  202.6650  148.3120 C   0  0  0  0  0  0  0  0  0  0  0  0
  161.5250  207.9780  148.6370 C   0  0  0  0  0  2  0  0  0  0  0  0
  160.5590  203.6670  152.8820 O   0  0  0  0  0  0  0  0  0  0  0  0
  161.2130  208.3210  151.0760 C   0  0  2  0  0  3  0  0  0  0  0  0
  161.0950  205.9780  150.0880 C   0  0  1  0  0  3  0  0  0  0  0  0
  162.2020  210.1630  149.6350 C   0  0  0  0  0  0  0  0  0  0  0  0
  161.7630  207.3600  150.0140 C   0  0  1  0  0  3  0  0  0  0  0  0
  160.5520  206.4240  152.5210 C   0  0  0  0  0  2  0  0  0  0  0  0
  161.9770  209.6450  151.0350 C   0  0  0  0  0  2  0  0  0  0  0  0
  160.9730  203.1330  150.6150 C   0  0  0  0  0  0  0  0  0  0  0  0
  161.9090  205.0040  149.2270 C   0  0  0  0  0  2  0  0  0  0  0  0
  161.3560  207.7100  152.4580 C   0  0  0  0  0  2  0  0  0  0  0  0
  160.6950  200.9350  149.7590 C   0  0  0  0  0  3  0  0  0  0  0  0
  160.8310  204.0870  151.7240 C   0  0  0  0  0  0  0  0  0  0  0  0
  160.6120  201.8310  150.7770 N   0  0  0  0  0  0  0  0  0  0  0  0
  162.7060  211.4130  149.4770 F   0  0  0  0  0  0  0  0  0  0  0  0
  162.0720  209.3780  148.5550 C   0  0  0  0  0  3  0  0  0  0  0  0
  160.9880  205.4960  151.4780 N   0  0  0  0  0  0  0  0  0  0  0  0
  161.1660  201.3380  148.5090 C   0  0  0  0  0  3  0  0  0  0  0  0
  161.4430  203.5840  149.3710 C   0  0  0  0  0  0  0  0  0  0  0  0
  162.0750  203.0860  146.9550 C   0  0  0  0  0  2  0  0  0  0  0  0
  161.0140  203.3820  145.9790 N   0  0  0  0  0  0  0  0  0  0  0  0
  160.5490  202.2040  145.4900 O   0  0  0  0  0  1  0  0  0  0  0  0
  162.8960  204.7780  145.2600 C   0  0  0  0  0  1  0  0  0  0  0  0
  161.5380  204.2080  144.8780 C   0  0  2  0  0  3  0  0  0  0  0  0
  160.6240  205.3840  144.5110 C   0  0  1  0  0  3  0  0  0  0  0  0
  160.2560  206.2030  145.7340 C   0  0  0  0  0  1  0  0  0  0  0  0
  161.2060  206.2000  143.5370 O   0  0  0  0  0  1  0  0  0  0  0  0
  1 19  2  0  0  0  0
  1 20  1  0  0  0  0
  4  9  1  1  0  0  0
  4 12  1  0  0  0  0
  5 11  1  6  0  0  0
  5 18  1  0  0  0  0
  6  9  1  0  0  0  0
  7  2  1  6  0  0  0
  7  5  1  0  0  0  0
  7  4  1  0  0  0  0
 10 15  1  0  0  0  0
 10 14  1  0  0  0  0
 11 20  1  0  0  0  0
 12  8  1  0  0  0  0
 13 15  2  0  0  0  0
 14  3  2  0  0  0  0
 16  6  1  0  0  0  0
 17  2  1  0  0  0  0
 17  6  2  0  0  0  0
 18 14  1  0  0  0  0
 18  8  1  0  0  0  0
 19 13  1  0  0  0  0
 20 10  2  0  0  0  0
 21  1  1  0  0  0  0
 22 21  1  0  0  0  0
 23 22  1  0  0  0  0
 25 24  1  1  0  0  0
 25 22  1  0  0  0  0
 26 25  1  0  0  0  0
 26 27  1  1  0  0  0
 28 26  1  0  0  0  0
M  END
>  <MODEL>
5

>  <REMARK>
 VINA RESULT:      -7.9      3.531      8.206
  Name = 
  4 active torsions:
  status: ('A' for Active; 'I' for Inactive)
    1  A    between atoms: C_1  and  C_2
    2  A    between atoms: C_2  and  N_3
    3  A    between atoms: N_3  and  C_11
    4  A    between atoms: C_6  and  C_11
                            x       y       z     vdW  Elec       q    Type
                         _______ _______ _______ _____ _____    ______ ____

>  <TORSDO>
F 4

$$$$
=
 OpenBabel11052422553D

 28 31  0  0  1  0  0  0  0  0999 V2000
  161.0970  207.7460  152.0580 C   0  0  0  0  0  0  0  0  0  0  0  0
  162.0390  206.1390  147.0710 C   0  0  0  0  0  2  0  0  0  0  0  0
  160.8440  202.9690  152.1760 O   0  0  0  0  0  0  0  0  0  0  0  0
  161.6600  203.6940  147.2610 C   0  0  2  0  0  3  0  0  0  0  0  0
  161.6230  205.1590  149.3420 C   0  0  1  0  0  3  0  0  0  0  0  0
  161.5190  204.8440  145.0020 C   0  0  0  0  0  0  0  0  0  0  0  0
  161.2840  205.0600  147.8460 C   0  0  1  0  0  3  0  0  0  0  0  0
  161.4810  202.6350  149.4910 C   0  0  0  0  0  2  0  0  0  0  0  0
  161.2090  203.6020  145.8030 C   0  0  0  0  0  2  0  0  0  0  0  0
  161.0390  205.3270  152.1740 C   0  0  0  0  0  0  0  0  0  0  0  0
  160.9380  206.4080  149.9090 C   0  0  0  0  0  2  0  0  0  0  0  0
  160.9940  202.5840  148.0550 C   0  0  0  0  0  2  0  0  0  0  0  0
  161.1400  206.5940  154.1800 C   0  0  0  0  0  3  0  0  0  0  0  0
  161.0180  204.0200  151.5010 C   0  0  0  0  0  0  0  0  0  0  0  0
  161.0810  205.4010  153.5320 N   0  0  0  0  0  0  0  0  0  0  0  0
  161.3330  204.8150  143.6580 F   0  0  0  0  0  0  0  0  0  0  0  0
  161.8180  206.0130  145.5880 C   0  0  0  0  0  3  0  0  0  0  0  0
  161.2130  203.9470  150.0770 N   0  0  0  0  0  0  0  0  0  0  0  0
  161.1540  207.7840  153.4540 C   0  0  0  0  0  3  0  0  0  0  0  0
  161.0600  206.5010  151.4040 C   0  0  0  0  0  0  0  0  0  0  0  0
  161.1050  209.0440  151.2840 C   0  0  0  0  0  2  0  0  0  0  0  0
  161.4030  210.2270  152.1070 N   0  0  0  0  0  0  0  0  0  0  0  0
  162.6220  210.0500  152.6770 O   0  0  0  0  0  1  0  0  0  0  0  0
  159.1400  211.0530  152.5650 C   0  0  0  0  0  1  0  0  0  0  0  0
  160.3810  210.4000  153.1550 C   0  0  2  0  0  3  0  0  0  0  0  0
  160.8540  211.2710  154.3270 C   0  0  1  0  0  3  0  0  0  0  0  0
  159.8580  212.3730  154.6360 C   0  0  0  0  0  1  0  0  0  0  0  0
  161.0980  210.5030  155.4680 O   0  0  0  0  0  1  0  0  0  0  0  0
  1 19  1  0  0  0  0
  4  9  1  6  0  0  0
  4  7  1  0  0  0  0
  4 12  1  0  0  0  0
  5 11  1  1  0  0  0
  5 18  1  0  0  0  0
  6 17  2  0  0  0  0
  6  9  1  0  0  0  0
  7  2  1  6  0  0  0
  7  5  1  0  0  0  0
  8 18  1  0  0  0  0
 10 15  2  0  0  0  0
 11 20  1  0  0  0  0
 12  8  1  0  0  0  0
 14 10  1  0  0  0  0
 14  3  2  0  0  0  0
 15 13  1  0  0  0  0
 16  6  1  0  0  0  0
 17  2  1  0  0  0  0
 18 14  1  0  0  0  0
 19 13  2  0  0  0  0
 20  1  2  0  0  0  0
 20 10  1  0  0  0  0
 21  1  1  0  0  0  0
 21 22  1  0  0  0  0
 22 23  1  0  0  0  0
 22 25  1  0  0  0  0
 25 24  1  6  0  0  0
 25 26  1  0  0  0  0
 26 27  1  1  0  0  0
 26 28  1  0  0  0  0
M  END
>  <MODEL>
6

>  <REMARK>
 VINA RESULT:      -7.8      2.345      3.991
  Name = 
  4 active torsions:
  status: ('A' for Active; 'I' for Inactive)
    1  A    between atoms: C_1  and  C_2
    2  A    between atoms: C_2  and  N_3
    3  A    between atoms: N_3  and  C_11
    4  A    between atoms: C_6  and  C_11
                            x       y       z     vdW  Elec       q    Type
                         _______ _______ _______ _____ _____    ______ ____

>  <TORSDO>
F 4

$$$$
=
 OpenBabel11052422553D

 28 31  0  0  1  0  0  0  0  0999 V2000
  161.1570  204.7900  148.2090 C   0  0  0  0  0  0  0  0  0  0  0  0
  161.1190  206.2210  153.3360 C   0  0  0  0  0  2  0  0  0  0  0  0
  162.3720  209.4180  148.2610 O   0  0  0  0  0  0  0  0  0  0  0  0
  161.5480  208.6610  153.1690 C   0  0  2  0  0  3  0  0  0  0  0  0
  161.6550  207.1990  151.0890 C   0  0  1  0  0  3  0  0  0  0  0  0
  160.4560  207.6860  155.2450 C   0  0  0  0  0  0  0  0  0  0  0  0
  160.9620  207.4480  152.4370 C   0  0  1  0  0  3  0  0  0  0  0  0
  162.3130  209.6440  151.0310 C   0  0  0  0  0  2  0  0  0  0  0  0
  160.7610  208.9350  154.4520 C   0  0  0  0  0  2  0  0  0  0  0  0
  161.8520  207.1100  148.2010 C   0  0  0  0  0  0  0  0  0  0  0  0
  160.8150  206.1910  150.2950 C   0  0  0  0  0  2  0  0  0  0  0  0
  161.4860  209.8890  152.2800 C   0  0  0  0  0  2  0  0  0  0  0  0
  162.1230  205.8000  146.2390 C   0  0  0  0  0  3  0  0  0  0  0  0
  162.0340  208.3870  148.9050 C   0  0  0  0  0  0  0  0  0  0  0  0
  162.2430  206.9790  146.9040 N   0  0  0  0  0  0  0  0  0  0  0  0
  159.9240  207.8180  156.4860 F   0  0  0  0  0  0  0  0  0  0  0  0
  160.5450  206.4610  154.7060 C   0  0  0  0  0  3  0  0  0  0  0  0
  161.8420  208.4500  150.3300 N   0  0  0  0  0  0  0  0  0  0  0  0
  161.5830  204.6860  146.8810 C   0  0  0  0  0  3  0  0  0  0  0  0
  161.3120  206.0120  148.8880 C   0  0  0  0  0  0  0  0  0  0  0  0
  160.5670  203.5770  148.8900 C   0  0  0  0  0  2  0  0  0  0  0  0
  161.3710  202.3540  148.7340 N   0  0  0  0  0  0  0  0  0  0  0  0
  160.8240  201.6140  147.7370 O   0  0  0  0  0  1  0  0  0  0  0  0
  159.9910  201.0170  150.2570 C   0  0  0  0  0  1  0  0  0  0  0  0
  161.3800  201.5770  149.9860 C   0  0  2  0  0  3  0  0  0  0  0  0
  161.7980  202.4010  151.2110 C   0  0  1  0  0  3  0  0  0  0  0  0
  160.5940  202.8280  152.0290 C   0  0  0  0  0  1  0  0  0  0  0  0
  162.7060  201.7030  152.0110 O   0  0  0  0  0  1  0  0  0  0  0  0
  1 20  1  0  0  0  0
  1 21  1  0  0  0  0
  2 17  1  0  0  0  0
  3 14  2  0  0  0  0
  4 12  1  6  0  0  0
  4  9  1  0  0  0  0
  5 11  1  6  0  0  0
  5  7  1  0  0  0  0
  6 16  1  0  0  0  0
  7  4  1  0  0  0  0
  7  2  1  1  0  0  0
  8 12  1  0  0  0  0
  9  6  1  0  0  0  0
 10 20  2  0  0  0  0
 10 14  1  0  0  0  0
 13 19  1  0  0  0  0
 13 15  2  0  0  0  0
 14 18  1  0  0  0  0
 15 10  1  0  0  0  0
 17  6  2  0  0  0  0
 18  8  1  0  0  0  0
 18  5  1  0  0  0  0
 19  1  2  0  0  0  0
 20 11  1  0  0  0  0
 22 21  1  0  0  0  0
 22 25  1  0  0  0  0
 23 22  1  0  0  0  0
 25 24  1  1  0  0  0
 25 26  1  0  0  0  0
 26 28  1  0  0  0  0
 26 27  1  1  0  0  0
M  END
>  <MODEL>
7

>  <REMARK>
 VINA RESULT:      -7.8      3.141      6.532
  Name = 
  4 active torsions:
  status: ('A' for Active; 'I' for Inactive)
    1  A    between atoms: C_1  and  C_2
    2  A    between atoms: C_2  and  N_3
    3  A    between atoms: N_3  and  C_11
    4  A    between atoms: C_6  and  C_11
                            x       y       z     vdW  Elec       q    Type
                         _______ _______ _______ _____ _____    ______ ____

>  <TORSDO>
F 4

$$$$
=
 OpenBabel11052422553D

 28 31  0  0  1  0  0  0  0  0999 V2000
  160.9310  210.0650  153.2090 C   0  0  0  0  0  0  0  0  0  0  0  0
  161.6340  207.4830  148.6070 C   0  0  0  0  0  2  0  0  0  0  0  0
  161.1870  205.4270  154.3610 O   0  0  0  0  0  0  0  0  0  0  0  0
  161.5270  205.1170  149.3480 C   0  0  2  0  0  3  0  0  0  0  0  0
  161.5050  206.9960  151.0630 C   0  0  1  0  0  3  0  0  0  0  0  0
  161.0870  205.7250  146.9220 C   0  0  0  0  0  0  0  0  0  0  0  0
  161.0600  206.5420  149.6650 C   0  0  1  0  0  3  0  0  0  0  0  0
  161.6390  204.5640  151.7570 C   0  0  0  0  0  2  0  0  0  0  0  0
  160.9740  204.6690  147.9940 C   0  0  0  0  0  2  0  0  0  0  0  0
  161.1350  207.7340  153.8400 C   0  0  0  0  0  0  0  0  0  0  0  0
  160.7410  208.2770  151.4200 C   0  0  0  0  0  2  0  0  0  0  0  0
  161.0460  204.1570  150.4210 C   0  0  0  0  0  2  0  0  0  0  0  0
  161.2640  209.4160  155.5120 C   0  0  0  0  0  3  0  0  0  0  0  0
  161.1960  206.3140  153.4640 C   0  0  0  0  0  0  0  0  0  0  0  0
  161.2770  208.1090  155.1400 N   0  0  0  0  0  0  0  0  0  0  0  0
  160.7990  205.3850  145.6400 F   0  0  0  0  0  0  0  0  0  0  0  0
  161.3090  207.0160  147.2140 C   0  0  0  0  0  3  0  0  0  0  0  0
  161.2830  205.9460  152.0760 N   0  0  0  0  0  0  0  0  0  0  0  0
  161.0960  210.4140  154.5530 C   0  0  0  0  0  3  0  0  0  0  0  0
  160.9720  208.7070  152.8400 C   0  0  0  0  0  0  0  0  0  0  0  0
  160.7430  211.1560  152.1820 C   0  0  0  0  0  2  0  0  0  0  0  0
  159.7290  212.1560  152.5520 N   0  0  0  0  0  0  0  0  0  0  0  0
  158.5030  211.6120  152.3440 O   0  0  0  0  0  1  0  0  0  0  0  0
  158.8310  214.4000  152.1400 C   0  0  0  0  0  1  0  0  0  0  0  0
  159.8790  213.3740  151.7360 C   0  0  2  0  0  3  0  0  0  0  0  0
  159.7280  213.1190  150.2310 C   0  0  1  0  0  3  0  0  0  0  0  0
  158.5470  213.8780  149.6560 C   0  0  0  0  0  1  0  0  0  0  0  0
  160.8970  213.4430  149.5370 O   0  0  0  0  0  1  0  0  0  0  0  0
  1 19  1  0  0  0  0
  4  9  1  6  0  0  0
  4  7  1  0  0  0  0
  4 12  1  0  0  0  0
  5 11  1  1  0  0  0
  5 18  1  0  0  0  0
  6 17  2  0  0  0  0
  6  9  1  0  0  0  0
  7  2  1  6  0  0  0
  7  5  1  0  0  0  0
  8 18  1  0  0  0  0
 10 15  2  0  0  0  0
 11 20  1  0  0  0  0
 12  8  1  0  0  0  0
 14 10  1  0  0  0  0
 14  3  2  0  0  0  0
 15 13  1  0  0  0  0
 16  6  1  0  0  0  0
 17  2  1  0  0  0  0
 18 14  1  0  0  0  0
 19 13  2  0  0  0  0
 20  1  2  0  0  0  0
 20 10  1  0  0  0  0
 21 22  1  0  0  0  0
 21  1  1  0  0  0  0
 23 22  1  0  0  0  0
 25 24  1  1  0  0  0
 25 22  1  0  0  0  0
 26 27  1  6  0  0  0
 26 25  1  0  0  0  0
 28 26  1  0  0  0  0
M  END
>  <MODEL>
8

>  <REMARK>
 VINA RESULT:      -7.4      2.728      5.131
  Name = 
  4 active torsions:
  status: ('A' for Active; 'I' for Inactive)
    1  A    between atoms: C_1  and  C_2
    2  A    between atoms: C_2  and  N_3
    3  A    between atoms: N_3  and  C_11
    4  A    between atoms: C_6  and  C_11
                            x       y       z     vdW  Elec       q    Type
                         _______ _______ _______ _____ _____    ______ ____

>  <TORSDO>
F 4

$$$$
=
 OpenBabel11052422553D

 28 31  0  0  1  0  0  0  0  0999 V2000
  160.9980  210.4360  152.4120 C   0  0  0  0  0  0  0  0  0  0  0  0
  161.9290  206.7950  148.6410 C   0  0  0  0  0  2  0  0  0  0  0  0
  160.8070  206.2030  154.6350 O   0  0  0  0  0  0  0  0  0  0  0  0
  161.5810  204.6830  149.8990 C   0  0  2  0  0  3  0  0  0  0  0  0
  161.5400  206.9180  151.1160 C   0  0  1  0  0  3  0  0  0  0  0  0
  161.4110  204.7130  147.3650 C   0  0  0  0  0  0  0  0  0  0  0  0
  161.1920  206.1640  149.8230 C   0  0  1  0  0  3  0  0  0  0  0  0
  161.4310  204.7200  152.3690 C   0  0  0  0  0  2  0  0  0  0  0  0
  161.1230  203.9520  148.6370 C   0  0  0  0  0  2  0  0  0  0  0  0
  160.9720  208.3170  153.5870 C   0  0  0  0  0  0  0  0  0  0  0  0
  160.8420  208.2830  151.0800 C   0  0  0  0  0  2  0  0  0  0  0  0
  160.9350  204.0340  151.1090 C   0  0  0  0  0  2  0  0  0  0  0  0
  161.0700  210.3430  154.8250 C   0  0  0  0  0  3  0  0  0  0  0  0
  160.9640  206.8480  153.5630 C   0  0  0  0  0  0  0  0  0  0  0  0
  161.0220  208.9850  154.7720 N   0  0  0  0  0  0  0  0  0  0  0  0
  161.2170  204.0910  146.1750 F   0  0  0  0  0  0  0  0  0  0  0  0
  161.6990  206.0240  147.3700 C   0  0  0  0  0  3  0  0  0  0  0  0
  161.1500  206.1540  152.3170 N   0  0  0  0  0  0  0  0  0  0  0  0
  161.0640  211.0890  153.6470 C   0  0  0  0  0  3  0  0  0  0  0  0
  160.9730  209.0290  152.3770 C   0  0  0  0  0  0  0  0  0  0  0  0
  160.9850  211.2570  151.1440 C   0  0  0  0  0  2  0  0  0  0  0  0
  160.3000  212.5520  151.2790 N   0  0  0  0  0  0  0  0  0  0  0  0
  158.9840  212.3120  151.5090 O   0  0  0  0  0  1  0  0  0  0  0  0
  159.0880  213.7880  149.5420 C   0  0  0  0  0  1  0  0  0  0  0  0
  160.4540  213.3510  150.0500 C   0  0  2  0  0  3  0  0  0  0  0  0
  161.1540  212.5910  148.9150 C   0  0  1  0  0  3  0  0  0  0  0  0
  160.3020  212.5610  147.6600 C   0  0  0  0  0  1  0  0  0  0  0  0
  162.4110  213.1330  148.6360 O   0  0  0  0  0  1  0  0  0  0  0  0
  1 19  1  0  0  0  0
  4  9  1  6  0  0  0
  4 12  1  0  0  0  0
  5 11  1  6  0  0  0
  5 18  1  0  0  0  0
  6 17  2  0  0  0  0
  6  9  1  0  0  0  0
  7  2  1  6  0  0  0
  7  4  1  0  0  0  0
  7  5  1  0  0  0  0
 10 15  2  0  0  0  0
 11 20  1  0  0  0  0
 12  8  1  0  0  0  0
 14 10  1  0  0  0  0
 14  3  2  0  0  0  0
 15 13  1  0  0  0  0
 16  6  1  0  0  0  0
 17  2  1  0  0  0  0
 18  8  1  0  0  0  0
 18 14  1  0  0  0  0
 19 13  2  0  0  0  0
 20  1  2  0  0  0  0
 20 10  1  0  0  0  0
 21 22  1  0  0  0  0
 21  1  1  0  0  0  0
 22 23  1  0  0  0  0
 25 24  1  6  0  0  0
 25 22  1  0  0  0  0
 26 27  1  6  0  0  0
 26 25  1  0  0  0  0
 28 26  1  0  0  0  0
M  END
>  <MODEL>
9

>  <REMARK>
 VINA RESULT:      -7.4      2.507      5.323
  Name = 
  4 active torsions:
  status: ('A' for Active; 'I' for Inactive)
    1  A    between atoms: C_1  and  C_2
    2  A    between atoms: C_2  and  N_3
    3  A    between atoms: N_3  and  C_11
    4  A    between atoms: C_6  and  C_11
                            x       y       z     vdW  Elec       q    Type
                         _______ _______ _______ _____ _____    ______ ____

>  <TORSDO>
F 4

$$$$
