=
 OpenBabel11062408303D

 32 36  0  0  1  0  0  0  0  0999 V2000
  161.4740  209.1850  151.6190 O   0  0  0  0  0  0  0  0  0  0  0  0
  161.0340  207.0040  150.7790 C   0  0  0  0  0  0  0  0  0  0  0  0
  161.4670  210.1240  152.6950 C   0  0  2  0  0  3  0  0  0  0  0  0
  161.1830  207.8310  151.8200 C   0  0  0  0  0  0  0  0  0  0  0  0
  160.6000  205.5720  150.9940 C   0  0  1  0  0  3  0  0  0  0  0  0
  161.9500  206.1100  146.0910 C   0  0  0  0  0  3  0  0  0  0  0  0
  161.2530  207.4570  149.3960 C   0  0  0  0  0  2  0  0  0  0  0  0
  161.6870  204.2670  147.6390 C   0  0  0  0  0  3  0  0  0  0  0  0
  161.3890  205.1620  148.6720 C   0  0  0  0  0  0  0  0  0  0  0  0
  161.1090  207.3120  153.1610 N   0  0  0  0  0  0  0  0  0  0  0  0
  161.0830  204.6740  149.8830 C   0  0  0  0  0  2  0  0  0  0  0  0
  161.0400  205.8990  153.3950 C   0  0  0  0  0  3  0  0  0  0  0  0
  161.1300  208.2150  154.3070 C   0  0  0  0  0  2  0  0  0  0  0  0
  161.4080  206.5600  148.4120 C   0  0  0  0  0  0  0  0  0  0  0  0
  160.8870  205.0440  152.3800 C   0  0  0  0  0  0  0  0  0  0  0  0
  161.9410  209.4740  153.9990 C   0  0  0  0  0  2  0  0  0  0  0  0
  161.9640  204.7380  146.3530 C   0  0  0  0  0  3  0  0  0  0  0  0
  161.6780  207.0180  147.1190 C   0  0  0  0  0  3  0  0  0  0  0  0
  159.5890  210.9970  154.1570 N   0  0  0  0  0  2  0  0  0  0  0  0
  160.1120  210.7410  152.8510 C   0  0  0  0  0  0  0  0  0  0  0  0
  159.4540  211.0600  151.8250 O   0  0  0  0  0  0  0  0  0  0  0  0
  158.3590  213.0350  154.9590 C   0  0  2  0  0  0  0  0  0  0  0  0
  156.1070  211.5750  157.2100 O   0  0  0  0  0  0  0  0  0  0  0  0
  159.7340  213.3850  155.5160 C   0  0  0  0  0  1  0  0  0  0  0  0
  157.4740  210.7670  155.3930 C   0  0  0  0  0  2  0  0  0  0  0  0
  157.4190  213.0650  156.0180 O   0  0  0  0  0  0  0  0  0  0  0  0
  158.2780  211.5930  154.3870 C   0  0  2  0  0  3  0  0  0  0  0  0
  156.9300  211.8050  156.2870 C   0  0  0  0  0  0  0  0  0  0  0  0
  157.9850  214.0570  153.8930 C   0  0  0  0  0  2  0  0  0  0  0  0
  157.3730  213.4350  152.8010 O   0  0  0  0  0  1  0  0  0  0  0  0
  160.7460  203.5900  152.6870 C   0  0  0  0  0  2  0  0  0  0  0  0
  161.6970  202.8250  151.8990 N   0  0  0  0  0  1  0  0  0  0  0  0
  1  4  1  0  0  0  0
  1  3  1  0  0  0  0
  2  5  1  0  0  0  0
  2  4  2  0  0  0  0
  3 20  1  1  0  0  0
  3 16  1  0  0  0  0
  4 10  1  0  0  0  0
  5 11  1  6  0  0  0
  5 15  1  0  0  0  0
  6 17  2  0  0  0  0
  6 18  1  0  0  0  0
  7  2  1  0  0  0  0
  8  9  2  0  0  0  0
  9 11  1  0  0  0  0
 10 12  1  0  0  0  0
 10 13  1  0  0  0  0
 14  9  1  0  0  0  0
 14  7  1  0  0  0  0
 15 31  1  0  0  0  0
 15 12  2  0  0  0  0
 16 13  1  0  0  0  0
 17  8  1  0  0  0  0
 18 14  2  0  0  0  0
 20 19  1  0  0  0  0
 21 20  2  0  0  0  0
 22 24  1  1  0  0  0
 22 26  1  0  0  0  0
 25 28  1  0  0  0  0
 26 28  1  0  0  0  0
 27 19  1  1  0  0  0
 27 22  1  0  0  0  0
 27 25  1  0  0  0  0
 28 23  2  0  0  0  0
 29 22  1  0  0  0  0
 30 29  1  0  0  0  0
 32 31  1  0  0  0  0
M  END
>  <MODEL>
1

>  <REMARK>
 VINA RESULT:      -8.2      0.000      0.000
  Name = 
  4 active torsions:
  status: ('A' for Active; 'I' for Inactive)
    1  A    between atoms: C_3  and  C_22
    2  A    between atoms: C_4  and  C_24
    3  A    between atoms: C_13  and  C_29
    4  A    between atoms: N_16  and  C_20
                            x       y       z     vdW  Elec       q    Type
                         _______ _______ _______ _____ _____    ______ ____

>  <TORSDO>
F 4

$$$$
=
 OpenBabel11062408303D

 32 36  0  0  1  0  0  0  0  0999 V2000
  162.0150  207.0630  151.1530 O   0  0  0  0  0  0  0  0  0  0  0  0
  161.2520  205.3180  149.7270 C   0  0  0  0  0  0  0  0  0  0  0  0
  162.0930  207.6610  152.4470 C   0  0  2  0  0  3  0  0  0  0  0  0
  161.4660  205.7890  150.9610 C   0  0  0  0  0  0  0  0  0  0  0  0
  160.5480  203.9970  149.5230 C   0  0  1  0  0  3  0  0  0  0  0  0
  162.3620  205.5510  145.0020 C   0  0  0  0  0  3  0  0  0  0  0  0
  161.6600  206.0730  148.5310 C   0  0  0  0  0  2  0  0  0  0  0  0
  161.6420  203.4500  145.9680 C   0  0  0  0  0  3  0  0  0  0  0  0
  161.4310  204.0760  147.2000 C   0  0  0  0  0  0  0  0  0  0  0  0
  161.1900  204.9560  152.1020 N   0  0  0  0  0  0  0  0  0  0  0  0
  160.9460  203.3530  148.2200 C   0  0  0  0  0  2  0  0  0  0  0  0
  160.8450  203.5750  151.9320 C   0  0  0  0  0  3  0  0  0  0  0  0
  161.2850  205.4960  153.4540 C   0  0  0  0  0  2  0  0  0  0  0  0
  161.7270  205.4600  147.3410 C   0  0  0  0  0  0  0  0  0  0  0  0
  160.6210  203.0700  150.7150 C   0  0  0  0  0  0  0  0  0  0  0  0
  162.3350  206.6040  153.5300 C   0  0  0  0  0  2  0  0  0  0  0  0
  162.1040  204.1840  144.8720 C   0  0  0  0  0  3  0  0  0  0  0  0
  162.1800  206.1850  146.2340 C   0  0  0  0  0  3  0  0  0  0  0  0
  160.6180  208.9490  154.0560 N   0  0  0  0  0  2  0  0  0  0  0  0
  160.8660  208.4690  152.7330 C   0  0  0  0  0  0  0  0  0  0  0  0
  160.0750  208.7480  151.7930 O   0  0  0  0  0  0  0  0  0  0  0  0
  159.5260  211.2060  153.9040 C   0  0  2  0  0  0  0  0  0  0  0  0
  158.6750  211.7300  157.2610 O   0  0  0  0  0  0  0  0  0  0  0  0
  160.9340  211.6240  153.4940 C   0  0  0  0  0  1  0  0  0  0  0  0
  159.2740  209.8090  155.9290 C   0  0  0  0  0  2  0  0  0  0  0  0
  159.1190  211.9990  155.0050 O   0  0  0  0  0  0  0  0  0  0  0  0
  159.4450  209.7390  154.4100 C   0  0  2  0  0  3  0  0  0  0  0  0
  158.9930  211.2400  156.1470 C   0  0  0  0  0  0  0  0  0  0  0  0
  158.5870  211.4190  152.7240 C   0  0  0  0  0  2  0  0  0  0  0  0
  157.8540  212.5980  152.8790 O   0  0  0  0  0  1  0  0  0  0  0  0
  160.1920  201.6460  150.6000 C   0  0  0  0  0  2  0  0  0  0  0  0
  161.2680  200.8500  150.0370 N   0  0  0  0  0  1  0  0  0  0  0  0
  1  3  1  0  0  0  0
  2  4  2  0  0  0  0
  3 20  1  1  0  0  0
  3 16  1  0  0  0  0
  4  1  1  0  0  0  0
  4 10  1  0  0  0  0
  5 11  1  6  0  0  0
  5  2  1  0  0  0  0
  5 15  1  0  0  0  0
  6 18  1  0  0  0  0
  7  2  1  0  0  0  0
  8  9  2  0  0  0  0
  9 14  1  0  0  0  0
  9 11  1  0  0  0  0
 10 13  1  0  0  0  0
 12 10  1  0  0  0  0
 13 16  1  0  0  0  0
 14  7  1  0  0  0  0
 15 12  2  0  0  0  0
 17  6  2  0  0  0  0
 17  8  1  0  0  0  0
 18 14  2  0  0  0  0
 20 19  1  0  0  0  0
 21 20  2  0  0  0  0
 22 24  1  6  0  0  0
 22 27  1  0  0  0  0
 22 26  1  0  0  0  0
 25 28  1  0  0  0  0
 26 28  1  0  0  0  0
 27 19  1  1  0  0  0
 27 25  1  0  0  0  0
 28 23  2  0  0  0  0
 29 30  1  0  0  0  0
 29 22  1  0  0  0  0
 31 15  1  0  0  0  0
 32 31  1  0  0  0  0
M  END
>  <MODEL>
2

>  <REMARK>
 VINA RESULT:      -7.4      1.662      2.290
  Name = 
  4 active torsions:
  status: ('A' for Active; 'I' for Inactive)
    1  A    between atoms: C_3  and  C_22
    2  A    between atoms: C_4  and  C_24
    3  A    between atoms: C_13  and  C_29
    4  A    between atoms: N_16  and  C_20
                            x       y       z     vdW  Elec       q    Type
                         _______ _______ _______ _____ _____    ______ ____

>  <TORSDO>
F 4

$$$$
=
 OpenBabel11062408303D

 32 36  0  0  1  0  0  0  0  0999 V2000
  161.4730  208.7490  151.2560 O   0  0  0  0  0  0  0  0  0  0  0  0
  161.0250  206.5640  150.4290 C   0  0  0  0  0  0  0  0  0  0  0  0
  161.4990  209.6840  152.3350 C   0  0  2  0  0  3  0  0  0  0  0  0
  161.2080  207.3900  151.4650 C   0  0  0  0  0  0  0  0  0  0  0  0
  160.6190  205.1260  150.6570 C   0  0  1  0  0  3  0  0  0  0  0  0
  161.7540  205.6950  145.7030 C   0  0  0  0  0  3  0  0  0  0  0  0
  161.1800  207.0240  149.0390 C   0  0  0  0  0  2  0  0  0  0  0  0
  161.5790  203.8440  147.2550 C   0  0  0  0  0  3  0  0  0  0  0  0
  161.3140  204.7330  148.3020 C   0  0  0  0  0  0  0  0  0  0  0  0
  161.1970  206.8670  152.8070 N   0  0  0  0  0  0  0  0  0  0  0  0
  161.0660  204.2380  149.5240 C   0  0  0  0  0  2  0  0  0  0  0  0
  161.1560  205.4520  153.0390 C   0  0  0  0  0  3  0  0  0  0  0  0
  161.2550  207.7670  153.9530 C   0  0  0  0  0  2  0  0  0  0  0  0
  161.3040  206.1310  148.0460 C   0  0  0  0  0  0  0  0  0  0  0  0
  160.9710  204.5980  152.0280 C   0  0  0  0  0  0  0  0  0  0  0  0
  162.0370  209.0360  153.6150 C   0  0  0  0  0  2  0  0  0  0  0  0
  161.7960  204.3220  145.9600 C   0  0  0  0  0  3  0  0  0  0  0  0
  161.5140  206.5960  146.7440 C   0  0  0  0  0  3  0  0  0  0  0  0
  159.8290  211.5590  151.9860 N   0  0  0  0  0  2  0  0  0  0  0  0
  160.1440  210.2830  152.5500 C   0  0  0  0  0  0  0  0  0  0  0  0
  159.2790  209.6410  153.2030 O   0  0  0  0  0  0  0  0  0  0  0  0
  158.4420  213.5780  151.4320 C   0  0  2  0  0  0  0  0  0  0  0  0
  157.2880  214.4530  154.6210 O   0  0  0  0  0  0  0  0  0  0  0  0
  159.8020  214.1400  151.0320 C   0  0  0  0  0  1  0  0  0  0  0  0
  158.2460  212.4700  153.6350 C   0  0  0  0  0  2  0  0  0  0  0  0
  157.8490  214.4530  152.3750 O   0  0  0  0  0  0  0  0  0  0  0  0
  158.5330  212.2060  152.1560 C   0  0  2  0  0  3  0  0  0  0  0  0
  157.7510  213.8590  153.6140 C   0  0  0  0  0  0  0  0  0  0  0  0
  157.5680  213.4720  150.1890 C   0  0  0  0  0  2  0  0  0  0  0  0
  156.4320  214.2760  150.3100 O   0  0  0  0  0  1  0  0  0  0  0  0
  160.8620  203.1420  152.3360 C   0  0  0  0  0  2  0  0  0  0  0  0
  161.9470  202.4190  151.6960 N   0  0  0  0  0  1  0  0  0  0  0  0
  1  4  1  0  0  0  0
  1  3  1  0  0  0  0
  2  5  1  0  0  0  0
  2  4  2  0  0  0  0
  3 20  1  1  0  0  0
  3 16  1  0  0  0  0
  4 10  1  0  0  0  0
  5 11  1  6  0  0  0
  5 15  1  0  0  0  0
  6 17  2  0  0  0  0
  6 18  1  0  0  0  0
  7  2  1  0  0  0  0
  8  9  2  0  0  0  0
  9 11  1  0  0  0  0
 10 12  1  0  0  0  0
 10 13  1  0  0  0  0
 14  9  1  0  0  0  0
 14  7  1  0  0  0  0
 15 31  1  0  0  0  0
 15 12  2  0  0  0  0
 16 13  1  0  0  0  0
 17  8  1  0  0  0  0
 18 14  2  0  0  0  0
 19 20  1  0  0  0  0
 20 21  2  0  0  0  0
 22 24  1  6  0  0  0
 22 27  1  0  0  0  0
 22 26  1  0  0  0  0
 26 28  1  0  0  0  0
 27 19  1  1  0  0  0
 27 25  1  0  0  0  0
 28 25  1  0  0  0  0
 28 23  2  0  0  0  0
 29 30  1  0  0  0  0
 29 22  1  0  0  0  0
 32 31  1  0  0  0  0
M  END
>  <MODEL>
3

>  <REMARK>
 VINA RESULT:      -6.9      1.457      1.994
  Name = 
  4 active torsions:
  status: ('A' for Active; 'I' for Inactive)
    1  A    between atoms: C_3  and  C_22
    2  A    between atoms: C_4  and  C_24
    3  A    between atoms: C_13  and  C_29
    4  A    between atoms: N_16  and  C_20
                            x       y       z     vdW  Elec       q    Type
                         _______ _______ _______ _____ _____    ______ ____

>  <TORSDO>
F 4

$$$$
=
 OpenBabel11062408303D

 32 36  0  0  1  0  0  0  0  0999 V2000
  162.2620  209.6370  148.5550 O   0  0  0  0  0  0  0  0  0  0  0  0
  161.4360  207.4280  148.8660 C   0  0  0  0  0  0  0  0  0  0  0  0
  162.5020  210.9520  149.0550 C   0  0  2  0  0  3  0  0  0  0  0  0
  161.8100  208.6030  149.3840 C   0  0  0  0  0  0  0  0  0  0  0  0
  160.8340  206.3580  149.7480 C   0  0  1  0  0  3  0  0  0  0  0  0
  161.7050  204.3200  145.1410 C   0  0  0  0  0  3  0  0  0  0  0  0
  161.5630  207.1420  147.4280 C   0  0  0  0  0  2  0  0  0  0  0  0
  161.3590  203.4810  147.3860 C   0  0  0  0  0  3  0  0  0  0  0  0
  161.3010  204.7890  147.8780 C   0  0  0  0  0  0  0  0  0  0  0  0
  161.8110  208.7870  150.8120 N   0  0  0  0  0  0  0  0  0  0  0  0
  161.0650  204.9800  149.1840 C   0  0  0  0  0  2  0  0  0  0  0  0
  161.5730  207.6800  151.6920 C   0  0  0  0  0  3  0  0  0  0  0  0
  162.0810  210.0990  151.3900 C   0  0  0  0  0  2  0  0  0  0  0  0
  161.4850  205.8800  146.9840 C   0  0  0  0  0  0  0  0  0  0  0  0
  161.1940  206.4930  151.2100 C   0  0  0  0  0  0  0  0  0  0  0  0
  163.0210  210.9090  150.4960 C   0  0  0  0  0  2  0  0  0  0  0  0
  161.5570  203.2460  146.0230 C   0  0  0  0  0  3  0  0  0  0  0  0
  161.6740  205.6320  145.6210 C   0  0  0  0  0  3  0  0  0  0  0  0
  160.9930  212.7950  149.9240 N   0  0  0  0  0  2  0  0  0  0  0  0
  161.2700  211.7960  148.9400 C   0  0  0  0  0  0  0  0  0  0  0  0
  160.5010  211.6380  147.9550 O   0  0  0  0  0  0  0  0  0  0  0  0
  158.8040  213.3520  151.0230 C   0  0  2  0  0  0  0  0  0  0  0  0
  156.6680  213.3040  148.2480 O   0  0  0  0  0  0  0  0  0  0  0  0
  159.0480  212.0110  151.7070 C   0  0  0  0  0  1  0  0  0  0  0  0
  159.0550  213.4640  148.5650 C   0  0  0  0  0  2  0  0  0  0  0  0
  157.5350  213.3160  150.3940 O   0  0  0  0  0  0  0  0  0  0  0  0
  159.8130  213.6510  149.8800 C   0  0  2  0  0  3  0  0  0  0  0  0
  157.6570  213.3580  149.0230 C   0  0  0  0  0  0  0  0  0  0  0  0
  158.8420  214.4530  152.0740 C   0  0  0  0  0  2  0  0  0  0  0  0
  158.7410  213.9170  153.3600 O   0  0  0  0  0  1  0  0  0  0  0  0
  160.8870  205.3960  152.1740 C   0  0  0  0  0  2  0  0  0  0  0  0
  161.2910  205.7890  153.5140 N   0  0  0  0  0  1  0  0  0  0  0  0
  1  3  1  0  0  0  0
  1  4  1  0  0  0  0
  2  4  2  0  0  0  0
  2  5  1  0  0  0  0
  3 20  1  1  0  0  0
  3 16  1  0  0  0  0
  4 10  1  0  0  0  0
  5 11  1  6  0  0  0
  5 15  1  0  0  0  0
  6 18  2  0  0  0  0
  6 17  1  0  0  0  0
  7  2  1  0  0  0  0
  8  9  1  0  0  0  0
  9 11  1  0  0  0  0
 10 13  1  0  0  0  0
 10 12  1  0  0  0  0
 14  7  1  0  0  0  0
 14  9  2  0  0  0  0
 15 12  2  0  0  0  0
 15 31  1  0  0  0  0
 16 13  1  0  0  0  0
 17  8  2  0  0  0  0
 18 14  1  0  0  0  0
 20 19  1  0  0  0  0
 21 20  2  0  0  0  0
 22 24  1  1  0  0  0
 22 29  1  0  0  0  0
 23 28  2  0  0  0  0
 25 28  1  0  0  0  0
 25 27  1  0  0  0  0
 26 22  1  0  0  0  0
 27 19  1  6  0  0  0
 27 22  1  0  0  0  0
 28 26  1  0  0  0  0
 29 30  1  0  0  0  0
 31 32  1  0  0  0  0
M  END
>  <MODEL>
4

>  <REMARK>
 VINA RESULT:      -6.8      2.674      3.834
  Name = 
  4 active torsions:
  status: ('A' for Active; 'I' for Inactive)
    1  A    between atoms: C_3  and  C_22
    2  A    between atoms: C_4  and  C_24
    3  A    between atoms: C_13  and  C_29
    4  A    between atoms: N_16  and  C_20
                            x       y       z     vdW  Elec       q    Type
                         _______ _______ _______ _____ _____    ______ ____

>  <TORSDO>
F 4

$$$$
=
 OpenBabel11062408303D

 32 36  0  0  1  0  0  0  0  0999 V2000
  160.9880  209.8060  139.8680 O   0  0  0  0  0  0  0  0  0  0  0  0
  161.8730  211.9450  140.4160 C   0  0  0  0  0  0  0  0  0  0  0  0
  160.6490  208.8170  138.8960 C   0  0  2  0  0  3  0  0  0  0  0  0
  161.7100  210.9570  139.5290 C   0  0  0  0  0  0  0  0  0  0  0  0
  162.5450  213.2370  140.0100 C   0  0  1  0  0  3  0  0  0  0  0  0
  161.9130  213.2960  145.0840 C   0  0  0  0  0  3  0  0  0  0  0  0
  161.3830  211.8300  141.8000 C   0  0  0  0  0  2  0  0  0  0  0  0
  163.3150  214.4530  143.4830 C   0  0  0  0  0  3  0  0  0  0  0  0
  162.7840  213.6820  142.4450 C   0  0  0  0  0  0  0  0  0  0  0  0
  162.3350  211.0480  138.2350 N   0  0  0  0  0  0  0  0  0  0  0  0
  163.1900  213.9200  141.1890 C   0  0  0  0  0  2  0  0  0  0  0  0
  163.2610  212.1020  137.9440 C   0  0  0  0  0  3  0  0  0  0  0  0
  162.0570  210.0510  137.2070 C   0  0  0  0  0  2  0  0  0  0  0  0
  161.8250  212.6750  142.7410 C   0  0  0  0  0  0  0  0  0  0  0  0
  163.4470  213.1070  138.8050 C   0  0  0  0  0  0  0  0  0  0  0  0
  161.7440  208.6910  137.8310 C   0  0  0  0  0  2  0  0  0  0  0  0
  162.8800  214.2640  144.7980 C   0  0  0  0  0  3  0  0  0  0  0  0
  161.3920  212.5010  144.0590 C   0  0  0  0  0  3  0  0  0  0  0  0
  158.4120  210.0090  138.9310 N   0  0  0  0  0  2  0  0  0  0  0  0
  159.3170  209.1140  138.2810 C   0  0  0  0  0  0  0  0  0  0  0  0
  159.0170  208.5940  137.1730 O   0  0  0  0  0  0  0  0  0  0  0  0
  156.6780  211.8090  138.6900 C   0  0  2  0  0  0  0  0  0  0  0  0
  153.8220  210.0920  139.7660 O   0  0  0  0  0  0  0  0  0  0  0  0
  157.5160  212.4690  139.7790 C   0  0  0  0  0  1  0  0  0  0  0  0
  156.0180  209.4470  139.0030 C   0  0  0  0  0  2  0  0  0  0  0  0
  155.3360  211.7250  139.1380 O   0  0  0  0  0  0  0  0  0  0  0  0
  157.0980  210.3430  138.3950 C   0  0  2  0  0  3  0  0  0  0  0  0
  154.9580  210.4160  139.3360 C   0  0  0  0  0  0  0  0  0  0  0  0
  156.7600  212.6550  137.4260 C   0  0  0  0  0  2  0  0  0  0  0  0
  158.0220  213.2420  137.3020 O   0  0  0  0  0  1  0  0  0  0  0  0
  164.3670  214.2170  138.4180 C   0  0  0  0  0  2  0  0  0  0  0  0
  165.7470  213.7980  138.5900 N   0  0  0  0  0  1  0  0  0  0  0  0
  2  7  1  0  0  0  0
  3 20  1  6  0  0  0
  3  1  1  0  0  0  0
  4  1  1  0  0  0  0
  4  2  2  0  0  0  0
  5  2  1  0  0  0  0
  5 11  1  1  0  0  0
  7 14  1  0  0  0  0
  8 17  2  0  0  0  0
  9 14  2  0  0  0  0
  9  8  1  0  0  0  0
 10  4  1  0  0  0  0
 11  9  1  0  0  0  0
 12 10  1  0  0  0  0
 12 15  2  0  0  0  0
 13 16  1  0  0  0  0
 13 10  1  0  0  0  0
 14 18  1  0  0  0  0
 15  5  1  0  0  0  0
 16  3  1  0  0  0  0
 17  6  1  0  0  0  0
 18  6  2  0  0  0  0
 20 19  1  0  0  0  0
 21 20  2  0  0  0  0
 22 26  1  0  0  0  0
 22 24  1  1  0  0  0
 25 28  1  0  0  0  0
 26 28  1  0  0  0  0
 27 22  1  0  0  0  0
 27 19  1  1  0  0  0
 27 25  1  0  0  0  0
 28 23  2  0  0  0  0
 29 22  1  0  0  0  0
 30 29  1  0  0  0  0
 31 32  1  0  0  0  0
 31 15  1  0  0  0  0
M  END
>  <MODEL>
5

>  <REMARK>
 VINA RESULT:      -6.5     11.124     14.424
  Name = 
  4 active torsions:
  status: ('A' for Active; 'I' for Inactive)
    1  A    between atoms: C_3  and  C_22
    2  A    between atoms: C_4  and  C_24
    3  A    between atoms: C_13  and  C_29
    4  A    between atoms: N_16  and  C_20
                            x       y       z     vdW  Elec       q    Type
                         _______ _______ _______ _____ _____    ______ ____

>  <TORSDO>
F 4

$$$$
=
 OpenBabel11062408303D

 32 36  0  0  1  0  0  0  0  0999 V2000
  161.7600  209.4030  151.9830 O   0  0  0  0  0  0  0  0  0  0  0  0
  161.1180  207.2750  151.1350 C   0  0  0  0  0  0  0  0  0  0  0  0
  161.8860  210.3150  153.0740 C   0  0  2  0  0  3  0  0  0  0  0  0
  161.3890  208.0670  152.1790 C   0  0  0  0  0  0  0  0  0  0  0  0
  160.6010  205.8720  151.3510 C   0  0  1  0  0  3  0  0  0  0  0  0
  161.6740  206.4260  146.3830 C   0  0  0  0  0  3  0  0  0  0  0  0
  161.2800  207.7430  149.7480 C   0  0  0  0  0  2  0  0  0  0  0  0
  161.3810  204.5700  147.9110 C   0  0  0  0  0  3  0  0  0  0  0  0
  161.2110  205.4610  148.9760 C   0  0  0  0  0  0  0  0  0  0  0  0
  161.3640  207.5250  153.5120 N   0  0  0  0  0  0  0  0  0  0  0  0
  160.9500  204.9680  150.1960 C   0  0  0  0  0  2  0  0  0  0  0  0
  161.2120  206.1150  153.7250 C   0  0  0  0  0  3  0  0  0  0  0  0
  161.5200  208.3990  154.6700 C   0  0  0  0  0  2  0  0  0  0  0  0
  161.3110  206.8590  148.7410 C   0  0  0  0  0  0  0  0  0  0  0  0
  160.9370  205.2950  152.7070 C   0  0  0  0  0  0  0  0  0  0  0  0
  162.3950  209.6060  154.3330 C   0  0  0  0  0  2  0  0  0  0  0  0
  161.6090  205.0500  146.6190 C   0  0  0  0  0  3  0  0  0  0  0  0
  161.5310  207.3270  147.4410 C   0  0  0  0  0  3  0  0  0  0  0  0
  160.4540  211.8820  154.4590 N   0  0  0  0  0  2  0  0  0  0  0  0
  160.5890  211.0200  153.3270 C   0  0  0  0  0  0  0  0  0  0  0  0
  159.6340  210.8700  152.5200 O   0  0  0  0  0  0  0  0  0  0  0  0
  158.2660  211.7870  155.6880 C   0  0  2  0  0  0  0  0  0  0  0  0
  156.0610  212.7420  153.1400 O   0  0  0  0  0  0  0  0  0  0  0  0
  158.6110  210.3040  155.7580 C   0  0  0  0  0  1  0  0  0  0  0  0
  158.4410  212.9190  153.4970 C   0  0  0  0  0  2  0  0  0  0  0  0
  156.9850  211.9280  155.1000 O   0  0  0  0  0  0  0  0  0  0  0  0
  159.2230  212.5990  154.7720 C   0  0  2  0  0  3  0  0  0  0  0  0
  157.0660  212.5400  153.8690 C   0  0  0  0  0  0  0  0  0  0  0  0
  158.2640  212.3580  157.1010 C   0  0  0  0  0  2  0  0  0  0  0  0
  158.8840  213.6090  157.1330 O   0  0  0  0  0  1  0  0  0  0  0  0
  160.7150  203.8480  152.9960 C   0  0  0  0  0  2  0  0  0  0  0  0
  161.4150  203.0350  152.0160 N   0  0  0  0  0  1  0  0  0  0  0  0
  1  4  1  0  0  0  0
  1  3  1  0  0  0  0
  2  5  1  0  0  0  0
  2  4  2  0  0  0  0
  3 20  1  1  0  0  0
  3 16  1  0  0  0  0
  4 10  1  0  0  0  0
  5 11  1  6  0  0  0
  5 15  1  0  0  0  0
  6 17  2  0  0  0  0
  6 18  1  0  0  0  0
  7  2  1  0  0  0  0
  8  9  2  0  0  0  0
  9 11  1  0  0  0  0
 10 12  1  0  0  0  0
 10 13  1  0  0  0  0
 14  9  1  0  0  0  0
 14  7  1  0  0  0  0
 15 31  1  0  0  0  0
 15 12  2  0  0  0  0
 16 13  1  0  0  0  0
 17  8  1  0  0  0  0
 18 14  2  0  0  0  0
 20 19  1  0  0  0  0
 21 20  2  0  0  0  0
 22 24  1  1  0  0  0
 22 29  1  0  0  0  0
 23 28  2  0  0  0  0
 25 28  1  0  0  0  0
 25 27  1  0  0  0  0
 26 22  1  0  0  0  0
 27 19  1  6  0  0  0
 27 22  1  0  0  0  0
 28 26  1  0  0  0  0
 29 30  1  0  0  0  0
 32 31  1  0  0  0  0
M  END
>  <MODEL>
6

>  <REMARK>
 VINA RESULT:      -6.0      0.920      1.700
  Name = 
  4 active torsions:
  status: ('A' for Active; 'I' for Inactive)
    1  A    between atoms: C_3  and  C_22
    2  A    between atoms: C_4  and  C_24
    3  A    between atoms: C_13  and  C_29
    4  A    between atoms: N_16  and  C_20
                            x       y       z     vdW  Elec       q    Type
                         _______ _______ _______ _____ _____    ______ ____

>  <TORSDO>
F 4

$$$$
=
 OpenBabel11062408303D

 32 36  0  0  1  0  0  0  0  0999 V2000
  161.8080  210.8590  154.4790 O   0  0  0  0  0  0  0  0  0  0  0  0
  161.3230  209.0340  153.0330 C   0  0  0  0  0  0  0  0  0  0  0  0
  161.7910  211.4490  155.7800 C   0  0  2  0  0  3  0  0  0  0  0  0
  161.4600  209.5190  154.2730 C   0  0  0  0  0  0  0  0  0  0  0  0
  160.8290  207.6230  152.8120 C   0  0  1  0  0  3  0  0  0  0  0  0
  162.3990  209.4830  148.3160 C   0  0  0  0  0  3  0  0  0  0  0  0
  161.6160  209.8550  151.8460 C   0  0  0  0  0  2  0  0  0  0  0  0
  162.0040  207.2870  149.2570 C   0  0  0  0  0  3  0  0  0  0  0  0
  161.6970  207.8610  150.4950 C   0  0  0  0  0  0  0  0  0  0  0  0
  161.3110  208.6410  155.4040 N   0  0  0  0  0  0  0  0  0  0  0  0
  161.3240  207.0610  151.5040 C   0  0  0  0  0  2  0  0  0  0  0  0
  161.1810  207.2260  155.2180 C   0  0  0  0  0  3  0  0  0  0  0  0
  161.3180  209.1750  156.7620 C   0  0  0  0  0  2  0  0  0  0  0  0
  161.7780  209.2720  150.6500 C   0  0  0  0  0  0  0  0  0  0  0  0
  161.0390  206.7060  153.9950 C   0  0  0  0  0  0  0  0  0  0  0  0
  162.1870  210.4300  156.8540 C   0  0  0  0  0  2  0  0  0  0  0  0
  162.3520  208.0940  148.1700 C   0  0  0  0  0  3  0  0  0  0  0  0
  162.1180  210.0690  149.5530 C   0  0  0  0  0  3  0  0  0  0  0  0
  159.6240  212.5040  154.9930 N   0  0  0  0  0  2  0  0  0  0  0  0
  160.4540  212.0580  156.0680 C   0  0  0  0  0  0  0  0  0  0  0  0
  160.0570  212.1440  157.2610 O   0  0  0  0  0  0  0  0  0  0  0  0
  157.1570  212.0710  155.1760 C   0  0  2  0  0  0  0  0  0  0  0  0
  155.9230  214.4530  152.9250 O   0  0  0  0  0  0  0  0  0  0  0  0
  157.5630  210.7280  154.5790 C   0  0  0  0  0  1  0  0  0  0  0  0
  158.0080  214.1270  154.0970 C   0  0  0  0  0  2  0  0  0  0  0  0
  156.1570  212.6490  154.3560 O   0  0  0  0  0  0  0  0  0  0  0  0
  158.3130  213.1090  155.1960 C   0  0  2  0  0  3  0  0  0  0  0  0
  156.6200  213.7850  153.7310 C   0  0  0  0  0  0  0  0  0  0  0  0
  156.6190  211.8400  156.5820 C   0  0  0  0  0  2  0  0  0  0  0  0
  155.4000  211.1580  156.5420 O   0  0  0  0  0  1  0  0  0  0  0  0
  160.8320  205.2340  153.8650 C   0  0  0  0  0  2  0  0  0  0  0  0
  161.5020  204.7450  152.6720 N   0  0  0  0  0  1  0  0  0  0  0  0
  1  3  1  0  0  0  0
  2  4  2  0  0  0  0
  3 20  1  1  0  0  0
  3 16  1  0  0  0  0
  4  1  1  0  0  0  0
  4 10  1  0  0  0  0
  5 11  1  6  0  0  0
  5  2  1  0  0  0  0
  5 15  1  0  0  0  0
  6 18  1  0  0  0  0
  7  2  1  0  0  0  0
  8  9  2  0  0  0  0
  9 14  1  0  0  0  0
  9 11  1  0  0  0  0
 10 13  1  0  0  0  0
 12 10  1  0  0  0  0
 13 16  1  0  0  0  0
 14  7  1  0  0  0  0
 15 12  2  0  0  0  0
 17  6  2  0  0  0  0
 17  8  1  0  0  0  0
 18 14  2  0  0  0  0
 19 20  1  0  0  0  0
 20 21  2  0  0  0  0
 22 24  1  6  0  0  0
 22 27  1  0  0  0  0
 22 29  1  0  0  0  0
 23 28  2  0  0  0  0
 25 27  1  0  0  0  0
 26 22  1  0  0  0  0
 27 19  1  6  0  0  0
 28 25  1  0  0  0  0
 28 26  1  0  0  0  0
 30 29  1  0  0  0  0
 31 15  1  0  0  0  0
 32 31  1  0  0  0  0
M  END
>  <MODEL>
7

>  <REMARK>
 VINA RESULT:      -5.8      1.958      3.300
  Name = 
  4 active torsions:
  status: ('A' for Active; 'I' for Inactive)
    1  A    between atoms: C_3  and  C_22
    2  A    between atoms: C_4  and  C_24
    3  A    between atoms: C_13  and  C_29
    4  A    between atoms: N_16  and  C_20
                            x       y       z     vdW  Elec       q    Type
                         _______ _______ _______ _____ _____    ______ ____

>  <TORSDO>
F 4

$$$$
=
 OpenBabel11062408303D

 32 36  0  0  1  0  0  0  0  0999 V2000
  162.1850  208.0230  150.7880 O   0  0  0  0  0  0  0  0  0  0  0  0
  160.8240  209.3100  152.2550 C   0  0  0  0  0  0  0  0  0  0  0  0
  162.7120  207.7750  149.4850 C   0  0  2  0  0  3  0  0  0  0  0  0
  161.4470  209.1770  151.0780 C   0  0  0  0  0  0  0  0  0  0  0  0
  159.9290  210.4990  152.5190 C   0  0  1  0  0  3  0  0  0  0  0  0
  160.5300  207.9520  156.9110 C   0  0  0  0  0  3  0  0  0  0  0  0
  160.9590  208.3000  153.3180 C   0  0  0  0  0  2  0  0  0  0  0  0
  159.8620  210.1880  156.2650 C   0  0  0  0  0  3  0  0  0  0  0  0
  160.1010  209.8830  154.9210 C   0  0  0  0  0  0  0  0  0  0  0  0
  161.4120  210.2550  150.1250 N   0  0  0  0  0  0  0  0  0  0  0  0
  159.8450  210.8130  153.9900 C   0  0  0  0  0  2  0  0  0  0  0  0
  160.8600  211.5290  150.4830 C   0  0  0  0  0  3  0  0  0  0  0  0
  161.9640  210.0790  148.7860 C   0  0  0  0  0  2  0  0  0  0  0  0
  160.5980  208.5960  154.5740 C   0  0  0  0  0  0  0  0  0  0  0  0
  160.2280  211.6980  151.6490 C   0  0  0  0  0  0  0  0  0  0  0  0
  163.1230  209.0810  148.7970 C   0  0  0  0  0  2  0  0  0  0  0  0
  160.0730  209.2270  157.2570 C   0  0  0  0  0  3  0  0  0  0  0  0
  160.7970  207.6400  155.5750 C   0  0  0  0  0  3  0  0  0  0  0  0
  162.1790  206.3100  147.4860 N   0  0  0  0  0  2  0  0  0  0  0  0
  161.7350  207.0020  148.6550 C   0  0  0  0  0  0  0  0  0  0  0  0
  160.5290  206.9420  149.0150 O   0  0  0  0  0  0  0  0  0  0  0  0
  161.8920  204.1780  146.1890 C   0  0  2  0  0  0  0  0  0  0  0  0
  160.8540  205.4500  143.0950 O   0  0  0  0  0  0  0  0  0  0  0  0
  163.3980  204.0910  146.4090 C   0  0  0  0  0  1  0  0  0  0  0  0
  160.9640  206.3100  145.3470 C   0  0  0  0  0  2  0  0  0  0  0  0
  161.6300  204.0890  144.8000 O   0  0  0  0  0  0  0  0  0  0  0  0
  161.2860  205.5400  146.6290 C   0  0  2  0  0  3  0  0  0  0  0  0
  161.1300  205.2750  144.3100 C   0  0  0  0  0  0  0  0  0  0  0  0
  161.2200  203.0280  146.9280 C   0  0  0  0  0  2  0  0  0  0  0  0
  161.2020  203.2650  148.3050 O   0  0  0  0  0  1  0  0  0  0  0  0
  159.6070  213.0230  151.9390 C   0  0  0  0  0  2  0  0  0  0  0  0
  158.2080  213.0090  151.5480 N   0  0  0  0  0  1  0  0  0  0  0  0
  1  4  1  0  0  0  0
  2  5  1  0  0  0  0
  2  7  1  0  0  0  0
  3 20  1  6  0  0  0
  3  1  1  0  0  0  0
  4  2  2  0  0  0  0
  5 11  1  1  0  0  0
  6 17  1  0  0  0  0
  7 14  1  0  0  0  0
  8 17  2  0  0  0  0
  9  8  1  0  0  0  0
 10 12  1  0  0  0  0
 10  4  1  0  0  0  0
 11  9  1  0  0  0  0
 12 15  2  0  0  0  0
 13 16  1  0  0  0  0
 13 10  1  0  0  0  0
 14  9  2  0  0  0  0
 14 18  1  0  0  0  0
 15 31  1  0  0  0  0
 15  5  1  0  0  0  0
 16  3  1  0  0  0  0
 18  6  2  0  0  0  0
 19 20  1  0  0  0  0
 20 21  2  0  0  0  0
 22 24  1  1  0  0  0
 22 27  1  0  0  0  0
 22 29  1  0  0  0  0
 23 28  2  0  0  0  0
 25 27  1  0  0  0  0
 26 22  1  0  0  0  0
 27 19  1  1  0  0  0
 28 26  1  0  0  0  0
 28 25  1  0  0  0  0
 29 30  1  0  0  0  0
 32 31  1  0  0  0  0
M  END
>  <MODEL>
8

>  <REMARK>
 VINA RESULT:      -5.7      3.668      9.334
  Name = 
  4 active torsions:
  status: ('A' for Active; 'I' for Inactive)
    1  A    between atoms: C_3  and  C_22
    2  A    between atoms: C_4  and  C_24
    3  A    between atoms: C_13  and  C_29
    4  A    between atoms: N_16  and  C_20
                            x       y       z     vdW  Elec       q    Type
                         _______ _______ _______ _____ _____    ______ ____

>  <TORSDO>
F 4

$$$$
=
 OpenBabel11062408303D

 32 36  0  0  1  0  0  0  0  0999 V2000
  160.3260  210.0210  154.1650 O   0  0  0  0  0  0  0  0  0  0  0  0
  158.6430  211.6270  153.6660 C   0  0  0  0  0  0  0  0  0  0  0  0
  161.4060  209.1880  153.7460 C   0  0  2  0  0  3  0  0  0  0  0  0
  159.7560  210.9740  153.3120 C   0  0  0  0  0  0  0  0  0  0  0  0
  157.9620  212.5640  152.6950 C   0  0  1  0  0  3  0  0  0  0  0  0
  155.7240  213.0990  157.2610 C   0  0  0  0  0  3  0  0  0  0  0  0
  158.0250  211.4380  154.9890 C   0  0  0  0  0  2  0  0  0  0  0  0
  155.8900  214.4100  155.2310 C   0  0  0  0  0  3  0  0  0  0  0  0
  156.7400  213.4520  154.6700 C   0  0  0  0  0  0  0  0  0  0  0  0
  160.4120  211.3000  152.0720 N   0  0  0  0  0  0  0  0  0  0  0  0
  157.1750  213.6300  153.4140 C   0  0  0  0  0  2  0  0  0  0  0  0
  159.9820  212.4240  151.2920 C   0  0  0  0  0  3  0  0  0  0  0  0
  161.5440  210.5090  151.6030 C   0  0  0  0  0  2  0  0  0  0  0  0
  157.1160  212.3150  155.4360 C   0  0  0  0  0  0  0  0  0  0  0  0
  158.8740  213.0970  151.6130 C   0  0  0  0  0  0  0  0  0  0  0  0
  162.3330  209.9290  152.7770 C   0  0  0  0  0  2  0  0  0  0  0  0
  155.3810  214.2340  156.5210 C   0  0  0  0  0  3  0  0  0  0  0  0
  156.5930  212.1460  156.7220 C   0  0  0  0  0  3  0  0  0  0  0  0
  161.1380  207.6220  151.7700 N   0  0  0  0  0  2  0  0  0  0  0  0
  160.8930  207.9150  153.1480 C   0  0  0  0  0  0  0  0  0  0  0  0
  160.2730  207.0940  153.8750 O   0  0  0  0  0  0  0  0  0  0  0  0
  161.6010  205.1880  151.3610 C   0  0  2  0  0  0  0  0  0  0  0  0
  161.2570  205.0490  147.8790 O   0  0  0  0  0  0  0  0  0  0  0  0
  162.9780  205.5790  151.8860 C   0  0  0  0  0  1  0  0  0  0  0  0
  160.5840  206.5980  149.6030 C   0  0  0  0  0  2  0  0  0  0  0  0
  161.7550  204.5810  150.0900 O   0  0  0  0  0  0  0  0  0  0  0  0
  160.6680  206.4060  151.1180 C   0  0  2  0  0  3  0  0  0  0  0  0
  161.2110  205.3630  149.0960 C   0  0  0  0  0  0  0  0  0  0  0  0
  160.9630  204.2100  152.3390 C   0  0  0  0  0  2  0  0  0  0  0  0
  161.2370  202.8900  151.9720 O   0  0  0  0  0  1  0  0  0  0  0  0
  158.4320  214.2100  150.7240 C   0  0  0  0  0  2  0  0  0  0  0  0
  157.5270  213.7010  149.7080 N   0  0  0  0  0  1  0  0  0  0  0  0
  2  7  1  0  0  0  0
  3 20  1  6  0  0  0
  3  1  1  0  0  0  0
  4  2  2  0  0  0  0
  4  1  1  0  0  0  0
  5 11  1  1  0  0  0
  5  2  1  0  0  0  0
  7 14  1  0  0  0  0
  8 17  1  0  0  0  0
  9  8  2  0  0  0  0
  9 14  1  0  0  0  0
 10  4  1  0  0  0  0
 11  9  1  0  0  0  0
 12 15  2  0  0  0  0
 12 10  1  0  0  0  0
 13 10  1  0  0  0  0
 13 16  1  0  0  0  0
 14 18  2  0  0  0  0
 15  5  1  0  0  0  0
 16  3  1  0  0  0  0
 17  6  2  0  0  0  0
 18  6  1  0  0  0  0
 19 20  1  0  0  0  0
 20 21  2  0  0  0  0
 22 24  1  1  0  0  0
 22 29  1  0  0  0  0
 23 28  2  0  0  0  0
 25 27  1  0  0  0  0
 26 22  1  0  0  0  0
 27 22  1  0  0  0  0
 27 19  1  1  0  0  0
 28 25  1  0  0  0  0
 28 26  1  0  0  0  0
 30 29  1  0  0  0  0
 31 15  1  0  0  0  0
 32 31  1  0  0  0  0
M  END
>  <MODEL>
9

>  <REMARK>
 VINA RESULT:      -5.7      2.595      9.122
  Name = 
  4 active torsions:
  status: ('A' for Active; 'I' for Inactive)
    1  A    between atoms: C_3  and  C_22
    2  A    between atoms: C_4  and  C_24
    3  A    between atoms: C_13  and  C_29
    4  A    between atoms: N_16  and  C_20
                            x       y       z     vdW  Elec       q    Type
                         _______ _______ _______ _____ _____    ______ ____

>  <TORSDO>
F 4

$$$$
