=
 OpenBabel11052422563D

 28 30  0  0  1  0  0  0  0  0999 V2000
  161.2110  208.0730  152.4830 C   0  0  0  0  0  0  0  0  0  0  0  0
  162.6760  208.7590  147.9950 O   0  0  0  0  0  0  0  0  0  0  0  0
  161.3910  205.7050  149.5820 C   0  0  0  0  0  0  0  0  0  0  0  0
  160.3250  206.8110  147.6270 C   0  0  0  0  0  1  0  0  0  0  0  0
  161.8680  208.4980  150.2070 C   0  0  0  0  0  0  0  0  0  0  0  0
  161.2580  206.1710  150.8370 C   0  0  0  0  0  3  0  0  0  0  0  0
  161.8490  210.2490  151.7920 C   0  0  0  0  0  3  0  0  0  0  0  0
  162.1030  208.0180  148.8370 C   0  0  0  0  0  0  0  0  0  0  0  0
  162.0750  209.8020  150.5300 N   0  0  0  0  0  0  0  0  0  0  0  0
  161.6120  206.6590  148.4210 C   0  0  1  0  0  3  0  0  0  0  0  0
  161.4170  209.3910  152.7520 N   0  0  0  0  0  0  0  0  0  0  0  0
  161.4270  207.5950  151.1800 C   0  0  0  0  0  0  0  0  0  0  0  0
  160.7210  203.4160  150.3470 C   0  0  0  0  0  3  0  0  0  0  0  0
  161.5900  203.6540  148.0970 C   0  0  0  0  0  0  0  0  0  0  0  0
  160.9030  201.4790  148.9160 C   0  0  0  0  0  0  0  0  0  0  0  0
  161.2350  204.2450  149.3320 C   0  0  0  0  0  0  0  0  0  0  0  0
  161.4210  202.2810  147.8990 C   0  0  0  0  0  3  0  0  0  0  0  0
  162.1290  204.3880  147.0920 F   0  0  0  0  0  0  0  0  0  0  0  0
  160.7420  200.1480  148.7150 F   0  0  0  0  0  0  0  0  0  0  0  0
  160.5550  202.0450  150.1420 C   0  0  0  0  0  3  0  0  0  0  0  0
  160.7060  207.1530  153.5650 C   0  0  1  0  0  3  0  0  0  0  0  0
  161.6560  206.0060  153.9100 C   0  0  0  0  0  2  0  0  0  0  0  0
  161.1280  204.7730  153.5200 O   0  0  0  0  0  1  0  0  0  0  0  0
  160.1340  207.8760  154.7900 C   0  0  0  0  0  2  0  0  0  0  0  0
  160.1170  207.0210  156.0510 C   0  0  0  0  0  2  0  0  0  0  0  0
  160.6940  207.8000  157.2170 C   0  0  0  0  0  2  0  0  0  0  0  0
  161.9270  208.5500  156.7600 C   0  0  0  0  0  2  0  0  0  0  0  0
  161.8880  209.8510  157.2600 O   0  0  0  0  0  1  0  0  0  0  0  0
  1 11  1  0  0  0  0
  1 21  1  0  0  0  0
  2  8  2  0  0  0  0
  3  6  2  0  0  0  0
  5  9  2  0  0  0  0
  5 12  1  0  0  0  0
  6 12  1  0  0  0  0
  7 11  2  0  0  0  0
  8  5  1  0  0  0  0
  9  7  1  0  0  0  0
 10  4  1  1  0  0  0
 10  8  1  0  0  0  0
 10  3  1  0  0  0  0
 12  1  2  0  0  0  0
 14 16  1  0  0  0  0
 15 20  2  0  0  0  0
 16  3  1  0  0  0  0
 16 13  2  0  0  0  0
 17 14  2  0  0  0  0
 17 15  1  0  0  0  0
 18 14  1  0  0  0  0
 19 15  1  0  0  0  0
 20 13  1  0  0  0  0
 21 22  1  1  0  0  0
 21 24  1  0  0  0  0
 23 22  1  0  0  0  0
 24 25  1  0  0  0  0
 25 26  1  0  0  0  0
 27 26  1  0  0  0  0
 27 28  1  0  0  0  0
M  END
>  <MODEL>
1

>  <REMARK>
 VINA RESULT:      -8.1      0.000      0.000
  Name = 
  7 active torsions:
  status: ('A' for Active; 'I' for Inactive)
    1  A    between atoms: C_1  and  C_2
    2  A    between atoms: C_2  and  C_3
    3  A    between atoms: C_2  and  C_8
    4  A    between atoms: C_3  and  C_7
    5  A    between atoms: C_6  and  C_22
    6  A    between atoms: C_7  and  C_22
    7  A    between atoms: C_10  and  C_13
                            x       y       z     vdW  Elec       q    Type
                         _______ _______ _______ _____ _____    ______ ____

>  <TORSDO>
F 7

$$$$
=
 OpenBabel11052422563D

 28 30  0  0  1  0  0  0  0  0999 V2000
  161.4370  207.6900  150.2620 C   0  0  0  0  0  0  0  0  0  0  0  0
  160.5560  204.3200  153.5210 O   0  0  0  0  0  0  0  0  0  0  0  0
  161.0970  203.9730  149.9030 C   0  0  0  0  0  0  0  0  0  0  0  0
  162.5300  202.9060  151.6320 C   0  0  0  0  0  1  0  0  0  0  0  0
  161.0890  206.0200  151.9600 C   0  0  0  0  0  0  0  0  0  0  0  0
  161.1940  205.2780  149.5890 C   0  0  0  0  0  3  0  0  0  0  0  0
  161.2820  208.3000  152.5470 C   0  0  0  0  0  3  0  0  0  0  0  0
  160.8990  204.6140  152.3450 C   0  0  0  0  0  0  0  0  0  0  0  0
  161.0970  207.0020  152.9000 N   0  0  0  0  0  0  0  0  0  0  0  0
  161.1680  203.5180  151.3510 C   0  0  1  0  0  3  0  0  0  0  0  0
  161.4540  208.6340  151.2420 N   0  0  0  0  0  0  0  0  0  0  0  0
  161.2600  206.3410  150.6090 C   0  0  0  0  0  0  0  0  0  0  0  0
  161.3460  203.3410  147.4930 C   0  0  0  0  0  3  0  0  0  0  0  0
  160.5740  201.6430  149.0410 C   0  0  0  0  0  0  0  0  0  0  0  0
  160.8590  201.1140  146.6920 C   0  0  0  0  0  0  0  0  0  0  0  0
  161.0020  202.9700  148.8070 C   0  0  0  0  0  0  0  0  0  0  0  0
  160.5060  200.7280  147.9860 C   0  0  0  0  0  3  0  0  0  0  0  0
  160.1880  201.2320  150.2750 F   0  0  0  0  0  0  0  0  0  0  0  0
  160.7910  200.2210  145.6760 F   0  0  0  0  0  0  0  0  0  0  0  0
  161.2770  202.4220  146.4440 C   0  0  0  0  0  3  0  0  0  0  0  0
  161.6580  208.0910  148.8260 C   0  0  1  0  0  3  0  0  0  0  0  0
  162.3000  209.4670  148.6470 C   0  0  0  0  0  2  0  0  0  0  0  0
  161.3570  210.4240  148.2680 O   0  0  0  0  0  1  0  0  0  0  0  0
  162.2850  206.9960  147.9550 C   0  0  0  0  0  2  0  0  0  0  0  0
  161.4580  206.6470  146.7240 C   0  0  0  0  0  2  0  0  0  0  0  0
  162.3240  205.9420  145.6980 C   0  0  0  0  0  2  0  0  0  0  0  0
  161.4690  205.5170  144.5240 C   0  0  0  0  0  2  0  0  0  0  0  0
  160.1260  205.7460  144.8220 O   0  0  0  0  0  1  0  0  0  0  0  0
  1 12  2  0  0  0  0
  1 11  1  0  0  0  0
  3 10  1  0  0  0  0
  5  8  1  0  0  0  0
  5  9  2  0  0  0  0
  6  3  2  0  0  0  0
  6 12  1  0  0  0  0
  7  9  1  0  0  0  0
  8  2  2  0  0  0  0
 10  4  1  1  0  0  0
 10  8  1  0  0  0  0
 11  7  2  0  0  0  0
 12  5  1  0  0  0  0
 13 16  1  0  0  0  0
 14 18  1  0  0  0  0
 15 17  2  0  0  0  0
 16 14  2  0  0  0  0
 16  3  1  0  0  0  0
 17 14  1  0  0  0  0
 19 15  1  0  0  0  0
 20 15  1  0  0  0  0
 20 13  2  0  0  0  0
 21 24  1  1  0  0  0
 21  1  1  0  0  0  0
 22 21  1  0  0  0  0
 23 22  1  0  0  0  0
 25 24  1  0  0  0  0
 26 25  1  0  0  0  0
 27 28  1  0  0  0  0
 27 26  1  0  0  0  0
M  END
>  <MODEL>
2

>  <REMARK>
 VINA RESULT:      -7.4      2.429      5.943
  Name = 
  7 active torsions:
  status: ('A' for Active; 'I' for Inactive)
    1  A    between atoms: C_1  and  C_2
    2  A    between atoms: C_2  and  C_3
    3  A    between atoms: C_2  and  C_8
    4  A    between atoms: C_3  and  C_7
    5  A    between atoms: C_6  and  C_22
    6  A    between atoms: C_7  and  C_22
    7  A    between atoms: C_10  and  C_13
                            x       y       z     vdW  Elec       q    Type
                         _______ _______ _______ _____ _____    ______ ____

>  <TORSDO>
F 7

$$$$
=
 OpenBabel11052422563D

 28 30  0  0  1  0  0  0  0  0999 V2000
  161.2900  204.8860  149.1590 C   0  0  0  0  0  0  0  0  0  0  0  0
  161.5400  209.5980  148.4580 O   0  0  0  0  0  0  0  0  0  0  0  0
  161.0970  207.7330  151.5920 C   0  0  0  0  0  0  0  0  0  0  0  0
  163.0100  209.2550  151.1380 C   0  0  0  0  0  1  0  0  0  0  0  0
  161.5210  207.2490  148.7630 C   0  0  0  0  0  0  0  0  0  0  0  0
  161.0240  206.4910  151.0780 C   0  0  0  0  0  3  0  0  0  0  0  0
  161.7250  205.7130  146.9800 C   0  0  0  0  0  3  0  0  0  0  0  0
  161.5320  208.6310  149.2640 C   0  0  0  0  0  0  0  0  0  0  0  0
  161.7240  206.9880  147.4440 N   0  0  0  0  0  0  0  0  0  0  0  0
  161.5870  208.8940  150.7440 C   0  0  1  0  0  3  0  0  0  0  0  0
  161.5140  204.6770  147.8330 N   0  0  0  0  0  0  0  0  0  0  0  0
  161.2980  206.1990  149.6590 C   0  0  0  0  0  0  0  0  0  0  0  0
  160.8880  206.8670  153.9320 C   0  0  0  0  0  3  0  0  0  0  0  0
  160.3420  209.1930  153.5270 C   0  0  0  0  0  0  0  0  0  0  0  0
  160.1820  208.2740  155.7650 C   0  0  0  0  0  0  0  0  0  0  0  0
  160.7710  207.9410  153.0300 C   0  0  0  0  0  0  0  0  0  0  0  0
  160.0520  209.3500  154.8850 C   0  0  0  0  0  3  0  0  0  0  0  0
  160.1680  210.2580  152.7050 F   0  0  0  0  0  0  0  0  0  0  0  0
  159.9000  208.4350  157.0800 F   0  0  0  0  0  0  0  0  0  0  0  0
  160.5970  207.0310  155.2880 C   0  0  0  0  0  3  0  0  0  0  0  0
  161.0870  203.7130  150.0830 C   0  0  1  0  0  3  0  0  0  0  0  0
  160.5340  204.0840  151.4600 C   0  0  0  0  0  2  0  0  0  0  0  0
  160.8510  203.1150  152.4140 O   0  0  0  0  0  1  0  0  0  0  0  0
  160.3840  202.5150  149.4350 C   0  0  0  0  0  2  0  0  0  0  0  0
  161.1820  201.2200  149.5200 C   0  0  0  0  0  2  0  0  0  0  0  0
  161.3680  200.6300  148.1360 C   0  0  0  0  0  2  0  0  0  0  0  0
  160.7810  201.5690  147.1050 C   0  0  0  0  0  2  0  0  0  0  0  0
  160.7720  200.9420  145.8600 O   0  0  0  0  0  1  0  0  0  0  0  0
  1 12  1  0  0  0  0
  1 21  1  0  0  0  0
  2  8  2  0  0  0  0
  3 16  1  0  0  0  0
  5  8  1  0  0  0  0
  5 12  2  0  0  0  0
  6  3  2  0  0  0  0
  7  9  2  0  0  0  0
  7 11  1  0  0  0  0
  8 10  1  0  0  0  0
  9  5  1  0  0  0  0
 10  4  1  1  0  0  0
 10  3  1  0  0  0  0
 11  1  2  0  0  0  0
 12  6  1  0  0  0  0
 13 20  1  0  0  0  0
 14 17  2  0  0  0  0
 15 19  1  0  0  0  0
 16 14  1  0  0  0  0
 16 13  2  0  0  0  0
 17 15  1  0  0  0  0
 18 14  1  0  0  0  0
 20 15  2  0  0  0  0
 21 24  1  6  0  0  0
 21 22  1  0  0  0  0
 22 23  1  0  0  0  0
 24 25  1  0  0  0  0
 26 25  1  0  0  0  0
 27 26  1  0  0  0  0
 28 27  1  0  0  0  0
M  END
>  <MODEL>
3

>  <REMARK>
 VINA RESULT:      -7.4      3.492      7.110
  Name = 
  7 active torsions:
  status: ('A' for Active; 'I' for Inactive)
    1  A    between atoms: C_1  and  C_2
    2  A    between atoms: C_2  and  C_3
    3  A    between atoms: C_2  and  C_8
    4  A    between atoms: C_3  and  C_7
    5  A    between atoms: C_6  and  C_22
    6  A    between atoms: C_7  and  C_22
    7  A    between atoms: C_10  and  C_13
                            x       y       z     vdW  Elec       q    Type
                         _______ _______ _______ _____ _____    ______ ____

>  <TORSDO>
F 7

$$$$
=
 OpenBabel11052422563D

 28 30  0  0  1  0  0  0  0  0999 V2000
  160.7590  210.5620  152.3010 C   0  0  0  0  0  0  0  0  0  0  0  0
  160.6610  206.4270  154.6780 O   0  0  0  0  0  0  0  0  0  0  0  0
  161.1910  207.0390  151.0940 C   0  0  0  0  0  0  0  0  0  0  0  0
  162.8480  205.9230  152.5740 C   0  0  0  0  0  1  0  0  0  0  0  0
  160.7980  208.5120  153.5620 C   0  0  0  0  0  0  0  0  0  0  0  0
  161.0090  208.3720  151.0890 C   0  0  0  0  0  3  0  0  0  0  0  0
  160.5250  210.5860  154.6600 C   0  0  0  0  0  3  0  0  0  0  0  0
  160.9120  207.0480  153.6110 C   0  0  0  0  0  0  0  0  0  0  0  0
  160.6210  209.2320  154.7020 N   0  0  0  0  0  0  0  0  0  0  0  0
  161.3830  206.2890  152.4010 C   0  0  1  0  0  3  0  0  0  0  0  0
  160.5990  211.2390  153.4720 N   0  0  0  0  0  0  0  0  0  0  0  0
  160.8730  209.1630  152.3260 C   0  0  0  0  0  0  0  0  0  0  0  0
  161.8120  206.9760  148.6690 C   0  0  0  0  0  3  0  0  0  0  0  0
  160.8600  204.9760  149.6510 C   0  0  0  0  0  0  0  0  0  0  0  0
  161.5040  205.0000  147.3140 C   0  0  0  0  0  0  0  0  0  0  0  0
  161.2860  206.3160  149.7950 C   0  0  0  0  0  0  0  0  0  0  0  0
  160.9720  204.3300  148.4160 C   0  0  0  0  0  3  0  0  0  0  0  0
  160.3050  204.2950  150.6850 F   0  0  0  0  0  0  0  0  0  0  0  0
  161.6100  204.3660  146.1210 F   0  0  0  0  0  0  0  0  0  0  0  0
  161.9220  206.3250  147.4390 C   0  0  0  0  0  3  0  0  0  0  0  0
  160.8640  211.3180  151.0020 C   0  0  1  0  0  3  0  0  0  0  0  0
  160.4130  212.7770  151.0840 C   0  0  0  0  0  2  0  0  0  0  0  0
  159.5560  213.1050  150.0310 O   0  0  0  0  0  1  0  0  0  0  0  0
  162.1920  211.1190  150.2630 C   0  0  0  0  0  2  0  0  0  0  0  0
  162.0390  211.0110  148.7510 C   0  0  0  0  0  2  0  0  0  0  0  0
  162.6600  212.2190  148.0760 C   0  0  0  0  0  2  0  0  0  0  0  0
  161.6660  212.8190  147.1050 C   0  0  0  0  0  2  0  0  0  0  0  0
  160.5420  211.9980  147.0260 O   0  0  0  0  0  1  0  0  0  0  0  0
  1 12  2  0  0  0  0
  1 11  1  0  0  0  0
  3 10  1  0  0  0  0
  5  8  1  0  0  0  0
  5  9  2  0  0  0  0
  6  3  2  0  0  0  0
  6 12  1  0  0  0  0
  7  9  1  0  0  0  0
  8  2  2  0  0  0  0
 10  4  1  1  0  0  0
 10  8  1  0  0  0  0
 11  7  2  0  0  0  0
 12  5  1  0  0  0  0
 13 16  1  0  0  0  0
 14 16  2  0  0  0  0
 14 18  1  0  0  0  0
 15 20  1  0  0  0  0
 15 17  2  0  0  0  0
 16  3  1  0  0  0  0
 17 14  1  0  0  0  0
 19 15  1  0  0  0  0
 20 13  2  0  0  0  0
 21 24  1  1  0  0  0
 21 22  1  0  0  0  0
 21  1  1  0  0  0  0
 23 22  1  0  0  0  0
 25 24  1  0  0  0  0
 26 25  1  0  0  0  0
 27 26  1  0  0  0  0
 28 27  1  0  0  0  0
M  END
>  <MODEL>
4

>  <REMARK>
 VINA RESULT:      -7.4      2.480      5.699
  Name = 
  7 active torsions:
  status: ('A' for Active; 'I' for Inactive)
    1  A    between atoms: C_1  and  C_2
    2  A    between atoms: C_2  and  C_3
    3  A    between atoms: C_2  and  C_8
    4  A    between atoms: C_3  and  C_7
    5  A    between atoms: C_6  and  C_22
    6  A    between atoms: C_7  and  C_22
    7  A    between atoms: C_10  and  C_13
                            x       y       z     vdW  Elec       q    Type
                         _______ _______ _______ _____ _____    ______ ____

>  <TORSDO>
F 7

$$$$
=
 OpenBabel11052422563D

 28 30  0  0  1  0  0  0  0  0999 V2000
  161.5490  209.0250  150.3150 C   0  0  0  0  0  0  0  0  0  0  0  0
  160.7790  206.5460  154.3170 O   0  0  0  0  0  0  0  0  0  0  0  0
  161.2050  205.3340  150.8750 C   0  0  0  0  0  0  0  0  0  0  0  0
  162.6950  204.7070  152.7640 C   0  0  0  0  0  1  0  0  0  0  0  0
  161.2580  207.8160  152.3760 C   0  0  0  0  0  0  0  0  0  0  0  0
  161.2890  206.5230  150.2520 C   0  0  0  0  0  3  0  0  0  0  0  0
  161.4650  210.1690  152.3890 C   0  0  0  0  0  3  0  0  0  0  0  0
  161.0840  206.5460  153.0950 C   0  0  0  0  0  0  0  0  0  0  0  0
  161.2940  208.9960  153.0500 N   0  0  0  0  0  0  0  0  0  0  0  0
  161.3230  205.2410  152.3860 C   0  0  1  0  0  3  0  0  0  0  0  0
  161.5950  210.1780  151.0370 N   0  0  0  0  0  0  0  0  0  0  0  0
  161.3860  207.8010  150.9830 C   0  0  0  0  0  0  0  0  0  0  0  0
  161.3070  204.1530  148.6690 C   0  0  0  0  0  3  0  0  0  0  0  0
  160.7300  202.8510  150.6300 C   0  0  0  0  0  0  0  0  0  0  0  0
  160.8670  201.7870  148.4570 C   0  0  0  0  0  0  0  0  0  0  0  0
  161.0780  204.0960  150.0570 C   0  0  0  0  0  0  0  0  0  0  0  0
  160.6290  201.7100  149.8290 C   0  0  0  0  0  3  0  0  0  0  0  0
  160.4560  202.7350  151.9540 F   0  0  0  0  0  0  0  0  0  0  0  0
  160.7670  200.6760  147.6880 F   0  0  0  0  0  0  0  0  0  0  0  0
  161.2040  203.0090  147.8750 C   0  0  0  0  0  3  0  0  0  0  0  0
  161.7230  209.0660  148.8180 C   0  0  1  0  0  3  0  0  0  0  0  0
  162.3320  210.3660  148.2900 C   0  0  0  0  0  2  0  0  0  0  0  0
  161.3420  211.2660  147.8880 O   0  0  0  0  0  1  0  0  0  0  0  0
  162.3480  207.8010  148.2220 C   0  0  0  0  0  2  0  0  0  0  0  0
  161.5050  207.1600  147.1270 C   0  0  0  0  0  2  0  0  0  0  0  0
  162.3300  206.1460  146.3590 C   0  0  0  0  0  2  0  0  0  0  0  0
  161.5430  205.6580  145.1620 C   0  0  0  0  0  2  0  0  0  0  0  0
  160.2270  206.1070  145.2600 O   0  0  0  0  0  1  0  0  0  0  0  0
  1 12  2  0  0  0  0
  1 11  1  0  0  0  0
  3 10  1  0  0  0  0
  5  9  2  0  0  0  0
  5  8  1  0  0  0  0
  6  3  2  0  0  0  0
  6 12  1  0  0  0  0
  7  9  1  0  0  0  0
  8  2  2  0  0  0  0
 10  4  1  6  0  0  0
 10  8  1  0  0  0  0
 11  7  2  0  0  0  0
 12  5  1  0  0  0  0
 13 16  1  0  0  0  0
 14 18  1  0  0  0  0
 15 17  2  0  0  0  0
 16 14  2  0  0  0  0
 16  3  1  0  0  0  0
 17 14  1  0  0  0  0
 19 15  1  0  0  0  0
 20 15  1  0  0  0  0
 20 13  2  0  0  0  0
 21 24  1  1  0  0  0
 21  1  1  0  0  0  0
 22 21  1  0  0  0  0
 23 22  1  0  0  0  0
 25 24  1  0  0  0  0
 26 25  1  0  0  0  0
 27 28  1  0  0  0  0
 27 26  1  0  0  0  0
M  END
>  <MODEL>
5

>  <REMARK>
 VINA RESULT:      -7.1      2.024      5.708
  Name = 
  7 active torsions:
  status: ('A' for Active; 'I' for Inactive)
    1  A    between atoms: C_1  and  C_2
    2  A    between atoms: C_2  and  C_3
    3  A    between atoms: C_2  and  C_8
    4  A    between atoms: C_3  and  C_7
    5  A    between atoms: C_6  and  C_22
    6  A    between atoms: C_7  and  C_22
    7  A    between atoms: C_10  and  C_13
                            x       y       z     vdW  Elec       q    Type
                         _______ _______ _______ _____ _____    ______ ____

>  <TORSDO>
F 7

$$$$
=
 OpenBabel11052422563D

 28 30  0  0  1  0  0  0  0  0999 V2000
  161.8200  207.5120  151.1010 C   0  0  0  0  0  0  0  0  0  0  0  0
  160.3800  203.6150  153.4460 O   0  0  0  0  0  0  0  0  0  0  0  0
  161.1340  204.0360  149.8750 C   0  0  0  0  0  0  0  0  0  0  0  0
  162.3280  202.4500  151.3710 C   0  0  0  0  0  1  0  0  0  0  0  0
  161.1880  205.5520  152.3480 C   0  0  0  0  0  0  0  0  0  0  0  0
  161.3840  205.3580  149.8770 C   0  0  0  0  0  3  0  0  0  0  0  0
  161.5680  207.6030  153.4570 C   0  0  0  0  0  3  0  0  0  0  0  0
  160.8320  204.1270  152.3880 C   0  0  0  0  0  0  0  0  0  0  0  0
  161.2290  206.2890  153.4890 N   0  0  0  0  0  0  0  0  0  0  0  0
  161.0570  203.2610  151.1790 C   0  0  1  0  0  3  0  0  0  0  0  0
  161.8640  208.2020  152.2740 N   0  0  0  0  0  0  0  0  0  0  0  0
  161.4850  206.1480  151.1180 C   0  0  0  0  0  0  0  0  0  0  0  0
  161.5370  203.9150  147.4060 C   0  0  0  0  0  3  0  0  0  0  0  0
  160.3910  202.0600  148.4640 C   0  0  0  0  0  0  0  0  0  0  0  0
  160.8370  202.0200  146.0810 C   0  0  0  0  0  0  0  0  0  0  0  0
  161.0160  203.3230  148.5720 C   0  0  0  0  0  0  0  0  0  0  0  0
  160.3070  201.4200  147.2240 C   0  0  0  0  0  3  0  0  0  0  0  0
  159.8310  201.4530  149.5400 F   0  0  0  0  0  0  0  0  0  0  0  0
  160.7520  201.3930  144.8840 F   0  0  0  0  0  0  0  0  0  0  0  0
  161.4500  203.2700  146.1710 C   0  0  0  0  0  3  0  0  0  0  0  0
  162.1800  208.1990  149.8090 C   0  0  1  0  0  3  0  0  0  0  0  0
  161.3680  207.7330  148.6000 C   0  0  0  0  0  2  0  0  0  0  0  0
  162.1990  207.3180  147.5570 O   0  0  0  0  0  1  0  0  0  0  0  0
  162.3090  209.7220  149.9200 C   0  0  0  0  0  2  0  0  0  0  0  0
  161.9600  210.4610  148.6340 C   0  0  0  0  0  2  0  0  0  0  0  0
  161.9180  211.9550  148.8860 C   0  0  0  0  0  2  0  0  0  0  0  0
  161.4690  212.6660  147.6280 C   0  0  0  0  0  2  0  0  0  0  0  0
  162.5690  212.8770  146.7980 O   0  0  0  0  0  1  0  0  0  0  0  0
  1 12  2  0  0  0  0
  1 11  1  0  0  0  0
  3  6  2  0  0  0  0
  3 10  1  0  0  0  0
  5  8  1  0  0  0  0
  5  9  2  0  0  0  0
  6 12  1  0  0  0  0
  7  9  1  0  0  0  0
  8  2  2  0  0  0  0
 10  4  1  1  0  0  0
 10  8  1  0  0  0  0
 11  7  2  0  0  0  0
 12  5  1  0  0  0  0
 13 16  1  0  0  0  0
 14 16  2  0  0  0  0
 14 18  1  0  0  0  0
 15 20  1  0  0  0  0
 15 17  2  0  0  0  0
 16  3  1  0  0  0  0
 17 14  1  0  0  0  0
 19 15  1  0  0  0  0
 20 13  2  0  0  0  0
 21 22  1  6  0  0  0
 21 24  1  0  0  0  0
 21  1  1  0  0  0  0
 23 22  1  0  0  0  0
 25 26  1  0  0  0  0
 25 24  1  0  0  0  0
 27 26  1  0  0  0  0
 28 27  1  0  0  0  0
M  END
>  <MODEL>
6

>  <REMARK>
 VINA RESULT:      -7.0      2.298      5.297
  Name = 
  7 active torsions:
  status: ('A' for Active; 'I' for Inactive)
    1  A    between atoms: C_1  and  C_2
    2  A    between atoms: C_2  and  C_3
    3  A    between atoms: C_2  and  C_8
    4  A    between atoms: C_3  and  C_7
    5  A    between atoms: C_6  and  C_22
    6  A    between atoms: C_7  and  C_22
    7  A    between atoms: C_10  and  C_13
                            x       y       z     vdW  Elec       q    Type
                         _______ _______ _______ _____ _____    ______ ____

>  <TORSDO>
F 7

$$$$
=
 OpenBabel11052422563D

 28 30  0  0  1  0  0  0  0  0999 V2000
  161.0160  208.8010  152.6420 C   0  0  0  0  0  0  0  0  0  0  0  0
  162.7130  208.5800  148.1880 O   0  0  0  0  0  0  0  0  0  0  0  0
  161.2990  205.9070  150.2750 C   0  0  0  0  0  0  0  0  0  0  0  0
  160.3500  206.6130  148.0890 C   0  0  0  0  0  1  0  0  0  0  0  0
  161.7920  208.7640  150.3630 C   0  0  0  0  0  0  0  0  0  0  0  0
  161.1120  206.6110  151.4060 C   0  0  0  0  0  3  0  0  0  0  0  0
  161.7240  210.7940  151.5710 C   0  0  0  0  0  3  0  0  0  0  0  0
  162.0870  208.0230  149.1290 C   0  0  0  0  0  0  0  0  0  0  0  0
  162.0050  210.1050  150.4350 N   0  0  0  0  0  0  0  0  0  0  0  0
  161.5930  206.6120  148.9630 C   0  0  1  0  0  3  0  0  0  0  0  0
  161.2310  210.1450  152.6570 N   0  0  0  0  0  0  0  0  0  0  0  0
  161.2890  208.0750  151.4710 C   0  0  0  0  0  0  0  0  0  0  0  0
  160.9540  203.7200  149.1040 C   0  0  0  0  0  3  0  0  0  0  0  0
  161.1410  203.7000  151.5210 C   0  0  0  0  0  0  0  0  0  0  0  0
  160.8210  201.6270  150.3040 C   0  0  0  0  0  0  0  0  0  0  0  0
  161.1310  204.4270  150.3090 C   0  0  0  0  0  0  0  0  0  0  0  0
  160.9870  202.3100  151.5090 C   0  0  0  0  0  3  0  0  0  0  0  0
  161.2650  204.3230  152.7190 F   0  0  0  0  0  0  0  0  0  0  0  0
  160.6740  200.2800  150.3020 F   0  0  0  0  0  0  0  0  0  0  0  0
  160.8020  202.3320  149.1010 C   0  0  0  0  0  3  0  0  0  0  0  0
  160.4430  208.1160  153.8550 C   0  0  1  0  0  3  0  0  0  0  0  0
  161.4580  207.2990  154.6560 C   0  0  0  0  0  2  0  0  0  0  0  0
  160.8410  206.5930  155.6910 O   0  0  0  0  0  1  0  0  0  0  0  0
  159.5460  209.0100  154.7190 C   0  0  0  0  0  2  0  0  0  0  0  0
  160.3170  210.0180  155.5610 C   0  0  0  0  0  2  0  0  0  0  0  0
  159.3920  211.1250  156.0260 C   0  0  0  0  0  2  0  0  0  0  0  0
  160.0320  212.4680  155.7460 C   0  0  0  0  0  2  0  0  0  0  0  0
  159.7240  212.8650  154.4460 O   0  0  0  0  0  1  0  0  0  0  0  0
  1 11  1  0  0  0  0
  1 21  1  0  0  0  0
  2  8  2  0  0  0  0
  3 16  1  0  0  0  0
  3  6  2  0  0  0  0
  5  9  2  0  0  0  0
  5 12  1  0  0  0  0
  6 12  1  0  0  0  0
  7 11  2  0  0  0  0
  8  5  1  0  0  0  0
  9  7  1  0  0  0  0
 10  4  1  6  0  0  0
 10  8  1  0  0  0  0
 10  3  1  0  0  0  0
 12  1  2  0  0  0  0
 13 16  1  0  0  0  0
 14 18  1  0  0  0  0
 15 17  2  0  0  0  0
 16 14  2  0  0  0  0
 17 14  1  0  0  0  0
 19 15  1  0  0  0  0
 20 13  2  0  0  0  0
 20 15  1  0  0  0  0
 21 22  1  1  0  0  0
 21 24  1  0  0  0  0
 22 23  1  0  0  0  0
 24 25  1  0  0  0  0
 25 26  1  0  0  0  0
 27 26  1  0  0  0  0
 28 27  1  0  0  0  0
M  END
>  <MODEL>
7

>  <REMARK>
 VINA RESULT:      -6.9      2.044      2.299
  Name = 
  7 active torsions:
  status: ('A' for Active; 'I' for Inactive)
    1  A    between atoms: C_1  and  C_2
    2  A    between atoms: C_2  and  C_3
    3  A    between atoms: C_2  and  C_8
    4  A    between atoms: C_3  and  C_7
    5  A    between atoms: C_6  and  C_22
    6  A    between atoms: C_7  and  C_22
    7  A    between atoms: C_10  and  C_13
                            x       y       z     vdW  Elec       q    Type
                         _______ _______ _______ _____ _____    ______ ____

>  <TORSDO>
F 7

$$$$
=
 OpenBabel11052422563D

 28 30  0  0  1  0  0  0  0  0999 V2000
  161.3660  205.4190  151.3110 C   0  0  0  0  0  0  0  0  0  0  0  0
  159.8660  201.1770  149.7270 O   0  0  0  0  0  0  0  0  0  0  0  0
  161.1790  204.0370  147.8310 C   0  0  0  0  0  0  0  0  0  0  0  0
  162.2250  201.7820  147.8490 C   0  0  0  0  0  1  0  0  0  0  0  0
  160.6900  203.2290  150.5740 C   0  0  0  0  0  0  0  0  0  0  0  0
  161.3170  204.9060  148.8480 C   0  0  0  0  0  3  0  0  0  0  0  0
  160.7110  203.7630  152.8750 C   0  0  0  0  0  3  0  0  0  0  0  0
  160.4480  202.2680  149.4890 C   0  0  0  0  0  0  0  0  0  0  0  0
  160.4780  202.8800  151.8710 N   0  0  0  0  0  0  0  0  0  0  0  0
  160.9450  202.5610  148.1000 C   0  0  1  0  0  3  0  0  0  0  0  0
  161.1530  205.0160  152.5940 N   0  0  0  0  0  0  0  0  0  0  0  0
  161.1430  204.5150  150.2600 C   0  0  0  0  0  0  0  0  0  0  0  0
  160.2400  204.5060  145.5570 C   0  0  0  0  0  3  0  0  0  0  0  0
  162.5760  205.0150  145.9500 C   0  0  0  0  0  0  0  0  0  0  0  0
  161.5800  205.4520  143.7840 C   0  0  0  0  0  0  0  0  0  0  0  0
  161.3410  204.5270  146.4330 C   0  0  0  0  0  0  0  0  0  0  0  0
  162.6860  205.4730  144.6340 C   0  0  0  0  0  3  0  0  0  0  0  0
  163.6870  205.0240  146.7290 F   0  0  0  0  0  0  0  0  0  0  0  0
  161.6950  205.8980  142.5100 F   0  0  0  0  0  0  0  0  0  0  0  0
  160.3560  204.9660  144.2440 C   0  0  0  0  0  3  0  0  0  0  0  0
  161.8830  206.8080  151.0340 C   0  0  1  0  0  3  0  0  0  0  0  0
  161.2660  207.4760  149.8050 C   0  0  0  0  0  2  0  0  0  0  0  0
  162.2490  207.9820  148.9520 O   0  0  0  0  0  1  0  0  0  0  0  0
  161.9460  207.7140  152.2680 C   0  0  0  0  0  2  0  0  0  0  0  0
  160.8310  208.7520  152.3210 C   0  0  0  0  0  2  0  0  0  0  0  0
  160.6420  209.2410  153.7440 C   0  0  0  0  0  2  0  0  0  0  0  0
  161.2020  208.2180  154.7070 C   0  0  0  0  0  2  0  0  0  0  0  0
  160.1530  207.5840  155.3710 O   0  0  0  0  0  1  0  0  0  0  0  0
  1 11  1  0  0  0  0
  3 10  1  0  0  0  0
  3  6  2  0  0  0  0
  5  9  2  0  0  0  0
  6 12  1  0  0  0  0
  8  2  2  0  0  0  0
  8  5  1  0  0  0  0
  9  7  1  0  0  0  0
 10  4  1  1  0  0  0
 10  8  1  0  0  0  0
 11  7  2  0  0  0  0
 12  5  1  0  0  0  0
 12  1  2  0  0  0  0
 13 16  1  0  0  0  0
 14 16  2  0  0  0  0
 14 18  1  0  0  0  0
 15 20  1  0  0  0  0
 15 17  2  0  0  0  0
 16  3  1  0  0  0  0
 17 14  1  0  0  0  0
 19 15  1  0  0  0  0
 20 13  2  0  0  0  0
 21 22  1  6  0  0  0
 21  1  1  0  0  0  0
 21 24  1  0  0  0  0
 23 22  1  0  0  0  0
 24 25  1  0  0  0  0
 25 26  1  0  0  0  0
 26 27  1  0  0  0  0
 27 28  1  0  0  0  0
M  END
>  <MODEL>
8

>  <REMARK>
 VINA RESULT:      -6.7      2.808      4.884
  Name = 
  7 active torsions:
  status: ('A' for Active; 'I' for Inactive)
    1  A    between atoms: C_1  and  C_2
    2  A    between atoms: C_2  and  C_3
    3  A    between atoms: C_2  and  C_8
    4  A    between atoms: C_3  and  C_7
    5  A    between atoms: C_6  and  C_22
    6  A    between atoms: C_7  and  C_22
    7  A    between atoms: C_10  and  C_13
                            x       y       z     vdW  Elec       q    Type
                         _______ _______ _______ _____ _____    ______ ____

>  <TORSDO>
F 7

$$$$
=
 OpenBabel11052422563D

 28 30  0  0  1  0  0  0  0  0999 V2000
  161.0080  207.4590  153.0940 C   0  0  0  0  0  0  0  0  0  0  0  0
  160.4080  211.4370  155.6580 O   0  0  0  0  0  0  0  0  0  0  0  0
  160.6810  211.0350  152.0160 C   0  0  0  0  0  0  0  0  0  0  0  0
  158.6980  211.9990  153.1640 C   0  0  0  0  0  1  0  0  0  0  0  0
  160.6070  209.4230  154.4270 C   0  0  0  0  0  0  0  0  0  0  0  0
  160.9210  209.7120  151.9770 C   0  0  0  0  0  3  0  0  0  0  0  0
  160.7360  207.2940  155.4440 C   0  0  0  0  0  3  0  0  0  0  0  0
  160.4180  210.8770  154.5300 C   0  0  0  0  0  0  0  0  0  0  0  0
  160.5710  208.6380  155.5370 N   0  0  0  0  0  0  0  0  0  0  0  0
  160.1810  211.6940  153.2900 C   0  0  1  0  0  3  0  0  0  0  0  0
  160.9470  206.7160  154.2330 N   0  0  0  0  0  0  0  0  0  0  0  0
  160.8270  208.8490  153.1710 C   0  0  0  0  0  0  0  0  0  0  0  0
  160.0870  213.0190  150.6070 C   0  0  0  0  0  3  0  0  0  0  0  0
  161.7030  211.4410  149.7280 C   0  0  0  0  0  0  0  0  0  0  0  0
  161.0810  213.3980  148.4390 C   0  0  0  0  0  0  0  0  0  0  0  0
  160.8310  211.8350  150.7680 C   0  0  0  0  0  0  0  0  0  0  0  0
  161.8220  212.2230  148.5750 C   0  0  0  0  0  3  0  0  0  0  0  0
  162.4180  210.2900  149.8000 F   0  0  0  0  0  0  0  0  0  0  0  0
  161.2030  214.1510  147.3190 F   0  0  0  0  0  0  0  0  0  0  0  0
  160.2110  213.7950  149.4540 C   0  0  0  0  0  3  0  0  0  0  0  0
  161.2170  206.7830  151.7640 C   0  0  1  0  0  3  0  0  0  0  0  0
  162.6540  206.8420  151.2460 C   0  0  0  0  0  2  0  0  0  0  0  0
  162.7050  207.3300  149.9380 O   0  0  0  0  0  1  0  0  0  0  0  0
  160.5740  205.3960  151.6540 C   0  0  0  0  0  2  0  0  0  0  0  0
  161.5640  204.2890  151.3120 C   0  0  0  0  0  2  0  0  0  0  0  0
  160.9750  203.3700  150.2600 C   0  0  0  0  0  2  0  0  0  0  0  0
  161.2150  203.9570  148.8860 C   0  0  0  0  0  2  0  0  0  0  0  0
  161.2070  202.9360  147.9370 O   0  0  0  0  0  1  0  0  0  0  0  0
  1 12  2  0  0  0  0
  1 11  1  0  0  0  0
  3 10  1  0  0  0  0
  5  8  1  0  0  0  0
  5  9  2  0  0  0  0
  6  3  2  0  0  0  0
  6 12  1  0  0  0  0
  7  9  1  0  0  0  0
  8  2  2  0  0  0  0
 10  4  1  6  0  0  0
 10  8  1  0  0  0  0
 11  7  2  0  0  0  0
 12  5  1  0  0  0  0
 13 16  1  0  0  0  0
 14 18  1  0  0  0  0
 14 16  2  0  0  0  0
 15 17  2  0  0  0  0
 15 20  1  0  0  0  0
 16  3  1  0  0  0  0
 17 14  1  0  0  0  0
 19 15  1  0  0  0  0
 20 13  2  0  0  0  0
 21 22  1  1  0  0  0
 21  1  1  0  0  0  0
 23 22  1  0  0  0  0
 24 21  1  0  0  0  0
 25 24  1  0  0  0  0
 26 25  1  0  0  0  0
 27 26  1  0  0  0  0
 28 27  1  0  0  0  0
M  END
>  <MODEL>
9

>  <REMARK>
 VINA RESULT:      -6.5      3.439      7.486
  Name = 
  7 active torsions:
  status: ('A' for Active; 'I' for Inactive)
    1  A    between atoms: C_1  and  C_2
    2  A    between atoms: C_2  and  C_3
    3  A    between atoms: C_2  and  C_8
    4  A    between atoms: C_3  and  C_7
    5  A    between atoms: C_6  and  C_22
    6  A    between atoms: C_7  and  C_22
    7  A    between atoms: C_10  and  C_13
                            x       y       z     vdW  Elec       q    Type
                         _______ _______ _______ _____ _____    ______ ____

>  <TORSDO>
F 7

$$$$
