=
 OpenBabel11052422063D

 25 29  0  0  1  0  0  0  0  0999 V2000
  160.7620  203.4440  147.8810 C   0  0  2  0  0  3  0  0  0  0  0  0
  161.0070  203.5260  149.3690 C   0  0  0  0  0  0  0  0  0  0  0  0
  161.0400  200.8910  148.2100 C   0  0  0  0  0  3  0  0  0  0  0  0
  161.4760  201.0690  149.4570 C   0  0  0  0  0  3  0  0  0  0  0  0
  161.7250  202.5200  151.4680 C   0  0  0  0  0  0  0  0  0  0  0  0
  162.1220  201.4440  152.1920 F   0  0  0  0  0  0  0  0  0  0  0  0
  160.9000  204.7650  150.0120 C   0  0  0  0  0  3  0  0  0  0  0  0
  160.5160  202.0210  147.4300 C   0  0  0  0  0  0  0  0  0  0  0  0
  159.8670  201.7960  146.3770 O   0  0  0  0  0  0  0  0  0  0  0  0
  161.6130  203.7630  152.0970 C   0  0  0  0  0  3  0  0  0  0  0  0
  161.1900  204.8830  151.3740 C   0  0  0  0  0  0  0  0  0  0  0  0
  161.4180  202.3920  150.1050 C   0  0  0  0  0  0  0  0  0  0  0  0
  161.9160  204.1370  147.1320 C   0  0  2  0  0  3  0  0  0  0  0  0
  162.1920  206.1310  145.7990 N   0  0  2  0  0  0  0  0  0  0  0  0
  161.8990  205.6580  147.1680 C   0  0  1  0  0  3  0  0  0  0  0  0
  160.8440  206.2820  146.3640 C   0  0  0  0  0  2  0  0  0  0  0  0
  162.1370  204.9810  144.8980 C   0  0  0  0  0  2  0  0  0  0  0  0
  162.1240  203.6980  145.7030 C   0  0  0  0  0  2  0  0  0  0  0  0
  161.0940  206.2090  152.0430 C   0  0  0  0  0  2  0  0  0  0  0  0
  160.8980  207.3040  151.0100 C   0  0  2  0  0  3  0  0  0  0  0  0
  161.9390  208.3150  151.1720 C   0  0  2  0  0  3  0  0  0  0  0  0
  160.5870  208.5660  151.6950 N   0  0  0  0  0  2  0  0  0  0  0  0
  162.1310  209.0610  149.8930 C   0  0  0  0  0  0  0  0  0  0  0  0
  162.1400  210.4500  149.8900 O   0  0  0  0  0  1  0  0  0  0  0  0
  162.2460  208.4340  148.8070 O   0  0  0  0  0  0  0  0  0  0  0  0
  1  8  1  6  0  0  0
  1  2  1  0  0  0  0
  2  7  2  0  0  0  0
  2 12  1  0  0  0  0
  3  4  2  0  0  0  0
  4 12  1  0  0  0  0
  5 10  1  0  0  0  0
  5  6  1  0  0  0  0
  7 11  1  0  0  0  0
  8  3  1  0  0  0  0
  9  8  2  0  0  0  0
 11 19  1  0  0  0  0
 11 10  2  0  0  0  0
 12  5  2  0  0  0  0
 13 18  1  6  0  0  0
 13 15  1  0  0  0  0
 13  1  1  0  0  0  0
 14 17  1  6  0  0  0
 14 16  1  0  0  0  0
 14 15  1  0  0  0  0
 15 16  1  6  0  0  0
 17 18  1  0  0  0  0
 20 21  1  0  0  0  0
 20 22  1  0  0  0  0
 20 19  1  1  0  0  0
 21 23  1  6  0  0  0
 21 22  1  0  0  0  0
 24 23  1  0  0  0  0
 25 23  2  0  0  0  0
M  END
>  <MODEL>
1

>  <REMARK>
 VINA RESULT:      -8.7      0.000      0.000
  Name = 
  4 active torsions:
  status: ('A' for Active; 'I' for Inactive)
    1  A    between atoms: C_1  and  C_5
    2  A    between atoms: C_2  and  CA_21
    3  A    between atoms: C_6  and  C_15
    4  A    between atoms: C_6  and  C_23
                            x       y       z     vdW  Elec       q    Type
                         _______ _______ _______ _____ _____    ______ ____

>  <TORSDO>
F 4

$$$$
=
 OpenBabel11052422063D

 25 29  0  0  1  0  0  0  0  0999 V2000
  160.7620  204.3810  148.9970 C   0  0  2  0  0  3  0  0  0  0  0  0
  160.9950  205.2940  150.1770 C   0  0  0  0  0  0  0  0  0  0  0  0
  160.9690  202.4690  150.7320 C   0  0  0  0  0  3  0  0  0  0  0  0
  161.3980  203.3210  151.6620 C   0  0  0  0  0  3  0  0  0  0  0  0
  161.6660  205.6570  152.4900 C   0  0  0  0  0  0  0  0  0  0  0  0
  162.0280  205.1800  153.7080 F   0  0  0  0  0  0  0  0  0  0  0  0
  160.9140  206.6800  149.9950 C   0  0  0  0  0  3  0  0  0  0  0  0
  160.4830  202.9590  149.4340 C   0  0  0  0  0  0  0  0  0  0  0  0
  159.8380  202.1830  148.6830 O   0  0  0  0  0  0  0  0  0  0  0  0
  161.5800  207.0380  152.2930 C   0  0  0  0  0  3  0  0  0  0  0  0
  161.1940  207.5500  151.0510 C   0  0  0  0  0  0  0  0  0  0  0  0
  161.3690  204.7780  151.4380 C   0  0  0  0  0  0  0  0  0  0  0  0
  161.9410  204.5020  148.0130 C   0  0  2  0  0  3  0  0  0  0  0  0
  162.3630  205.6180  145.9140 N   0  0  2  0  0  0  0  0  0  0  0  0
  162.1000  205.8620  147.3480 C   0  0  1  0  0  3  0  0  0  0  0  0
  161.0770  206.1810  146.3480 C   0  0  0  0  0  2  0  0  0  0  0  0
  162.1240  204.2020  145.6410 C   0  0  0  0  0  2  0  0  0  0  0  0
  162.0120  203.4400  146.9440 C   0  0  0  0  0  2  0  0  0  0  0  0
  161.1270  209.0220  150.8410 C   0  0  0  0  0  2  0  0  0  0  0  0
  161.3400  209.7500  152.1550 C   0  0  2  0  0  3  0  0  0  0  0  0
  160.0450  210.0980  152.7330 C   0  0  2  0  0  3  0  0  0  0  0  0
  160.8360  211.1250  152.0360 N   0  0  0  0  0  2  0  0  0  0  0  0
  160.1750  210.2790  154.2090 C   0  0  0  0  0  0  0  0  0  0  0  0
  161.2630  209.7420  154.8840 O   0  0  0  0  0  1  0  0  0  0  0  0
  159.2780  210.8850  154.8530 O   0  0  0  0  0  0  0  0  0  0  0  0
  1  8  1  1  0  0  0
  1  2  1  0  0  0  0
  2 12  1  0  0  0  0
  3  4  2  0  0  0  0
  5  6  1  0  0  0  0
  7  2  2  0  0  0  0
  7 11  1  0  0  0  0
  8  3  1  0  0  0  0
  9  8  2  0  0  0  0
 10  5  1  0  0  0  0
 11 10  2  0  0  0  0
 12  4  1  0  0  0  0
 12  5  2  0  0  0  0
 13 18  1  6  0  0  0
 13  1  1  0  0  0  0
 14 17  1  1  0  0  0
 14 16  1  0  0  0  0
 14 15  1  0  0  0  0
 15 16  1  6  0  0  0
 15 13  1  0  0  0  0
 17 18  1  0  0  0  0
 19 11  1  0  0  0  0
 20 19  1  6  0  0  0
 20 21  1  0  0  0  0
 21 23  1  1  0  0  0
 22 20  1  0  0  0  0
 22 21  1  0  0  0  0
 23 25  2  0  0  0  0
 23 24  1  0  0  0  0
M  END
>  <MODEL>
2

>  <REMARK>
 VINA RESULT:      -8.4      2.247      3.032
  Name = 
  4 active torsions:
  status: ('A' for Active; 'I' for Inactive)
    1  A    between atoms: C_1  and  C_5
    2  A    between atoms: C_2  and  CA_21
    3  A    between atoms: C_6  and  C_15
    4  A    between atoms: C_6  and  C_23
                            x       y       z     vdW  Elec       q    Type
                         _______ _______ _______ _____ _____    ______ ____

>  <TORSDO>
F 4

$$$$
=
 OpenBabel11052422063D

 25 29  0  0  1  0  0  0  0  0999 V2000
  160.7790  203.3430  147.6710 C   0  0  2  0  0  3  0  0  0  0  0  0
  160.9110  203.7660  149.1140 C   0  0  0  0  0  0  0  0  0  0  0  0
  161.1980  200.9520  148.5750 C   0  0  0  0  0  3  0  0  0  0  0  0
  161.5310  201.4330  149.7720 C   0  0  0  0  0  3  0  0  0  0  0  0
  161.5430  203.3030  151.4200 C   0  0  0  0  0  0  0  0  0  0  0  0
  161.9570  202.4450  152.3860 F   0  0  0  0  0  0  0  0  0  0  0  0
  160.6790  205.1030  149.4580 C   0  0  0  0  0  3  0  0  0  0  0  0
  160.6580  201.8400  147.5350 C   0  0  0  0  0  0  0  0  0  0  0  0
  160.1010  201.3400  146.5250 O   0  0  0  0  0  0  0  0  0  0  0  0
  161.3050  204.6400  151.7490 C   0  0  0  0  0  3  0  0  0  0  0  0
  160.8640  205.5380  150.7730 C   0  0  0  0  0  0  0  0  0  0  0  0
  161.3420  202.8560  150.1060 C   0  0  0  0  0  0  0  0  0  0  0  0
  161.9350  203.9440  146.8500 C   0  0  2  0  0  3  0  0  0  0  0  0
  162.3320  205.9780  145.6120 N   0  0  2  0  0  0  0  0  0  0  0  0
  162.1100  205.4510  146.9740 C   0  0  1  0  0  3  0  0  0  0  0  0
  161.0710  206.2480  146.3170 C   0  0  0  0  0  2  0  0  0  0  0  0
  162.0520  204.9070  144.6570 C   0  0  0  0  0  2  0  0  0  0  0  0
  161.9540  203.5830  145.3850 C   0  0  0  0  0  2  0  0  0  0  0  0
  160.6340  206.9660  151.1240 C   0  0  0  0  0  2  0  0  0  0  0  0
  161.4130  207.3310  152.3740 C   0  0  2  0  0  3  0  0  0  0  0  0
  160.8280  208.5220  152.9810 C   0  0  2  0  0  3  0  0  0  0  0  0
  162.0570  208.6370  152.1810 N   0  0  0  0  0  2  0  0  0  0  0  0
  161.1660  208.5750  154.4340 C   0  0  0  0  0  0  0  0  0  0  0  0
  161.4560  209.7910  155.0390 O   0  0  0  0  0  0  0  0  0  0  0  0
  161.2270  207.5130  155.1080 O   0  0  0  0  0  1  0  0  0  0  0  0
  1  8  1  1  0  0  0
  1  2  1  0  0  0  0
  2  7  2  0  0  0  0
  2 12  1  0  0  0  0
  3  4  2  0  0  0  0
  4 12  1  0  0  0  0
  5 10  1  0  0  0  0
  5  6  1  0  0  0  0
  7 11  1  0  0  0  0
  8  3  1  0  0  0  0
  9  8  2  0  0  0  0
 11 19  1  0  0  0  0
 11 10  2  0  0  0  0
 12  5  2  0  0  0  0
 13 18  1  6  0  0  0
 13 15  1  0  0  0  0
 13  1  1  0  0  0  0
 14 17  1  6  0  0  0
 14 16  1  0  0  0  0
 14 15  1  0  0  0  0
 15 16  1  6  0  0  0
 17 18  1  0  0  0  0
 20 19  1  6  0  0  0
 20 21  1  0  0  0  0
 21 23  1  1  0  0  0
 22 20  1  0  0  0  0
 22 21  1  0  0  0  0
 23 24  2  0  0  0  0
 23 25  1  0  0  0  0
M  END
>  <MODEL>
3

>  <REMARK>
 VINA RESULT:      -8.3      1.887      2.072
  Name = 
  4 active torsions:
  status: ('A' for Active; 'I' for Inactive)
    1  A    between atoms: C_1  and  C_5
    2  A    between atoms: C_2  and  CA_21
    3  A    between atoms: C_6  and  C_15
    4  A    between atoms: C_6  and  C_23
                            x       y       z     vdW  Elec       q    Type
                         _______ _______ _______ _____ _____    ______ ____

>  <TORSDO>
F 4

$$$$
=
 OpenBabel11052422063D

 25 29  0  0  1  0  0  0  0  0999 V2000
  160.8470  210.0820  153.5750 C   0  0  2  0  0  3  0  0  0  0  0  0
  161.0590  208.7410  152.9140 C   0  0  0  0  0  0  0  0  0  0  0  0
  161.1850  208.7840  155.7900 C   0  0  0  0  0  3  0  0  0  0  0  0
  161.1270  207.6170  155.1490 C   0  0  0  0  0  3  0  0  0  0  0  0
  161.2290  206.3140  153.0270 C   0  0  0  0  0  0  0  0  0  0  0  0
  161.2900  205.1620  153.7420 F   0  0  0  0  0  0  0  0  0  0  0  0
  161.1150  208.6680  151.5170 C   0  0  0  0  0  3  0  0  0  0  0  0
  161.2150  210.0490  155.0420 C   0  0  0  0  0  0  0  0  0  0  0  0
  161.5410  211.1090  155.6350 O   0  0  0  0  0  0  0  0  0  0  0  0
  161.2850  206.2570  151.6320 C   0  0  0  0  0  3  0  0  0  0  0  0
  161.2390  207.4330  150.8770 C   0  0  0  0  0  0  0  0  0  0  0  0
  161.1220  207.5530  153.6760 C   0  0  0  0  0  0  0  0  0  0  0  0
  159.4070  210.5630  153.3120 C   0  0  2  0  0  3  0  0  0  0  0  0
  158.3260  212.6610  152.8070 N   0  0  2  0  0  0  0  0  0  0  0  0
  159.2650  211.6580  152.2640 C   0  0  1  0  0  3  0  0  0  0  0  0
  159.7560  212.9750  152.6800 C   0  0  0  0  0  2  0  0  0  0  0  0
  158.0940  212.3530  154.2170 C   0  0  0  0  0  2  0  0  0  0  0  0
  158.6200  210.9690  154.5330 C   0  0  0  0  0  2  0  0  0  0  0  0
  161.2760  207.3650  149.3900 C   0  0  0  0  0  2  0  0  0  0  0  0
  160.6690  206.0600  148.9100 C   0  0  2  0  0  3  0  0  0  0  0  0
  161.6130  205.3810  148.0280 C   0  0  2  0  0  3  0  0  0  0  0  0
  160.4790  206.1210  147.4540 N   0  0  0  0  0  2  0  0  0  0  0  0
  161.3260  203.9160  148.0000 C   0  0  0  0  0  0  0  0  0  0  0  0
  161.4010  203.2140  146.8050 O   0  0  0  0  0  0  0  0  0  0  0  0
  160.9750  203.3210  149.0530 O   0  0  0  0  0  1  0  0  0  0  0  0
  1  2  1  1  0  0  0
  1  8  1  0  0  0  0
  2 12  1  0  0  0  0
  4  3  2  0  0  0  0
  5 12  2  0  0  0  0
  5  6  1  0  0  0  0
  7  2  2  0  0  0  0
  8  9  2  0  0  0  0
  8  3  1  0  0  0  0
 10  5  1  0  0  0  0
 11  7  1  0  0  0  0
 11 10  2  0  0  0  0
 12  4  1  0  0  0  0
 13  1  1  0  0  0  0
 13 18  1  1  0  0  0
 14 16  1  1  0  0  0
 14 17  1  0  0  0  0
 15 16  1  1  0  0  0
 15 14  1  0  0  0  0
 15 13  1  0  0  0  0
 17 18  1  0  0  0  0
 19 11  1  0  0  0  0
 20 19  1  6  0  0  0
 21 23  1  1  0  0  0
 21 20  1  0  0  0  0
 22 21  1  0  0  0  0
 22 20  1  0  0  0  0
 23 25  1  0  0  0  0
 24 23  2  0  0  0  0
M  END
>  <MODEL>
4

>  <REMARK>
 VINA RESULT:      -8.3      3.508      7.848
  Name = 
  4 active torsions:
  status: ('A' for Active; 'I' for Inactive)
    1  A    between atoms: C_1  and  C_5
    2  A    between atoms: C_2  and  CA_21
    3  A    between atoms: C_6  and  C_15
    4  A    between atoms: C_6  and  C_23
                            x       y       z     vdW  Elec       q    Type
                         _______ _______ _______ _____ _____    ______ ____

>  <TORSDO>
F 4

$$$$
=
 OpenBabel11052422063D

 25 29  0  0  1  0  0  0  0  0999 V2000
  160.4520  209.4530  153.7100 C   0  0  2  0  0  3  0  0  0  0  0  0
  160.9360  208.4450  152.6960 C   0  0  0  0  0  0  0  0  0  0  0  0
  161.0190  211.2070  151.8910 C   0  0  0  0  0  3  0  0  0  0  0  0
  161.6410  210.2860  151.1560 C   0  0  0  0  0  3  0  0  0  0  0  0
  162.0910  207.8940  150.6240 C   0  0  0  0  0  0  0  0  0  0  0  0
  162.7050  208.2680  149.4730 F   0  0  0  0  0  0  0  0  0  0  0  0
  160.8250  207.0790  152.9830 C   0  0  0  0  0  3  0  0  0  0  0  0
  160.2670  210.8230  153.0940 C   0  0  0  0  0  0  0  0  0  0  0  0
  159.4720  211.6470  153.6150 O   0  0  0  0  0  0  0  0  0  0  0  0
  161.9710  206.5340  150.9230 C   0  0  0  0  0  3  0  0  0  0  0  0
  161.3300  206.1250  152.0960 C   0  0  0  0  0  0  0  0  0  0  0  0
  161.5710  208.8550  151.5020 C   0  0  0  0  0  0  0  0  0  0  0  0
  161.3920  209.4480  154.9300 C   0  0  2  0  0  3  0  0  0  0  0  0
  161.2410  210.0620  157.2600 N   0  0  2  0  0  0  0  0  0  0  0  0
  160.7360  209.0990  156.2590 C   0  0  1  0  0  3  0  0  0  0  0  0
  159.8480  210.1330  156.7970 C   0  0  0  0  0  2  0  0  0  0  0  0
  161.9660  211.1170  156.5540 C   0  0  0  0  0  2  0  0  0  0  0  0
  162.2200  210.6940  155.1220 C   0  0  0  0  0  2  0  0  0  0  0  0
  161.2240  204.6760  152.4210 C   0  0  0  0  0  2  0  0  0  0  0  0
  161.6610  203.8390  151.2330 C   0  0  2  0  0  3  0  0  0  0  0  0
  160.4820  203.3340  150.5360 C   0  0  2  0  0  3  0  0  0  0  0  0
  161.2350  202.4480  151.4370 N   0  0  0  0  0  2  0  0  0  0  0  0
  160.8220  203.0170  149.1170 C   0  0  0  0  0  0  0  0  0  0  0  0
  161.6030  203.8940  148.3750 O   0  0  0  0  0  0  0  0  0  0  0  0
  160.3710  201.9730  148.5780 O   0  0  0  0  0  1  0  0  0  0  0  0
  1  2  1  6  0  0  0
  1 13  1  0  0  0  0
  2  7  1  0  0  0  0
  3  8  1  0  0  0  0
  4 12  1  0  0  0  0
  4  3  2  0  0  0  0
  5 10  2  0  0  0  0
  5 12  1  0  0  0  0
  6  5  1  0  0  0  0
  8  9  2  0  0  0  0
  8  1  1  0  0  0  0
 10 11  1  0  0  0  0
 11 19  1  0  0  0  0
 11  7  2  0  0  0  0
 12  2  2  0  0  0  0
 13 18  1  1  0  0  0
 13 15  1  0  0  0  0
 14 17  1  6  0  0  0
 15 16  1  6  0  0  0
 15 14  1  0  0  0  0
 16 14  1  0  0  0  0
 18 17  1  0  0  0  0
 20 22  1  0  0  0  0
 20 19  1  1  0  0  0
 21 23  1  6  0  0  0
 21 20  1  0  0  0  0
 21 22  1  0  0  0  0
 24 23  2  0  0  0  0
 25 23  1  0  0  0  0
M  END
>  <MODEL>
5

>  <REMARK>
 VINA RESULT:      -8.1      3.751      8.257
  Name = 
  4 active torsions:
  status: ('A' for Active; 'I' for Inactive)
    1  A    between atoms: C_1  and  C_5
    2  A    between atoms: C_2  and  CA_21
    3  A    between atoms: C_6  and  C_15
    4  A    between atoms: C_6  and  C_23
                            x       y       z     vdW  Elec       q    Type
                         _______ _______ _______ _____ _____    ______ ____

>  <TORSDO>
F 4

$$$$
=
 OpenBabel11052422063D

 25 29  0  0  1  0  0  0  0  0999 V2000
  161.8940  205.4720  150.9070 C   0  0  2  0  0  3  0  0  0  0  0  0
  161.4440  204.2420  150.1560 C   0  0  0  0  0  0  0  0  0  0  0  0
  161.0010  204.2360  153.0000 C   0  0  0  0  0  3  0  0  0  0  0  0
  160.4270  203.3030  152.2400 C   0  0  0  0  0  3  0  0  0  0  0  0
  160.1990  202.1520  150.0420 C   0  0  0  0  0  0  0  0  0  0  0  0
  159.4610  201.1780  150.6320 F   0  0  0  0  0  0  0  0  0  0  0  0
  161.7250  204.1350  148.7880 C   0  0  0  0  0  3  0  0  0  0  0  0
  161.8820  205.2510  152.4040 C   0  0  0  0  0  0  0  0  0  0  0  0
  162.6200  205.9420  153.1500 O   0  0  0  0  0  0  0  0  0  0  0  0
  160.4880  202.0590  148.6780 C   0  0  0  0  0  3  0  0  0  0  0  0
  161.2590  203.0430  148.0520 C   0  0  0  0  0  0  0  0  0  0  0  0
  160.6790  203.2380  150.7890 C   0  0  0  0  0  0  0  0  0  0  0  0
  161.0580  206.6840  150.4560 C   0  0  2  0  0  3  0  0  0  0  0  0
  161.3390  208.5390  148.9360 N   0  0  2  0  0  0  0  0  0  0  0  0
  161.2010  207.0690  148.9910 C   0  0  1  0  0  3  0  0  0  0  0  0
  162.4870  207.6730  148.6350 C   0  0  0  0  0  2  0  0  0  0  0  0
  161.5360  209.0290  150.3000 C   0  0  0  0  0  2  0  0  0  0  0  0
  161.2120  207.9310  151.2910 C   0  0  0  0  0  2  0  0  0  0  0  0
  161.5450  202.9510  146.5940 C   0  0  0  0  0  2  0  0  0  0  0  0
  161.7020  204.3390  146.0030 C   0  0  2  0  0  3  0  0  0  0  0  0
  161.5860  204.2640  144.5490 C   0  0  2  0  0  3  0  0  0  0  0  0
  162.9140  204.3790  145.1720 N   0  0  0  0  0  2  0  0  0  0  0  0
  161.1710  205.5880  143.9990 C   0  0  0  0  0  0  0  0  0  0  0  0
  160.4190  206.4610  144.7750 O   0  0  0  0  0  1  0  0  0  0  0  0
  161.4690  205.9020  142.8170 O   0  0  0  0  0  0  0  0  0  0  0  0
  1  2  1  6  0  0  0
  1  8  1  0  0  0  0
  2 12  1  0  0  0  0
  4  3  2  0  0  0  0
  5  6  1  0  0  0  0
  5 12  2  0  0  0  0
  7  2  2  0  0  0  0
  8  3  1  0  0  0  0
  8  9  2  0  0  0  0
 10  5  1  0  0  0  0
 11 10  2  0  0  0  0
 11  7  1  0  0  0  0
 12  4  1  0  0  0  0
 13  1  1  0  0  0  0
 13 18  1  1  0  0  0
 14 16  1  6  0  0  0
 14 15  1  0  0  0  0
 14 17  1  0  0  0  0
 15 16  1  1  0  0  0
 15 13  1  0  0  0  0
 17 18  1  0  0  0  0
 19 11  1  0  0  0  0
 20 19  1  1  0  0  0
 21 23  1  6  0  0  0
 21 22  1  0  0  0  0
 21 20  1  0  0  0  0
 22 20  1  0  0  0  0
 23 24  1  0  0  0  0
 25 23  2  0  0  0  0
M  END
>  <MODEL>
6

>  <REMARK>
 VINA RESULT:      -7.5      2.285      5.302
  Name = 
  4 active torsions:
  status: ('A' for Active; 'I' for Inactive)
    1  A    between atoms: C_1  and  C_5
    2  A    between atoms: C_2  and  CA_21
    3  A    between atoms: C_6  and  C_15
    4  A    between atoms: C_6  and  C_23
                            x       y       z     vdW  Elec       q    Type
                         _______ _______ _______ _____ _____    ______ ____

>  <TORSDO>
F 4

$$$$
=
 OpenBabel11052422063D

 25 29  0  0  1  0  0  0  0  0999 V2000
  160.6400  204.2800  150.8390 C   0  0  2  0  0  3  0  0  0  0  0  0
  160.9400  205.5680  150.1110 C   0  0  0  0  0  0  0  0  0  0  0  0
  161.6410  205.4840  152.9020 C   0  0  0  0  0  3  0  0  0  0  0  0
  162.0820  206.4840  152.1400 C   0  0  0  0  0  3  0  0  0  0  0  0
  162.0340  207.7410  149.9890 C   0  0  0  0  0  0  0  0  0  0  0  0
  162.7590  208.7370  150.5580 F   0  0  0  0  0  0  0  0  0  0  0  0
  160.5280  205.7130  148.7810 C   0  0  0  0  0  3  0  0  0  0  0  0
  160.7760  204.4370  152.3380 C   0  0  0  0  0  0  0  0  0  0  0  0
  160.1550  203.6660  153.1120 O   0  0  0  0  0  0  0  0  0  0  0  0
  161.6150  207.8720  148.6620 C   0  0  0  0  0  3  0  0  0  0  0  0
  160.8540  206.8660  148.0610 C   0  0  0  0  0  0  0  0  0  0  0  0
  161.6950  206.5940  150.7220 C   0  0  0  0  0  0  0  0  0  0  0  0
  161.5070  203.1470  150.2570 C   0  0  2  0  0  3  0  0  0  0  0  0
  161.1790  201.2810  148.7620 N   0  0  2  0  0  0  0  0  0  0  0  0
  161.1950  202.7570  148.8200 C   0  0  1  0  0  3  0  0  0  0  0  0
  159.9280  202.0430  148.6370 C   0  0  0  0  0  2  0  0  0  0  0  0
  161.2160  200.7700  150.1310 C   0  0  0  0  0  2  0  0  0  0  0  0
  161.5790  201.8890  151.0860 C   0  0  0  0  0  2  0  0  0  0  0  0
  160.4300  207.0000  146.6400 C   0  0  0  0  0  2  0  0  0  0  0  0
  160.7010  205.7100  145.8880 C   0  0  2  0  0  3  0  0  0  0  0  0
  162.1270  205.6130  145.5900 C   0  0  2  0  0  3  0  0  0  0  0  0
  161.1860  206.0290  144.5380 N   0  0  0  0  0  2  0  0  0  0  0  0
  162.5110  204.1850  145.3860 C   0  0  0  0  0  0  0  0  0  0  0  0
  161.5400  203.1920  145.4050 O   0  0  0  0  0  1  0  0  0  0  0  0
  163.7210  203.8720  145.2350 O   0  0  0  0  0  0  0  0  0  0  0  0
  1  2  1  6  0  0  0
  1  8  1  0  0  0  0
  2 12  1  0  0  0  0
  4  3  2  0  0  0  0
  5  6  1  0  0  0  0
  5 12  2  0  0  0  0
  7  2  2  0  0  0  0
  8  3  1  0  0  0  0
  8  9  2  0  0  0  0
 10  5  1  0  0  0  0
 11 10  2  0  0  0  0
 11  7  1  0  0  0  0
 12  4  1  0  0  0  0
 13  1  1  0  0  0  0
 13 18  1  1  0  0  0
 14 16  1  1  0  0  0
 14 15  1  0  0  0  0
 14 17  1  0  0  0  0
 15 16  1  1  0  0  0
 15 13  1  0  0  0  0
 17 18  1  0  0  0  0
 19 11  1  0  0  0  0
 20 19  1  1  0  0  0
 21 23  1  6  0  0  0
 21 20  1  0  0  0  0
 22 21  1  0  0  0  0
 22 20  1  0  0  0  0
 23 24  1  0  0  0  0
 25 23  2  0  0  0  0
M  END
>  <MODEL>
7

>  <REMARK>
 VINA RESULT:      -7.4      3.124      5.624
  Name = 
  4 active torsions:
  status: ('A' for Active; 'I' for Inactive)
    1  A    between atoms: C_1  and  C_5
    2  A    between atoms: C_2  and  CA_21
    3  A    between atoms: C_6  and  C_15
    4  A    between atoms: C_6  and  C_23
                            x       y       z     vdW  Elec       q    Type
                         _______ _______ _______ _____ _____    ______ ____

>  <TORSDO>
F 4

$$$$
=
 OpenBabel11052422063D

 25 29  0  0  1  0  0  0  0  0999 V2000
  160.8310  206.9550  149.6160 C   0  0  2  0  0  3  0  0  0  0  0  0
  160.9240  206.1250  150.8740 C   0  0  0  0  0  0  0  0  0  0  0  0
  161.0590  204.6900  148.3820 C   0  0  0  0  0  3  0  0  0  0  0  0
  161.3670  204.0680  149.5190 C   0  0  0  0  0  3  0  0  0  0  0  0
  161.4210  204.0290  152.0110 C   0  0  0  0  0  0  0  0  0  0  0  0
  161.7360  202.7100  151.9800 F   0  0  0  0  0  0  0  0  0  0  0  0
  160.7600  206.7470  152.1170 C   0  0  0  0  0  3  0  0  0  0  0  0
  160.6230  206.0940  148.3890 C   0  0  0  0  0  0  0  0  0  0  0  0
  160.0830  206.5780  147.3630 O   0  0  0  0  0  0  0  0  0  0  0  0
  161.2520  204.6630  153.2440 C   0  0  0  0  0  3  0  0  0  0  0  0
  160.9120  206.0180  153.2990 C   0  0  0  0  0  0  0  0  0  0  0  0
  161.2520  204.7520  150.8200 C   0  0  0  0  0  0  0  0  0  0  0  0
  162.0590  207.8800  149.5190 C   0  0  2  0  0  3  0  0  0  0  0  0
  162.6450  210.0990  150.2680 N   0  0  2  0  0  0  0  0  0  0  0  0
  162.3310  208.7370  150.7470 C   0  0  1  0  0  3  0  0  0  0  0  0
  161.3770  209.8290  150.9600 C   0  0  0  0  0  2  0  0  0  0  0  0
  162.3310  210.1650  148.8410 C   0  0  0  0  0  2  0  0  0  0  0  0
  162.1130  208.7670  148.2990 C   0  0  0  0  0  2  0  0  0  0  0  0
  160.7560  206.6950  154.6160 C   0  0  0  0  0  2  0  0  0  0  0  0
  160.8310  208.2000  154.4440 C   0  0  2  0  0  3  0  0  0  0  0  0
  161.3480  208.8050  155.6680 C   0  0  2  0  0  3  0  0  0  0  0  0
  159.9050  208.8430  155.3860 N   0  0  0  0  0  2  0  0  0  0  0  0
  161.9560  210.1340  155.3660 C   0  0  0  0  0  0  0  0  0  0  0  0
  162.0940  211.0820  156.3710 O   0  0  0  0  0  1  0  0  0  0  0  0
  162.3110  210.4140  154.1910 O   0  0  0  0  0  0  0  0  0  0  0  0
  1  8  1  6  0  0  0
  1  2  1  0  0  0  0
  2  7  1  0  0  0  0
  3  8  1  0  0  0  0
  3  4  2  0  0  0  0
  4 12  1  0  0  0  0
  5 10  2  0  0  0  0
  6  5  1  0  0  0  0
  7 11  2  0  0  0  0
  9  8  2  0  0  0  0
 10 11  1  0  0  0  0
 11 19  1  0  0  0  0
 12  2  2  0  0  0  0
 12  5  1  0  0  0  0
 13 18  1  6  0  0  0
 13  1  1  0  0  0  0
 13 15  1  0  0  0  0
 14 17  1  6  0  0  0
 14 15  1  0  0  0  0
 14 16  1  0  0  0  0
 15 16  1  1  0  0  0
 18 17  1  0  0  0  0
 20 19  1  1  0  0  0
 20 22  1  0  0  0  0
 20 21  1  0  0  0  0
 21 23  1  6  0  0  0
 22 21  1  0  0  0  0
 23 24  1  0  0  0  0
 25 23  2  0  0  0  0
M  END
>  <MODEL>
8

>  <REMARK>
 VINA RESULT:      -7.3      2.657      4.306
  Name = 
  4 active torsions:
  status: ('A' for Active; 'I' for Inactive)
    1  A    between atoms: C_1  and  C_5
    2  A    between atoms: C_2  and  CA_21
    3  A    between atoms: C_6  and  C_15
    4  A    between atoms: C_6  and  C_23
                            x       y       z     vdW  Elec       q    Type
                         _______ _______ _______ _____ _____    ______ ____

>  <TORSDO>
F 4

$$$$
=
 OpenBabel11052422063D

 25 29  0  0  1  0  0  0  0  0999 V2000
  161.9690  206.8100  151.6630 C   0  0  2  0  0  3  0  0  0  0  0  0
  161.6590  205.8640  150.5290 C   0  0  0  0  0  0  0  0  0  0  0  0
  161.2050  204.8630  153.1890 C   0  0  0  0  0  3  0  0  0  0  0  0
  160.7390  204.1850  152.1400 C   0  0  0  0  0  3  0  0  0  0  0  0
  160.6490  203.8180  149.6770 C   0  0  0  0  0  0  0  0  0  0  0  0
  160.0180  202.6340  149.8800 F   0  0  0  0  0  0  0  0  0  0  0  0
  161.9570  206.2500  149.2160 C   0  0  0  0  0  3  0  0  0  0  0  0
  161.9730  206.1020  153.0000 C   0  0  0  0  0  0  0  0  0  0  0  0
  162.6280  206.5750  153.9630 O   0  0  0  0  0  0  0  0  0  0  0  0
  160.9530  204.2160  148.3720 C   0  0  0  0  0  3  0  0  0  0  0  0
  161.6160  205.4250  148.1410 C   0  0  0  0  0  0  0  0  0  0  0  0
  161.0040  204.6340  150.7610 C   0  0  0  0  0  0  0  0  0  0  0  0
  161.0080  208.0130  151.6060 C   0  0  2  0  0  3  0  0  0  0  0  0
  161.2040  210.4180  151.6890 N   0  0  2  0  0  0  0  0  0  0  0  0
  161.5330  209.2350  150.8670 C   0  0  1  0  0  3  0  0  0  0  0  0
  162.5970  209.9660  151.5610 C   0  0  0  0  0  2  0  0  0  0  0  0
  160.7360  209.9510  152.9930 C   0  0  0  0  0  2  0  0  0  0  0  0
  160.4480  208.4650  152.9330 C   0  0  0  0  0  2  0  0  0  0  0  0
  161.9180  205.8550  146.7480 C   0  0  0  0  0  2  0  0  0  0  0  0
  160.9680  205.1820  145.7750 C   0  0  2  0  0  3  0  0  0  0  0  0
  161.5300  203.9020  145.3530 C   0  0  2  0  0  3  0  0  0  0  0  0
  161.6180  205.0690  144.4610 N   0  0  0  0  0  2  0  0  0  0  0  0
  160.4410  202.9940  144.8870 C   0  0  0  0  0  0  0  0  0  0  0  0
  159.3870  203.4960  144.1360 O   0  0  0  0  0  0  0  0  0  0  0  0
  160.4550  201.7750  145.2060 O   0  0  0  0  0  1  0  0  0  0  0  0
  1  2  1  6  0  0  0
  1  8  1  0  0  0  0
  2 12  1  0  0  0  0
  4  3  2  0  0  0  0
  5  6  1  0  0  0  0
  5 12  2  0  0  0  0
  7  2  2  0  0  0  0
  8  3  1  0  0  0  0
  8  9  2  0  0  0  0
 10  5  1  0  0  0  0
 11 10  2  0  0  0  0
 11  7  1  0  0  0  0
 12  4  1  0  0  0  0
 13  1  1  0  0  0  0
 13 18  1  1  0  0  0
 14 16  1  1  0  0  0
 14 17  1  0  0  0  0
 15 16  1  1  0  0  0
 15 13  1  0  0  0  0
 15 14  1  0  0  0  0
 18 17  1  0  0  0  0
 19 11  1  0  0  0  0
 20 19  1  1  0  0  0
 21 23  1  6  0  0  0
 21 20  1  0  0  0  0
 22 21  1  0  0  0  0
 22 20  1  0  0  0  0
 23 25  1  0  0  0  0
 24 23  2  0  0  0  0
M  END
>  <MODEL>
9

>  <REMARK>
 VINA RESULT:      -7.3      2.265      6.346
  Name = 
  4 active torsions:
  status: ('A' for Active; 'I' for Inactive)
    1  A    between atoms: C_1  and  C_5
    2  A    between atoms: C_2  and  CA_21
    3  A    between atoms: C_6  and  C_15
    4  A    between atoms: C_6  and  C_23
                            x       y       z     vdW  Elec       q    Type
                         _______ _______ _______ _____ _____    ______ ____

>  <TORSDO>
F 4

$$$$
