=
 OpenBabel11062408143D

 32 34  0  0  1  0  0  0  0  0999 V2000
  161.2130  205.9180  149.3250 C   0  0  1  0  0  3  0  0  0  0  0  0
  162.4910  207.8520  148.9250 C   0  0  1  0  0  3  0  0  0  0  0  0
  161.2840  204.5190  149.9400 C   0  0  0  0  0  2  0  0  0  0  0  0
  162.2620  206.7600  149.9440 C   0  0  1  0  0  3  0  0  0  0  0  0
  162.2680  207.2720  147.6540 O   0  0  0  0  0  0  0  0  0  0  0  0
  161.9360  207.0520  151.4140 C   0  0  2  0  0  3  0  0  0  0  0  0
  161.6880  205.7280  152.1180 C   0  0  0  0  0  3  0  0  0  0  0  0
  160.0900  206.4520  147.2100 C   0  0  0  0  0  1  0  0  0  0  0  0
  161.4440  206.1290  147.8230 C   0  0  2  0  0  0  0  0  0  0  0  0
  161.3500  204.5980  151.4560 C   0  0  0  0  0  3  0  0  0  0  0  0
  162.0260  204.9110  147.0490 C   0  0  2  0  0  3  0  0  0  0  0  0
  163.4120  205.0460  146.9020 O   0  0  0  0  0  1  0  0  0  0  0  0
  161.3420  204.4190  145.7250 C   0  0  2  0  0  0  0  0  0  0  0  0
  160.0580  204.9680  145.6290 O   0  0  0  0  0  1  0  0  0  0  0  0
  161.2160  202.8650  145.7090 C   0  0  1  0  0  3  0  0  0  0  0  0
  161.0020  202.2360  147.0760 C   0  0  0  0  0  1  0  0  0  0  0  0
  160.1750  202.4640  144.8710 O   0  0  0  0  0  1  0  0  0  0  0  0
  162.0670  204.8750  144.5860 O   0  0  0  0  0  0  0  0  0  0  0  0
  161.3240  205.8360  143.8650 C   0  0  0  0  0  2  0  0  0  0  0  0
  161.7300  205.8300  142.5310 O   0  0  0  0  0  1  0  0  0  0  0  0
  161.6130  208.9250  149.1010 O   0  0  0  0  0  0  0  0  0  0  0  0
  162.4340  210.0360  149.2870 C   0  0  0  0  0  2  0  0  0  0  0  0
  161.4850  213.9650  147.8840 C   0  0  0  0  0  2  0  0  0  0  0  0
  161.2190  212.0960  149.4120 O   0  0  0  0  0  0  0  0  0  0  0  0
  161.8800  211.2260  148.5240 C   0  0  1  0  0  3  0  0  0  0  0  0
  163.0130  211.9480  147.7700 C   0  0  0  0  0  2  0  0  0  0  0  0
  160.5200  213.0150  148.6070 C   0  0  0  0  0  2  0  0  0  0  0  0
  162.9320  213.4660  147.9420 C   0  0  0  0  0  2  0  0  0  0  0  0
  160.6950  207.9350  151.5660 C   0  0  0  0  0  2  0  0  0  0  0  0
  160.4680  210.1710  152.5050 C   0  0  0  0  0  0  0  0  0  0  0  0
  160.8540  208.9340  152.6630 C   0  0  0  0  0  3  0  0  0  0  0  0
  160.1070  211.3420  152.3430 O   0  0  0  0  0  0  0  0  0  0  0  0
  1  3  1  6  0  0  0
  1  4  1  0  0  0  0
  2 21  1  1  0  0  0
  2  4  1  0  0  0  0
  3 10  1  0  0  0  0
  4  6  1  0  0  0  0
  5  9  1  0  0  0  0
  5  2  1  0  0  0  0
  6 29  1  0  0  0  0
  6  7  1  0  0  0  0
  8  9  1  0  0  0  0
  9  1  1  0  0  0  0
 10  7  2  0  0  0  0
 11  9  1  0  0  0  0
 12 11  1  0  0  0  0
 13 11  1  0  0  0  0
 14 13  1  0  0  0  0
 15 13  1  0  0  0  0
 15 16  1  0  0  0  0
 17 15  1  0  0  0  0
 18 13  1  0  0  0  0
 19 18  1  0  0  0  0
 20 19  1  0  0  0  0
 21 22  1  0  0  0  0
 23 28  1  0  0  0  0
 23 27  1  0  0  0  0
 25 22  1  0  0  0  0
 25 24  1  0  0  0  0
 26 28  1  0  0  0  0
 26 25  1  0  0  0  0
 27 24  1  0  0  0  0
 29 31  1  0  0  0  0
 30 31  2  0  0  0  0
 32 30  2  0  0  0  0
M  END
>  <MODEL>
1

>  <REMARK>
 VINA RESULT:      -6.8      0.000      0.000
  Name = 
  10 active torsions:
  status: ('A' for Active; 'I' for Inactive)
    1  A    between atoms: C_2  and  O_6
    2  A    between atoms: C_3  and  C_22
    3  A    between atoms: O_6  and  C_17
    4  A    between atoms: C_7  and  O_15
    5  A    between atoms: C_12  and  C_17
    6  A    between atoms: C_14  and  C_29
    7  A    between atoms: O_15  and  C_22
    8  A    between atoms: C_16  and  C_22
    9  A    between atoms: C_16  and  C_27
   10  A    between atoms: C_18  and  C_29
                            x       y       z     vdW  Elec       q    Type
                         _______ _______ _______ _____ _____    ______ ____

>  <TORSDO>
F 10

$$$$
=
 OpenBabel11062408143D

 32 34  0  0  1  0  0  0  0  0999 V2000
  161.3450  205.9850  149.3920 C   0  0  1  0  0  3  0  0  0  0  0  0
  162.5620  207.9520  148.9670 C   0  0  1  0  0  3  0  0  0  0  0  0
  161.4470  204.6110  150.0590 C   0  0  0  0  0  2  0  0  0  0  0  0
  162.3400  206.8870  150.0160 C   0  0  1  0  0  3  0  0  0  0  0  0
  162.4050  207.3210  147.7110 O   0  0  0  0  0  0  0  0  0  0  0  0
  161.9530  207.2160  151.4630 C   0  0  2  0  0  3  0  0  0  0  0  0
  161.7310  205.9080  152.2050 C   0  0  0  0  0  3  0  0  0  0  0  0
  160.2750  206.4040  147.2250 C   0  0  0  0  0  1  0  0  0  0  0  0
  161.6190  206.1540  147.8920 C   0  0  2  0  0  0  0  0  0  0  0  0
  161.4580  204.7440  151.5720 C   0  0  0  0  0  3  0  0  0  0  0  0
  162.2720  204.9330  147.1810 C   0  0  2  0  0  3  0  0  0  0  0  0
  163.4950  205.3030  146.6090 O   0  0  0  0  0  1  0  0  0  0  0  0
  161.4190  204.0370  146.2150 C   0  0  2  0  0  0  0  0  0  0  0  0
  162.2560  203.1330  145.5520 O   0  0  0  0  0  1  0  0  0  0  0  0
  160.6920  204.9090  145.1460 C   0  0  1  0  0  3  0  0  0  0  0  0
  161.6070  205.4990  144.0850 C   0  0  0  0  0  1  0  0  0  0  0  0
  159.6920  204.1740  144.5090 O   0  0  0  0  0  1  0  0  0  0  0  0
  160.4790  203.2590  146.9510 O   0  0  0  0  0  0  0  0  0  0  0  0
  160.8780  201.9060  147.0080 C   0  0  0  0  0  2  0  0  0  0  0  0
  160.9940  201.5130  148.3410 O   0  0  0  0  0  1  0  0  0  0  0  0
  161.6390  208.9960  149.0770 O   0  0  0  0  0  0  0  0  0  0  0  0
  162.4080  210.1340  149.3150 C   0  0  0  0  0  2  0  0  0  0  0  0
  161.4340  214.0480  147.8890 C   0  0  0  0  0  2  0  0  0  0  0  0
  161.1980  212.1960  149.4430 O   0  0  0  0  0  0  0  0  0  0  0  0
  161.8400  211.3150  148.5500 C   0  0  1  0  0  3  0  0  0  0  0  0
  162.9570  212.0280  147.7650 C   0  0  0  0  0  2  0  0  0  0  0  0
  160.4830  213.1070  148.6420 C   0  0  0  0  0  2  0  0  0  0  0  0
  162.8810  213.5480  147.9220 C   0  0  0  0  0  2  0  0  0  0  0  0
  160.6770  208.0550  151.5440 C   0  0  0  0  0  2  0  0  0  0  0  0
  160.2550  210.2480  152.5160 C   0  0  0  0  0  0  0  0  0  0  0  0
  160.7270  209.0400  152.6640 C   0  0  0  0  0  3  0  0  0  0  0  0
  159.8120  211.3920  152.3650 O   0  0  0  0  0  0  0  0  0  0  0  0
  1  4  1  0  0  0  0
  1  3  1  1  0  0  0
  2 21  1  1  0  0  0
  2  4  1  0  0  0  0
  3 10  1  0  0  0  0
  4  6  1  0  0  0  0
  5  9  1  0  0  0  0
  5  2  1  0  0  0  0
  6 29  1  0  0  0  0
  6  7  1  0  0  0  0
  8  9  1  0  0  0  0
  9  1  1  0  0  0  0
 10  7  2  0  0  0  0
 11  9  1  0  0  0  0
 12 11  1  0  0  0  0
 13 18  1  0  0  0  0
 13 11  1  0  0  0  0
 14 13  1  0  0  0  0
 15 13  1  0  0  0  0
 16 15  1  0  0  0  0
 17 15  1  0  0  0  0
 18 19  1  0  0  0  0
 19 20  1  0  0  0  0
 21 22  1  0  0  0  0
 23 28  1  0  0  0  0
 23 27  1  0  0  0  0
 25 22  1  0  0  0  0
 25 24  1  0  0  0  0
 26 28  1  0  0  0  0
 26 25  1  0  0  0  0
 27 24  1  0  0  0  0
 29 31  1  0  0  0  0
 30 31  2  0  0  0  0
 32 30  2  0  0  0  0
M  END
>  <MODEL>
2

>  <REMARK>
 VINA RESULT:      -6.4      0.920      1.989
  Name = 
  10 active torsions:
  status: ('A' for Active; 'I' for Inactive)
    1  A    between atoms: C_2  and  O_6
    2  A    between atoms: C_3  and  C_22
    3  A    between atoms: O_6  and  C_17
    4  A    between atoms: C_7  and  O_15
    5  A    between atoms: C_12  and  C_17
    6  A    between atoms: C_14  and  C_29
    7  A    between atoms: O_15  and  C_22
    8  A    between atoms: C_16  and  C_22
    9  A    between atoms: C_16  and  C_27
   10  A    between atoms: C_18  and  C_29
                            x       y       z     vdW  Elec       q    Type
                         _______ _______ _______ _____ _____    ______ ____

>  <TORSDO>
F 10

$$$$
=
 OpenBabel11062408143D

 32 34  0  0  1  0  0  0  0  0999 V2000
  161.6080  205.4850  151.3430 C   0  0  1  0  0  3  0  0  0  0  0  0
  160.2280  206.1720  149.5670 C   0  0  1  0  0  3  0  0  0  0  0  0
  161.5710  204.9090  152.7610 C   0  0  0  0  0  2  0  0  0  0  0  0
  160.3440  205.1320  150.6570 C   0  0  1  0  0  3  0  0  0  0  0  0
  160.8170  207.3550  150.0720 O   0  0  0  0  0  0  0  0  0  0  0  0
  160.2720  203.6260  150.3770 C   0  0  2  0  0  3  0  0  0  0  0  0
  160.5120  202.8880  151.6840 C   0  0  0  0  0  3  0  0  0  0  0  0
  163.1240  207.2670  150.6040 C   0  0  0  0  0  1  0  0  0  0  0  0
  161.7150  206.9980  151.1110 C   0  0  2  0  0  0  0  0  0  0  0  0
  161.1370  203.4530  152.7410 C   0  0  0  0  0  3  0  0  0  0  0  0
  161.4920  207.8930  152.3640 C   0  0  2  0  0  3  0  0  0  0  0  0
  160.4410  207.3890  153.1400 O   0  0  0  0  0  1  0  0  0  0  0  0
  161.4130  209.4530  152.2120 C   0  0  2  0  0  0  0  0  0  0  0  0
  162.6820  210.0090  152.4080 O   0  0  0  0  0  1  0  0  0  0  0  0
  160.4400  210.0640  153.2670 C   0  0  1  0  0  3  0  0  0  0  0  0
  161.1030  210.9850  154.2780 C   0  0  0  0  0  1  0  0  0  0  0  0
  159.4120  210.7670  152.6380 O   0  0  0  0  0  1  0  0  0  0  0  0
  161.0090  209.8090  150.8930 O   0  0  0  0  0  0  0  0  0  0  0  0
  161.9610  210.6580  150.2850 C   0  0  0  0  0  2  0  0  0  0  0  0
  162.1650  210.2560  148.9660 O   0  0  0  0  0  1  0  0  0  0  0  0
  160.8950  205.7870  148.4010 O   0  0  0  0  0  0  0  0  0  0  0  0
  160.9440  206.9380  147.6160 C   0  0  0  0  0  2  0  0  0  0  0  0
  161.6920  204.8870  143.9360 C   0  0  0  0  0  2  0  0  0  0  0  0
  162.3000  205.5790  146.1840 O   0  0  0  0  0  0  0  0  0  0  0  0
  161.3060  206.5770  146.1870 C   0  0  1  0  0  3  0  0  0  0  0  0
  160.0500  206.1220  145.4190 C   0  0  0  0  0  2  0  0  0  0  0  0
  162.7610  205.4940  144.8570 C   0  0  0  0  0  2  0  0  0  0  0  0
  160.3130  204.8550  144.6020 C   0  0  0  0  0  2  0  0  0  0  0  0
  161.3190  203.1770  149.3550 C   0  0  0  0  0  2  0  0  0  0  0  0
  160.8940  201.8350  147.3680 C   0  0  0  0  0  0  0  0  0  0  0  0
  160.9230  201.9120  148.6700 C   0  0  0  0  0  3  0  0  0  0  0  0
  160.8630  201.7740  146.1340 O   0  0  0  0  0  0  0  0  0  0  0  0
  1  3  1  1  0  0  0
  2 21  1  6  0  0  0
  2  5  1  0  0  0  0
  2  4  1  0  0  0  0
  4  1  1  0  0  0  0
  5  9  1  0  0  0  0
  6  4  1  0  0  0  0
  6  7  1  0  0  0  0
  7 10  2  0  0  0  0
  8  9  1  0  0  0  0
  9  1  1  0  0  0  0
  9 11  1  0  0  0  0
 10  3  1  0  0  0  0
 11 12  1  0  0  0  0
 13 11  1  0  0  0  0
 13 14  1  0  0  0  0
 13 15  1  0  0  0  0
 15 16  1  0  0  0  0
 17 15  1  0  0  0  0
 18 13  1  0  0  0  0
 19 18  1  0  0  0  0
 20 19  1  0  0  0  0
 22 21  1  0  0  0  0
 23 28  1  0  0  0  0
 23 27  1  0  0  0  0
 24 25  1  0  0  0  0
 25 22  1  0  0  0  0
 26 25  1  0  0  0  0
 27 24  1  0  0  0  0
 28 26  1  0  0  0  0
 29  6  1  0  0  0  0
 30 31  2  0  0  0  0
 31 29  1  0  0  0  0
 32 30  2  0  0  0  0
M  END
>  <MODEL>
3

>  <REMARK>
 VINA RESULT:      -6.3      1.946      7.144
  Name = 
  10 active torsions:
  status: ('A' for Active; 'I' for Inactive)
    1  A    between atoms: C_2  and  O_6
    2  A    between atoms: C_3  and  C_22
    3  A    between atoms: O_6  and  C_17
    4  A    between atoms: C_7  and  O_15
    5  A    between atoms: C_12  and  C_17
    6  A    between atoms: C_14  and  C_29
    7  A    between atoms: O_15  and  C_22
    8  A    between atoms: C_16  and  C_22
    9  A    between atoms: C_16  and  C_27
   10  A    between atoms: C_18  and  C_29
                            x       y       z     vdW  Elec       q    Type
                         _______ _______ _______ _____ _____    ______ ____

>  <TORSDO>
F 10

$$$$
=
 OpenBabel11062408143D

 32 34  0  0  1  0  0  0  0  0999 V2000
  161.3280  209.1220  151.1540 C   0  0  1  0  0  3  0  0  0  0  0  0
  162.1370  207.0440  151.9030 C   0  0  1  0  0  3  0  0  0  0  0  0
  161.7600  210.4210  150.4710 C   0  0  0  0  0  2  0  0  0  0  0  0
  162.2890  208.0550  150.7900 C   0  0  1  0  0  3  0  0  0  0  0  0
  161.8210  207.7740  153.0720 O   0  0  0  0  0  0  0  0  0  0  0  0
  162.1600  207.6830  149.3070 C   0  0  2  0  0  3  0  0  0  0  0  0
  162.2840  208.9550  148.4850 C   0  0  0  0  0  3  0  0  0  0  0  0
  159.7910  208.9970  153.0630 C   0  0  0  0  0  1  0  0  0  0  0  0
  161.2650  209.0210  152.6840 C   0  0  2  0  0  0  0  0  0  0  0  0
  162.0590  210.1850  149.0000 C   0  0  0  0  0  3  0  0  0  0  0  0
  161.9290  210.1890  153.4680 C   0  0  2  0  0  3  0  0  0  0  0  0
  163.2080  210.4490  152.9610 O   0  0  0  0  0  1  0  0  0  0  0  0
  161.9080  210.1950  155.0370 C   0  0  2  0  0  0  0  0  0  0  0  0
  161.5870  208.9170  155.5070 O   0  0  0  0  0  1  0  0  0  0  0  0
  160.8430  211.1990  155.5750 C   0  0  1  0  0  3  0  0  0  0  0  0
  160.2120  212.0790  154.5080 C   0  0  0  0  0  1  0  0  0  0  0  0
  159.8260  210.5240  156.2490 O   0  0  0  0  0  1  0  0  0  0  0  0
  163.1990  210.5080  155.5550 O   0  0  0  0  0  0  0  0  0  0  0  0
  163.1100  210.9650  156.8890 C   0  0  0  0  0  2  0  0  0  0  0  0
  164.3200  211.5520  157.2590 O   0  0  0  0  0  1  0  0  0  0  0  0
  161.1150  206.1270  151.6420 O   0  0  0  0  0  0  0  0  0  0  0  0
  161.7190  204.8750  151.7460 C   0  0  0  0  0  2  0  0  0  0  0  0
  160.5990  201.5550  149.2900 C   0  0  0  0  0  2  0  0  0  0  0  0
  161.5360  203.7700  149.6290 O   0  0  0  0  0  0  0  0  0  0  0  0
  160.9590  203.8600  150.9110 C   0  0  1  0  0  3  0  0  0  0  0  0
  160.9450  202.4910  151.6180 C   0  0  0  0  0  2  0  0  0  0  0  0
  160.6330  203.0250  148.8480 C   0  0  0  0  0  2  0  0  0  0  0  0
  161.2690  201.3500  150.6520 C   0  0  0  0  0  2  0  0  0  0  0  0
  160.8190  207.0160  148.9930 C   0  0  0  0  0  2  0  0  0  0  0  0
  161.7430  205.9670  146.9990 C   0  0  0  0  0  0  0  0  0  0  0  0
  160.7380  206.5720  147.5700 C   0  0  0  0  0  3  0  0  0  0  0  0
  162.7020  205.4010  146.4640 O   0  0  0  0  0  0  0  0  0  0  0  0
  1  3  1  1  0  0  0
  1  9  1  0  0  0  0
  2 21  1  6  0  0  0
  2  5  1  0  0  0  0
  4  1  1  0  0  0  0
  4  2  1  0  0  0  0
  6  4  1  0  0  0  0
  7 10  2  0  0  0  0
  7  6  1  0  0  0  0
  9  8  1  0  0  0  0
  9  5  1  0  0  0  0
  9 11  1  0  0  0  0
 10  3  1  0  0  0  0
 11 13  1  0  0  0  0
 12 11  1  0  0  0  0
 13 14  1  0  0  0  0
 13 18  1  0  0  0  0
 13 15  1  0  0  0  0
 15 17  1  0  0  0  0
 16 15  1  0  0  0  0
 18 19  1  0  0  0  0
 19 20  1  0  0  0  0
 21 22  1  0  0  0  0
 23 28  1  0  0  0  0
 24 25  1  0  0  0  0
 25 26  1  0  0  0  0
 25 22  1  0  0  0  0
 27 23  1  0  0  0  0
 27 24  1  0  0  0  0
 28 26  1  0  0  0  0
 29  6  1  0  0  0  0
 30 31  2  0  0  0  0
 31 29  1  0  0  0  0
 32 30  2  0  0  0  0
M  END
>  <MODEL>
4

>  <REMARK>
 VINA RESULT:      -6.2      2.773      8.996
  Name = 
  10 active torsions:
  status: ('A' for Active; 'I' for Inactive)
    1  A    between atoms: C_2  and  O_6
    2  A    between atoms: C_3  and  C_22
    3  A    between atoms: O_6  and  C_17
    4  A    between atoms: C_7  and  O_15
    5  A    between atoms: C_12  and  C_17
    6  A    between atoms: C_14  and  C_29
    7  A    between atoms: O_15  and  C_22
    8  A    between atoms: C_16  and  C_22
    9  A    between atoms: C_16  and  C_27
   10  A    between atoms: C_18  and  C_29
                            x       y       z     vdW  Elec       q    Type
                         _______ _______ _______ _____ _____    ______ ____

>  <TORSDO>
F 10

$$$$
=
 OpenBabel11062408143D

 32 34  0  0  1  0  0  0  0  0999 V2000
  161.1110  205.1650  149.9470 C   0  0  1  0  0  3  0  0  0  0  0  0
  162.4530  207.0710  150.2590 C   0  0  1  0  0  3  0  0  0  0  0  0
  161.1190  203.6390  150.0640 C   0  0  0  0  0  2  0  0  0  0  0  0
  162.1500  205.7130  150.8480 C   0  0  1  0  0  3  0  0  0  0  0  0
  162.2760  206.9530  148.8610 O   0  0  0  0  0  0  0  0  0  0  0  0
  161.7630  205.5140  152.3190 C   0  0  2  0  0  3  0  0  0  0  0  0
  161.4500  204.0420  152.5330 C   0  0  0  0  0  3  0  0  0  0  0  0
  160.1020  206.4120  148.0910 C   0  0  0  0  0  1  0  0  0  0  0  0
  161.4180  205.8510  148.6100 C   0  0  2  0  0  0  0  0  0  0  0  0
  161.1160  203.2090  151.5220 C   0  0  0  0  0  3  0  0  0  0  0  0
  162.0060  204.9370  147.4970 C   0  0  2  0  0  3  0  0  0  0  0  0
  163.3850  205.1430  147.3770 O   0  0  0  0  0  1  0  0  0  0  0  0
  161.3020  204.8510  146.0960 C   0  0  2  0  0  0  0  0  0  0  0  0
  160.0040  205.3630  146.1900 O   0  0  0  0  0  1  0  0  0  0  0  0
  161.2140  203.3720  145.6100 C   0  0  1  0  0  3  0  0  0  0  0  0
  161.0370  202.3520  146.7230 C   0  0  0  0  0  1  0  0  0  0  0  0
  160.1700  203.2150  144.6980 O   0  0  0  0  0  1  0  0  0  0  0  0
  161.9900  205.6520  145.1390 O   0  0  0  0  0  0  0  0  0  0  0  0
  161.1060  206.1150  144.1400 C   0  0  0  0  0  2  0  0  0  0  0  0
  161.6090  205.7770  142.8840 O   0  0  0  0  0  1  0  0  0  0  0  0
  161.5940  208.0590  150.7500 O   0  0  0  0  0  0  0  0  0  0  0  0
  162.4270  209.1230  151.0930 C   0  0  0  0  0  2  0  0  0  0  0  0
  160.0360  211.2090  153.9630 C   0  0  0  0  0  2  0  0  0  0  0  0
  160.3210  209.7220  152.0650 O   0  0  0  0  0  0  0  0  0  0  0  0
  161.6420  210.1690  151.8630 C   0  0  1  0  0  3  0  0  0  0  0  0
  162.3400  210.4800  153.2010 C   0  0  0  0  0  2  0  0  0  0  0  0
  159.6030  210.8350  152.5390 C   0  0  0  0  0  2  0  0  0  0  0  0
  161.3450  210.5220  154.3630 C   0  0  0  0  0  2  0  0  0  0  0  0
  160.5390  206.3450  152.7110 C   0  0  0  0  0  2  0  0  0  0  0  0
  160.1950  206.9960  155.0320 C   0  0  0  0  0  0  0  0  0  0  0  0
  160.8080  207.2060  153.8990 C   0  0  0  0  0  3  0  0  0  0  0  0
  159.6040  206.7940  156.0990 O   0  0  0  0  0  0  0  0  0  0  0  0
  1  3  1  6  0  0  0
  1  4  1  0  0  0  0
  2 21  1  1  0  0  0
  2  4  1  0  0  0  0
  3 10  1  0  0  0  0
  4  6  1  0  0  0  0
  5  2  1  0  0  0  0
  6  7  1  0  0  0  0
  6 29  1  0  0  0  0
  8  9  1  0  0  0  0
  9  5  1  0  0  0  0
  9  1  1  0  0  0  0
 10  7  2  0  0  0  0
 11  9  1  0  0  0  0
 12 11  1  0  0  0  0
 13 14  1  0  0  0  0
 13 11  1  0  0  0  0
 15 13  1  0  0  0  0
 15 16  1  0  0  0  0
 17 15  1  0  0  0  0
 18 13  1  0  0  0  0
 19 18  1  0  0  0  0
 20 19  1  0  0  0  0
 21 22  1  0  0  0  0
 22 25  1  0  0  0  0
 23 28  1  0  0  0  0
 24 27  1  0  0  0  0
 25 24  1  0  0  0  0
 25 26  1  0  0  0  0
 26 28  1  0  0  0  0
 27 23  1  0  0  0  0
 29 31  1  0  0  0  0
 30 32  2  0  0  0  0
 31 30  2  0  0  0  0
M  END
>  <MODEL>
5

>  <REMARK>
 VINA RESULT:      -5.9      2.192      2.886
  Name = 
  10 active torsions:
  status: ('A' for Active; 'I' for Inactive)
    1  A    between atoms: C_2  and  O_6
    2  A    between atoms: C_3  and  C_22
    3  A    between atoms: O_6  and  C_17
    4  A    between atoms: C_7  and  O_15
    5  A    between atoms: C_12  and  C_17
    6  A    between atoms: C_14  and  C_29
    7  A    between atoms: O_15  and  C_22
    8  A    between atoms: C_16  and  C_22
    9  A    between atoms: C_16  and  C_27
   10  A    between atoms: C_18  and  C_29
                            x       y       z     vdW  Elec       q    Type
                         _______ _______ _______ _____ _____    ______ ____

>  <TORSDO>
F 10

$$$$
=
 OpenBabel11062408143D

 32 34  0  0  1  0  0  0  0  0999 V2000
  161.3250  209.0070  154.8590 C   0  0  1  0  0  3  0  0  0  0  0  0
  161.0250  209.2630  152.5410 C   0  0  1  0  0  3  0  0  0  0  0  0
  160.5730  208.7060  156.1580 C   0  0  0  0  0  2  0  0  0  0  0  0
  160.5490  208.4550  153.7250 C   0  0  1  0  0  3  0  0  0  0  0  0
  161.3360  210.5530  153.0310 O   0  0  0  0  0  0  0  0  0  0  0  0
  160.5650  206.9210  153.7430 C   0  0  2  0  0  3  0  0  0  0  0  0
  160.1020  206.4570  155.1140 C   0  0  0  0  0  3  0  0  0  0  0  0
  163.0780  210.7090  154.6290 C   0  0  0  0  0  1  0  0  0  0  0  0
  161.5920  210.4530  154.4230 C   0  0  2  0  0  0  0  0  0  0  0  0
  160.1480  207.2480  156.2100 C   0  0  0  0  0  3  0  0  0  0  0  0
  160.8170  211.5520  155.2060 C   0  0  2  0  0  3  0  0  0  0  0  0
  160.9610  211.3570  156.5850 O   0  0  0  0  0  1  0  0  0  0  0  0
  159.3380  211.9020  154.8150 C   0  0  2  0  0  0  0  0  0  0  0  0
  158.5710  210.7330  154.7860 O   0  0  0  0  0  1  0  0  0  0  0  0
  159.2790  212.5650  153.4050 C   0  0  1  0  0  3  0  0  0  0  0  0
  158.3070  211.9070  152.4400 C   0  0  0  0  0  1  0  0  0  0  0  0
  158.9510  213.9170  153.5100 O   0  0  0  0  0  1  0  0  0  0  0  0
  158.7480  212.7540  155.7940 O   0  0  0  0  0  0  0  0  0  0  0  0
  157.4960  212.2520  156.2110 C   0  0  0  0  0  2  0  0  0  0  0  0
  156.4810  213.0770  155.7270 O   0  0  0  0  0  1  0  0  0  0  0  0
  162.1640  208.7090  151.9500 O   0  0  0  0  0  0  0  0  0  0  0  0
  161.9880  208.8960  150.5810 C   0  0  0  0  0  2  0  0  0  0  0  0
  161.1220  205.7220  147.8450 C   0  0  0  0  0  2  0  0  0  0  0  0
  160.5230  207.2580  149.6290 O   0  0  0  0  0  0  0  0  0  0  0  0
  161.8770  207.5530  149.8820 C   0  0  1  0  0  3  0  0  0  0  0  0
  162.7030  207.5600  148.5810 C   0  0  0  0  0  2  0  0  0  0  0  0
  160.4880  205.9090  149.2310 C   0  0  0  0  0  2  0  0  0  0  0  0
  161.9240  206.9530  147.4120 C   0  0  0  0  0  2  0  0  0  0  0  0
  161.9600  206.3550  153.4720 C   0  0  0  0  0  2  0  0  0  0  0  0
  161.1940  204.3310  152.3550 C   0  0  0  0  0  0  0  0  0  0  0  0
  161.9580  205.3880  152.3350 C   0  0  0  0  0  3  0  0  0  0  0  0
  160.4720  203.3290  152.3870 O   0  0  0  0  0  0  0  0  0  0  0  0
  1  3  1  1  0  0  0
  2 21  1  1  0  0  0
  2  5  1  0  0  0  0
  2  4  1  0  0  0  0
  3 10  1  0  0  0  0
  4  6  1  0  0  0  0
  4  1  1  0  0  0  0
  5  9  1  0  0  0  0
  6  7  1  0  0  0  0
  7 10  2  0  0  0  0
  9  8  1  0  0  0  0
  9  1  1  0  0  0  0
  9 11  1  0  0  0  0
 11 12  1  0  0  0  0
 13 11  1  0  0  0  0
 13 18  1  0  0  0  0
 14 13  1  0  0  0  0
 15 17  1  0  0  0  0
 15 13  1  0  0  0  0
 16 15  1  0  0  0  0
 18 19  1  0  0  0  0
 20 19  1  0  0  0  0
 22 21  1  0  0  0  0
 23 27  1  0  0  0  0
 24 25  1  0  0  0  0
 25 22  1  0  0  0  0
 26 25  1  0  0  0  0
 27 24  1  0  0  0  0
 28 23  1  0  0  0  0
 28 26  1  0  0  0  0
 29  6  1  0  0  0  0
 30 32  2  0  0  0  0
 31 30  2  0  0  0  0
 31 29  1  0  0  0  0
M  END
>  <MODEL>
6

>  <REMARK>
 VINA RESULT:      -5.9      3.451      8.647
  Name = 
  10 active torsions:
  status: ('A' for Active; 'I' for Inactive)
    1  A    between atoms: C_2  and  O_6
    2  A    between atoms: C_3  and  C_22
    3  A    between atoms: O_6  and  C_17
    4  A    between atoms: C_7  and  O_15
    5  A    between atoms: C_12  and  C_17
    6  A    between atoms: C_14  and  C_29
    7  A    between atoms: O_15  and  C_22
    8  A    between atoms: C_16  and  C_22
    9  A    between atoms: C_16  and  C_27
   10  A    between atoms: C_18  and  C_29
                            x       y       z     vdW  Elec       q    Type
                         _______ _______ _______ _____ _____    ______ ____

>  <TORSDO>
F 10

$$$$
=
 OpenBabel11062408143D

 32 34  0  0  1  0  0  0  0  0999 V2000
  161.5950  205.0990  151.3990 C   0  0  1  0  0  3  0  0  0  0  0  0
  160.5080  206.1630  149.6050 C   0  0  1  0  0  3  0  0  0  0  0  0
  161.3340  204.3160  152.6880 C   0  0  0  0  0  2  0  0  0  0  0  0
  160.4150  204.9600  150.5150 C   0  0  1  0  0  3  0  0  0  0  0  0
  161.0940  207.2010  150.3660 O   0  0  0  0  0  0  0  0  0  0  0  0
  160.2910  203.5260  149.9850 C   0  0  2  0  0  3  0  0  0  0  0  0
  160.3090  202.5770  151.1720 C   0  0  0  0  0  3  0  0  0  0  0  0
  163.3000  206.8460  151.1540 C   0  0  0  0  0  1  0  0  0  0  0  0
  161.8230  206.6160  151.4340 C   0  0  2  0  0  0  0  0  0  0  0  0
  160.8210  202.9200  152.3760 C   0  0  0  0  0  3  0  0  0  0  0  0
  161.4880  207.3210  152.7810 C   0  0  2  0  0  3  0  0  0  0  0  0
  160.4530  206.6460  153.4380 O   0  0  0  0  0  1  0  0  0  0  0  0
  161.2950  208.8780  152.8260 C   0  0  2  0  0  0  0  0  0  0  0  0
  160.0100  209.2040  152.3800 O   0  0  0  0  0  1  0  0  0  0  0  0
  162.3320  209.5930  151.9080 C   0  0  1  0  0  3  0  0  0  0  0  0
  161.7200  210.5070  150.8590 C   0  0  0  0  0  1  0  0  0  0  0  0
  163.2340  210.3370  152.6700 O   0  0  0  0  0  1  0  0  0  0  0  0
  161.3970  209.3570  154.1650 O   0  0  0  0  0  0  0  0  0  0  0  0
  160.1870  209.9560  154.5800 C   0  0  0  0  0  2  0  0  0  0  0  0
  159.6890  209.2730  155.6900 O   0  0  0  0  0  1  0  0  0  0  0  0
  161.3010  205.9110  148.4820 O   0  0  0  0  0  0  0  0  0  0  0  0
  161.0100  206.9460  147.5950 C   0  0  0  0  0  2  0  0  0  0  0  0
  161.6090  204.7780  143.9550 C   0  0  0  0  0  2  0  0  0  0  0  0
  162.2410  205.4300  146.2080 O   0  0  0  0  0  0  0  0  0  0  0  0
  161.3600  206.5290  146.1780 C   0  0  1  0  0  3  0  0  0  0  0  0
  160.0790  206.2010  145.3870 C   0  0  0  0  0  2  0  0  0  0  0  0
  162.7180  205.2790  144.8920 C   0  0  0  0  0  2  0  0  0  0  0  0
  160.2210  204.9020  144.5910 C   0  0  0  0  0  2  0  0  0  0  0  0
  161.4360  203.1590  149.0390 C   0  0  0  0  0  2  0  0  0  0  0  0
  160.8650  201.7730  147.1200 C   0  0  0  0  0  0  0  0  0  0  0  0
  161.2110  201.8410  148.3760 C   0  0  0  0  0  3  0  0  0  0  0  0
  160.5310  201.7180  145.9310 O   0  0  0  0  0  0  0  0  0  0  0  0
  1  9  1  0  0  0  0
  1  3  1  1  0  0  0
  2 21  1  6  0  0  0
  2  5  1  0  0  0  0
  2  4  1  0  0  0  0
  4  1  1  0  0  0  0
  5  9  1  0  0  0  0
  6  4  1  0  0  0  0
  6  7  1  0  0  0  0
  7 10  2  0  0  0  0
  8  9  1  0  0  0  0
  9 11  1  0  0  0  0
 10  3  1  0  0  0  0
 11 13  1  0  0  0  0
 11 12  1  0  0  0  0
 13 18  1  0  0  0  0
 14 13  1  0  0  0  0
 15 17  1  0  0  0  0
 15 13  1  0  0  0  0
 16 15  1  0  0  0  0
 18 19  1  0  0  0  0
 19 20  1  0  0  0  0
 22 21  1  0  0  0  0
 23 28  1  0  0  0  0
 23 27  1  0  0  0  0
 25 24  1  0  0  0  0
 25 22  1  0  0  0  0
 26 25  1  0  0  0  0
 27 24  1  0  0  0  0
 28 26  1  0  0  0  0
 29  6  1  0  0  0  0
 30 31  2  0  0  0  0
 31 29  1  0  0  0  0
 32 30  2  0  0  0  0
M  END
>  <MODEL>
7

>  <REMARK>
 VINA RESULT:      -5.6      2.242      7.558
  Name = 
  10 active torsions:
  status: ('A' for Active; 'I' for Inactive)
    1  A    between atoms: C_2  and  O_6
    2  A    between atoms: C_3  and  C_22
    3  A    between atoms: O_6  and  C_17
    4  A    between atoms: C_7  and  O_15
    5  A    between atoms: C_12  and  C_17
    6  A    between atoms: C_14  and  C_29
    7  A    between atoms: O_15  and  C_22
    8  A    between atoms: C_16  and  C_22
    9  A    between atoms: C_16  and  C_27
   10  A    between atoms: C_18  and  C_29
                            x       y       z     vdW  Elec       q    Type
                         _______ _______ _______ _____ _____    ______ ____

>  <TORSDO>
F 10

$$$$
=
 OpenBabel11062408143D

 32 34  0  0  1  0  0  0  0  0999 V2000
  161.4320  208.5370  153.5250 C   0  0  1  0  0  3  0  0  0  0  0  0
  160.4690  210.0010  151.9560 C   0  0  1  0  0  3  0  0  0  0  0  0
  161.1660  207.2510  154.3120 C   0  0  0  0  0  2  0  0  0  0  0  0
  160.5730  208.5380  152.3190 C   0  0  1  0  0  3  0  0  0  0  0  0
  160.5200  210.7230  153.1710 O   0  0  0  0  0  0  0  0  0  0  0  0
  161.0260  207.4660  151.3200 C   0  0  2  0  0  3  0  0  0  0  0  0
  161.0920  206.1340  152.0500 C   0  0  0  0  0  3  0  0  0  0  0  0
  162.5050  210.5390  154.4530 C   0  0  0  0  0  1  0  0  0  0  0  0
  161.1530  209.9110  154.1480 C   0  0  2  0  0  0  0  0  0  0  0  0
  161.2010  206.0400  153.3940 C   0  0  0  0  0  3  0  0  0  0  0  0
  160.3350  209.9020  155.4720 C   0  0  2  0  0  3  0  0  0  0  0  0
  159.6270  208.7000  155.5970 O   0  0  0  0  0  1  0  0  0  0  0  0
  159.4570  211.1430  155.8620 C   0  0  2  0  0  0  0  0  0  0  0  0
  159.3890  211.2500  157.2550 O   0  0  0  0  0  1  0  0  0  0  0  0
  158.0070  210.9920  155.3080 C   0  0  1  0  0  3  0  0  0  0  0  0
  156.9180  211.4640  156.2580 C   0  0  0  0  0  1  0  0  0  0  0  0
  157.8670  211.6780  154.1010 O   0  0  0  0  0  1  0  0  0  0  0  0
  160.0510  212.3480  155.3870 O   0  0  0  0  0  0  0  0  0  0  0  0
  160.0420  213.3440  156.3890 C   0  0  0  0  0  2  0  0  0  0  0  0
  159.3160  214.4460  155.9380 O   0  0  0  0  0  1  0  0  0  0  0  0
  161.5200  210.4130  151.1320 O   0  0  0  0  0  0  0  0  0  0  0  0
  161.2230  211.7330  150.7990 C   0  0  0  0  0  2  0  0  0  0  0  0
  162.0120  212.9900  146.7860 C   0  0  0  0  0  2  0  0  0  0  0  0
  160.9630  213.2470  148.9620 O   0  0  0  0  0  0  0  0  0  0  0  0
  161.2270  211.9030  149.2910 C   0  0  1  0  0  3  0  0  0  0  0  0
  162.5740  211.4360  148.7060 C   0  0  0  0  0  2  0  0  0  0  0  0
  160.7240  213.2670  147.5750 C   0  0  0  0  0  2  0  0  0  0  0  0
  163.1220  212.4300  147.6800 C   0  0  0  0  0  2  0  0  0  0  0  0
  162.4010  207.7750  150.7250 C   0  0  0  0  0  2  0  0  0  0  0  0
  161.4240  207.0870  148.6040 C   0  0  0  0  0  0  0  0  0  0  0  0
  162.3970  207.6830  149.2350 C   0  0  0  0  0  3  0  0  0  0  0  0
  160.5010  206.5130  148.0140 O   0  0  0  0  0  0  0  0  0  0  0  0
  1  9  1  0  0  0  0
  1  3  1  1  0  0  0
  2 21  1  6  0  0  0
  2  4  1  0  0  0  0
  2  5  1  0  0  0  0
  4  1  1  0  0  0  0
  5  9  1  0  0  0  0
  6  7  1  0  0  0  0
  6  4  1  0  0  0  0
  7 10  2  0  0  0  0
  9  8  1  0  0  0  0
  9 11  1  0  0  0  0
 10  3  1  0  0  0  0
 11 12  1  0  0  0  0
 11 13  1  0  0  0  0
 13 14  1  0  0  0  0
 15 13  1  0  0  0  0
 15 16  1  0  0  0  0
 17 15  1  0  0  0  0
 18 13  1  0  0  0  0
 18 19  1  0  0  0  0
 20 19  1  0  0  0  0
 22 21  1  0  0  0  0
 23 27  1  0  0  0  0
 23 28  1  0  0  0  0
 24 25  1  0  0  0  0
 25 22  1  0  0  0  0
 26 25  1  0  0  0  0
 27 24  1  0  0  0  0
 28 26  1  0  0  0  0
 29  6  1  0  0  0  0
 30 31  2  0  0  0  0
 31 29  1  0  0  0  0
 32 30  2  0  0  0  0
M  END
>  <MODEL>
8

>  <REMARK>
 VINA RESULT:      -5.5      2.715      8.066
  Name = 
  10 active torsions:
  status: ('A' for Active; 'I' for Inactive)
    1  A    between atoms: C_2  and  O_6
    2  A    between atoms: C_3  and  C_22
    3  A    between atoms: O_6  and  C_17
    4  A    between atoms: C_7  and  O_15
    5  A    between atoms: C_12  and  C_17
    6  A    between atoms: C_14  and  C_29
    7  A    between atoms: O_15  and  C_22
    8  A    between atoms: C_16  and  C_22
    9  A    between atoms: C_16  and  C_27
   10  A    between atoms: C_18  and  C_29
                            x       y       z     vdW  Elec       q    Type
                         _______ _______ _______ _____ _____    ______ ____

>  <TORSDO>
F 10

$$$$
=
 OpenBabel11062408143D

 32 34  0  0  1  0  0  0  0  0999 V2000
  161.5000  208.5210  152.9680 C   0  0  1  0  0  3  0  0  0  0  0  0
  160.7600  210.1090  151.3980 C   0  0  1  0  0  3  0  0  0  0  0  0
  161.0850  207.2350  153.6860 C   0  0  0  0  0  2  0  0  0  0  0  0
  160.7260  208.6310  151.7100 C   0  0  1  0  0  3  0  0  0  0  0  0
  160.7850  210.7830  152.6410 O   0  0  0  0  0  0  0  0  0  0  0  0
  161.1610  207.5600  150.7020 C   0  0  2  0  0  3  0  0  0  0  0  0
  161.0760  206.2030  151.3830 C   0  0  0  0  0  3  0  0  0  0  0  0
  162.6600  210.3990  154.0380 C   0  0  0  0  0  1  0  0  0  0  0  0
  161.2870  209.8910  153.6240 C   0  0  2  0  0  0  0  0  0  0  0  0
  161.0880  206.0560  152.7270 C   0  0  0  0  0  3  0  0  0  0  0  0
  160.3850  209.9030  154.8920 C   0  0  2  0  0  3  0  0  0  0  0  0
  159.1130  210.3980  154.5770 O   0  0  0  0  0  1  0  0  0  0  0  0
  160.9280  210.4960  156.2390 C   0  0  2  0  0  0  0  0  0  0  0  0
  162.1040  211.2140  155.9950 O   0  0  0  0  0  1  0  0  0  0  0  0
  161.2480  209.3590  157.2570 C   0  0  1  0  0  3  0  0  0  0  0  0
  160.4840  208.0670  157.0190 C   0  0  0  0  0  1  0  0  0  0  0  0
  162.6130  209.0710  157.2600 O   0  0  0  0  0  1  0  0  0  0  0  0
  159.9940  211.4180  156.7950 O   0  0  0  0  0  0  0  0  0  0  0  0
  160.3460  212.7480  156.4770 C   0  0  0  0  0  2  0  0  0  0  0  0
  159.4340  213.6230  157.0670 O   0  0  0  0  0  1  0  0  0  0  0  0
  161.8920  210.4630  150.6590 O   0  0  0  0  0  0  0  0  0  0  0  0
  161.6380  211.7560  150.2070 C   0  0  0  0  0  2  0  0  0  0  0  0
  161.5860  212.9430  146.0960 C   0  0  0  0  0  2  0  0  0  0  0  0
  160.5160  212.5300  148.2380 O   0  0  0  0  0  0  0  0  0  0  0  0
  161.6210  211.7820  148.6890 C   0  0  1  0  0  3  0  0  0  0  0  0
  162.9460  212.3580  148.1520 C   0  0  0  0  0  2  0  0  0  0  0  0
  160.4230  212.2870  146.8540 C   0  0  0  0  0  2  0  0  0  0  0  0
  162.7100  213.3820  147.0400 C   0  0  0  0  0  2  0  0  0  0  0  0
  162.5930  207.7790  150.2080 C   0  0  0  0  0  2  0  0  0  0  0  0
  161.7810  207.1290  148.0060 C   0  0  0  0  0  0  0  0  0  0  0  0
  162.6780  207.7540  148.7180 C   0  0  0  0  0  3  0  0  0  0  0  0
  160.9310  206.5280  147.3400 O   0  0  0  0  0  0  0  0  0  0  0  0
  1  9  1  0  0  0  0
  1  3  1  1  0  0  0
  2 21  1  6  0  0  0
  2  4  1  0  0  0  0
  2  5  1  0  0  0  0
  4  1  1  0  0  0  0
  5  9  1  0  0  0  0
  6  7  1  0  0  0  0
  6  4  1  0  0  0  0
  7 10  2  0  0  0  0
  9  8  1  0  0  0  0
  9 11  1  0  0  0  0
 10  3  1  0  0  0  0
 11 13  1  0  0  0  0
 12 11  1  0  0  0  0
 13 18  1  0  0  0  0
 13 15  1  0  0  0  0
 14 13  1  0  0  0  0
 15 17  1  0  0  0  0
 16 15  1  0  0  0  0
 19 18  1  0  0  0  0
 19 20  1  0  0  0  0
 22 21  1  0  0  0  0
 23 27  1  0  0  0  0
 23 28  1  0  0  0  0
 24 25  1  0  0  0  0
 25 22  1  0  0  0  0
 26 25  1  0  0  0  0
 27 24  1  0  0  0  0
 28 26  1  0  0  0  0
 29  6  1  0  0  0  0
 30 31  2  0  0  0  0
 31 29  1  0  0  0  0
 32 30  2  0  0  0  0
M  END
>  <MODEL>
9

>  <REMARK>
 VINA RESULT:      -5.2      2.712      7.985
  Name = 
  10 active torsions:
  status: ('A' for Active; 'I' for Inactive)
    1  A    between atoms: C_2  and  O_6
    2  A    between atoms: C_3  and  C_22
    3  A    between atoms: O_6  and  C_17
    4  A    between atoms: C_7  and  O_15
    5  A    between atoms: C_12  and  C_17
    6  A    between atoms: C_14  and  C_29
    7  A    between atoms: O_15  and  C_22
    8  A    between atoms: C_16  and  C_22
    9  A    between atoms: C_16  and  C_27
   10  A    between atoms: C_18  and  C_29
                            x       y       z     vdW  Elec       q    Type
                         _______ _______ _______ _____ _____    ______ ____

>  <TORSDO>
F 10

$$$$
