=
 OpenBabel11052423043D

 28 29  0  0  1  0  0  0  0  0999 V2000
  156.2770  213.1570  154.0970 C   0  0  0  0  0  3  0  0  0  0  0  0
  156.8830  211.1850  156.1230 O   0  0  0  0  0  1  0  0  0  0  0  0
  157.2510  212.3300  156.8350 C   0  0  1  0  0  3  0  0  0  0  0  0
  158.0190  214.4400  151.0470 O   0  0  0  0  0  1  0  0  0  0  0  0
  155.0290  213.2620  156.7300 O   0  0  0  0  0  1  0  0  0  0  0  0
  159.6290  211.3700  156.4400 C   0  0  0  0  0  2  0  0  0  0  0  0
  160.1010  211.3690  154.9830 C   0  0  2  0  0  3  0  0  0  0  0  0
  158.7760  212.5910  156.8240 C   0  0  1  0  0  3  0  0  0  0  0  0
  159.0200  213.5210  153.0230 C   0  0  0  0  0  2  0  0  0  0  0  0
  158.9450  211.0680  154.0240 C   0  0  0  0  0  2  0  0  0  0  0  0
  155.4400  214.4530  152.3040 O   0  0  0  0  0  1  0  0  0  0  0  0
  159.2010  211.8250  152.3840 S   0  0  0  0  0  0  0  0  0  0  0  0
  157.8250  214.2600  152.4170 C   0  0  2  0  0  3  0  0  0  0  0  0
  156.4700  213.5880  152.6740 C   0  0  1  0  0  3  0  0  0  0  0  0
  156.5330  213.9460  155.0800 N   0  0  0  0  0  0  0  0  0  0  0  0
  156.3720  213.5370  156.4610 C   0  0  2  0  0  3  0  0  0  0  0  0
  162.1740  208.5960  156.0900 O   0  0  0  0  0  0  0  0  0  0  0  0
  160.9030  209.1220  154.1490 C   0  0  1  0  0  3  0  0  0  0  0  0
  161.2070  208.0710  155.2200 C   0  0  1  0  0  3  0  0  0  0  0  0
  161.2850  210.4040  154.8350 C   0  0  2  0  0  3  0  0  0  0  0  0
  161.8790  209.9670  156.1660 C   0  0  0  0  0  2  0  0  0  0  0  0
  161.6590  209.0020  152.8130 C   0  0  0  0  0  3  0  0  0  0  0  0
  162.3500  210.3030  152.4490 C   0  0  0  0  0  1  0  0  0  0  0  0
  160.8010  208.5080  151.6570 C   0  0  0  0  0  1  0  0  0  0  0  0
  160.4510  206.0570  154.3000 C   0  0  0  0  0  1  0  0  0  0  0  0
  161.6440  206.7950  154.6720 N   0  0  0  0  0  2  0  0  0  0  0  0
  159.9800  214.4470  156.9740 C   0  0  0  0  0  1  0  0  0  0  0  0
  159.1450  213.7380  156.1100 O   0  0  0  0  0  0  0  0  0  0  0  0
  1 15  2  0  0  0  0
  3  2  1  6  0  0  0
  6  8  1  0  0  0  0
  7 10  1  6  0  0  0
  7  6  1  0  0  0  0
  8 28  1  6  0  0  0
  8  3  1  0  0  0  0
 12  9  1  0  0  0  0
 12 10  1  0  0  0  0
 13  4  1  6  0  0  0
 13 14  1  0  0  0  0
 13  9  1  0  0  0  0
 14 11  1  1  0  0  0
 14  1  1  0  0  0  0
 15 16  1  0  0  0  0
 16  5  1  6  0  0  0
 16  3  1  0  0  0  0
 17 21  1  0  0  0  0
 18 22  1  6  0  0  0
 18 20  1  0  0  0  0
 18 19  1  0  0  0  0
 19 26  1  6  0  0  0
 19 17  1  0  0  0  0
 20  7  1  0  0  0  0
 20 21  1  1  0  0  0
 23 22  1  0  0  0  0
 24 22  1  0  0  0  0
 25 26  1  0  0  0  0
 28 27  1  0  0  0  0
M  END
>  <MODEL>
1

>  <REMARK>
 VINA RESULT:      -3.7      0.000      0.000
  Name = 
  4 active torsions:
  status: ('A' for Active; 'I' for Inactive)
    1  A    between atoms: C_9  and  C_14
    2  A    between atoms: C_10  and  C_13
    3  A    between atoms: C_11  and  O_22
    4  A    between atoms: C_12  and  N_23
                            x       y       z     vdW  Elec       q    Type
                         _______ _______ _______ _____ _____    ______ ____

>  <TORSDO>
F 4

$$$$
=
 OpenBabel11052423043D

 28 29  0  0  1  0  0  0  0  0999 V2000
  158.6170  211.7350  154.3910 C   0  0  0  0  0  3  0  0  0  0  0  0
  158.7150  209.1500  155.6820 O   0  0  0  0  0  1  0  0  0  0  0  0
  159.7090  209.7900  156.4290 C   0  0  1  0  0  3  0  0  0  0  0  0
  160.0070  213.1670  151.2280 O   0  0  0  0  0  1  0  0  0  0  0  0
  158.1840  211.4630  157.2610 O   0  0  0  0  0  1  0  0  0  0  0  0
  161.2420  208.1910  155.0760 C   0  0  0  0  0  2  0  0  0  0  0  0
  161.3190  208.4730  153.5730 C   0  0  2  0  0  3  0  0  0  0  0  0
  161.1410  209.4540  155.9480 C   0  0  1  0  0  3  0  0  0  0  0  0
  160.9070  211.3710  152.5360 C   0  0  0  0  0  2  0  0  0  0  0  0
  159.9660  208.9410  153.0250 C   0  0  0  0  0  2  0  0  0  0  0  0
  158.0700  213.7420  153.2650 O   0  0  0  0  0  1  0  0  0  0  0  0
  160.1560  210.0240  151.5690 S   0  0  0  0  0  0  0  0  0  0  0  0
  160.0690  212.6510  152.5230 C   0  0  2  0  0  3  0  0  0  0  0  0
  158.6550  212.4870  153.0940 C   0  0  1  0  0  3  0  0  0  0  0  0
  159.4170  212.0200  155.3570 N   0  0  0  0  0  0  0  0  0  0  0  0
  159.4070  211.2890  156.6080 C   0  0  2  0  0  3  0  0  0  0  0  0
  161.5840  204.8880  153.0360 O   0  0  0  0  0  0  0  0  0  0  0  0
  160.9940  206.7820  151.7230 C   0  0  1  0  0  3  0  0  0  0  0  0
  160.6000  205.3690  152.1590 C   0  0  1  0  0  3  0  0  0  0  0  0
  161.8740  207.2370  152.8530 C   0  0  2  0  0  3  0  0  0  0  0  0
  162.0030  206.0180  153.7560 C   0  0  0  0  0  2  0  0  0  0  0  0
  161.7490  206.9200  150.3890 C   0  0  0  0  0  3  0  0  0  0  0  0
  162.6950  208.1060  150.4070 C   0  0  0  0  0  1  0  0  0  0  0  0
  160.8430  206.9750  149.1670 C   0  0  0  0  0  1  0  0  0  0  0  0
  161.1610  203.2460  151.3500 C   0  0  0  0  0  1  0  0  0  0  0  0
  160.4090  204.4500  151.0460 N   0  0  0  0  0  2  0  0  0  0  0  0
  162.9750  210.6860  156.1400 C   0  0  0  0  0  1  0  0  0  0  0  0
  161.8130  210.5440  155.3800 O   0  0  0  0  0  0  0  0  0  0  0  0
  1 15  2  0  0  0  0
  3  2  1  6  0  0  0
  3 16  1  0  0  0  0
  6  8  1  0  0  0  0
  7 10  1  6  0  0  0
  7  6  1  0  0  0  0
  8 28  1  6  0  0  0
  8  3  1  0  0  0  0
 12  9  1  0  0  0  0
 12 10  1  0  0  0  0
 13  4  1  6  0  0  0
 13  9  1  0  0  0  0
 13 14  1  0  0  0  0
 14 11  1  1  0  0  0
 14  1  1  0  0  0  0
 15 16  1  0  0  0  0
 16  5  1  6  0  0  0
 17 21  1  0  0  0  0
 18 22  1  6  0  0  0
 18 19  1  0  0  0  0
 18 20  1  0  0  0  0
 19 26  1  6  0  0  0
 19 17  1  0  0  0  0
 20  7  1  0  0  0  0
 20 21  1  1  0  0  0
 22 23  1  0  0  0  0
 24 22  1  0  0  0  0
 26 25  1  0  0  0  0
 28 27  1  0  0  0  0
M  END
>  <MODEL>
2

>  <REMARK>
 VINA RESULT:      -2.8      2.332      3.547
  Name = 
  4 active torsions:
  status: ('A' for Active; 'I' for Inactive)
    1  A    between atoms: C_9  and  C_14
    2  A    between atoms: C_10  and  C_13
    3  A    between atoms: C_11  and  O_22
    4  A    between atoms: C_12  and  N_23
                            x       y       z     vdW  Elec       q    Type
                         _______ _______ _______ _____ _____    ______ ____

>  <TORSDO>
F 4

$$$$
=
 OpenBabel11052423043D

 28 29  0  0  1  0  0  0  0  0999 V2000
  160.0970  203.1040  146.9530 C   0  0  0  0  0  3  0  0  0  0  0  0
  160.0540  205.9520  146.4570 O   0  0  0  0  0  1  0  0  0  0  0  0
  161.2450  205.6460  145.7920 C   0  0  1  0  0  3  0  0  0  0  0  0
  161.0950  200.9340  149.8310 O   0  0  0  0  0  1  0  0  0  0  0  0
  160.1440  204.1650  144.2380 O   0  0  0  0  0  1  0  0  0  0  0  0
  162.2710  206.9040  147.8150 C   0  0  0  0  0  2  0  0  0  0  0  0
  162.1210  206.2030  149.1690 C   0  0  2  0  0  3  0  0  0  0  0  0
  162.5070  205.9480  146.6340 C   0  0  1  0  0  3  0  0  0  0  0  0
  161.9480  203.1040  149.2740 C   0  0  0  0  0  2  0  0  0  0  0  0
  160.7730  205.4810  149.2730 C   0  0  0  0  0  2  0  0  0  0  0  0
  159.6500  200.8160  147.3550 O   0  0  0  0  0  1  0  0  0  0  0  0
  160.8540  204.0400  150.3900 S   0  0  0  0  0  0  0  0  0  0  0  0
  161.3110  201.8090  148.7660 C   0  0  2  0  0  3  0  0  0  0  0  0
  160.0110  202.0110  147.9770 C   0  0  1  0  0  3  0  0  0  0  0  0
  161.0870  203.1830  146.1350 N   0  0  0  0  0  0  0  0  0  0  0  0
  161.1950  204.2450  145.1550 C   0  0  2  0  0  3  0  0  0  0  0  0
  161.7110  209.4580  150.7310 O   0  0  0  0  0  0  0  0  0  0  0  0
  161.2690  207.1990  151.3300 C   0  0  1  0  0  3  0  0  0  0  0  0
  160.7090  208.6210  151.2450 C   0  0  1  0  0  3  0  0  0  0  0  0
  162.3590  207.2180  150.2950 C   0  0  2  0  0  3  0  0  0  0  0  0
  162.4060  208.6590  149.8100 C   0  0  0  0  0  2  0  0  0  0  0  0
  161.8460  206.7510  152.6840 C   0  0  0  0  0  3  0  0  0  0  0  0
  163.0180  205.8040  152.5010 C   0  0  0  0  0  1  0  0  0  0  0  0
  160.8140  206.1520  153.6300 C   0  0  0  0  0  1  0  0  0  0  0  0
  160.5800  210.5310  152.5900 C   0  0  0  0  0  1  0  0  0  0  0  0
  160.2170  209.1270  152.5190 N   0  0  0  0  0  2  0  0  0  0  0  0
  164.0530  204.5210  145.9350 C   0  0  0  0  0  1  0  0  0  0  0  0
  163.2160  204.8020  147.0150 O   0  0  0  0  0  0  0  0  0  0  0  0
  1 14  1  0  0  0  0
  3  2  1  1  0  0  0
  3  8  1  0  0  0  0
  7  6  1  6  0  0  0
  7 10  1  0  0  0  0
  7 20  1  0  0  0  0
  8 28  1  1  0  0  0
  8  6  1  0  0  0  0
  9 12  1  0  0  0  0
 10 12  1  0  0  0  0
 13  9  1  0  0  0  0
 13  4  1  1  0  0  0
 14 11  1  6  0  0  0
 14 13  1  0  0  0  0
 15  1  2  0  0  0  0
 16  5  1  6  0  0  0
 16  3  1  0  0  0  0
 16 15  1  0  0  0  0
 17 19  1  0  0  0  0
 18 22  1  1  0  0  0
 19 18  1  0  0  0  0
 19 26  1  1  0  0  0
 20 21  1  6  0  0  0
 20 18  1  0  0  0  0
 21 17  1  0  0  0  0
 22 24  1  0  0  0  0
 23 22  1  0  0  0  0
 26 25  1  0  0  0  0
 27 28  1  0  0  0  0
M  END
>  <MODEL>
3

>  <REMARK>
 VINA RESULT:      -1.9      6.710     10.643
  Name = 
  4 active torsions:
  status: ('A' for Active; 'I' for Inactive)
    1  A    between atoms: C_9  and  C_14
    2  A    between atoms: C_10  and  C_13
    3  A    between atoms: C_11  and  O_22
    4  A    between atoms: C_12  and  N_23
                            x       y       z     vdW  Elec       q    Type
                         _______ _______ _______ _____ _____    ______ ____

>  <TORSDO>
F 4

$$$$
=
 OpenBabel11052423043D

 28 29  0  0  1  0  0  0  0  0999 V2000
  161.9570  207.5840  153.3760 C   0  0  0  0  0  3  0  0  0  0  0  0
  162.6880  210.3260  153.9320 O   0  0  0  0  0  1  0  0  0  0  0  0
  161.3550  210.3780  154.3530 C   0  0  1  0  0  3  0  0  0  0  0  0
  160.9590  205.6790  150.3160 O   0  0  0  0  0  1  0  0  0  0  0  0
  161.6960  208.7030  156.0550 O   0  0  0  0  0  1  0  0  0  0  0  0
  161.1120  211.8040  152.1990 C   0  0  0  0  0  2  0  0  0  0  0  0
  161.3140  211.0460  150.8840 C   0  0  2  0  0  3  0  0  0  0  0  0
  160.4060  210.9870  153.2950 C   0  0  1  0  0  3  0  0  0  0  0  0
  160.6460  208.0160  150.7480 C   0  0  0  0  0  2  0  0  0  0  0  0
  162.4060  209.9790  151.0210 C   0  0  0  0  0  2  0  0  0  0  0  0
  161.8260  205.2490  153.0180 O   0  0  0  0  0  1  0  0  0  0  0  0
  162.1440  208.5810  149.8790 S   0  0  0  0  0  0  0  0  0  0  0  0
  160.7960  206.6130  151.3400 C   0  0  2  0  0  3  0  0  0  0  0  0
  161.9300  206.4770  152.3640 C   0  0  1  0  0  3  0  0  0  0  0  0
  160.8920  207.9570  153.9940 N   0  0  0  0  0  0  0  0  0  0  0  0
  160.8990  209.0380  154.9580 C   0  0  2  0  0  3  0  0  0  0  0  0
  162.3600  211.9290  147.5180 O   0  0  0  0  0  0  0  0  0  0  0  0
  160.4000  212.2100  148.8360 C   0  0  1  0  0  3  0  0  0  0  0  0
  160.9680  211.7550  147.4890 C   0  0  1  0  0  3  0  0  0  0  0  0
  161.5790  212.0510  149.7550 C   0  0  2  0  0  3  0  0  0  0  0  0
  162.7280  211.6470  148.8430 C   0  0  0  0  0  2  0  0  0  0  0  0
  159.8650  213.6500  148.9220 C   0  0  0  0  0  3  0  0  0  0  0  0
  160.5850  214.4460  149.9950 C   0  0  0  0  0  1  0  0  0  0  0  0
  158.3570  213.7410  149.1070 C   0  0  0  0  0  1  0  0  0  0  0  0
  161.4590  213.1790  145.6980 C   0  0  0  0  0  1  0  0  0  0  0  0
  160.3860  212.4510  146.3500 N   0  0  0  0  0  2  0  0  0  0  0  0
  158.2520  210.6970  152.8550 C   0  0  0  0  0  1  0  0  0  0  0  0
  159.4940  210.0670  152.7620 O   0  0  0  0  0  0  0  0  0  0  0  0
  1 15  2  0  0  0  0
  3  2  1  6  0  0  0
  3 16  1  0  0  0  0
  6  8  1  0  0  0  0
  7 10  1  1  0  0  0
  7  6  1  0  0  0  0
  8 28  1  6  0  0  0
  8  3  1  0  0  0  0
  9 13  1  0  0  0  0
 12  9  1  0  0  0  0
 12 10  1  0  0  0  0
 13  4  1  6  0  0  0
 13 14  1  0  0  0  0
 14 11  1  1  0  0  0
 14  1  1  0  0  0  0
 15 16  1  0  0  0  0
 16  5  1  1  0  0  0
 17 21  1  0  0  0  0
 18 22  1  6  0  0  0
 18 20  1  0  0  0  0
 19 26  1  6  0  0  0
 19 17  1  0  0  0  0
 19 18  1  0  0  0  0
 20 21  1  6  0  0  0
 20  7  1  0  0  0  0
 22 24  1  0  0  0  0
 22 23  1  0  0  0  0
 25 26  1  0  0  0  0
 28 27  1  0  0  0  0
M  END
>  <MODEL>
4

>  <REMARK>
 VINA RESULT:      -1.6      4.003      7.253
  Name = 
  4 active torsions:
  status: ('A' for Active; 'I' for Inactive)
    1  A    between atoms: C_9  and  C_14
    2  A    between atoms: C_10  and  C_13
    3  A    between atoms: C_11  and  O_22
    4  A    between atoms: C_12  and  N_23
                            x       y       z     vdW  Elec       q    Type
                         _______ _______ _______ _____ _____    ______ ____

>  <TORSDO>
F 4

$$$$
