=
 OpenBabel11062410573D

 32 37  0  0  1  0  0  0  0  0999 V2000
  160.4920  201.9810  148.4220 C   0  0  2  0  0  3  0  0  0  0  0  0
  161.1640  206.0160  151.6020 C   0  0  0  0  0  0  0  0  0  0  0  0
  162.0710  208.0800  147.6680 O   0  0  0  0  0  0  0  0  0  0  0  0
  162.1020  209.9260  149.1550 N   0  0  0  0  0  0  0  0  0  0  0  0
  160.8650  206.6590  153.9810 C   0  0  0  0  0  3  0  0  0  0  0  0
  160.8410  207.6410  154.9700 C   0  0  0  0  0  0  0  0  0  0  0  0
  161.0140  203.6270  150.6990 C   0  0  0  0  0  0  0  0  0  0  0  0
  161.4660  205.4680  149.1520 C   0  0  0  0  0  3  0  0  0  0  0  0
  160.8010  209.6140  156.9000 N   0  0  0  0  0  0  0  0  0  0  0  0
  161.3160  203.2400  148.1580 C   0  0  0  0  0  2  0  0  0  0  0  0
  161.9560  208.5450  148.8310 C   0  0  0  0  0  0  0  0  0  0  0  0
  161.4320  206.4340  150.2680 C   0  0  0  0  0  0  0  0  0  0  0  0
  161.6630  207.7900  150.0310 C   0  0  0  0  0  0  0  0  0  0  0  0
  161.3750  208.3670  152.3460 C   0  0  0  0  0  0  0  0  0  0  0  0
  160.5590  208.3230  157.2610 C   0  0  0  0  0  3  0  0  0  0  0  0
  160.9420  201.3380  149.7350 C   0  0  0  0  0  2  0  0  0  0  0  0
  161.2570  204.1650  149.3380 C   0  0  0  0  0  0  0  0  0  0  0  0
  160.5750  207.3100  156.2990 C   0  0  0  0  0  3  0  0  0  0  0  0
  160.8240  202.3120  150.8740 C   0  0  0  0  0  3  0  0  0  0  0  0
  161.9170  210.0380  150.4380 C   0  0  0  0  0  3  0  0  0  0  0  0
  161.6380  208.7230  151.0280 C   0  0  0  0  0  0  0  0  0  0  0  0
  161.3470  209.3110  153.3270 N   0  0  0  0  0  0  0  0  0  0  0  0
  160.9360  204.5610  151.8400 C   0  0  0  0  0  0  0  0  0  0  0  0
  160.6880  204.1170  152.9950 O   0  0  0  0  0  0  0  0  0  0  0  0
  161.0620  209.9610  155.6110 C   0  0  0  0  0  3  0  0  0  0  0  0
  161.1320  206.9960  152.6470 C   0  0  0  0  0  0  0  0  0  0  0  0
  161.0870  208.9810  154.6180 C   0  0  0  0  0  0  0  0  0  0  0  0
  160.6660  201.0100  147.2670 C   0  0  0  0  0  2  0  0  0  0  0  0
  161.1310  201.7430  146.0220 C   0  0  0  0  0  2  0  0  0  0  0  0
  160.0790  201.6720  144.9730 C   0  0  0  0  0  0  0  0  0  0  0  0
  159.4810  202.8350  144.5060 O   0  0  0  0  0  0  0  0  0  0  0  0
  159.7140  200.5540  144.5240 O   0  0  0  0  0  1  0  0  0  0  0  0
  1 28  1  6  0  0  0
  1 16  1  0  0  0  0
  2 23  1  0  0  0  0
  2 26  1  0  0  0  0
  3 11  2  0  0  0  0
  4 20  2  0  0  0  0
  5  6  1  0  0  0  0
  6 18  1  0  0  0  0
  7 19  2  0  0  0  0
  7 23  1  0  0  0  0
  8 17  2  0  0  0  0
  8 12  1  0  0  0  0
  9 15  1  0  0  0  0
 10  1  1  0  0  0  0
 10 17  1  0  0  0  0
 11  4  1  0  0  0  0
 11 13  1  0  0  0  0
 12  2  2  0  0  0  0
 13 12  1  0  0  0  0
 13 21  2  0  0  0  0
 14 26  1  0  0  0  0
 14 22  2  0  0  0  0
 16 19  1  0  0  0  0
 17  7  1  0  0  0  0
 18 15  2  0  0  0  0
 20 21  1  0  0  0  0
 21 14  1  0  0  0  0
 22 27  1  0  0  0  0
 23 24  2  0  0  0  0
 25  9  2  0  0  0  0
 26  5  2  0  0  0  0
 27  6  2  0  0  0  0
 27 25  1  0  0  0  0
 29 28  1  0  0  0  0
 30 29  1  0  0  0  0
 31 30  2  0  0  0  0
 32 30  1  0  0  0  0
M  END
>  <MODEL>
1

>  <REMARK>
 VINA RESULT:     -11.9      0.000      0.000
  Name = 
  3 active torsions:
  status: ('A' for Active; 'I' for Inactive)
    1  A    between atoms: C_1  and  C_10
    2  A    between atoms: C_2  and  C_24
    3  A    between atoms: C_10  and  C_24
                            x       y       z     vdW  Elec       q    Type
                         _______ _______ _______ _____ _____    ______ ____

>  <TORSDO>
F 3

$$$$
=
 OpenBabel11062410573D

 32 37  0  0  1  0  0  0  0  0999 V2000
  161.6210  209.3670  156.2710 C   0  0  2  0  0  3  0  0  0  0  0  0
  161.1830  206.5490  151.9450 C   0  0  0  0  0  0  0  0  0  0  0  0
  161.9670  210.5950  150.0560 O   0  0  0  0  0  0  0  0  0  0  0  0
  162.0140  209.1940  148.1430 N   0  0  0  0  0  0  0  0  0  0  0  0
  160.9740  204.1900  151.2020 C   0  0  0  0  0  3  0  0  0  0  0  0
  160.9820  203.2430  150.1780 C   0  0  0  0  0  0  0  0  0  0  0  0
  160.9440  207.3500  154.3640 C   0  0  0  0  0  0  0  0  0  0  0  0
  161.4340  208.9770  152.6030 C   0  0  0  0  0  3  0  0  0  0  0  0
  161.0050  201.3990  148.1240 N   0  0  0  0  0  0  0  0  0  0  0  0
  161.2610  209.8680  154.8730 C   0  0  0  0  0  2  0  0  0  0  0  0
  161.8760  209.4510  149.5380 C   0  0  0  0  0  0  0  0  0  0  0  0
  161.4110  207.9060  151.5870 C   0  0  0  0  0  0  0  0  0  0  0  0
  161.6190  208.2110  150.2400 C   0  0  0  0  0  0  0  0  0  0  0  0
  161.4000  205.9160  149.5620 C   0  0  0  0  0  0  0  0  0  0  0  0
  160.7910  200.9740  149.3990 C   0  0  0  0  0  3  0  0  0  0  0  0
  160.6750  208.2330  156.6710 C   0  0  0  0  0  2  0  0  0  0  0  0
  161.2340  208.7280  153.8970 C   0  0  0  0  0  0  0  0  0  0  0  0
  160.7750  201.8910  150.4540 C   0  0  0  0  0  3  0  0  0  0  0  0
  160.7270  207.1160  155.6650 C   0  0  0  0  0  3  0  0  0  0  0  0
  161.8610  207.9140  147.9740 C   0  0  0  0  0  3  0  0  0  0  0  0
  161.6120  207.2580  149.2630 C   0  0  0  0  0  0  0  0  0  0  0  0
  161.4040  204.9770  148.5770 N   0  0  0  0  0  0  0  0  0  0  0  0
  160.9470  206.2420  153.3860 C   0  0  0  0  0  0  0  0  0  0  0  0
  160.7420  205.0620  153.7810 O   0  0  0  0  0  0  0  0  0  0  0  0
  161.2090  202.7120  147.8310 C   0  0  0  0  0  3  0  0  0  0  0  0
  161.1820  205.5470  150.9210 C   0  0  0  0  0  0  0  0  0  0  0  0
  161.2020  203.6630  148.8530 C   0  0  0  0  0  0  0  0  0  0  0  0
  161.5230  210.5150  157.2610 C   0  0  0  0  0  2  0  0  0  0  0  0
  161.0880  211.7870  156.5570 C   0  0  0  0  0  2  0  0  0  0  0  0
  159.7440  212.1970  157.0430 C   0  0  0  0  0  0  0  0  0  0  0  0
  158.7600  211.2420  157.2610 O   0  0  0  0  0  1  0  0  0  0  0  0
  159.4890  213.4150  157.2360 O   0  0  0  0  0  0  0  0  0  0  0  0
  1 16  1  0  0  0  0
  1 28  1  1  0  0  0
  2 23  1  0  0  0  0
  4 11  1  0  0  0  0
  6 18  1  0  0  0  0
  6  5  2  0  0  0  0
  7 19  2  0  0  0  0
  8 17  2  0  0  0  0
  9 15  1  0  0  0  0
 10  1  1  0  0  0  0
 11  3  2  0  0  0  0
 11 13  1  0  0  0  0
 12  2  1  0  0  0  0
 12  8  1  0  0  0  0
 13 12  2  0  0  0  0
 14 26  1  0  0  0  0
 15 18  2  0  0  0  0
 17  7  1  0  0  0  0
 17 10  1  0  0  0  0
 19 16  1  0  0  0  0
 20  4  2  0  0  0  0
 20 21  1  0  0  0  0
 21 14  2  0  0  0  0
 21 13  1  0  0  0  0
 22 27  2  0  0  0  0
 22 14  1  0  0  0  0
 23 24  2  0  0  0  0
 23  7  1  0  0  0  0
 25  9  2  0  0  0  0
 25 27  1  0  0  0  0
 26  5  1  0  0  0  0
 26  2  2  0  0  0  0
 27  6  1  0  0  0  0
 29 30  1  0  0  0  0
 29 28  1  0  0  0  0
 30 32  2  0  0  0  0
 30 31  1  0  0  0  0
M  END
>  <MODEL>
2

>  <REMARK>
 VINA RESULT:     -10.2      3.315      8.512
  Name = 
  3 active torsions:
  status: ('A' for Active; 'I' for Inactive)
    1  A    between atoms: C_1  and  C_10
    2  A    between atoms: C_2  and  C_24
    3  A    between atoms: C_10  and  C_24
                            x       y       z     vdW  Elec       q    Type
                         _______ _______ _______ _____ _____    ______ ____

>  <TORSDO>
F 3

$$$$
=
 OpenBabel11062410573D

 32 37  0  0  1  0  0  0  0  0999 V2000
  160.7240  209.4200  154.0340 C   0  0  2  0  0  3  0  0  0  0  0  0
  161.2040  206.2960  149.9270 C   0  0  0  0  0  0  0  0  0  0  0  0
  160.8820  203.1370  153.1630 O   0  0  0  0  0  0  0  0  0  0  0  0
  160.8420  201.7840  151.2160 N   0  0  0  0  0  0  0  0  0  0  0  0
  161.2640  206.3780  147.4470 C   0  0  0  0  0  3  0  0  0  0  0  0
  161.2440  205.7190  146.2180 C   0  0  0  0  0  0  0  0  0  0  0  0
  161.3530  208.3360  151.4650 C   0  0  0  0  0  0  0  0  0  0  0  0
  161.1130  206.1070  152.4470 C   0  0  0  0  0  3  0  0  0  0  0  0
  161.2000  204.3790  143.8060 N   0  0  0  0  0  0  0  0  0  0  0  0
  161.2130  207.9720  154.0240 C   0  0  0  0  0  2  0  0  0  0  0  0
  160.9110  203.0280  151.9100 C   0  0  0  0  0  0  0  0  0  0  0  0
  161.1130  205.4980  151.1020 C   0  0  0  0  0  0  0  0  0  0  0  0
  161.0180  204.1130  150.9580 C   0  0  0  0  0  0  0  0  0  0  0  0
  161.0890  204.2370  148.5590 C   0  0  0  0  0  0  0  0  0  0  0  0
  161.2950  205.7370  143.8120 C   0  0  0  0  0  3  0  0  0  0  0  0
  161.5450  210.2470  153.0420 C   0  0  0  0  0  2  0  0  0  0  0  0
  161.2080  207.4240  152.6270 C   0  0  0  0  0  0  0  0  0  0  0  0
  161.3190  206.4350  145.0230 C   0  0  0  0  0  3  0  0  0  0  0  0
  161.4660  209.6560  151.6610 C   0  0  0  0  0  3  0  0  0  0  0  0
  160.8980  202.0530  149.9450 C   0  0  0  0  0  3  0  0  0  0  0  0
  161.0080  203.5020  149.7370 C   0  0  0  0  0  0  0  0  0  0  0  0
  161.0710  203.6130  147.3490 N   0  0  0  0  0  0  0  0  0  0  0  0
  161.3210  207.7730  150.1000 C   0  0  0  0  0  0  0  0  0  0  0  0
  161.4010  208.5450  149.1050 O   0  0  0  0  0  0  0  0  0  0  0  0
  161.1250  203.6600  144.9580 C   0  0  0  0  0  3  0  0  0  0  0  0
  161.1880  205.6550  148.6460 C   0  0  0  0  0  0  0  0  0  0  0  0
  161.1450  204.3150  146.1900 C   0  0  0  0  0  0  0  0  0  0  0  0
  160.8530  209.9890  155.4350 C   0  0  0  0  0  2  0  0  0  0  0  0
  162.1240  210.8100  155.5590 C   0  0  0  0  0  2  0  0  0  0  0  0
  162.9120  210.3440  156.7310 C   0  0  0  0  0  0  0  0  0  0  0  0
  163.9450  211.1260  157.2310 O   0  0  0  0  0  0  0  0  0  0  0  0
  162.6580  209.2290  157.2570 O   0  0  0  0  0  1  0  0  0  0  0  0
  1 28  1  1  0  0  0
  2 23  1  0  0  0  0
  2 12  1  0  0  0  0
  4 11  1  0  0  0  0
  5 26  1  0  0  0  0
  6  5  2  0  0  0  0
  7 19  2  0  0  0  0
  7 17  1  0  0  0  0
  8 17  2  0  0  0  0
  9 15  1  0  0  0  0
  9 25  2  0  0  0  0
 10  1  1  0  0  0  0
 11  3  2  0  0  0  0
 12  8  1  0  0  0  0
 13 12  2  0  0  0  0
 13 11  1  0  0  0  0
 14 26  1  0  0  0  0
 14 21  2  0  0  0  0
 15 18  2  0  0  0  0
 16  1  1  0  0  0  0
 17 10  1  0  0  0  0
 18  6  1  0  0  0  0
 19 16  1  0  0  0  0
 20  4  2  0  0  0  0
 21 20  1  0  0  0  0
 21 13  1  0  0  0  0
 22 14  1  0  0  0  0
 23  7  1  0  0  0  0
 24 23  2  0  0  0  0
 25 27  1  0  0  0  0
 26  2  2  0  0  0  0
 27  6  1  0  0  0  0
 27 22  2  0  0  0  0
 28 29  1  0  0  0  0
 29 30  1  0  0  0  0
 30 31  2  0  0  0  0
 30 32  1  0  0  0  0
M  END
>  <MODEL>
3

>  <REMARK>
 VINA RESULT:      -9.1      3.497      9.218
  Name = 
  3 active torsions:
  status: ('A' for Active; 'I' for Inactive)
    1  A    between atoms: C_1  and  C_10
    2  A    between atoms: C_2  and  C_24
    3  A    between atoms: C_10  and  C_24
                            x       y       z     vdW  Elec       q    Type
                         _______ _______ _______ _____ _____    ______ ____

>  <TORSDO>
F 3

$$$$
