=
 OpenBabel11062410553D

 32 36  0  0  1  0  0  0  0  0999 V2000
  161.2360  203.6290  150.9910 C   0  0  0  0  0  0  0  0  0  0  0  0
  161.7030  208.5450  150.9140 C   0  0  1  0  0  3  0  0  0  0  0  0
  161.8420  210.3450  149.1780 C   0  0  0  0  0  0  0  0  0  0  0  0
  161.7560  211.7590  148.7830 C   0  0  0  0  0  0  0  0  0  0  0  0
  161.2140  206.4120  150.3640 C   0  0  1  0  0  3  0  0  0  0  0  0
  161.7240  206.8420  152.7950 C   0  0  0  0  0  2  0  0  0  0  0  0
  161.4840  214.4530  148.0650 C   0  0  0  0  0  3  0  0  0  0  0  0
  161.2920  204.5100  152.0050 C   0  0  0  0  0  3  0  0  0  0  0  0
  161.5240  208.2760  152.3970 C   0  0  0  0  0  0  0  0  0  0  0  0
  161.0860  209.2100  153.2590 C   0  0  0  0  0  0  0  0  0  0  0  0
  161.5550  210.9920  151.5970 C   0  0  2  0  0  3  0  0  0  0  0  0
  161.8600  213.5090  147.1050 C   0  0  0  0  0  3  0  0  0  0  0  0
  160.9770  204.0570  149.5610 C   0  0  0  0  0  2  0  0  0  0  0  0
  160.9520  205.9610  151.8140 C   0  0  2  0  0  3  0  0  0  0  0  0
  161.9930  212.1630  147.4620 C   0  0  0  0  0  3  0  0  0  0  0  0
  160.4450  205.4880  149.4340 C   0  0  0  0  0  2  0  0  0  0  0  0
  160.6660  210.5620  152.7680 C   0  0  1  0  0  3  0  0  0  0  0  0
  161.1470  212.3030  151.0900 N   0  0  0  0  0  2  0  0  0  0  0  0
  160.7950  207.7460  150.1870 O   0  0  0  0  0  0  0  0  0  0  0  0
  162.1390  209.4710  148.3170 O   0  0  0  0  0  0  0  0  0  0  0  0
  161.2470  214.0540  149.3840 C   0  0  0  0  0  3  0  0  0  0  0  0
  161.5700  209.9630  150.5410 N   0  0  0  0  0  0  0  0  0  0  0  0
  161.3930  212.7100  149.7450 C   0  0  0  0  0  0  0  0  0  0  0  0
  160.7870  208.6840  155.7870 N   0  0  0  0  0  0  0  0  0  0  0  0
  160.9210  208.9180  154.6620 C   0  0  0  0  0  0  0  0  0  0  0  0
  158.3820  211.4430  153.2750 C   0  0  0  0  0  1  0  0  0  0  0  0
  159.1890  210.5190  152.3820 C   0  0  0  0  0  2  0  0  0  0  0  0
  161.5660  202.2020  151.2620 C   0  0  0  0  0  2  0  0  0  0  0  0
  160.8970  200.9520  149.1870 C   0  0  0  0  0  0  0  0  0  0  0  0
  161.9030  201.5320  150.0170 N   0  0  0  0  0  2  0  0  0  0  0  0
  161.2270  200.3740  148.1190 O   0  0  0  0  0  0  0  0  0  0  0  0
  159.5580  201.0180  149.5500 O   0  0  0  0  0  1  0  0  0  0  0  0
  1 28  1  0  0  0  0
  1  8  2  0  0  0  0
  2 19  1  6  0  0  0
  2  9  1  0  0  0  0
  3 22  1  0  0  0  0
  4  3  1  0  0  0  0
  4 23  1  0  0  0  0
  5 16  1  6  0  0  0
  5 14  1  0  0  0  0
  7 21  1  0  0  0  0
  9  6  1  0  0  0  0
  9 10  2  0  0  0  0
 10 25  1  0  0  0  0
 11 18  1  6  0  0  0
 11 17  1  0  0  0  0
 12 15  1  0  0  0  0
 12  7  2  0  0  0  0
 13  1  1  0  0  0  0
 14  8  1  6  0  0  0
 14  6  1  0  0  0  0
 15  4  2  0  0  0  0
 16 13  1  0  0  0  0
 17 27  1  6  0  0  0
 17 10  1  0  0  0  0
 19  5  1  0  0  0  0
 20  3  2  0  0  0  0
 21 23  2  0  0  0  0
 22  2  1  0  0  0  0
 22 11  1  0  0  0  0
 23 18  1  0  0  0  0
 25 24  3  0  0  0  0
 27 26  1  0  0  0  0
 29 32  1  0  0  0  0
 29 30  1  0  0  0  0
 30 28  1  0  0  0  0
 31 29  2  0  0  0  0
M  END
>  <MODEL>
1

>  <REMARK>
 VINA RESULT:      -6.7      0.000      0.000
  Name = 
  4 active torsions:
  status: ('A' for Active; 'I' for Inactive)
    1  A    between atoms: C_2  and  C_24
    2  A    between atoms: N_10  and  C_24
    3  A    between atoms: C_13  and  C_15
    4  A    between atoms: C_25  and  C_26
                            x       y       z     vdW  Elec       q    Type
                         _______ _______ _______ _____ _____    ______ ____

>  <TORSDO>
F 4

$$$$
=
 OpenBabel11062410553D

 32 36  0  0  1  0  0  0  0  0999 V2000
  161.5850  211.9150  149.5150 C   0  0  0  0  0  0  0  0  0  0  0  0
  160.8170  207.1240  150.4290 C   0  0  1  0  0  3  0  0  0  0  0  0
  160.8450  204.9830  149.1280 C   0  0  0  0  0  0  0  0  0  0  0  0
  160.9010  203.5140  149.0710 C   0  0  0  0  0  0  0  0  0  0  0  0
  161.5270  209.0640  149.5210 C   0  0  1  0  0  3  0  0  0  0  0  0
  160.6010  209.2060  151.8610 C   0  0  0  0  0  2  0  0  0  0  0  0
  161.1100  200.7220  149.0140 C   0  0  0  0  0  3  0  0  0  0  0  0
  161.3080  211.2870  150.6700 C   0  0  0  0  0  3  0  0  0  0  0  0
  160.7690  207.7150  151.8250 C   0  0  0  0  0  0  0  0  0  0  0  0
  160.9980  206.9870  152.9320 C   0  0  0  0  0  0  0  0  0  0  0  0
  160.6910  204.8900  151.6420 C   0  0  2  0  0  3  0  0  0  0  0  0
  160.9580  201.4350  147.8210 C   0  0  0  0  0  3  0  0  0  0  0  0
  162.0450  211.1690  148.2790 C   0  0  0  0  0  2  0  0  0  0  0  0
  161.5790  209.8220  150.8610 C   0  0  2  0  0  3  0  0  0  0  0  0
  160.8570  202.8300  147.8490 C   0  0  0  0  0  3  0  0  0  0  0  0
  162.4960  209.7330  148.5600 C   0  0  0  0  0  2  0  0  0  0  0  0
  161.4040  205.5480  152.8270 C   0  0  1  0  0  3  0  0  0  0  0  0
  161.0900  203.4880  151.5100 N   0  0  0  0  0  2  0  0  0  0  0  0
  161.8810  207.7130  149.7140 O   0  0  0  0  0  0  0  0  0  0  0  0
  160.7500  205.6490  148.0600 O   0  0  0  0  0  0  0  0  0  0  0  0
  161.1540  201.4020  150.2350 C   0  0  0  0  0  3  0  0  0  0  0  0
  160.9160  205.6550  150.4010 N   0  0  0  0  0  0  0  0  0  0  0  0
  161.0400  202.7960  150.2640 C   0  0  0  0  0  0  0  0  0  0  0  0
  160.9150  208.0610  155.2980 N   0  0  0  0  0  0  0  0  0  0  0  0
  160.9520  207.5830  154.2450 C   0  0  0  0  0  0  0  0  0  0  0  0
  163.3960  206.2090  151.4710 C   0  0  0  0  0  1  0  0  0  0  0  0
  162.9240  205.4620  152.7030 C   0  0  0  0  0  2  0  0  0  0  0  0
  161.3090  213.3760  149.4070 C   0  0  0  0  0  2  0  0  0  0  0  0
  158.8290  213.7150  149.1940 C   0  0  0  0  0  0  0  0  0  0  0  0
  160.0120  213.6740  149.9900 N   0  0  0  0  0  2  0  0  0  0  0  0
  157.7240  213.9820  149.7330 O   0  0  0  0  0  1  0  0  0  0  0  0
  158.8870  213.4620  147.8290 O   0  0  0  0  0  0  0  0  0  0  0  0
  1  8  2  0  0  0  0
  2 19  1  1  0  0  0
  2  9  1  0  0  0  0
  3 22  1  0  0  0  0
  4  3  1  0  0  0  0
  4 23  1  0  0  0  0
  5 16  1  6  0  0  0
  5 19  1  0  0  0  0
  5 14  1  0  0  0  0
  7 21  1  0  0  0  0
  9  6  1  0  0  0  0
  9 10  2  0  0  0  0
 10 25  1  0  0  0  0
 11 18  1  6  0  0  0
 11 17  1  0  0  0  0
 12 15  1  0  0  0  0
 12  7  2  0  0  0  0
 13 16  1  0  0  0  0
 13  1  1  0  0  0  0
 14  8  1  6  0  0  0
 14  6  1  0  0  0  0
 15  4  2  0  0  0  0
 17 27  1  6  0  0  0
 17 10  1  0  0  0  0
 20  3  2  0  0  0  0
 21 23  2  0  0  0  0
 22  2  1  0  0  0  0
 22 11  1  0  0  0  0
 23 18  1  0  0  0  0
 25 24  3  0  0  0  0
 26 27  1  0  0  0  0
 28  1  1  0  0  0  0
 28 30  1  0  0  0  0
 29 31  1  0  0  0  0
 29 30  1  0  0  0  0
 32 29  2  0  0  0  0
M  END
>  <MODEL>
2

>  <REMARK>
 VINA RESULT:      -5.8      2.160      8.103
  Name = 
  4 active torsions:
  status: ('A' for Active; 'I' for Inactive)
    1  A    between atoms: C_2  and  C_24
    2  A    between atoms: N_10  and  C_24
    3  A    between atoms: C_13  and  C_15
    4  A    between atoms: C_25  and  C_26
                            x       y       z     vdW  Elec       q    Type
                         _______ _______ _______ _____ _____    ______ ____

>  <TORSDO>
F 4

$$$$
=
 OpenBabel11062410553D

 32 36  0  0  1  0  0  0  0  0999 V2000
  161.1040  209.7470  155.0880 C   0  0  0  0  0  0  0  0  0  0  0  0
  161.8160  206.5250  151.4140 C   0  0  1  0  0  3  0  0  0  0  0  0
  161.4690  204.0730  151.0340 C   0  0  0  0  0  0  0  0  0  0  0  0
  161.3420  202.9180  150.1330 C   0  0  0  0  0  0  0  0  0  0  0  0
  161.0410  207.5520  153.2670 C   0  0  1  0  0  3  0  0  0  0  0  0
  162.3680  208.9870  151.6760 C   0  0  0  0  0  2  0  0  0  0  0  0
  161.0070  200.7670  148.3700 C   0  0  0  0  0  3  0  0  0  0  0  0
  161.5530  209.9450  153.8360 C   0  0  0  0  0  3  0  0  0  0  0  0
  162.1340  207.8440  150.7330 C   0  0  0  0  0  0  0  0  0  0  0  0
  162.0710  208.0070  149.4000 C   0  0  0  0  0  0  0  0  0  0  0  0
  162.0570  205.5480  149.0760 C   0  0  2  0  0  3  0  0  0  0  0  0
  160.9780  200.5490  149.7500 C   0  0  0  0  0  3  0  0  0  0  0  0
  160.4040  208.4700  155.5020 C   0  0  0  0  0  2  0  0  0  0  0  0
  161.2570  208.9780  152.7250 C   0  0  2  0  0  3  0  0  0  0  0  0
  161.1410  201.6230  150.6310 C   0  0  0  0  0  3  0  0  0  0  0  0
  159.9480  207.6060  154.3220 C   0  0  0  0  0  2  0  0  0  0  0  0
  161.5920  206.8960  148.5160 C   0  0  1  0  0  3  0  0  0  0  0  0
  161.5830  204.4460  148.2370 N   0  0  0  0  0  2  0  0  0  0  0  0
  160.6690  206.6850  152.2190 O   0  0  0  0  0  0  0  0  0  0  0  0
  161.4040  203.9050  152.2830 O   0  0  0  0  0  0  0  0  0  0  0  0
  161.2070  202.0570  147.8690 C   0  0  0  0  0  3  0  0  0  0  0  0
  161.6510  205.3940  150.4850 N   0  0  0  0  0  0  0  0  0  0  0  0
  161.3840  203.1300  148.7500 C   0  0  0  0  0  0  0  0  0  0  0  0
  162.6130  210.2970  148.2930 N   0  0  0  0  0  0  0  0  0  0  0  0
  162.3720  209.2780  148.7850 C   0  0  0  0  0  0  0  0  0  0  0  0
  159.6300  206.5000  147.0200 C   0  0  0  0  0  1  0  0  0  0  0  0
  160.0720  206.9720  148.3920 C   0  0  0  0  0  2  0  0  0  0  0  0
  161.4190  210.7620  156.1320 C   0  0  0  0  0  2  0  0  0  0  0  0
  159.4010  212.2460  156.3350 C   0  0  0  0  0  0  0  0  0  0  0  0
  160.1970  211.1620  156.8100 N   0  0  0  0  0  2  0  0  0  0  0  0
  158.3530  212.5680  156.9520 O   0  0  0  0  0  1  0  0  0  0  0  0
  159.7750  212.9500  155.1970 O   0  0  0  0  0  0  0  0  0  0  0  0
  1 13  1  0  0  0  0
  1 28  1  0  0  0  0
  2  9  1  6  0  0  0
  2 19  1  0  0  0  0
  3 20  2  0  0  0  0
  4 15  1  0  0  0  0
  4  3  1  0  0  0  0
  5 16  1  1  0  0  0
  7 12  1  0  0  0  0
  8  1  2  0  0  0  0
  9  6  1  0  0  0  0
 10  9  2  0  0  0  0
 11 18  1  6  0  0  0
 11 22  1  0  0  0  0
 12 15  2  0  0  0  0
 14  6  1  6  0  0  0
 14  5  1  0  0  0  0
 14  8  1  0  0  0  0
 16 13  1  0  0  0  0
 17 27  1  1  0  0  0
 17 11  1  0  0  0  0
 17 10  1  0  0  0  0
 18 23  1  0  0  0  0
 19  5  1  0  0  0  0
 21  7  2  0  0  0  0
 21 23  1  0  0  0  0
 22  3  1  0  0  0  0
 22  2  1  0  0  0  0
 23  4  2  0  0  0  0
 24 25  3  0  0  0  0
 25 10  1  0  0  0  0
 26 27  1  0  0  0  0
 28 30  1  0  0  0  0
 29 30  1  0  0  0  0
 29 31  1  0  0  0  0
 32 29  2  0  0  0  0
M  END
>  <MODEL>
3

>  <REMARK>
 VINA RESULT:      -5.7      2.867      8.484
  Name = 
  4 active torsions:
  status: ('A' for Active; 'I' for Inactive)
    1  A    between atoms: C_2  and  C_24
    2  A    between atoms: N_10  and  C_24
    3  A    between atoms: C_13  and  C_15
    4  A    between atoms: C_25  and  C_26
                            x       y       z     vdW  Elec       q    Type
                         _______ _______ _______ _____ _____    ______ ____

>  <TORSDO>
F 4

$$$$
=
 OpenBabel11062410553D

 32 36  0  0  1  0  0  0  0  0999 V2000
  160.8010  208.3240  155.2270 C   0  0  0  0  0  0  0  0  0  0  0  0
  161.7110  205.8350  151.0610 C   0  0  1  0  0  3  0  0  0  0  0  0
  161.4970  203.4730  150.2530 C   0  0  0  0  0  0  0  0  0  0  0  0
  161.4370  202.4880  149.1630 C   0  0  0  0  0  0  0  0  0  0  0  0
  160.8690  206.4810  153.0510 C   0  0  1  0  0  3  0  0  0  0  0  0
  162.1310  208.2370  151.7570 C   0  0  0  0  0  2  0  0  0  0  0  0
  161.2300  200.6650  147.0460 C   0  0  0  0  0  3  0  0  0  0  0  0
  161.2490  208.7600  154.0370 C   0  0  0  0  0  3  0  0  0  0  0  0
  161.9650  207.2660  150.6260 C   0  0  0  0  0  0  0  0  0  0  0  0
  161.9040  207.6570  149.3410 C   0  0  0  0  0  0  0  0  0  0  0  0
  162.0220  205.2950  148.5930 C   0  0  2  0  0  3  0  0  0  0  0  0
  161.2010  200.2080  148.3670 C   0  0  0  0  0  3  0  0  0  0  0  0
  160.1660  206.9600  155.4010 C   0  0  0  0  0  2  0  0  0  0  0  0
  161.0140  207.9890  152.7700 C   0  0  2  0  0  3  0  0  0  0  0  0
  161.3010  201.1180  149.4240 C   0  0  0  0  0  3  0  0  0  0  0  0
  159.7650  206.2950  154.0800 C   0  0  0  0  0  2  0  0  0  0  0  0
  161.4920  206.6950  148.2690 C   0  0  1  0  0  3  0  0  0  0  0  0
  161.6130  204.3350  147.5670 N   0  0  0  0  0  2  0  0  0  0  0  0
  160.5510  205.7940  151.8620 O   0  0  0  0  0  0  0  0  0  0  0  0
  161.4300  203.0850  151.4520 O   0  0  0  0  0  0  0  0  0  0  0  0
  161.3660  202.0310  146.7810 C   0  0  0  0  0  3  0  0  0  0  0  0
  161.6130  204.8770  149.9470 N   0  0  0  0  0  0  0  0  0  0  0  0
  161.4790  202.9410  147.8390 C   0  0  0  0  0  0  0  0  0  0  0  0
  162.3340  210.1300  148.6590 N   0  0  0  0  0  0  0  0  0  0  0  0
  162.1430  209.0290  148.9620 C   0  0  0  0  0  0  0  0  0  0  0  0
  159.5580  206.2790  146.7410 C   0  0  0  0  0  1  0  0  0  0  0  0
  159.9710  206.7160  148.1330 C   0  0  0  0  0  2  0  0  0  0  0  0
  161.0540  209.1550  156.4380 C   0  0  0  0  0  2  0  0  0  0  0  0
  162.8740  210.8230  156.9040 C   0  0  0  0  0  0  0  0  0  0  0  0
  162.4590  209.5190  156.4980 N   0  0  0  0  0  2  0  0  0  0  0  0
  164.1000  211.1040  156.9380 O   0  0  0  0  0  0  0  0  0  0  0  0
  161.9360  211.7840  157.2610 O   0  0  0  0  0  1  0  0  0  0  0  0
  1 13  1  0  0  0  0
  1 28  1  0  0  0  0
  2  9  1  6  0  0  0
  2 19  1  0  0  0  0
  3 20  2  0  0  0  0
  4 15  1  0  0  0  0
  4  3  1  0  0  0  0
  5 16  1  1  0  0  0
  7 12  1  0  0  0  0
  8  1  2  0  0  0  0
  9  6  1  0  0  0  0
 10  9  2  0  0  0  0
 11 18  1  6  0  0  0
 11 22  1  0  0  0  0
 12 15  2  0  0  0  0
 14  6  1  6  0  0  0
 14  5  1  0  0  0  0
 14  8  1  0  0  0  0
 16 13  1  0  0  0  0
 17 27  1  1  0  0  0
 17 11  1  0  0  0  0
 17 10  1  0  0  0  0
 18 23  1  0  0  0  0
 19  5  1  0  0  0  0
 21  7  2  0  0  0  0
 21 23  1  0  0  0  0
 22  3  1  0  0  0  0
 22  2  1  0  0  0  0
 23  4  2  0  0  0  0
 24 25  3  0  0  0  0
 25 10  1  0  0  0  0
 26 27  1  0  0  0  0
 28 30  1  0  0  0  0
 29 31  2  0  0  0  0
 29 32  1  0  0  0  0
 30 29  1  0  0  0  0
M  END
>  <MODEL>
4

>  <REMARK>
 VINA RESULT:      -5.1      2.900      8.312
  Name = 
  4 active torsions:
  status: ('A' for Active; 'I' for Inactive)
    1  A    between atoms: C_2  and  C_24
    2  A    between atoms: N_10  and  C_24
    3  A    between atoms: C_13  and  C_15
    4  A    between atoms: C_25  and  C_26
                            x       y       z     vdW  Elec       q    Type
                         _______ _______ _______ _____ _____    ______ ____

>  <TORSDO>
F 4

$$$$
=
 OpenBabel11062410553D

 32 36  0  0  1  0  0  0  0  0999 V2000
  161.2060  205.4530  143.7560 C   0  0  0  0  0  0  0  0  0  0  0  0
  161.6150  205.0120  148.6570 C   0  0  1  0  0  3  0  0  0  0  0  0
  161.3990  206.5070  150.6570 C   0  0  0  0  0  0  0  0  0  0  0  0
  161.2280  206.7000  152.1040 C   0  0  0  0  0  0  0  0  0  0  0  0
  161.0430  205.7160  146.5920 C   0  0  1  0  0  3  0  0  0  0  0  0
  162.0170  203.3960  146.7440 C   0  0  0  0  0  2  0  0  0  0  0  0
  160.8010  207.0130  154.8550 C   0  0  0  0  0  3  0  0  0  0  0  0
  161.4540  204.3690  144.5110 C   0  0  0  0  0  3  0  0  0  0  0  0
  161.7330  203.5670  148.2070 C   0  0  0  0  0  0  0  0  0  0  0  0
  161.4660  202.5290  149.0190 C   0  0  0  0  0  0  0  0  0  0  0  0
  161.5870  204.0170  151.0000 C   0  0  2  0  0  3  0  0  0  0  0  0
  160.9880  208.1370  154.0440 C   0  0  0  0  0  3  0  0  0  0  0  0
  160.6690  206.7420  144.3440 C   0  0  0  0  0  2  0  0  0  0  0  0
  161.0730  204.3090  145.9620 C   0  0  2  0  0  3  0  0  0  0  0  0
  161.1970  207.9820  152.6700 C   0  0  0  0  0  3  0  0  0  0  0  0
  160.1120  206.5860  145.7630 C   0  0  0  0  0  2  0  0  0  0  0  0
  160.9480  202.7580  150.4060 C   0  0  1  0  0  3  0  0  0  0  0  0
  161.0790  204.2700  152.3490 N   0  0  0  0  0  2  0  0  0  0  0  0
  160.5880  205.6420  147.9240 O   0  0  0  0  0  0  0  0  0  0  0  0
  161.5270  207.5100  149.9010 O   0  0  0  0  0  0  0  0  0  0  0  0
  160.8310  205.7330  154.2930 C   0  0  0  0  0  3  0  0  0  0  0  0
  161.4020  205.1750  150.1060 N   0  0  0  0  0  0  0  0  0  0  0  0
  161.0540  205.5760  152.9210 C   0  0  0  0  0  0  0  0  0  0  0  0
  161.6730  200.0750  148.1840 N   0  0  0  0  0  0  0  0  0  0  0  0
  161.5810  201.1670  148.5560 C   0  0  0  0  0  0  0  0  0  0  0  0
  158.8340  201.5950  149.7560 C   0  0  0  0  0  1  0  0  0  0  0  0
  159.4250  202.8520  150.3640 C   0  0  0  0  0  2  0  0  0  0  0  0
  161.5930  205.4300  142.3170 C   0  0  0  0  0  2  0  0  0  0  0  0
  161.9560  207.0540  140.4350 C   0  0  0  0  0  0  0  0  0  0  0  0
  161.5810  206.7820  141.7850 N   0  0  0  0  0  2  0  0  0  0  0  0
  161.9400  208.2390  140.0110 O   0  0  0  0  0  1  0  0  0  0  0  0
  162.3400  206.0230  139.5870 O   0  0  0  0  0  0  0  0  0  0  0  0
  1 13  1  0  0  0  0
  1  8  2  0  0  0  0
  2 19  1  6  0  0  0
  2 22  1  0  0  0  0
  3  4  1  0  0  0  0
  4 15  2  0  0  0  0
  4 23  1  0  0  0  0
  5 16  1  6  0  0  0
  5 19  1  0  0  0  0
  6  9  1  0  0  0  0
  9  2  1  0  0  0  0
  9 10  2  0  0  0  0
 10 17  1  0  0  0  0
 11 18  1  1  0  0  0
 12  7  2  0  0  0  0
 13 16  1  0  0  0  0
 14  8  1  6  0  0  0
 14  5  1  0  0  0  0
 14  6  1  0  0  0  0
 15 12  1  0  0  0  0
 17 27  1  6  0  0  0
 17 11  1  0  0  0  0
 18 23  1  0  0  0  0
 20  3  2  0  0  0  0
 21  7  1  0  0  0  0
 22  3  1  0  0  0  0
 22 11  1  0  0  0  0
 23 21  2  0  0  0  0
 24 25  3  0  0  0  0
 25 10  1  0  0  0  0
 26 27  1  0  0  0  0
 28  1  1  0  0  0  0
 29 30  1  0  0  0  0
 30 28  1  0  0  0  0
 31 29  1  0  0  0  0
 32 29  2  0  0  0  0
M  END
>  <MODEL>
5

>  <REMARK>
 VINA RESULT:      -4.1      4.252      7.906
  Name = 
  4 active torsions:
  status: ('A' for Active; 'I' for Inactive)
    1  A    between atoms: C_2  and  C_24
    2  A    between atoms: N_10  and  C_24
    3  A    between atoms: C_13  and  C_15
    4  A    between atoms: C_25  and  C_26
                            x       y       z     vdW  Elec       q    Type
                         _______ _______ _______ _____ _____    ______ ____

>  <TORSDO>
F 4

$$$$
=
 OpenBabel11062410553D

 32 36  0  0  1  0  0  0  0  0999 V2000
  161.1970  202.3200  149.7790 C   0  0  0  0  0  0  0  0  0  0  0  0
  160.5760  206.7850  151.7950 C   0  0  1  0  0  3  0  0  0  0  0  0
  160.3350  207.7380  154.0990 C   0  0  0  0  0  0  0  0  0  0  0  0
  160.3660  208.8770  155.0290 C   0  0  0  0  0  0  0  0  0  0  0  0
  161.1150  204.6190  151.4650 C   0  0  1  0  0  3  0  0  0  0  0  0
  160.6590  205.9780  149.3910 C   0  0  0  0  0  2  0  0  0  0  0  0
  160.5350  211.0630  156.7720 C   0  0  0  0  0  3  0  0  0  0  0  0
  161.1410  203.5320  149.2000 C   0  0  0  0  0  3  0  0  0  0  0  0
  160.8030  207.1350  150.3350 C   0  0  0  0  0  0  0  0  0  0  0  0
  161.2350  208.3440  149.9360 C   0  0  0  0  0  0  0  0  0  0  0  0
  160.6670  209.3030  152.1520 C   0  0  2  0  0  3  0  0  0  0  0  0
  160.1630  209.8070  157.2610 C   0  0  0  0  0  3  0  0  0  0  0  0
  161.4030  202.1450  151.2690 C   0  0  0  0  0  2  0  0  0  0  0  0
  161.4310  204.7910  149.9660 C   0  0  2  0  0  3  0  0  0  0  0  0
  160.0810  208.7140  156.3910 C   0  0  0  0  0  3  0  0  0  0  0  0
  161.8870  203.4140  151.9770 C   0  0  0  0  0  2  0  0  0  0  0  0
  161.6000  209.3940  150.9410 C   0  0  1  0  0  3  0  0  0  0  0  0
  161.0200  210.3090  153.1560 N   0  0  0  0  0  2  0  0  0  0  0  0
  161.4880  205.7790  152.1760 O   0  0  0  0  0  0  0  0  0  0  0  0
  160.0420  206.5870  154.5270 O   0  0  0  0  0  0  0  0  0  0  0  0
  160.8190  211.2280  155.4130 C   0  0  0  0  0  3  0  0  0  0  0  0
  160.6550  207.9380  152.7080 N   0  0  0  0  0  0  0  0  0  0  0  0
  160.7250  210.1390  154.5410 C   0  0  0  0  0  0  0  0  0  0  0  0
  161.6190  208.8790  147.4200 N   0  0  0  0  0  0  0  0  0  0  0  0
  161.4480  208.6410  148.5400 C   0  0  0  0  0  0  0  0  0  0  0  0
  163.5510  210.4390  152.1040 C   0  0  0  0  0  1  0  0  0  0  0  0
  163.0670  209.2260  151.3320 C   0  0  0  0  0  2  0  0  0  0  0  0
  160.9180  201.1150  148.9480 C   0  0  0  0  0  2  0  0  0  0  0  0
  160.7780  200.7550  146.4660 C   0  0  0  0  0  0  0  0  0  0  0  0
  160.4690  201.5220  147.6280 N   0  0  0  0  0  2  0  0  0  0  0  0
  160.3770  201.1420  145.3380 O   0  0  0  0  0  0  0  0  0  0  0  0
  161.5190  199.5840  146.5690 O   0  0  0  0  0  1  0  0  0  0  0  0
  1 13  1  0  0  0  0
  2  9  1  6  0  0  0
  2 19  1  0  0  0  0
  2 22  1  0  0  0  0
  3 20  2  0  0  0  0
  3  4  1  0  0  0  0
  4 15  1  0  0  0  0
  5 16  1  1  0  0  0
  5 19  1  0  0  0  0
  6 14  1  0  0  0  0
  6  9  1  0  0  0  0
  7 12  1  0  0  0  0
  8  1  2  0  0  0  0
 10  9  2  0  0  0  0
 10 17  1  0  0  0  0
 11 22  1  0  0  0  0
 11 18  1  1  0  0  0
 13 16  1  0  0  0  0
 14  8  1  6  0  0  0
 14  5  1  0  0  0  0
 15 12  2  0  0  0  0
 17 27  1  1  0  0  0
 17 11  1  0  0  0  0
 18 23  1  0  0  0  0
 21  7  2  0  0  0  0
 22  3  1  0  0  0  0
 23  4  2  0  0  0  0
 23 21  1  0  0  0  0
 24 25  3  0  0  0  0
 25 10  1  0  0  0  0
 27 26  1  0  0  0  0
 28  1  1  0  0  0  0
 29 32  1  0  0  0  0
 29 30  1  0  0  0  0
 30 28  1  0  0  0  0
 31 29  2  0  0  0  0
M  END
>  <MODEL>
6

>  <REMARK>
 VINA RESULT:      -3.8      2.738      5.082
  Name = 
  4 active torsions:
  status: ('A' for Active; 'I' for Inactive)
    1  A    between atoms: C_2  and  C_24
    2  A    between atoms: N_10  and  C_24
    3  A    between atoms: C_13  and  C_15
    4  A    between atoms: C_25  and  C_26
                            x       y       z     vdW  Elec       q    Type
                         _______ _______ _______ _____ _____    ______ ____

>  <TORSDO>
F 4

$$$$
