=
 OpenBabel11062410123D

 43 47  0  0  1  0  0  0  0  0999 V2000
  161.0320  201.4290  147.6420 C   0  0  0  0  0  0  0  0  0  0  0  0
  161.1430  204.8480  151.3760 C   0  0  0  0  0  0  0  0  0  0  0  0
  161.5580  207.2970  150.1180 C   0  0  0  0  0  0  0  0  0  0  0  0
  161.0140  202.5150  149.8060 C   0  0  0  0  0  0  0  0  0  0  0  0
  161.2040  202.6670  147.0180 C   0  0  0  0  0  3  0  0  0  0  0  0
  160.9550  200.3000  146.8970 F   0  0  0  0  0  0  0  0  0  0  0  0
  161.1850  203.7740  149.1800 C   0  0  0  0  0  0  0  0  0  0  0  0
  160.9380  201.3530  149.0340 C   0  0  0  0  0  3  0  0  0  0  0  0
  161.2810  203.8350  147.7810 C   0  0  0  0  0  3  0  0  0  0  0  0
  161.4620  206.1540  149.3860 N   0  0  0  0  0  0  0  0  0  0  0  0
  161.2590  204.9390  149.9670 C   0  0  0  0  0  0  0  0  0  0  0  0
  160.9930  203.5880  151.9750 C   0  0  0  0  0  3  0  0  0  0  0  0
  161.2160  206.0280  152.1460 C   0  0  0  0  0  0  0  0  0  0  0  0
  161.4490  207.2460  151.5070 C   0  0  0  0  0  3  0  0  0  0  0  0
  160.9250  202.4320  151.1960 C   0  0  0  0  0  3  0  0  0  0  0  0
  161.8130  208.6070  149.4500 C   0  0  2  0  0  3  0  0  0  0  0  0
  162.6900  208.4110  148.2230 C   0  0  0  0  0  1  0  0  0  0  0  0
  162.4580  209.5800  150.4360 C   0  0  0  0  0  2  0  0  0  0  0  0
  162.1310  211.0440  150.1400 C   0  0  2  0  0  3  0  0  0  0  0  0
  161.0250  211.4610  150.8830 O   0  0  0  0  0  1  0  0  0  0  0  0
  161.8890  211.3010  148.6590 C   0  0  0  0  0  2  0  0  0  0  0  0
  161.5160  212.7610  148.4150 C   0  0  1  0  0  3  0  0  0  0  0  0
  162.6570  213.4860  147.7090 C   0  0  0  0  0  2  0  0  0  0  0  0
  162.6830  214.1010  145.3010 C   0  0  0  0  0  1  0  0  0  0  0  0
  162.1240  214.4510  146.6650 C   0  0  0  0  0  2  0  0  0  0  0  0
  160.2230  212.8930  147.6020 C   0  0  2  0  0  3  0  0  0  0  0  0
  159.0620  213.3190  148.4500 C   0  0  0  0  0  0  0  0  0  0  0  0
  156.6670  213.3720  148.8270 C   0  0  0  0  0  3  0  0  0  0  0  0
  158.1590  214.4480  150.4020 C   0  0  0  0  0  3  0  0  0  0  0  0
  156.8650  214.1050  150.0020 C   0  0  0  0  0  3  0  0  0  0  0  0
  159.2570  214.0580  149.6270 C   0  0  0  0  0  3  0  0  0  0  0  0
  157.7630  212.9810  148.0520 C   0  0  0  0  0  3  0  0  0  0  0  0
  159.9270  211.7130  146.9070 O   0  0  0  0  0  0  0  0  0  0  0  0
  160.3320  211.9410  145.6750 O   0  0  0  0  0  1  0  0  0  0  0  0
  161.1170  206.0190  153.5770 N   0  0  0  0  0  2  0  0  0  0  0  0
  160.8330  209.5270  154.8580 C   0  0  0  0  0  3  0  0  0  0  0  0
  160.1310  209.3170  156.0570 C   0  0  0  0  0  0  0  0  0  0  0  0
  160.0850  206.9370  155.5900 C   0  0  0  0  0  3  0  0  0  0  0  0
  161.1550  208.4470  154.0320 C   0  0  0  0  0  3  0  0  0  0  0  0
  160.7710  207.1460  154.3890 C   0  0  0  0  0  0  0  0  0  0  0  0
  159.7630  208.0180  156.4160 C   0  0  0  0  0  3  0  0  0  0  0  0
  159.7930  210.3760  156.9040 O   0  0  0  0  0  0  0  0  0  0  0  0
  159.4700  211.6730  156.4200 C   0  0  0  0  0  1  0  0  0  0  0  0
  1  8  1  0  0  0  0
  2 12  1  0  0  0  0
  2 13  1  0  0  0  0
  3 14  1  0  0  0  0
  4 15  1  0  0  0  0
  5  1  2  0  0  0  0
  5  9  1  0  0  0  0
  6  1  1  0  0  0  0
  7  4  1  0  0  0  0
  7 11  1  0  0  0  0
  8  4  2  0  0  0  0
  9  7  2  0  0  0  0
 10 11  1  0  0  0  0
 10  3  2  0  0  0  0
 11  2  2  0  0  0  0
 13 35  1  0  0  0  0
 14 13  2  0  0  0  0
 15 12  2  0  0  0  0
 16 17  1  6  0  0  0
 16  3  1  0  0  0  0
 16 18  1  0  0  0  0
 19 18  1  0  0  0  0
 19 20  1  1  0  0  0
 21 19  1  0  0  0  0
 22 23  1  6  0  0  0
 22 21  1  0  0  0  0
 24 25  1  0  0  0  0
 25 23  1  0  0  0  0
 26 33  1  1  0  0  0
 26 22  1  0  0  0  0
 26 27  1  0  0  0  0
 27 31  1  0  0  0  0
 28 30  2  0  0  0  0
 30 29  1  0  0  0  0
 31 29  2  0  0  0  0
 32 27  2  0  0  0  0
 32 28  1  0  0  0  0
 34 33  1  0  0  0  0
 35 40  1  0  0  0  0
 36 37  1  0  0  0  0
 37 41  2  0  0  0  0
 37 42  1  0  0  0  0
 38 41  1  0  0  0  0
 39 40  1  0  0  0  0
 39 36  2  0  0  0  0
 40 38  2  0  0  0  0
 43 42  1  0  0  0  0
M  END
>  <MODEL>
1

>  <REMARK>
 VINA RESULT:      -8.6      0.000      0.000
  Name = 
  13 active torsions:
  status: ('A' for Active; 'I' for Inactive)
    1  A    between atoms: N_1  and  C_34
    2  A    between atoms: N_1  and  C_35
    3  A    between atoms: C_2  and  C_6
    4  A    between atoms: C_2  and  C_13
    5  A    between atoms: C_3  and  C_4
    6  A    between atoms: C_3  and  C_12
    7  A    between atoms: C_4  and  C_15
    8  A    between atoms: C_4  and  C_22
    9  A    between atoms: C_6  and  C_12
   10  A    between atoms: C_11  and  C_22
   11  A    between atoms: O_14  and  C_22
   12  A    between atoms: C_15  and  C_42
   13  A    between atoms: C_19  and  O_25
                            x       y       z     vdW  Elec       q    Type
                         _______ _______ _______ _____ _____    ______ ____

>  <TORSDO>
F 13

$$$$
=
 OpenBabel11062410123D

 43 47  0  0  1  0  0  0  0  0999 V2000
  155.5720  212.5100  156.3140 C   0  0  0  0  0  0  0  0  0  0  0  0
  158.6750  212.9550  152.3370 C   0  0  0  0  0  0  0  0  0  0  0  0
  160.3410  210.7270  152.4520 C   0  0  0  0  0  0  0  0  0  0  0  0
  156.7180  213.2960  154.3310 C   0  0  0  0  0  0  0  0  0  0  0  0
  156.3900  211.3770  156.3430 C   0  0  0  0  0  3  0  0  0  0  0  0
  154.6180  212.6800  157.2600 F   0  0  0  0  0  0  0  0  0  0  0  0
  157.5480  212.1490  154.3510 C   0  0  0  0  0  0  0  0  0  0  0  0
  155.7370  213.4690  155.3110 C   0  0  0  0  0  3  0  0  0  0  0  0
  157.3740  211.1960  155.3670 C   0  0  0  0  0  3  0  0  0  0  0  0
  159.3660  210.9060  153.3830 N   0  0  0  0  0  0  0  0  0  0  0  0
  158.5330  211.9830  153.3590 C   0  0  0  0  0  0  0  0  0  0  0  0
  157.8540  214.0920  152.3480 C   0  0  0  0  0  3  0  0  0  0  0  0
  159.6660  212.7690  151.3500 C   0  0  0  0  0  0  0  0  0  0  0  0
  160.5110  211.6610  151.4310 C   0  0  0  0  0  3  0  0  0  0  0  0
  156.8810  214.2590  153.3350 C   0  0  0  0  0  3  0  0  0  0  0  0
  161.2580  209.5510  152.5290 C   0  0  2  0  0  3  0  0  0  0  0  0
  162.6260  209.9120  151.9740 C   0  0  0  0  0  1  0  0  0  0  0  0
  160.6540  208.3670  151.7750 C   0  0  0  0  0  2  0  0  0  0  0  0
  161.1690  207.0140  152.2650 C   0  0  2  0  0  3  0  0  0  0  0  0
  161.6250  207.1060  153.5810 O   0  0  0  0  0  1  0  0  0  0  0  0
  162.2670  206.4490  151.3730 C   0  0  0  0  0  2  0  0  0  0  0  0
  161.6710  205.7240  150.1700 C   0  0  1  0  0  3  0  0  0  0  0  0
  160.3420  205.0790  150.5500 C   0  0  0  0  0  2  0  0  0  0  0  0
  160.8150  202.6680  150.1720 C   0  0  0  0  0  1  0  0  0  0  0  0
  160.5630  203.7340  151.2190 C   0  0  0  0  0  2  0  0  0  0  0  0
  161.4810  206.6630  148.9740 C   0  0  2  0  0  3  0  0  0  0  0  0
  161.3850  205.9160  147.6770 C   0  0  0  0  0  0  0  0  0  0  0  0
  160.5630  205.7970  145.3980 C   0  0  0  0  0  3  0  0  0  0  0  0
  161.8900  203.9810  146.2980 C   0  0  0  0  0  3  0  0  0  0  0  0
  161.1740  204.5490  145.2400 C   0  0  0  0  0  3  0  0  0  0  0  0
  161.9940  204.6620  147.5160 C   0  0  0  0  0  3  0  0  0  0  0  0
  160.6670  206.4790  146.6140 C   0  0  0  0  0  3  0  0  0  0  0  0
  162.4860  207.6370  148.9170 O   0  0  0  0  0  0  0  0  0  0  0  0
  161.8560  208.7490  148.5970 O   0  0  0  0  0  1  0  0  0  0  0  0
  159.8790  213.7090  150.2890 N   0  0  0  0  0  2  0  0  0  0  0  0
  158.0710  213.5160  147.0130 C   0  0  0  0  0  3  0  0  0  0  0  0
  159.0540  212.9280  146.2010 C   0  0  0  0  0  0  0  0  0  0  0  0
  160.5650  212.8770  148.0980 C   0  0  0  0  0  3  0  0  0  0  0  0
  158.3370  213.7830  148.3590 C   0  0  0  0  0  3  0  0  0  0  0  0
  159.5910  213.4750  148.9050 C   0  0  0  0  0  0  0  0  0  0  0  0
  160.2980  212.6090  146.7520 C   0  0  0  0  0  3  0  0  0  0  0  0
  158.8200  212.6490  144.8520 O   0  0  0  0  0  0  0  0  0  0  0  0
  159.8390  212.1850  143.9760 C   0  0  0  0  0  1  0  0  0  0  0  0
  1  5  1  0  0  0  0
  1  6  1  0  0  0  0
  2 12  1  0  0  0  0
  2 11  1  0  0  0  0
  3 16  1  0  0  0  0
  3 10  1  0  0  0  0
  4  7  2  0  0  0  0
  4  8  1  0  0  0  0
  7  9  1  0  0  0  0
  8  1  2  0  0  0  0
  9  5  2  0  0  0  0
 11 10  2  0  0  0  0
 11  7  1  0  0  0  0
 12 15  2  0  0  0  0
 13 14  1  0  0  0  0
 13  2  2  0  0  0  0
 14  3  2  0  0  0  0
 15  4  1  0  0  0  0
 16 17  1  6  0  0  0
 18 19  1  0  0  0  0
 18 16  1  0  0  0  0
 19 20  1  1  0  0  0
 21 19  1  0  0  0  0
 22 23  1  1  0  0  0
 22 21  1  0  0  0  0
 23 25  1  0  0  0  0
 24 25  1  0  0  0  0
 26 33  1  6  0  0  0
 26 22  1  0  0  0  0
 27 26  1  0  0  0  0
 28 32  1  0  0  0  0
 29 31  2  0  0  0  0
 30 28  2  0  0  0  0
 30 29  1  0  0  0  0
 31 27  1  0  0  0  0
 32 27  2  0  0  0  0
 34 33  1  0  0  0  0
 35 13  1  0  0  0  0
 36 39  1  0  0  0  0
 37 41  1  0  0  0  0
 37 36  2  0  0  0  0
 38 40  1  0  0  0  0
 39 40  2  0  0  0  0
 40 35  1  0  0  0  0
 41 38  2  0  0  0  0
 42 37  1  0  0  0  0
 43 42  1  0  0  0  0
M  END
>  <MODEL>
2

>  <REMARK>
 VINA RESULT:      -8.6      3.858      9.646
  Name = 
  13 active torsions:
  status: ('A' for Active; 'I' for Inactive)
    1  A    between atoms: N_1  and  C_34
    2  A    between atoms: N_1  and  C_35
    3  A    between atoms: C_2  and  C_6
    4  A    between atoms: C_2  and  C_13
    5  A    between atoms: C_3  and  C_4
    6  A    between atoms: C_3  and  C_12
    7  A    between atoms: C_4  and  C_15
    8  A    between atoms: C_4  and  C_22
    9  A    between atoms: C_6  and  C_12
   10  A    between atoms: C_11  and  C_22
   11  A    between atoms: O_14  and  C_22
   12  A    between atoms: C_15  and  C_42
   13  A    between atoms: C_19  and  O_25
                            x       y       z     vdW  Elec       q    Type
                         _______ _______ _______ _____ _____    ______ ____

>  <TORSDO>
F 13

$$$$
=
 OpenBabel11062410123D

 43 47  0  0  1  0  0  0  0  0999 V2000
  161.5150  204.1120  145.9160 C   0  0  0  0  0  0  0  0  0  0  0  0
  161.3940  206.4310  150.4160 C   0  0  0  0  0  0  0  0  0  0  0  0
  161.8370  209.1250  149.8670 C   0  0  0  0  0  0  0  0  0  0  0  0
  161.3750  204.5920  148.2860 C   0  0  0  0  0  0  0  0  0  0  0  0
  161.7010  205.4710  145.6480 C   0  0  0  0  0  3  0  0  0  0  0  0
  161.4910  203.2180  144.8990 F   0  0  0  0  0  0  0  0  0  0  0  0
  161.5600  205.9710  148.0210 C   0  0  0  0  0  0  0  0  0  0  0  0
  161.3540  203.6730  147.2330 C   0  0  0  0  0  3  0  0  0  0  0  0
  161.7240  206.3970  146.6940 C   0  0  0  0  0  3  0  0  0  0  0  0
  161.7930  208.2140  148.8580 N   0  0  0  0  0  0  0  0  0  0  0  0
  161.5790  206.8890  149.0880 C   0  0  0  0  0  0  0  0  0  0  0  0
  161.2320  205.0590  150.6560 C   0  0  0  0  0  3  0  0  0  0  0  0
  161.4130  207.3670  151.4710 C   0  0  0  0  0  0  0  0  0  0  0  0
  161.6600  208.7110  151.1870 C   0  0  0  0  0  3  0  0  0  0  0  0
  161.2190  204.1470  149.5990 C   0  0  0  0  0  3  0  0  0  0  0  0
  162.1060  210.5650  149.5800 C   0  0  2  0  0  3  0  0  0  0  0  0
  161.5880  211.4340  150.7150 C   0  0  0  0  0  1  0  0  0  0  0  0
  161.4690  210.9600  148.2490 C   0  0  0  0  0  2  0  0  0  0  0  0
  162.2560  212.0350  147.4990 C   0  0  2  0  0  3  0  0  0  0  0  0
  163.3890  212.4100  148.2220 O   0  0  0  0  0  1  0  0  0  0  0  0
  161.4130  213.2630  147.1810 C   0  0  0  0  0  2  0  0  0  0  0  0
  160.7420  213.1210  145.8170 C   0  0  1  0  0  3  0  0  0  0  0  0
  159.3980  213.8430  145.8140 C   0  0  0  0  0  2  0  0  0  0  0  0
  157.7260  212.6150  147.1850 C   0  0  0  0  0  1  0  0  0  0  0  0
  158.2490  212.8500  145.7820 C   0  0  0  0  0  2  0  0  0  0  0  0
  161.6300  213.6520  144.6860 C   0  0  2  0  0  3  0  0  0  0  0  0
  161.0350  213.3970  143.3330 C   0  0  0  0  0  0  0  0  0  0  0  0
  160.2120  211.8210  141.6840 C   0  0  0  0  0  3  0  0  0  0  0  0
  160.2040  214.1930  141.1940 C   0  0  0  0  0  3  0  0  0  0  0  0
  159.9320  212.8770  140.8100 C   0  0  0  0  0  3  0  0  0  0  0  0
  160.7570  214.4530  142.4530 C   0  0  0  0  0  3  0  0  0  0  0  0
  160.7630  212.0800  142.9420 C   0  0  0  0  0  3  0  0  0  0  0  0
  162.9300  213.1380  144.7660 O   0  0  0  0  0  0  0  0  0  0  0  0
  163.6660  213.9810  144.0710 O   0  0  0  0  0  1  0  0  0  0  0  0
  161.2430  206.9830  152.8430 N   0  0  0  0  0  2  0  0  0  0  0  0
  160.0760  208.2160  156.1820 C   0  0  0  0  0  3  0  0  0  0  0  0
  159.8960  209.5830  155.9140 C   0  0  0  0  0  0  0  0  0  0  0  0
  160.6190  209.2090  153.6280 C   0  0  0  0  0  3  0  0  0  0  0  0
  160.5260  207.3550  155.1780 C   0  0  0  0  0  3  0  0  0  0  0  0
  160.8110  207.8510  153.8980 C   0  0  0  0  0  0  0  0  0  0  0  0
  160.1680  210.0720  154.6320 C   0  0  0  0  0  3  0  0  0  0  0  0
  159.4490  210.4710  156.8960 O   0  0  0  0  0  0  0  0  0  0  0  0
  158.4960  211.4930  156.6290 C   0  0  0  0  0  1  0  0  0  0  0  0
  1  8  1  0  0  0  0
  2 12  1  0  0  0  0
  2 13  1  0  0  0  0
  3 14  1  0  0  0  0
  4 15  1  0  0  0  0
  5  1  2  0  0  0  0
  5  9  1  0  0  0  0
  6  1  1  0  0  0  0
  7  4  1  0  0  0  0
  7 11  1  0  0  0  0
  8  4  2  0  0  0  0
  9  7  2  0  0  0  0
 10 11  1  0  0  0  0
 10  3  2  0  0  0  0
 11  2  2  0  0  0  0
 13 35  1  0  0  0  0
 14 13  2  0  0  0  0
 15 12  2  0  0  0  0
 16  3  1  0  0  0  0
 16 17  1  1  0  0  0
 18 16  1  0  0  0  0
 19 20  1  1  0  0  0
 19 18  1  0  0  0  0
 21 19  1  0  0  0  0
 22 23  1  1  0  0  0
 22 21  1  0  0  0  0
 25 23  1  0  0  0  0
 25 24  1  0  0  0  0
 26 33  1  6  0  0  0
 26 22  1  0  0  0  0
 27 26  1  0  0  0  0
 28 32  2  0  0  0  0
 29 31  1  0  0  0  0
 30 29  2  0  0  0  0
 30 28  1  0  0  0  0
 31 27  2  0  0  0  0
 32 27  1  0  0  0  0
 34 33  1  0  0  0  0
 35 40  1  0  0  0  0
 37 36  1  0  0  0  0
 37 42  1  0  0  0  0
 38 40  2  0  0  0  0
 38 41  1  0  0  0  0
 39 36  2  0  0  0  0
 40 39  1  0  0  0  0
 41 37  2  0  0  0  0
 43 42  1  0  0  0  0
M  END
>  <MODEL>
3

>  <REMARK>
 VINA RESULT:      -8.2      2.281      3.924
  Name = 
  13 active torsions:
  status: ('A' for Active; 'I' for Inactive)
    1  A    between atoms: N_1  and  C_34
    2  A    between atoms: N_1  and  C_35
    3  A    between atoms: C_2  and  C_6
    4  A    between atoms: C_2  and  C_13
    5  A    between atoms: C_3  and  C_4
    6  A    between atoms: C_3  and  C_12
    7  A    between atoms: C_4  and  C_15
    8  A    between atoms: C_4  and  C_22
    9  A    between atoms: C_6  and  C_12
   10  A    between atoms: C_11  and  C_22
   11  A    between atoms: O_14  and  C_22
   12  A    between atoms: C_15  and  C_42
   13  A    between atoms: C_19  and  O_25
                            x       y       z     vdW  Elec       q    Type
                         _______ _______ _______ _____ _____    ______ ____

>  <TORSDO>
F 13

$$$$
=
 OpenBabel11062410123D

 43 47  0  0  1  0  0  0  0  0999 V2000
  160.9290  202.3740  148.2840 C   0  0  0  0  0  0  0  0  0  0  0  0
  161.9130  207.3110  148.8290 C   0  0  0  0  0  0  0  0  0  0  0  0
  161.5370  207.8410  151.5370 C   0  0  0  0  0  0  0  0  0  0  0  0
  161.4810  204.6980  147.8800 C   0  0  0  0  0  0  0  0  0  0  0  0
  160.7790  202.6420  149.6460 C   0  0  0  0  0  3  0  0  0  0  0  0
  160.7370  201.1180  147.8160 F   0  0  0  0  0  0  0  0  0  0  0  0
  161.3330  204.9760  149.2600 C   0  0  0  0  0  0  0  0  0  0  0  0
  161.2790  203.4000  147.4010 C   0  0  0  0  0  3  0  0  0  0  0  0
  160.9790  203.9370  150.1340 C   0  0  0  0  0  3  0  0  0  0  0  0
  161.3660  206.5820  151.0510 N   0  0  0  0  0  0  0  0  0  0  0  0
  161.5400  206.2860  149.7330 C   0  0  0  0  0  0  0  0  0  0  0  0
  162.0340  207.0160  147.4630 C   0  0  0  0  0  3  0  0  0  0  0  0
  162.1190  208.6170  149.3230 C   0  0  0  0  0  0  0  0  0  0  0  0
  161.9040  208.8760  150.6770 C   0  0  0  0  0  3  0  0  0  0  0  0
  161.8240  205.7180  146.9930 C   0  0  0  0  0  3  0  0  0  0  0  0
  161.3060  208.1350  152.9820 C   0  0  2  0  0  3  0  0  0  0  0  0
  161.2500  206.8430  153.7800 C   0  0  0  0  0  1  0  0  0  0  0  0
  160.0190  208.9410  153.1510 C   0  0  0  0  0  2  0  0  0  0  0  0
  160.1260  210.3690  152.6140 C   0  0  2  0  0  3  0  0  0  0  0  0
  161.3350  210.9500  152.9990 O   0  0  0  0  0  1  0  0  0  0  0  0
  158.9640  211.2480  153.0540 C   0  0  0  0  0  2  0  0  0  0  0  0
  159.4330  212.3200  154.0340 C   0  0  1  0  0  3  0  0  0  0  0  0
  158.8800  213.6820  153.6290 C   0  0  0  0  0  2  0  0  0  0  0  0
  158.3050  214.3130  151.2950 C   0  0  0  0  0  1  0  0  0  0  0  0
  157.8530  213.5430  152.5190 C   0  0  0  0  0  2  0  0  0  0  0  0
  159.0300  211.9920  155.4760 C   0  0  2  0  0  3  0  0  0  0  0  0
  159.9300  210.9650  156.0950 C   0  0  0  0  0  0  0  0  0  0  0  0
  162.0960  210.3770  157.0150 C   0  0  0  0  0  3  0  0  0  0  0  0
  160.3420  208.7120  156.9050 C   0  0  0  0  0  3  0  0  0  0  0  0
  161.6470  209.0740  157.2480 C   0  0  0  0  0  3  0  0  0  0  0  0
  159.4840  209.6550  156.3270 C   0  0  0  0  0  3  0  0  0  0  0  0
  161.2400  211.3210  156.4390 C   0  0  0  0  0  3  0  0  0  0  0  0
  157.6880  211.5980  155.5600 O   0  0  0  0  0  0  0  0  0  0  0  0
  157.2060  212.2710  156.5840 O   0  0  0  0  0  1  0  0  0  0  0  0
  162.4880  209.7110  148.4720 N   0  0  0  0  0  2  0  0  0  0  0  0
  161.1900  213.1730  149.0730 C   0  0  0  0  0  3  0  0  0  0  0  0
  160.2360  213.2820  148.0490 C   0  0  0  0  0  0  0  0  0  0  0  0
  160.7940  211.0360  147.3170 C   0  0  0  0  0  3  0  0  0  0  0  0
  161.9410  212.0030  149.2150 C   0  0  0  0  0  3  0  0  0  0  0  0
  161.7540  210.9330  148.3290 C   0  0  0  0  0  0  0  0  0  0  0  0
  160.0420  212.2070  147.1750 C   0  0  0  0  0  3  0  0  0  0  0  0
  159.4690  214.4370  147.8800 O   0  0  0  0  0  0  0  0  0  0  0  0
  158.2500  214.4490  147.1480 C   0  0  0  0  0  1  0  0  0  0  0  0
  1  5  1  0  0  0  0
  2 13  2  0  0  0  0
  2 11  1  0  0  0  0
  3 16  1  0  0  0  0
  4  7  2  0  0  0  0
  5  9  2  0  0  0  0
  6  1  1  0  0  0  0
  7 11  1  0  0  0  0
  7  9  1  0  0  0  0
  8  4  1  0  0  0  0
  8  1  2  0  0  0  0
 10  3  1  0  0  0  0
 11 10  2  0  0  0  0
 12  2  1  0  0  0  0
 13 14  1  0  0  0  0
 14  3  2  0  0  0  0
 15 12  2  0  0  0  0
 15  4  1  0  0  0  0
 16 18  1  0  0  0  0
 16 17  1  1  0  0  0
 19 20  1  1  0  0  0
 19 21  1  0  0  0  0
 19 18  1  0  0  0  0
 22 21  1  6  0  0  0
 22 26  1  0  0  0  0
 23 22  1  0  0  0  0
 24 25  1  0  0  0  0
 25 23  1  0  0  0  0
 26 33  1  6  0  0  0
 26 27  1  0  0  0  0
 27 31  2  0  0  0  0
 27 32  1  0  0  0  0
 28 30  1  0  0  0  0
 29 30  2  0  0  0  0
 31 29  1  0  0  0  0
 32 28  2  0  0  0  0
 33 34  1  0  0  0  0
 35 13  1  0  0  0  0
 36 39  1  0  0  0  0
 37 36  2  0  0  0  0
 38 40  1  0  0  0  0
 40 35  1  0  0  0  0
 40 39  2  0  0  0  0
 41 38  2  0  0  0  0
 41 37  1  0  0  0  0
 42 37  1  0  0  0  0
 43 42  1  0  0  0  0
M  END
>  <MODEL>
4

>  <REMARK>
 VINA RESULT:      -8.2      1.779      6.552
  Name = 
  13 active torsions:
  status: ('A' for Active; 'I' for Inactive)
    1  A    between atoms: N_1  and  C_34
    2  A    between atoms: N_1  and  C_35
    3  A    between atoms: C_2  and  C_6
    4  A    between atoms: C_2  and  C_13
    5  A    between atoms: C_3  and  C_4
    6  A    between atoms: C_3  and  C_12
    7  A    between atoms: C_4  and  C_15
    8  A    between atoms: C_4  and  C_22
    9  A    between atoms: C_6  and  C_12
   10  A    between atoms: C_11  and  C_22
   11  A    between atoms: O_14  and  C_22
   12  A    between atoms: C_15  and  C_42
   13  A    between atoms: C_19  and  O_25
                            x       y       z     vdW  Elec       q    Type
                         _______ _______ _______ _____ _____    ______ ____

>  <TORSDO>
F 13

$$$$
=
 OpenBabel11062410123D

 43 47  0  0  1  0  0  0  0  0999 V2000
  161.0380  201.4230  148.4210 C   0  0  0  0  0  0  0  0  0  0  0  0
  161.1660  205.2760  151.7050 C   0  0  0  0  0  0  0  0  0  0  0  0
  161.5070  207.5580  150.1470 C   0  0  0  0  0  0  0  0  0  0  0  0
  161.0470  202.7670  150.4360 C   0  0  0  0  0  0  0  0  0  0  0  0
  161.1720  202.5780  147.6460 C   0  0  0  0  0  3  0  0  0  0  0  0
  160.9660  200.2100  147.8230 F   0  0  0  0  0  0  0  0  0  0  0  0
  161.1800  203.9410  149.6570 C   0  0  0  0  0  0  0  0  0  0  0  0
  160.9760  201.5170  149.8140 C   0  0  0  0  0  3  0  0  0  0  0  0
  161.2440  203.8320  148.2590 C   0  0  0  0  0  3  0  0  0  0  0  0
  161.4160  206.3330  149.5630 N   0  0  0  0  0  0  0  0  0  0  0  0
  161.2500  205.1950  150.2930 C   0  0  0  0  0  0  0  0  0  0  0  0
  161.0540  204.0970  152.4570 C   0  0  0  0  0  3  0  0  0  0  0  0
  161.2340  206.5420  152.3230 C   0  0  0  0  0  0  0  0  0  0  0  0
  161.4300  207.6770  151.5350 C   0  0  0  0  0  3  0  0  0  0  0  0
  160.9900  202.8530  151.8270 C   0  0  0  0  0  3  0  0  0  0  0  0
  161.7230  208.7810  149.3180 C   0  0  2  0  0  3  0  0  0  0  0  0
  162.6100  208.4590  148.1250 C   0  0  0  0  0  1  0  0  0  0  0  0
  162.3320  209.8910  150.1720 C   0  0  0  0  0  2  0  0  0  0  0  0
  161.7260  211.2670  149.8950 C   0  0  2  0  0  3  0  0  0  0  0  0
  160.7320  211.5640  150.8280 O   0  0  0  0  0  1  0  0  0  0  0  0
  161.1660  211.3860  148.4830 C   0  0  0  0  0  2  0  0  0  0  0  0
  160.7680  212.8270  148.1760 C   0  0  1  0  0  3  0  0  0  0  0  0
  160.6190  213.6190  149.4710 C   0  0  0  0  0  2  0  0  0  0  0  0
  158.3600  213.7400  148.4390 C   0  0  0  0  0  1  0  0  0  0  0  0
  159.2350  214.2390  149.5710 C   0  0  0  0  0  2  0  0  0  0  0  0
  161.7780  213.5130  147.2490 C   0  0  2  0  0  3  0  0  0  0  0  0
  161.5750  213.1340  145.8130 C   0  0  0  0  0  0  0  0  0  0  0  0
  160.1020  212.3440  144.0550 C   0  0  0  0  0  3  0  0  0  0  0  0
  162.4210  212.8340  143.5550 C   0  0  0  0  0  3  0  0  0  0  0  0
  161.1560  212.4090  143.1380 C   0  0  0  0  0  3  0  0  0  0  0  0
  162.6310  213.1950  144.8910 C   0  0  0  0  0  3  0  0  0  0  0  0
  160.3110  212.7040  145.3900 C   0  0  0  0  0  3  0  0  0  0  0  0
  163.0970  213.2680  147.6500 O   0  0  0  0  0  0  0  0  0  0  0  0
  163.5750  214.4520  147.9720 O   0  0  0  0  0  1  0  0  0  0  0  0
  161.1670  206.7070  153.7460 N   0  0  0  0  0  2  0  0  0  0  0  0
  159.7050  209.0730  156.2560 C   0  0  0  0  0  3  0  0  0  0  0  0
  160.0240  210.3110  155.6730 C   0  0  0  0  0  0  0  0  0  0  0  0
  161.1000  209.1460  153.8360 C   0  0  0  0  0  3  0  0  0  0  0  0
  160.0840  207.8820  155.6310 C   0  0  0  0  0  3  0  0  0  0  0  0
  160.7950  207.9140  154.4230 C   0  0  0  0  0  0  0  0  0  0  0  0
  160.7210  210.3380  154.4610 C   0  0  0  0  0  3  0  0  0  0  0  0
  159.6610  211.5190  156.2720 O   0  0  0  0  0  0  0  0  0  0  0  0
  158.3420  211.7790  156.7380 C   0  0  0  0  0  1  0  0  0  0  0  0
  1  8  1  0  0  0  0
  2 13  1  0  0  0  0
  2 12  1  0  0  0  0
  3 14  1  0  0  0  0
  4 15  1  0  0  0  0
  5  9  1  0  0  0  0
  5  1  2  0  0  0  0
  6  1  1  0  0  0  0
  7 11  1  0  0  0  0
  7  4  1  0  0  0  0
  8  4  2  0  0  0  0
  9  7  2  0  0  0  0
 10  3  2  0  0  0  0
 10 11  1  0  0  0  0
 11  2  2  0  0  0  0
 13 35  1  0  0  0  0
 14 13  2  0  0  0  0
 15 12  2  0  0  0  0
 16 17  1  6  0  0  0
 16  3  1  0  0  0  0
 16 18  1  0  0  0  0
 19 18  1  0  0  0  0
 19 20  1  1  0  0  0
 21 19  1  0  0  0  0
 22 21  1  1  0  0  0
 22 23  1  0  0  0  0
 23 25  1  0  0  0  0
 24 25  1  0  0  0  0
 26 33  1  1  0  0  0
 26 22  1  0  0  0  0
 27 26  1  0  0  0  0
 28 32  2  0  0  0  0
 29 31  1  0  0  0  0
 30 29  2  0  0  0  0
 30 28  1  0  0  0  0
 31 27  2  0  0  0  0
 32 27  1  0  0  0  0
 33 34  1  0  0  0  0
 35 40  1  0  0  0  0
 37 36  1  0  0  0  0
 37 42  1  0  0  0  0
 38 40  2  0  0  0  0
 38 41  1  0  0  0  0
 39 36  2  0  0  0  0
 40 39  1  0  0  0  0
 41 37  2  0  0  0  0
 42 43  1  0  0  0  0
M  END
>  <MODEL>
5

>  <REMARK>
 VINA RESULT:      -8.0      1.429      2.907
  Name = 
  13 active torsions:
  status: ('A' for Active; 'I' for Inactive)
    1  A    between atoms: N_1  and  C_34
    2  A    between atoms: N_1  and  C_35
    3  A    between atoms: C_2  and  C_6
    4  A    between atoms: C_2  and  C_13
    5  A    between atoms: C_3  and  C_4
    6  A    between atoms: C_3  and  C_12
    7  A    between atoms: C_4  and  C_15
    8  A    between atoms: C_4  and  C_22
    9  A    between atoms: C_6  and  C_12
   10  A    between atoms: C_11  and  C_22
   11  A    between atoms: O_14  and  C_22
   12  A    between atoms: C_15  and  C_42
   13  A    between atoms: C_19  and  O_25
                            x       y       z     vdW  Elec       q    Type
                         _______ _______ _______ _____ _____    ______ ____

>  <TORSDO>
F 13

$$$$
=
 OpenBabel11062410123D

 43 47  0  0  1  0  0  0  0  0999 V2000
  160.8250  202.5080  150.5920 C   0  0  0  0  0  0  0  0  0  0  0  0
  161.2850  207.2390  152.3360 C   0  0  0  0  0  0  0  0  0  0  0  0
  161.5780  208.8320  150.0710 C   0  0  0  0  0  0  0  0  0  0  0  0
  161.0100  204.4570  152.0170 C   0  0  0  0  0  0  0  0  0  0  0  0
  160.9360  203.3200  149.4600 C   0  0  0  0  0  3  0  0  0  0  0  0
  160.6790  201.1680  150.4520 F   0  0  0  0  0  0  0  0  0  0  0  0
  161.1210  205.2860  150.8750 C   0  0  0  0  0  0  0  0  0  0  0  0
  160.8620  203.0750  151.8680 C   0  0  0  0  0  3  0  0  0  0  0  0
  161.0840  204.7020  149.5990 C   0  0  0  0  0  3  0  0  0  0  0  0
  161.4140  207.4870  149.9510 N   0  0  0  0  0  0  0  0  0  0  0  0
  161.2680  206.6770  151.0360 C   0  0  0  0  0  0  0  0  0  0  0  0
  161.1930  206.3950  153.4530 C   0  0  0  0  0  3  0  0  0  0  0  0
  161.4300  208.6350  152.4760 C   0  0  0  0  0  0  0  0  0  0  0  0
  161.6000  209.4220  151.3350 C   0  0  0  0  0  3  0  0  0  0  0  0
  161.0520  205.0160  153.2950 C   0  0  0  0  0  3  0  0  0  0  0  0
  161.7680  209.6860  148.8610 C   0  0  2  0  0  3  0  0  0  0  0  0
  162.7230  209.0130  147.8870 C   0  0  0  0  0  1  0  0  0  0  0  0
  162.2820  211.0650  149.2700 C   0  0  0  0  0  2  0  0  0  0  0  0
  162.4150  212.0320  148.0930 C   0  0  2  0  0  3  0  0  0  0  0  0
  163.7440  212.4250  147.9260 O   0  0  0  0  0  1  0  0  0  0  0  0
  161.5240  213.2580  148.2400 C   0  0  0  0  0  2  0  0  0  0  0  0
  160.9940  213.7090  146.8820 C   0  0  1  0  0  3  0  0  0  0  0  0
  161.7280  212.9820  145.7610 C   0  0  0  0  0  2  0  0  0  0  0  0
  163.4590  213.6260  144.0970 C   0  0  0  0  0  1  0  0  0  0  0  0
  162.0750  213.9360  144.6310 C   0  0  0  0  0  2  0  0  0  0  0  0
  159.4820  213.4860  146.7570 C   0  0  2  0  0  3  0  0  0  0  0  0
  158.7780  213.6270  148.0730 C   0  0  0  0  0  0  0  0  0  0  0  0
  156.7700  213.3400  149.4020 C   0  0  0  0  0  3  0  0  0  0  0  0
  158.7540  214.2980  150.4080 C   0  0  0  0  0  3  0  0  0  0  0  0
  157.4240  213.8820  150.5130 C   0  0  0  0  0  3  0  0  0  0  0  0
  159.4300  214.1730  149.1890 C   0  0  0  0  0  3  0  0  0  0  0  0
  157.4440  213.2140  148.1840 C   0  0  0  0  0  3  0  0  0  0  0  0
  159.1890  212.2510  146.1630 O   0  0  0  0  0  0  0  0  0  0  0  0
  158.5580  212.5570  145.0490 O   0  0  0  0  0  1  0  0  0  0  0  0
  161.4660  209.2800  153.7560 N   0  0  0  0  0  2  0  0  0  0  0  0
  158.7760  211.8870  153.7610 C   0  0  0  0  0  3  0  0  0  0  0  0
  159.0790  212.5810  154.9440 C   0  0  0  0  0  0  0  0  0  0  0  0
  160.9440  211.0760  155.3250 C   0  0  0  0  0  3  0  0  0  0  0  0
  159.5520  210.7950  153.3670 C   0  0  0  0  0  3  0  0  0  0  0  0
  160.6340  210.3770  154.1550 C   0  0  0  0  0  0  0  0  0  0  0  0
  160.1670  212.1700  155.7200 C   0  0  0  0  0  3  0  0  0  0  0  0
  158.3220  213.6760  155.3670 O   0  0  0  0  0  0  0  0  0  0  0  0
  157.0000  213.5460  155.8750 C   0  0  0  0  0  1  0  0  0  0  0  0
  1  8  1  0  0  0  0
  2 13  1  0  0  0  0
  2 12  1  0  0  0  0
  3 14  1  0  0  0  0
  4 15  1  0  0  0  0
  5  9  1  0  0  0  0
  5  1  2  0  0  0  0
  6  1  1  0  0  0  0
  7 11  1  0  0  0  0
  7  4  1  0  0  0  0
  8  4  2  0  0  0  0
  9  7  2  0  0  0  0
 10  3  2  0  0  0  0
 10 11  1  0  0  0  0
 11  2  2  0  0  0  0
 13 35  1  0  0  0  0
 14 13  2  0  0  0  0
 15 12  2  0  0  0  0
 16 17  1  6  0  0  0
 16 18  1  0  0  0  0
 16  3  1  0  0  0  0
 19 20  1  1  0  0  0
 19 21  1  0  0  0  0
 19 18  1  0  0  0  0
 22 23  1  6  0  0  0
 22 21  1  0  0  0  0
 24 25  1  0  0  0  0
 25 23  1  0  0  0  0
 26 33  1  1  0  0  0
 26 22  1  0  0  0  0
 26 27  1  0  0  0  0
 27 32  2  0  0  0  0
 27 31  1  0  0  0  0
 28 30  2  0  0  0  0
 29 30  1  0  0  0  0
 31 29  2  0  0  0  0
 32 28  1  0  0  0  0
 34 33  1  0  0  0  0
 35 40  1  0  0  0  0
 36 37  1  0  0  0  0
 37 42  1  0  0  0  0
 37 41  2  0  0  0  0
 38 41  1  0  0  0  0
 39 36  2  0  0  0  0
 39 40  1  0  0  0  0
 40 38  2  0  0  0  0
 42 43  1  0  0  0  0
M  END
>  <MODEL>
6

>  <REMARK>
 VINA RESULT:      -7.7      1.728      2.543
  Name = 
  13 active torsions:
  status: ('A' for Active; 'I' for Inactive)
    1  A    between atoms: N_1  and  C_34
    2  A    between atoms: N_1  and  C_35
    3  A    between atoms: C_2  and  C_6
    4  A    between atoms: C_2  and  C_13
    5  A    between atoms: C_3  and  C_4
    6  A    between atoms: C_3  and  C_12
    7  A    between atoms: C_4  and  C_15
    8  A    between atoms: C_4  and  C_22
    9  A    between atoms: C_6  and  C_12
   10  A    between atoms: C_11  and  C_22
   11  A    between atoms: O_14  and  C_22
   12  A    between atoms: C_15  and  C_42
   13  A    between atoms: C_19  and  O_25
                            x       y       z     vdW  Elec       q    Type
                         _______ _______ _______ _____ _____    ______ ____

>  <TORSDO>
F 13

$$$$
=
 OpenBabel11062410123D

 43 47  0  0  1  0  0  0  0  0999 V2000
  160.8670  201.7860  146.5850 C   0  0  0  0  0  0  0  0  0  0  0  0
  161.9630  206.4830  148.1280 C   0  0  0  0  0  0  0  0  0  0  0  0
  161.8150  206.3960  150.9080 C   0  0  0  0  0  0  0  0  0  0  0  0
  161.4180  204.1430  146.6630 C   0  0  0  0  0  0  0  0  0  0  0  0
  160.8310  201.7440  147.9810 C   0  0  0  0  0  3  0  0  0  0  0  0
  160.6200  200.6640  145.8680 F   0  0  0  0  0  0  0  0  0  0  0  0
  161.3860  204.1080  148.0780 C   0  0  0  0  0  0  0  0  0  0  0  0
  161.1590  202.9830  145.9270 C   0  0  0  0  0  3  0  0  0  0  0  0
  161.0890  202.8990  148.7260 C   0  0  0  0  0  3  0  0  0  0  0  0
  161.5860  205.2760  150.1710 N   0  0  0  0  0  0  0  0  0  0  0  0
  161.6490  205.2800  148.8100 C   0  0  0  0  0  0  0  0  0  0  0  0
  161.9690  206.4980  146.7260 C   0  0  0  0  0  3  0  0  0  0  0  0
  162.2270  207.6470  148.8810 C   0  0  0  0  0  0  0  0  0  0  0  0
  162.1260  207.5980  150.2720 C   0  0  0  0  0  3  0  0  0  0  0  0
  161.7030  205.3360  145.9990 C   0  0  0  0  0  3  0  0  0  0  0  0
  161.7050  206.3610  152.3960 C   0  0  2  0  0  3  0  0  0  0  0  0
  161.1600  205.0170  152.8530 C   0  0  0  0  0  1  0  0  0  0  0  0
  160.8180  207.5070  152.8820 C   0  0  0  0  0  2  0  0  0  0  0  0
  161.0520  207.8700  154.3490 C   0  0  2  0  0  3  0  0  0  0  0  0
  160.0000  207.4110  155.1430 O   0  0  0  0  0  1  0  0  0  0  0  0
  161.2450  209.3660  154.5570 C   0  0  0  0  0  2  0  0  0  0  0  0
  160.1630  209.9320  155.4730 C   0  0  1  0  0  3  0  0  0  0  0  0
  160.6160  209.8620  156.9280 C   0  0  0  0  0  2  0  0  0  0  0  0
  163.0790  209.9950  157.2360 C   0  0  0  0  0  1  0  0  0  0  0  0
  161.7910  210.7920  157.1750 C   0  0  0  0  0  2  0  0  0  0  0  0
  159.7960  211.3730  155.1010 C   0  0  2  0  0  3  0  0  0  0  0  0
  158.3890  211.7160  155.4890 C   0  0  0  0  0  0  0  0  0  0  0  0
  156.0130  211.2600  155.3230 C   0  0  0  0  0  3  0  0  0  0  0  0
  156.7950  213.0960  156.6960 C   0  0  0  0  0  3  0  0  0  0  0  0
  155.7440  212.3300  156.1830 C   0  0  0  0  0  3  0  0  0  0  0  0
  158.1160  212.7910  156.3490 C   0  0  0  0  0  3  0  0  0  0  0  0
  157.3320  210.9540  154.9760 C   0  0  0  0  0  3  0  0  0  0  0  0
  160.0170  211.6280  153.7420 O   0  0  0  0  0  0  0  0  0  0  0  0
  159.0900  212.5020  153.4110 O   0  0  0  0  0  1  0  0  0  0  0  0
  162.5420  208.9030  148.2660 N   0  0  0  0  0  2  0  0  0  0  0  0
  161.1050  212.3600  148.1150 C   0  0  0  0  0  3  0  0  0  0  0  0
  161.0390  212.6810  149.4810 C   0  0  0  0  0  0  0  0  0  0  0  0
  161.9560  210.5000  150.0180 C   0  0  0  0  0  3  0  0  0  0  0  0
  161.5920  211.1150  147.7070 C   0  0  0  0  0  3  0  0  0  0  0  0
  162.0090  210.1740  148.6600 C   0  0  0  0  0  0  0  0  0  0  0  0
  161.4690  211.7450  150.4270 C   0  0  0  0  0  3  0  0  0  0  0  0
  160.5570  213.9160  149.9220 O   0  0  0  0  0  0  0  0  0  0  0  0
  159.1920  214.1320  150.2580 C   0  0  0  0  0  1  0  0  0  0  0  0
  1  5  1  0  0  0  0
  2 11  1  0  0  0  0
  2 13  1  0  0  0  0
  3 16  1  0  0  0  0
  4  7  1  0  0  0  0
  5  9  2  0  0  0  0
  6  1  1  0  0  0  0
  7  9  1  0  0  0  0
  7 11  2  0  0  0  0
  8  1  2  0  0  0  0
  8  4  1  0  0  0  0
 10  3  2  0  0  0  0
 11 10  1  0  0  0  0
 12  2  2  0  0  0  0
 13 14  2  0  0  0  0
 14  3  1  0  0  0  0
 15  4  2  0  0  0  0
 15 12  1  0  0  0  0
 16 17  1  6  0  0  0
 16 18  1  0  0  0  0
 18 19  1  0  0  0  0
 19 21  1  0  0  0  0
 19 20  1  1  0  0  0
 22 21  1  6  0  0  0
 22 23  1  0  0  0  0
 23 25  1  0  0  0  0
 25 24  1  0  0  0  0
 26 33  1  6  0  0  0
 26 22  1  0  0  0  0
 26 27  1  0  0  0  0
 27 31  1  0  0  0  0
 28 30  2  0  0  0  0
 30 29  1  0  0  0  0
 31 29  2  0  0  0  0
 32 28  1  0  0  0  0
 32 27  2  0  0  0  0
 34 33  1  0  0  0  0
 35 40  1  0  0  0  0
 35 13  1  0  0  0  0
 36 37  1  0  0  0  0
 37 42  1  0  0  0  0
 37 41  2  0  0  0  0
 38 41  1  0  0  0  0
 39 36  2  0  0  0  0
 39 40  1  0  0  0  0
 40 38  2  0  0  0  0
 42 43  1  0  0  0  0
M  END
>  <MODEL>
7

>  <REMARK>
 VINA RESULT:      -7.7      1.942      6.192
  Name = 
  13 active torsions:
  status: ('A' for Active; 'I' for Inactive)
    1  A    between atoms: N_1  and  C_34
    2  A    between atoms: N_1  and  C_35
    3  A    between atoms: C_2  and  C_6
    4  A    between atoms: C_2  and  C_13
    5  A    between atoms: C_3  and  C_4
    6  A    between atoms: C_3  and  C_12
    7  A    between atoms: C_4  and  C_15
    8  A    between atoms: C_4  and  C_22
    9  A    between atoms: C_6  and  C_12
   10  A    between atoms: C_11  and  C_22
   11  A    between atoms: O_14  and  C_22
   12  A    between atoms: C_15  and  C_42
   13  A    between atoms: C_19  and  O_25
                            x       y       z     vdW  Elec       q    Type
                         _______ _______ _______ _____ _____    ______ ____

>  <TORSDO>
F 13

$$$$
=
 OpenBabel11062410123D

 43 47  0  0  1  0  0  0  0  0999 V2000
  156.2140  213.7120  154.2080 C   0  0  0  0  0  0  0  0  0  0  0  0
  160.1210  211.9820  151.4900 C   0  0  0  0  0  0  0  0  0  0  0  0
  160.5930  209.4060  152.4380 C   0  0  0  0  0  0  0  0  0  0  0  0
  158.0540  213.5010  152.6470 C   0  0  0  0  0  0  0  0  0  0  0  0
  156.4360  212.4050  154.6510 C   0  0  0  0  0  3  0  0  0  0  0  0
  155.2140  214.4490  154.7470 F   0  0  0  0  0  0  0  0  0  0  0  0
  158.2820  212.1750  153.0890 C   0  0  0  0  0  0  0  0  0  0  0  0
  157.0230  214.2590  153.2080 C   0  0  0  0  0  3  0  0  0  0  0  0
  157.4650  211.6400  154.0960 C   0  0  0  0  0  3  0  0  0  0  0  0
  159.5830  210.1560  152.9550 N   0  0  0  0  0  0  0  0  0  0  0  0
  159.3230  211.4200  152.5170 C   0  0  0  0  0  0  0  0  0  0  0  0
  159.8890  213.3030  151.0820 C   0  0  0  0  0  3  0  0  0  0  0  0
  161.1570  211.2070  150.9270 C   0  0  0  0  0  0  0  0  0  0  0  0
  161.4000  209.9260  151.4270 C   0  0  0  0  0  3  0  0  0  0  0  0
  158.8600  214.0560  151.6530 C   0  0  0  0  0  3  0  0  0  0  0  0
  160.8700  208.0380  152.9660 C   0  0  2  0  0  3  0  0  0  0  0  0
  161.2240  208.1040  154.4430 C   0  0  0  0  0  1  0  0  0  0  0  0
  161.9910  207.3840  152.1610 C   0  0  0  0  0  2  0  0  0  0  0  0
  161.8600  205.8630  152.0690 C   0  0  2  0  0  3  0  0  0  0  0  0
  163.0650  205.2880  151.6640 O   0  0  0  0  0  1  0  0  0  0  0  0
  160.7370  205.4280  151.1370 C   0  0  0  0  0  2  0  0  0  0  0  0
  161.2980  204.9200  149.8110 C   0  0  1  0  0  3  0  0  0  0  0  0
  160.5210  203.6930  149.3460 C   0  0  0  0  0  2  0  0  0  0  0  0
  160.7360  201.2200  149.2010 C   0  0  0  0  0  1  0  0  0  0  0  0
  161.0070  202.4410  150.0570 C   0  0  0  0  0  2  0  0  0  0  0  0
  161.2740  206.0040  148.7270 C   0  0  2  0  0  3  0  0  0  0  0  0
  161.3690  205.4260  147.3470 C   0  0  0  0  0  0  0  0  0  0  0  0
  160.5030  205.2820  145.0860 C   0  0  0  0  0  3  0  0  0  0  0  0
  162.4400  203.9740  145.7210 C   0  0  0  0  0  3  0  0  0  0  0  0
  161.5050  204.3640  144.7570 C   0  0  0  0  0  3  0  0  0  0  0  0
  162.3710  204.5030  147.0140 C   0  0  0  0  0  3  0  0  0  0  0  0
  160.4330  205.8110  146.3780 C   0  0  0  0  0  3  0  0  0  0  0  0
  162.2700  206.9660  148.9370 O   0  0  0  0  0  0  0  0  0  0  0  0
  161.6660  208.1200  148.7450 O   0  0  0  0  0  1  0  0  0  0  0  0
  162.0150  211.7060  149.8920 N   0  0  0  0  0  2  0  0  0  0  0  0
  160.5100  212.3400  146.5200 C   0  0  0  0  0  3  0  0  0  0  0  0
  160.7970  213.7040  146.3530 C   0  0  0  0  0  0  0  0  0  0  0  0
  161.8720  213.7260  148.5280 C   0  0  0  0  0  3  0  0  0  0  0  0
  160.9010  211.6760  147.6860 C   0  0  0  0  0  3  0  0  0  0  0  0
  161.5750  212.3700  148.7010 C   0  0  0  0  0  0  0  0  0  0  0  0
  161.4810  214.3900  147.3610 C   0  0  0  0  0  3  0  0  0  0  0  0
  160.4190  214.3970  145.2000 O   0  0  0  0  0  0  0  0  0  0  0  0
  159.5980  213.8200  144.1920 C   0  0  0  0  0  1  0  0  0  0  0  0
  1  5  1  0  0  0  0
  1  6  1  0  0  0  0
  2 11  1  0  0  0  0
  3 10  1  0  0  0  0
  3 16  1  0  0  0  0
  4  7  2  0  0  0  0
  4  8  1  0  0  0  0
  7  9  1  0  0  0  0
  8  1  2  0  0  0  0
  9  5  2  0  0  0  0
 11 10  2  0  0  0  0
 11  7  1  0  0  0  0
 12  2  1  0  0  0  0
 12 15  2  0  0  0  0
 13 14  1  0  0  0  0
 13  2  2  0  0  0  0
 14  3  2  0  0  0  0
 15  4  1  0  0  0  0
 16 17  1  1  0  0  0
 18 16  1  0  0  0  0
 19 20  1  6  0  0  0
 19 18  1  0  0  0  0
 21 19  1  0  0  0  0
 22 23  1  6  0  0  0
 22 21  1  0  0  0  0
 23 25  1  0  0  0  0
 24 25  1  0  0  0  0
 26 33  1  1  0  0  0
 26 22  1  0  0  0  0
 27 26  1  0  0  0  0
 28 32  1  0  0  0  0
 29 31  2  0  0  0  0
 30 28  2  0  0  0  0
 30 29  1  0  0  0  0
 31 27  1  0  0  0  0
 32 27  2  0  0  0  0
 34 33  1  0  0  0  0
 35 13  1  0  0  0  0
 36 39  1  0  0  0  0
 37 36  2  0  0  0  0
 37 41  1  0  0  0  0
 38 40  1  0  0  0  0
 39 40  2  0  0  0  0
 40 35  1  0  0  0  0
 41 38  2  0  0  0  0
 42 37  1  0  0  0  0
 43 42  1  0  0  0  0
M  END
>  <MODEL>
8

>  <REMARK>
 VINA RESULT:      -7.7      3.723      9.590
  Name = 
  13 active torsions:
  status: ('A' for Active; 'I' for Inactive)
    1  A    between atoms: N_1  and  C_34
    2  A    between atoms: N_1  and  C_35
    3  A    between atoms: C_2  and  C_6
    4  A    between atoms: C_2  and  C_13
    5  A    between atoms: C_3  and  C_4
    6  A    between atoms: C_3  and  C_12
    7  A    between atoms: C_4  and  C_15
    8  A    between atoms: C_4  and  C_22
    9  A    between atoms: C_6  and  C_12
   10  A    between atoms: C_11  and  C_22
   11  A    between atoms: O_14  and  C_22
   12  A    between atoms: C_15  and  C_42
   13  A    between atoms: C_19  and  O_25
                            x       y       z     vdW  Elec       q    Type
                         _______ _______ _______ _____ _____    ______ ____

>  <TORSDO>
F 13

$$$$
=
 OpenBabel11062410123D

 43 47  0  0  1  0  0  0  0  0999 V2000
  158.6940  213.5180  142.6790 C   0  0  0  0  0  0  0  0  0  0  0  0
  158.8930  213.6950  147.7360 C   0  0  0  0  0  0  0  0  0  0  0  0
  161.2050  212.3050  148.4300 C   0  0  0  0  0  0  0  0  0  0  0  0
  158.2060  213.9230  145.0170 C   0  0  0  0  0  0  0  0  0  0  0  0
  159.8700  212.8540  143.0360 C   0  0  0  0  0  3  0  0  0  0  0  0
  158.3580  213.6460  141.3730 F   0  0  0  0  0  0  0  0  0  0  0  0
  159.3990  213.2540  145.3850 C   0  0  0  0  0  0  0  0  0  0  0  0
  157.8620  214.0510  143.6680 C   0  0  0  0  0  3  0  0  0  0  0  0
  160.2220  212.7210  144.3820 C   0  0  0  0  0  3  0  0  0  0  0  0
  160.8590  212.4590  147.1230 N   0  0  0  0  0  0  0  0  0  0  0  0
  159.7370  213.1320  146.7460 C   0  0  0  0  0  0  0  0  0  0  0  0
  157.7080  214.3360  147.3480 C   0  0  0  0  0  3  0  0  0  0  0  0
  159.2520  213.5640  149.0940 C   0  0  0  0  0  0  0  0  0  0  0  0
  160.3990  212.8450  149.4320 C   0  0  0  0  0  3  0  0  0  0  0  0
  157.3690  214.4530  145.9990 C   0  0  0  0  0  3  0  0  0  0  0  0
  162.4260  211.5330  148.8070 C   0  0  2  0  0  3  0  0  0  0  0  0
  163.6380  212.0700  148.0630 C   0  0  0  0  0  1  0  0  0  0  0  0
  162.2160  210.0480  148.5160 C   0  0  0  0  0  2  0  0  0  0  0  0
  161.9340  209.2220  149.7710 C   0  0  2  0  0  3  0  0  0  0  0  0
  162.3190  209.9190  150.9160 O   0  0  0  0  0  1  0  0  0  0  0  0
  162.6140  207.8600  149.7390 C   0  0  0  0  0  2  0  0  0  0  0  0
  161.6590  206.7650  150.2080 C   0  0  1  0  0  3  0  0  0  0  0  0
  160.6840  207.3230  151.2390 C   0  0  0  0  0  2  0  0  0  0  0  0
  162.3260  206.1390  152.6820 C   0  0  0  0  0  1  0  0  0  0  0  0
  160.9190  206.6970  152.6030 C   0  0  0  0  0  2  0  0  0  0  0  0
  160.8910  206.1370  149.0390 C   0  0  2  0  0  3  0  0  0  0  0  0
  160.8890  204.6390  149.1020 C   0  0  0  0  0  0  0  0  0  0  0  0
  160.4500  202.6090  150.3530 C   0  0  0  0  0  3  0  0  0  0  0  0
  161.3140  202.4700  148.0950 C   0  0  0  0  0  3  0  0  0  0  0  0
  160.8780  201.8420  149.2650 C   0  0  0  0  0  3  0  0  0  0  0  0
  161.3220  203.8670  148.0140 C   0  0  0  0  0  3  0  0  0  0  0  0
  160.4560  204.0040  150.2730 C   0  0  0  0  0  3  0  0  0  0  0  0
  161.3740  206.5860  147.8030 O   0  0  0  0  0  0  0  0  0  0  0  0
  160.3210  206.5890  147.0130 O   0  0  0  0  0  1  0  0  0  0  0  0
  158.4470  214.0970  150.1560 N   0  0  0  0  0  2  0  0  0  0  0  0
  158.7490  211.7870  153.0900 C   0  0  0  0  0  3  0  0  0  0  0  0
  157.6270  212.1670  153.8440 C   0  0  0  0  0  0  0  0  0  0  0  0
  157.0750  213.8190  152.1560 C   0  0  0  0  0  3  0  0  0  0  0  0
  159.0300  212.4230  151.8780 C   0  0  0  0  0  3  0  0  0  0  0  0
  158.1990  213.4510  151.4100 C   0  0  0  0  0  0  0  0  0  0  0  0
  156.7930  213.1830  153.3690 C   0  0  0  0  0  3  0  0  0  0  0  0
  157.3190  211.5520  155.0610 O   0  0  0  0  0  0  0  0  0  0  0  0
  157.2950  212.2600  156.2940 C   0  0  0  0  0  1  0  0  0  0  0  0
  1  5  2  0  0  0  0
  1  8  1  0  0  0  0
  2 13  1  0  0  0  0
  3 16  1  0  0  0  0
  3 14  1  0  0  0  0
  4  7  1  0  0  0  0
  4 15  1  0  0  0  0
  5  9  1  0  0  0  0
  6  1  1  0  0  0  0
  7 11  1  0  0  0  0
  8  4  2  0  0  0  0
  9  7  2  0  0  0  0
 10  3  2  0  0  0  0
 11 10  1  0  0  0  0
 11  2  2  0  0  0  0
 12  2  1  0  0  0  0
 13 14  2  0  0  0  0
 13 35  1  0  0  0  0
 15 12  2  0  0  0  0
 16 17  1  6  0  0  0
 18 16  1  0  0  0  0
 18 19  1  0  0  0  0
 19 20  1  1  0  0  0
 21 19  1  0  0  0  0
 22 21  1  6  0  0  0
 22 23  1  0  0  0  0
 23 25  1  0  0  0  0
 25 24  1  0  0  0  0
 26 33  1  6  0  0  0
 26 27  1  0  0  0  0
 26 22  1  0  0  0  0
 27 32  1  0  0  0  0
 29 30  2  0  0  0  0
 30 28  1  0  0  0  0
 31 29  1  0  0  0  0
 31 27  2  0  0  0  0
 32 28  2  0  0  0  0
 34 33  1  0  0  0  0
 35 40  1  0  0  0  0
 36 37  1  0  0  0  0
 37 42  1  0  0  0  0
 38 41  1  0  0  0  0
 39 36  2  0  0  0  0
 40 39  1  0  0  0  0
 40 38  2  0  0  0  0
 41 37  2  0  0  0  0
 42 43  1  0  0  0  0
M  END
>  <MODEL>
9

>  <REMARK>
 VINA RESULT:      -7.4      3.643      8.749
  Name = 
  13 active torsions:
  status: ('A' for Active; 'I' for Inactive)
    1  A    between atoms: N_1  and  C_34
    2  A    between atoms: N_1  and  C_35
    3  A    between atoms: C_2  and  C_6
    4  A    between atoms: C_2  and  C_13
    5  A    between atoms: C_3  and  C_4
    6  A    between atoms: C_3  and  C_12
    7  A    between atoms: C_4  and  C_15
    8  A    between atoms: C_4  and  C_22
    9  A    between atoms: C_6  and  C_12
   10  A    between atoms: C_11  and  C_22
   11  A    between atoms: O_14  and  C_22
   12  A    between atoms: C_15  and  C_42
   13  A    between atoms: C_19  and  O_25
                            x       y       z     vdW  Elec       q    Type
                         _______ _______ _______ _____ _____    ______ ____

>  <TORSDO>
F 13

$$$$
