=
 OpenBabel11062408153D

 32 36  0  0  1  0  0  0  0  0999 V2000
  161.4710  210.2730  150.3670 C   0  0  2  0  0  3  0  0  0  0  0  0
  160.8150  211.1080  152.7430 C   0  0  1  0  0  3  0  0  0  0  0  0
  160.4690  211.0390  151.2450 C   0  0  1  0  0  3  0  0  0  0  0  0
  159.5630  210.8090  153.5670 C   0  0  2  0  0  3  0  0  0  0  0  0
  162.7190  210.7590  156.8920 C   0  0  0  0  0  2  0  0  0  0  0  0
  161.9670  210.1630  153.1410 C   0  0  2  0  0  3  0  0  0  0  0  0
  160.6980  209.7680  156.8260 C   0  0  0  0  0  2  0  0  0  0  0  0
  160.5950  209.8260  155.2910 C   0  0  1  0  0  3  0  0  0  0  0  0
  158.3350  211.6340  153.1530 C   0  0  0  0  0  2  0  0  0  0  0  0
  159.7530  212.2820  150.6690 C   0  0  1  0  0  3  0  0  0  0  0  0
  159.8500  210.9630  154.9290 O   0  0  0  0  0  0  0  0  0  0  0  0
  159.5870  213.4070  151.7030 C   0  0  0  0  0  2  0  0  0  0  0  0
  160.4200  212.7830  149.5500 O   0  0  0  0  0  1  0  0  0  0  0  0
  161.9630  208.9360  152.3440 N   0  0  0  0  0  0  0  0  0  0  0  0
  157.3970  213.7610  152.6050 O   0  0  0  0  0  1  0  0  0  0  0  0
  161.7740  208.9560  151.0540 C   0  0  0  0  0  0  0  0  0  0  0  0
  162.0040  209.8520  154.6430 C   0  0  2  0  0  3  0  0  0  0  0  0
  158.6080  213.1170  152.8590 C   0  0  1  0  0  3  0  0  0  0  0  0
  162.0260  209.5910  157.2610 O   0  0  0  0  0  0  0  0  0  0  0  0
  162.9520  210.8050  155.3760 C   0  0  0  0  0  2  0  0  0  0  0  0
  160.4220  207.0170  148.2680 C   0  0  0  0  0  2  0  0  0  0  0  0
  160.5950  205.5010  148.2010 C   0  0  0  0  0  2  0  0  0  0  0  0
  162.0000  205.1860  150.2830 C   0  0  0  0  0  2  0  0  0  0  0  0
  161.8030  207.6910  150.2880 C   0  0  0  0  0  0  0  0  0  0  0  0
  160.6750  204.8710  149.5920 C   0  0  2  0  0  3  0  0  0  0  0  0
  161.9550  206.5290  150.9420 C   0  0  0  0  0  3  0  0  0  0  0  0
  161.6600  207.7530  148.7880 C   0  0  1  0  0  3  0  0  0  0  0  0
  162.8760  207.3210  148.1140 N   0  0  0  0  0  1  0  0  0  0  0  0
  161.1590  202.8090  148.4410 C   0  0  0  0  0  1  0  0  0  0  0  0
  160.4250  203.4280  149.5410 N   0  0  0  0  0  2  0  0  0  0  0  0
  162.7530  211.0780  150.1630 C   0  0  0  0  0  2  0  0  0  0  0  0
  162.9400  211.4260  148.6990 C   0  0  0  0  0  1  0  0  0  0  0  0
  1 31  1  1  0  0  0
  1 16  1  0  0  0  0
  1  3  1  0  0  0  0
  2  6  1  0  0  0  0
  2  4  1  0  0  0  0
  3  2  1  0  0  0  0
  4 11  1  0  0  0  0
  5 19  1  0  0  0  0
  6 17  1  0  0  0  0
  7 19  1  0  0  0  0
  8  7  1  0  0  0  0
  9  4  1  0  0  0  0
 10  3  1  0  0  0  0
 10 12  1  0  0  0  0
 11  8  1  0  0  0  0
 12 18  1  0  0  0  0
 13 10  1  0  0  0  0
 14  6  1  0  0  0  0
 15 18  1  0  0  0  0
 16 14  2  0  0  0  0
 17  8  1  0  0  0  0
 17 20  1  0  0  0  0
 18  9  1  0  0  0  0
 20  5  1  0  0  0  0
 21 27  1  0  0  0  0
 22 21  1  0  0  0  0
 22 25  1  0  0  0  0
 23 26  1  0  0  0  0
 24 26  2  0  0  0  0
 24 16  1  0  0  0  0
 25 23  1  0  0  0  0
 27 24  1  0  0  0  0
 28 27  1  0  0  0  0
 29 30  1  0  0  0  0
 30 25  1  0  0  0  0
 32 31  1  0  0  0  0
M  END
>  <MODEL>
1

>  <REMARK>
 VINA RESULT:      -4.0      0.000      0.000
  Name = 
  3 active torsions:
  status: ('A' for Active; 'I' for Inactive)
    1  A    between atoms: C_1  and  C_4
    2  A    between atoms: C_16  and  C_27
    3  A    between atoms: C_19  and  N_26
                            x       y       z     vdW  Elec       q    Type
                         _______ _______ _______ _____ _____    ______ ____

>  <TORSDO>
F 3

$$$$
=
 OpenBabel11062408153D

 32 36  0  0  1  0  0  0  0  0999 V2000
  161.0810  207.0460  154.5150 C   0  0  2  0  0  3  0  0  0  0  0  0
  160.8490  209.6370  154.5690 C   0  0  1  0  0  3  0  0  0  0  0  0
  161.6440  208.3920  154.9980 C   0  0  1  0  0  3  0  0  0  0  0  0
  161.8170  210.7110  154.0720 C   0  0  2  0  0  3  0  0  0  0  0  0
  157.8340  212.6130  152.8310 C   0  0  0  0  0  2  0  0  0  0  0  0
  159.7790  209.3320  153.5010 C   0  0  2  0  0  3  0  0  0  0  0  0
  159.8990  212.9470  151.9960 C   0  0  0  0  0  2  0  0  0  0  0  0
  160.4580  211.6240  152.5470 C   0  0  1  0  0  3  0  0  0  0  0  0
  162.9810  210.9920  155.0350 C   0  0  0  0  0  2  0  0  0  0  0  0
  162.3160  208.4770  156.3880 C   0  0  1  0  0  3  0  0  0  0  0  0
  161.1070  211.8790  153.7690 O   0  0  0  0  0  0  0  0  0  0  0  0
  161.9920  209.7850  157.1280 C   0  0  0  0  0  2  0  0  0  0  0  0
  161.9600  207.3950  157.1940 O   0  0  0  0  0  1  0  0  0  0  0  0
  160.2050  208.2650  152.5960 N   0  0  0  0  0  0  0  0  0  0  0  0
  163.7250  211.4330  157.2610 O   0  0  0  0  0  1  0  0  0  0  0  0
  160.7750  207.1780  153.0370 C   0  0  0  0  0  0  0  0  0  0  0  0
  159.3280  210.5760  152.7230 C   0  0  2  0  0  3  0  0  0  0  0  0
  162.6010  211.0660  156.5210 C   0  0  1  0  0  3  0  0  0  0  0  0
  158.5420  212.8390  151.6350 O   0  0  0  0  0  0  0  0  0  0  0  0
  158.0750  211.1900  153.3520 C   0  0  0  0  0  2  0  0  0  0  0  0
  160.5360  205.8570  149.6380 C   0  0  0  0  0  2  0  0  0  0  0  0
  160.8770  204.4010  149.3300 C   0  0  0  0  0  2  0  0  0  0  0  0
  161.6130  203.6830  151.6430 C   0  0  0  0  0  2  0  0  0  0  0  0
  161.1650  206.1150  152.0840 C   0  0  0  0  0  0  0  0  0  0  0  0
  160.5990  203.4810  150.5190 C   0  0  2  0  0  3  0  0  0  0  0  0
  161.2320  204.8440  152.5070 C   0  0  0  0  0  3  0  0  0  0  0  0
  161.4750  206.5040  150.6600 C   0  0  1  0  0  3  0  0  0  0  0  0
  162.8760  206.2760  150.3340 N   0  0  0  0  0  1  0  0  0  0  0  0
  160.9090  201.9250  148.7040 C   0  0  0  0  0  1  0  0  0  0  0  0
  160.5270  202.0770  150.1060 N   0  0  0  0  0  2  0  0  0  0  0  0
  159.8220  206.6650  155.2910 C   0  0  0  0  0  2  0  0  0  0  0  0
  159.3180  207.8400  156.1060 C   0  0  0  0  0  1  0  0  0  0  0  0
  1  3  1  0  0  0  0
  1 31  1  1  0  0  0
  2  3  1  0  0  0  0
  3 10  1  0  0  0  0
  4  2  1  0  0  0  0
  4  9  1  0  0  0  0
  5 20  1  0  0  0  0
  6  2  1  0  0  0  0
  7  8  1  0  0  0  0
  8 17  1  0  0  0  0
  8 11  1  0  0  0  0
  9 18  1  0  0  0  0
 10 12  1  0  0  0  0
 10 13  1  0  0  0  0
 11  4  1  0  0  0  0
 14 16  2  0  0  0  0
 14  6  1  0  0  0  0
 16  1  1  0  0  0  0
 17 20  1  0  0  0  0
 17  6  1  0  0  0  0
 18 12  1  0  0  0  0
 18 15  1  0  0  0  0
 19  7  1  0  0  0  0
 19  5  1  0  0  0  0
 21 27  1  0  0  0  0
 22 21  1  0  0  0  0
 22 25  1  0  0  0  0
 23 26  1  0  0  0  0
 24 26  2  0  0  0  0
 24 16  1  0  0  0  0
 25 23  1  0  0  0  0
 27 24  1  0  0  0  0
 28 27  1  0  0  0  0
 29 30  1  0  0  0  0
 30 25  1  0  0  0  0
 31 32  1  0  0  0  0
M  END
>  <MODEL>
2

>  <REMARK>
 VINA RESULT:      -3.4      1.816      4.863
  Name = 
  3 active torsions:
  status: ('A' for Active; 'I' for Inactive)
    1  A    between atoms: C_1  and  C_4
    2  A    between atoms: C_16  and  C_27
    3  A    between atoms: C_19  and  N_26
                            x       y       z     vdW  Elec       q    Type
                         _______ _______ _______ _____ _____    ______ ____

>  <TORSDO>
F 3

$$$$
=
 OpenBabel11062408153D

 32 36  0  0  1  0  0  0  0  0999 V2000
  160.7970  209.8300  153.3120 C   0  0  2  0  0  3  0  0  0  0  0  0
  161.7080  209.5010  150.8980 C   0  0  1  0  0  3  0  0  0  0  0  0
  161.0620  208.8690  152.1430 C   0  0  1  0  0  3  0  0  0  0  0  0
  160.9860  209.0050  149.6440 C   0  0  2  0  0  3  0  0  0  0  0  0
  163.6100  212.2770  147.7920 C   0  0  0  0  0  2  0  0  0  0  0  0
  161.7250  211.0420  150.9420 C   0  0  2  0  0  3  0  0  0  0  0  0
  161.6770  211.4000  147.0410 C   0  0  0  0  0  2  0  0  0  0  0  0
  161.2570  210.8570  148.4190 C   0  0  1  0  0  3  0  0  0  0  0  0
  160.8270  207.4780  149.5820 C   0  0  0  0  0  2  0  0  0  0  0  0
  161.4760  207.4090  152.4410 C   0  0  1  0  0  3  0  0  0  0  0  0
  161.6290  209.5020  148.5040 O   0  0  0  0  0  0  0  0  0  0  0  0
  162.5360  206.8790  151.4620 C   0  0  0  0  0  2  0  0  0  0  0  0
  161.9480  207.2690  153.7470 O   0  0  0  0  0  1  0  0  0  0  0  0
  160.5530  211.5780  151.6330 N   0  0  0  0  0  0  0  0  0  0  0  0
  161.8150  205.3150  149.7980 O   0  0  0  0  0  1  0  0  0  0  0  0
  160.1210  211.0650  152.7510 C   0  0  0  0  0  0  0  0  0  0  0  0
  161.9010  211.6860  149.5610 C   0  0  2  0  0  3  0  0  0  0  0  0
  162.0620  206.6710  150.0090 C   0  0  1  0  0  3  0  0  0  0  0  0
  162.4030  212.6020  147.1460 O   0  0  0  0  0  0  0  0  0  0  0  0
  163.3750  211.9900  149.2820 C   0  0  0  0  0  2  0  0  0  0  0  0
  158.7520  213.8840  154.6310 C   0  0  0  0  0  2  0  0  0  0  0  0
  157.4700  213.7420  155.4480 C   0  0  0  0  0  2  0  0  0  0  0  0
  156.9040  211.3460  154.8570 C   0  0  0  0  0  2  0  0  0  0  0  0
  158.9450  211.6590  153.4250 C   0  0  0  0  0  0  0  0  0  0  0  0
  157.2790  212.3190  155.9730 C   0  0  2  0  0  3  0  0  0  0  0  0
  158.1230  210.8680  154.1320 C   0  0  0  0  0  3  0  0  0  0  0  0
  158.7110  213.1420  153.2910 C   0  0  1  0  0  3  0  0  0  0  0  0
  157.4950  213.4300  152.5450 N   0  0  0  0  0  1  0  0  0  0  0  0
  155.3050  213.3310  156.9180 C   0  0  0  0  0  1  0  0  0  0  0  0
  156.3070  212.2790  157.0690 N   0  0  0  0  0  2  0  0  0  0  0  0
  162.0960  210.2070  154.0220 C   0  0  0  0  0  2  0  0  0  0  0  0
  161.8100  210.7440  155.4110 C   0  0  0  0  0  1  0  0  0  0  0  0
  1 31  1  6  0  0  0
  2  6  1  0  0  0  0
  2  3  1  0  0  0  0
  3 10  1  0  0  0  0
  3  1  1  0  0  0  0
  4  2  1  0  0  0  0
  5 20  1  0  0  0  0
  6 14  1  0  0  0  0
  7 19  1  0  0  0  0
  7  8  1  0  0  0  0
  8 11  1  0  0  0  0
  8 17  1  0  0  0  0
  9  4  1  0  0  0  0
  9 18  1  0  0  0  0
 10 13  1  0  0  0  0
 11  4  1  0  0  0  0
 12 10  1  0  0  0  0
 14 16  2  0  0  0  0
 15 18  1  0  0  0  0
 16  1  1  0  0  0  0
 16 24  1  0  0  0  0
 17  6  1  0  0  0  0
 18 12  1  0  0  0  0
 19  5  1  0  0  0  0
 20 17  1  0  0  0  0
 21 22  1  0  0  0  0
 22 25  1  0  0  0  0
 23 25  1  0  0  0  0
 24 26  2  0  0  0  0
 25 30  1  0  0  0  0
 26 23  1  0  0  0  0
 27 24  1  0  0  0  0
 27 21  1  0  0  0  0
 28 27  1  0  0  0  0
 29 30  1  0  0  0  0
 31 32  1  0  0  0  0
M  END
>  <MODEL>
3

>  <REMARK>
 VINA RESULT:      -1.5      3.043      7.751
  Name = 
  3 active torsions:
  status: ('A' for Active; 'I' for Inactive)
    1  A    between atoms: C_1  and  C_4
    2  A    between atoms: C_16  and  C_27
    3  A    between atoms: C_19  and  N_26
                            x       y       z     vdW  Elec       q    Type
                         _______ _______ _______ _____ _____    ______ ____

>  <TORSDO>
F 3

$$$$
=
 OpenBabel11062408153D

 32 36  0  0  1  0  0  0  0  0999 V2000
  161.2700  211.5160  148.9200 C   0  0  2  0  0  3  0  0  0  0  0  0
  159.3750  212.9120  150.0290 C   0  0  1  0  0  3  0  0  0  0  0  0
  159.9370  212.2620  148.7530 C   0  0  1  0  0  3  0  0  0  0  0  0
  157.8800  212.6100  150.1360 C   0  0  2  0  0  3  0  0  0  0  0  0
  158.6030  214.4520  154.2720 C   0  0  0  0  0  2  0  0  0  0  0  0
  160.1130  212.4670  151.3090 C   0  0  2  0  0  3  0  0  0  0  0  0
  156.9870  213.0340  153.6020 C   0  0  0  0  0  2  0  0  0  0  0  0
  157.7700  212.5460  152.3690 C   0  0  1  0  0  3  0  0  0  0  0  0
  157.0900  212.9210  148.8550 C   0  0  0  0  0  2  0  0  0  0  0  0
  159.6550  213.0240  147.4370 C   0  0  1  0  0  3  0  0  0  0  0  0
  157.3440  213.2770  151.2450 O   0  0  0  0  0  0  0  0  0  0  0  0
  158.9190  214.3540  147.6650 C   0  0  0  0  0  2  0  0  0  0  0  0
  160.8310  213.2680  146.7260 O   0  0  0  0  0  1  0  0  0  0  0  0
  160.5760  211.0830  151.2150 N   0  0  0  0  0  0  0  0  0  0  0  0
  156.5970  214.4420  147.0820 O   0  0  0  0  0  1  0  0  0  0  0  0
  161.1490  210.6230  150.1380 C   0  0  0  0  0  0  0  0  0  0  0  0
  159.2980  212.6980  152.5880 C   0  0  2  0  0  3  0  0  0  0  0  0
  157.4610  214.2380  148.1570 C   0  0  1  0  0  3  0  0  0  0  0  0
  157.8390  213.3440  154.6800 O   0  0  0  0  0  0  0  0  0  0  0  0
  159.6520  214.0420  153.2280 C   0  0  0  0  0  2  0  0  0  0  0  0
  160.8050  207.2980  148.6620 C   0  0  0  0  0  2  0  0  0  0  0  0
  161.3670  206.0610  149.3580 C   0  0  0  0  0  2  0  0  0  0  0  0
  162.4510  207.2000  151.3420 C   0  0  0  0  0  2  0  0  0  0  0  0
  161.6230  209.2220  150.1010 C   0  0  0  0  0  0  0  0  0  0  0  0
  161.3800  206.2150  150.8790 C   0  0  2  0  0  3  0  0  0  0  0  0
  161.9590  208.6100  151.2470 C   0  0  0  0  0  3  0  0  0  0  0  0
  161.7130  208.5270  148.7660 C   0  0  1  0  0  3  0  0  0  0  0  0
  163.0910  208.2190  148.4120 N   0  0  0  0  0  1  0  0  0  0  0  0
  160.6120  203.9310  150.9650 C   0  0  0  0  0  1  0  0  0  0  0  0
  161.5180  204.9180  151.5470 N   0  0  0  0  0  2  0  0  0  0  0  0
  162.4320  212.4940  149.0860 C   0  0  0  0  0  2  0  0  0  0  0  0
  163.4600  212.2940  147.9900 C   0  0  0  0  0  1  0  0  0  0  0  0
  1 31  1  1  0  0  0
  1 16  1  0  0  0  0
  2  4  1  0  0  0  0
  2  6  1  0  0  0  0
  3  1  1  0  0  0  0
  3  2  1  0  0  0  0
  4 11  1  0  0  0  0
  5 19  1  0  0  0  0
  6 17  1  0  0  0  0
  7 19  1  0  0  0  0
  8 17  1  0  0  0  0
  8  7  1  0  0  0  0
  9  4  1  0  0  0  0
 10 12  1  0  0  0  0
 10  3  1  0  0  0  0
 11  8  1  0  0  0  0
 12 18  1  0  0  0  0
 13 10  1  0  0  0  0
 14  6  1  0  0  0  0
 15 18  1  0  0  0  0
 16 14  2  0  0  0  0
 17 20  1  0  0  0  0
 18  9  1  0  0  0  0
 20  5  1  0  0  0  0
 21 27  1  0  0  0  0
 21 22  1  0  0  0  0
 22 25  1  0  0  0  0
 24 16  1  0  0  0  0
 24 26  2  0  0  0  0
 25 23  1  0  0  0  0
 25 30  1  0  0  0  0
 26 23  1  0  0  0  0
 27 24  1  0  0  0  0
 28 27  1  0  0  0  0
 29 30  1  0  0  0  0
 32 31  1  0  0  0  0
M  END
>  <MODEL>
4

>  <REMARK>
 VINA RESULT:      -1.4      2.699      3.653
  Name = 
  3 active torsions:
  status: ('A' for Active; 'I' for Inactive)
    1  A    between atoms: C_1  and  C_4
    2  A    between atoms: C_16  and  C_27
    3  A    between atoms: C_19  and  N_26
                            x       y       z     vdW  Elec       q    Type
                         _______ _______ _______ _____ _____    ______ ____

>  <TORSDO>
F 3

$$$$
=
 OpenBabel11062408153D

 32 36  0  0  1  0  0  0  0  0999 V2000
  161.5840  209.8970  151.1580 C   0  0  2  0  0  3  0  0  0  0  0  0
  160.0810  211.7630  152.1710 C   0  0  1  0  0  3  0  0  0  0  0  0
  160.6360  211.0790  150.9090 C   0  0  1  0  0  3  0  0  0  0  0  0
  158.5810  212.0040  151.9990 C   0  0  2  0  0  3  0  0  0  0  0  0
  159.0410  213.0670  156.4350 C   0  0  0  0  0  2  0  0  0  0  0  0
  160.3600  210.9660  153.4620 C   0  0  2  0  0  3  0  0  0  0  0  0
  157.2120  212.3860  155.3110 C   0  0  0  0  0  2  0  0  0  0  0  0
  158.0160  211.7720  154.1510 C   0  0  1  0  0  3  0  0  0  0  0  0
  158.2100  212.6950  150.6780 C   0  0  0  0  0  2  0  0  0  0  0  0
  160.8900  212.0130  149.7030 C   0  0  1  0  0  3  0  0  0  0  0  0
  158.0890  212.7100  153.1040 O   0  0  0  0  0  0  0  0  0  0  0  0
  160.6090  213.4900  150.0230 C   0  0  0  0  0  2  0  0  0  0  0  0
  162.1970  211.8890  149.2280 O   0  0  0  0  0  1  0  0  0  0  0  0
  160.3450  209.5230  153.2220 N   0  0  0  0  0  0  0  0  0  0  0  0
  158.6130  214.4530  149.1130 O   0  0  0  0  0  1  0  0  0  0  0  0
  160.9350  208.9930  152.1870 C   0  0  0  0  0  0  0  0  0  0  0  0
  159.4320  211.3480  154.6220 C   0  0  2  0  0  3  0  0  0  0  0  0
  159.1290  213.8540  150.2620 C   0  0  1  0  0  3  0  0  0  0  0  0
  157.8860  212.2690  156.5420 O   0  0  0  0  0  0  0  0  0  0  0  0
  160.0780  212.4120  155.5130 C   0  0  0  0  0  2  0  0  0  0  0  0
  162.7290  205.8260  152.5100 C   0  0  0  0  0  2  0  0  0  0  0  0
  162.2900  204.5860  151.7360 C   0  0  0  0  0  2  0  0  0  0  0  0
  160.2330  205.5440  150.6140 C   0  0  0  0  0  2  0  0  0  0  0  0
  160.9130  207.5250  152.0020 C   0  0  0  0  0  0  0  0  0  0  0  0
  161.6230  204.9440  150.4080 C   0  0  2  0  0  3  0  0  0  0  0  0
  160.3220  207.0070  150.9150 C   0  0  0  0  0  3  0  0  0  0  0  0
  161.5620  206.6570  153.0510 C   0  0  1  0  0  3  0  0  0  0  0  0
  160.5840  205.8360  153.7480 N   0  0  0  0  0  1  0  0  0  0  0  0
  161.2920  204.2150  148.1340 C   0  0  0  0  0  1  0  0  0  0  0  0
  161.5810  203.7930  149.5020 N   0  0  0  0  0  2  0  0  0  0  0  0
  162.9480  210.3760  151.6520 C   0  0  0  0  0  2  0  0  0  0  0  0
  163.1610  209.9830  153.1010 C   0  0  0  0  0  1  0  0  0  0  0  0
  1 31  1  1  0  0  0
  1 16  1  0  0  0  0
  2  6  1  0  0  0  0
  3  1  1  0  0  0  0
  3  2  1  0  0  0  0
  4  2  1  0  0  0  0
  4 11  1  0  0  0  0
  5 19  1  0  0  0  0
  6 17  1  0  0  0  0
  7 19  1  0  0  0  0
  8 17  1  0  0  0  0
  8  7  1  0  0  0  0
  9  4  1  0  0  0  0
 10 12  1  0  0  0  0
 10  3  1  0  0  0  0
 11  8  1  0  0  0  0
 12 18  1  0  0  0  0
 13 10  1  0  0  0  0
 14  6  1  0  0  0  0
 15 18  1  0  0  0  0
 16 14  2  0  0  0  0
 17 20  1  0  0  0  0
 18  9  1  0  0  0  0
 20  5  1  0  0  0  0
 21 27  1  0  0  0  0
 22 21  1  0  0  0  0
 23 26  1  0  0  0  0
 24 16  1  0  0  0  0
 24 27  1  0  0  0  0
 25 23  1  0  0  0  0
 25 22  1  0  0  0  0
 26 24  2  0  0  0  0
 27 28  1  0  0  0  0
 29 30  1  0  0  0  0
 30 25  1  0  0  0  0
 31 32  1  0  0  0  0
M  END
>  <MODEL>
5

>  <REMARK>
 VINA RESULT:      -1.4      2.101      3.064
  Name = 
  3 active torsions:
  status: ('A' for Active; 'I' for Inactive)
    1  A    between atoms: C_1  and  C_4
    2  A    between atoms: C_16  and  C_27
    3  A    between atoms: C_19  and  N_26
                            x       y       z     vdW  Elec       q    Type
                         _______ _______ _______ _____ _____    ______ ____

>  <TORSDO>
F 3

$$$$
=
 OpenBabel11062408153D

 32 36  0  0  1  0  0  0  0  0999 V2000
  160.9310  209.8140  153.5350 C   0  0  2  0  0  3  0  0  0  0  0  0
  161.7240  209.4110  151.0900 C   0  0  1  0  0  3  0  0  0  0  0  0
  161.1050  208.8260  152.3710 C   0  0  1  0  0  3  0  0  0  0  0  0
  160.9280  208.9300  149.8760 C   0  0  2  0  0  3  0  0  0  0  0  0
  163.6090  212.0580  147.8630 C   0  0  0  0  0  2  0  0  0  0  0  0
  161.8090  210.9510  151.1090 C   0  0  2  0  0  3  0  0  0  0  0  0
  161.6090  211.2550  147.2080 C   0  0  0  0  0  2  0  0  0  0  0  0
  161.2260  210.7500  148.6110 C   0  0  1  0  0  3  0  0  0  0  0  0
  160.7020  207.4100  149.8440 C   0  0  0  0  0  2  0  0  0  0  0  0
  161.4680  207.3540  152.6740 C   0  0  1  0  0  3  0  0  0  0  0  0
  161.5430  209.3820  148.7020 O   0  0  0  0  0  0  0  0  0  0  0  0
  162.4620  206.7640  151.6610 C   0  0  0  0  0  2  0  0  0  0  0  0
  161.9890  207.2120  153.9610 O   0  0  0  0  0  1  0  0  0  0  0  0
  160.6910  211.5470  151.8400 N   0  0  0  0  0  0  0  0  0  0  0  0
  161.6040  205.2090  150.0540 O   0  0  0  0  0  1  0  0  0  0  0  0
  160.2850  211.0690  152.9830 C   0  0  0  0  0  0  0  0  0  0  0  0
  161.9540  211.5670  149.7110 C   0  0  2  0  0  3  0  0  0  0  0  0
  161.9180  206.5560  150.2320 C   0  0  1  0  0  3  0  0  0  0  0  0
  162.3910  212.4260  147.2630 O   0  0  0  0  0  0  0  0  0  0  0  0
  163.4260  211.8030  149.3660 C   0  0  0  0  0  2  0  0  0  0  0  0
  157.1420  210.6610  154.8010 C   0  0  0  0  0  2  0  0  0  0  0  0
  156.1750  211.8290  154.9800 C   0  0  0  0  0  2  0  0  0  0  0  0
  157.5470  213.6360  153.8580 C   0  0  0  0  0  2  0  0  0  0  0  0
  159.1660  211.7220  153.6960 C   0  0  0  0  0  0  0  0  0  0  0  0
  156.2540  212.8230  153.8220 C   0  0  2  0  0  3  0  0  0  0  0  0
  158.6730  212.8790  153.2280 C   0  0  0  0  0  3  0  0  0  0  0  0
  158.6150  211.0590  154.9330 C   0  0  1  0  0  3  0  0  0  0  0  0
  158.8600  211.8580  156.1250 N   0  0  0  0  0  1  0  0  0  0  0  0
  154.9520  214.3440  152.4780 C   0  0  0  0  0  1  0  0  0  0  0  0
  155.0740  213.6910  153.7790 N   0  0  0  0  0  2  0  0  0  0  0  0
  162.2740  210.1440  154.1830 C   0  0  0  0  0  2  0  0  0  0  0  0
  162.1110  210.3490  155.6770 C   0  0  0  0  0  1  0  0  0  0  0  0
  1 31  1  6  0  0  0
  2  6  1  0  0  0  0
  2  3  1  0  0  0  0
  3 10  1  0  0  0  0
  3  1  1  0  0  0  0
  4  2  1  0  0  0  0
  5 20  1  0  0  0  0
  6 14  1  0  0  0  0
  7 19  1  0  0  0  0
  7  8  1  0  0  0  0
  8 11  1  0  0  0  0
  8 17  1  0  0  0  0
  9  4  1  0  0  0  0
  9 18  1  0  0  0  0
 10 13  1  0  0  0  0
 11  4  1  0  0  0  0
 12 10  1  0  0  0  0
 14 16  2  0  0  0  0
 15 18  1  0  0  0  0
 16  1  1  0  0  0  0
 16 24  1  0  0  0  0
 17  6  1  0  0  0  0
 18 12  1  0  0  0  0
 19  5  1  0  0  0  0
 20 17  1  0  0  0  0
 21 27  1  0  0  0  0
 21 22  1  0  0  0  0
 24 27  1  0  0  0  0
 25 23  1  0  0  0  0
 25 22  1  0  0  0  0
 26 24  2  0  0  0  0
 26 23  1  0  0  0  0
 27 28  1  0  0  0  0
 29 30  1  0  0  0  0
 30 25  1  0  0  0  0
 31 32  1  0  0  0  0
M  END
>  <MODEL>
6

>  <REMARK>
 VINA RESULT:      -1.0      2.953      7.650
  Name = 
  3 active torsions:
  status: ('A' for Active; 'I' for Inactive)
    1  A    between atoms: C_1  and  C_4
    2  A    between atoms: C_16  and  C_27
    3  A    between atoms: C_19  and  N_26
                            x       y       z     vdW  Elec       q    Type
                         _______ _______ _______ _____ _____    ______ ____

>  <TORSDO>
F 3

$$$$
