=
 OpenBabel11062408593D

 55 61  0  0  1  0  0  0  0  0999 V2000
  160.5390  212.7330  151.3090 C   0  0  1  0  0  3  0  0  0  0  0  0
  158.4210  213.4970  150.3900 O   0  0  0  0  0  0  0  0  0  0  0  0
  160.2010  213.1440  148.8450 C   0  0  1  0  0  3  0  0  0  0  0  0
  157.9100  213.7130  149.1030 C   0  0  0  0  0  2  0  0  0  0  0  0
  159.8210  213.5720  150.2480 C   0  0  2  0  0  3  0  0  0  0  0  0
  158.8980  213.1670  148.0960 C   0  0  0  0  0  2  0  0  0  0  0  0
  161.1780  214.1460  148.2560 C   0  0  0  0  0  2  0  0  0  0  0  0
  162.4860  213.4580  147.8950 C   0  0  0  0  0  2  0  0  0  0  0  0
  162.6690  213.4250  146.3880 C   0  0  0  0  0  2  0  0  0  0  0  0
  161.5920  214.2500  145.7030 C   0  0  0  0  0  1  0  0  0  0  0  0
  160.0040  213.0820  152.6880 C   0  0  0  0  0  2  0  0  0  0  0  0
  155.7650  213.1410  154.3480 C   0  0  0  0  0  2  0  0  0  0  0  0
  155.3070  212.9670  155.7860 C   0  0  0  0  0  2  0  0  0  0  0  0
  157.6500  212.4510  155.7430 C   0  0  2  0  0  3  0  0  0  0  0  0
  156.3460  212.0850  156.4420 C   0  0  2  0  0  3  0  0  0  0  0  0
  156.0080  210.7480  156.2190 O   0  0  0  0  0  1  0  0  0  0  0  0
  157.2770  213.0220  154.3700 C   0  0  1  0  0  3  0  0  0  0  0  0
  159.7980  211.6240  154.7150 C   0  0  2  0  0  3  0  0  0  0  0  0
  158.6630  211.3010  155.6940 C   0  0  0  0  0  2  0  0  0  0  0  0
  157.7470  212.1280  153.2240 C   0  0  0  0  0  2  0  0  0  0  0  0
  159.2640  211.8970  153.2880 C   0  0  1  0  0  3  0  0  0  0  0  0
  161.8990  210.7180  155.8310 C   0  0  0  0  0  1  0  0  0  0  0  0
  160.8600  210.5090  154.7210 C   0  0  1  0  0  3  0  0  0  0  0  0
  160.2000  209.1100  154.6990 C   0  0  2  0  0  3  0  0  0  0  0  0
  160.2950  208.3900  156.0330 C   0  0  0  0  0  2  0  0  0  0  0  0
  161.1890  207.9690  154.8770 C   0  0  1  0  0  3  0  0  0  0  0  0
  161.3520  206.0670  153.2320 C   0  0  0  0  0  0  0  0  0  0  0  0
  160.7840  204.8930  152.6650 N   0  0  0  0  0  1  0  0  0  0  0  0
  160.6500  206.7690  154.2580 N   0  0  0  0  0  2  0  0  0  0  0  0
  162.4690  206.4820  152.8240 O   0  0  0  0  0  0  0  0  0  0  0  0
  160.4070  211.2320  151.0510 C   0  0  0  0  0  2  0  0  0  0  0  0
  161.7600  210.6310  150.7130 C   0  0  1  0  0  3  0  0  0  0  0  0
  162.1800  209.6270  151.7760 C   0  0  0  0  0  2  0  0  0  0  0  0
  163.2040  210.1570  152.5610 O   0  0  0  0  0  1  0  0  0  0  0  0
  161.6840  209.9520  149.3620 C   0  0  0  0  0  2  0  0  0  0  0  0
  161.8990  208.4630  149.5400 C   0  0  0  0  0  2  0  0  0  0  0  0
  162.4830  207.8650  148.2690 C   0  0  0  0  0  2  0  0  0  0  0  0
  161.7920  205.3520  145.9600 C   0  0  1  0  0  0  0  0  0  0  0  0
  160.5430  207.0970  146.9290 C   0  0  0  0  0  2  0  0  0  0  0  0
  161.1360  205.8950  149.0090 C   0  0  0  0  0  1  0  0  0  0  0  0
  161.6980  206.6420  147.8090 C   0  0  2  0  0  0  0  0  0  0  0  0
  159.5010  205.5890  145.1730 F   0  0  0  0  0  0  0  0  0  0  0  0
  160.6110  206.1860  145.7430 C   0  0  2  0  0  0  0  0  0  0  0  0
  161.7510  206.3130  144.9240 O   0  0  0  0  0  0  0  0  0  0  0  0
  162.5410  205.7830  147.0670 O   0  0  0  0  0  0  0  0  0  0  0  0
  163.3090  203.4790  145.5270 O   0  0  0  0  0  1  0  0  0  0  0  0
  161.9780  203.9040  145.4660 C   0  0  1  0  0  3  0  0  0  0  0  0
  161.0550  202.8750  146.1430 C   0  0  1  0  0  3  0  0  0  0  0  0
  159.9770  202.3700  145.1970 C   0  0  0  0  0  1  0  0  0  0  0  0
  161.6630  199.3240  146.6520 O   0  0  0  0  0  1  0  0  0  0  0  0
  160.9060  200.4830  146.8210 C   0  0  1  0  0  3  0  0  0  0  0  0
  161.3370  201.1790  148.0970 C   0  0  1  0  0  3  0  0  0  0  0  0
  161.8220  201.6890  146.7340 C   0  0  2  0  0  3  0  0  0  0  0  0
  160.1550  201.9380  148.6870 C   0  0  0  0  0  2  0  0  0  0  0  0
  160.5510  202.5120  150.0320 C   0  0  0  0  0  1  0  0  0  0  0  0
  1 31  1  6  0  0  0
  1 11  1  0  0  0  0
  3  7  1  6  0  0  0
  3  5  1  0  0  0  0
  4  2  1  0  0  0  0
  5  2  1  0  0  0  0
  5  1  1  1  0  0  0
  6  3  1  0  0  0  0
  6  4  1  0  0  0  0
  8  7  1  0  0  0  0
  9  8  1  0  0  0  0
 10  9  1  0  0  0  0
 12 17  1  0  0  0  0
 12 13  1  0  0  0  0
 13 15  1  0  0  0  0
 14 19  1  6  0  0  0
 14 15  1  0  0  0  0
 15 16  1  6  0  0  0
 17 20  1  6  0  0  0
 17 14  1  0  0  0  0
 18 23  1  6  0  0  0
 18 19  1  0  0  0  0
 20 21  1  0  0  0  0
 21 11  1  1  0  0  0
 21 18  1  0  0  0  0
 23 22  1  1  0  0  0
 24 23  1  1  0  0  0
 24 26  1  0  0  0  0
 24 25  1  0  0  0  0
 26 29  1  6  0  0  0
 26 25  1  0  0  0  0
 27 29  1  0  0  0  0
 28 27  1  0  0  0  0
 30 27  2  0  0  0  0
 32 35  1  6  0  0  0
 32 31  1  0  0  0  0
 32 33  1  0  0  0  0
 33 34  1  0  0  0  0
 35 36  1  0  0  0  0
 37 36  1  0  0  0  0
 38 47  1  6  0  0  0
 38 45  1  0  0  0  0
 39 41  1  0  0  0  0
 41 37  1  0  0  0  0
 41 40  1  1  0  0  0
 43 42  1  6  0  0  0
 43 38  1  0  0  0  0
 43 39  1  0  0  0  0
 44 43  1  0  0  0  0
 44 38  1  0  0  0  0
 45 41  1  0  0  0  0
 47 46  1  1  0  0  0
 47 48  1  0  0  0  0
 48 49  1  6  0  0  0
 51 50  1  1  0  0  0
 51 52  1  0  0  0  0
 52 54  1  6  0  0  0
 53 48  1  6  0  0  0
 53 51  1  0  0  0  0
 53 52  1  0  0  0  0
 54 55  1  0  0  0  0
M  END
>  <MODEL>
1

>  <REMARK>
 VINA RESULT:      -5.1      0.000      0.000
  Name = 
  20 active torsions:
  status: ('A' for Active; 'I' for Inactive)
    1  A    between atoms: C_1  and  C_38
    2  A    between atoms: C_2  and  C_19
    3  A    between atoms: C_2  and  C_28
    4  A    between atoms: C_2  and  C_44
    5  A    between atoms: C_4  and  C_40
    6  A    between atoms: C_5  and  C_40
    7  A    between atoms: C_5  and  C_46
    8  A    between atoms: C_6  and  C_14
    9  A    between atoms: C_6  and  C_46
   10  A    between atoms: C_8  and  C_22
   11  A    between atoms: C_13  and  C_52
   12  A    between atoms: C_19  and  C_40
   13  A    between atoms: C_21  and  C_38
   14  A    between atoms: C_21  and  C_42
   15  A    between atoms: C_27  and  C_31
   16  A    between atoms: C_28  and  C_49
   17  A    between atoms: C_31  and  C_51
   18  A    between atoms: N_32  and  C_48
   19  A    between atoms: C_33  and  C_52
   20  A    between atoms: C_35  and  C_51
                            x       y       z     vdW  Elec       q    Type
                         _______ _______ _______ _____ _____    ______ ____

>  <TORSDO>
F 20

$$$$
=
 OpenBabel11062408593D

 55 61  0  0  1  0  0  0  0  0999 V2000
  160.8960  213.1220  149.8050 C   0  0  1  0  0  3  0  0  0  0  0  0
  159.1550  214.2450  148.5300 O   0  0  0  0  0  0  0  0  0  0  0  0
  160.4270  212.5840  147.3870 C   0  0  1  0  0  3  0  0  0  0  0  0
  158.6070  214.1040  147.2480 C   0  0  0  0  0  2  0  0  0  0  0  0
  160.4360  213.6660  148.4490 C   0  0  2  0  0  3  0  0  0  0  0  0
  159.1540  212.8370  146.6290 C   0  0  0  0  0  2  0  0  0  0  0  0
  161.6340  212.7500  146.4820 C   0  0  0  0  0  2  0  0  0  0  0  0
  161.1950  213.1900  145.0930 C   0  0  0  0  0  2  0  0  0  0  0  0
  162.3260  213.9140  144.3840 C   0  0  0  0  0  2  0  0  0  0  0  0
  163.6580  213.2490  144.6910 C   0  0  0  0  0  1  0  0  0  0  0  0
  160.2450  213.9180  150.9240 C   0  0  0  0  0  2  0  0  0  0  0  0
  155.7470  213.9740  150.2160 C   0  0  0  0  0  2  0  0  0  0  0  0
  154.6460  214.4500  151.1480 C   0  0  0  0  0  2  0  0  0  0  0  0
  156.6750  214.4440  152.4280 C   0  0  2  0  0  3  0  0  0  0  0  0
  155.1720  214.2290  152.5490 C   0  0  2  0  0  3  0  0  0  0  0  0
  154.8760  212.9210  152.9400 O   0  0  0  0  0  1  0  0  0  0  0  0
  157.0500  214.1750  150.9660 C   0  0  1  0  0  3  0  0  0  0  0  0
  158.9810  213.6490  153.0690 C   0  0  2  0  0  3  0  0  0  0  0  0
  157.4940  213.6410  153.4470 C   0  0  0  0  0  2  0  0  0  0  0  0
  157.9370  212.9410  150.8130 C   0  0  0  0  0  2  0  0  0  0  0  0
  159.2150  213.0690  151.6540 C   0  0  1  0  0  3  0  0  0  0  0  0
  159.5000  213.4060  155.5500 C   0  0  0  0  0  1  0  0  0  0  0  0
  159.8170  212.9120  154.1320 C   0  0  1  0  0  3  0  0  0  0  0  0
  159.7390  211.3790  153.9400 C   0  0  2  0  0  3  0  0  0  0  0  0
  158.6350  210.7370  154.7630 C   0  0  0  0  0  2  0  0  0  0  0  0
  160.0860  210.5920  155.1940 C   0  0  1  0  0  3  0  0  0  0  0  0
  160.4560  208.1460  155.6720 C   0  0  0  0  0  0  0  0  0  0  0  0
  160.9450  206.8800  155.2460 N   0  0  0  0  0  1  0  0  0  0  0  0
  160.5780  209.2780  154.8110 N   0  0  0  0  0  2  0  0  0  0  0  0
  159.9200  208.2600  156.8050 O   0  0  0  0  0  0  0  0  0  0  0  0
  160.5930  211.6330  149.9670 C   0  0  0  0  0  2  0  0  0  0  0  0
  161.8830  210.8380  150.0780 C   0  0  1  0  0  3  0  0  0  0  0  0
  161.9160  210.0520  151.3790 C   0  0  0  0  0  2  0  0  0  0  0  0
  160.7950  209.2260  151.4720 O   0  0  0  0  0  1  0  0  0  0  0  0
  161.9930  209.8930  148.9000 C   0  0  0  0  0  2  0  0  0  0  0  0
  162.0130  208.4660  149.4060 C   0  0  0  0  0  2  0  0  0  0  0  0
  162.5380  207.5360  148.3230 C   0  0  0  0  0  2  0  0  0  0  0  0
  161.6370  204.3240  147.3240 C   0  0  1  0  0  0  0  0  0  0  0  0
  161.3830  206.4750  146.4020 C   0  0  0  0  0  2  0  0  0  0  0  0
  160.1420  206.8510  148.5100 C   0  0  0  0  0  1  0  0  0  0  0  0
  161.4980  206.4960  147.9200 C   0  0  2  0  0  0  0  0  0  0  0  0
  160.5860  204.4280  145.1320 F   0  0  0  0  0  0  0  0  0  0  0  0
  161.4280  205.0190  146.0560 C   0  0  2  0  0  0  0  0  0  0  0  0
  162.6390  204.3520  146.3280 O   0  0  0  0  0  0  0  0  0  0  0  0
  161.8970  205.2190  148.3760 O   0  0  0  0  0  0  0  0  0  0  0  0
  162.0730  201.9150  147.3730 O   0  0  0  0  0  1  0  0  0  0  0  0
  161.1350  202.9080  147.6720 C   0  0  1  0  0  3  0  0  0  0  0  0
  160.6250  202.7500  149.1150 C   0  0  1  0  0  3  0  0  0  0  0  0
  159.6700  201.5750  149.2540 C   0  0  0  0  0  1  0  0  0  0  0  0
  162.1360  201.4140  152.1440 O   0  0  0  0  0  1  0  0  0  0  0  0
  161.1940  202.1950  151.4760 C   0  0  1  0  0  3  0  0  0  0  0  0
  161.7370  203.6000  151.3100 C   0  0  1  0  0  3  0  0  0  0  0  0
  161.7610  202.6160  150.1340 C   0  0  2  0  0  3  0  0  0  0  0  0
  160.5830  204.5940  151.2970 C   0  0  0  0  0  2  0  0  0  0  0  0
  161.0580  205.9190  151.8580 C   0  0  0  0  0  1  0  0  0  0  0  0
  1 31  1  1  0  0  0
  1 11  1  0  0  0  0
  3  7  1  6  0  0  0
  3  5  1  0  0  0  0
  4  2  1  0  0  0  0
  5  2  1  0  0  0  0
  5  1  1  1  0  0  0
  6  4  1  0  0  0  0
  6  3  1  0  0  0  0
  8  7  1  0  0  0  0
  9 10  1  0  0  0  0
  9  8  1  0  0  0  0
 12 13  1  0  0  0  0
 13 15  1  0  0  0  0
 14 15  1  0  0  0  0
 14 19  1  1  0  0  0
 15 16  1  6  0  0  0
 17 12  1  6  0  0  0
 17 14  1  0  0  0  0
 18 19  1  0  0  0  0
 18 23  1  1  0  0  0
 20 17  1  0  0  0  0
 20 21  1  0  0  0  0
 21 11  1  6  0  0  0
 21 18  1  0  0  0  0
 23 22  1  1  0  0  0
 24 23  1  1  0  0  0
 24 25  1  0  0  0  0
 24 26  1  0  0  0  0
 25 26  1  0  0  0  0
 26 29  1  6  0  0  0
 27 30  2  0  0  0  0
 28 27  1  0  0  0  0
 29 27  1  0  0  0  0
 31 32  1  0  0  0  0
 32 35  1  6  0  0  0
 32 33  1  0  0  0  0
 33 34  1  0  0  0  0
 35 36  1  0  0  0  0
 37 36  1  0  0  0  0
 38 47  1  1  0  0  0
 38 45  1  0  0  0  0
 39 41  1  0  0  0  0
 41 37  1  0  0  0  0
 41 45  1  0  0  0  0
 41 40  1  1  0  0  0
 43 42  1  6  0  0  0
 43 44  1  0  0  0  0
 43 39  1  0  0  0  0
 43 38  1  0  0  0  0
 44 38  1  0  0  0  0
 47 46  1  1  0  0  0
 47 48  1  0  0  0  0
 48 49  1  6  0  0  0
 51 50  1  1  0  0  0
 52 54  1  6  0  0  0
 52 51  1  0  0  0  0
 53 48  1  6  0  0  0
 53 52  1  0  0  0  0
 53 51  1  0  0  0  0
 54 55  1  0  0  0  0
M  END
>  <MODEL>
2

>  <REMARK>
 VINA RESULT:      -4.2      1.900      2.936
  Name = 
  20 active torsions:
  status: ('A' for Active; 'I' for Inactive)
    1  A    between atoms: C_1  and  C_38
    2  A    between atoms: C_2  and  C_19
    3  A    between atoms: C_2  and  C_28
    4  A    between atoms: C_2  and  C_44
    5  A    between atoms: C_4  and  C_40
    6  A    between atoms: C_5  and  C_40
    7  A    between atoms: C_5  and  C_46
    8  A    between atoms: C_6  and  C_14
    9  A    between atoms: C_6  and  C_46
   10  A    between atoms: C_8  and  C_22
   11  A    between atoms: C_13  and  C_52
   12  A    between atoms: C_19  and  C_40
   13  A    between atoms: C_21  and  C_38
   14  A    between atoms: C_21  and  C_42
   15  A    between atoms: C_27  and  C_31
   16  A    between atoms: C_28  and  C_49
   17  A    between atoms: C_31  and  C_51
   18  A    between atoms: N_32  and  C_48
   19  A    between atoms: C_33  and  C_52
   20  A    between atoms: C_35  and  C_51
                            x       y       z     vdW  Elec       q    Type
                         _______ _______ _______ _____ _____    ______ ____

>  <TORSDO>
F 20

$$$$
=
 OpenBabel11062408593D

 55 61  0  0  1  0  0  0  0  0999 V2000
  160.9670  210.4020  151.8350 C   0  0  1  0  0  3  0  0  0  0  0  0
  162.0110  211.8520  150.1840 O   0  0  0  0  0  0  0  0  0  0  0  0
  161.6820  209.5750  149.5630 C   0  0  1  0  0  3  0  0  0  0  0  0
  162.4130  211.7180  148.8480 C   0  0  0  0  0  2  0  0  0  0  0  0
  161.9790  210.5400  150.6940 C   0  0  2  0  0  3  0  0  0  0  0  0
  161.9020  210.3950  148.3230 C   0  0  0  0  0  2  0  0  0  0  0  0
  162.6570  208.4120  149.6180 C   0  0  0  0  0  2  0  0  0  0  0  0
  162.2650  207.3470  148.6050 C   0  0  0  0  0  2  0  0  0  0  0  0
  160.7980  206.9860  148.7560 C   0  0  0  0  0  2  0  0  0  0  0  0
  160.2250  206.5250  147.4250 C   0  0  0  0  0  1  0  0  0  0  0  0
  159.7150  211.1990  151.5080 C   0  0  0  0  0  2  0  0  0  0  0  0
  158.1220  211.4660  155.7650 C   0  0  0  0  0  2  0  0  0  0  0  0
  156.8780  212.1780  156.2690 C   0  0  0  0  0  2  0  0  0  0  0  0
  157.1600  212.8280  153.9770 C   0  0  2  0  0  3  0  0  0  0  0  0
  156.6570  213.3370  155.3220 C   0  0  2  0  0  3  0  0  0  0  0  0
  157.4070  214.4290  155.7650 O   0  0  0  0  0  1  0  0  0  0  0  0
  158.1720  211.7130  154.2690 C   0  0  1  0  0  3  0  0  0  0  0  0
  158.4670  213.3380  151.8810 C   0  0  2  0  0  3  0  0  0  0  0  0
  157.6930  213.9380  153.0610 C   0  0  0  0  0  2  0  0  0  0  0  0
  159.5900  212.0920  153.8490 C   0  0  0  0  0  2  0  0  0  0  0  0
  159.6470  212.4580  152.3580 C   0  0  1  0  0  3  0  0  0  0  0  0
  160.4520  214.4000  150.6930 C   0  0  0  0  0  1  0  0  0  0  0  0
  158.9340  214.4430  150.9160 C   0  0  1  0  0  3  0  0  0  0  0  0
  158.0830  214.4530  149.6240 C   0  0  2  0  0  3  0  0  0  0  0  0
  157.0170  213.3720  149.6110 C   0  0  0  0  0  2  0  0  0  0  0  0
  158.2700  213.2130  148.7650 C   0  0  1  0  0  3  0  0  0  0  0  0
  158.9930  213.7500  146.4110 C   0  0  0  0  0  0  0  0  0  0  0  0
  158.6430  214.0600  145.0680 N   0  0  0  0  0  1  0  0  0  0  0  0
  157.9660  213.5420  147.3810 N   0  0  0  0  0  2  0  0  0  0  0  0
  160.2060  213.6610  146.7370 O   0  0  0  0  0  0  0  0  0  0  0  0
  160.6110  208.9440  152.1220 C   0  0  0  0  0  2  0  0  0  0  0  0
  161.2260  208.4970  153.4370 C   0  0  1  0  0  3  0  0  0  0  0  0
  161.0540  209.5700  154.5010 C   0  0  0  0  0  2  0  0  0  0  0  0
  160.6570  208.9940  155.7080 O   0  0  0  0  0  1  0  0  0  0  0  0
  160.5650  207.2120  153.8890 C   0  0  0  0  0  2  0  0  0  0  0  0
  161.3660  206.0330  153.3770 C   0  0  0  0  0  2  0  0  0  0  0  0
  160.5690  205.2790  152.3240 C   0  0  0  0  0  2  0  0  0  0  0  0
  161.0690  202.9170  149.8150 C   0  0  1  0  0  0  0  0  0  0  0  0
  161.0840  202.8590  152.1680 C   0  0  0  0  0  2  0  0  0  0  0  0
  162.8990  204.5110  151.8480 C   0  0  0  0  0  1  0  0  0  0  0  0
  161.4220  204.2340  151.6120 C   0  0  2  0  0  0  0  0  0  0  0  0
  161.4290  200.7320  150.8260 F   0  0  0  0  0  0  0  0  0  0  0  0
  160.9090  202.0080  150.9480 C   0  0  2  0  0  0  0  0  0  0  0  0
  159.8180  202.3310  150.1160 O   0  0  0  0  0  0  0  0  0  0  0  0
  161.1490  204.2580  150.2250 O   0  0  0  0  0  0  0  0  0  0  0  0
  161.1800  201.2860  147.9910 O   0  0  0  0  0  1  0  0  0  0  0  0
  161.6210  202.5400  148.4250 C   0  0  1  0  0  3  0  0  0  0  0  0
  161.3830  203.6000  147.3360 C   0  0  1  0  0  3  0  0  0  0  0  0
  162.6650  203.9560  146.6000 C   0  0  0  0  0  1  0  0  0  0  0  0
  159.9800  201.4000  144.8000 O   0  0  0  0  0  1  0  0  0  0  0  0
  160.9280  202.3180  145.2490 C   0  0  1  0  0  3  0  0  0  0  0  0
  160.4690  203.7200  144.9010 C   0  0  1  0  0  3  0  0  0  0  0  0
  160.3070  203.1830  146.3290 C   0  0  2  0  0  3  0  0  0  0  0  0
  161.6830  204.6140  144.6810 C   0  0  0  0  0  2  0  0  0  0  0  0
  161.2330  205.9280  144.0770 C   0  0  0  0  0  1  0  0  0  0  0  0
  1 11  1  6  0  0  0
  1 31  1  0  0  0  0
  2  5  1  0  0  0  0
  3  7  1  6  0  0  0
  3  5  1  0  0  0  0
  4  2  1  0  0  0  0
  5  1  1  1  0  0  0
  6  4  1  0  0  0  0
  6  3  1  0  0  0  0
  8  9  1  0  0  0  0
  8  7  1  0  0  0  0
 10  9  1  0  0  0  0
 12 13  1  0  0  0  0
 14 19  1  1  0  0  0
 14 17  1  0  0  0  0
 14 15  1  0  0  0  0
 15 16  1  1  0  0  0
 15 13  1  0  0  0  0
 17 20  1  1  0  0  0
 17 12  1  0  0  0  0
 18 23  1  6  0  0  0
 18 21  1  0  0  0  0
 18 19  1  0  0  0  0
 21 11  1  6  0  0  0
 21 20  1  0  0  0  0
 23 22  1  6  0  0  0
 24 23  1  1  0  0  0
 25 24  1  0  0  0  0
 26 29  1  6  0  0  0
 26 25  1  0  0  0  0
 26 24  1  0  0  0  0
 27 30  2  0  0  0  0
 27 29  1  0  0  0  0
 28 27  1  0  0  0  0
 32 31  1  6  0  0  0
 32 35  1  0  0  0  0
 32 33  1  0  0  0  0
 33 34  1  0  0  0  0
 36 35  1  0  0  0  0
 37 36  1  0  0  0  0
 38 47  1  6  0  0  0
 38 44  1  0  0  0  0
 38 45  1  0  0  0  0
 38 43  1  0  0  0  0
 41 40  1  1  0  0  0
 41 39  1  0  0  0  0
 41 37  1  0  0  0  0
 43 42  1  6  0  0  0
 43 39  1  0  0  0  0
 44 43  1  0  0  0  0
 45 41  1  0  0  0  0
 47 46  1  6  0  0  0
 48 49  1  6  0  0  0
 48 47  1  0  0  0  0
 51 50  1  6  0  0  0
 51 53  1  0  0  0  0
 52 54  1  1  0  0  0
 52 51  1  0  0  0  0
 52 53  1  0  0  0  0
 53 48  1  1  0  0  0
 55 54  1  0  0  0  0
M  END
>  <MODEL>
3

>  <REMARK>
 VINA RESULT:      -3.3      2.984      5.449
  Name = 
  20 active torsions:
  status: ('A' for Active; 'I' for Inactive)
    1  A    between atoms: C_1  and  C_38
    2  A    between atoms: C_2  and  C_19
    3  A    between atoms: C_2  and  C_28
    4  A    between atoms: C_2  and  C_44
    5  A    between atoms: C_4  and  C_40
    6  A    between atoms: C_5  and  C_40
    7  A    between atoms: C_5  and  C_46
    8  A    between atoms: C_6  and  C_14
    9  A    between atoms: C_6  and  C_46
   10  A    between atoms: C_8  and  C_22
   11  A    between atoms: C_13  and  C_52
   12  A    between atoms: C_19  and  C_40
   13  A    between atoms: C_21  and  C_38
   14  A    between atoms: C_21  and  C_42
   15  A    between atoms: C_27  and  C_31
   16  A    between atoms: C_28  and  C_49
   17  A    between atoms: C_31  and  C_51
   18  A    between atoms: N_32  and  C_48
   19  A    between atoms: C_33  and  C_52
   20  A    between atoms: C_35  and  C_51
                            x       y       z     vdW  Elec       q    Type
                         _______ _______ _______ _____ _____    ______ ____

>  <TORSDO>
F 20

$$$$
=
 OpenBabel11062408593D

 55 61  0  0  1  0  0  0  0  0999 V2000
  161.5710  211.5960  151.0140 C   0  0  1  0  0  3  0  0  0  0  0  0
  162.2160  212.4960  148.8480 O   0  0  0  0  0  0  0  0  0  0  0  0
  160.3280  213.4910  149.9100 C   0  0  1  0  0  3  0  0  0  0  0  0
  161.8020  213.5700  148.0490 C   0  0  0  0  0  2  0  0  0  0  0  0
  161.1210  212.2180  149.6890 C   0  0  2  0  0  3  0  0  0  0  0  0
  160.8450  214.4240  148.8510 C   0  0  0  0  0  2  0  0  0  0  0  0
  158.8500  213.2110  149.7040 C   0  0  0  0  0  2  0  0  0  0  0  0
  158.2000  214.3490  148.9330 C   0  0  0  0  0  2  0  0  0  0  0  0
  156.9340  213.8700  148.2450 C   0  0  0  0  0  2  0  0  0  0  0  0
  157.2770  212.9830  147.0590 C   0  0  0  0  0  1  0  0  0  0  0  0
  160.3550  211.2320  151.8490 C   0  0  0  0  0  2  0  0  0  0  0  0
  161.3500  207.7730  154.6380 C   0  0  0  0  0  2  0  0  0  0  0  0
  160.5400  207.2320  155.8030 C   0  0  0  0  0  2  0  0  0  0  0  0
  159.4670  209.2610  155.1050 C   0  0  2  0  0  3  0  0  0  0  0  0
  159.7510  208.4070  156.3350 C   0  0  2  0  0  3  0  0  0  0  0  0
  160.5390  209.0960  157.2600 O   0  0  0  0  0  1  0  0  0  0  0  0
  160.5510  208.9320  154.0720 C   0  0  1  0  0  3  0  0  0  0  0  0
  159.3650  211.5810  154.1230 C   0  0  2  0  0  3  0  0  0  0  0  0
  159.3270  210.7570  155.4160 C   0  0  0  0  0  2  0  0  0  0  0  0
  161.4730  210.1190  153.8000 C   0  0  0  0  0  2  0  0  0  0  0  0
  160.6740  211.3440  153.3320 C   0  0  1  0  0  3  0  0  0  0  0  0
  159.0350  213.9040  153.1350 C   0  0  0  0  0  1  0  0  0  0  0  0
  159.1430  213.0750  154.4220 C   0  0  1  0  0  3  0  0  0  0  0  0
  157.9860  213.2780  155.4290 C   0  0  2  0  0  3  0  0  0  0  0  0
  158.4420  213.9070  156.7340 C   0  0  0  0  0  2  0  0  0  0  0  0
  158.1140  212.4230  156.6800 C   0  0  1  0  0  3  0  0  0  0  0  0
  155.8580  211.2990  156.6390 C   0  0  0  0  0  0  0  0  0  0  0  0
  154.5800  211.1080  157.2320 N   0  0  0  0  0  1  0  0  0  0  0  0
  156.7900  212.1980  157.2400 N   0  0  0  0  0  2  0  0  0  0  0  0
  156.1590  210.6760  155.5880 O   0  0  0  0  0  0  0  0  0  0  0  0
  162.4610  210.3700  150.8070 C   0  0  0  0  0  2  0  0  0  0  0  0
  161.6300  209.1820  150.3540 C   0  0  1  0  0  3  0  0  0  0  0  0
  161.5830  209.1100  148.8360 C   0  0  0  0  0  2  0  0  0  0  0  0
  162.7350  209.6770  148.2900 O   0  0  0  0  0  1  0  0  0  0  0  0
  162.2290  207.9090  150.9140 C   0  0  0  0  0  2  0  0  0  0  0  0
  161.2040  206.7980  150.8310 C   0  0  0  0  0  2  0  0  0  0  0  0
  161.7490  205.6450  150.0020 C   0  0  0  0  0  2  0  0  0  0  0  0
  161.7200  204.4780  146.7220 C   0  0  1  0  0  0  0  0  0  0  0  0
  162.3500  206.4980  147.7520 C   0  0  0  0  0  2  0  0  0  0  0  0
  159.9760  206.4770  148.4500 C   0  0  0  0  0  1  0  0  0  0  0  0
  161.3010  205.7350  148.5470 C   0  0  2  0  0  0  0  0  0  0  0  0
  162.6550  206.1790  145.2530 F   0  0  0  0  0  0  0  0  0  0  0  0
  162.5600  205.6580  146.5310 C   0  0  2  0  0  0  0  0  0  0  0  0
  163.1300  204.3860  146.7400 O   0  0  0  0  0  0  0  0  0  0  0  0
  161.1590  204.4350  148.0090 O   0  0  0  0  0  0  0  0  0  0  0  0
  161.8730  203.5000  144.4810 O   0  0  0  0  0  1  0  0  0  0  0  0
  161.0520  203.6540  145.6030 C   0  0  1  0  0  3  0  0  0  0  0  0
  160.5010  202.2910  146.0560 C   0  0  1  0  0  3  0  0  0  0  0  0
  159.6740  201.6220  144.9710 C   0  0  0  0  0  1  0  0  0  0  0  0
  161.8810  198.9870  146.7070 O   0  0  0  0  0  1  0  0  0  0  0  0
  160.9810  200.0200  146.9630 C   0  0  1  0  0  3  0  0  0  0  0  0
  161.5660  200.9440  148.0130 C   0  0  1  0  0  3  0  0  0  0  0  0
  161.6010  201.3360  146.5310 C   0  0  2  0  0  3  0  0  0  0  0  0
  160.4400  201.5740  148.8220 C   0  0  0  0  0  2  0  0  0  0  0  0
  160.6700  201.3030  150.2950 C   0  0  0  0  0  1  0  0  0  0  0  0
  1 31  1  6  0  0  0
  1 11  1  0  0  0  0
  2  5  1  0  0  0  0
  3  7  1  6  0  0  0
  4  2  1  0  0  0  0
  4  6  1  0  0  0  0
  5  3  1  0  0  0  0
  5  1  1  1  0  0  0
  6  3  1  0  0  0  0
  8  7  1  0  0  0  0
  9  8  1  0  0  0  0
 10  9  1  0  0  0  0
 12 13  1  0  0  0  0
 13 15  1  0  0  0  0
 14 19  1  1  0  0  0
 14 15  1  0  0  0  0
 15 16  1  1  0  0  0
 17 20  1  1  0  0  0
 17 12  1  0  0  0  0
 17 14  1  0  0  0  0
 18 23  1  1  0  0  0
 18 19  1  0  0  0  0
 21 11  1  6  0  0  0
 21 20  1  0  0  0  0
 21 18  1  0  0  0  0
 23 22  1  6  0  0  0
 24 23  1  6  0  0  0
 24 26  1  0  0  0  0
 24 25  1  0  0  0  0
 26 25  1  0  0  0  0
 26 29  1  1  0  0  0
 27 28  1  0  0  0  0
 27 29  1  0  0  0  0
 30 27  2  0  0  0  0
 32 33  1  6  0  0  0
 32 31  1  0  0  0  0
 32 35  1  0  0  0  0
 34 33  1  0  0  0  0
 36 35  1  0  0  0  0
 37 36  1  0  0  0  0
 38 47  1  6  0  0  0
 38 44  1  0  0  0  0
 38 45  1  0  0  0  0
 39 41  1  0  0  0  0
 41 40  1  6  0  0  0
 41 37  1  0  0  0  0
 43 42  1  6  0  0  0
 43 38  1  0  0  0  0
 43 44  1  0  0  0  0
 43 39  1  0  0  0  0
 45 41  1  0  0  0  0
 47 46  1  6  0  0  0
 47 48  1  0  0  0  0
 48 49  1  6  0  0  0
 51 50  1  6  0  0  0
 51 52  1  0  0  0  0
 52 54  1  1  0  0  0
 53 48  1  1  0  0  0
 53 51  1  0  0  0  0
 53 52  1  0  0  0  0
 54 55  1  0  0  0  0
M  END
>  <MODEL>
4

>  <REMARK>
 VINA RESULT:      -3.3      2.354      4.009
  Name = 
  20 active torsions:
  status: ('A' for Active; 'I' for Inactive)
    1  A    between atoms: C_1  and  C_38
    2  A    between atoms: C_2  and  C_19
    3  A    between atoms: C_2  and  C_28
    4  A    between atoms: C_2  and  C_44
    5  A    between atoms: C_4  and  C_40
    6  A    between atoms: C_5  and  C_40
    7  A    between atoms: C_5  and  C_46
    8  A    between atoms: C_6  and  C_14
    9  A    between atoms: C_6  and  C_46
   10  A    between atoms: C_8  and  C_22
   11  A    between atoms: C_13  and  C_52
   12  A    between atoms: C_19  and  C_40
   13  A    between atoms: C_21  and  C_38
   14  A    between atoms: C_21  and  C_42
   15  A    between atoms: C_27  and  C_31
   16  A    between atoms: C_28  and  C_49
   17  A    between atoms: C_31  and  C_51
   18  A    between atoms: N_32  and  C_48
   19  A    between atoms: C_33  and  C_52
   20  A    between atoms: C_35  and  C_51
                            x       y       z     vdW  Elec       q    Type
                         _______ _______ _______ _____ _____    ______ ____

>  <TORSDO>
F 20

$$$$
=
 OpenBabel11062408593D

 55 61  0  0  1  0  0  0  0  0999 V2000
  161.4470  203.8500  150.7890 C   0  0  1  0  0  3  0  0  0  0  0  0
  159.3060  202.7720  150.3750 O   0  0  0  0  0  0  0  0  0  0  0  0
  161.2640  201.5250  149.8320 C   0  0  1  0  0  3  0  0  0  0  0  0
  158.8920  201.4990  149.9600 C   0  0  0  0  0  2  0  0  0  0  0  0
  160.6290  202.9000  149.9090 C   0  0  2  0  0  3  0  0  0  0  0  0
  160.0970  200.5840  149.9430 C   0  0  0  0  0  2  0  0  0  0  0  0
  161.9600  201.3620  148.4920 C   0  0  0  0  0  2  0  0  0  0  0  0
  161.5950  200.0240  147.8680 C   0  0  0  0  0  2  0  0  0  0  0  0
  161.2400  200.2010  146.4020 C   0  0  0  0  0  2  0  0  0  0  0  0
  161.3200  198.8700  145.6720 C   0  0  0  0  0  1  0  0  0  0  0  0
  162.1510  204.8760  149.9170 C   0  0  0  0  0  2  0  0  0  0  0  0
  161.2990  203.5870  145.6340 C   0  0  0  0  0  2  0  0  0  0  0  0
  161.6090  204.3240  144.3420 C   0  0  0  0  0  2  0  0  0  0  0  0
  162.0680  205.8530  146.1330 C   0  0  2  0  0  3  0  0  0  0  0  0
  161.5750  205.7950  144.6930 C   0  0  2  0  0  3  0  0  0  0  0  0
  160.2590  206.2530  144.5870 O   0  0  0  0  0  1  0  0  0  0  0  0
  161.7910  204.4800  146.7570 C   0  0  1  0  0  3  0  0  0  0  0  0
  161.7690  206.8540  148.4280 C   0  0  2  0  0  3  0  0  0  0  0  0
  161.4980  207.0340  146.9300 C   0  0  0  0  0  2  0  0  0  0  0  0
  160.7430  204.5490  147.8660 C   0  0  0  0  0  2  0  0  0  0  0  0
  161.1640  205.5360  148.9660 C   0  0  1  0  0  3  0  0  0  0  0  0
  160.8610  207.6950  150.6530 C   0  0  0  0  0  1  0  0  0  0  0  0
  161.2710  208.0750  149.2240 C   0  0  1  0  0  3  0  0  0  0  0  0
  162.2680  209.2540  149.1210 C   0  0  2  0  0  3  0  0  0  0  0  0
  162.3120  210.1010  150.3810 C   0  0  0  0  0  2  0  0  0  0  0  0
  161.5990  210.6180  149.1430 C   0  0  1  0  0  3  0  0  0  0  0  0
  161.9270  212.7740  147.8790 C   0  0  0  0  0  0  0  0  0  0  0  0
  162.8040  213.6840  147.2270 N   0  0  0  0  0  1  0  0  0  0  0  0
  162.4500  211.5780  148.4570 N   0  0  0  0  0  2  0  0  0  0  0  0
  160.6960  213.0280  147.9420 O   0  0  0  0  0  0  0  0  0  0  0  0
  160.5890  204.5470  151.8440 C   0  0  0  0  0  2  0  0  0  0  0  0
  161.4620  205.0960  152.9590 C   0  0  1  0  0  3  0  0  0  0  0  0
  162.5780  205.9580  152.3900 C   0  0  0  0  0  2  0  0  0  0  0  0
  163.7960  205.2830  152.4680 O   0  0  0  0  0  1  0  0  0  0  0  0
  160.6100  205.9140  153.9070 C   0  0  0  0  0  2  0  0  0  0  0  0
  161.3630  207.1680  154.2980 C   0  0  0  0  0  2  0  0  0  0  0  0
  160.9860  207.5830  155.7120 C   0  0  0  0  0  2  0  0  0  0  0  0
  160.8170  210.9140  154.7120 C   0  0  1  0  0  0  0  0  0  0  0  0
  161.0490  209.8190  156.7830 C   0  0  0  0  0  2  0  0  0  0  0  0
  158.8710  208.8490  156.1190 C   0  0  0  0  0  1  0  0  0  0  0  0
  160.3400  208.9630  155.7420 C   0  0  2  0  0  0  0  0  0  0  0  0
  161.0890  212.3530  156.6560 F   0  0  0  0  0  0  0  0  0  0  0  0
  161.2990  211.1150  156.0760 C   0  0  2  0  0  0  0  0  0  0  0  0
  162.1940  211.0680  154.9880 O   0  0  0  0  0  0  0  0  0  0  0  0
  160.4610  209.5760  154.4730 O   0  0  0  0  0  0  0  0  0  0  0  0
  160.0030  211.5430  152.4900 O   0  0  0  0  0  1  0  0  0  0  0  0
  160.2340  212.0040  153.7890 C   0  0  1  0  0  3  0  0  0  0  0  0
  158.9820  212.7050  154.3430 C   0  0  1  0  0  3  0  0  0  0  0  0
  158.3730  213.6630  153.3310 C   0  0  0  0  0  1  0  0  0  0  0  0
  155.5550  211.5320  154.6900 O   0  0  0  0  0  1  0  0  0  0  0  0
  156.5840  212.4320  154.9610 C   0  0  1  0  0  3  0  0  0  0  0  0
  157.3170  211.9900  156.2130 C   0  0  1  0  0  3  0  0  0  0  0  0
  157.9150  211.7170  154.8270 C   0  0  2  0  0  3  0  0  0  0  0  0
  157.8800  213.2100  156.9300 C   0  0  0  0  0  2  0  0  0  0  0  0
  156.8060  214.2750  157.0210 C   0  0  0  0  0  1  0  0  0  0  0  0
  1 11  1  6  0  0  0
  1 31  1  0  0  0  0
  3  7  1  6  0  0  0
  3  5  1  0  0  0  0
  3  6  1  0  0  0  0
  4  2  1  0  0  0  0
  5  2  1  0  0  0  0
  5  1  1  1  0  0  0
  6  4  1  0  0  0  0
  8  7  1  0  0  0  0
  9  8  1  0  0  0  0
 10  9  1  0  0  0  0
 13 15  1  0  0  0  0
 13 12  1  0  0  0  0
 14 17  1  0  0  0  0
 14 19  1  1  0  0  0
 15 16  1  1  0  0  0
 15 14  1  0  0  0  0
 17 12  1  6  0  0  0
 17 20  1  0  0  0  0
 18 21  1  0  0  0  0
 18 23  1  1  0  0  0
 19 18  1  0  0  0  0
 20 21  1  0  0  0  0
 21 11  1  1  0  0  0
 23 22  1  1  0  0  0
 24 26  1  0  0  0  0
 24 23  1  1  0  0  0
 24 25  1  0  0  0  0
 26 29  1  6  0  0  0
 26 25  1  0  0  0  0
 27 30  2  0  0  0  0
 27 29  1  0  0  0  0
 28 27  1  0  0  0  0
 32 31  1  6  0  0  0
 32 35  1  0  0  0  0
 33 34  1  0  0  0  0
 33 32  1  0  0  0  0
 35 36  1  0  0  0  0
 36 37  1  0  0  0  0
 37 41  1  0  0  0  0
 38 47  1  6  0  0  0
 38 44  1  0  0  0  0
 38 43  1  0  0  0  0
 41 40  1  1  0  0  0
 41 39  1  0  0  0  0
 43 42  1  1  0  0  0
 43 39  1  0  0  0  0
 44 43  1  0  0  0  0
 45 38  1  0  0  0  0
 45 41  1  0  0  0  0
 47 46  1  6  0  0  0
 47 48  1  0  0  0  0
 48 49  1  6  0  0  0
 51 50  1  6  0  0  0
 51 52  1  0  0  0  0
 52 54  1  1  0  0  0
 53 48  1  1  0  0  0
 53 51  1  0  0  0  0
 53 52  1  0  0  0  0
 54 55  1  0  0  0  0
M  END
>  <MODEL>
5

>  <REMARK>
 VINA RESULT:      -3.1      3.022     10.906
  Name = 
  20 active torsions:
  status: ('A' for Active; 'I' for Inactive)
    1  A    between atoms: C_1  and  C_38
    2  A    between atoms: C_2  and  C_19
    3  A    between atoms: C_2  and  C_28
    4  A    between atoms: C_2  and  C_44
    5  A    between atoms: C_4  and  C_40
    6  A    between atoms: C_5  and  C_40
    7  A    between atoms: C_5  and  C_46
    8  A    between atoms: C_6  and  C_14
    9  A    between atoms: C_6  and  C_46
   10  A    between atoms: C_8  and  C_22
   11  A    between atoms: C_13  and  C_52
   12  A    between atoms: C_19  and  C_40
   13  A    between atoms: C_21  and  C_38
   14  A    between atoms: C_21  and  C_42
   15  A    between atoms: C_27  and  C_31
   16  A    between atoms: C_28  and  C_49
   17  A    between atoms: C_31  and  C_51
   18  A    between atoms: N_32  and  C_48
   19  A    between atoms: C_33  and  C_52
   20  A    between atoms: C_35  and  C_51
                            x       y       z     vdW  Elec       q    Type
                         _______ _______ _______ _____ _____    ______ ____

>  <TORSDO>
F 20

$$$$
=
 OpenBabel11062408593D

 55 61  0  0  1  0  0  0  0  0999 V2000
  161.9960  211.0510  150.4130 C   0  0  1  0  0  3  0  0  0  0  0  0
  163.3780  212.0230  148.6630 O   0  0  0  0  0  0  0  0  0  0  0  0
  161.2310  212.9980  149.0050 C   0  0  1  0  0  3  0  0  0  0  0  0
  163.2790  213.1300  147.8090 C   0  0  0  0  0  2  0  0  0  0  0  0
  162.0540  211.7260  149.0390 C   0  0  2  0  0  3  0  0  0  0  0  0
  162.0930  213.9640  148.2410 C   0  0  0  0  0  2  0  0  0  0  0  0
  159.9280  212.7400  148.2670 C   0  0  0  0  0  2  0  0  0  0  0  0
  160.1710  211.8290  147.0730 C   0  0  0  0  0  2  0  0  0  0  0  0
  159.8600  212.5580  145.7780 C   0  0  0  0  0  2  0  0  0  0  0  0
  159.6450  214.0400  146.0410 C   0  0  0  0  0  1  0  0  0  0  0  0
  160.5630  211.0390  150.9170 C   0  0  0  0  0  2  0  0  0  0  0  0
  161.7820  209.3060  154.9470 C   0  0  0  0  0  2  0  0  0  0  0  0
  160.8990  208.9360  156.1270 C   0  0  0  0  0  2  0  0  0  0  0  0
  159.5010  210.0940  154.5580 C   0  0  2  0  0  3  0  0  0  0  0  0
  159.7050  209.8620  156.0500 C   0  0  2  0  0  3  0  0  0  0  0  0
  160.0150  211.0520  156.7120 O   0  0  0  0  0  1  0  0  0  0  0  0
  160.8520  209.8440  153.8770 C   0  0  1  0  0  3  0  0  0  0  0  0
  158.9900  211.7550  152.7300 C   0  0  2  0  0  3  0  0  0  0  0  0
  158.8710  211.4540  154.2290 C   0  0  0  0  0  2  0  0  0  0  0  0
  161.4370  211.1170  153.2670 C   0  0  0  0  0  2  0  0  0  0  0  0
  160.4640  211.7470  152.2600 C   0  0  1  0  0  3  0  0  0  0  0  0
  158.3580  213.3840  150.8800 C   0  0  0  0  0  1  0  0  0  0  0  0
  158.2890  213.0800  152.3820 C   0  0  1  0  0  3  0  0  0  0  0  0
  156.8690  213.1400  152.9960 C   0  0  2  0  0  3  0  0  0  0  0  0
  156.1440  214.4370  152.6830 C   0  0  0  0  0  2  0  0  0  0  0  0
  156.7180  214.2030  154.0720 C   0  0  1  0  0  3  0  0  0  0  0  0
  155.8730  213.6390  156.3780 C   0  0  0  0  0  0  0  0  0  0  0  0
  154.7920  213.2670  157.2240 N   0  0  0  0  0  1  0  0  0  0  0  0
  155.6490  213.8140  154.9790 N   0  0  0  0  0  2  0  0  0  0  0  0
  157.0200  213.8100  156.8680 O   0  0  0  0  0  0  0  0  0  0  0  0
  162.5640  209.6330  150.3880 C   0  0  0  0  0  2  0  0  0  0  0  0
  161.6410  208.7060  149.6150 C   0  0  1  0  0  3  0  0  0  0  0  0
  162.2250  208.3850  148.2490 C   0  0  0  0  0  2  0  0  0  0  0  0
  161.3380  207.5930  147.5190 O   0  0  0  0  0  1  0  0  0  0  0  0
  161.4390  207.4280  150.4030 C   0  0  0  0  0  2  0  0  0  0  0  0
  160.9380  207.7720  151.7900 C   0  0  0  0  0  2  0  0  0  0  0  0
  160.7890  206.5050  152.6190 C   0  0  0  0  0  2  0  0  0  0  0  0
  161.1710  203.8670  150.3790 C   0  0  1  0  0  0  0  0  0  0  0  0
  161.1760  204.0580  152.7250 C   0  0  0  0  0  2  0  0  0  0  0  0
  163.0760  205.5700  152.2480 C   0  0  0  0  0  1  0  0  0  0  0  0
  161.5880  205.3480  152.0300 C   0  0  2  0  0  0  0  0  0  0  0  0
  161.4120  201.7870  151.6180 F   0  0  0  0  0  0  0  0  0  0  0  0
  160.9600  203.0940  151.6000 C   0  0  2  0  0  0  0  0  0  0  0  0
  159.8900  203.3820  150.7290 O   0  0  0  0  0  0  0  0  0  0  0  0
  161.3210  205.2380  150.6450 O   0  0  0  0  0  0  0  0  0  0  0  0
  161.6970  201.9190  148.9900 O   0  0  0  0  0  1  0  0  0  0  0  0
  161.7070  203.3170  149.0420 C   0  0  1  0  0  3  0  0  0  0  0  0
  161.0290  203.9050  147.7920 C   0  0  1  0  0  3  0  0  0  0  0  0
  160.4740  205.2970  148.0490 C   0  0  0  0  0  1  0  0  0  0  0  0
  162.2730  205.3370  144.6870 O   0  0  0  0  0  1  0  0  0  0  0  0
  161.2910  204.7030  145.4470 C   0  0  1  0  0  3  0  0  0  0  0  0
  161.4560  203.2010  145.3230 C   0  0  1  0  0  3  0  0  0  0  0  0
  161.9560  203.9350  146.5740 C   0  0  2  0  0  3  0  0  0  0  0  0
  160.0990  202.5260  145.4700 C   0  0  0  0  0  2  0  0  0  0  0  0
  160.2560  201.0350  145.2480 C   0  0  0  0  0  1  0  0  0  0  0  0
  1 31  1  6  0  0  0
  1 11  1  0  0  0  0
  2  5  1  0  0  0  0
  3  7  1  6  0  0  0
  3  5  1  0  0  0  0
  4  6  1  0  0  0  0
  4  2  1  0  0  0  0
  5  1  1  1  0  0  0
  6  3  1  0  0  0  0
  8  7  1  0  0  0  0
  9 10  1  0  0  0  0
  9  8  1  0  0  0  0
 12 13  1  0  0  0  0
 14 19  1  1  0  0  0
 14 15  1  0  0  0  0
 15 13  1  0  0  0  0
 15 16  1  1  0  0  0
 17 20  1  1  0  0  0
 17 14  1  0  0  0  0
 17 12  1  0  0  0  0
 18 23  1  1  0  0  0
 18 19  1  0  0  0  0
 21 11  1  6  0  0  0
 21 18  1  0  0  0  0
 21 20  1  0  0  0  0
 23 22  1  6  0  0  0
 24 23  1  6  0  0  0
 24 26  1  0  0  0  0
 25 24  1  0  0  0  0
 25 26  1  0  0  0  0
 26 29  1  1  0  0  0
 27 30  2  0  0  0  0
 27 28  1  0  0  0  0
 29 27  1  0  0  0  0
 32 33  1  6  0  0  0
 32 31  1  0  0  0  0
 32 35  1  0  0  0  0
 34 33  1  0  0  0  0
 35 36  1  0  0  0  0
 36 37  1  0  0  0  0
 38 47  1  6  0  0  0
 38 45  1  0  0  0  0
 38 44  1  0  0  0  0
 38 43  1  0  0  0  0
 41 40  1  1  0  0  0
 41 37  1  0  0  0  0
 41 39  1  0  0  0  0
 43 42  1  1  0  0  0
 43 39  1  0  0  0  0
 44 43  1  0  0  0  0
 45 41  1  0  0  0  0
 47 46  1  1  0  0  0
 48 49  1  1  0  0  0
 48 47  1  0  0  0  0
 51 50  1  6  0  0  0
 51 53  1  0  0  0  0
 52 51  1  0  0  0  0
 52 54  1  1  0  0  0
 52 53  1  0  0  0  0
 53 48  1  1  0  0  0
 55 54  1  0  0  0  0
M  END
>  <MODEL>
6

>  <REMARK>
 VINA RESULT:      -2.6      2.774      5.141
  Name = 
  20 active torsions:
  status: ('A' for Active; 'I' for Inactive)
    1  A    between atoms: C_1  and  C_38
    2  A    between atoms: C_2  and  C_19
    3  A    between atoms: C_2  and  C_28
    4  A    between atoms: C_2  and  C_44
    5  A    between atoms: C_4  and  C_40
    6  A    between atoms: C_5  and  C_40
    7  A    between atoms: C_5  and  C_46
    8  A    between atoms: C_6  and  C_14
    9  A    between atoms: C_6  and  C_46
   10  A    between atoms: C_8  and  C_22
   11  A    between atoms: C_13  and  C_52
   12  A    between atoms: C_19  and  C_40
   13  A    between atoms: C_21  and  C_38
   14  A    between atoms: C_21  and  C_42
   15  A    between atoms: C_27  and  C_31
   16  A    between atoms: C_28  and  C_49
   17  A    between atoms: C_31  and  C_51
   18  A    between atoms: N_32  and  C_48
   19  A    between atoms: C_33  and  C_52
   20  A    between atoms: C_35  and  C_51
                            x       y       z     vdW  Elec       q    Type
                         _______ _______ _______ _____ _____    ______ ____

>  <TORSDO>
F 20

$$$$
=
 OpenBabel11062408593D

 55 61  0  0  1  0  0  0  0  0999 V2000
  161.9170  206.3900  147.8300 C   0  0  1  0  0  3  0  0  0  0  0  0
  162.8440  207.2490  149.9080 O   0  0  0  0  0  0  0  0  0  0  0  0
  161.4700  208.7330  148.6470 C   0  0  1  0  0  3  0  0  0  0  0  0
  162.7050  208.4280  150.6530 C   0  0  0  0  0  2  0  0  0  0  0  0
  162.4710  207.5960  148.5950 C   0  0  2  0  0  3  0  0  0  0  0  0
  161.5760  209.2410  150.0580 C   0  0  0  0  0  2  0  0  0  0  0  0
  161.8730  209.8100  147.6550 C   0  0  0  0  0  2  0  0  0  0  0  0
  162.0430  211.1440  148.3660 C   0  0  0  0  0  2  0  0  0  0  0  0
  161.1330  212.1930  147.7510 C   0  0  0  0  0  2  0  0  0  0  0  0
  160.9510  213.3630  148.7040 C   0  0  0  0  0  1  0  0  0  0  0  0
  160.9080  205.6540  148.6950 C   0  0  0  0  0  2  0  0  0  0  0  0
  161.5250  201.8140  146.3280 C   0  0  0  0  0  2  0  0  0  0  0  0
  160.8320  200.4730  146.4980 C   0  0  0  0  0  2  0  0  0  0  0  0
  160.1720  201.8290  148.3640 C   0  0  2  0  0  3  0  0  0  0  0  0
  160.4590  200.3880  147.9610 C   0  0  2  0  0  3  0  0  0  0  0  0
  161.5430  199.8680  148.6720 O   0  0  0  0  0  1  0  0  0  0  0  0
  160.9400  202.7280  147.3870 C   0  0  1  0  0  3  0  0  0  0  0  0
  160.4570  203.6320  150.1040 C   0  0  2  0  0  3  0  0  0  0  0  0
  160.4540  202.1210  149.8430 C   0  0  0  0  0  2  0  0  0  0  0  0
  162.0560  203.5110  148.0760 C   0  0  0  0  0  2  0  0  0  0  0  0
  161.5050  204.3610  149.2300 C   0  0  1  0  0  3  0  0  0  0  0  0
  161.5130  202.8510  152.2840 C   0  0  0  0  0  1  0  0  0  0  0  0
  160.6590  203.9280  151.6010 C   0  0  1  0  0  3  0  0  0  0  0  0
  161.1390  205.3820  151.8240 C   0  0  2  0  0  3  0  0  0  0  0  0
  162.3360  205.4720  152.7540 C   0  0  0  0  0  2  0  0  0  0  0  0
  160.9560  205.8690  153.2520 C   0  0  1  0  0  3  0  0  0  0  0  0
  161.0820  208.0990  154.4190 C   0  0  0  0  0  0  0  0  0  0  0  0
  160.9610  209.5150  154.3610 N   0  0  0  0  0  1  0  0  0  0  0  0
  160.8370  207.3190  153.2490 N   0  0  0  0  0  2  0  0  0  0  0  0
  161.4030  207.5430  155.5020 O   0  0  0  0  0  0  0  0  0  0  0  0
  161.2850  206.7880  146.4970 C   0  0  0  0  0  2  0  0  0  0  0  0
  162.0730  206.2000  145.3400 C   0  0  1  0  0  3  0  0  0  0  0  0
  162.5610  204.8010  145.6810 C   0  0  0  0  0  2  0  0  0  0  0  0
  163.9400  204.7110  145.4890 O   0  0  0  0  0  1  0  0  0  0  0  0
  161.1940  206.1530  144.1070 C   0  0  0  0  0  2  0  0  0  0  0  0
  162.0700  206.1260  142.8720 C   0  0  0  0  0  2  0  0  0  0  0  0
  161.2630  206.5430  141.6520 C   0  0  0  0  0  2  0  0  0  0  0  0
  161.6880  208.5290  138.8230 C   0  0  1  0  0  0  0  0  0  0  0  0
  162.2170  206.3030  139.3750 C   0  0  0  0  0  2  0  0  0  0  0  0
  163.5440  207.4230  141.1380 C   0  0  0  0  0  1  0  0  0  0  0  0
  162.1390  207.2080  140.5960 C   0  0  2  0  0  0  0  0  0  0  0  0
  162.6950  207.2000  137.0500 F   0  0  0  0  0  0  0  0  0  0  0  0
  161.9630  207.2250  138.2240 C   0  0  2  0  0  0  0  0  0  0  0  0
  160.6780  207.7990  138.1570 O   0  0  0  0  0  0  0  0  0  0  0  0
  161.5780  208.4510  140.2210 O   0  0  0  0  0  0  0  0  0  0  0  0
  161.0010  210.3190  137.3000 O   0  0  0  0  0  1  0  0  0  0  0  0
  161.9970  209.8990  138.1870 C   0  0  1  0  0  3  0  0  0  0  0  0
  162.3200  211.0130  139.1980 C   0  0  1  0  0  3  0  0  0  0  0  0
  163.5370  211.8230  138.7810 C   0  0  0  0  0  1  0  0  0  0  0  0
  160.7620  214.2930  139.4300 O   0  0  0  0  0  1  0  0  0  0  0  0
  161.6450  213.3120  139.8790 C   0  0  1  0  0  3  0  0  0  0  0  0
  160.9390  212.4300  140.8900 C   0  0  1  0  0  3  0  0  0  0  0  0
  161.1350  211.9510  139.4460 C   0  0  2  0  0  3  0  0  0  0  0  0
  161.9530  211.8920  141.8920 C   0  0  0  0  0  2  0  0  0  0  0  0
  161.7480  212.5790  143.2270 C   0  0  0  0  0  1  0  0  0  0  0  0
  1 31  1  6  0  0  0
  1 11  1  0  0  0  0
  2  4  1  0  0  0  0
  3  7  1  6  0  0  0
  3  6  1  0  0  0  0
  5  1  1  1  0  0  0
  5  3  1  0  0  0  0
  5  2  1  0  0  0  0
  6  4  1  0  0  0  0
  7  8  1  0  0  0  0
  9  8  1  0  0  0  0
  9 10  1  0  0  0  0
 12 13  1  0  0  0  0
 13 15  1  0  0  0  0
 14 19  1  1  0  0  0
 15 14  1  0  0  0  0
 15 16  1  1  0  0  0
 17 12  1  6  0  0  0
 17 20  1  0  0  0  0
 17 14  1  0  0  0  0
 18 23  1  1  0  0  0
 19 18  1  0  0  0  0
 20 21  1  0  0  0  0
 21 11  1  6  0  0  0
 21 18  1  0  0  0  0
 23 22  1  6  0  0  0
 24 23  1  1  0  0  0
 24 25  1  0  0  0  0
 24 26  1  0  0  0  0
 25 26  1  0  0  0  0
 26 29  1  6  0  0  0
 27 30  2  0  0  0  0
 28 27  1  0  0  0  0
 29 27  1  0  0  0  0
 32 35  1  6  0  0  0
 32 33  1  0  0  0  0
 32 31  1  0  0  0  0
 34 33  1  0  0  0  0
 36 35  1  0  0  0  0
 37 36  1  0  0  0  0
 38 47  1  6  0  0  0
 38 45  1  0  0  0  0
 39 41  1  0  0  0  0
 41 40  1  1  0  0  0
 41 37  1  0  0  0  0
 43 42  1  6  0  0  0
 43 38  1  0  0  0  0
 43 39  1  0  0  0  0
 44 43  1  0  0  0  0
 44 38  1  0  0  0  0
 45 41  1  0  0  0  0
 47 46  1  1  0  0  0
 47 48  1  0  0  0  0
 48 49  1  6  0  0  0
 51 50  1  6  0  0  0
 51 52  1  0  0  0  0
 52 54  1  1  0  0  0
 53 48  1  1  0  0  0
 53 51  1  0  0  0  0
 53 52  1  0  0  0  0
 54 55  1  0  0  0  0
M  END
>  <MODEL>
7

>  <REMARK>
 VINA RESULT:      -2.4      4.199      9.265
  Name = 
  20 active torsions:
  status: ('A' for Active; 'I' for Inactive)
    1  A    between atoms: C_1  and  C_38
    2  A    between atoms: C_2  and  C_19
    3  A    between atoms: C_2  and  C_28
    4  A    between atoms: C_2  and  C_44
    5  A    between atoms: C_4  and  C_40
    6  A    between atoms: C_5  and  C_40
    7  A    between atoms: C_5  and  C_46
    8  A    between atoms: C_6  and  C_14
    9  A    between atoms: C_6  and  C_46
   10  A    between atoms: C_8  and  C_22
   11  A    between atoms: C_13  and  C_52
   12  A    between atoms: C_19  and  C_40
   13  A    between atoms: C_21  and  C_38
   14  A    between atoms: C_21  and  C_42
   15  A    between atoms: C_27  and  C_31
   16  A    between atoms: C_28  and  C_49
   17  A    between atoms: C_31  and  C_51
   18  A    between atoms: N_32  and  C_48
   19  A    between atoms: C_33  and  C_52
   20  A    between atoms: C_35  and  C_51
                            x       y       z     vdW  Elec       q    Type
                         _______ _______ _______ _____ _____    ______ ____

>  <TORSDO>
F 20

$$$$
=
 OpenBabel11062408593D

 55 61  0  0  1  0  0  0  0  0999 V2000
  162.0830  209.7060  152.5460 C   0  0  1  0  0  3  0  0  0  0  0  0
  162.6790  210.8690  154.5970 O   0  0  0  0  0  0  0  0  0  0  0  0
  160.9880  209.1970  154.7590 C   0  0  1  0  0  3  0  0  0  0  0  0
  162.3360  210.7480  155.9510 C   0  0  0  0  0  2  0  0  0  0  0  0
  161.6180  210.2690  153.8920 C   0  0  2  0  0  3  0  0  0  0  0  0
  161.5340  209.4770  156.1310 C   0  0  0  0  0  2  0  0  0  0  0  0
  159.4770  209.3520  154.7400 C   0  0  0  0  0  2  0  0  0  0  0  0
  159.0270  210.2680  155.8680 C   0  0  0  0  0  2  0  0  0  0  0  0
  157.5740  210.6670  155.6800 C   0  0  0  0  0  2  0  0  0  0  0  0
  157.4620  211.8090  154.6830 C   0  0  0  0  0  1  0  0  0  0  0  0
  161.1040  208.6470  152.0680 C   0  0  0  0  0  2  0  0  0  0  0  0
  161.7680  208.3190  147.5760 C   0  0  0  0  0  2  0  0  0  0  0  0
  161.1910  207.3040  146.6030 C   0  0  0  0  0  2  0  0  0  0  0  0
  160.6150  206.5490  148.8060 C   0  0  2  0  0  3  0  0  0  0  0  0
  160.9650  206.0460  147.4110 C   0  0  2  0  0  3  0  0  0  0  0  0
  162.1450  205.2990  147.4220 O   0  0  0  0  0  1  0  0  0  0  0  0
  161.2220  207.9510  148.9420 C   0  0  1  0  0  3  0  0  0  0  0  0
  160.9330  206.2710  151.2920 C   0  0  2  0  0  3  0  0  0  0  0  0
  161.0130  205.5790  149.9260 C   0  0  0  0  0  2  0  0  0  0  0  0
  162.3390  208.0010  149.9820 C   0  0  0  0  0  2  0  0  0  0  0  0
  161.8400  207.5240  151.3540 C   0  0  1  0  0  3  0  0  0  0  0  0
  160.9760  205.8870  153.8090 C   0  0  0  0  0  1  0  0  0  0  0  0
  161.2530  205.2800  152.4260 C   0  0  1  0  0  3  0  0  0  0  0  0
  160.5900  203.9060  152.1710 C   0  0  2  0  0  3  0  0  0  0  0  0
  161.5970  202.7730  152.0710 C   0  0  0  0  0  2  0  0  0  0  0  0
  160.9300  203.3100  150.8140 C   0  0  1  0  0  3  0  0  0  0  0  0
  160.0340  201.4630  149.3530 C   0  0  0  0  0  0  0  0  0  0  0  0
  158.9620  200.5980  149.0000 N   0  0  0  0  0  1  0  0  0  0  0  0
  159.8630  202.4090  150.4080 N   0  0  0  0  0  2  0  0  0  0  0  0
  161.1270  201.3900  148.7320 O   0  0  0  0  0  0  0  0  0  0  0  0
  162.2480  210.7950  151.4870 C   0  0  0  0  0  2  0  0  0  0  0  0
  160.8900  211.2800  151.0080 C   0  0  1  0  0  3  0  0  0  0  0  0
  159.9380  211.4480  152.1820 C   0  0  0  0  0  2  0  0  0  0  0  0
  159.5940  212.7920  152.3350 O   0  0  0  0  0  1  0  0  0  0  0  0
  161.0550  212.5990  150.2840 C   0  0  0  0  0  2  0  0  0  0  0  0
  161.5540  212.3370  148.8790 C   0  0  0  0  0  2  0  0  0  0  0  0
  161.2800  213.5440  147.9940 C   0  0  0  0  0  2  0  0  0  0  0  0
  160.2240  213.7030  144.6800 C   0  0  1  0  0  0  0  0  0  0  0  0
  160.6310  211.9560  146.2040 C   0  0  0  0  0  2  0  0  0  0  0  0
  162.9010  212.9420  146.1900 C   0  0  0  0  0  1  0  0  0  0  0  0
  161.4390  213.2070  146.5150 C   0  0  2  0  0  0  0  0  0  0  0  0
  159.7520  211.4540  143.8770 F   0  0  0  0  0  0  0  0  0  0  0  0
  159.8830  212.3090  144.9560 C   0  0  2  0  0  0  0  0  0  0  0  0
  158.9190  213.3310  145.0760 O   0  0  0  0  0  0  0  0  0  0  0  0
  160.9620  214.2800  145.7270 O   0  0  0  0  0  0  0  0  0  0  0  0
  161.5810  214.3280  142.7400 O   0  0  0  0  0  1  0  0  0  0  0  0
  160.2940  214.3570  143.2850 C   0  0  1  0  0  3  0  0  0  0  0  0
  159.2700  213.8120  142.2740 C   0  0  1  0  0  3  0  0  0  0  0  0
  157.8520  214.2420  142.6140 C   0  0  0  0  0  1  0  0  0  0  0  0
  158.4110  214.3720  138.7820 O   0  0  0  0  0  1  0  0  0  0  0  0
  158.6100  213.5440  139.8870 C   0  0  1  0  0  3  0  0  0  0  0  0
  160.0490  213.0690  139.9030 C   0  0  1  0  0  3  0  0  0  0  0  0
  159.5970  214.2050  140.8300 C   0  0  2  0  0  3  0  0  0  0  0  0
  160.1250  211.6950  140.5560 C   0  0  0  0  0  2  0  0  0  0  0  0
  161.5780  211.2980  140.7170 C   0  0  0  0  0  1  0  0  0  0  0  0
  1 31  1  6  0  0  0
  2  4  1  0  0  0  0
  3  7  1  1  0  0  0
  3  6  1  0  0  0  0
  4  6  1  0  0  0  0
  5  1  1  6  0  0  0
  5  2  1  0  0  0  0
  5  3  1  0  0  0  0
  7  8  1  0  0  0  0
  9  8  1  0  0  0  0
 10  9  1  0  0  0  0
 11  1  1  0  0  0  0
 13 15  1  0  0  0  0
 13 12  1  0  0  0  0
 14 17  1  0  0  0  0
 14 19  1  1  0  0  0
 15 16  1  1  0  0  0
 15 14  1  0  0  0  0
 17 12  1  6  0  0  0
 17 20  1  0  0  0  0
 18 21  1  0  0  0  0
 18 23  1  1  0  0  0
 19 18  1  0  0  0  0
 20 21  1  0  0  0  0
 21 11  1  6  0  0  0
 23 22  1  1  0  0  0
 24 23  1  6  0  0  0
 25 24  1  0  0  0  0
 26 29  1  1  0  0  0
 26 25  1  0  0  0  0
 26 24  1  0  0  0  0
 27 29  1  0  0  0  0
 28 27  1  0  0  0  0
 30 27  2  0  0  0  0
 32 35  1  1  0  0  0
 32 31  1  0  0  0  0
 32 33  1  0  0  0  0
 33 34  1  0  0  0  0
 36 35  1  0  0  0  0
 37 36  1  0  0  0  0
 38 47  1  6  0  0  0
 38 43  1  0  0  0  0
 38 44  1  0  0  0  0
 38 45  1  0  0  0  0
 39 41  1  0  0  0  0
 41 40  1  6  0  0  0
 41 37  1  0  0  0  0
 43 42  1  6  0  0  0
 43 44  1  0  0  0  0
 43 39  1  0  0  0  0
 45 41  1  0  0  0  0
 47 46  1  6  0  0  0
 48 49  1  1  0  0  0
 48 47  1  0  0  0  0
 51 50  1  6  0  0  0
 51 52  1  0  0  0  0
 51 53  1  0  0  0  0
 52 54  1  1  0  0  0
 52 53  1  0  0  0  0
 53 48  1  1  0  0  0
 54 55  1  0  0  0  0
M  END
>  <MODEL>
8

>  <REMARK>
 VINA RESULT:      -2.2      3.401      8.755
  Name = 
  20 active torsions:
  status: ('A' for Active; 'I' for Inactive)
    1  A    between atoms: C_1  and  C_38
    2  A    between atoms: C_2  and  C_19
    3  A    between atoms: C_2  and  C_28
    4  A    between atoms: C_2  and  C_44
    5  A    between atoms: C_4  and  C_40
    6  A    between atoms: C_5  and  C_40
    7  A    between atoms: C_5  and  C_46
    8  A    between atoms: C_6  and  C_14
    9  A    between atoms: C_6  and  C_46
   10  A    between atoms: C_8  and  C_22
   11  A    between atoms: C_13  and  C_52
   12  A    between atoms: C_19  and  C_40
   13  A    between atoms: C_21  and  C_38
   14  A    between atoms: C_21  and  C_42
   15  A    between atoms: C_27  and  C_31
   16  A    between atoms: C_28  and  C_49
   17  A    between atoms: C_31  and  C_51
   18  A    between atoms: N_32  and  C_48
   19  A    between atoms: C_33  and  C_52
   20  A    between atoms: C_35  and  C_51
                            x       y       z     vdW  Elec       q    Type
                         _______ _______ _______ _____ _____    ______ ____

>  <TORSDO>
F 20

$$$$
=
 OpenBabel11062408593D

 55 61  0  0  1  0  0  0  0  0999 V2000
  160.7090  209.1950  152.8570 C   0  0  1  0  0  3  0  0  0  0  0  0
  162.9770  210.0730  152.8290 O   0  0  0  0  0  0  0  0  0  0  0  0
  161.7900  210.0880  150.7620 C   0  0  1  0  0  3  0  0  0  0  0  0
  163.7910  210.7080  151.8810 C   0  0  0  0  0  2  0  0  0  0  0  0
  162.0160  209.3700  152.0770 C   0  0  2  0  0  3  0  0  0  0  0  0
  162.9480  211.0430  150.6710 C   0  0  0  0  0  2  0  0  0  0  0  0
  161.8300  209.0850  149.6220 C   0  0  0  0  0  2  0  0  0  0  0  0
  161.4110  207.7080  150.1180 C   0  0  0  0  0  2  0  0  0  0  0  0
  162.5880  206.7500  150.0790 C   0  0  0  0  0  2  0  0  0  0  0  0
  163.5470  207.1310  148.9630 C   0  0  0  0  0  1  0  0  0  0  0  0
  159.6180  210.0430  152.2240 C   0  0  0  0  0  2  0  0  0  0  0  0
  159.1860  211.2460  156.5940 C   0  0  0  0  0  2  0  0  0  0  0  0
  158.0600  212.0200  157.2580 C   0  0  0  0  0  2  0  0  0  0  0  0
  157.6680  212.1290  154.8940 C   0  0  2  0  0  3  0  0  0  0  0  0
  157.4940  212.9220  156.1840 C   0  0  2  0  0  3  0  0  0  0  0  0
  158.2330  214.1070  156.1550 O   0  0  0  0  0  1  0  0  0  0  0  0
  158.8170  211.1410  155.1270 C   0  0  1  0  0  3  0  0  0  0  0  0
  158.3250  212.1760  152.4590 C   0  0  2  0  0  3  0  0  0  0  0  0
  157.8390  213.0110  153.6500 C   0  0  0  0  0  2  0  0  0  0  0  0
  160.0340  211.4510  154.2590 C   0  0  0  0  0  2  0  0  0  0  0  0
  159.6630  211.4630  152.7680 C   0  0  1  0  0  3  0  0  0  0  0  0
  157.7980  214.4270  151.3950 C   0  0  0  0  0  1  0  0  0  0  0  0
  158.4200  213.0400  151.1890 C   0  0  1  0  0  3  0  0  0  0  0  0
  159.8610  213.0470  150.6250 C   0  0  2  0  0  3  0  0  0  0  0  0
  160.3940  214.4480  150.3820 C   0  0  0  0  0  2  0  0  0  0  0  0
  159.9560  213.5880  149.2080 C   0  0  1  0  0  3  0  0  0  0  0  0
  161.6060  213.5100  147.3050 C   0  0  0  0  0  0  0  0  0  0  0  0
  162.7610  212.9260  146.7150 N   0  0  0  0  0  1  0  0  0  0  0  0
  161.1270  213.0210  148.5570 N   0  0  0  0  0  2  0  0  0  0  0  0
  161.0130  214.4520  146.7170 O   0  0  0  0  0  0  0  0  0  0  0  0
  160.2690  207.7340  152.9330 C   0  0  0  0  0  2  0  0  0  0  0  0
  161.0450  207.0030  154.0150 C   0  0  1  0  0  3  0  0  0  0  0  0
  160.7370  207.5890  155.3840 C   0  0  0  0  0  2  0  0  0  0  0  0
  161.8940  208.1270  155.9490 O   0  0  0  0  0  1  0  0  0  0  0  0
  160.6800  205.5330  153.9890 C   0  0  0  0  0  2  0  0  0  0  0  0
  161.5100  204.8320  152.9350 C   0  0  0  0  0  2  0  0  0  0  0  0
  160.6010  204.1620  151.9160 C   0  0  0  0  0  2  0  0  0  0  0  0
  160.9800  202.6510  148.8020 C   0  0  1  0  0  0  0  0  0  0  0  0
  160.9600  201.8760  151.0240 C   0  0  0  0  0  2  0  0  0  0  0  0
  162.8820  203.4240  151.2120 C   0  0  0  0  0  1  0  0  0  0  0  0
  161.3930  203.3310  150.9130 C   0  0  2  0  0  0  0  0  0  0  0  0
  161.1840  200.2430  149.0950 F   0  0  0  0  0  0  0  0  0  0  0  0
  160.7470  201.4520  149.6050 C   0  0  2  0  0  0  0  0  0  0  0  0
  159.6900  202.0840  148.9180 O   0  0  0  0  0  0  0  0  0  0  0  0
  161.1410  203.7950  149.6010 O   0  0  0  0  0  0  0  0  0  0  0  0
  160.7300  201.9540  146.4670 O   0  0  0  0  0  1  0  0  0  0  0  0
  161.5250  202.6800  147.3600 C   0  0  1  0  0  3  0  0  0  0  0  0
  161.7990  204.0910  146.8100 C   0  0  1  0  0  3  0  0  0  0  0  0
  163.2760  204.3140  146.5290 C   0  0  0  0  0  1  0  0  0  0  0  0
  161.4190  205.2400  143.3790 O   0  0  0  0  0  1  0  0  0  0  0  0
  161.7010  205.4540  144.7270 C   0  0  1  0  0  3  0  0  0  0  0  0
  160.4240  205.8350  145.4510 C   0  0  1  0  0  3  0  0  0  0  0  0
  160.9790  204.4080  145.5560 C   0  0  2  0  0  3  0  0  0  0  0  0
  160.7570  206.7450  146.6260 C   0  0  0  0  0  2  0  0  0  0  0  0
  159.8790  206.3790  147.8060 C   0  0  0  0  0  1  0  0  0  0  0  0
  1 11  1  6  0  0  0
  1 31  1  0  0  0  0
  3  7  1  6  0  0  0
  3  5  1  0  0  0  0
  4  2  1  0  0  0  0
  5  2  1  0  0  0  0
  5  1  1  1  0  0  0
  6  3  1  0  0  0  0
  6  4  1  0  0  0  0
  7  8  1  0  0  0  0
  9  8  1  0  0  0  0
 10  9  1  0  0  0  0
 12 13  1  0  0  0  0
 14 19  1  6  0  0  0
 14 17  1  0  0  0  0
 14 15  1  0  0  0  0
 15 16  1  6  0  0  0
 15 13  1  0  0  0  0
 17 20  1  6  0  0  0
 17 12  1  0  0  0  0
 18 23  1  6  0  0  0
 18 21  1  0  0  0  0
 18 19  1  0  0  0  0
 21 11  1  1  0  0  0
 21 20  1  0  0  0  0
 23 22  1  1  0  0  0
 24 23  1  1  0  0  0
 25 24  1  0  0  0  0
 26 29  1  6  0  0  0
 26 25  1  0  0  0  0
 26 24  1  0  0  0  0
 27 29  1  0  0  0  0
 28 27  1  0  0  0  0
 30 27  2  0  0  0  0
 32 31  1  6  0  0  0
 32 33  1  0  0  0  0
 33 34  1  0  0  0  0
 35 32  1  0  0  0  0
 36 35  1  0  0  0  0
 37 36  1  0  0  0  0
 38 47  1  6  0  0  0
 38 44  1  0  0  0  0
 38 45  1  0  0  0  0
 38 43  1  0  0  0  0
 41 39  1  0  0  0  0
 41 40  1  1  0  0  0
 41 37  1  0  0  0  0
 43 42  1  6  0  0  0
 43 39  1  0  0  0  0
 44 43  1  0  0  0  0
 45 41  1  0  0  0  0
 47 46  1  6  0  0  0
 48 49  1  6  0  0  0
 48 47  1  0  0  0  0
 51 50  1  6  0  0  0
 51 52  1  0  0  0  0
 51 53  1  0  0  0  0
 52 53  1  0  0  0  0
 52 54  1  1  0  0  0
 53 48  1  1  0  0  0
 54 55  1  0  0  0  0
M  END
>  <MODEL>
9

>  <REMARK>
 VINA RESULT:      -2.2      2.660      5.500
  Name = 
  20 active torsions:
  status: ('A' for Active; 'I' for Inactive)
    1  A    between atoms: C_1  and  C_38
    2  A    between atoms: C_2  and  C_19
    3  A    between atoms: C_2  and  C_28
    4  A    between atoms: C_2  and  C_44
    5  A    between atoms: C_4  and  C_40
    6  A    between atoms: C_5  and  C_40
    7  A    between atoms: C_5  and  C_46
    8  A    between atoms: C_6  and  C_14
    9  A    between atoms: C_6  and  C_46
   10  A    between atoms: C_8  and  C_22
   11  A    between atoms: C_13  and  C_52
   12  A    between atoms: C_19  and  C_40
   13  A    between atoms: C_21  and  C_38
   14  A    between atoms: C_21  and  C_42
   15  A    between atoms: C_27  and  C_31
   16  A    between atoms: C_28  and  C_49
   17  A    between atoms: C_31  and  C_51
   18  A    between atoms: N_32  and  C_48
   19  A    between atoms: C_33  and  C_52
   20  A    between atoms: C_35  and  C_51
                            x       y       z     vdW  Elec       q    Type
                         _______ _______ _______ _____ _____    ______ ____

>  <TORSDO>
F 20

$$$$
