=
 OpenBabel11062410123D

 43 48  0  0  1  0  0  0  0  0999 V2000
  161.0160  206.6410  152.8610 C   0  0  0  0  0  3  0  0  0  0  0  0
  160.6910  202.2560  146.7880 C   0  0  1  0  0  3  0  0  0  0  0  0
  161.1060  205.5150  150.6950 C   0  0  0  0  0  0  0  0  0  0  0  0
  161.5780  208.0340  149.4570 C   0  0  0  0  0  0  0  0  0  0  0  0
  160.9490  203.2580  149.0800 C   0  0  0  0  0  0  0  0  0  0  0  0
  161.6370  203.3430  146.2990 C   0  0  0  0  0  2  0  0  0  0  0  0
  160.9280  200.9840  146.0040 C   0  0  0  0  0  1  0  0  0  0  0  0
  161.2050  204.5150  148.4900 C   0  0  0  0  0  0  0  0  0  0  0  0
  160.9360  201.9910  148.2710 C   0  0  0  0  0  2  0  0  0  0  0  0
  161.3010  204.6600  146.9910 C   0  0  0  0  0  2  0  0  0  0  0  0
  161.5010  206.9550  148.7350 N   0  0  0  0  0  0  0  0  0  0  0  0
  161.2710  205.6550  149.3070 C   0  0  0  0  0  0  0  0  0  0  0  0
  160.8810  204.2870  151.2370 N   0  0  0  0  0  0  0  0  0  0  0  0
  161.1780  206.7240  151.5330 C   0  0  0  0  0  0  0  0  0  0  0  0
  161.4170  207.9740  150.8790 N   0  0  0  0  0  2  0  0  0  0  0  0
  160.8060  203.1700  150.4650 C   0  0  0  0  0  3  0  0  0  0  0  0
  161.1270  208.4390  156.1640 C   0  0  0  0  0  3  0  0  0  0  0  0
  161.0930  209.7810  155.7760 C   0  0  0  0  0  0  0  0  0  0  0  0
  161.0210  209.1020  153.4530 C   0  0  0  0  0  3  0  0  0  0  0  0
  161.1010  207.4290  155.1960 C   0  0  0  0  0  3  0  0  0  0  0  0
  161.0480  207.7520  153.8360 C   0  0  0  0  0  0  0  0  0  0  0  0
  161.0470  210.1130  154.4190 C   0  0  0  0  0  3  0  0  0  0  0  0
  159.8470  211.2660  157.1200 O   0  0  0  0  0  1  0  0  0  0  0  0
  161.1420  210.8550  156.8040 C   0  0  0  0  0  2  0  0  0  0  0  0
  161.7970  209.3490  148.8000 C   0  0  0  0  0  2  0  0  0  0  0  0
  162.1800  210.3890  149.8440 C   0  0  0  0  0  2  0  0  0  0  0  0
  161.2150  211.5830  149.8470 C   0  0  2  0  0  3  0  0  0  0  0  0
  161.7100  212.6860  148.9940 N   0  0  0  0  0  0  0  0  0  0  0  0
  161.4210  213.7180  146.8420 C   0  0  0  0  0  2  0  0  0  0  0  0
  162.7510  212.1740  148.1070 C   0  0  0  0  0  2  0  0  0  0  0  0
  160.6880  213.2420  148.0850 C   0  0  1  0  0  0  0  0  0  0  0  0
  159.7540  212.2660  147.7050 O   0  0  0  0  0  1  0  0  0  0  0  0
  162.7750  213.0550  146.8810 C   0  0  0  0  0  2  0  0  0  0  0  0
  159.9870  214.4250  148.7600 C   0  0  0  0  0  2  0  0  0  0  0  0
  158.4980  214.3750  148.6330 C   0  0  0  0  0  0  0  0  0  0  0  0
  156.5490  214.4050  147.7120 N   0  0  0  0  0  0  0  0  0  0  0  0
  156.3920  214.3030  149.0430 C   0  0  0  0  0  0  0  0  0  0  0  0
  155.0680  214.2270  149.7120 C   0  0  0  0  0  1  0  0  0  0  0  0
  157.6120  214.2820  149.6900 C   0  0  0  0  0  2  0  0  0  0  0  0
  157.8450  214.4510  147.4590 N   0  0  0  0  0  0  0  0  0  0  0  0
  160.9780  212.0420  151.2860 C   0  0  0  0  0  2  0  0  0  0  0  0
  159.4460  212.9990  152.5500 C   0  0  0  0  0  1  0  0  0  0  0  0
  159.6150  212.0120  151.5800 O   0  0  0  0  0  0  0  0  0  0  0  0
  1 21  1  0  0  0  0
  2  7  1  6  0  0  0
  2  9  1  0  0  0  0
  3 13  1  0  0  0  0
  3 14  1  0  0  0  0
  4 15  1  0  0  0  0
  5 16  1  0  0  0  0
  6  2  1  0  0  0  0
  6 10  1  0  0  0  0
  8  5  2  0  0  0  0
  8 12  1  0  0  0  0
  9  5  1  0  0  0  0
 10  8  1  0  0  0  0
 11 12  1  0  0  0  0
 11  4  2  0  0  0  0
 12  3  2  0  0  0  0
 14  1  2  0  0  0  0
 15 14  1  0  0  0  0
 16 13  2  0  0  0  0
 18 17  1  0  0  0  0
 18 24  1  0  0  0  0
 19 21  2  0  0  0  0
 19 22  1  0  0  0  0
 20 17  2  0  0  0  0
 21 20  1  0  0  0  0
 22 18  2  0  0  0  0
 24 23  1  0  0  0  0
 25  4  1  0  0  0  0
 25 26  1  0  0  0  0
 27 26  1  1  0  0  0
 27 41  1  0  0  0  0
 28 27  1  0  0  0  0
 29 33  1  0  0  0  0
 29 31  1  0  0  0  0
 30 28  1  0  0  0  0
 31 32  1  6  0  0  0
 31 34  1  0  0  0  0
 31 28  1  0  0  0  0
 33 30  1  0  0  0  0
 35 34  1  0  0  0  0
 35 39  1  0  0  0  0
 36 37  2  0  0  0  0
 37 39  1  0  0  0  0
 37 38  1  0  0  0  0
 40 36  1  0  0  0  0
 40 35  2  0  0  0  0
 41 43  1  0  0  0  0
 43 42  1  0  0  0  0
M  END
>  <MODEL>
1

>  <REMARK>
 VINA RESULT:      -8.3      0.000      0.000
  Name = 
  10 active torsions:
  status: ('A' for Active; 'I' for Inactive)
    1  A    between atoms: C_1  and  C_35
    2  A    between atoms: C_2  and  C_6
    3  A    between atoms: C_2  and  C_13
    4  A    between atoms: C_3  and  N_4
    5  A    between atoms: C_3  and  C_6
    6  A    between atoms: C_3  and  C_12
    7  A    between atoms: C_11  and  C_14
    8  A    between atoms: C_12  and  O_17
    9  A    between atoms: C_14  and  C_22
   10  A    between atoms: C_19  and  C_37
                            x       y       z     vdW  Elec       q    Type
                         _______ _______ _______ _____ _____    ______ ____

>  <TORSDO>
F 10

$$$$
=
 OpenBabel11062410123D

 43 48  0  0  1  0  0  0  0  0999 V2000
  160.9040  208.4710  153.0560 C   0  0  0  0  0  3  0  0  0  0  0  0
  161.2820  204.7070  146.5830 C   0  0  1  0  0  3  0  0  0  0  0  0
  161.2580  207.5540  150.8200 C   0  0  0  0  0  0  0  0  0  0  0  0
  161.9860  210.1540  149.9190 C   0  0  0  0  0  0  0  0  0  0  0  0
  161.2510  205.4720  148.9780 C   0  0  0  0  0  0  0  0  0  0  0  0
  162.3240  205.7880  146.3400 C   0  0  0  0  0  2  0  0  0  0  0  0
  161.5830  203.5050  145.7130 C   0  0  0  0  0  1  0  0  0  0  0  0
  161.6310  206.7650  148.5590 C   0  0  0  0  0  0  0  0  0  0  0  0
  161.3070  204.2900  148.0510 C   0  0  0  0  0  2  0  0  0  0  0  0
  161.9410  207.0480  147.1100 C   0  0  0  0  0  2  0  0  0  0  0  0
  161.9730  209.1530  149.0870 N   0  0  0  0  0  0  0  0  0  0  0  0
  161.6210  207.8180  149.4880 C   0  0  0  0  0  0  0  0  0  0  0  0
  160.9170  206.2920  151.1990 N   0  0  0  0  0  0  0  0  0  0  0  0
  161.2530  208.6720  151.7780 C   0  0  0  0  0  0  0  0  0  0  0  0
  161.6250  209.9660  151.2930 N   0  0  0  0  0  2  0  0  0  0  0  0
  160.9120  205.2590  150.3150 C   0  0  0  0  0  3  0  0  0  0  0  0
  159.4940  211.0930  155.3560 C   0  0  0  0  0  3  0  0  0  0  0  0
  160.6010  211.4300  156.1400 C   0  0  0  0  0  0  0  0  0  0  0  0
  161.9430  209.8200  154.9290 C   0  0  0  0  0  3  0  0  0  0  0  0
  159.6150  210.1240  154.3550 C   0  0  0  0  0  3  0  0  0  0  0  0
  160.8380  209.4810  154.1330 C   0  0  0  0  0  0  0  0  0  0  0  0
  161.8250  210.7880  155.9310 C   0  0  0  0  0  3  0  0  0  0  0  0
  159.1920  213.0110  157.1800 O   0  0  0  0  0  1  0  0  0  0  0  0
  160.4670  212.4450  157.2200 C   0  0  0  0  0  2  0  0  0  0  0  0
  162.3410  211.5140  149.4340 C   0  0  0  0  0  2  0  0  0  0  0  0
  161.9520  211.6560  147.9700 C   0  0  0  0  0  2  0  0  0  0  0  0
  161.1550  212.9420  147.7080 C   0  0  2  0  0  3  0  0  0  0  0  0
  161.4710  213.5200  146.3840 N   0  0  0  0  0  0  0  0  0  0  0  0
  161.1410  213.1910  144.0260 C   0  0  0  0  0  2  0  0  0  0  0  0
  162.6640  212.8670  145.8500 C   0  0  0  0  0  2  0  0  0  0  0  0
  160.4300  213.2810  145.3650 C   0  0  1  0  0  0  0  0  0  0  0  0
  159.7560  212.0710  145.5940 O   0  0  0  0  0  1  0  0  0  0  0  0
  162.5980  212.9630  144.3450 C   0  0  0  0  0  2  0  0  0  0  0  0
  159.4430  214.4530  145.3520 C   0  0  0  0  0  2  0  0  0  0  0  0
  158.1810  214.1650  146.1000 C   0  0  0  0  0  0  0  0  0  0  0  0
  156.1050  213.7040  146.4540 N   0  0  0  0  0  0  0  0  0  0  0  0
  156.7090  213.8960  147.6390 C   0  0  0  0  0  0  0  0  0  0  0  0
  156.0100  213.7930  148.9460 C   0  0  0  0  0  1  0  0  0  0  0  0
  158.0470  214.1980  147.4760 C   0  0  0  0  0  2  0  0  0  0  0  0
  157.0100  213.8730  145.5060 N   0  0  0  0  0  0  0  0  0  0  0  0
  161.4150  213.9390  148.8380 C   0  0  0  0  0  2  0  0  0  0  0  0
  160.1470  213.7830  150.6360 C   0  0  0  0  0  1  0  0  0  0  0  0
  160.2050  214.3790  149.3770 O   0  0  0  0  0  0  0  0  0  0  0  0
  1 21  1  0  0  0  0
  2  7  1  6  0  0  0
  2  9  1  0  0  0  0
  3 13  1  0  0  0  0
  3 14  1  0  0  0  0
  4 15  1  0  0  0  0
  5 16  1  0  0  0  0
  6  2  1  0  0  0  0
  6 10  1  0  0  0  0
  8  5  2  0  0  0  0
  8 12  1  0  0  0  0
  9  5  1  0  0  0  0
 10  8  1  0  0  0  0
 11 12  1  0  0  0  0
 11  4  2  0  0  0  0
 12  3  2  0  0  0  0
 14  1  2  0  0  0  0
 15 14  1  0  0  0  0
 16 13  2  0  0  0  0
 17 18  1  0  0  0  0
 18 24  1  0  0  0  0
 19 22  1  0  0  0  0
 20 17  2  0  0  0  0
 21 20  1  0  0  0  0
 21 19  2  0  0  0  0
 22 18  2  0  0  0  0
 23 24  1  0  0  0  0
 25  4  1  0  0  0  0
 26 25  1  0  0  0  0
 27 26  1  1  0  0  0
 27 41  1  0  0  0  0
 28 27  1  0  0  0  0
 29 33  1  0  0  0  0
 29 31  1  0  0  0  0
 30 28  1  0  0  0  0
 31 32  1  1  0  0  0
 31 28  1  0  0  0  0
 33 30  1  0  0  0  0
 34 31  1  0  0  0  0
 34 35  1  0  0  0  0
 35 39  1  0  0  0  0
 36 37  2  0  0  0  0
 37 38  1  0  0  0  0
 39 37  1  0  0  0  0
 40 35  2  0  0  0  0
 40 36  1  0  0  0  0
 41 43  1  0  0  0  0
 43 42  1  0  0  0  0
M  END
>  <MODEL>
2

>  <REMARK>
 VINA RESULT:      -7.8      1.655      2.351
  Name = 
  10 active torsions:
  status: ('A' for Active; 'I' for Inactive)
    1  A    between atoms: C_1  and  C_35
    2  A    between atoms: C_2  and  C_6
    3  A    between atoms: C_2  and  C_13
    4  A    between atoms: C_3  and  N_4
    5  A    between atoms: C_3  and  C_6
    6  A    between atoms: C_3  and  C_12
    7  A    between atoms: C_11  and  C_14
    8  A    between atoms: C_12  and  O_17
    9  A    between atoms: C_14  and  C_22
   10  A    between atoms: C_19  and  C_37
                            x       y       z     vdW  Elec       q    Type
                         _______ _______ _______ _____ _____    ______ ____

>  <TORSDO>
F 10

$$$$
=
 OpenBabel11062410123D

 43 48  0  0  1  0  0  0  0  0999 V2000
  161.2180  205.4450  150.2520 C   0  0  0  0  0  3  0  0  0  0  0  0
  161.6920  210.3600  155.8950 C   0  0  1  0  0  3  0  0  0  0  0  0
  161.2760  207.3250  151.8110 C   0  0  0  0  0  0  0  0  0  0  0  0
  161.5380  209.0940  149.5970 C   0  0  0  0  0  0  0  0  0  0  0  0
  161.2520  208.4090  154.3710 C   0  0  0  0  0  0  0  0  0  0  0  0
  161.0810  211.2360  154.8110 C   0  0  0  0  0  2  0  0  0  0  0  0
  161.3420  210.9180  157.2580 C   0  0  0  0  0  1  0  0  0  0  0  0
  161.3570  209.2690  153.2570 C   0  0  0  0  0  0  0  0  0  0  0  0
  161.1490  208.9390  155.7740 C   0  0  0  0  0  2  0  0  0  0  0  0
  161.5510  210.7540  153.4420 C   0  0  0  0  0  2  0  0  0  0  0  0
  161.5200  209.5630  150.8100 N   0  0  0  0  0  0  0  0  0  0  0  0
  161.3830  208.7180  151.9650 C   0  0  0  0  0  0  0  0  0  0  0  0
  161.1540  206.5230  152.9050 N   0  0  0  0  0  0  0  0  0  0  0  0
  161.3060  206.7680  150.4490 C   0  0  0  0  0  0  0  0  0  0  0  0
  161.4380  207.6850  149.3580 N   0  0  0  0  0  2  0  0  0  0  0  0
  161.1350  207.0330  154.1640 C   0  0  0  0  0  3  0  0  0  0  0  0
  161.0810  202.6130  147.7800 C   0  0  0  0  0  3  0  0  0  0  0  0
  161.2910  203.2680  146.5630 C   0  0  0  0  0  0  0  0  0  0  0  0
  161.4460  205.3810  147.7330 C   0  0  0  0  0  3  0  0  0  0  0  0
  161.0610  203.3430  148.9730 C   0  0  0  0  0  3  0  0  0  0  0  0
  161.2430  204.7300  148.9590 C   0  0  0  0  0  0  0  0  0  0  0  0
  161.4670  204.6540  146.5390 C   0  0  0  0  0  3  0  0  0  0  0  0
  160.0050  202.0210  145.0280 O   0  0  0  0  0  1  0  0  0  0  0  0
  161.2910  202.4940  145.2920 C   0  0  0  0  0  2  0  0  0  0  0  0
  161.7020  210.0220  148.4470 C   0  0  0  0  0  2  0  0  0  0  0  0
  162.3750  211.3050  148.9140 C   0  0  0  0  0  2  0  0  0  0  0  0
  161.6400  212.5550  148.4110 C   0  0  2  0  0  3  0  0  0  0  0  0
  160.2320  212.5800  148.8630 N   0  0  0  0  0  0  0  0  0  0  0  0
  158.2540  213.9450  148.8870 C   0  0  0  0  0  2  0  0  0  0  0  0
  160.1590  213.2430  150.1630 C   0  0  0  0  0  2  0  0  0  0  0  0
  159.3380  213.3700  147.9930 C   0  0  1  0  0  0  0  0  0  0  0  0
  160.0250  214.4330  147.3850 O   0  0  0  0  0  1  0  0  0  0  0  0
  158.7730  213.8230  150.2980 C   0  0  0  0  0  2  0  0  0  0  0  0
  158.7110  212.4570  146.9350 C   0  0  0  0  0  2  0  0  0  0  0  0
  158.5740  213.1150  145.5990 C   0  0  0  0  0  0  0  0  0  0  0  0
  157.8410  214.4480  144.0710 N   0  0  0  0  0  0  0  0  0  0  0  0
  158.7580  213.6320  143.5240 C   0  0  0  0  0  0  0  0  0  0  0  0
  159.1600  213.6860  142.0940 C   0  0  0  0  0  1  0  0  0  0  0  0
  159.2640  212.7490  144.4590 C   0  0  0  0  0  3  0  0  0  0  0  0
  157.7260  214.1280  145.3490 N   0  0  0  0  0  2  0  0  0  0  0  0
  161.7470  212.6290  146.8870 C   0  0  0  0  0  2  0  0  0  0  0  0
  162.9410  213.3480  145.1780 C   0  0  0  0  0  1  0  0  0  0  0  0
  163.0480  212.9650  146.5140 O   0  0  0  0  0  0  0  0  0  0  0  0
  1 14  2  0  0  0  0
  2  7  1  1  0  0  0
  3 12  2  0  0  0  0
  3 13  1  0  0  0  0
  4 11  2  0  0  0  0
  5  9  1  0  0  0  0
  6  2  1  0  0  0  0
  8 10  1  0  0  0  0
  8  5  2  0  0  0  0
  9  2  1  0  0  0  0
 10  6  1  0  0  0  0
 11 12  1  0  0  0  0
 12  8  1  0  0  0  0
 13 16  2  0  0  0  0
 14  3  1  0  0  0  0
 15  4  1  0  0  0  0
 15 14  1  0  0  0  0
 16  5  1  0  0  0  0
 17 20  1  0  0  0  0
 18 17  2  0  0  0  0
 19 21  1  0  0  0  0
 21 20  2  0  0  0  0
 21  1  1  0  0  0  0
 22 18  1  0  0  0  0
 22 19  2  0  0  0  0
 23 24  1  0  0  0  0
 24 18  1  0  0  0  0
 25 26  1  0  0  0  0
 25  4  1  0  0  0  0
 27 41  1  6  0  0  0
 27 28  1  0  0  0  0
 27 26  1  0  0  0  0
 28 30  1  0  0  0  0
 29 33  1  0  0  0  0
 30 33  1  0  0  0  0
 31 32  1  6  0  0  0
 31 28  1  0  0  0  0
 31 29  1  0  0  0  0
 34 31  1  0  0  0  0
 35 34  1  0  0  0  0
 36 40  1  0  0  0  0
 37 36  2  0  0  0  0
 37 39  1  0  0  0  0
 38 37  1  0  0  0  0
 39 35  2  0  0  0  0
 40 35  1  0  0  0  0
 42 43  1  0  0  0  0
 43 41  1  0  0  0  0
M  END
>  <MODEL>
3

>  <REMARK>
 VINA RESULT:      -7.1      2.466      7.064
  Name = 
  10 active torsions:
  status: ('A' for Active; 'I' for Inactive)
    1  A    between atoms: C_1  and  C_35
    2  A    between atoms: C_2  and  C_6
    3  A    between atoms: C_2  and  C_13
    4  A    between atoms: C_3  and  N_4
    5  A    between atoms: C_3  and  C_6
    6  A    between atoms: C_3  and  C_12
    7  A    between atoms: C_11  and  C_14
    8  A    between atoms: C_12  and  O_17
    9  A    between atoms: C_14  and  C_22
   10  A    between atoms: C_19  and  C_37
                            x       y       z     vdW  Elec       q    Type
                         _______ _______ _______ _____ _____    ______ ____

>  <TORSDO>
F 10

$$$$
=
 OpenBabel11062410123D

 43 48  0  0  1  0  0  0  0  0999 V2000
  161.0150  207.3260  152.7340 C   0  0  0  0  0  3  0  0  0  0  0  0
  161.1880  204.0860  145.9740 C   0  0  1  0  0  3  0  0  0  0  0  0
  161.2780  206.6010  150.4160 C   0  0  0  0  0  0  0  0  0  0  0  0
  161.8200  209.2970  149.6820 C   0  0  0  0  0  0  0  0  0  0  0  0
  161.2630  204.6660  148.4200 C   0  0  0  0  0  0  0  0  0  0  0  0
  162.1580  205.2380  145.7580 C   0  0  0  0  0  2  0  0  0  0  0  0
  161.4950  202.9720  144.9980 C   0  0  0  0  0  1  0  0  0  0  0  0
  161.5520  206.0060  148.0820 C   0  0  0  0  0  0  0  0  0  0  0  0
  161.3220  203.5620  147.4010 C   0  0  0  0  0  2  0  0  0  0  0  0
  161.7590  206.4140  146.6450 C   0  0  0  0  0  2  0  0  0  0  0  0
  161.8060  208.3630  148.7770 N   0  0  0  0  0  0  0  0  0  0  0  0
  161.5460  206.9840  149.0900 C   0  0  0  0  0  0  0  0  0  0  0  0
  161.0240  205.2970  150.7130 N   0  0  0  0  0  0  0  0  0  0  0  0
  161.2760  207.6410  151.4570 C   0  0  0  0  0  0  0  0  0  0  0  0
  161.5520  208.9860  151.0550 N   0  0  0  0  0  2  0  0  0  0  0  0
  161.0170  204.3350  149.7530 C   0  0  0  0  0  3  0  0  0  0  0  0
  160.5750  210.5020  154.7000 C   0  0  0  0  0  3  0  0  0  0  0  0
  160.8550  210.0880  156.0060 C   0  0  0  0  0  0  0  0  0  0  0  0
  161.2370  207.8360  155.2030 C   0  0  0  0  0  3  0  0  0  0  0  0
  160.6330  209.5840  153.6470 C   0  0  0  0  0  3  0  0  0  0  0  0
  160.9640  208.2460  153.8890 C   0  0  0  0  0  0  0  0  0  0  0  0
  161.1790  208.7520  156.2580 C   0  0  0  0  0  3  0  0  0  0  0  0
  160.1550  212.2330  156.6940 O   0  0  0  0  0  1  0  0  0  0  0  0
  160.7720  211.0600  157.1290 C   0  0  0  0  0  2  0  0  0  0  0  0
  162.0760  210.7070  149.2860 C   0  0  0  0  0  2  0  0  0  0  0  0
  161.2040  211.0730  148.0930 C   0  0  0  0  0  2  0  0  0  0  0  0
  160.7190  212.5270  148.1600 C   0  0  2  0  0  3  0  0  0  0  0  0
  160.2440  213.0060  146.8440 N   0  0  0  0  0  0  0  0  0  0  0  0
  158.4440  212.7890  145.2650 C   0  0  0  0  0  2  0  0  0  0  0  0
  160.6620  212.0600  145.8130 C   0  0  0  0  0  2  0  0  0  0  0  0
  158.7730  213.0590  146.7220 C   0  0  1  0  0  0  0  0  0  0  0  0
  158.1580  212.0730  147.5090 O   0  0  0  0  0  1  0  0  0  0  0  0
  159.6870  212.1770  144.6670 C   0  0  0  0  0  2  0  0  0  0  0  0
  158.2750  214.4530  147.1180 C   0  0  0  0  0  2  0  0  0  0  0  0
  157.2370  214.4210  148.1940 C   0  0  0  0  0  0  0  0  0  0  0  0
  155.2910  214.4140  149.1210 N   0  0  0  0  0  0  0  0  0  0  0  0
  156.2250  214.4240  150.0870 C   0  0  0  0  0  0  0  0  0  0  0  0
  155.9090  214.4290  151.5390 C   0  0  0  0  0  1  0  0  0  0  0  0
  157.4990  214.4320  149.5510 C   0  0  0  0  0  2  0  0  0  0  0  0
  155.9130  214.4150  147.9550 N   0  0  0  0  0  0  0  0  0  0  0  0
  161.8360  213.4110  148.7150 C   0  0  0  0  0  2  0  0  0  0  0  0
  163.5000  214.4320  147.6900 C   0  0  0  0  0  1  0  0  0  0  0  0
  162.1130  214.4490  147.8250 O   0  0  0  0  0  0  0  0  0  0  0  0
  1 21  1  0  0  0  0
  2  7  1  6  0  0  0
  2  9  1  0  0  0  0
  3 13  1  0  0  0  0
  3 14  1  0  0  0  0
  4 15  1  0  0  0  0
  5 16  1  0  0  0  0
  6  2  1  0  0  0  0
  6 10  1  0  0  0  0
  8  5  2  0  0  0  0
  8 12  1  0  0  0  0
  9  5  1  0  0  0  0
 10  8  1  0  0  0  0
 11 12  1  0  0  0  0
 11  4  2  0  0  0  0
 12  3  2  0  0  0  0
 14  1  2  0  0  0  0
 15 14  1  0  0  0  0
 16 13  2  0  0  0  0
 17 18  1  0  0  0  0
 18 22  2  0  0  0  0
 18 24  1  0  0  0  0
 19 22  1  0  0  0  0
 20 21  1  0  0  0  0
 20 17  2  0  0  0  0
 21 19  2  0  0  0  0
 23 24  1  0  0  0  0
 25  4  1  0  0  0  0
 26 25  1  0  0  0  0
 27 26  1  6  0  0  0
 27 41  1  0  0  0  0
 28 27  1  0  0  0  0
 29 31  1  0  0  0  0
 30 28  1  0  0  0  0
 31 28  1  0  0  0  0
 31 34  1  0  0  0  0
 31 32  1  1  0  0  0
 33 29  1  0  0  0  0
 33 30  1  0  0  0  0
 34 35  1  0  0  0  0
 35 39  1  0  0  0  0
 36 37  2  0  0  0  0
 37 38  1  0  0  0  0
 39 37  1  0  0  0  0
 40 35  2  0  0  0  0
 40 36  1  0  0  0  0
 42 43  1  0  0  0  0
 43 41  1  0  0  0  0
M  END
>  <MODEL>
4

>  <REMARK>
 VINA RESULT:      -7.1      1.554      2.285
  Name = 
  10 active torsions:
  status: ('A' for Active; 'I' for Inactive)
    1  A    between atoms: C_1  and  C_35
    2  A    between atoms: C_2  and  C_6
    3  A    between atoms: C_2  and  C_13
    4  A    between atoms: C_3  and  N_4
    5  A    between atoms: C_3  and  C_6
    6  A    between atoms: C_3  and  C_12
    7  A    between atoms: C_11  and  C_14
    8  A    between atoms: C_12  and  O_17
    9  A    between atoms: C_14  and  C_22
   10  A    between atoms: C_19  and  C_37
                            x       y       z     vdW  Elec       q    Type
                         _______ _______ _______ _____ _____    ______ ____

>  <TORSDO>
F 10

$$$$
=
 OpenBabel11062410123D

 43 48  0  0  1  0  0  0  0  0999 V2000
  161.0870  205.2950  150.5780 C   0  0  0  0  0  3  0  0  0  0  0  0
  161.5550  210.5300  155.9250 C   0  0  1  0  0  3  0  0  0  0  0  0
  161.1780  207.2660  152.0190 C   0  0  0  0  0  0  0  0  0  0  0  0
  161.6830  208.8660  149.7190 C   0  0  0  0  0  0  0  0  0  0  0  0
  161.0770  208.5140  154.5000 C   0  0  0  0  0  0  0  0  0  0  0  0
  161.0680  211.3690  154.7530 C   0  0  0  0  0  2  0  0  0  0  0  0
  161.1640  211.1970  157.2260 C   0  0  0  0  0  1  0  0  0  0  0  0
  161.3030  209.2910  153.3430 C   0  0  0  0  0  0  0  0  0  0  0  0
  160.9280  209.1410  155.8590 C   0  0  0  0  0  2  0  0  0  0  0  0
  161.5830  210.7700  153.4480 C   0  0  0  0  0  2  0  0  0  0  0  0
  161.6260  209.4140  150.8980 N   0  0  0  0  0  0  0  0  0  0  0  0
  161.3670  208.6560  152.0930 C   0  0  0  0  0  0  0  0  0  0  0  0
  160.9400  206.5460  153.1500 N   0  0  0  0  0  0  0  0  0  0  0  0
  161.2500  206.6200  150.6970 C   0  0  0  0  0  0  0  0  0  0  0  0
  161.5050  207.4530  149.5620 N   0  0  0  0  0  2  0  0  0  0  0  0
  160.8820  207.1380  154.3720 C   0  0  0  0  0  3  0  0  0  0  0  0
  160.6950  202.3770  148.2370 C   0  0  0  0  0  3  0  0  0  0  0  0
  161.2100  202.8820  147.0400 C   0  0  0  0  0  0  0  0  0  0  0  0
  161.6490  204.9990  148.1280 C   0  0  0  0  0  3  0  0  0  0  0  0
  160.6640  203.1820  149.3800 C   0  0  0  0  0  3  0  0  0  0  0  0
  161.1400  204.4960  149.3360 C   0  0  0  0  0  0  0  0  0  0  0  0
  161.6810  204.1970  146.9840 C   0  0  0  0  0  3  0  0  0  0  0  0
  161.0000  200.7010  146.1670 O   0  0  0  0  0  1  0  0  0  0  0  0
  161.2220  202.0330  145.8180 C   0  0  0  0  0  2  0  0  0  0  0  0
  161.9760  209.7040  148.5270 C   0  0  0  0  0  2  0  0  0  0  0  0
  162.2980  211.1260  148.9640 C   0  0  0  0  0  2  0  0  0  0  0  0
  161.0980  212.0680  148.7880 C   0  0  2  0  0  3  0  0  0  0  0  0
  161.5060  213.3680  148.2110 N   0  0  0  0  0  0  0  0  0  0  0  0
  162.0520  214.4530  146.1370 C   0  0  0  0  0  2  0  0  0  0  0  0
  162.9610  213.4020  148.0920 C   0  0  0  0  0  2  0  0  0  0  0  0
  161.0160  213.5910  146.8360 C   0  0  1  0  0  0  0  0  0  0  0  0
  160.8940  212.3820  146.1330 O   0  0  0  0  0  1  0  0  0  0  0  0
  163.3020  214.3620  146.9780 C   0  0  0  0  0  2  0  0  0  0  0  0
  159.6720  214.3260  146.8810 C   0  0  0  0  0  2  0  0  0  0  0  0
  158.9830  214.3710  145.5550 C   0  0  0  0  0  0  0  0  0  0  0  0
  157.3820  214.3610  144.1120 N   0  0  0  0  0  0  0  0  0  0  0  0
  158.5520  214.4110  143.4530 C   0  0  0  0  0  0  0  0  0  0  0  0
  158.6620  214.4520  141.9720 C   0  0  0  0  0  1  0  0  0  0  0  0
  159.6200  214.4170  144.3290 C   0  0  0  0  0  3  0  0  0  0  0  0
  157.6470  214.3340  145.4070 N   0  0  0  0  0  2  0  0  0  0  0  0
  160.3860  212.2410  150.1290 C   0  0  0  0  0  2  0  0  0  0  0  0
  158.5100  213.2060  150.7700 C   0  0  0  0  0  1  0  0  0  0  0  0
  159.7400  213.4760  150.1730 O   0  0  0  0  0  0  0  0  0  0  0  0
  1 14  2  0  0  0  0
  2  7  1  1  0  0  0
  3 12  2  0  0  0  0
  3 13  1  0  0  0  0
  4 11  2  0  0  0  0
  5  9  1  0  0  0  0
  6  2  1  0  0  0  0
  8 10  1  0  0  0  0
  8  5  2  0  0  0  0
  9  2  1  0  0  0  0
 10  6  1  0  0  0  0
 11 12  1  0  0  0  0
 12  8  1  0  0  0  0
 13 16  2  0  0  0  0
 14  3  1  0  0  0  0
 15  4  1  0  0  0  0
 15 14  1  0  0  0  0
 16  5  1  0  0  0  0
 17 20  1  0  0  0  0
 18 17  2  0  0  0  0
 19 21  1  0  0  0  0
 21 20  2  0  0  0  0
 21  1  1  0  0  0  0
 22 18  1  0  0  0  0
 22 19  2  0  0  0  0
 24 23  1  0  0  0  0
 24 18  1  0  0  0  0
 25 26  1  0  0  0  0
 25  4  1  0  0  0  0
 27 26  1  1  0  0  0
 27 41  1  0  0  0  0
 28 27  1  0  0  0  0
 29 31  1  0  0  0  0
 29 33  1  0  0  0  0
 30 28  1  0  0  0  0
 31 32  1  6  0  0  0
 31 34  1  0  0  0  0
 31 28  1  0  0  0  0
 33 30  1  0  0  0  0
 35 34  1  0  0  0  0
 36 40  1  0  0  0  0
 37 36  2  0  0  0  0
 37 39  1  0  0  0  0
 38 37  1  0  0  0  0
 39 35  2  0  0  0  0
 40 35  1  0  0  0  0
 41 43  1  0  0  0  0
 43 42  1  0  0  0  0
M  END
>  <MODEL>
5

>  <REMARK>
 VINA RESULT:      -7.1      2.523      6.760
  Name = 
  10 active torsions:
  status: ('A' for Active; 'I' for Inactive)
    1  A    between atoms: C_1  and  C_35
    2  A    between atoms: C_2  and  C_6
    3  A    between atoms: C_2  and  C_13
    4  A    between atoms: C_3  and  N_4
    5  A    between atoms: C_3  and  C_6
    6  A    between atoms: C_3  and  C_12
    7  A    between atoms: C_11  and  C_14
    8  A    between atoms: C_12  and  O_17
    9  A    between atoms: C_14  and  C_22
   10  A    between atoms: C_19  and  C_37
                            x       y       z     vdW  Elec       q    Type
                         _______ _______ _______ _____ _____    ______ ____

>  <TORSDO>
F 10

$$$$
=
 OpenBabel11062410123D

 43 48  0  0  1  0  0  0  0  0999 V2000
  161.0930  205.5700  150.2750 C   0  0  0  0  0  3  0  0  0  0  0  0
  161.6240  210.4870  155.9100 C   0  0  1  0  0  3  0  0  0  0  0  0
  161.2010  207.4550  151.8260 C   0  0  0  0  0  0  0  0  0  0  0  0
  161.6820  209.1850  149.6180 C   0  0  0  0  0  0  0  0  0  0  0  0
  161.1280  208.5570  154.3770 C   0  0  0  0  0  0  0  0  0  0  0  0
  161.1230  211.3930  154.7940 C   0  0  0  0  0  2  0  0  0  0  0  0
  161.2480  211.0780  157.2520 C   0  0  0  0  0  1  0  0  0  0  0  0
  161.3420  209.4000  153.2640 C   0  0  0  0  0  0  0  0  0  0  0  0
  160.9950  209.1040  155.7710 C   0  0  0  0  0  2  0  0  0  0  0  0
  161.6240  210.8700  153.4510 C   0  0  0  0  0  2  0  0  0  0  0  0
  161.6380  209.6640  150.8260 N   0  0  0  0  0  0  0  0  0  0  0  0
  161.3920  208.8380  151.9780 C   0  0  0  0  0  0  0  0  0  0  0  0
  160.9760  206.6710  152.9160 N   0  0  0  0  0  0  0  0  0  0  0  0
  161.2580  206.8860  150.4690 C   0  0  0  0  0  0  0  0  0  0  0  0
  161.5010  207.7830  149.3810 N   0  0  0  0  0  2  0  0  0  0  0  0
  160.9310  207.1910  154.1710 C   0  0  0  0  0  3  0  0  0  0  0  0
  161.1710  202.7070  147.8360 C   0  0  0  0  0  3  0  0  0  0  0  0
  161.2220  203.3650  146.6040 C   0  0  0  0  0  0  0  0  0  0  0  0
  161.1760  205.4980  147.7470 C   0  0  0  0  0  3  0  0  0  0  0  0
  161.1290  203.4470  149.0230 C   0  0  0  0  0  3  0  0  0  0  0  0
  161.1310  204.8450  148.9880 C   0  0  0  0  0  0  0  0  0  0  0  0
  161.2180  204.7620  146.5590 C   0  0  0  0  0  3  0  0  0  0  0  0
  160.0070  202.6720  144.7040 O   0  0  0  0  0  1  0  0  0  0  0  0
  161.2450  202.5780  145.3410 C   0  0  0  0  0  2  0  0  0  0  0  0
  161.9610  210.0910  148.4730 C   0  0  0  0  0  2  0  0  0  0  0  0
  161.1440  211.3670  148.6150 C   0  0  0  0  0  2  0  0  0  0  0  0
  161.5270  212.4160  147.5610 C   0  0  2  0  0  3  0  0  0  0  0  0
  160.9810  212.0750  146.2290 N   0  0  0  0  0  0  0  0  0  0  0  0
  160.0190  213.0440  144.2510 C   0  0  0  0  0  2  0  0  0  0  0  0
  159.5300  211.9460  146.3260 C   0  0  0  0  0  2  0  0  0  0  0  0
  161.1930  213.1230  145.2110 C   0  0  1  0  0  0  0  0  0  0  0  0
  161.2130  214.4020  145.7890 O   0  0  0  0  0  1  0  0  0  0  0  0
  158.9560  212.2450  144.9620 C   0  0  0  0  0  2  0  0  0  0  0  0
  162.5000  212.8520  144.4580 C   0  0  0  0  0  2  0  0  0  0  0  0
  162.3240  212.8100  142.9740 C   0  0  0  0  0  0  0  0  0  0  0  0
  162.4340  213.4250  140.9110 N   0  0  0  0  0  0  0  0  0  0  0  0
  161.7490  212.2710  140.9770 C   0  0  0  0  0  0  0  0  0  0  0  0
  161.1840  211.5790  139.7900 C   0  0  0  0  0  1  0  0  0  0  0  0
  161.6420  211.8270  142.2810 C   0  0  0  0  0  2  0  0  0  0  0  0
  162.7870  213.7590  142.1400 N   0  0  0  0  0  0  0  0  0  0  0  0
  163.0470  212.5720  147.5280 C   0  0  0  0  0  2  0  0  0  0  0  0
  162.3370  214.3340  148.6480 C   0  0  0  0  0  1  0  0  0  0  0  0
  163.4030  213.8750  147.8770 O   0  0  0  0  0  0  0  0  0  0  0  0
  1 14  2  0  0  0  0
  2  7  1  1  0  0  0
  3 12  2  0  0  0  0
  3 13  1  0  0  0  0
  4 11  2  0  0  0  0
  5  9  1  0  0  0  0
  6  2  1  0  0  0  0
  8 10  1  0  0  0  0
  8  5  2  0  0  0  0
  9  2  1  0  0  0  0
 10  6  1  0  0  0  0
 11 12  1  0  0  0  0
 12  8  1  0  0  0  0
 13 16  2  0  0  0  0
 14  3  1  0  0  0  0
 15  4  1  0  0  0  0
 15 14  1  0  0  0  0
 16  5  1  0  0  0  0
 17 20  1  0  0  0  0
 18 17  2  0  0  0  0
 19 21  1  0  0  0  0
 21 20  2  0  0  0  0
 21  1  1  0  0  0  0
 22 18  1  0  0  0  0
 22 19  2  0  0  0  0
 23 24  1  0  0  0  0
 24 18  1  0  0  0  0
 25 26  1  0  0  0  0
 25  4  1  0  0  0  0
 27 41  1  6  0  0  0
 27 26  1  0  0  0  0
 28 30  1  0  0  0  0
 28 27  1  0  0  0  0
 29 33  1  0  0  0  0
 29 31  1  0  0  0  0
 31 32  1  1  0  0  0
 31 28  1  0  0  0  0
 33 30  1  0  0  0  0
 34 31  1  0  0  0  0
 35 34  1  0  0  0  0
 36 37  2  0  0  0  0
 36 40  1  0  0  0  0
 37 39  1  0  0  0  0
 38 37  1  0  0  0  0
 39 35  1  0  0  0  0
 40 35  2  0  0  0  0
 41 43  1  0  0  0  0
 43 42  1  0  0  0  0
M  END
>  <MODEL>
6

>  <REMARK>
 VINA RESULT:      -6.7      3.242      7.555
  Name = 
  10 active torsions:
  status: ('A' for Active; 'I' for Inactive)
    1  A    between atoms: C_1  and  C_35
    2  A    between atoms: C_2  and  C_6
    3  A    between atoms: C_2  and  C_13
    4  A    between atoms: C_3  and  N_4
    5  A    between atoms: C_3  and  C_6
    6  A    between atoms: C_3  and  C_12
    7  A    between atoms: C_11  and  C_14
    8  A    between atoms: C_12  and  O_17
    9  A    between atoms: C_14  and  C_22
   10  A    between atoms: C_19  and  C_37
                            x       y       z     vdW  Elec       q    Type
                         _______ _______ _______ _____ _____    ______ ____

>  <TORSDO>
F 10

$$$$
=
 OpenBabel11062410123D

 43 48  0  0  1  0  0  0  0  0999 V2000
  161.3530  206.4300  149.0310 C   0  0  0  0  0  3  0  0  0  0  0  0
  161.5990  209.7650  155.7420 C   0  0  1  0  0  3  0  0  0  0  0  0
  161.3610  207.8600  151.0120 C   0  0  0  0  0  0  0  0  0  0  0  0
  161.7950  210.1130  149.3280 C   0  0  0  0  0  0  0  0  0  0  0  0
  161.2070  208.2720  153.7570 C   0  0  0  0  0  0  0  0  0  0  0  0
  161.0750  210.9050  154.8810 C   0  0  0  0  0  2  0  0  0  0  0  0
  161.1810  209.9800  157.1800 C   0  0  0  0  0  1  0  0  0  0  0  0
  161.3990  209.3790  152.9000 C   0  0  0  0  0  0  0  0  0  0  0  0
  161.0320  208.4400  155.2410 C   0  0  0  0  0  2  0  0  0  0  0  0
  161.6150  210.7620  153.4620 C   0  0  0  0  0  2  0  0  0  0  0  0
  161.7150  210.2660  150.6170 N   0  0  0  0  0  0  0  0  0  0  0  0
  161.4900  209.1650  151.5160 C   0  0  0  0  0  0  0  0  0  0  0  0
  161.1550  206.8160  151.8620 N   0  0  0  0  0  0  0  0  0  0  0  0
  161.4600  207.6580  149.5570 C   0  0  0  0  0  0  0  0  0  0  0  0
  161.6780  208.8120  148.7390 N   0  0  0  0  0  2  0  0  0  0  0  0
  161.0710  206.9970  153.2060 C   0  0  0  0  0  3  0  0  0  0  0  0
  160.4610  206.1910  145.3850 C   0  0  0  0  0  3  0  0  0  0  0  0
  161.4930  205.3990  144.8750 C   0  0  0  0  0  0  0  0  0  0  0  0
  162.4770  205.2690  147.0830 C   0  0  0  0  0  3  0  0  0  0  0  0
  160.4340  206.5160  146.7450 C   0  0  0  0  0  3  0  0  0  0  0  0
  161.4400  206.0590  147.6030 C   0  0  0  0  0  0  0  0  0  0  0  0
  162.5060  204.9430  145.7240 C   0  0  0  0  0  3  0  0  0  0  0  0
  161.5740  206.2480  142.6760 O   0  0  0  0  0  1  0  0  0  0  0  0
  161.5330  205.0710  143.4240 C   0  0  0  0  0  2  0  0  0  0  0  0
  162.0500  211.2900  148.4580 C   0  0  0  0  0  2  0  0  0  0  0  0
  161.2100  212.4690  148.9280 C   0  0  0  0  0  2  0  0  0  0  0  0
  160.2780  212.9880  147.8240 C   0  0  2  0  0  3  0  0  0  0  0  0
  160.9480  213.9920  146.9700 N   0  0  0  0  0  0  0  0  0  0  0  0
  162.0850  214.2650  144.8700 C   0  0  0  0  0  2  0  0  0  0  0  0
  162.3850  213.9560  147.2290 C   0  0  0  0  0  2  0  0  0  0  0  0
  160.8250  213.7240  145.5240 C   0  0  1  0  0  0  0  0  0  0  0  0
  160.7430  212.3480  145.2630 O   0  0  0  0  0  1  0  0  0  0  0  0
  163.0820  214.4530  145.9860 C   0  0  0  0  0  2  0  0  0  0  0  0
  159.5970  214.4520  144.9680 C   0  0  0  0  0  2  0  0  0  0  0  0
  159.3870  214.2170  143.5060 C   0  0  0  0  0  0  0  0  0  0  0  0
  158.3850  213.7000  141.6680 N   0  0  0  0  0  0  0  0  0  0  0  0
  159.6720  213.9750  141.3920 C   0  0  0  0  0  0  0  0  0  0  0  0
  160.2510  213.9170  140.0250 C   0  0  0  0  0  1  0  0  0  0  0  0
  160.3680  214.3120  142.5370 C   0  0  0  0  0  3  0  0  0  0  0  0
  158.2100  213.8470  142.9700 N   0  0  0  0  0  2  0  0  0  0  0  0
  159.0010  213.5420  148.4560 C   0  0  0  0  0  2  0  0  0  0  0  0
  157.4490  212.7760  147.0900 C   0  0  0  0  0  1  0  0  0  0  0  0
  157.9750  212.6020  148.3690 O   0  0  0  0  0  0  0  0  0  0  0  0
  1 14  2  0  0  0  0
  2  7  1  1  0  0  0
  3 12  2  0  0  0  0
  3 13  1  0  0  0  0
  4 11  2  0  0  0  0
  5  9  1  0  0  0  0
  6  2  1  0  0  0  0
  8 10  1  0  0  0  0
  8  5  2  0  0  0  0
  9  2  1  0  0  0  0
 10  6  1  0  0  0  0
 11 12  1  0  0  0  0
 12  8  1  0  0  0  0
 13 16  2  0  0  0  0
 14  3  1  0  0  0  0
 15  4  1  0  0  0  0
 15 14  1  0  0  0  0
 16  5  1  0  0  0  0
 17 20  1  0  0  0  0
 18 17  2  0  0  0  0
 18 22  1  0  0  0  0
 19 21  1  0  0  0  0
 20 21  2  0  0  0  0
 21  1  1  0  0  0  0
 22 19  2  0  0  0  0
 23 24  1  0  0  0  0
 24 18  1  0  0  0  0
 25 26  1  0  0  0  0
 25  4  1  0  0  0  0
 27 41  1  1  0  0  0
 27 26  1  0  0  0  0
 28 30  1  0  0  0  0
 28 27  1  0  0  0  0
 29 31  1  0  0  0  0
 29 33  1  0  0  0  0
 31 32  1  6  0  0  0
 31 28  1  0  0  0  0
 33 30  1  0  0  0  0
 34 31  1  0  0  0  0
 35 34  1  0  0  0  0
 36 40  1  0  0  0  0
 37 36  2  0  0  0  0
 37 39  1  0  0  0  0
 38 37  1  0  0  0  0
 39 35  2  0  0  0  0
 40 35  1  0  0  0  0
 42 43  1  0  0  0  0
 43 41  1  0  0  0  0
M  END
>  <MODEL>
7

>  <REMARK>
 VINA RESULT:      -6.6      2.807      7.278
  Name = 
  10 active torsions:
  status: ('A' for Active; 'I' for Inactive)
    1  A    between atoms: C_1  and  C_35
    2  A    between atoms: C_2  and  C_6
    3  A    between atoms: C_2  and  C_13
    4  A    between atoms: C_3  and  N_4
    5  A    between atoms: C_3  and  C_6
    6  A    between atoms: C_3  and  C_12
    7  A    between atoms: C_11  and  C_14
    8  A    between atoms: C_12  and  O_17
    9  A    between atoms: C_14  and  C_22
   10  A    between atoms: C_19  and  C_37
                            x       y       z     vdW  Elec       q    Type
                         _______ _______ _______ _____ _____    ______ ____

>  <TORSDO>
F 10

$$$$
=
 OpenBabel11062410123D

 43 48  0  0  1  0  0  0  0  0999 V2000
  161.1190  205.3080  150.6060 C   0  0  0  0  0  3  0  0  0  0  0  0
  161.5110  210.6130  155.8900 C   0  0  1  0  0  3  0  0  0  0  0  0
  161.1820  207.2980  152.0230 C   0  0  0  0  0  0  0  0  0  0  0  0
  161.6740  208.8750  149.7050 C   0  0  0  0  0  0  0  0  0  0  0  0
  161.0600  208.5750  154.4890 C   0  0  0  0  0  0  0  0  0  0  0  0
  161.0150  211.4320  154.7070 C   0  0  0  0  0  2  0  0  0  0  0  0
  161.1080  211.2920  157.1820 C   0  0  0  0  0  1  0  0  0  0  0  0
  161.2800  209.3410  153.3230 C   0  0  0  0  0  0  0  0  0  0  0  0
  160.9000  209.2160  155.8390 C   0  0  0  0  0  2  0  0  0  0  0  0
  161.5410  210.8240  153.4100 C   0  0  0  0  0  2  0  0  0  0  0  0
  161.6070  209.4370  150.8770 N   0  0  0  0  0  0  0  0  0  0  0  0
  161.3540  208.6910  152.0800 C   0  0  0  0  0  0  0  0  0  0  0  0
  160.9500  206.5890  153.1620 N   0  0  0  0  0  0  0  0  0  0  0  0
  161.2650  206.6360  150.7100 C   0  0  0  0  0  0  0  0  0  0  0  0
  161.5130  207.4580  149.5650 N   0  0  0  0  0  2  0  0  0  0  0  0
  160.8820  207.1950  154.3770 C   0  0  0  0  0  3  0  0  0  0  0  0
  160.9120  202.3180  148.3340 C   0  0  0  0  0  3  0  0  0  0  0  0
  161.2930  202.8520  147.1000 C   0  0  0  0  0  0  0  0  0  0  0  0
  161.5600  205.0260  148.1300 C   0  0  0  0  0  3  0  0  0  0  0  0
  160.8610  203.1380  149.4660 C   0  0  0  0  0  3  0  0  0  0  0  0
  161.1840  204.4950  149.3740 C   0  0  0  0  0  0  0  0  0  0  0  0
  161.6120  204.2090  146.9970 C   0  0  0  0  0  3  0  0  0  0  0  0
  160.0250  201.7290  145.4590 O   0  0  0  0  0  1  0  0  0  0  0  0
  161.3260  201.9850  145.8910 C   0  0  0  0  0  2  0  0  0  0  0  0
  161.9590  209.7030  148.5040 C   0  0  0  0  0  2  0  0  0  0  0  0
  161.2200  211.0290  148.6050 C   0  0  0  0  0  2  0  0  0  0  0  0
  161.8660  212.1160  147.7340 C   0  0  2  0  0  3  0  0  0  0  0  0
  161.0890  212.3580  146.4990 N   0  0  0  0  0  0  0  0  0  0  0  0
  159.4080  213.7880  145.5470 C   0  0  0  0  0  2  0  0  0  0  0  0
  159.8050  211.6700  146.5990 C   0  0  0  0  0  2  0  0  0  0  0  0
  160.7350  213.7750  146.2850 C   0  0  1  0  0  0  0  0  0  0  0  0
  160.5730  214.4520  147.5040 O   0  0  0  0  0  1  0  0  0  0  0  0
  158.8260  212.4060  145.7180 C   0  0  0  0  0  2  0  0  0  0  0  0
  161.8120  214.4530  145.4310 C   0  0  0  0  0  2  0  0  0  0  0  0
  161.9050  213.8890  144.0490 C   0  0  0  0  0  0  0  0  0  0  0  0
  162.5610  212.6390  142.4200 N   0  0  0  0  0  0  0  0  0  0  0  0
  161.6800  213.5360  141.9440 C   0  0  0  0  0  0  0  0  0  0  0  0
  161.2630  213.6050  140.5200 C   0  0  0  0  0  1  0  0  0  0  0  0
  161.2240  214.3700  142.9470 C   0  0  0  0  0  3  0  0  0  0  0  0
  162.7020  212.8580  143.7150 N   0  0  0  0  0  2  0  0  0  0  0  0
  163.3130  211.7280  147.4270 C   0  0  0  0  0  2  0  0  0  0  0  0
  163.7740  213.6010  148.4950 C   0  0  0  0  0  1  0  0  0  0  0  0
  164.1110  212.8690  147.3570 O   0  0  0  0  0  0  0  0  0  0  0  0
  1 14  2  0  0  0  0
  2  7  1  1  0  0  0
  3 12  2  0  0  0  0
  3 13  1  0  0  0  0
  4 11  2  0  0  0  0
  5  9  1  0  0  0  0
  6  2  1  0  0  0  0
  8 10  1  0  0  0  0
  8  5  2  0  0  0  0
  9  2  1  0  0  0  0
 10  6  1  0  0  0  0
 11 12  1  0  0  0  0
 12  8  1  0  0  0  0
 13 16  2  0  0  0  0
 14  3  1  0  0  0  0
 15  4  1  0  0  0  0
 15 14  1  0  0  0  0
 16  5  1  0  0  0  0
 17 20  1  0  0  0  0
 18 17  2  0  0  0  0
 19 21  1  0  0  0  0
 21 20  2  0  0  0  0
 21  1  1  0  0  0  0
 22 18  1  0  0  0  0
 22 19  2  0  0  0  0
 23 24  1  0  0  0  0
 24 18  1  0  0  0  0
 25 26  1  0  0  0  0
 25  4  1  0  0  0  0
 27 41  1  6  0  0  0
 27 26  1  0  0  0  0
 28 30  1  0  0  0  0
 28 27  1  0  0  0  0
 29 33  1  0  0  0  0
 29 31  1  0  0  0  0
 31 28  1  0  0  0  0
 31 32  1  1  0  0  0
 33 30  1  0  0  0  0
 34 31  1  0  0  0  0
 35 34  1  0  0  0  0
 36 40  1  0  0  0  0
 37 36  2  0  0  0  0
 37 39  1  0  0  0  0
 38 37  1  0  0  0  0
 39 35  2  0  0  0  0
 40 35  1  0  0  0  0
 43 41  1  0  0  0  0
 43 42  1  0  0  0  0
M  END
>  <MODEL>
8

>  <REMARK>
 VINA RESULT:      -6.4      2.916      7.361
  Name = 
  10 active torsions:
  status: ('A' for Active; 'I' for Inactive)
    1  A    between atoms: C_1  and  C_35
    2  A    between atoms: C_2  and  C_6
    3  A    between atoms: C_2  and  C_13
    4  A    between atoms: C_3  and  N_4
    5  A    between atoms: C_3  and  C_6
    6  A    between atoms: C_3  and  C_12
    7  A    between atoms: C_11  and  C_14
    8  A    between atoms: C_12  and  O_17
    9  A    between atoms: C_14  and  C_22
   10  A    between atoms: C_19  and  C_37
                            x       y       z     vdW  Elec       q    Type
                         _______ _______ _______ _____ _____    ______ ____

>  <TORSDO>
F 10

$$$$
=
 OpenBabel11062410123D

 43 48  0  0  1  0  0  0  0  0999 V2000
  161.1270  205.4830  150.1340 C   0  0  0  0  0  3  0  0  0  0  0  0
  161.6960  210.2450  155.8970 C   0  0  1  0  0  3  0  0  0  0  0  0
  161.2400  207.3240  151.7360 C   0  0  0  0  0  0  0  0  0  0  0  0
  161.6650  209.1210  149.5700 C   0  0  0  0  0  0  0  0  0  0  0  0
  161.1960  208.3530  154.3170 C   0  0  0  0  0  0  0  0  0  0  0  0
  161.1670  211.1760  154.8150 C   0  0  0  0  0  2  0  0  0  0  0  0
  161.3350  210.7930  157.2610 C   0  0  0  0  0  1  0  0  0  0  0  0
  161.3830  209.2300  153.2260 C   0  0  0  0  0  0  0  0  0  0  0  0
  161.0800  208.8590  155.7280 C   0  0  0  0  0  2  0  0  0  0  0  0
  161.6510  210.6970  153.4500 C   0  0  0  0  0  2  0  0  0  0  0  0
  161.6360  209.5650  150.7920 N   0  0  0  0  0  0  0  0  0  0  0  0
  161.4180  208.7050  151.9240 C   0  0  0  0  0  0  0  0  0  0  0  0
  161.0410  206.5070  152.8060 N   0  0  0  0  0  0  0  0  0  0  0  0
  161.2810  206.7940  150.3620 C   0  0  0  0  0  0  0  0  0  0  0  0
  161.4960  207.7250  149.2970 N   0  0  0  0  0  2  0  0  0  0  0  0
  161.0110  206.9910  154.0760 C   0  0  0  0  0  3  0  0  0  0  0  0
  161.0270  202.6980  147.6070 C   0  0  0  0  0  3  0  0  0  0  0  0
  161.2050  203.3820  146.4000 C   0  0  0  0  0  0  0  0  0  0  0  0
  161.3240  205.4750  147.6110 C   0  0  0  0  0  3  0  0  0  0  0  0
  161.0040  203.4040  148.8140 C   0  0  0  0  0  3  0  0  0  0  0  0
  161.1520  204.7950  148.8260 C   0  0  0  0  0  0  0  0  0  0  0  0
  161.3470  204.7720  146.4020 C   0  0  0  0  0  3  0  0  0  0  0  0
  160.4390  201.4760  145.2410 O   0  0  0  0  0  1  0  0  0  0  0  0
  161.2070  202.6340  145.1140 C   0  0  0  0  0  2  0  0  0  0  0  0
  161.9150  210.0620  148.4470 C   0  0  0  0  0  2  0  0  0  0  0  0
  160.8300  211.1290  148.4180 C   0  0  0  0  0  2  0  0  0  0  0  0
  160.8100  211.8920  147.0860 C   0  0  2  0  0  3  0  0  0  0  0  0
  161.4390  213.2250  147.2110 N   0  0  0  0  0  0  0  0  0  0  0  0
  163.4840  214.4210  146.8070 C   0  0  0  0  0  2  0  0  0  0  0  0
  162.1780  213.2890  148.4690 C   0  0  0  0  0  2  0  0  0  0  0  0
  162.4490  213.5090  146.1720 C   0  0  1  0  0  0  0  0  0  0  0  0
  163.0890  212.3340  145.7470 O   0  0  0  0  0  1  0  0  0  0  0  0
  163.2790  214.3070  148.2970 C   0  0  0  0  0  2  0  0  0  0  0  0
  161.7850  214.2200  144.9880 C   0  0  0  0  0  2  0  0  0  0  0  0
  161.7430  213.3830  143.7500 C   0  0  0  0  0  0  0  0  0  0  0  0
  162.4240  212.3840  141.9650 N   0  0  0  0  0  0  0  0  0  0  0  0
  161.1000  212.1860  142.0880 C   0  0  0  0  0  0  0  0  0  0  0  0
  160.2920  211.3980  141.1210 C   0  0  0  0  0  1  0  0  0  0  0  0
  160.6040  212.8080  143.2180 C   0  0  0  0  0  2  0  0  0  0  0  0
  162.8200  213.1230  142.9870 N   0  0  0  0  0  0  0  0  0  0  0  0
  159.3710  211.9900  146.5780 C   0  0  0  0  0  2  0  0  0  0  0  0
  157.3500  212.6750  147.1360 C   0  0  0  0  0  1  0  0  0  0  0  0
  158.6980  213.0170  147.2390 O   0  0  0  0  0  0  0  0  0  0  0  0
  1 14  2  0  0  0  0
  2  7  1  1  0  0  0
  3 12  2  0  0  0  0
  3 13  1  0  0  0  0
  4 11  2  0  0  0  0
  5  9  1  0  0  0  0
  6  2  1  0  0  0  0
  8 10  1  0  0  0  0
  8  5  2  0  0  0  0
  9  2  1  0  0  0  0
 10  6  1  0  0  0  0
 11 12  1  0  0  0  0
 12  8  1  0  0  0  0
 13 16  2  0  0  0  0
 14  3  1  0  0  0  0
 15  4  1  0  0  0  0
 15 14  1  0  0  0  0
 16  5  1  0  0  0  0
 17 20  1  0  0  0  0
 18 22  1  0  0  0  0
 18 17  2  0  0  0  0
 19 21  1  0  0  0  0
 20 21  2  0  0  0  0
 21  1  1  0  0  0  0
 22 19  2  0  0  0  0
 24 23  1  0  0  0  0
 24 18  1  0  0  0  0
 25  4  1  0  0  0  0
 26 25  1  0  0  0  0
 27 41  1  1  0  0  0
 27 28  1  0  0  0  0
 27 26  1  0  0  0  0
 28 30  1  0  0  0  0
 29 33  1  0  0  0  0
 31 32  1  6  0  0  0
 31 29  1  0  0  0  0
 31 28  1  0  0  0  0
 33 30  1  0  0  0  0
 34 31  1  0  0  0  0
 35 34  1  0  0  0  0
 36 37  2  0  0  0  0
 36 40  1  0  0  0  0
 37 39  1  0  0  0  0
 38 37  1  0  0  0  0
 39 35  1  0  0  0  0
 40 35  2  0  0  0  0
 41 43  1  0  0  0  0
 42 43  1  0  0  0  0
M  END
>  <MODEL>
9

>  <REMARK>
 VINA RESULT:      -6.2      2.956      7.327
  Name = 
  10 active torsions:
  status: ('A' for Active; 'I' for Inactive)
    1  A    between atoms: C_1  and  C_35
    2  A    between atoms: C_2  and  C_6
    3  A    between atoms: C_2  and  C_13
    4  A    between atoms: C_3  and  N_4
    5  A    between atoms: C_3  and  C_6
    6  A    between atoms: C_3  and  C_12
    7  A    between atoms: C_11  and  C_14
    8  A    between atoms: C_12  and  O_17
    9  A    between atoms: C_14  and  C_22
   10  A    between atoms: C_19  and  C_37
                            x       y       z     vdW  Elec       q    Type
                         _______ _______ _______ _____ _____    ______ ____

>  <TORSDO>
F 10

$$$$
