=
 OpenBabel11062410483D

 32 37  0  0  1  0  0  0  0  0999 V2000
  161.3030  208.7640  157.0860 O   0  0  0  0  0  0  0  0  0  0  0  0
  161.0730  206.8980  152.4700 C   0  0  0  0  0  0  0  0  0  0  0  0
  162.2760  210.6250  149.5040 N   0  0  0  0  0  0  0  0  0  0  0  0
  162.0880  209.8280  148.4930 C   0  0  0  0  0  3  0  0  0  0  0  0
  160.0890  207.5890  154.7520 C   0  0  2  0  0  3  0  0  0  0  0  0
  161.5440  209.1430  153.4380 O   0  0  0  0  0  0  0  0  0  0  0  0
  159.8970  210.0680  154.9000 C   0  0  0  0  0  1  0  0  0  0  0  0
  161.9690  210.2860  150.8990 C   0  0  0  0  0  3  0  0  0  0  0  0
  161.4340  208.3200  152.3100 C   0  0  0  0  0  0  0  0  0  0  0  0
  161.6260  208.8290  151.0850 C   0  0  0  0  0  0  0  0  0  0  0  0
  160.8860  206.6420  150.1250 N   0  0  0  0  0  0  0  0  0  0  0  0
  160.8270  207.4430  157.1420 C   0  0  0  0  0  2  0  0  0  0  0  0
  160.8840  208.9230  154.6970 C   0  0  1  0  0  0  0  0  0  0  0  0
  159.6470  207.2700  156.1830 C   0  0  0  0  0  2  0  0  0  0  0  0
  161.9320  208.9170  155.8340 C   0  0  1  0  0  3  0  0  0  0  0  0
  161.5800  208.4610  148.6800 C   0  0  0  0  0  3  0  0  0  0  0  0
  161.3650  207.9800  149.9070 C   0  0  2  0  0  3  0  0  0  0  0  0
  161.0690  206.1960  154.1050 S   0  0  0  0  0  0  0  0  0  0  0  0
  160.8030  206.1490  151.4430 N   0  0  0  0  0  0  0  0  0  0  0  0
  160.9980  206.3860  147.6760 C   0  0  0  0  0  2  0  0  0  0  0  0
  162.3280  204.3340  147.0370 C   0  0  1  0  0  3  0  0  0  0  0  0
  161.3230  203.6010  147.9390 C   0  0  1  0  0  3  0  0  0  0  0  0
  161.7900  202.3120  148.1990 O   0  0  0  0  0  1  0  0  0  0  0  0
  162.0310  204.0440  145.6460 N   0  0  0  0  0  1  0  0  0  0  0  0
  160.5440  205.7660  149.0060 C   0  0  1  0  0  3  0  0  0  0  0  0
  162.3620  205.8530  147.2520 C   0  0  0  0  0  2  0  0  0  0  0  0
  160.1800  203.6430  150.0490 O   0  0  0  0  0  1  0  0  0  0  0  0
  161.0830  204.3490  149.2520 C   0  0  1  0  0  3  0  0  0  0  0  0
  162.7930  210.1760  155.8300 C   0  0  0  0  0  2  0  0  0  0  0  0
  162.9570  210.7040  157.2430 C   0  0  0  0  0  3  0  0  0  0  0  0
  164.0730  211.7280  157.2580 C   0  0  0  0  0  2  0  0  0  0  0  0
  162.6300  212.1830  157.2600 C   0  0  0  0  0  2  0  0  0  0  0  0
  1 12  1  0  0  0  0
  2 18  1  0  0  0  0
  3  8  2  0  0  0  0
  4 16  2  0  0  0  0
  4  3  1  0  0  0  0
  5 14  1  1  0  0  0
  6 13  1  0  0  0  0
  8 10  1  0  0  0  0
  9  2  1  0  0  0  0
  9  6  1  0  0  0  0
 10  9  2  0  0  0  0
 11 19  1  0  0  0  0
 13  5  1  0  0  0  0
 13  7  1  1  0  0  0
 13 15  1  0  0  0  0
 14 12  1  0  0  0  0
 15 29  1  1  0  0  0
 15  1  1  0  0  0  0
 17 16  1  1  0  0  0
 17 11  1  0  0  0  0
 17 10  1  0  0  0  0
 18  5  1  0  0  0  0
 19  2  2  0  0  0  0
 21 24  1  6  0  0  0
 21 26  1  0  0  0  0
 21 22  1  0  0  0  0
 22 23  1  1  0  0  0
 22 28  1  0  0  0  0
 25 20  1  6  0  0  0
 25 28  1  0  0  0  0
 25 11  1  0  0  0  0
 26 20  1  0  0  0  0
 28 27  1  1  0  0  0
 29 30  1  0  0  0  0
 30 31  1  0  0  0  0
 30 32  1  0  0  0  0
 31 32  1  0  0  0  0
M  END
>  <MODEL>
1

>  <REMARK>
 VINA RESULT:      -7.9      0.000      0.000
  Name = 
  3 active torsions:
  status: ('A' for Active; 'I' for Inactive)
    1  A    between atoms: C_1  and  C_10
    2  A    between atoms: C_10  and  C_24
    3  A    between atoms: N_16  and  C_27
                            x       y       z     vdW  Elec       q    Type
                         _______ _______ _______ _____ _____    ______ ____

>  <TORSDO>
F 3

$$$$
=
 OpenBabel11062410483D

 32 37  0  0  1  0  0  0  0  0999 V2000
  157.0950  214.4530  154.2690 O   0  0  0  0  0  0  0  0  0  0  0  0
  159.5890  210.3300  152.9970 C   0  0  0  0  0  0  0  0  0  0  0  0
  160.6290  208.0830  157.2410 N   0  0  0  0  0  0  0  0  0  0  0  0
  161.2460  207.1650  156.5560 C   0  0  0  0  0  3  0  0  0  0  0  0
  159.2430  212.8800  153.1650 C   0  0  2  0  0  3  0  0  0  0  0  0
  158.9250  211.3910  155.1490 O   0  0  0  0  0  0  0  0  0  0  0  0
  159.6020  213.6530  155.5050 C   0  0  0  0  0  1  0  0  0  0  0  0
  160.0850  209.3210  156.6690 C   0  0  0  0  0  3  0  0  0  0  0  0
  159.5380  210.3280  154.4720 C   0  0  0  0  0  0  0  0  0  0  0  0
  160.1040  209.3270  155.1620 C   0  0  0  0  0  0  0  0  0  0  0  0
  160.9930  208.4240  153.0060 N   0  0  0  0  0  0  0  0  0  0  0  0
  157.3100  214.4500  152.8790 C   0  0  0  0  0  2  0  0  0  0  0  0
  158.7630  212.7230  154.6350 C   0  0  1  0  0  0  0  0  0  0  0  0
  158.7930  214.2220  152.5790 C   0  0  0  0  0  2  0  0  0  0  0  0
  157.2720  213.1270  154.7110 C   0  0  1  0  0  3  0  0  0  0  0  0
  161.4100  207.2760  155.1000 C   0  0  0  0  0  3  0  0  0  0  0  0
  160.8660  208.2960  154.4330 C   0  0  2  0  0  3  0  0  0  0  0  0
  158.6220  211.5310  152.1090 S   0  0  0  0  0  0  0  0  0  0  0  0
  160.2890  209.4500  152.3440 N   0  0  0  0  0  0  0  0  0  0  0  0
  161.5560  206.0420  152.7200 C   0  0  0  0  0  2  0  0  0  0  0  0
  160.9110  205.2270  150.4160 C   0  0  1  0  0  3  0  0  0  0  0  0
  161.7940  206.3890  149.9350 C   0  0  1  0  0  3  0  0  0  0  0  0
  161.5710  206.6070  148.5750 O   0  0  0  0  0  1  0  0  0  0  0  0
  161.6030  203.9690  150.1940 N   0  0  0  0  0  1  0  0  0  0  0  0
  161.7880  207.4780  152.2260 C   0  0  1  0  0  3  0  0  0  0  0  0
  160.4920  205.3340  151.8880 C   0  0  0  0  0  2  0  0  0  0  0  0
  162.3360  208.7060  150.2460 O   0  0  0  0  0  1  0  0  0  0  0  0
  161.5290  207.6730  150.7240 C   0  0  1  0  0  3  0  0  0  0  0  0
  156.7020  212.9620  156.1160 C   0  0  0  0  0  2  0  0  0  0  0  0
  155.3580  212.2600  156.0590 C   0  0  0  0  0  3  0  0  0  0  0  0
  155.5860  210.7870  155.7920 C   0  0  0  0  0  2  0  0  0  0  0  0
  155.2740  211.2610  157.1950 C   0  0  0  0  0  2  0  0  0  0  0  0
  1 15  1  0  0  0  0
  2  9  1  0  0  0  0
  4  3  1  0  0  0  0
  5 14  1  6  0  0  0
  5 13  1  0  0  0  0
  8  3  2  0  0  0  0
  9  6  1  0  0  0  0
  9 10  2  0  0  0  0
 10  8  1  0  0  0  0
 11 17  1  0  0  0  0
 12  1  1  0  0  0  0
 13 15  1  0  0  0  0
 13  6  1  0  0  0  0
 13  7  1  1  0  0  0
 14 12  1  0  0  0  0
 15 29  1  1  0  0  0
 16  4  2  0  0  0  0
 17 16  1  6  0  0  0
 17 10  1  0  0  0  0
 18  2  1  0  0  0  0
 18  5  1  0  0  0  0
 19  2  2  0  0  0  0
 19 11  1  0  0  0  0
 21 24  1  1  0  0  0
 21 26  1  0  0  0  0
 22 23  1  6  0  0  0
 22 21  1  0  0  0  0
 22 28  1  0  0  0  0
 25 20  1  1  0  0  0
 25 11  1  0  0  0  0
 26 20  1  0  0  0  0
 28 27  1  6  0  0  0
 28 25  1  0  0  0  0
 30 29  1  0  0  0  0
 30 32  1  0  0  0  0
 31 30  1  0  0  0  0
 31 32  1  0  0  0  0
M  END
>  <MODEL>
2

>  <REMARK>
 VINA RESULT:      -6.7      3.579      5.813
  Name = 
  3 active torsions:
  status: ('A' for Active; 'I' for Inactive)
    1  A    between atoms: C_1  and  C_10
    2  A    between atoms: C_10  and  C_24
    3  A    between atoms: N_16  and  C_27
                            x       y       z     vdW  Elec       q    Type
                         _______ _______ _______ _____ _____    ______ ____

>  <TORSDO>
F 3

$$$$
=
 OpenBabel11062410483D

 32 37  0  0  1  0  0  0  0  0999 V2000
  160.8560  203.2410  146.6430 O   0  0  0  0  0  0  0  0  0  0  0  0
  160.9980  206.2670  150.6020 C   0  0  0  0  0  0  0  0  0  0  0  0
  162.2200  210.6790  148.8180 N   0  0  0  0  0  0  0  0  0  0  0  0
  162.1900  211.1340  150.0360 C   0  0  0  0  0  3  0  0  0  0  0  0
  161.7710  204.2590  149.1800 C   0  0  2  0  0  3  0  0  0  0  0  0
  161.4680  206.5280  148.1700 O   0  0  0  0  0  0  0  0  0  0  0  0
  163.0690  205.0430  147.2040 C   0  0  0  0  0  1  0  0  0  0  0  0
  162.0820  209.2620  148.4560 C   0  0  0  0  0  2  0  0  0  0  0  0
  161.3780  207.1020  149.4450 C   0  0  0  0  0  0  0  0  0  0  0  0
  161.6650  208.4000  149.6210 C   0  0  0  0  0  0  0  0  0  0  0  0
  161.4540  208.0520  152.0880 N   0  0  0  0  0  0  0  0  0  0  0  0
  160.6410  202.4890  147.8120 C   0  0  0  0  0  2  0  0  0  0  0  0
  161.7150  205.1380  147.8990 C   0  0  1  0  0  0  0  0  0  0  0  0
  161.7520  202.7690  148.8270 C   0  0  0  0  0  2  0  0  0  0  0  0
  160.6040  204.5880  146.9740 C   0  0  1  0  0  3  0  0  0  0  0  0
  161.9580  210.2430  151.1820 C   0  0  0  0  0  3  0  0  0  0  0  0
  161.7030  208.9470  150.9900 C   0  0  0  0  0  0  0  0  0  0  0  0
  160.3850  204.6230  150.3040 S   0  0  0  0  0  0  0  0  0  0  0  0
  161.0630  206.7250  151.8170 N   0  0  0  0  0  0  0  0  0  0  0  0
  161.1030  209.9770  153.5870 C   0  0  0  0  0  2  0  0  0  0  0  0
  159.3700  209.4500  155.3500 C   0  0  1  0  0  3  0  0  0  0  0  0
  160.2900  208.2620  155.6680 C   0  0  1  0  0  3  0  0  0  0  0  0
  159.6150  207.3620  156.4940 O   0  0  0  0  0  1  0  0  0  0  0  0
  159.4960  210.4530  156.3920 N   0  0  0  0  0  1  0  0  0  0  0  0
  161.5390  208.5070  153.4730 C   0  0  1  0  0  3  0  0  0  0  0  0
  159.6340  210.0910  153.9810 C   0  0  0  0  0  2  0  0  0  0  0  0
  161.5850  206.4710  154.7300 O   0  0  0  0  0  1  0  0  0  0  0  0
  160.7680  207.5530  154.3990 C   0  0  1  0  0  3  0  0  0  0  0  0
  160.4470  205.4190  145.7050 C   0  0  0  0  0  2  0  0  0  0  0  0
  161.0850  204.7050  144.5280 C   0  0  0  0  0  3  0  0  0  0  0  0
  161.1750  205.6670  143.3610 C   0  0  0  0  0  2  0  0  0  0  0  0
  162.4030  205.3760  144.1970 C   0  0  0  0  0  2  0  0  0  0  0  0
  1 15  1  0  0  0  0
  1 12  1  0  0  0  0
  2 19  2  0  0  0  0
  3  4  2  0  0  0  0
  4 16  1  0  0  0  0
  5 14  1  6  0  0  0
  5 18  1  0  0  0  0
  6  9  1  0  0  0  0
  8  3  1  0  0  0  0
  8 10  1  0  0  0  0
  9 10  2  0  0  0  0
  9  2  1  0  0  0  0
 10 17  1  0  0  0  0
 12 14  1  0  0  0  0
 13  7  1  6  0  0  0
 13  6  1  0  0  0  0
 13  5  1  0  0  0  0
 15 29  1  6  0  0  0
 15 13  1  0  0  0  0
 17 16  2  0  0  0  0
 17 11  1  0  0  0  0
 18  2  1  0  0  0  0
 19 11  1  0  0  0  0
 20 26  1  0  0  0  0
 21 22  1  0  0  0  0
 21 24  1  1  0  0  0
 22 23  1  1  0  0  0
 25 11  1  6  0  0  0
 25 20  1  0  0  0  0
 25 28  1  0  0  0  0
 26 21  1  0  0  0  0
 28 27  1  1  0  0  0
 28 22  1  0  0  0  0
 30 29  1  0  0  0  0
 31 32  1  0  0  0  0
 31 30  1  0  0  0  0
 32 30  1  0  0  0  0
M  END
>  <MODEL>
3

>  <REMARK>
 VINA RESULT:      -5.5      2.466      8.253
  Name = 
  3 active torsions:
  status: ('A' for Active; 'I' for Inactive)
    1  A    between atoms: C_1  and  C_10
    2  A    between atoms: C_10  and  C_24
    3  A    between atoms: N_16  and  C_27
                            x       y       z     vdW  Elec       q    Type
                         _______ _______ _______ _____ _____    ______ ____

>  <TORSDO>
F 3

$$$$
=
 OpenBabel11062410483D

 32 37  0  0  1  0  0  0  0  0999 V2000
  161.5130  204.5880  147.8250 O   0  0  0  0  0  0  0  0  0  0  0  0
  161.7700  208.2600  151.1850 C   0  0  0  0  0  0  0  0  0  0  0  0
  160.1650  206.2860  155.3880 N   0  0  0  0  0  0  0  0  0  0  0  0
  160.3360  207.4470  155.9510 C   0  0  0  0  0  3  0  0  0  0  0  0
  160.8940  207.1270  149.0400 C   0  0  2  0  0  3  0  0  0  0  0  0
  160.9810  205.8990  151.2170 O   0  0  0  0  0  0  0  0  0  0  0  0
  159.3250  205.2800  149.6120 C   0  0  0  0  0  1  0  0  0  0  0  0
  160.3090  206.0300  153.9500 C   0  0  0  0  0  3  0  0  0  0  0  0
  161.2140  207.0980  151.9040 C   0  0  0  0  0  0  0  0  0  0  0  0
  160.9030  207.1990  153.2040 C   0  0  0  0  0  0  0  0  0  0  0  0
  161.4430  209.6380  153.0820 N   0  0  0  0  0  0  0  0  0  0  0  0
  161.9040  205.7770  147.1850 C   0  0  0  0  0  2  0  0  0  0  0  0
  160.7530  205.7800  149.8030 C   0  0  1  0  0  0  0  0  0  0  0  0
  160.9230  206.9020  147.5250 C   0  0  0  0  0  2  0  0  0  0  0  0
  161.7550  204.7680  149.2020 C   0  0  1  0  0  3  0  0  0  0  0  0
  160.7460  208.6230  155.1710 C   0  0  0  0  0  3  0  0  0  0  0  0
  161.0220  208.5100  153.8690 C   0  0  2  0  0  3  0  0  0  0  0  0
  162.3990  208.0250  149.5380 S   0  0  0  0  0  0  0  0  0  0  0  0
  161.8440  209.4300  151.7470 N   0  0  0  0  0  0  0  0  0  0  0  0
  160.3060  211.8190  153.2320 C   0  0  0  0  0  2  0  0  0  0  0  0
  159.6950  212.3630  155.6230 C   0  0  1  0  0  3  0  0  0  0  0  0
  161.1940  212.1480  155.8840 C   0  0  1  0  0  3  0  0  0  0  0  0
  161.4160  212.0520  157.2580 O   0  0  0  0  0  1  0  0  0  0  0  0
  159.3930  213.7820  155.6790 N   0  0  0  0  0  1  0  0  0  0  0  0
  161.5200  210.9790  153.6560 C   0  0  1  0  0  3  0  0  0  0  0  0
  159.2080  211.7820  154.2900 C   0  0  0  0  0  2  0  0  0  0  0  0
  163.0820  210.7300  155.4520 O   0  0  0  0  0  1  0  0  0  0  0  0
  161.7240  210.8990  155.1770 C   0  0  1  0  0  3  0  0  0  0  0  0
  161.7170  203.4230  149.9210 C   0  0  0  0  0  2  0  0  0  0  0  0
  161.2890  202.3270  148.9630 C   0  0  0  0  0  3  0  0  0  0  0  0
  161.2290  201.0140  149.7150 C   0  0  0  0  0  2  0  0  0  0  0  0
  159.9540  201.7710  149.4110 C   0  0  0  0  0  2  0  0  0  0  0  0
  1 15  1  0  0  0  0
  2 19  2  0  0  0  0
  2  9  1  0  0  0  0
  3  4  1  0  0  0  0
  5 14  1  6  0  0  0
  5 18  1  0  0  0  0
  5 13  1  0  0  0  0
  6  9  1  0  0  0  0
  8  3  2  0  0  0  0
  9 10  2  0  0  0  0
 10 17  1  0  0  0  0
 10  8  1  0  0  0  0
 11 17  1  0  0  0  0
 12 14  1  0  0  0  0
 12  1  1  0  0  0  0
 13  7  1  6  0  0  0
 13  6  1  0  0  0  0
 15 13  1  0  0  0  0
 15 29  1  1  0  0  0
 16  4  2  0  0  0  0
 17 16  1  1  0  0  0
 18  2  1  0  0  0  0
 19 11  1  0  0  0  0
 20 25  1  0  0  0  0
 20 26  1  0  0  0  0
 21 24  1  6  0  0  0
 21 22  1  0  0  0  0
 22 23  1  1  0  0  0
 25 11  1  1  0  0  0
 25 28  1  0  0  0  0
 26 21  1  0  0  0  0
 28 27  1  6  0  0  0
 28 22  1  0  0  0  0
 30 32  1  0  0  0  0
 30 31  1  0  0  0  0
 30 29  1  0  0  0  0
 32 31  1  0  0  0  0
M  END
>  <MODEL>
4

>  <REMARK>
 VINA RESULT:      -5.4      2.574      8.609
  Name = 
  3 active torsions:
  status: ('A' for Active; 'I' for Inactive)
    1  A    between atoms: C_1  and  C_10
    2  A    between atoms: C_10  and  C_24
    3  A    between atoms: N_16  and  C_27
                            x       y       z     vdW  Elec       q    Type
                         _______ _______ _______ _____ _____    ______ ____

>  <TORSDO>
F 3

$$$$
=
 OpenBabel11062410483D

 32 37  0  0  1  0  0  0  0  0999 V2000
  161.6480  204.3270  146.5510 O   0  0  0  0  0  0  0  0  0  0  0  0
  161.8190  207.8970  150.0250 C   0  0  0  0  0  0  0  0  0  0  0  0
  160.7650  205.6380  154.2580 N   0  0  0  0  0  0  0  0  0  0  0  0
  160.8670  206.7910  154.8510 C   0  0  0  0  0  3  0  0  0  0  0  0
  160.8860  206.7510  147.9110 C   0  0  2  0  0  3  0  0  0  0  0  0
  161.2700  205.4680  150.0230 O   0  0  0  0  0  0  0  0  0  0  0  0
  159.5570  204.7380  148.5290 C   0  0  0  0  0  1  0  0  0  0  0  0
  160.8150  205.4440  152.8030 C   0  0  0  0  0  3  0  0  0  0  0  0
  161.4400  206.6620  150.7380 C   0  0  0  0  0  0  0  0  0  0  0  0
  161.2290  206.6900  152.0610 C   0  0  0  0  0  0  0  0  0  0  0  0
  161.5160  209.1730  151.9950 N   0  0  0  0  0  0  0  0  0  0  0  0
  161.8670  205.5690  145.9300 C   0  0  0  0  0  2  0  0  0  0  0  0
  160.9400  205.3730  148.6280 C   0  0  1  0  0  0  0  0  0  0  0  0
  160.8130  206.5780  146.3900 C   0  0  0  0  0  2  0  0  0  0  0  0
  161.9840  204.4860  147.9100 C   0  0  1  0  0  3  0  0  0  0  0  0
  161.0950  208.0270  154.0890 C   0  0  0  0  0  3  0  0  0  0  0  0
  161.2730  207.9840  152.7670 C   0  0  2  0  0  3  0  0  0  0  0  0
  162.3310  207.7800  148.3250 S   0  0  0  0  0  0  0  0  0  0  0  0
  161.8240  209.0500  150.6250 N   0  0  0  0  0  0  0  0  0  0  0  0
  160.2040  211.2390  152.2850 C   0  0  0  0  0  2  0  0  0  0  0  0
  159.6820  211.6480  154.7240 C   0  0  1  0  0  3  0  0  0  0  0  0
  161.2060  211.5580  154.8980 C   0  0  1  0  0  3  0  0  0  0  0  0
  161.5100  211.4360  156.2550 O   0  0  0  0  0  1  0  0  0  0  0  0
  159.2610  213.0310  154.8500 N   0  0  0  0  0  1  0  0  0  0  0  0
  161.5080  210.4960  152.6150 C   0  0  1  0  0  3  0  0  0  0  0  0
  159.1730  211.0710  153.3970 C   0  0  0  0  0  2  0  0  0  0  0  0
  163.1820  210.3260  154.3170 O   0  0  0  0  0  1  0  0  0  0  0  0
  161.8020  210.3840  154.1190 C   0  0  1  0  0  3  0  0  0  0  0  0
  162.1360  203.1220  148.5750 C   0  0  0  0  0  2  0  0  0  0  0  0
  161.1020  202.1550  148.0320 C   0  0  0  0  0  3  0  0  0  0  0  0
  161.5810  200.7380  148.2720 C   0  0  0  0  0  2  0  0  0  0  0  0
  160.5320  201.3440  149.1780 C   0  0  0  0  0  2  0  0  0  0  0  0
  1 15  1  0  0  0  0
  2 19  2  0  0  0  0
  2  9  1  0  0  0  0
  3  4  1  0  0  0  0
  5 14  1  6  0  0  0
  5 18  1  0  0  0  0
  5 13  1  0  0  0  0
  6  9  1  0  0  0  0
  8  3  2  0  0  0  0
  9 10  2  0  0  0  0
 10 17  1  0  0  0  0
 10  8  1  0  0  0  0
 11 17  1  0  0  0  0
 12 14  1  0  0  0  0
 12  1  1  0  0  0  0
 13  7  1  6  0  0  0
 13  6  1  0  0  0  0
 15 29  1  1  0  0  0
 15 13  1  0  0  0  0
 16  4  2  0  0  0  0
 17 16  1  1  0  0  0
 18  2  1  0  0  0  0
 19 11  1  0  0  0  0
 20 25  1  0  0  0  0
 20 26  1  0  0  0  0
 21 24  1  6  0  0  0
 21 22  1  0  0  0  0
 22 23  1  1  0  0  0
 25 11  1  1  0  0  0
 25 28  1  0  0  0  0
 26 21  1  0  0  0  0
 28 27  1  6  0  0  0
 28 22  1  0  0  0  0
 30 31  1  0  0  0  0
 30 29  1  0  0  0  0
 30 32  1  0  0  0  0
 31 32  1  0  0  0  0
M  END
>  <MODEL>
5

>  <REMARK>
 VINA RESULT:      -5.1      2.531      8.621
  Name = 
  3 active torsions:
  status: ('A' for Active; 'I' for Inactive)
    1  A    between atoms: C_1  and  C_10
    2  A    between atoms: C_10  and  C_24
    3  A    between atoms: N_16  and  C_27
                            x       y       z     vdW  Elec       q    Type
                         _______ _______ _______ _____ _____    ______ ____

>  <TORSDO>
F 3

$$$$
=
 OpenBabel11062410483D

 32 37  0  0  1  0  0  0  0  0999 V2000
  161.4600  203.5060  148.9190 O   0  0  0  0  0  0  0  0  0  0  0  0
  161.9720  208.4630  149.0070 C   0  0  0  0  0  0  0  0  0  0  0  0
  160.7160  209.8150  153.5600 N   0  0  0  0  0  0  0  0  0  0  0  0
  160.9270  211.0490  153.2070 C   0  0  0  0  0  3  0  0  0  0  0  0
  160.9320  206.2460  148.1970 C   0  0  2  0  0  3  0  0  0  0  0  0
  161.1970  206.7450  150.6340 O   0  0  0  0  0  0  0  0  0  0  0  0
  159.4200  205.3090  149.9400 C   0  0  0  0  0  1  0  0  0  0  0  0
  160.7450  208.6710  152.6400 C   0  0  0  0  0  3  0  0  0  0  0  0
  161.4800  208.0870  150.3460 C   0  0  0  0  0  0  0  0  0  0  0  0
  161.2730  209.0320  151.2740 C   0  0  0  0  0  0  0  0  0  0  0  0
  161.7940  210.7610  149.5440 N   0  0  0  0  0  0  0  0  0  0  0  0
  161.7950  203.9610  147.6310 C   0  0  0  0  0  2  0  0  0  0  0  0
  160.8570  205.7390  149.6650 C   0  0  1  0  0  0  0  0  0  0  0  0
  160.8410  205.0810  147.2070 C   0  0  0  0  0  2  0  0  0  0  0  0
  161.8110  204.5330  149.8180 C   0  0  1  0  0  3  0  0  0  0  0  0
  161.2700  211.4030  151.8220 C   0  0  0  0  0  3  0  0  0  0  0  0
  161.4410  210.4500  150.9030 C   0  0  2  0  0  3  0  0  0  0  0  0
  162.4690  207.1730  147.8860 S   0  0  0  0  0  0  0  0  0  0  0  0
  162.0870  209.7080  148.6530 N   0  0  0  0  0  0  0  0  0  0  0  0
  163.2040  212.3370  148.2780 C   0  0  0  0  0  2  0  0  0  0  0  0
  161.9570  213.2730  146.2880 C   0  0  1  0  0  3  0  0  0  0  0  0
  160.9200  213.6930  147.3410 C   0  0  1  0  0  3  0  0  0  0  0  0
  159.7390  214.0730  146.7010 O   0  0  0  0  0  1  0  0  0  0  0  0
  162.6860  214.4430  145.8340 N   0  0  0  0  0  1  0  0  0  0  0  0
  161.9120  212.1440  149.0870 C   0  0  1  0  0  3  0  0  0  0  0  0
  162.9440  212.2070  146.7800 C   0  0  0  0  0  2  0  0  0  0  0  0
  159.6800  212.9870  149.2710 O   0  0  0  0  0  1  0  0  0  0  0  0
  160.6370  212.5730  148.3440 C   0  0  1  0  0  3  0  0  0  0  0  0
  161.8350  203.9940  151.2450 C   0  0  0  0  0  2  0  0  0  0  0  0
  160.8240  202.8740  151.4000 C   0  0  0  0  0  3  0  0  0  0  0  0
  161.2320  201.7170  150.5120 C   0  0  0  0  0  2  0  0  0  0  0  0
  161.5130  201.6640  151.9980 C   0  0  0  0  0  2  0  0  0  0  0  0
  1 15  1  0  0  0  0
  2  9  1  0  0  0  0
  4  3  1  0  0  0  0
  5 14  1  6  0  0  0
  5 13  1  0  0  0  0
  8  3  2  0  0  0  0
  9  6  1  0  0  0  0
  9 10  2  0  0  0  0
 10  8  1  0  0  0  0
 11 17  1  0  0  0  0
 12  1  1  0  0  0  0
 13 15  1  0  0  0  0
 13  7  1  1  0  0  0
 13  6  1  0  0  0  0
 14 12  1  0  0  0  0
 15 29  1  1  0  0  0
 16  4  2  0  0  0  0
 17 10  1  0  0  0  0
 17 16  1  1  0  0  0
 18  5  1  0  0  0  0
 18  2  1  0  0  0  0
 19  2  2  0  0  0  0
 19 11  1  0  0  0  0
 21 24  1  1  0  0  0
 21 26  1  0  0  0  0
 21 22  1  0  0  0  0
 22 23  1  6  0  0  0
 22 28  1  0  0  0  0
 25 20  1  6  0  0  0
 25 11  1  0  0  0  0
 26 20  1  0  0  0  0
 28 25  1  0  0  0  0
 28 27  1  1  0  0  0
 29 30  1  0  0  0  0
 30 32  1  0  0  0  0
 31 30  1  0  0  0  0
 31 32  1  0  0  0  0
M  END
>  <MODEL>
6

>  <REMARK>
 VINA RESULT:      -5.0      3.235      7.566
  Name = 
  3 active torsions:
  status: ('A' for Active; 'I' for Inactive)
    1  A    between atoms: C_1  and  C_10
    2  A    between atoms: C_10  and  C_24
    3  A    between atoms: N_16  and  C_27
                            x       y       z     vdW  Elec       q    Type
                         _______ _______ _______ _____ _____    ______ ____

>  <TORSDO>
F 3

$$$$
