=
 OpenBabel11052422263D

 31 36  0  0  1  0  0  0  0  0999 V2000
  162.5450  209.4620  157.2610 S   0  0  0  0  0  0  0  0  0  0  0  0
  161.0980  208.2010  152.9560 C   0  0  2  0  0  3  0  0  0  0  0  0
  160.6760  207.5920  151.6270 C   0  0  2  0  0  3  0  0  0  0  0  0
  160.6900  205.4010  150.2890 C   0  0  0  0  0  2  0  0  0  0  0  0
  160.3330  207.7600  154.1910 C   0  0  0  0  0  2  0  0  0  0  0  0
  161.2660  209.3470  155.9760 C   0  0  1  0  0  0  0  0  0  0  0  0
  161.1220  206.1250  151.5670 C   0  0  0  0  0  2  0  0  0  0  0  0
  163.0040  210.7460  156.0530 C   0  0  0  0  0  2  0  0  0  0  0  0
  162.1920  210.7230  150.8130 O   0  0  0  0  0  0  0  0  0  0  0  0
  160.9310  206.1890  148.9990 C   0  0  0  0  0  2  0  0  0  0  0  0
  162.3320  210.1850  153.7110 C   0  0  0  0  0  2  0  0  0  0  0  0
  161.2260  209.7040  152.7630 C   0  0  1  0  0  0  0  0  0  0  0  0
  161.8320  210.4990  155.1310 C   0  0  1  0  0  3  0  0  0  0  0  0
  162.3280  206.8170  148.9040 C   0  0  0  0  0  2  0  0  0  0  0  0
  161.2580  207.9280  155.3910 C   0  0  0  0  0  2  0  0  0  0  0  0
  159.9130  209.7190  156.5600 C   0  0  0  0  0  1  0  0  0  0  0  0
  161.6680  209.7470  151.3290 C   0  0  0  0  0  0  0  0  0  0  0  0
  161.3440  208.5030  150.5680 C   0  0  1  0  0  3  0  0  0  0  0  0
  162.6160  207.8950  149.9610 C   0  0  0  0  0  2  0  0  0  0  0  0
  159.7550  211.8170  152.3990 C   0  0  2  0  0  3  0  0  0  0  0  0
  159.8690  210.4350  153.0320 C   0  0  2  0  0  3  0  0  0  0  0  0
  160.0080  211.6730  153.8940 C   0  0  0  0  0  2  0  0  0  0  0  0
  158.3490  212.1240  152.1540 N   0  0  0  0  0  0  0  0  0  0  0  0
  158.4790  214.0910  153.7420 C   0  0  1  0  0  3  0  0  0  0  0  0
  157.1080  214.1080  153.0640 C   0  0  0  0  0  2  0  0  0  0  0  0
  158.2790  214.4530  155.5140 S   0  0  0  0  0  1  0  0  0  0  0  0
  157.7990  212.7940  153.3350 C   0  0  1  0  0  0  0  0  0  0  0  0
  157.2130  212.0030  154.3330 O   0  0  0  0  0  1  0  0  0  0  0  0
  158.2950  213.0740  151.0460 C   0  0  0  0  0  2  0  0  0  0  0  0
  159.6090  213.9100  149.2380 O   0  0  0  0  0  1  0  0  0  0  0  0
  159.6900  213.3190  150.4980 C   0  0  0  0  0  2  0  0  0  0  0  0
  2  5  1  1  0  0  0
  3  7  1  1  0  0  0
  3  2  1  0  0  0  0
  4  7  1  0  0  0  0
  5 15  1  0  0  0  0
  6 16  1  1  0  0  0
  6  1  1  0  0  0  0
  8  1  1  0  0  0  0
  9 17  2  0  0  0  0
 10  4  1  0  0  0  0
 12  2  1  0  0  0  0
 12 21  1  0  0  0  0
 12 11  1  1  0  0  0
 13 11  1  6  0  0  0
 13  6  1  0  0  0  0
 13  8  1  0  0  0  0
 14 10  1  0  0  0  0
 14 19  1  0  0  0  0
 15  6  1  0  0  0  0
 17 12  1  0  0  0  0
 18 19  1  1  0  0  0
 18 17  1  0  0  0  0
 18  3  1  0  0  0  0
 20 23  1  1  0  0  0
 20 21  1  0  0  0  0
 20 22  1  0  0  0  0
 21 22  1  1  0  0  0
 23 27  1  0  0  0  0
 24 26  1  1  0  0  0
 25 27  1  0  0  0  0
 25 24  1  0  0  0  0
 27 24  1  0  0  0  0
 27 28  1  1  0  0  0
 29 23  1  0  0  0  0
 30 31  1  0  0  0  0
 31 29  1  0  0  0  0
M  END
>  <MODEL>
1

>  <REMARK>
 VINA RESULT:      -7.0      0.000      0.000
  Name = 
  5 active torsions:
  status: ('A' for Active; 'I' for Inactive)
    1  A    between atoms: C_3  and  C_7
    2  A    between atoms: C_3  and  N_22
    3  A    between atoms: C_9  and  N_22
    4  A    between atoms: C_15  and  C_21
    5  A    between atoms: C_19  and  N_22
                            x       y       z     vdW  Elec       q    Type
                         _______ _______ _______ _____ _____    ______ ____

>  <TORSDO>
F 5

$$$$
