=
 OpenBabel11052422013D

 30 34  0  0  1  0  0  0  0  0999 V2000
  158.7540  214.0530  153.3250 C   0  0  0  0  0  2  0  0  0  0  0  0
  156.4470  213.8400  152.3910 C   0  0  0  0  0  0  0  0  0  0  0  0
  156.7670  214.4400  155.7300 C   0  0  0  0  0  2  0  0  0  0  0  0
  159.7590  212.9370  153.6400 C   0  0  2  0  0  3  0  0  0  0  0  0
  159.2730  211.5090  153.3100 C   0  0  2  0  0  3  0  0  0  0  0  0
  161.4880  208.5060  156.1280 C   0  0  0  0  0  2  0  0  0  0  0  0
  159.8400  210.4670  154.2010 N   0  0  0  0  0  0  0  0  0  0  0  0
  160.4400  212.5540  157.2590 O   0  0  0  0  0  0  0  0  0  0  0  0
  157.6750  214.2870  156.9420 C   0  0  0  0  0  2  0  0  0  0  0  0
  159.5490  211.2830  151.8210 C   0  0  0  0  0  1  0  0  0  0  0  0
  158.9350  210.3870  155.3470 C   0  0  0  0  0  2  0  0  0  0  0  0
  155.0680  213.2590  152.4250 C   0  0  0  0  0  2  0  0  0  0  0  0
  160.7500  211.1850  157.0730 C   0  0  2  0  0  3  0  0  0  0  0  0
  162.4500  209.6720  156.1180 C   0  0  0  0  0  3  0  0  0  0  0  0
  156.8210  214.4530  151.3570 O   0  0  0  0  0  0  0  0  0  0  0  0
  156.8800  213.2280  154.8150 C   0  0  2  0  0  3  0  0  0  0  0  0
  154.5450  213.1610  153.8520 C   0  0  0  0  0  2  0  0  0  0  0  0
  157.3600  213.6320  153.4850 N   0  0  0  0  0  0  0  0  0  0  0  0
  160.5610  213.1720  154.9220 C   0  0  0  0  0  2  0  0  0  0  0  0
  159.1360  214.4120  156.5430 C   0  0  0  0  0  2  0  0  0  0  0  0
  159.6990  213.0510  156.1740 C   0  0  2  0  0  3  0  0  0  0  0  0
  162.1090  210.9100  156.4990 C   0  0  0  0  0  3  0  0  0  0  0  0
  160.1830  208.7620  156.8970 C   0  0  0  0  0  2  0  0  0  0  0  0
  155.5520  212.4680  154.7680 C   0  0  1  0  0  3  0  0  0  0  0  0
  155.7660  211.0200  154.3610 C   0  0  0  0  0  1  0  0  0  0  0  0
  159.6440  210.1810  156.7020 C   0  0  2  0  0  3  0  0  0  0  0  0
  159.7450  209.1480  153.5730 C   0  0  0  0  0  2  0  0  0  0  0  0
  160.8830  208.2390  151.6930 O   0  0  0  0  0  0  0  0  0  0  0  0
  161.0920  207.2930  152.7100 C   0  0  0  0  0  2  0  0  0  0  0  0
  161.0870  208.7440  152.9910 C   0  0  2  0  0  3  0  0  0  0  0  0
  1 18  1  0  0  0  0
  2 12  1  0  0  0  0
  2 18  1  0  0  0  0
  3  9  1  0  0  0  0
  4  1  1  1  0  0  0
  4 19  1  0  0  0  0
  5 10  1  6  0  0  0
  5  4  1  0  0  0  0
  5  7  1  0  0  0  0
  6 23  1  0  0  0  0
  7 11  1  0  0  0  0
 12 17  1  0  0  0  0
 13 22  1  6  0  0  0
 13  8  1  0  0  0  0
 14  6  1  0  0  0  0
 14 22  2  0  0  0  0
 15  2  2  0  0  0  0
 16  3  1  1  0  0  0
 17 24  1  0  0  0  0
 18 16  1  0  0  0  0
 20  9  1  0  0  0  0
 21 19  1  6  0  0  0
 21 20  1  0  0  0  0
 21  8  1  0  0  0  0
 24 25  1  6  0  0  0
 24 16  1  0  0  0  0
 26 11  1  6  0  0  0
 26 23  1  0  0  0  0
 26 13  1  0  0  0  0
 27  7  1  0  0  0  0
 28 29  1  0  0  0  0
 28 30  1  0  0  0  0
 29 30  1  0  0  0  0
 30 27  1  1  0  0  0
M  END
>  <MODEL>
1

>  <REMARK>
 VINA RESULT:      -0.5      0.000      0.000
  Name = 
  2 active torsions:
  status: ('A' for Active; 'I' for Inactive)
    1  A    between atoms: C_6  and  N_8
    2  A    between atoms: C_6  and  C_21
                            x       y       z     vdW  Elec       q    Type
                         _______ _______ _______ _____ _____    ______ ____

>  <TORSDO>
F 2

$$$$
=
 OpenBabel11052422013D

 30 34  0  0  1  0  0  0  0  0999 V2000
  162.3930  209.8710  154.8840 C   0  0  0  0  0  2  0  0  0  0  0  0
  161.7440  208.2080  156.6310 C   0  0  0  0  0  0  0  0  0  0  0  0
  161.0670  207.4510  153.3790 C   0  0  0  0  0  2  0  0  0  0  0  0
  161.6880  211.1820  154.5080 C   0  0  2  0  0  3  0  0  0  0  0  0
  160.4310  211.5070  155.3440 C   0  0  2  0  0  3  0  0  0  0  0  0
  157.5880  214.1720  152.7580 C   0  0  0  0  0  2  0  0  0  0  0  0
  159.4060  212.2790  154.6000 N   0  0  0  0  0  0  0  0  0  0  0  0
  160.1990  211.1290  151.1190 O   0  0  0  0  0  0  0  0  0  0  0  0
  160.7930  208.0260  151.9960 C   0  0  0  0  0  2  0  0  0  0  0  0
  160.9190  212.1840  156.6280 C   0  0  0  0  0  1  0  0  0  0  0  0
  158.5650  211.2850  153.9330 C   0  0  0  0  0  2  0  0  0  0  0  0
  160.7410  207.2940  157.2610 C   0  0  0  0  0  2  0  0  0  0  0  0
  159.2240  212.0760  151.5150 C   0  0  2  0  0  3  0  0  0  0  0  0
  158.9280  214.4520  152.1150 C   0  0  0  0  0  3  0  0  0  0  0  0
  162.8020  208.4740  157.2600 O   0  0  0  0  0  0  0  0  0  0  0  0
  160.4380  208.3200  154.4590 C   0  0  2  0  0  3  0  0  0  0  0  0
  159.9140  206.5710  156.2060 C   0  0  0  0  0  2  0  0  0  0  0  0
  161.4710  208.8410  155.3660 N   0  0  0  0  0  0  0  0  0  0  0  0
  161.6770  211.4690  153.0050 C   0  0  0  0  0  2  0  0  0  0  0  0
  161.5820  209.3060  151.7760 C   0  0  0  0  0  2  0  0  0  0  0  0
  160.7760  210.5070  152.2390 C   0  0  2  0  0  3  0  0  0  0  0  0
  159.7050  213.4950  151.5900 C   0  0  0  0  0  3  0  0  0  0  0  0
  157.0340  212.7630  152.4930 C   0  0  0  0  0  2  0  0  0  0  0  0
  159.3320  207.5500  155.1870 C   0  0  1  0  0  3  0  0  0  0  0  0
  158.3410  208.5030  155.8360 C   0  0  0  0  0  1  0  0  0  0  0  0
  158.1180  211.6840  152.5110 C   0  0  2  0  0  3  0  0  0  0  0  0
  158.4990  212.9560  155.5290 C   0  0  0  0  0  2  0  0  0  0  0  0
  156.2130  212.8640  156.1790 O   0  0  0  0  0  0  0  0  0  0  0  0
  156.9000  212.2890  157.2600 C   0  0  0  0  0  2  0  0  0  0  0  0
  157.3220  212.0570  155.8630 C   0  0  2  0  0  3  0  0  0  0  0  0
  1 18  1  0  0  0  0
  2 15  2  0  0  0  0
  2 12  1  0  0  0  0
  4 19  1  6  0  0  0
  4  1  1  0  0  0  0
  4  5  1  0  0  0  0
  5 10  1  1  0  0  0
  7  5  1  0  0  0  0
  7 27  1  0  0  0  0
  8 13  1  0  0  0  0
  8 21  1  0  0  0  0
  9  3  1  0  0  0  0
 11  7  1  0  0  0  0
 13 22  1  1  0  0  0
 13 26  1  0  0  0  0
 14  6  1  0  0  0  0
 16  3  1  6  0  0  0
 16 24  1  0  0  0  0
 16 18  1  0  0  0  0
 17 12  1  0  0  0  0
 18  2  1  0  0  0  0
 20  9  1  0  0  0  0
 21 20  1  6  0  0  0
 21 19  1  0  0  0  0
 22 14  2  0  0  0  0
 23  6  1  0  0  0  0
 24 25  1  1  0  0  0
 24 17  1  0  0  0  0
 26 23  1  1  0  0  0
 26 11  1  0  0  0  0
 28 29  1  0  0  0  0
 30 27  1  1  0  0  0
 30 28  1  0  0  0  0
 30 29  1  0  0  0  0
M  END
>  <MODEL>
2

>  <REMARK>
 VINA RESULT:      -0.3      2.115      6.494
  Name = 
  2 active torsions:
  status: ('A' for Active; 'I' for Inactive)
    1  A    between atoms: C_6  and  N_8
    2  A    between atoms: C_6  and  C_21
                            x       y       z     vdW  Elec       q    Type
                         _______ _______ _______ _____ _____    ______ ____

>  <TORSDO>
F 2

$$$$
=
 OpenBabel11052422013D

 30 34  0  0  1  0  0  0  0  0999 V2000
  161.3540  210.2020  156.2550 C   0  0  0  0  0  2  0  0  0  0  0  0
  160.2700  212.4450  156.0720 C   0  0  0  0  0  0  0  0  0  0  0  0
  158.2560  209.6970  156.0780 C   0  0  0  0  0  2  0  0  0  0  0  0
  162.0850  209.4070  155.1650 C   0  0  2  0  0  3  0  0  0  0  0  0
  162.1720  210.1100  153.7930 C   0  0  2  0  0  3  0  0  0  0  0  0
  162.5040  206.8330  150.4740 C   0  0  0  0  0  2  0  0  0  0  0  0
  162.1930  209.1710  152.6450 N   0  0  0  0  0  0  0  0  0  0  0  0
  160.3220  206.3050  154.1780 O   0  0  0  0  0  0  0  0  0  0  0  0
  158.1770  208.2100  155.7660 C   0  0  0  0  0  2  0  0  0  0  0  0
  163.3750  211.0540  153.8570 C   0  0  0  0  0  1  0  0  0  0  0  0
  160.7920  208.9280  152.3030 C   0  0  0  0  0  2  0  0  0  0  0  0
  159.3160  213.3890  155.4110 C   0  0  0  0  0  2  0  0  0  0  0  0
  160.9000  206.3670  152.8870 C   0  0  2  0  0  3  0  0  0  0  0  0
  163.0360  206.0930  151.6800 C   0  0  0  0  0  3  0  0  0  0  0  0
  161.1140  212.9070  156.8840 O   0  0  0  0  0  0  0  0  0  0  0  0
  159.1310  210.4160  155.0610 C   0  0  2  0  0  3  0  0  0  0  0  0
  158.0220  212.6860  155.0250 C   0  0  0  0  0  2  0  0  0  0  0  0
  160.2800  211.0470  155.7270 N   0  0  0  0  0  0  0  0  0  0  0  0
  161.8180  207.9010  155.2140 C   0  0  0  0  0  2  0  0  0  0  0  0
  159.5040  207.5250  156.0510 C   0  0  0  0  0  2  0  0  0  0  0  0
  160.3870  207.5550  154.8160 C   0  0  2  0  0  3  0  0  0  0  0  0
  162.3300  205.9180  152.8040 C   0  0  0  0  0  3  0  0  0  0  0  0
  160.9920  207.1030  150.5050 C   0  0  0  0  0  2  0  0  0  0  0  0
  158.2960  211.4040  154.2410 C   0  0  1  0  0  3  0  0  0  0  0  0
  158.9590  211.7010  152.9060 C   0  0  0  0  0  1  0  0  0  0  0  0
  160.4810  207.4710  151.9000 C   0  0  2  0  0  3  0  0  0  0  0  0
  162.7450  209.8260  151.4570 C   0  0  0  0  0  2  0  0  0  0  0  0
  161.9350  210.1510  149.2450 O   0  0  0  0  0  0  0  0  0  0  0  0
  162.1600  211.4530  149.7220 C   0  0  0  0  0  2  0  0  0  0  0  0
  161.6270  210.3880  150.5980 C   0  0  2  0  0  3  0  0  0  0  0  0
  2 15  2  0  0  0  0
  4 19  1  6  0  0  0
  4  1  1  0  0  0  0
  5 10  1  1  0  0  0
  5  4  1  0  0  0  0
  6 23  1  0  0  0  0
  6 14  1  0  0  0  0
  7  5  1  0  0  0  0
  8 21  1  0  0  0  0
  9 20  1  0  0  0  0
  9  3  1  0  0  0  0
 11  7  1  0  0  0  0
 12  2  1  0  0  0  0
 13 22  1  1  0  0  0
 13  8  1  0  0  0  0
 14 22  2  0  0  0  0
 16 18  1  0  0  0  0
 16  3  1  1  0  0  0
 17 12  1  0  0  0  0
 18  2  1  0  0  0  0
 18  1  1  0  0  0  0
 21 19  1  1  0  0  0
 21 20  1  0  0  0  0
 24 25  1  6  0  0  0
 24 17  1  0  0  0  0
 24 16  1  0  0  0  0
 26 23  1  6  0  0  0
 26 11  1  0  0  0  0
 26 13  1  0  0  0  0
 27  7  1  0  0  0  0
 28 29  1  0  0  0  0
 28 30  1  0  0  0  0
 29 30  1  0  0  0  0
 30 27  1  1  0  0  0
M  END
>  <MODEL>
3

>  <REMARK>
 VINA RESULT:      -0.1      2.441      5.123
  Name = 
  2 active torsions:
  status: ('A' for Active; 'I' for Inactive)
    1  A    between atoms: C_6  and  N_8
    2  A    between atoms: C_6  and  C_21
                            x       y       z     vdW  Elec       q    Type
                         _______ _______ _______ _____ _____    ______ ____

>  <TORSDO>
F 2

$$$$
