=
 OpenBabel11062409373D

 34 39  0  0  1  0  0  0  0  0999 V2000
  161.8570  209.0940  152.8930 C   0  0  0  0  0  2  0  0  0  0  0  0
  161.2640  206.7050  153.3690 C   0  0  0  0  0  0  0  0  0  0  0  0
  161.6770  207.6460  152.4990 C   0  0  0  0  0  3  0  0  0  0  0  0
  160.8420  208.3760  155.0610 C   0  0  0  0  0  0  0  0  0  0  0  0
  160.5750  208.9040  156.3300 N   0  0  0  0  0  0  0  0  0  0  0  0
  160.8880  207.0860  154.7490 C   0  0  0  0  0  3  0  0  0  0  0  0
  161.1680  210.6330  154.7730 N   0  0  0  0  0  0  0  0  0  0  0  0
  161.1460  209.3820  154.1390 N   0  0  0  0  0  0  0  0  0  0  0  0
  160.7480  210.3500  156.1680 C   0  0  0  0  0  3  0  0  0  0  0  0
  160.1500  211.4040  154.1950 N   0  0  0  0  0  2  0  0  0  0  0  0
  158.7620  213.2810  154.6670 C   0  0  2  0  0  3  0  0  0  0  0  0
  155.4880  214.1970  153.0870 C   0  0  0  0  0  0  0  0  0  0  0  0
  155.7780  214.4260  151.8820 O   0  0  0  0  0  0  0  0  0  0  0  0
  157.8560  213.4560  153.4700 C   0  0  0  0  0  2  0  0  0  0  0  0
  154.0930  214.4530  153.5470 C   0  0  0  0  0  1  0  0  0  0  0  0
  156.4870  213.6970  153.9890 N   0  0  0  0  0  0  0  0  0  0  0  0
  156.1090  213.3720  155.3950 C   0  0  0  0  0  2  0  0  0  0  0  0
  159.5750  212.2190  155.2530 C   0  0  1  0  0  3  0  0  0  0  0  0
  157.2880  212.7700  156.2050 C   0  0  0  0  0  2  0  0  0  0  0  0
  158.1260  212.0760  155.2490 N   0  0  1  0  0  0  0  0  0  0  0  0
  161.1540  205.3220  152.9960 N   0  0  0  0  0  2  0  0  0  0  0  0
  160.9940  204.9450  149.2550 C   0  0  0  0  0  3  0  0  0  0  0  0
  161.0650  203.3540  151.5590 C   0  0  0  0  0  3  0  0  0  0  0  0
  160.9010  201.5520  147.7550 C   0  0  0  0  0  0  0  0  0  0  0  0
  160.9210  202.9520  147.8800 C   0  0  0  0  0  3  0  0  0  0  0  0
  160.9770  203.5540  149.1390 C   0  0  0  0  0  0  0  0  0  0  0  0
  160.9940  201.3610  150.1850 C   0  0  0  0  0  3  0  0  0  0  0  0
  161.0120  202.7520  150.3000 C   0  0  0  0  0  0  0  0  0  0  0  0
  160.9380  200.7660  148.9210 C   0  0  0  0  0  3  0  0  0  0  0  0
  161.0840  204.7490  151.6800 C   0  0  0  0  0  0  0  0  0  0  0  0
  161.0490  205.5390  150.5190 C   0  0  0  0  0  3  0  0  0  0  0  0
  160.8480  200.9340  146.4560 N   0  0  0  0  0  0  0  0  0  0  0  0
  160.2570  201.6220  145.3180 C   0  0  0  0  0  1  0  0  0  0  0  0
  161.3870  199.6010  146.2310 C   0  0  0  0  0  1  0  0  0  0  0  0
  1  8  1  0  0  0  0
  2  6  1  0  0  0  0
  3  1  1  0  0  0  0
  3  2  2  0  0  0  0
  4  5  1  0  0  0  0
  6  4  2  0  0  0  0
  7  9  1  0  0  0  0
  8  7  1  0  0  0  0
  8  4  1  0  0  0  0
  9  5  2  0  0  0  0
 10  7  1  0  0  0  0
 11 14  1  6  0  0  0
 11 20  1  0  0  0  0
 11 18  1  0  0  0  0
 12 15  1  0  0  0  0
 12 16  1  0  0  0  0
 13 12  2  0  0  0  0
 14 16  1  0  0  0  0
 16 17  1  0  0  0  0
 17 19  1  0  0  0  0
 18 10  1  6  0  0  0
 20 18  1  0  0  0  0
 20 19  1  1  0  0  0
 21  2  1  0  0  0  0
 22 31  1  0  0  0  0
 23 30  1  0  0  0  0
 24 25  2  0  0  0  0
 24 29  1  0  0  0  0
 25 26  1  0  0  0  0
 26 22  2  0  0  0  0
 26 28  1  0  0  0  0
 27 28  1  0  0  0  0
 28 23  2  0  0  0  0
 29 27  2  0  0  0  0
 30 21  1  0  0  0  0
 31 30  2  0  0  0  0
 32 24  1  0  0  0  0
 33 32  1  0  0  0  0
 34 32  1  0  0  0  0
M  END
>  <MODEL>
1

>  <REMARK>
 VINA RESULT:      -9.7      0.000      0.000
  Name = 
  5 active torsions:
  status: ('A' for Active; 'I' for Inactive)
    1  A    between atoms: N_5  and  N_19
    2  A    between atoms: N_5  and  C_32
    3  A    between atoms: C_7  and  N_11
    4  A    between atoms: C_8  and  N_18
    5  A    between atoms: N_18  and  C_30
                            x       y       z     vdW  Elec       q    Type
                         _______ _______ _______ _____ _____    ______ ____

>  <TORSDO>
F 5

$$$$
=
 OpenBabel11062409373D

 34 39  0  0  1  0  0  0  0  0999 V2000
  160.6360  209.2150  153.2720 C   0  0  0  0  0  2  0  0  0  0  0  0
  160.9570  206.7750  153.7520 C   0  0  0  0  0  0  0  0  0  0  0  0
  160.8620  207.7790  152.8590 C   0  0  0  0  0  3  0  0  0  0  0  0
  160.3560  208.2560  155.5630 C   0  0  0  0  0  0  0  0  0  0  0  0
  160.1870  208.6960  156.8810 N   0  0  0  0  0  0  0  0  0  0  0  0
  160.7570  207.0450  155.1930 C   0  0  0  0  0  3  0  0  0  0  0  0
  159.8680  210.4870  155.3140 N   0  0  0  0  0  0  0  0  0  0  0  0
  160.1300  209.2840  154.6430 N   0  0  0  0  0  0  0  0  0  0  0  0
  159.8450  210.1160  156.7500 C   0  0  0  0  0  3  0  0  0  0  0  0
  158.5610  210.8700  154.9760 N   0  0  0  0  0  2  0  0  0  0  0  0
  159.4160  212.8170  153.9050 C   0  0  2  0  0  3  0  0  0  0  0  0
  159.8560  213.4350  150.2330 C   0  0  0  0  0  0  0  0  0  0  0  0
  160.7130  212.5840  149.8750 O   0  0  0  0  0  0  0  0  0  0  0  0
  159.8370  212.3930  152.5170 C   0  0  0  0  0  2  0  0  0  0  0  0
  159.3910  214.4440  149.2370 C   0  0  0  0  0  1  0  0  0  0  0  0
  159.3410  213.4250  151.5730 N   0  0  0  0  0  0  0  0  0  0  0  0
  158.2790  214.3990  151.9600 C   0  0  0  0  0  2  0  0  0  0  0  0
  158.5320  212.3240  154.9570 C   0  0  1  0  0  3  0  0  0  0  0  0
  157.7830  214.1950  153.4150 C   0  0  0  0  0  2  0  0  0  0  0  0
  157.9470  212.7860  153.7070 N   0  0  1  0  0  0  0  0  0  0  0  0
  161.2320  205.4240  153.3490 N   0  0  0  0  0  2  0  0  0  0  0  0
  161.1180  202.9630  150.5030 C   0  0  0  0  0  3  0  0  0  0  0  0
  161.2530  205.7290  150.9290 C   0  0  0  0  0  3  0  0  0  0  0  0
  161.1660  204.2000  147.0050 C   0  0  0  0  0  0  0  0  0  0  0  0
  161.1270  203.3310  148.1090 C   0  0  0  0  0  3  0  0  0  0  0  0
  161.1540  203.8330  149.4110 C   0  0  0  0  0  0  0  0  0  0  0  0
  161.2610  206.0970  148.5350 C   0  0  0  0  0  3  0  0  0  0  0  0
  161.2230  205.2270  149.6260 C   0  0  0  0  0  0  0  0  0  0  0  0
  161.2330  205.5860  147.2340 C   0  0  0  0  0  3  0  0  0  0  0  0
  161.2140  204.8590  152.0270 C   0  0  0  0  0  0  0  0  0  0  0  0
  161.1460  203.4750  151.8040 C   0  0  0  0  0  3  0  0  0  0  0  0
  161.1330  203.6800  145.6630 N   0  0  0  0  0  0  0  0  0  0  0  0
  160.8250  202.2810  145.4030 C   0  0  0  0  0  1  0  0  0  0  0  0
  161.4030  204.5330  144.5150 C   0  0  0  0  0  1  0  0  0  0  0  0
  1  8  1  0  0  0  0
  2  6  1  0  0  0  0
  3  1  1  0  0  0  0
  3  2  2  0  0  0  0
  4  5  1  0  0  0  0
  6  4  2  0  0  0  0
  7  9  1  0  0  0  0
  8  7  1  0  0  0  0
  8  4  1  0  0  0  0
  9  5  2  0  0  0  0
 10  7  1  0  0  0  0
 11 14  1  6  0  0  0
 11 18  1  0  0  0  0
 12 16  1  0  0  0  0
 13 12  2  0  0  0  0
 15 12  1  0  0  0  0
 16 17  1  0  0  0  0
 16 14  1  0  0  0  0
 17 19  1  0  0  0  0
 18 10  1  6  0  0  0
 20 19  1  1  0  0  0
 20 11  1  0  0  0  0
 20 18  1  0  0  0  0
 21  2  1  0  0  0  0
 22 31  1  0  0  0  0
 23 30  1  0  0  0  0
 24 29  1  0  0  0  0
 24 25  2  0  0  0  0
 25 26  1  0  0  0  0
 26 28  1  0  0  0  0
 26 22  2  0  0  0  0
 27 28  1  0  0  0  0
 28 23  2  0  0  0  0
 29 27  2  0  0  0  0
 30 21  1  0  0  0  0
 31 30  2  0  0  0  0
 32 24  1  0  0  0  0
 33 32  1  0  0  0  0
 34 32  1  0  0  0  0
M  END
>  <MODEL>
2

>  <REMARK>
 VINA RESULT:      -9.5      1.986      2.926
  Name = 
  5 active torsions:
  status: ('A' for Active; 'I' for Inactive)
    1  A    between atoms: N_5  and  N_19
    2  A    between atoms: N_5  and  C_32
    3  A    between atoms: C_7  and  N_11
    4  A    between atoms: C_8  and  N_18
    5  A    between atoms: N_18  and  C_30
                            x       y       z     vdW  Elec       q    Type
                         _______ _______ _______ _____ _____    ______ ____

>  <TORSDO>
F 5

$$$$
=
 OpenBabel11062409373D

 34 39  0  0  1  0  0  0  0  0999 V2000
  161.8260  209.9330  152.7380 C   0  0  0  0  0  2  0  0  0  0  0  0
  161.8100  208.4960  150.6840 C   0  0  0  0  0  0  0  0  0  0  0  0
  161.9240  209.7140  151.2460 C   0  0  0  0  0  3  0  0  0  0  0  0
  161.2040  207.5130  152.8060 C   0  0  0  0  0  0  0  0  0  0  0  0
  160.9540  206.5110  153.7510 N   0  0  0  0  0  0  0  0  0  0  0  0
  161.4960  207.3190  151.5250 C   0  0  0  0  0  3  0  0  0  0  0  0
  161.0080  208.6830  154.7740 N   0  0  0  0  0  0  0  0  0  0  0  0
  161.1940  208.7850  153.3870 N   0  0  0  0  0  0  0  0  0  0  0  0
  160.7950  207.2340  155.0160 C   0  0  0  0  0  3  0  0  0  0  0  0
  159.7960  209.3230  155.0740 N   0  0  0  0  0  2  0  0  0  0  0  0
  159.3200  211.6550  155.1290 C   0  0  2  0  0  3  0  0  0  0  0  0
  155.9720  213.3390  155.0220 C   0  0  0  0  0  0  0  0  0  0  0  0
  155.5100  213.0400  153.8890 O   0  0  0  0  0  0  0  0  0  0  0  0
  157.9220  211.8200  154.5800 C   0  0  0  0  0  2  0  0  0  0  0  0
  155.2070  214.2920  155.8770 C   0  0  0  0  0  1  0  0  0  0  0  0
  157.2100  212.7670  155.4730 N   0  0  0  0  0  0  0  0  0  0  0  0
  157.7080  213.0840  156.8430 C   0  0  0  0  0  2  0  0  0  0  0  0
  160.1260  210.5870  155.7130 C   0  0  1  0  0  3  0  0  0  0  0  0
  159.0120  212.3200  157.1940 C   0  0  0  0  0  2  0  0  0  0  0  0
  158.9710  211.0790  156.4490 N   0  0  1  0  0  0  0  0  0  0  0  0
  161.9640  208.2940  149.2700 N   0  0  0  0  0  2  0  0  0  0  0  0
  161.9590  205.8140  146.4400 C   0  0  0  0  0  3  0  0  0  0  0  0
  161.4080  205.9220  149.1840 C   0  0  0  0  0  3  0  0  0  0  0  0
  160.9930  202.2900  147.0900 C   0  0  0  0  0  0  0  0  0  0  0  0
  161.4080  203.4550  146.4210 C   0  0  0  0  0  3  0  0  0  0  0  0
  161.5480  204.6610  147.1110 C   0  0  0  0  0  0  0  0  0  0  0  0
  160.8590  203.5630  149.1660 C   0  0  0  0  0  3  0  0  0  0  0  0
  161.2700  204.7150  148.4940 C   0  0  0  0  0  0  0  0  0  0  0  0
  160.7210  202.3590  148.4680 C   0  0  0  0  0  3  0  0  0  0  0  0
  161.8220  207.0800  148.5140 C   0  0  0  0  0  0  0  0  0  0  0  0
  162.0960  207.0160  147.1380 C   0  0  0  0  0  3  0  0  0  0  0  0
  160.8530  201.0470  146.3770 N   0  0  0  0  0  0  0  0  0  0  0  0
  160.0830  200.9690  145.1430 C   0  0  0  0  0  1  0  0  0  0  0  0
  161.4780  199.8250  146.8590 C   0  0  0  0  0  1  0  0  0  0  0  0
  1  8  1  0  0  0  0
  2  3  2  0  0  0  0
  2  6  1  0  0  0  0
  3  1  1  0  0  0  0
  4  8  1  0  0  0  0
  4  5  1  0  0  0  0
  5  9  2  0  0  0  0
  6  4  2  0  0  0  0
  7  9  1  0  0  0  0
  7 10  1  0  0  0  0
  8  7  1  0  0  0  0
 11 14  1  6  0  0  0
 11 18  1  0  0  0  0
 11 20  1  0  0  0  0
 12 16  1  0  0  0  0
 12 15  1  0  0  0  0
 13 12  2  0  0  0  0
 14 16  1  0  0  0  0
 16 17  1  0  0  0  0
 17 19  1  0  0  0  0
 18 10  1  6  0  0  0
 18 20  1  0  0  0  0
 20 19  1  1  0  0  0
 21  2  1  0  0  0  0
 22 26  2  0  0  0  0
 22 31  1  0  0  0  0
 24 29  1  0  0  0  0
 25 24  2  0  0  0  0
 25 26  1  0  0  0  0
 26 28  1  0  0  0  0
 28 27  1  0  0  0  0
 28 23  2  0  0  0  0
 29 27  2  0  0  0  0
 30 23  1  0  0  0  0
 30 21  1  0  0  0  0
 31 30  2  0  0  0  0
 32 34  1  0  0  0  0
 32 24  1  0  0  0  0
 33 32  1  0  0  0  0
M  END
>  <MODEL>
3

>  <REMARK>
 VINA RESULT:      -9.4      1.686      2.504
  Name = 
  5 active torsions:
  status: ('A' for Active; 'I' for Inactive)
    1  A    between atoms: N_5  and  N_19
    2  A    between atoms: N_5  and  C_32
    3  A    between atoms: C_7  and  N_11
    4  A    between atoms: C_8  and  N_18
    5  A    between atoms: N_18  and  C_30
                            x       y       z     vdW  Elec       q    Type
                         _______ _______ _______ _____ _____    ______ ____

>  <TORSDO>
F 5

$$$$
=
 OpenBabel11062409373D

 34 39  0  0  1  0  0  0  0  0999 V2000
  162.9550  213.1700  146.9090 C   0  0  0  0  0  2  0  0  0  0  0  0
  162.0860  211.5180  148.5820 C   0  0  0  0  0  0  0  0  0  0  0  0
  163.1220  212.1940  148.0500 C   0  0  0  0  0  3  0  0  0  0  0  0
  160.5960  212.3460  146.8700 C   0  0  0  0  0  0  0  0  0  0  0  0
  159.3870  212.6300  146.2250 N   0  0  0  0  0  0  0  0  0  0  0  0
  160.7340  211.6550  147.9960 C   0  0  0  0  0  3  0  0  0  0  0  0
  161.2280  213.7420  145.1580 N   0  0  0  0  0  0  0  0  0  0  0  0
  161.6790  212.9560  146.2290 N   0  0  0  0  0  0  0  0  0  0  0  0
  159.7650  213.4990  145.1070 C   0  0  0  0  0  3  0  0  0  0  0  0
  161.7680  213.1900  143.9870 N   0  0  0  0  0  2  0  0  0  0  0  0
  161.3380  213.3610  141.6510 C   0  0  2  0  0  3  0  0  0  0  0  0
  163.0890  211.6070  138.8380 C   0  0  0  0  0  0  0  0  0  0  0  0
  164.2690  212.0460  138.8850 O   0  0  0  0  0  0  0  0  0  0  0  0
  162.5820  212.8690  140.9490 C   0  0  0  0  0  2  0  0  0  0  0  0
  162.7060  210.7030  137.7150 C   0  0  0  0  0  1  0  0  0  0  0  0
  162.1400  211.9720  139.8530 N   0  0  0  0  0  0  0  0  0  0  0  0
  160.7670  211.3910  139.8160 C   0  0  0  0  0  2  0  0  0  0  0  0
  160.7280  213.2340  142.9720 C   0  0  1  0  0  3  0  0  0  0  0  0
  159.9020  211.8280  141.0280 C   0  0  0  0  0  2  0  0  0  0  0  0
  160.8210  212.0550  142.1230 N   0  0  1  0  0  0  0  0  0  0  0  0
  162.2500  210.6370  149.7040 N   0  0  0  0  0  2  0  0  0  0  0  0
  161.2680  207.2610  151.0460 C   0  0  0  0  0  3  0  0  0  0  0  0
  162.0590  208.4530  148.6380 C   0  0  0  0  0  3  0  0  0  0  0  0
  161.1840  204.3340  148.7660 C   0  0  0  0  0  0  0  0  0  0  0  0
  161.0820  205.1200  149.9270 C   0  0  0  0  0  3  0  0  0  0  0  0
  161.3700  206.4860  149.8890 C   0  0  0  0  0  0  0  0  0  0  0  0
  161.8710  206.3130  147.5180 C   0  0  0  0  0  3  0  0  0  0  0  0
  161.7680  207.0870  148.6750 C   0  0  0  0  0  0  0  0  0  0  0  0
  161.5810  204.9460  147.5640 C   0  0  0  0  0  3  0  0  0  0  0  0
  161.9560  209.2330  149.7960 C   0  0  0  0  0  0  0  0  0  0  0  0
  161.5590  208.6270  150.9990 C   0  0  0  0  0  3  0  0  0  0  0  0
  160.8830  202.9270  148.8070 N   0  0  0  0  0  0  0  0  0  0  0  0
  160.6100  202.2500  150.0670 C   0  0  0  0  0  1  0  0  0  0  0  0
  160.8360  202.1290  147.5910 C   0  0  0  0  0  1  0  0  0  0  0  0
  1  3  1  0  0  0  0
  2 21  1  0  0  0  0
  3  2  2  0  0  0  0
  4  6  2  0  0  0  0
  5  4  1  0  0  0  0
  6  2  1  0  0  0  0
  7  8  1  0  0  0  0
  8  4  1  0  0  0  0
  8  1  1  0  0  0  0
  9  7  1  0  0  0  0
  9  5  2  0  0  0  0
 10  7  1  0  0  0  0
 11 14  1  1  0  0  0
 11 20  1  0  0  0  0
 11 18  1  0  0  0  0
 12 13  2  0  0  0  0
 12 16  1  0  0  0  0
 15 12  1  0  0  0  0
 16 14  1  0  0  0  0
 17 16  1  0  0  0  0
 17 19  1  0  0  0  0
 18 10  1  1  0  0  0
 20 19  1  6  0  0  0
 20 18  1  0  0  0  0
 21 30  1  0  0  0  0
 23 28  2  0  0  0  0
 23 30  1  0  0  0  0
 24 32  1  0  0  0  0
 24 25  2  0  0  0  0
 26 25  1  0  0  0  0
 26 22  2  0  0  0  0
 27 29  2  0  0  0  0
 27 28  1  0  0  0  0
 28 26  1  0  0  0  0
 29 24  1  0  0  0  0
 30 31  2  0  0  0  0
 31 22  1  0  0  0  0
 32 33  1  0  0  0  0
 34 32  1  0  0  0  0
M  END
>  <MODEL>
4

>  <REMARK>
 VINA RESULT:      -9.2      7.938      9.962
  Name = 
  5 active torsions:
  status: ('A' for Active; 'I' for Inactive)
    1  A    between atoms: N_5  and  N_19
    2  A    between atoms: N_5  and  C_32
    3  A    between atoms: C_7  and  N_11
    4  A    between atoms: C_8  and  N_18
    5  A    between atoms: N_18  and  C_30
                            x       y       z     vdW  Elec       q    Type
                         _______ _______ _______ _____ _____    ______ ____

>  <TORSDO>
F 5

$$$$
=
 OpenBabel11062409373D

 34 39  0  0  1  0  0  0  0  0999 V2000
  162.2740  210.2390  151.1730 C   0  0  0  0  0  2  0  0  0  0  0  0
  161.2380  208.2790  152.3440 C   0  0  0  0  0  0  0  0  0  0  0  0
  162.1880  208.7730  151.5260 C   0  0  0  0  0  3  0  0  0  0  0  0
  160.1110  210.4140  152.4110 C   0  0  0  0  0  0  0  0  0  0  0  0
  159.2190  211.4010  152.8490 N   0  0  0  0  0  0  0  0  0  0  0  0
  160.1780  209.1680  152.8670 C   0  0  0  0  0  3  0  0  0  0  0  0
  160.8060  212.2910  151.2830 N   0  0  0  0  0  0  0  0  0  0  0  0
  161.0110  210.9160  151.4670 N   0  0  0  0  0  0  0  0  0  0  0  0
  159.6230  212.6070  152.1210 C   0  0  0  0  0  3  0  0  0  0  0  0
  160.4150  212.4740  149.9490 N   0  0  0  0  0  2  0  0  0  0  0  0
  161.4440  212.3370  147.8060 C   0  0  2  0  0  3  0  0  0  0  0  0
  159.9300  213.0820  144.4580 C   0  0  0  0  0  0  0  0  0  0  0  0
  159.0210  212.2190  144.3290 O   0  0  0  0  0  0  0  0  0  0  0  0
  160.3230  212.2570  146.7960 C   0  0  0  0  0  2  0  0  0  0  0  0
  160.2220  213.9900  143.3110 C   0  0  0  0  0  1  0  0  0  0  0  0
  160.6630  213.1830  145.6890 N   0  0  0  0  0  0  0  0  0  0  0  0
  161.6910  214.2530  145.8450 C   0  0  0  0  0  2  0  0  0  0  0  0
  161.6160  212.7770  149.1870 C   0  0  1  0  0  3  0  0  0  0  0  0
  162.3260  214.2680  147.2600 C   0  0  0  0  0  2  0  0  0  0  0  0
  161.3120  213.7690  148.1660 N   0  0  1  0  0  0  0  0  0  0  0  0
  161.2040  206.8930  152.7180 N   0  0  0  0  0  2  0  0  0  0  0  0
  160.9610  203.3320  151.5240 C   0  0  0  0  0  3  0  0  0  0  0  0
  161.2570  205.9160  150.4850 C   0  0  0  0  0  3  0  0  0  0  0  0
  161.1020  202.6030  147.8880 C   0  0  0  0  0  0  0  0  0  0  0  0
  161.0050  202.4230  149.2790 C   0  0  0  0  0  3  0  0  0  0  0  0
  161.0550  203.5180  150.1430 C   0  0  0  0  0  0  0  0  0  0  0  0
  161.3000  205.0080  148.2400 C   0  0  0  0  0  3  0  0  0  0  0  0
  161.2050  204.8210  149.6200 C   0  0  0  0  0  0  0  0  0  0  0  0
  161.2490  203.9050  147.3810 C   0  0  0  0  0  3  0  0  0  0  0  0
  161.1600  205.7330  151.8700 C   0  0  0  0  0  0  0  0  0  0  0  0
  161.0120  204.4340  152.3820 C   0  0  0  0  0  3  0  0  0  0  0  0
  161.0460  201.4720  146.9990 N   0  0  0  0  0  0  0  0  0  0  0  0
  161.5800  200.1760  147.3930 C   0  0  0  0  0  1  0  0  0  0  0  0
  160.4500  201.5800  145.6760 C   0  0  0  0  0  1  0  0  0  0  0  0
  1  8  1  0  0  0  0
  1  3  1  0  0  0  0
  2 21  1  0  0  0  0
  2  6  1  0  0  0  0
  3  2  2  0  0  0  0
  4  5  1  0  0  0  0
  4  6  2  0  0  0  0
  7  8  1  0  0  0  0
  7  9  1  0  0  0  0
  8  4  1  0  0  0  0
  9  5  2  0  0  0  0
 10  7  1  0  0  0  0
 11 14  1  1  0  0  0
 11 20  1  0  0  0  0
 11 18  1  0  0  0  0
 12 16  1  0  0  0  0
 13 12  2  0  0  0  0
 15 12  1  0  0  0  0
 16 17  1  0  0  0  0
 16 14  1  0  0  0  0
 17 19  1  0  0  0  0
 18 10  1  1  0  0  0
 20 19  1  6  0  0  0
 20 18  1  0  0  0  0
 22 31  1  0  0  0  0
 23 30  1  0  0  0  0
 24 25  2  0  0  0  0
 25 26  1  0  0  0  0
 26 22  2  0  0  0  0
 27 28  1  0  0  0  0
 28 26  1  0  0  0  0
 28 23  2  0  0  0  0
 29 24  1  0  0  0  0
 29 27  2  0  0  0  0
 30 31  2  0  0  0  0
 30 21  1  0  0  0  0
 32 33  1  0  0  0  0
 32 24  1  0  0  0  0
 34 32  1  0  0  0  0
M  END
>  <MODEL>
5

>  <REMARK>
 VINA RESULT:      -9.2      4.550      5.512
  Name = 
  5 active torsions:
  status: ('A' for Active; 'I' for Inactive)
    1  A    between atoms: N_5  and  N_19
    2  A    between atoms: N_5  and  C_32
    3  A    between atoms: C_7  and  N_11
    4  A    between atoms: C_8  and  N_18
    5  A    between atoms: N_18  and  C_30
                            x       y       z     vdW  Elec       q    Type
                         _______ _______ _______ _____ _____    ______ ____

>  <TORSDO>
F 5

$$$$
=
 OpenBabel11062409373D

 34 39  0  0  1  0  0  0  0  0999 V2000
  161.3650  211.2710  154.5770 C   0  0  0  0  0  2  0  0  0  0  0  0
  160.8910  208.8110  154.6510 C   0  0  0  0  0  0  0  0  0  0  0  0
  161.6620  209.8320  154.2290 C   0  0  0  0  0  3  0  0  0  0  0  0
  159.2630  210.3450  155.5620 C   0  0  0  0  0  0  0  0  0  0  0  0
  158.1640  210.7810  156.3120 N   0  0  0  0  0  0  0  0  0  0  0  0
  159.6560  209.0840  155.4180 C   0  0  0  0  0  3  0  0  0  0  0  0
  159.4300  212.6340  155.4600 N   0  0  0  0  0  0  0  0  0  0  0  0
  159.9810  211.4190  155.0270 N   0  0  0  0  0  0  0  0  0  0  0  0
  158.2300  212.2430  156.2390 C   0  0  0  0  0  3  0  0  0  0  0  0
  158.9680  213.3050  154.3180 N   0  0  0  0  0  2  0  0  0  0  0  0
  158.5190  212.4400  152.1450 C   0  0  2  0  0  3  0  0  0  0  0  0
  156.5060  214.0080  149.3980 C   0  0  0  0  0  0  0  0  0  0  0  0
  155.3370  214.0680  149.8650 O   0  0  0  0  0  0  0  0  0  0  0  0
  157.3090  213.1830  151.6300 C   0  0  0  0  0  2  0  0  0  0  0  0
  156.7310  214.4100  147.9790 C   0  0  0  0  0  1  0  0  0  0  0  0
  157.5930  213.5630  150.2240 N   0  0  0  0  0  0  0  0  0  0  0  0
  158.9800  213.5600  149.6740 C   0  0  0  0  0  2  0  0  0  0  0  0
  159.5470  212.6360  153.1640 C   0  0  1  0  0  3  0  0  0  0  0  0
  160.0380  213.1290  150.7230 C   0  0  0  0  0  2  0  0  0  0  0  0
  159.5170  213.5280  152.0140 N   0  0  1  0  0  0  0  0  0  0  0  0
  161.2190  207.4420  154.3620 N   0  0  0  0  0  2  0  0  0  0  0  0
  161.1800  206.7420  150.6640 C   0  0  0  0  0  3  0  0  0  0  0  0
  161.1440  205.3570  153.0990 C   0  0  0  0  0  3  0  0  0  0  0  0
  161.0790  203.2320  149.4630 C   0  0  0  0  0  0  0  0  0  0  0  0
  161.1200  204.6370  149.4660 C   0  0  0  0  0  3  0  0  0  0  0  0
  161.1420  205.3460  150.6690 C   0  0  0  0  0  0  0  0  0  0  0  0
  161.0850  203.2530  151.9020 C   0  0  0  0  0  3  0  0  0  0  0  0
  161.1230  204.6480  151.8960 C   0  0  0  0  0  0  0  0  0  0  0  0
  161.0620  202.5500  150.6930 C   0  0  0  0  0  3  0  0  0  0  0  0
  161.1840  206.7570  153.0980 C   0  0  0  0  0  0  0  0  0  0  0  0
  161.2020  207.4430  151.8730 C   0  0  0  0  0  3  0  0  0  0  0  0
  161.0600  202.5030  148.2220 N   0  0  0  0  0  0  0  0  0  0  0  0
  160.9470  201.0510  148.2010 C   0  0  0  0  0  1  0  0  0  0  0  0
  161.1490  203.1890  146.9420 C   0  0  0  0  0  1  0  0  0  0  0  0
  1  8  1  0  0  0  0
  2  6  1  0  0  0  0
  3  1  1  0  0  0  0
  3  2  2  0  0  0  0
  4  5  1  0  0  0  0
  6  4  2  0  0  0  0
  7  9  1  0  0  0  0
  8  7  1  0  0  0  0
  8  4  1  0  0  0  0
  9  5  2  0  0  0  0
 10  7  1  0  0  0  0
 11 14  1  1  0  0  0
 11 18  1  0  0  0  0
 12 13  2  0  0  0  0
 12 16  1  0  0  0  0
 15 12  1  0  0  0  0
 16 14  1  0  0  0  0
 17 16  1  0  0  0  0
 17 19  1  0  0  0  0
 18 10  1  1  0  0  0
 20 19  1  6  0  0  0
 20 11  1  0  0  0  0
 20 18  1  0  0  0  0
 21  2  1  0  0  0  0
 22 26  2  0  0  0  0
 22 31  1  0  0  0  0
 24 25  2  0  0  0  0
 24 29  1  0  0  0  0
 25 26  1  0  0  0  0
 26 28  1  0  0  0  0
 28 27  1  0  0  0  0
 28 23  2  0  0  0  0
 29 27  2  0  0  0  0
 30 23  1  0  0  0  0
 30 21  1  0  0  0  0
 31 30  2  0  0  0  0
 32 24  1  0  0  0  0
 33 32  1  0  0  0  0
 34 32  1  0  0  0  0
M  END
>  <MODEL>
6

>  <REMARK>
 VINA RESULT:      -8.3      2.079      3.195
  Name = 
  5 active torsions:
  status: ('A' for Active; 'I' for Inactive)
    1  A    between atoms: N_5  and  N_19
    2  A    between atoms: N_5  and  C_32
    3  A    between atoms: C_7  and  N_11
    4  A    between atoms: C_8  and  N_18
    5  A    between atoms: N_18  and  C_30
                            x       y       z     vdW  Elec       q    Type
                         _______ _______ _______ _____ _____    ______ ____

>  <TORSDO>
F 5

$$$$
=
 OpenBabel11062409373D

 34 39  0  0  1  0  0  0  0  0999 V2000
  161.4980  205.0620  150.3280 C   0  0  0  0  0  2  0  0  0  0  0  0
  161.3200  206.3430  152.4760 C   0  0  0  0  0  0  0  0  0  0  0  0
  161.1610  205.1910  151.7950 C   0  0  0  0  0  3  0  0  0  0  0  0
  161.8720  207.5300  150.4460 C   0  0  0  0  0  0  0  0  0  0  0  0
  162.3420  208.5680  149.6330 N   0  0  0  0  0  0  0  0  0  0  0  0
  161.7650  207.5650  151.7690 C   0  0  0  0  0  3  0  0  0  0  0  0
  161.9350  206.5770  148.3560 N   0  0  0  0  0  0  0  0  0  0  0  0
  161.5920  206.3800  149.7020 N   0  0  0  0  0  0  0  0  0  0  0  0
  162.3660  207.9950  148.2850 C   0  0  0  0  0  3  0  0  0  0  0  0
  160.7510  206.4770  147.6110 N   0  0  0  0  0  2  0  0  0  0  0  0
  161.7380  204.7110  146.3560 C   0  0  2  0  0  3  0  0  0  0  0  0
  161.1850  201.0210  146.7200 C   0  0  0  0  0  0  0  0  0  0  0  0
  161.6220  200.7530  147.8720 O   0  0  0  0  0  0  0  0  0  0  0  0
  161.5800  203.4570  147.1830 C   0  0  0  0  0  2  0  0  0  0  0  0
  160.7350  199.8980  145.8480 C   0  0  0  0  0  1  0  0  0  0  0  0
  161.1240  202.3820  146.2680 N   0  0  0  0  0  0  0  0  0  0  0  0
  160.5440  202.6840  144.9270 C   0  0  0  0  0  2  0  0  0  0  0  0
  161.1200  206.0310  146.2770 C   0  0  1  0  0  3  0  0  0  0  0  0
  160.4820  204.2060  144.6330 C   0  0  0  0  0  2  0  0  0  0  0  0
  160.3320  204.8620  145.9150 N   0  0  1  0  0  0  0  0  0  0  0  0
  161.0510  206.4360  153.8840 N   0  0  0  0  0  2  0  0  0  0  0  0
  159.8770  208.6250  156.7120 C   0  0  0  0  0  3  0  0  0  0  0  0
  160.5200  208.8140  153.9920 C   0  0  0  0  0  3  0  0  0  0  0  0
  159.2850  212.2390  156.1110 C   0  0  0  0  0  0  0  0  0  0  0  0
  159.3780  210.9950  156.7600 C   0  0  0  0  0  3  0  0  0  0  0  0
  159.7890  209.8570  156.0610 C   0  0  0  0  0  0  0  0  0  0  0  0
  160.0230  211.1840  154.0400 C   0  0  0  0  0  3  0  0  0  0  0  0
  160.1120  209.9520  154.6900 C   0  0  0  0  0  0  0  0  0  0  0  0
  159.6110  212.3190  154.7460 C   0  0  0  0  0  3  0  0  0  0  0  0
  160.6120  207.5770  154.6410 C   0  0  0  0  0  0  0  0  0  0  0  0
  160.2880  207.4910  156.0050 C   0  0  0  0  0  3  0  0  0  0  0  0
  158.8650  213.4110  156.8340 N   0  0  0  0  0  0  0  0  0  0  0  0
  157.4650  213.6300  157.1680 C   0  0  0  0  0  1  0  0  0  0  0  0
  159.8240  214.4180  157.2610 C   0  0  0  0  0  1  0  0  0  0  0  0
  1  3  1  0  0  0  0
  2 21  1  0  0  0  0
  3  2  2  0  0  0  0
  4  6  2  0  0  0  0
  5  4  1  0  0  0  0
  6  2  1  0  0  0  0
  7  8  1  0  0  0  0
  8  1  1  0  0  0  0
  8  4  1  0  0  0  0
  9  7  1  0  0  0  0
  9  5  2  0  0  0  0
 10  7  1  0  0  0  0
 11 14  1  1  0  0  0
 12 13  2  0  0  0  0
 15 12  1  0  0  0  0
 16 12  1  0  0  0  0
 16 14  1  0  0  0  0
 17 16  1  0  0  0  0
 18 11  1  0  0  0  0
 18 10  1  1  0  0  0
 19 17  1  0  0  0  0
 20 19  1  6  0  0  0
 20 18  1  0  0  0  0
 20 11  1  0  0  0  0
 21 30  1  0  0  0  0
 23 30  2  0  0  0  0
 23 28  1  0  0  0  0
 24 25  1  0  0  0  0
 24 32  1  0  0  0  0
 26 22  1  0  0  0  0
 26 25  2  0  0  0  0
 27 28  2  0  0  0  0
 27 29  1  0  0  0  0
 28 26  1  0  0  0  0
 29 24  2  0  0  0  0
 30 31  1  0  0  0  0
 31 22  2  0  0  0  0
 32 33  1  0  0  0  0
 32 34  1  0  0  0  0
M  END
>  <MODEL>
7

>  <REMARK>
 VINA RESULT:      -7.9      3.540     11.134
  Name = 
  5 active torsions:
  status: ('A' for Active; 'I' for Inactive)
    1  A    between atoms: N_5  and  N_19
    2  A    between atoms: N_5  and  C_32
    3  A    between atoms: C_7  and  N_11
    4  A    between atoms: C_8  and  N_18
    5  A    between atoms: N_18  and  C_30
                            x       y       z     vdW  Elec       q    Type
                         _______ _______ _______ _____ _____    ______ ____

>  <TORSDO>
F 5

$$$$
=
 OpenBabel11062409373D

 34 39  0  0  1  0  0  0  0  0999 V2000
  159.9000  212.5490  145.3110 C   0  0  0  0  0  2  0  0  0  0  0  0
  161.1870  213.0920  147.3930 C   0  0  0  0  0  0  0  0  0  0  0  0
  160.0130  212.8140  146.7940 C   0  0  0  0  0  3  0  0  0  0  0  0
  162.3110  213.2040  145.2580 C   0  0  0  0  0  0  0  0  0  0  0  0
  163.3740  213.2500  144.3490 N   0  0  0  0  0  0  0  0  0  0  0  0
  162.4170  213.2290  146.5820 C   0  0  0  0  0  3  0  0  0  0  0  0
  161.2820  212.8950  143.2260 N   0  0  0  0  0  0  0  0  0  0  0  0
  161.0840  213.0400  144.6080 N   0  0  0  0  0  0  0  0  0  0  0  0
  162.7420  213.0840  143.0380 C   0  0  0  0  0  3  0  0  0  0  0  0
  160.6520  213.9830  142.6040 N   0  0  0  0  0  2  0  0  0  0  0  0
  160.1700  213.4260  140.3400 C   0  0  2  0  0  3  0  0  0  0  0  0
  162.3830  211.6900  137.8610 C   0  0  0  0  0  0  0  0  0  0  0  0
  163.3490  212.4810  137.6990 O   0  0  0  0  0  0  0  0  0  0  0  0
  161.5010  213.2010  139.6610 C   0  0  0  0  0  2  0  0  0  0  0  0
  162.3140  210.4640  137.0140 C   0  0  0  0  0  1  0  0  0  0  0  0
  161.3740  211.9690  138.8450 N   0  0  0  0  0  0  0  0  0  0  0  0
  160.2730  210.9880  139.0660 C   0  0  0  0  0  2  0  0  0  0  0  0
  159.6480  213.4390  141.7040 C   0  0  1  0  0  3  0  0  0  0  0  0
  159.3210  211.4090  140.2170 C   0  0  0  0  0  2  0  0  0  0  0  0
  160.1210  212.1820  141.1440 N   0  0  1  0  0  0  0  0  0  0  0  0
  161.2890  213.2830  148.8130 N   0  0  0  0  0  2  0  0  0  0  0  0
  160.2080  211.6150  152.0090 C   0  0  0  0  0  3  0  0  0  0  0  0
  161.7280  211.0630  149.7220 C   0  0  0  0  0  3  0  0  0  0  0  0
  161.2780  208.1320  152.7140 C   0  0  0  0  0  0  0  0  0  0  0  0
  160.6680  209.3910  152.8530 C   0  0  0  0  0  3  0  0  0  0  0  0
  160.8140  210.3660  151.8630 C   0  0  0  0  0  0  0  0  0  0  0  0
  162.1880  208.8390  150.5650 C   0  0  0  0  0  3  0  0  0  0  0  0
  161.5810  210.0880  150.7110 C   0  0  0  0  0  0  0  0  0  0  0  0
  162.0370  207.8690  151.5600 C   0  0  0  0  0  3  0  0  0  0  0  0
  161.1200  212.3170  149.8640 C   0  0  0  0  0  0  0  0  0  0  0  0
  160.3600  212.5850  151.0140 C   0  0  0  0  0  3  0  0  0  0  0  0
  161.1230  207.1280  153.7330 N   0  0  0  0  0  0  0  0  0  0  0  0
  161.2750  205.7130  153.4270 C   0  0  0  0  0  1  0  0  0  0  0  0
  160.8130  207.4890  155.1080 C   0  0  0  0  0  1  0  0  0  0  0  0
  1  3  1  0  0  0  0
  2 21  1  0  0  0  0
  3  2  2  0  0  0  0
  4  6  2  0  0  0  0
  5  4  1  0  0  0  0
  6  2  1  0  0  0  0
  7  8  1  0  0  0  0
  8  4  1  0  0  0  0
  8  1  1  0  0  0  0
  9  7  1  0  0  0  0
  9  5  2  0  0  0  0
 10  7  1  0  0  0  0
 11 14  1  1  0  0  0
 11 20  1  0  0  0  0
 11 18  1  0  0  0  0
 12 16  1  0  0  0  0
 13 12  2  0  0  0  0
 15 12  1  0  0  0  0
 16 17  1  0  0  0  0
 16 14  1  0  0  0  0
 17 19  1  0  0  0  0
 18 10  1  1  0  0  0
 20 19  1  6  0  0  0
 20 18  1  0  0  0  0
 21 30  1  0  0  0  0
 23 30  2  0  0  0  0
 23 28  1  0  0  0  0
 24 25  1  0  0  0  0
 24 32  1  0  0  0  0
 26 22  1  0  0  0  0
 26 25  2  0  0  0  0
 27 28  2  0  0  0  0
 27 29  1  0  0  0  0
 28 26  1  0  0  0  0
 29 24  2  0  0  0  0
 30 31  1  0  0  0  0
 31 22  2  0  0  0  0
 32 34  1  0  0  0  0
 33 32  1  0  0  0  0
M  END
>  <MODEL>
8

>  <REMARK>
 VINA RESULT:      -6.8      8.740     11.723
  Name = 
  5 active torsions:
  status: ('A' for Active; 'I' for Inactive)
    1  A    between atoms: N_5  and  N_19
    2  A    between atoms: N_5  and  C_32
    3  A    between atoms: C_7  and  N_11
    4  A    between atoms: C_8  and  N_18
    5  A    between atoms: N_18  and  C_30
                            x       y       z     vdW  Elec       q    Type
                         _______ _______ _______ _____ _____    ______ ____

>  <TORSDO>
F 5

$$$$
=
 OpenBabel11062409373D

 34 39  0  0  1  0  0  0  0  0999 V2000
  161.3720  207.9890  149.6210 C   0  0  0  0  0  2  0  0  0  0  0  0
  161.4240  207.8330  152.1220 C   0  0  0  0  0  0  0  0  0  0  0  0
  161.5190  208.5780  151.0050 C   0  0  0  0  0  3  0  0  0  0  0  0
  161.3200  205.7990  150.8230 C   0  0  0  0  0  0  0  0  0  0  0  0
  161.1080  204.4440  150.5440 N   0  0  0  0  0  0  0  0  0  0  0  0
  161.2490  206.3670  152.0220 C   0  0  0  0  0  3  0  0  0  0  0  0
  161.4160  205.7130  148.5290 N   0  0  0  0  0  0  0  0  0  0  0  0
  161.5420  206.5370  149.6570 N   0  0  0  0  0  0  0  0  0  0  0  0
  161.1930  204.3540  149.0830 C   0  0  0  0  0  3  0  0  0  0  0  0
  162.6670  205.6890  147.8950 N   0  0  0  0  0  2  0  0  0  0  0  0
  162.4120  204.3660  145.9320 C   0  0  2  0  0  3  0  0  0  0  0  0
  160.4590  201.1930  145.5150 C   0  0  0  0  0  0  0  0  0  0  0  0
  161.0400  200.3690  146.2700 O   0  0  0  0  0  0  0  0  0  0  0  0
  161.9690  202.9970  146.3930 C   0  0  0  0  0  2  0  0  0  0  0  0
  159.3490  200.7060  144.6460 C   0  0  0  0  0  1  0  0  0  0  0  0
  160.8630  202.5710  145.5000 N   0  0  0  0  0  0  0  0  0  0  0  0
  160.1200  203.5440  144.6470 C   0  0  0  0  0  2  0  0  0  0  0  0
  162.4230  205.7260  146.4620 C   0  0  1  0  0  3  0  0  0  0  0  0
  160.6360  204.9980  144.8140 C   0  0  0  0  0  2  0  0  0  0  0  0
  161.1440  205.0970  146.1660 N   0  0  1  0  0  0  0  0  0  0  0  0
  161.5080  208.4150  153.4330 N   0  0  0  0  0  2  0  0  0  0  0  0
  159.5360  210.2350  156.0710 C   0  0  0  0  0  3  0  0  0  0  0  0
  159.8240  210.1720  153.2860 C   0  0  0  0  0  3  0  0  0  0  0  0
  157.1130  212.8610  155.0660 C   0  0  0  0  0  0  0  0  0  0  0  0
  157.8790  211.9910  155.8610 C   0  0  0  0  0  3  0  0  0  0  0  0
  158.7800  211.0990  155.2750 C   0  0  0  0  0  0  0  0  0  0  0  0
  158.1680  211.9280  153.0750 C   0  0  0  0  0  3  0  0  0  0  0  0
  158.9250  211.0660  153.8710 C   0  0  0  0  0  0  0  0  0  0  0  0
  157.2690  212.8180  153.6690 C   0  0  0  0  0  3  0  0  0  0  0  0
  160.5850  209.3070  154.0810 C   0  0  0  0  0  0  0  0  0  0  0  0
  160.4340  209.3460  155.4760 C   0  0  0  0  0  3  0  0  0  0  0  0
  156.1880  213.7830  155.6720 N   0  0  0  0  0  0  0  0  0  0  0  0
  156.2490  214.0850  157.0950 C   0  0  0  0  0  1  0  0  0  0  0  0
  155.1620  214.4500  154.8860 C   0  0  0  0  0  1  0  0  0  0  0  0
  1  8  1  0  0  0  0
  1  3  1  0  0  0  0
  2 21  1  0  0  0  0
  3  2  2  0  0  0  0
  4  6  2  0  0  0  0
  5  4  1  0  0  0  0
  6  2  1  0  0  0  0
  7  9  1  0  0  0  0
  7  8  1  0  0  0  0
  8  4  1  0  0  0  0
  9  5  2  0  0  0  0
 10  7  1  0  0  0  0
 11 20  1  0  0  0  0
 11 14  1  1  0  0  0
 11 18  1  0  0  0  0
 12 13  2  0  0  0  0
 15 12  1  0  0  0  0
 16 12  1  0  0  0  0
 16 14  1  0  0  0  0
 17 19  1  0  0  0  0
 17 16  1  0  0  0  0
 18 10  1  1  0  0  0
 20 19  1  6  0  0  0
 20 18  1  0  0  0  0
 21 30  1  0  0  0  0
 23 28  2  0  0  0  0
 23 30  1  0  0  0  0
 24 32  1  0  0  0  0
 24 25  2  0  0  0  0
 26 25  1  0  0  0  0
 26 22  2  0  0  0  0
 27 29  2  0  0  0  0
 27 28  1  0  0  0  0
 28 26  1  0  0  0  0
 29 24  1  0  0  0  0
 30 31  2  0  0  0  0
 31 22  1  0  0  0  0
 32 33  1  0  0  0  0
 34 32  1  0  0  0  0
M  END
>  <MODEL>
9

>  <REMARK>
 VINA RESULT:      -6.8      3.557     11.360
  Name = 
  5 active torsions:
  status: ('A' for Active; 'I' for Inactive)
    1  A    between atoms: N_5  and  N_19
    2  A    between atoms: N_5  and  C_32
    3  A    between atoms: C_7  and  N_11
    4  A    between atoms: C_8  and  N_18
    5  A    between atoms: N_18  and  C_30
                            x       y       z     vdW  Elec       q    Type
                         _______ _______ _______ _____ _____    ______ ____

>  <TORSDO>
F 5

$$$$
