=
 OpenBabel11062409573D

 43 48  0  0  1  0  0  0  0  0999 V2000
  161.0510  201.7680  147.7880 C   0  0  0  0  0  0  0  0  0  0  0  0
  161.0330  204.6260  151.2380 C   0  0  0  0  0  0  0  0  0  0  0  0
  161.4950  207.2070  150.1550 C   0  0  0  0  0  0  0  0  0  0  0  0
  160.9100  202.6920  150.3610 N   0  0  0  0  0  0  0  0  0  0  0  0
  161.3430  204.0280  147.0140 F   0  0  0  0  0  0  0  0  0  0  0  0
  161.0990  201.2990  146.5170 F   0  0  0  0  0  0  0  0  0  0  0  0
  161.0890  203.5690  149.3540 C   0  0  0  0  0  0  0  0  0  0  0  0
  160.8710  200.8690  148.8550 C   0  0  0  0  0  3  0  0  0  0  0  0
  161.1670  203.1460  148.0300 C   0  0  0  0  0  0  0  0  0  0  0  0
  161.4060  206.1500  149.3300 C   0  0  0  0  0  3  0  0  0  0  0  0
  161.1740  204.8280  149.8980 C   0  0  0  0  0  0  0  0  0  0  0  0
  160.8730  203.3160  151.5300 N   0  0  0  0  0  0  0  0  0  0  0  0
  161.1270  205.7040  152.1690 N   0  0  0  0  0  0  0  0  0  0  0  0
  161.3710  207.0740  151.6800 C   0  0  0  0  0  2  0  0  0  0  0  0
  160.8030  201.3550  150.1660 C   0  0  0  0  0  3  0  0  0  0  0  0
  161.7130  208.5120  149.6060 N   0  0  0  0  0  0  0  0  0  0  0  0
  161.9620  212.1490  149.3390 N   0  0  0  0  0  2  0  0  0  0  0  0
  161.7480  209.7750  150.3270 C   0  0  0  0  0  2  0  0  0  0  0  0
  161.8510  208.7660  148.2400 N   0  0  0  0  0  2  0  0  0  0  0  0
  161.9050  210.7320  149.1870 C   0  0  0  0  0  0  0  0  0  0  0  0
  161.9640  210.1400  148.0390 N   0  0  0  0  0  0  0  0  0  0  0  0
  162.1700  213.0320  148.2040 C   0  0  1  0  0  3  0  0  0  0  0  0
  161.5800  213.1040  145.7470 C   0  0  0  0  0  0  0  0  0  0  0  0
  161.4510  212.5270  147.0450 N   0  0  0  0  0  2  0  0  0  0  0  0
  162.3630  214.0720  145.5560 O   0  0  0  0  0  0  0  0  0  0  0  0
  160.8210  212.5050  144.6080 C   0  0  2  0  0  3  0  0  0  0  0  0
  158.8990  213.7740  143.6300 C   0  0  0  0  0  3  0  0  0  0  0  0
  161.2080  214.1280  142.7200 C   0  0  0  0  0  2  0  0  0  0  0  0
  159.7140  214.1900  142.4340 C   0  0  0  0  0  2  0  0  0  0  0  0
  161.5540  212.7500  143.2820 C   0  0  0  0  0  2  0  0  0  0  0  0
  159.3850  212.9780  144.5910 C   0  0  0  0  0  3  0  0  0  0  0  0
  161.7240  214.4530  148.5450 C   0  0  0  0  0  2  0  0  0  0  0  0
  159.2450  214.4390  148.5920 C   0  0  0  0  0  1  0  0  0  0  0  0
  160.4950  214.4530  149.4400 C   0  0  0  0  0  2  0  0  0  0  0  0
  161.1450  205.4420  153.5970 C   0  0  0  0  0  2  0  0  0  0  0  0
  161.9300  206.5200  154.3260 C   0  0  0  0  0  2  0  0  0  0  0  0
  159.2520  208.1830  156.1900 N   0  0  0  0  0  0  0  0  0  0  0  0
  159.7770  209.3650  155.8140 C   0  0  0  0  0  0  0  0  0  0  0  0
  159.7880  211.8820  155.7870 C   0  0  0  0  0  1  0  0  0  0  0  0
  161.0110  207.4930  154.9840 C   0  0  0  0  0  0  0  0  0  0  0  0
  159.9380  207.1400  155.7270 N   0  0  0  0  0  0  0  0  0  0  0  0
  159.2070  210.6190  156.1910 N   0  0  0  0  0  2  0  0  0  0  0  0
  161.1560  209.1640  154.8620 S   0  0  0  0  0  0  0  0  0  0  0  0
  1  9  2  0  0  0  0
  1  8  1  0  0  0  0
  2 12  2  0  0  0  0
  2 13  1  0  0  0  0
  3 14  1  0  0  0  0
  4 12  1  0  0  0  0
  5  9  1  0  0  0  0
  6  1  1  0  0  0  0
  7 11  2  0  0  0  0
  7  4  1  0  0  0  0
  8 15  2  0  0  0  0
  9  7  1  0  0  0  0
 10 11  1  0  0  0  0
 10  3  2  0  0  0  0
 11  2  1  0  0  0  0
 13 35  1  0  0  0  0
 14 13  1  0  0  0  0
 15  4  1  0  0  0  0
 16  3  1  0  0  0  0
 16 18  1  0  0  0  0
 19 16  1  0  0  0  0
 20 17  1  0  0  0  0
 20 18  1  0  0  0  0
 21 19  1  0  0  0  0
 21 20  2  0  0  0  0
 22 32  1  1  0  0  0
 22 17  1  0  0  0  0
 23 24  1  0  0  0  0
 24 22  1  0  0  0  0
 25 23  2  0  0  0  0
 26 23  1  1  0  0  0
 27 31  2  0  0  0  0
 28 30  1  0  0  0  0
 29 28  1  0  0  0  0
 29 27  1  0  0  0  0
 30 26  1  0  0  0  0
 31 26  1  0  0  0  0
 32 34  1  0  0  0  0
 33 34  1  0  0  0  0
 35 36  1  0  0  0  0
 36 40  1  0  0  0  0
 38 37  2  0  0  0  0
 38 42  1  0  0  0  0
 39 42  1  0  0  0  0
 40 41  2  0  0  0  0
 41 37  1  0  0  0  0
 43 40  1  0  0  0  0
 43 38  1  0  0  0  0
M  END
>  <MODEL>
1

>  <REMARK>
 VINA RESULT:      -8.5      0.000      0.000
  Name = 
  9 active torsions:
  status: ('A' for Active; 'I' for Inactive)
    1  A    between atoms: C_1  and  N_34
    2  A    between atoms: C_1  and  C_35
    3  A    between atoms: N_2  and  C_13
    4  A    between atoms: N_3  and  C_4
    5  A    between atoms: C_4  and  C_15
    6  A    between atoms: C_4  and  N_22
    7  A    between atoms: C_11  and  C_14
    8  A    between atoms: C_15  and  C_42
    9  A    between atoms: C_28  and  C_35
                            x       y       z     vdW  Elec       q    Type
                         _______ _______ _______ _____ _____    ______ ____

>  <TORSDO>
F 9

$$$$
=
 OpenBabel11062409573D

 43 48  0  0  1  0  0  0  0  0999 V2000
  160.3530  209.0260  155.7410 C   0  0  0  0  0  0  0  0  0  0  0  0
  161.2600  210.5750  151.6360 C   0  0  0  0  0  0  0  0  0  0  0  0
  161.4840  208.3080  149.9460 C   0  0  0  0  0  0  0  0  0  0  0  0
  160.8820  210.7930  153.7190 N   0  0  0  0  0  0  0  0  0  0  0  0
  160.4850  207.2130  154.1640 F   0  0  0  0  0  0  0  0  0  0  0  0
  160.0710  208.1640  156.7480 F   0  0  0  0  0  0  0  0  0  0  0  0
  160.8190  209.4760  153.4440 C   0  0  0  0  0  0  0  0  0  0  0  0
  160.4310  210.4050  156.0080 C   0  0  0  0  0  3  0  0  0  0  0  0
  160.5540  208.5400  154.4390 C   0  0  0  0  0  0  0  0  0  0  0  0
  161.1700  208.1390  151.2410 C   0  0  0  0  0  3  0  0  0  0  0  0
  161.0630  209.3100  152.1020 C   0  0  0  0  0  0  0  0  0  0  0  0
  161.1530  211.4920  152.6250 N   0  0  0  0  0  0  0  0  0  0  0  0
  161.6060  210.8240  150.2740 N   0  0  0  0  0  0  0  0  0  0  0  0
  161.7460  209.6940  149.3370 C   0  0  0  0  0  2  0  0  0  0  0  0
  160.7040  211.2980  154.9640 C   0  0  0  0  0  3  0  0  0  0  0  0
  161.5830  207.1640  149.0900 N   0  0  0  0  0  0  0  0  0  0  0  0
  162.6720  204.9550  146.3880 N   0  0  0  0  0  2  0  0  0  0  0  0
  162.5800  206.9200  148.0580 C   0  0  0  0  0  2  0  0  0  0  0  0
  160.6530  206.1220  149.0770 N   0  0  0  0  0  2  0  0  0  0  0  0
  162.0660  205.6370  147.4850 C   0  0  0  0  0  0  0  0  0  0  0  0
  160.9960  205.2150  148.0760 N   0  0  0  0  0  0  0  0  0  0  0  0
  162.1650  203.6820  145.9040 C   0  0  1  0  0  3  0  0  0  0  0  0
  160.8790  201.7210  146.8460 C   0  0  0  0  0  0  0  0  0  0  0  0
  161.6860  202.8840  147.0210 N   0  0  0  0  0  2  0  0  0  0  0  0
  160.5770  201.3240  145.6890 O   0  0  0  0  0  0  0  0  0  0  0  0
  160.4500  200.9460  148.0490 C   0  0  2  0  0  3  0  0  0  0  0  0
  161.8510  201.0500  150.1200 C   0  0  0  0  0  3  0  0  0  0  0  0
  160.0180  202.7270  149.7790 C   0  0  0  0  0  2  0  0  0  0  0  0
  160.8820  201.9880  150.7920 C   0  0  0  0  0  2  0  0  0  0  0  0
  159.3770  201.7130  148.8320 C   0  0  0  0  0  2  0  0  0  0  0  0
  161.6350  200.5460  148.8990 C   0  0  0  0  0  3  0  0  0  0  0  0
  161.0560  203.9060  144.8780 C   0  0  0  0  0  2  0  0  0  0  0  0
  160.1020  206.1930  144.9250 C   0  0  0  0  0  1  0  0  0  0  0  0
  161.1280  205.2980  144.2710 C   0  0  0  0  0  2  0  0  0  0  0  0
  161.9770  212.1600  149.8420 C   0  0  0  0  0  2  0  0  0  0  0  0
  160.7880  212.8650  149.2110 C   0  0  0  0  0  2  0  0  0  0  0  0
  160.2080  212.4130  145.6230 N   0  0  0  0  0  0  0  0  0  0  0  0
  161.4480  212.8910  145.4020 C   0  0  0  0  0  0  0  0  0  0  0  0
  163.3350  213.5440  143.8700 C   0  0  0  0  0  1  0  0  0  0  0  0
  160.8770  212.8270  147.7230 C   0  0  0  0  0  0  0  0  0  0  0  0
  159.8900  212.3750  146.9160 N   0  0  0  0  0  0  0  0  0  0  0  0
  162.0050  213.0200  144.0930 N   0  0  0  0  0  2  0  0  0  0  0  0
  162.2290  213.3010  146.8410 S   0  0  0  0  0  0  0  0  0  0  0  0
  1  8  1  0  0  0  0
  1  6  1  0  0  0  0
  2 11  1  0  0  0  0
  2 12  2  0  0  0  0
  3 10  2  0  0  0  0
  4 15  1  0  0  0  0
  5  9  1  0  0  0  0
  7  4  1  0  0  0  0
  7  9  1  0  0  0  0
  9  1  2  0  0  0  0
 10 11  1  0  0  0  0
 11  7  2  0  0  0  0
 12  4  1  0  0  0  0
 13  2  1  0  0  0  0
 14  3  1  0  0  0  0
 14 13  1  0  0  0  0
 15  8  2  0  0  0  0
 16  3  1  0  0  0  0
 17 20  1  0  0  0  0
 18 16  1  0  0  0  0
 19 16  1  0  0  0  0
 20 18  1  0  0  0  0
 20 21  2  0  0  0  0
 21 19  1  0  0  0  0
 22 32  1  6  0  0  0
 22 17  1  0  0  0  0
 22 24  1  0  0  0  0
 23 24  1  0  0  0  0
 25 23  2  0  0  0  0
 26 23  1  6  0  0  0
 26 30  1  0  0  0  0
 26 31  1  0  0  0  0
 27 29  1  0  0  0  0
 28 29  1  0  0  0  0
 30 28  1  0  0  0  0
 31 27  2  0  0  0  0
 34 32  1  0  0  0  0
 34 33  1  0  0  0  0
 35 13  1  0  0  0  0
 36 35  1  0  0  0  0
 37 41  1  0  0  0  0
 38 37  2  0  0  0  0
 38 43  1  0  0  0  0
 39 42  1  0  0  0  0
 40 36  1  0  0  0  0
 41 40  2  0  0  0  0
 42 38  1  0  0  0  0
 43 40  1  0  0  0  0
M  END
>  <MODEL>
2

>  <REMARK>
 VINA RESULT:      -7.1      3.796      9.620
  Name = 
  9 active torsions:
  status: ('A' for Active; 'I' for Inactive)
    1  A    between atoms: C_1  and  N_34
    2  A    between atoms: C_1  and  C_35
    3  A    between atoms: N_2  and  C_13
    4  A    between atoms: N_3  and  C_4
    5  A    between atoms: C_4  and  C_15
    6  A    between atoms: C_4  and  N_22
    7  A    between atoms: C_11  and  C_14
    8  A    between atoms: C_15  and  C_42
    9  A    between atoms: C_28  and  C_35
                            x       y       z     vdW  Elec       q    Type
                         _______ _______ _______ _____ _____    ______ ____

>  <TORSDO>
F 9

$$$$
=
 OpenBabel11062409573D

 43 48  0  0  1  0  0  0  0  0999 V2000
  160.1000  209.4370  156.1360 C   0  0  0  0  0  0  0  0  0  0  0  0
  161.3510  210.0130  151.8730 C   0  0  0  0  0  0  0  0  0  0  0  0
  161.0720  207.4930  150.5990 C   0  0  0  0  0  0  0  0  0  0  0  0
  161.0210  210.6660  153.8710 N   0  0  0  0  0  0  0  0  0  0  0  0
  159.8310  207.3930  154.8940 F   0  0  0  0  0  0  0  0  0  0  0  0
  159.6270  208.8460  157.2610 F   0  0  0  0  0  0  0  0  0  0  0  0
  160.6660  209.3680  153.8190 C   0  0  0  0  0  0  0  0  0  0  0  0
  160.4820  210.7900  156.1700 C   0  0  0  0  0  3  0  0  0  0  0  0
  160.1940  208.7000  154.9450 C   0  0  0  0  0  0  0  0  0  0  0  0
  160.7210  207.6240  151.8890 C   0  0  0  0  0  3  0  0  0  0  0  0
  160.8740  208.9220  152.5350 C   0  0  0  0  0  0  0  0  0  0  0  0
  161.4470  211.0880  152.6880 N   0  0  0  0  0  0  0  0  0  0  0  0
  161.7510  209.9390  150.5050 N   0  0  0  0  0  0  0  0  0  0  0  0
  161.6400  208.6610  149.7780 C   0  0  0  0  0  2  0  0  0  0  0  0
  160.9540  211.4060  155.0040 C   0  0  0  0  0  3  0  0  0  0  0  0
  160.9170  206.2240  149.9530 N   0  0  0  0  0  0  0  0  0  0  0  0
  160.7290  202.6100  149.4400 N   0  0  0  0  0  2  0  0  0  0  0  0
  160.8300  204.9180  150.5890 C   0  0  0  0  0  2  0  0  0  0  0  0
  160.9030  206.0560  148.5670 N   0  0  0  0  0  2  0  0  0  0  0  0
  160.7850  204.0340  149.3820 C   0  0  0  0  0  0  0  0  0  0  0  0
  160.8220  204.6960  148.2720 N   0  0  0  0  0  0  0  0  0  0  0  0
  160.6310  201.7990  148.2380 C   0  0  1  0  0  3  0  0  0  0  0  0
  160.5960  202.5350  145.8210 C   0  0  0  0  0  0  0  0  0  0  0  0
  161.2050  202.5140  147.1100 N   0  0  0  0  0  2  0  0  0  0  0  0
  159.5000  201.9460  145.6250 O   0  0  0  0  0  0  0  0  0  0  0  0
  161.2430  203.3170  144.7240 C   0  0  2  0  0  3  0  0  0  0  0  0
  160.9030  205.7950  144.6380 C   0  0  0  0  0  3  0  0  0  0  0  0
  162.8250  204.8530  145.9440 C   0  0  0  0  0  2  0  0  0  0  0  0
  162.2820  206.0560  145.1850 C   0  0  0  0  0  2  0  0  0  0  0  0
  162.7110  203.6100  145.0620 C   0  0  0  0  0  2  0  0  0  0  0  0
  160.4490  204.5600  144.3890 C   0  0  0  0  0  3  0  0  0  0  0  0
  161.3280  200.4550  148.4430 C   0  0  0  0  0  2  0  0  0  0  0  0
  161.5240  198.9030  146.5200 C   0  0  0  0  0  1  0  0  0  0  0  0
  162.1650  200.0700  147.2330 C   0  0  0  0  0  2  0  0  0  0  0  0
  162.4140  211.0650  149.8720 C   0  0  0  0  0  2  0  0  0  0  0  0
  161.4010  212.1270  149.4780 C   0  0  0  0  0  2  0  0  0  0  0  0
  162.5270  213.4790  146.2660 N   0  0  0  0  0  0  0  0  0  0  0  0
  161.4170  212.9620  145.7040 C   0  0  0  0  0  0  0  0  0  0  0  0
  159.9240  212.5360  143.7230 C   0  0  0  0  0  1  0  0  0  0  0  0
  161.5660  212.5150  148.0480 C   0  0  0  0  0  0  0  0  0  0  0  0
  162.6090  213.2310  147.5720 N   0  0  0  0  0  0  0  0  0  0  0  0
  161.1160  213.1040  144.3150 N   0  0  0  0  0  2  0  0  0  0  0  0
  160.4600  212.1510  146.8330 S   0  0  0  0  0  0  0  0  0  0  0  0
  1  8  1  0  0  0  0
  1  6  1  0  0  0  0
  2 11  1  0  0  0  0
  2 12  2  0  0  0  0
  3 10  2  0  0  0  0
  4 15  1  0  0  0  0
  5  9  1  0  0  0  0
  7  4  1  0  0  0  0
  7  9  1  0  0  0  0
  9  1  2  0  0  0  0
 10 11  1  0  0  0  0
 11  7  2  0  0  0  0
 12  4  1  0  0  0  0
 13  2  1  0  0  0  0
 14 13  1  0  0  0  0
 14  3  1  0  0  0  0
 15  8  2  0  0  0  0
 16 18  1  0  0  0  0
 16  3  1  0  0  0  0
 19 16  1  0  0  0  0
 20 17  1  0  0  0  0
 20 18  1  0  0  0  0
 21 19  1  0  0  0  0
 21 20  2  0  0  0  0
 22 32  1  1  0  0  0
 22 17  1  0  0  0  0
 23 24  1  0  0  0  0
 24 22  1  0  0  0  0
 25 23  2  0  0  0  0
 26 30  1  0  0  0  0
 26 23  1  1  0  0  0
 27 29  1  0  0  0  0
 29 28  1  0  0  0  0
 30 28  1  0  0  0  0
 31 27  2  0  0  0  0
 31 26  1  0  0  0  0
 33 34  1  0  0  0  0
 34 32  1  0  0  0  0
 35 13  1  0  0  0  0
 36 35  1  0  0  0  0
 37 41  1  0  0  0  0
 38 37  2  0  0  0  0
 38 43  1  0  0  0  0
 39 42  1  0  0  0  0
 40 36  1  0  0  0  0
 41 40  2  0  0  0  0
 42 38  1  0  0  0  0
 43 40  1  0  0  0  0
M  END
>  <MODEL>
3

>  <REMARK>
 VINA RESULT:      -6.3      3.846      9.388
  Name = 
  9 active torsions:
  status: ('A' for Active; 'I' for Inactive)
    1  A    between atoms: C_1  and  N_34
    2  A    between atoms: C_1  and  C_35
    3  A    between atoms: N_2  and  C_13
    4  A    between atoms: N_3  and  C_4
    5  A    between atoms: C_4  and  C_15
    6  A    between atoms: C_4  and  N_22
    7  A    between atoms: C_11  and  C_14
    8  A    between atoms: C_15  and  C_42
    9  A    between atoms: C_28  and  C_35
                            x       y       z     vdW  Elec       q    Type
                         _______ _______ _______ _____ _____    ______ ____

>  <TORSDO>
F 9

$$$$
=
 OpenBabel11062409573D

 43 48  0  0  1  0  0  0  0  0999 V2000
  159.7480  210.5260  156.1960 C   0  0  0  0  0  0  0  0  0  0  0  0
  160.4790  211.9310  152.0050 C   0  0  0  0  0  0  0  0  0  0  0  0
  161.2060  209.6390  150.4990 C   0  0  0  0  0  0  0  0  0  0  0  0
  159.9920  212.2160  154.0570 N   0  0  0  0  0  0  0  0  0  0  0  0
  160.2900  208.6680  154.7660 F   0  0  0  0  0  0  0  0  0  0  0  0
  159.6040  209.6990  157.2610 F   0  0  0  0  0  0  0  0  0  0  0  0
  160.1990  210.8960  153.8820 C   0  0  0  0  0  0  0  0  0  0  0  0
  159.5430  211.9080  156.3590 C   0  0  0  0  0  3  0  0  0  0  0  0
  160.0870  209.9990  154.9410 C   0  0  0  0  0  0  0  0  0  0  0  0
  160.8850  209.5030  151.7960 C   0  0  0  0  0  3  0  0  0  0  0  0
  160.5190  210.6880  152.5620 C   0  0  0  0  0  0  0  0  0  0  0  0
  160.1590  212.8750  152.9190 N   0  0  0  0  0  0  0  0  0  0  0  0
  160.8180  212.1460  150.6370 N   0  0  0  0  0  0  0  0  0  0  0  0
  161.2120  211.0030  149.7910 C   0  0  0  0  0  2  0  0  0  0  0  0
  159.6730  212.7610  155.2560 C   0  0  0  0  0  3  0  0  0  0  0  0
  161.5580  208.4800  149.7350 N   0  0  0  0  0  0  0  0  0  0  0  0
  162.5150  206.3630  146.9120 N   0  0  0  0  0  2  0  0  0  0  0  0
  162.0440  208.4440  148.3640 C   0  0  0  0  0  2  0  0  0  0  0  0
  161.4040  207.1710  150.1950 N   0  0  0  0  0  2  0  0  0  0  0  0
  162.1160  206.9660  148.1420 C   0  0  0  0  0  0  0  0  0  0  0  0
  161.7590  206.2840  149.1810 N   0  0  0  0  0  0  0  0  0  0  0  0
  162.6200  204.9220  146.7650 C   0  0  1  0  0  3  0  0  0  0  0  0
  161.3370  202.8930  147.5540 C   0  0  0  0  0  0  0  0  0  0  0  0
  161.7100  204.2630  147.6880 N   0  0  0  0  0  2  0  0  0  0  0  0
  161.8220  202.1880  146.6290 O   0  0  0  0  0  0  0  0  0  0  0  0
  160.4140  202.2890  148.5630 C   0  0  2  0  0  3  0  0  0  0  0  0
  161.3800  200.9370  150.4340 C   0  0  0  0  0  3  0  0  0  0  0  0
  161.0780  203.4100  150.7200 C   0  0  0  0  0  2  0  0  0  0  0  0
  161.1820  202.0600  151.4170 C   0  0  0  0  0  2  0  0  0  0  0  0
  160.0180  203.3260  149.6220 C   0  0  0  0  0  2  0  0  0  0  0  0
  160.9940  201.0240  149.1550 C   0  0  0  0  0  3  0  0  0  0  0  0
  162.3280  204.5100  145.3240 C   0  0  0  0  0  2  0  0  0  0  0  0
  160.0270  204.1400  144.4790 C   0  0  0  0  0  1  0  0  0  0  0  0
  161.0720  205.1840  144.7930 C   0  0  0  0  0  2  0  0  0  0  0  0
  160.9360  213.4950  150.1120 C   0  0  0  0  0  2  0  0  0  0  0  0
  159.8020  213.7900  149.1440 C   0  0  0  0  0  2  0  0  0  0  0  0
  159.9970  212.2790  145.8130 N   0  0  0  0  0  0  0  0  0  0  0  0
  161.1310  212.9760  145.6060 C   0  0  0  0  0  0  0  0  0  0  0  0
  163.0920  213.6530  144.1820 C   0  0  0  0  0  1  0  0  0  0  0  0
  160.1690  213.3850  147.7570 C   0  0  0  0  0  0  0  0  0  0  0  0
  159.4620  212.5050  147.0120 N   0  0  0  0  0  0  0  0  0  0  0  0
  161.8810  212.8910  144.3930 N   0  0  0  0  0  2  0  0  0  0  0  0
  161.5320  213.9320  146.9380 S   0  0  0  0  0  0  0  0  0  0  0  0
  1  8  1  0  0  0  0
  1  6  1  0  0  0  0
  2 11  1  0  0  0  0
  2 12  2  0  0  0  0
  3 10  2  0  0  0  0
  4 15  1  0  0  0  0
  5  9  1  0  0  0  0
  7  4  1  0  0  0  0
  7  9  1  0  0  0  0
  9  1  2  0  0  0  0
 10 11  1  0  0  0  0
 11  7  2  0  0  0  0
 12  4  1  0  0  0  0
 13  2  1  0  0  0  0
 14  3  1  0  0  0  0
 14 13  1  0  0  0  0
 15  8  2  0  0  0  0
 16 19  1  0  0  0  0
 16  3  1  0  0  0  0
 17 20  1  0  0  0  0
 18 16  1  0  0  0  0
 20 18  1  0  0  0  0
 20 21  2  0  0  0  0
 21 19  1  0  0  0  0
 22 32  1  6  0  0  0
 22 17  1  0  0  0  0
 22 24  1  0  0  0  0
 23 24  1  0  0  0  0
 25 23  2  0  0  0  0
 26 23  1  6  0  0  0
 26 31  1  0  0  0  0
 26 30  1  0  0  0  0
 27 29  1  0  0  0  0
 28 29  1  0  0  0  0
 30 28  1  0  0  0  0
 31 27  2  0  0  0  0
 33 34  1  0  0  0  0
 34 32  1  0  0  0  0
 35 13  1  0  0  0  0
 36 35  1  0  0  0  0
 37 41  1  0  0  0  0
 38 37  2  0  0  0  0
 38 43  1  0  0  0  0
 39 42  1  0  0  0  0
 40 36  1  0  0  0  0
 41 40  2  0  0  0  0
 42 38  1  0  0  0  0
 43 40  1  0  0  0  0
M  END
>  <MODEL>
4

>  <REMARK>
 VINA RESULT:      -6.2      3.878      9.823
  Name = 
  9 active torsions:
  status: ('A' for Active; 'I' for Inactive)
    1  A    between atoms: C_1  and  N_34
    2  A    between atoms: C_1  and  C_35
    3  A    between atoms: N_2  and  C_13
    4  A    between atoms: N_3  and  C_4
    5  A    between atoms: C_4  and  C_15
    6  A    between atoms: C_4  and  N_22
    7  A    between atoms: C_11  and  C_14
    8  A    between atoms: C_15  and  C_42
    9  A    between atoms: C_28  and  C_35
                            x       y       z     vdW  Elec       q    Type
                         _______ _______ _______ _____ _____    ______ ____

>  <TORSDO>
F 9

$$$$
