=
 OpenBabel11062408163D

 32 37  0  0  1  0  0  0  0  0999 V2000
  160.0720  210.5380  151.9700 C   0  0  1  0  0  3  0  0  0  0  0  0
  162.2550  210.6780  150.9200 C   0  0  2  0  0  3  0  0  0  0  0  0
  161.8990  209.3170  156.0760 C   0  0  1  0  0  3  0  0  0  0  0  0
  159.4430  211.1630  153.2030 C   0  0  0  0  0  2  0  0  0  0  0  0
  161.0310  211.5060  151.3160 C   0  0  1  0  0  3  0  0  0  0  0  0
  162.2940  210.3100  149.4190 C   0  0  2  0  0  3  0  0  0  0  0  0
  163.0350  209.7010  156.7890 O   0  0  0  0  0  1  0  0  0  0  0  0
  161.1430  206.2080  150.7720 N   0  0  0  0  0  0  0  0  0  0  0  0
  162.1640  209.4170  151.7910 C   0  0  1  0  0  3  0  0  0  0  0  0
  160.5780  206.4570  148.4570 C   0  0  0  0  0  2  0  0  0  0  0  0
  162.0700  208.0820  149.5680 C   0  0  1  0  0  3  0  0  0  0  0  0
  162.0520  211.4830  148.4610 C   0  0  2  0  0  3  0  0  0  0  0  0
  160.6500  210.0140  156.6510 C   0  0  1  0  0  3  0  0  0  0  0  0
  159.6350  210.1620  154.3120 C   0  0  2  0  0  3  0  0  0  0  0  0
  161.4020  209.2580  149.1710 O   0  0  0  0  0  0  0  0  0  0  0  0
  160.3280  212.2200  150.1610 C   0  0  0  0  0  2  0  0  0  0  0  0
  159.9210  210.8960  155.6300 C   0  0  0  0  0  2  0  0  0  0  0  0
  162.1070  209.5310  154.5720 C   0  0  2  0  0  3  0  0  0  0  0  0
  162.5650  210.8300  154.3230 O   0  0  0  0  0  1  0  0  0  0  0  0
  160.8090  209.3350  152.3590 N   0  0  1  0  0  0  0  0  0  0  0  0
  163.2680  211.9060  147.9260 O   0  0  0  0  0  1  0  0  0  0  0  0
  160.7740  209.2630  153.8340 C   0  0  2  0  0  3  0  0  0  0  0  0
  162.5530  208.1200  151.0420 C   0  0  2  0  0  3  0  0  0  0  0  0
  161.3390  212.6740  149.1160 C   0  0  2  0  0  3  0  0  0  0  0  0
  161.1430  206.9310  149.5580 C   0  0  0  0  0  0  0  0  0  0  0  0
  162.0250  206.8520  151.7280 C   0  0  0  0  0  3  0  0  0  0  0  0
  160.7370  213.5680  148.1230 N   0  0  0  0  0  2  0  0  0  0  0  0
  160.0250  212.8040  147.1030 C   0  0  0  0  0  2  0  0  0  0  0  0
  158.5620  213.1910  147.1140 C   0  0  0  0  0  1  0  0  0  0  0  0
  159.6940  208.9930  157.2460 C   0  0  0  0  0  2  0  0  0  0  0  0
  159.4940  206.9740  156.3800 C   0  0  0  0  0  1  0  0  0  0  0  0
  160.2840  207.7290  157.2470 O   0  0  0  0  0  0  0  0  0  0  0  0
  1 20  1  0  0  0  0
  1  4  1  1  0  0  0
  2  5  1  0  0  0  0
  2  9  1  0  0  0  0
  3 13  1  0  0  0  0
  3  7  1  0  0  0  0
  4 14  1  0  0  0  0
  5  1  1  0  0  0  0
  6  2  1  0  0  0  0
  8 26  2  0  0  0  0
  9 20  1  0  0  0  0
 10 25  2  0  0  0  0
 11 23  1  0  0  0  0
 12 24  1  0  0  0  0
 12  6  1  0  0  0  0
 13 30  1  0  0  0  0
 14 17  1  0  0  0  0
 15  6  1  0  0  0  0
 15 11  1  0  0  0  0
 16  5  1  0  0  0  0
 17 13  1  0  0  0  0
 18  3  1  0  0  0  0
 19 18  1  0  0  0  0
 20 22  1  0  0  0  0
 21 12  1  0  0  0  0
 22 14  1  0  0  0  0
 22 18  1  0  0  0  0
 23 26  1  0  0  0  0
 23  9  1  0  0  0  0
 24 16  1  0  0  0  0
 25 11  1  0  0  0  0
 25  8  1  0  0  0  0
 27 24  1  0  0  0  0
 28 29  1  0  0  0  0
 28 27  1  0  0  0  0
 30 32  1  0  0  0  0
 31 32  1  0  0  0  0
M  END
>  <MODEL>
1

>  <REMARK>
 VINA RESULT:      -4.8      0.000      0.000
  Name = 
  4 active torsions:
  status: ('A' for Active; 'I' for Inactive)
    1  A    between atoms: N_14  and  C_21
    2  A    between atoms: N_14  and  C_29
    3  A    between atoms: C_15  and  C_19
    4  A    between atoms: C_19  and  O_26
                            x       y       z     vdW  Elec       q    Type
                         _______ _______ _______ _____ _____    ______ ____

>  <TORSDO>
F 4

$$$$
=
 OpenBabel11062408163D

 32 37  0  0  1  0  0  0  0  0999 V2000
  157.9970  210.4370  139.1550 C   0  0  1  0  0  3  0  0  0  0  0  0
  159.7290  211.8730  138.2440 C   0  0  2  0  0  3  0  0  0  0  0  0
  154.6330  213.4760  138.0940 C   0  0  1  0  0  3  0  0  0  0  0  0
  156.7060  209.8530  138.6110 C   0  0  0  0  0  2  0  0  0  0  0  0
  159.0420  210.5170  138.0650 C   0  0  1  0  0  3  0  0  0  0  0  0
  161.1030  211.7820  138.9470 C   0  0  2  0  0  3  0  0  0  0  0  0
  154.3920  214.3250  137.0120 O   0  0  0  0  0  1  0  0  0  0  0  0
  158.9810  213.4580  142.5060 N   0  0  0  0  0  0  0  0  0  0  0  0
  158.7400  212.6960  139.0800 C   0  0  1  0  0  3  0  0  0  0  0  0
  160.9840  212.3620  143.2320 C   0  0  0  0  0  1  0  0  0  0  0  0
  160.6320  212.8860  140.8440 C   0  0  1  0  0  3  0  0  0  0  0  0
  162.0520  210.7220  138.3740 C   0  0  2  0  0  3  0  0  0  0  0  0
  153.7560  212.2140  137.9850 C   0  0  1  0  0  3  0  0  0  0  0  0
  155.6190  210.8090  139.0250 C   0  0  2  0  0  3  0  0  0  0  0  0
  160.9150  211.6060  140.3240 O   0  0  0  0  0  0  0  0  0  0  0  0
  159.9680  209.3030  138.1540 C   0  0  0  0  0  2  0  0  0  0  0  0
  154.5670  210.9140  137.9120 C   0  0  0  0  0  2  0  0  0  0  0  0
  156.1330  213.1940  138.2360 C   0  0  2  0  0  3  0  0  0  0  0  0
  156.6690  212.7780  137.0120 O   0  0  0  0  0  1  0  0  0  0  0  0
  157.7440  211.7840  139.6640 N   0  0  1  0  0  0  0  0  0  0  0  0
  163.0090  211.3400  137.5700 O   0  0  0  0  0  1  0  0  0  0  0  0
  156.3450  212.1190  139.3280 C   0  0  2  0  0  3  0  0  0  0  0  0
  159.4210  213.5720  140.1590 C   0  0  2  0  0  3  0  0  0  0  0  0
  161.3370  209.6280  137.5700 C   0  0  2  0  0  3  0  0  0  0  0  0
  160.1990  212.7880  142.2530 C   0  0  0  0  0  0  0  0  0  0  0  0
  158.4580  214.0100  141.2700 C   0  0  0  0  0  2  0  0  0  0  0  0
  162.1650  208.4290  137.4150 N   0  0  0  0  0  2  0  0  0  0  0  0
  161.5540  207.2880  138.0910 C   0  0  0  0  0  2  0  0  0  0  0  0
  162.3360  206.9700  139.3480 C   0  0  0  0  0  1  0  0  0  0  0  0
  152.7610  212.1520  139.1320 C   0  0  0  0  0  2  0  0  0  0  0  0
  152.5100  212.4080  141.3090 C   0  0  0  0  0  1  0  0  0  0  0  0
  153.2390  212.8840  140.2190 O   0  0  0  0  0  0  0  0  0  0  0  0
  1  4  1  6  0  0  0
  1 20  1  0  0  0  0
  2  6  1  0  0  0  0
  2  9  1  0  0  0  0
  3 18  1  0  0  0  0
  4 14  1  0  0  0  0
  5 16  1  0  0  0  0
  5  2  1  0  0  0  0
  5  1  1  0  0  0  0
  6 15  1  0  0  0  0
  7  3  1  0  0  0  0
  9 20  1  0  0  0  0
  9 23  1  0  0  0  0
 11 25  1  0  0  0  0
 12  6  1  0  0  0  0
 13  3  1  0  0  0  0
 13 30  1  0  0  0  0
 14 22  1  0  0  0  0
 15 11  1  0  0  0  0
 17 13  1  0  0  0  0
 17 14  1  0  0  0  0
 18 22  1  0  0  0  0
 19 18  1  0  0  0  0
 21 12  1  0  0  0  0
 22 20  1  0  0  0  0
 23 11  1  0  0  0  0
 23 26  1  0  0  0  0
 24 16  1  0  0  0  0
 24 12  1  0  0  0  0
 25  8  2  0  0  0  0
 25 10  1  0  0  0  0
 26  8  1  0  0  0  0
 27 24  1  0  0  0  0
 27 28  1  0  0  0  0
 28 29  1  0  0  0  0
 30 32  1  0  0  0  0
 32 31  1  0  0  0  0
M  END
>  <MODEL>
2

>  <REMARK>
 VINA RESULT:      -4.2     10.449     14.477
  Name = 
  4 active torsions:
  status: ('A' for Active; 'I' for Inactive)
    1  A    between atoms: N_14  and  C_21
    2  A    between atoms: N_14  and  C_29
    3  A    between atoms: C_15  and  C_19
    4  A    between atoms: C_19  and  O_26
                            x       y       z     vdW  Elec       q    Type
                         _______ _______ _______ _____ _____    ______ ____

>  <TORSDO>
F 4

$$$$
=
 OpenBabel11062408163D

 32 37  0  0  1  0  0  0  0  0999 V2000
  159.4740  211.4570  151.3230 C   0  0  1  0  0  3  0  0  0  0  0  0
  161.8800  211.4510  151.0040 C   0  0  2  0  0  3  0  0  0  0  0  0
  159.8770  210.9180  155.9310 C   0  0  1  0  0  3  0  0  0  0  0  0
  158.5180  212.2630  152.1840 C   0  0  0  0  0  2  0  0  0  0  0  0
  160.6280  212.3200  150.8640 C   0  0  1  0  0  3  0  0  0  0  0  0
  162.3700  210.8520  149.6670 C   0  0  2  0  0  3  0  0  0  0  0  0
  160.7490  211.4210  156.8980 O   0  0  0  0  0  1  0  0  0  0  0  0
  160.6900  207.0030  151.2000 N   0  0  0  0  0  0  0  0  0  0  0  0
  161.4710  210.3430  151.9840 C   0  0  1  0  0  3  0  0  0  0  0  0
  160.8870  206.8780  148.8150 C   0  0  0  0  0  2  0  0  0  0  0  0
  162.0220  208.6730  150.0770 C   0  0  1  0  0  3  0  0  0  0  0  0
  162.4870  211.8560  148.5140 C   0  0  2  0  0  3  0  0  0  0  0  0
  158.5410  211.6850  155.9700 C   0  0  1  0  0  3  0  0  0  0  0  0
  158.3130  211.4510  153.4360 C   0  0  2  0  0  3  0  0  0  0  0  0
  161.5590  209.7650  149.3140 O   0  0  0  0  0  0  0  0  0  0  0  0
  160.3500  212.8350  149.4520 C   0  0  0  0  0  2  0  0  0  0  0  0
  158.2030  212.3870  154.6490 C   0  0  0  0  0  2  0  0  0  0  0  0
  160.5530  210.8940  154.5550 C   0  0  2  0  0  3  0  0  0  0  0  0
  161.1180  212.1420  154.2670 O   0  0  0  0  0  1  0  0  0  0  0  0
  160.0040  210.3390  152.1030 N   0  0  1  0  0  0  0  0  0  0  0  0
  163.8260  212.2010  148.3310 O   0  0  0  0  0  1  0  0  0  0  0  0
  159.5080  210.5000  153.4850 C   0  0  2  0  0  3  0  0  0  0  0  0
  162.0220  208.9480  151.6040 C   0  0  2  0  0  3  0  0  0  0  0  0
  161.6540  213.1280  148.7210 C   0  0  2  0  0  3  0  0  0  0  0  0
  161.0990  207.5260  149.9520 C   0  0  0  0  0  0  0  0  0  0  0  0
  161.2550  207.7990  152.2740 C   0  0  0  0  0  3  0  0  0  0  0  0
  161.4280  213.8490  147.4650 N   0  0  0  0  0  2  0  0  0  0  0  0
  161.0200  212.9290  146.4070 C   0  0  0  0  0  2  0  0  0  0  0  0
  161.7670  213.2620  145.1330 C   0  0  0  0  0  1  0  0  0  0  0  0
  157.4070  210.7610  156.3830 C   0  0  0  0  0  2  0  0  0  0  0  0
  155.3960  210.3990  155.5520 C   0  0  0  0  0  1  0  0  0  0  0  0
  156.1780  211.3820  156.1570 O   0  0  0  0  0  0  0  0  0  0  0  0
  1 20  1  0  0  0  0
  1  4  1  1  0  0  0
  2  9  1  0  0  0  0
  3 13  1  0  0  0  0
  3  7  1  0  0  0  0
  4 14  1  0  0  0  0
  5  2  1  0  0  0  0
  5  1  1  0  0  0  0
  6  2  1  0  0  0  0
  8 26  2  0  0  0  0
  9 20  1  0  0  0  0
 10 25  2  0  0  0  0
 11 23  1  0  0  0  0
 12 24  1  0  0  0  0
 12  6  1  0  0  0  0
 13 30  1  0  0  0  0
 14 22  1  0  0  0  0
 14 17  1  0  0  0  0
 15  6  1  0  0  0  0
 15 11  1  0  0  0  0
 16  5  1  0  0  0  0
 17 13  1  0  0  0  0
 18  3  1  0  0  0  0
 19 18  1  0  0  0  0
 20 22  1  0  0  0  0
 21 12  1  0  0  0  0
 22 18  1  0  0  0  0
 23  9  1  0  0  0  0
 23 26  1  0  0  0  0
 24 16  1  0  0  0  0
 25 11  1  0  0  0  0
 25  8  1  0  0  0  0
 27 24  1  0  0  0  0
 28 27  1  0  0  0  0
 29 28  1  0  0  0  0
 31 32  1  0  0  0  0
 32 30  1  0  0  0  0
M  END
>  <MODEL>
3

>  <REMARK>
 VINA RESULT:      -2.4      1.832      2.156
  Name = 
  4 active torsions:
  status: ('A' for Active; 'I' for Inactive)
    1  A    between atoms: N_14  and  C_21
    2  A    between atoms: N_14  and  C_29
    3  A    between atoms: C_15  and  C_19
    4  A    between atoms: C_19  and  O_26
                            x       y       z     vdW  Elec       q    Type
                         _______ _______ _______ _____ _____    ______ ____

>  <TORSDO>
F 4

$$$$
=
 OpenBabel11062408163D

 32 37  0  0  1  0  0  0  0  0999 V2000
  158.9220  211.6650  151.8130 C   0  0  1  0  0  3  0  0  0  0  0  0
  161.3030  211.9390  151.4320 C   0  0  2  0  0  3  0  0  0  0  0  0
  159.4060  212.0600  156.4280 C   0  0  1  0  0  3  0  0  0  0  0  0
  157.8610  212.4750  152.5370 C   0  0  0  0  0  2  0  0  0  0  0  0
  159.9390  212.5800  151.1690 C   0  0  1  0  0  3  0  0  0  0  0  0
  161.8720  211.1750  150.2150 C   0  0  2  0  0  3  0  0  0  0  0  0
  160.1980  212.8530  157.2600 O   0  0  0  0  0  1  0  0  0  0  0  0
  160.7650  207.4830  152.4810 N   0  0  0  0  0  0  0  0  0  0  0  0
  161.0590  210.9870  152.6110 C   0  0  1  0  0  3  0  0  0  0  0  0
  160.9730  206.9430  150.1550 C   0  0  0  0  0  2  0  0  0  0  0  0
  161.8410  209.0840  151.0310 C   0  0  1  0  0  3  0  0  0  0  0  0
  161.8420  211.9520  148.8930 C   0  0  2  0  0  3  0  0  0  0  0  0
  157.9740  212.6250  156.3620 C   0  0  1  0  0  3  0  0  0  0  0  0
  157.7770  211.8920  153.9230 C   0  0  2  0  0  3  0  0  0  0  0  0
  161.2250  209.9370  150.0930 O   0  0  0  0  0  0  0  0  0  0  0  0
  159.5870  212.7780  149.6950 C   0  0  0  0  0  2  0  0  0  0  0  0
  157.5370  213.0120  154.9450 C   0  0  0  0  0  2  0  0  0  0  0  0
  160.0760  211.8750  155.0610 C   0  0  2  0  0  3  0  0  0  0  0  0
  160.4550  213.1130  154.5310 O   0  0  0  0  0  1  0  0  0  0  0  0
  159.6080  210.7980  152.7710 N   0  0  1  0  0  0  0  0  0  0  0  0
  163.1160  212.4410  148.6120 O   0  0  0  0  0  1  0  0  0  0  0  0
  159.0970  211.1440  154.1130 C   0  0  2  0  0  3  0  0  0  0  0  0
  161.8040  209.6370  152.4800 C   0  0  2  0  0  3  0  0  0  0  0  0
  160.8340  213.1100  148.8850 C   0  0  2  0  0  3  0  0  0  0  0  0
  161.0920  207.8150  151.1460 C   0  0  0  0  0  0  0  0  0  0  0  0
  161.2110  208.5370  153.3730 C   0  0  0  0  0  3  0  0  0  0  0  0
  160.5060  213.5440  147.5250 N   0  0  0  0  0  2  0  0  0  0  0  0
  160.1790  212.3970  146.6820 C   0  0  0  0  0  2  0  0  0  0  0  0
  158.8890  212.6700  145.9380 C   0  0  0  0  0  1  0  0  0  0  0  0
  156.9840  211.6450  156.9720 C   0  0  0  0  0  2  0  0  0  0  0  0
  154.8610  211.0470  156.9270 C   0  0  0  0  0  1  0  0  0  0  0  0
  155.6930  212.1670  156.9060 O   0  0  0  0  0  0  0  0  0  0  0  0
  1  4  1  1  0  0  0
  1 20  1  0  0  0  0
  2  9  1  0  0  0  0
  3  7  1  0  0  0  0
  4 14  1  0  0  0  0
  5  2  1  0  0  0  0
  5  1  1  0  0  0  0
  6  2  1  0  0  0  0
  8 26  2  0  0  0  0
  9 20  1  0  0  0  0
 10 25  2  0  0  0  0
 11 25  1  0  0  0  0
 11 23  1  0  0  0  0
 12  6  1  0  0  0  0
 13  3  1  0  0  0  0
 13 30  1  0  0  0  0
 14 22  1  0  0  0  0
 14 17  1  0  0  0  0
 15  6  1  0  0  0  0
 15 11  1  0  0  0  0
 16  5  1  0  0  0  0
 17 13  1  0  0  0  0
 18  3  1  0  0  0  0
 19 18  1  0  0  0  0
 20 22  1  0  0  0  0
 21 12  1  0  0  0  0
 22 18  1  0  0  0  0
 23  9  1  0  0  0  0
 23 26  1  0  0  0  0
 24 12  1  0  0  0  0
 24 16  1  0  0  0  0
 25  8  1  0  0  0  0
 27 24  1  0  0  0  0
 28 27  1  0  0  0  0
 29 28  1  0  0  0  0
 32 31  1  0  0  0  0
 32 30  1  0  0  0  0
M  END
>  <MODEL>
4

>  <REMARK>
 VINA RESULT:      -2.3      2.256      2.724
  Name = 
  4 active torsions:
  status: ('A' for Active; 'I' for Inactive)
    1  A    between atoms: N_14  and  C_21
    2  A    between atoms: N_14  and  C_29
    3  A    between atoms: C_15  and  C_19
    4  A    between atoms: C_19  and  O_26
                            x       y       z     vdW  Elec       q    Type
                         _______ _______ _______ _____ _____    ______ ____

>  <TORSDO>
F 4

$$$$
