=
 OpenBabel11052423223D

 27 30  0  0  1  0  0  0  0  0999 V2000
  161.5090  210.6400  152.4510 C   0  0  1  0  0  3  0  0  0  0  0  0
  161.4950  209.8590  153.7530 C   0  0  1  0  0  3  0  0  0  0  0  0
  160.0130  211.7950  154.0180 N   0  0  2  0  0  0  0  0  0  0  0  0
  161.2190  206.0600  153.4520 C   0  0  0  0  0  2  0  0  0  0  0  0
  160.6450  208.4040  151.9590 C   0  0  2  0  0  3  0  0  0  0  0  0
  158.6060  212.8130  151.6070 C   0  0  0  0  0  0  0  0  0  0  0  0
  161.6940  207.4690  151.3590 C   0  0  0  0  0  2  0  0  0  0  0  0
  158.4030  210.3120  153.0400 O   0  0  0  0  0  1  0  0  0  0  0  0
  157.9860  212.9080  150.5150 O   0  0  0  0  0  0  0  0  0  0  0  0
  160.8110  209.7950  151.3920 C   0  0  0  0  0  2  0  0  0  0  0  0
  160.7700  211.9470  152.7630 C   0  0  2  0  0  3  0  0  0  0  0  0
  160.7630  210.7660  154.7540 C   0  0  1  0  0  3  0  0  0  0  0  0
  157.6950  212.8720  153.1430 S   0  0  0  0  0  0  0  0  0  0  0  0
  160.7360  212.9890  150.6120 O   0  0  0  0  0  0  0  0  0  0  0  0
  161.5950  206.0630  151.9630 C   0  0  0  0  0  2  0  0  0  0  0  0
  160.0630  212.6270  151.6120 C   0  0  0  0  0  0  0  0  0  0  0  0
  161.5660  207.3840  154.1240 C   0  0  0  0  0  2  0  0  0  0  0  0
  158.5880  211.4490  153.8310 C   0  0  2  0  0  3  0  0  0  0  0  0
  160.7860  208.5370  153.4810 C   0  0  1  0  0  3  0  0  0  0  0  0
  160.0310  210.1070  155.9450 C   0  0  2  0  0  3  0  0  0  0  0  0
  159.2980  211.9660  157.2610 O   0  0  0  0  0  1  0  0  0  0  0  0
  158.8530  210.9710  156.3910 C   0  0  0  0  0  2  0  0  0  0  0  0
  161.0050  209.8300  157.1020 C   0  0  2  0  0  3  0  0  0  0  0  0
  162.2310  210.7440  157.0810 C   0  0  0  0  0  2  0  0  0  0  0  0
  163.4090  210.0130  157.2480 O   0  0  0  0  0  1  0  0  0  0  0  0
  160.1180  207.4950  157.1680 C   0  0  0  0  0  1  0  0  0  0  0  0
  161.3640  208.3530  157.2610 C   0  0  0  0  0  2  0  0  0  0  0  0
  1 10  1  6  0  0  0
  1 11  1  0  0  0  0
  1  2  1  0  0  0  0
  2 12  1  0  0  0  0
  3 12  1  0  0  0  0
  4 17  1  0  0  0  0
  5 19  1  0  0  0  0
  6 16  1  0  0  0  0
  6 13  1  0  0  0  0
  7  5  1  0  0  0  0
  7 15  1  0  0  0  0
  8 18  1  0  0  0  0
  9  6  2  0  0  0  0
 10  5  1  0  0  0  0
 11  3  1  0  0  0  0
 12 20  1  0  0  0  0
 13 18  1  0  0  0  0
 14 16  2  0  0  0  0
 15  4  1  0  0  0  0
 16 11  1  0  0  0  0
 18  3  1  0  0  0  0
 19  2  1  0  0  0  0
 19 17  1  0  0  0  0
 20 22  1  0  0  0  0
 20 23  1  0  0  0  0
 22 21  1  0  0  0  0
 23 27  1  0  0  0  0
 24 23  1  0  0  0  0
 24 25  1  0  0  0  0
 26 27  1  0  0  0  0
M  END
>  <MODEL>
1

>  <REMARK>
 VINA RESULT:      -4.2      0.000      0.000
  Name = 
  5 active torsions:
  status: ('A' for Active; 'I' for Inactive)
    1  A    between atoms: C_4  and  C_17
    2  A    between atoms: C_14  and  C_16
    3  A    between atoms: C_14  and  C_17
    4  A    between atoms: C_14  and  C_19
    5  A    between atoms: C_17  and  C_21
                            x       y       z     vdW  Elec       q    Type
                         _______ _______ _______ _____ _____    ______ ____

>  <TORSDO>
F 5

$$$$
=
 OpenBabel11052423223D

 27 30  0  0  1  0  0  0  0  0999 V2000
  158.4660  210.5090  155.0890 C   0  0  1  0  0  3  0  0  0  0  0  0
  159.6680  210.5770  154.1620 C   0  0  1  0  0  3  0  0  0  0  0  0
  157.9400  212.0710  153.2690 N   0  0  2  0  0  0  0  0  0  0  0  0
  163.0920  210.8350  155.8380 C   0  0  0  0  0  2  0  0  0  0  0  0
  160.3570  211.3490  156.3960 C   0  0  2  0  0  3  0  0  0  0  0  0
  156.0940  213.3770  155.1980 C   0  0  0  0  0  0  0  0  0  0  0  0
  161.0240  210.2740  157.2520 C   0  0  0  0  0  2  0  0  0  0  0  0
  158.9420  213.6370  154.7840 O   0  0  0  0  0  1  0  0  0  0  0  0
  155.6000  213.9510  156.2040 O   0  0  0  0  0  0  0  0  0  0  0  0
  158.8580  211.1610  156.4100 C   0  0  0  0  0  2  0  0  0  0  0  0
  157.3520  211.2630  154.3510 C   0  0  2  0  0  3  0  0  0  0  0  0
  159.1770  211.3520  152.9290 C   0  0  1  0  0  3  0  0  0  0  0  0
  156.5860  214.3520  153.7830 S   0  0  0  0  0  0  0  0  0  0  0  0
  155.5980  211.2070  155.9750 O   0  0  0  0  0  0  0  0  0  0  0  0
  162.5530  210.3970  157.2070 C   0  0  0  0  0  2  0  0  0  0  0  0
  156.2900  211.9210  155.2020 C   0  0  0  0  0  0  0  0  0  0  0  0
  162.1090  210.5180  154.7160 C   0  0  0  0  0  2  0  0  0  0  0  0
  158.1740  213.4870  153.6260 C   0  0  2  0  0  3  0  0  0  0  0  0
  160.7890  211.2720  154.9250 C   0  0  1  0  0  3  0  0  0  0  0  0
  160.2140  212.1320  152.0910 C   0  0  2  0  0  3  0  0  0  0  0  0
  160.3350  214.2380  150.9610 O   0  0  0  0  0  1  0  0  0  0  0  0
  159.5130  213.1320  151.1710 C   0  0  0  0  0  2  0  0  0  0  0  0
  161.1180  211.1700  151.3030 C   0  0  2  0  0  3  0  0  0  0  0  0
  161.1690  211.4890  149.8090 C   0  0  0  0  0  2  0  0  0  0  0  0
  162.4860  211.5350  149.3460 O   0  0  0  0  0  1  0  0  0  0  0  0
  162.1060  208.8770  151.4220 C   0  0  0  0  0  1  0  0  0  0  0  0
  160.8400  209.6950  151.5890 C   0  0  0  0  0  2  0  0  0  0  0  0
  1 10  1  1  0  0  0
  2 19  1  0  0  0  0
  2  1  1  0  0  0  0
  3 18  1  0  0  0  0
  3 11  1  0  0  0  0
  4 15  1  0  0  0  0
  5 10  1  0  0  0  0
  5  7  1  0  0  0  0
  6 16  1  0  0  0  0
  6  9  2  0  0  0  0
 11  1  1  0  0  0  0
 11 16  1  0  0  0  0
 12  3  1  0  0  0  0
 12  2  1  0  0  0  0
 13  6  1  0  0  0  0
 15  7  1  0  0  0  0
 16 14  2  0  0  0  0
 17 19  1  0  0  0  0
 17  4  1  0  0  0  0
 18 13  1  0  0  0  0
 18  8  1  0  0  0  0
 19  5  1  0  0  0  0
 20 12  1  0  0  0  0
 21 22  1  0  0  0  0
 22 20  1  0  0  0  0
 23 27  1  0  0  0  0
 23 20  1  0  0  0  0
 24 23  1  0  0  0  0
 25 24  1  0  0  0  0
 26 27  1  0  0  0  0
M  END
>  <MODEL>
2

>  <REMARK>
 VINA RESULT:      -3.4      2.300      5.238
  Name = 
  5 active torsions:
  status: ('A' for Active; 'I' for Inactive)
    1  A    between atoms: C_4  and  C_17
    2  A    between atoms: C_14  and  C_16
    3  A    between atoms: C_14  and  C_17
    4  A    between atoms: C_14  and  C_19
    5  A    between atoms: C_17  and  C_21
                            x       y       z     vdW  Elec       q    Type
                         _______ _______ _______ _____ _____    ______ ____

>  <TORSDO>
F 5

$$$$
=
 OpenBabel11052423223D

 27 30  0  0  1  0  0  0  0  0999 V2000
  161.9630  211.8470  141.1780 C   0  0  1  0  0  3  0  0  0  0  0  0
  161.4250  211.6580  139.7700 C   0  0  1  0  0  3  0  0  0  0  0  0
  159.5100  211.8670  141.2890 N   0  0  2  0  0  0  0  0  0  0  0  0
  163.1300  213.6810  137.0130 C   0  0  0  0  0  2  0  0  0  0  0  0
  162.7570  213.7270  139.8270 C   0  0  2  0  0  3  0  0  0  0  0  0
  159.8370  213.5450  143.7200 C   0  0  0  0  0  0  0  0  0  0  0  0
  164.1980  213.5580  139.3450 C   0  0  0  0  0  2  0  0  0  0  0  0
  159.8540  214.2100  140.9080 O   0  0  0  0  0  1  0  0  0  0  0  0
  160.1550  214.4530  144.5320 O   0  0  0  0  0  0  0  0  0  0  0  0
  162.6260  213.2180  141.2440 C   0  0  0  0  0  2  0  0  0  0  0  0
  160.7370  211.7260  142.0920 C   0  0  2  0  0  3  0  0  0  0  0  0
  159.9170  211.4190  139.9490 C   0  0  1  0  0  3  0  0  0  0  0  0
  158.2360  213.5980  142.9270 S   0  0  0  0  0  0  0  0  0  0  0  0
  161.7010  212.1950  144.2290 O   0  0  0  0  0  0  0  0  0  0  0  0
  164.3510  214.0050  137.8860 C   0  0  0  0  0  2  0  0  0  0  0  0
  160.7860  212.4690  143.4080 C   0  0  0  0  0  0  0  0  0  0  0  0
  162.3060  212.5380  137.5990 C   0  0  0  0  0  2  0  0  0  0  0  0
  158.9350  213.2290  141.2910 C   0  0  2  0  0  3  0  0  0  0  0  0
  161.7630  212.9180  138.9820 C   0  0  1  0  0  3  0  0  0  0  0  0
  158.9720  211.7910  138.7860 C   0  0  2  0  0  3  0  0  0  0  0  0
  157.0470  213.2040  138.6400 O   0  0  0  0  0  1  0  0  0  0  0  0
  157.5730  212.1030  139.3150 C   0  0  0  0  0  2  0  0  0  0  0  0
  158.9440  210.6790  137.7240 C   0  0  2  0  0  3  0  0  0  0  0  0
  157.5380  210.3950  137.1950 C   0  0  0  0  0  2  0  0  0  0  0  0
  157.2730  209.0250  137.1710 O   0  0  0  0  0  1  0  0  0  0  0  0
  160.8020  209.1070  137.1580 C   0  0  0  0  0  1  0  0  0  0  0  0
  159.6910  209.4130  138.1420 C   0  0  0  0  0  2  0  0  0  0  0  0
  1 10  1  6  0  0  0
  1 11  1  0  0  0  0
  2 12  1  0  0  0  0
  2  1  1  0  0  0  0
  3 18  1  0  0  0  0
  3 11  1  0  0  0  0
  4 17  1  0  0  0  0
  4 15  1  0  0  0  0
  5 10  1  0  0  0  0
  6  9  2  0  0  0  0
  7  5  1  0  0  0  0
  8 18  1  0  0  0  0
 11 16  1  0  0  0  0
 12  3  1  0  0  0  0
 13  6  1  0  0  0  0
 15  7  1  0  0  0  0
 16  6  1  0  0  0  0
 16 14  2  0  0  0  0
 17 19  1  0  0  0  0
 18 13  1  0  0  0  0
 19  2  1  0  0  0  0
 19  5  1  0  0  0  0
 20 22  1  0  0  0  0
 20 12  1  0  0  0  0
 21 22  1  0  0  0  0
 23 27  1  0  0  0  0
 23 20  1  0  0  0  0
 24 23  1  0  0  0  0
 25 24  1  0  0  0  0
 26 27  1  0  0  0  0
M  END
>  <MODEL>
3

>  <REMARK>
 VINA RESULT:      -3.0     11.894     14.966
  Name = 
  5 active torsions:
  status: ('A' for Active; 'I' for Inactive)
    1  A    between atoms: C_4  and  C_17
    2  A    between atoms: C_14  and  C_16
    3  A    between atoms: C_14  and  C_17
    4  A    between atoms: C_14  and  C_19
    5  A    between atoms: C_17  and  C_21
                            x       y       z     vdW  Elec       q    Type
                         _______ _______ _______ _____ _____    ______ ____

>  <TORSDO>
F 5

$$$$
=
 OpenBabel11052423223D

 27 30  0  0  1  0  0  0  0  0999 V2000
  160.9210  211.3320  153.8200 C   0  0  1  0  0  3  0  0  0  0  0  0
  160.8690  211.8230  152.3830 C   0  0  1  0  0  3  0  0  0  0  0  0
  161.9470  209.6200  152.3920 N   0  0  2  0  0  0  0  0  0  0  0  0
  157.5810  213.4000  151.2440 C   0  0  0  0  0  2  0  0  0  0  0  0
  158.5650  211.6210  153.2240 C   0  0  2  0  0  3  0  0  0  0  0  0
  161.1260  207.6750  154.4830 C   0  0  0  0  0  0  0  0  0  0  0  0
  157.9680  212.9310  153.7380 C   0  0  0  0  0  2  0  0  0  0  0  0
  159.6800  208.8480  152.2740 O   0  0  0  0  0  1  0  0  0  0  0  0
  160.4680  206.9860  155.3070 O   0  0  0  0  0  0  0  0  0  0  0  0
  159.4930  211.0360  154.2640 C   0  0  0  0  0  2  0  0  0  0  0  0
  161.8120  210.0850  153.7830 C   0  0  2  0  0  3  0  0  0  0  0  0
  161.7500  210.8400  151.5950 C   0  0  1  0  0  3  0  0  0  0  0  0
  161.4940  206.9990  152.8690 S   0  0  0  0  0  0  0  0  0  0  0  0
  161.6750  209.3460  156.0520 O   0  0  0  0  0  0  0  0  0  0  0  0
  157.0700  213.5840  152.6800 C   0  0  0  0  0  2  0  0  0  0  0  0
  161.5620  209.0310  154.8380 C   0  0  0  0  0  0  0  0  0  0  0  0
  159.0800  213.1220  151.2090 C   0  0  0  0  0  2  0  0  0  0  0  0
  161.0170  208.5320  152.0200 C   0  0  2  0  0  3  0  0  0  0  0  0
  159.4060  211.8230  151.9570 C   0  0  1  0  0  3  0  0  0  0  0  0
  161.4600  210.6370  150.0920 C   0  0  2  0  0  3  0  0  0  0  0  0
  161.4720  208.8230  148.5310 O   0  0  0  0  0  1  0  0  0  0  0  0
  162.2000  209.4070  149.5670 C   0  0  0  0  0  2  0  0  0  0  0  0
  161.8140  211.9010  149.2890 C   0  0  2  0  0  3  0  0  0  0  0  0
  160.6380  212.4360  148.4730 C   0  0  0  0  0  2  0  0  0  0  0  0
  160.5740  211.8270  147.2180 O   0  0  0  0  0  1  0  0  0  0  0  0
  163.4530  213.0930  147.8270 C   0  0  0  0  0  1  0  0  0  0  0  0
  163.0970  211.7670  148.4710 C   0  0  0  0  0  2  0  0  0  0  0  0
  1 10  1  6  0  0  0
  2  1  1  0  0  0  0
  3 11  1  0  0  0  0
  4 15  1  0  0  0  0
  5  7  1  0  0  0  0
  5 10  1  0  0  0  0
  6 16  1  0  0  0  0
  6  9  2  0  0  0  0
 11  1  1  0  0  0  0
 11 16  1  0  0  0  0
 12  2  1  0  0  0  0
 12  3  1  0  0  0  0
 13  6  1  0  0  0  0
 15  7  1  0  0  0  0
 16 14  2  0  0  0  0
 17  4  1  0  0  0  0
 17 19  1  0  0  0  0
 18  8  1  0  0  0  0
 18  3  1  0  0  0  0
 18 13  1  0  0  0  0
 19  2  1  0  0  0  0
 19  5  1  0  0  0  0
 20 12  1  0  0  0  0
 21 22  1  0  0  0  0
 22 20  1  0  0  0  0
 23 20  1  0  0  0  0
 24 23  1  0  0  0  0
 25 24  1  0  0  0  0
 26 27  1  0  0  0  0
 27 23  1  0  0  0  0
M  END
>  <MODEL>
4

>  <REMARK>
 VINA RESULT:      -2.8      2.805      6.772
  Name = 
  5 active torsions:
  status: ('A' for Active; 'I' for Inactive)
    1  A    between atoms: C_4  and  C_17
    2  A    between atoms: C_14  and  C_16
    3  A    between atoms: C_14  and  C_17
    4  A    between atoms: C_14  and  C_19
    5  A    between atoms: C_17  and  C_21
                            x       y       z     vdW  Elec       q    Type
                         _______ _______ _______ _____ _____    ______ ____

>  <TORSDO>
F 5

$$$$
=
 OpenBabel11052423223D

 27 30  0  0  1  0  0  0  0  0999 V2000
  160.1800  205.9800  150.6160 C   0  0  1  0  0  3  0  0  0  0  0  0
  160.3130  204.9460  149.5100 C   0  0  1  0  0  3  0  0  0  0  0  0
  161.0870  207.1000  148.6290 N   0  0  2  0  0  0  0  0  0  0  0  0
  161.7820  201.5650  150.5110 C   0  0  0  0  0  2  0  0  0  0  0  0
  161.7390  204.2610  151.3950 C   0  0  2  0  0  3  0  0  0  0  0  0
  162.3310  209.0170  150.5280 C   0  0  0  0  0  0  0  0  0  0  0  0
  161.0940  203.2400  152.3310 C   0  0  0  0  0  2  0  0  0  0  0  0
  163.1640  206.4080  149.6080 O   0  0  0  0  0  1  0  0  0  0  0  0
  162.9920  209.5400  151.4640 O   0  0  0  0  0  0  0  0  0  0  0  0
  161.2040  205.6430  151.6940 C   0  0  0  0  0  2  0  0  0  0  0  0
  160.4440  207.3270  149.9340 C   0  0  2  0  0  3  0  0  0  0  0  0
  160.6290  205.7570  148.2430 C   0  0  1  0  0  3  0  0  0  0  0  0
  163.0290  208.9620  148.8830 S   0  0  0  0  0  0  0  0  0  0  0  0
  160.3560  208.8180  151.8000 O   0  0  0  0  0  0  0  0  0  0  0  0
  161.5670  201.8160  152.0110 C   0  0  0  0  0  2  0  0  0  0  0  0
  161.0110  208.4330  150.7960 C   0  0  0  0  0  0  0  0  0  0  0  0
  160.9790  202.5370  149.6550 C   0  0  0  0  0  2  0  0  0  0  0  0
  162.5610  207.2240  148.6460 C   0  0  2  0  0  3  0  0  0  0  0  0
  161.4200  203.9820  149.9200 C   0  0  1  0  0  3  0  0  0  0  0  0
  161.4120  205.0670  147.1050 C   0  0  2  0  0  3  0  0  0  0  0  0
  163.6110  205.0800  146.1630 O   0  0  0  0  0  1  0  0  0  0  0  0
  162.6280  205.9040  146.7100 C   0  0  0  0  0  2  0  0  0  0  0  0
  160.4970  204.7870  145.9000 C   0  0  2  0  0  3  0  0  0  0  0  0
  160.7580  203.4240  145.2590 C   0  0  0  0  0  2  0  0  0  0  0  0
  161.2050  202.4980  146.2040 O   0  0  0  0  0  1  0  0  0  0  0  0
  161.2060  205.5380  143.6250 C   0  0  0  0  0  1  0  0  0  0  0  0
  160.4570  205.9270  144.8840 C   0  0  0  0  0  2  0  0  0  0  0  0
  1 10  1  1  0  0  0
  2 19  1  0  0  0  0
  2  1  1  0  0  0  0
  3 18  1  0  0  0  0
  3 11  1  0  0  0  0
  4 15  1  0  0  0  0
  5 10  1  0  0  0  0
  5  7  1  0  0  0  0
  6 16  1  0  0  0  0
  6  9  2  0  0  0  0
 11  1  1  0  0  0  0
 11 16  1  0  0  0  0
 12  3  1  0  0  0  0
 12  2  1  0  0  0  0
 13  6  1  0  0  0  0
 15  7  1  0  0  0  0
 16 14  2  0  0  0  0
 17 19  1  0  0  0  0
 17  4  1  0  0  0  0
 18 13  1  0  0  0  0
 18  8  1  0  0  0  0
 19  5  1  0  0  0  0
 20 12  1  0  0  0  0
 21 22  1  0  0  0  0
 22 20  1  0  0  0  0
 23 20  1  0  0  0  0
 24 23  1  0  0  0  0
 24 25  1  0  0  0  0
 26 27  1  0  0  0  0
 27 23  1  0  0  0  0
M  END
>  <MODEL>
5

>  <REMARK>
 VINA RESULT:      -2.6      5.332      8.571
  Name = 
  5 active torsions:
  status: ('A' for Active; 'I' for Inactive)
    1  A    between atoms: C_4  and  C_17
    2  A    between atoms: C_14  and  C_16
    3  A    between atoms: C_14  and  C_17
    4  A    between atoms: C_14  and  C_19
    5  A    between atoms: C_17  and  C_21
                            x       y       z     vdW  Elec       q    Type
                         _______ _______ _______ _____ _____    ______ ____

>  <TORSDO>
F 5

$$$$
=
 OpenBabel11052423223D

 27 30  0  0  1  0  0  0  0  0999 V2000
  162.6050  204.3910  148.2150 C   0  0  1  0  0  3  0  0  0  0  0  0
  162.3490  205.3530  149.3620 C   0  0  1  0  0  3  0  0  0  0  0  0
  161.8700  206.5320  147.2660 N   0  0  2  0  0  0  0  0  0  0  0  0
  160.4420  203.9520  152.3620 C   0  0  0  0  0  2  0  0  0  0  0  0
  160.8280  203.4320  149.5990 C   0  0  2  0  0  3  0  0  0  0  0  0
  160.8700  204.9370  144.9670 C   0  0  0  0  0  0  0  0  0  0  0  0
  161.3260  202.3520  150.5590 C   0  0  0  0  0  2  0  0  0  0  0  0
  159.7120  205.5260  147.5480 O   0  0  0  0  0  1  0  0  0  0  0  0
  160.2740  204.0970  144.2430 O   0  0  0  0  0  0  0  0  0  0  0  0
  161.5370  203.3050  148.2700 C   0  0  0  0  0  2  0  0  0  0  0  0
  162.5260  205.2520  146.9490 C   0  0  2  0  0  3  0  0  0  0  0  0
  162.1540  206.7240  148.6960 C   0  0  1  0  0  3  0  0  0  0  0  0
  160.1860  206.5780  145.1530 S   0  0  0  0  0  0  0  0  0  0  0  0
  162.7900  203.5970  145.2430 O   0  0  0  0  0  0  0  0  0  0  0  0
  160.6740  202.4940  151.9400 C   0  0  0  0  0  2  0  0  0  0  0  0
  162.1000  204.5590  145.6730 C   0  0  0  0  0  0  0  0  0  0  0  0
  161.3740  204.9080  151.6250 C   0  0  0  0  0  2  0  0  0  0  0  0
  160.4260  206.5700  146.9530 C   0  0  2  0  0  3  0  0  0  0  0  0
  161.1220  204.8480  150.1120 C   0  0  1  0  0  3  0  0  0  0  0  0
  161.2980  207.7810  149.4280 C   0  0  2  0  0  3  0  0  0  0  0  0
  162.7060  209.3240  148.2610 O   0  0  0  0  0  1  0  0  0  0  0  0
  161.4050  209.1340  148.7250 C   0  0  0  0  0  2  0  0  0  0  0  0
  161.6930  207.8760  150.9110 C   0  0  2  0  0  3  0  0  0  0  0  0
  160.4850  207.9080  151.8480 C   0  0  0  0  0  2  0  0  0  0  0  0
  160.8320  207.4890  153.1340 O   0  0  0  0  0  1  0  0  0  0  0  0
  162.0560  210.0930  152.0060 C   0  0  0  0  0  1  0  0  0  0  0  0
  162.7060  208.9820  151.2060 C   0  0  0  0  0  2  0  0  0  0  0  0
  1 10  1  6  0  0  0
  1  2  1  0  0  0  0
  2 19  1  0  0  0  0
  3 12  1  0  0  0  0
  5 19  1  0  0  0  0
  5  7  1  0  0  0  0
  6 13  1  0  0  0  0
  6 16  1  0  0  0  0
  7 15  1  0  0  0  0
  9  6  2  0  0  0  0
 10  5  1  0  0  0  0
 11  3  1  0  0  0  0
 11  1  1  0  0  0  0
 12  2  1  0  0  0  0
 12 20  1  0  0  0  0
 13 18  1  0  0  0  0
 14 16  2  0  0  0  0
 15  4  1  0  0  0  0
 16 11  1  0  0  0  0
 17  4  1  0  0  0  0
 18  3  1  0  0  0  0
 18  8  1  0  0  0  0
 19 17  1  0  0  0  0
 20 23  1  0  0  0  0
 21 22  1  0  0  0  0
 22 20  1  0  0  0  0
 23 27  1  0  0  0  0
 23 24  1  0  0  0  0
 24 25  1  0  0  0  0
 27 26  1  0  0  0  0
M  END
>  <MODEL>
6

>  <REMARK>
 VINA RESULT:      -2.3      5.378      7.654
  Name = 
  5 active torsions:
  status: ('A' for Active; 'I' for Inactive)
    1  A    between atoms: C_4  and  C_17
    2  A    between atoms: C_14  and  C_16
    3  A    between atoms: C_14  and  C_17
    4  A    between atoms: C_14  and  C_19
    5  A    between atoms: C_17  and  C_21
                            x       y       z     vdW  Elec       q    Type
                         _______ _______ _______ _____ _____    ______ ____

>  <TORSDO>
F 5

$$$$
=
 OpenBabel11052423223D

 27 30  0  0  1  0  0  0  0  0999 V2000
  162.3900  205.4820  152.5690 C   0  0  1  0  0  3  0  0  0  0  0  0
  162.2190  206.9390  152.1750 C   0  0  1  0  0  3  0  0  0  0  0  0
  162.0070  205.5770  150.1460 N   0  0  2  0  0  0  0  0  0  0  0  0
  160.0000  209.0650  154.4450 C   0  0  0  0  0  2  0  0  0  0  0  0
  160.4350  206.3450  153.7630 C   0  0  2  0  0  3  0  0  0  0  0  0
  160.8980  202.8340  150.4200 C   0  0  0  0  0  0  0  0  0  0  0  0
  160.7330  206.7270  155.2130 C   0  0  0  0  0  2  0  0  0  0  0  0
  159.7180  205.4360  150.8490 O   0  0  0  0  0  1  0  0  0  0  0  0
  160.2240  201.8280  150.7650 O   0  0  0  0  0  0  0  0  0  0  0  0
  161.1790  205.0790  153.4020 C   0  0  0  0  0  2  0  0  0  0  0  0
  162.4900  204.7200  151.2420 C   0  0  2  0  0  3  0  0  0  0  0  0
  162.2480  206.9420  150.6390 C   0  0  1  0  0  3  0  0  0  0  0  0
  160.4430  203.7310  148.9420 S   0  0  0  0  0  0  0  0  0  0  0  0
  162.5970  202.4590  152.0110 O   0  0  0  0  0  0  0  0  0  0  0  0
  160.0450  208.0450  155.5920 C   0  0  0  0  0  2  0  0  0  0  0  0
  162.0300  203.2790  151.2420 C   0  0  0  0  0  0  0  0  0  0  0  0
  161.0890  208.8000  153.4110 C   0  0  0  0  0  2  0  0  0  0  0  0
  160.5970  205.3420  149.7660 C   0  0  2  0  0  3  0  0  0  0  0  0
  160.9010  207.4190  152.7700 C   0  0  1  0  0  3  0  0  0  0  0  0
  161.5160  208.0790  149.8920 C   0  0  2  0  0  3  0  0  0  0  0  0
  162.3870  207.3190  147.7960 O   0  0  0  0  0  1  0  0  0  0  0  0
  161.2060  207.6600  148.4550 C   0  0  0  0  0  2  0  0  0  0  0  0
  162.3310  209.3820  149.9420 C   0  0  2  0  0  3  0  0  0  0  0  0
  161.9960  210.2470  151.1570 C   0  0  0  0  0  2  0  0  0  0  0  0
  163.0810  210.3310  152.0330 O   0  0  0  0  0  1  0  0  0  0  0  0
  161.9550  211.6150  148.8840 C   0  0  0  0  0  1  0  0  0  0  0  0
  162.3160  210.1650  148.6300 C   0  0  0  0  0  2  0  0  0  0  0  0
  1 10  1  6  0  0  0
  2  1  1  0  0  0  0
  2 19  1  0  0  0  0
  3 12  1  0  0  0  0
  3 11  1  0  0  0  0
  4 15  1  0  0  0  0
  5  7  1  0  0  0  0
  6  9  2  0  0  0  0
  6 16  1  0  0  0  0
  7 15  1  0  0  0  0
 10  5  1  0  0  0  0
 11 16  1  0  0  0  0
 11  1  1  0  0  0  0
 12  2  1  0  0  0  0
 13 18  1  0  0  0  0
 13  6  1  0  0  0  0
 16 14  2  0  0  0  0
 17  4  1  0  0  0  0
 18  3  1  0  0  0  0
 18  8  1  0  0  0  0
 19 17  1  0  0  0  0
 19  5  1  0  0  0  0
 20 23  1  0  0  0  0
 20 12  1  0  0  0  0
 21 22  1  0  0  0  0
 22 20  1  0  0  0  0
 23 24  1  0  0  0  0
 24 25  1  0  0  0  0
 27 26  1  0  0  0  0
 27 23  1  0  0  0  0
M  END
>  <MODEL>
7

>  <REMARK>
 VINA RESULT:      -2.0      4.298      7.301
  Name = 
  5 active torsions:
  status: ('A' for Active; 'I' for Inactive)
    1  A    between atoms: C_4  and  C_17
    2  A    between atoms: C_14  and  C_16
    3  A    between atoms: C_14  and  C_17
    4  A    between atoms: C_14  and  C_19
    5  A    between atoms: C_17  and  C_21
                            x       y       z     vdW  Elec       q    Type
                         _______ _______ _______ _____ _____    ______ ____

>  <TORSDO>
F 5

$$$$
=
 OpenBabel11052423223D

 27 30  0  0  1  0  0  0  0  0999 V2000
  161.7790  212.1140  141.1670 C   0  0  1  0  0  3  0  0  0  0  0  0
  162.4060  211.1490  140.1750 C   0  0  1  0  0  3  0  0  0  0  0  0
  159.9720  210.8670  140.0680 N   0  0  2  0  0  0  0  0  0  0  0  0
  165.2290  212.5380  138.0060 C   0  0  0  0  0  2  0  0  0  0  0  0
  163.0040  213.4440  139.5180 C   0  0  2  0  0  3  0  0  0  0  0  0
  158.2690  213.2340  140.6350 C   0  0  0  0  0  0  0  0  0  0  0  0
  164.3780  213.9000  140.0090 C   0  0  0  0  0  2  0  0  0  0  0  0
  160.1380  212.6770  138.5030 O   0  0  0  0  0  1  0  0  0  0  0  0
  157.7960  214.4000  140.7020 O   0  0  0  0  0  0  0  0  0  0  0  0
  162.0000  213.5290  140.6450 C   0  0  0  0  0  2  0  0  0  0  0  0
  160.2990  211.7180  141.2250 C   0  0  2  0  0  3  0  0  0  0  0  0
  161.2560  210.2340  139.7270 C   0  0  1  0  0  3  0  0  0  0  0  0
  157.6850  212.1210  139.3640 S   0  0  0  0  0  0  0  0  0  0  0  0
  159.4240  213.3970  142.6840 O   0  0  0  0  0  0  0  0  0  0  0  0
  165.4350  213.7650  138.9070 C   0  0  0  0  0  2  0  0  0  0  0  0
  159.3100  212.8070  141.5780 C   0  0  0  0  0  0  0  0  0  0  0  0
  164.4080  211.4580  138.7040 C   0  0  0  0  0  2  0  0  0  0  0  0
  159.3670  211.5920  138.9300 C   0  0  2  0  0  3  0  0  0  0  0  0
  163.0090  211.9830  139.0510 C   0  0  1  0  0  3  0  0  0  0  0  0
  161.3440  209.5700  138.3360 C   0  0  2  0  0  3  0  0  0  0  0  0
  159.8860  207.9250  137.3910 O   0  0  0  0  0  1  0  0  0  0  0  0
  159.9460  209.2550  137.8050 C   0  0  0  0  0  2  0  0  0  0  0  0
  162.2330  208.3160  138.3810 C   0  0  2  0  0  3  0  0  0  0  0  0
  162.2860  207.5750  137.0450 C   0  0  0  0  0  2  0  0  0  0  0  0
  162.3880  206.1960  137.2350 O   0  0  0  0  0  1  0  0  0  0  0  0
  163.1620  207.2420  140.4370 C   0  0  0  0  0  1  0  0  0  0  0  0
  161.9330  207.3950  139.5630 C   0  0  0  0  0  2  0  0  0  0  0  0
  1 10  1  6  0  0  0
  1 11  1  0  0  0  0
  2  1  1  0  0  0  0
  3 11  1  0  0  0  0
  4 17  1  0  0  0  0
  4 15  1  0  0  0  0
  5  7  1  0  0  0  0
  5 10  1  0  0  0  0
  6  9  2  0  0  0  0
  6 16  1  0  0  0  0
  8 18  1  0  0  0  0
 11 16  1  0  0  0  0
 12  3  1  0  0  0  0
 12  2  1  0  0  0  0
 13  6  1  0  0  0  0
 15  7  1  0  0  0  0
 16 14  2  0  0  0  0
 17 19  1  0  0  0  0
 18 13  1  0  0  0  0
 18  3  1  0  0  0  0
 19  5  1  0  0  0  0
 19  2  1  0  0  0  0
 20 23  1  0  0  0  0
 20 12  1  0  0  0  0
 21 22  1  0  0  0  0
 22 20  1  0  0  0  0
 23 27  1  0  0  0  0
 24 25  1  0  0  0  0
 24 23  1  0  0  0  0
 27 26  1  0  0  0  0
M  END
>  <MODEL>
8

>  <REMARK>
 VINA RESULT:      -1.8     12.963     15.240
  Name = 
  5 active torsions:
  status: ('A' for Active; 'I' for Inactive)
    1  A    between atoms: C_4  and  C_17
    2  A    between atoms: C_14  and  C_16
    3  A    between atoms: C_14  and  C_17
    4  A    between atoms: C_14  and  C_19
    5  A    between atoms: C_17  and  C_21
                            x       y       z     vdW  Elec       q    Type
                         _______ _______ _______ _____ _____    ______ ____

>  <TORSDO>
F 5

$$$$
=
 OpenBabel11052423223D

 27 30  0  0  1  0  0  0  0  0999 V2000
  162.4630  204.0970  147.9140 C   0  0  1  0  0  3  0  0  0  0  0  0
  162.1960  204.9640  149.1330 C   0  0  1  0  0  3  0  0  0  0  0  0
  161.9690  206.3740  147.1400 N   0  0  2  0  0  0  0  0  0  0  0  0
  159.9670  203.4480  151.8410 C   0  0  0  0  0  2  0  0  0  0  0  0
  160.5180  203.1640  149.0720 C   0  0  2  0  0  3  0  0  0  0  0  0
  161.0230  205.0950  144.6300 C   0  0  0  0  0  0  0  0  0  0  0  0
  160.8580  201.9600  149.9490 C   0  0  0  0  0  2  0  0  0  0  0  0
  159.7240  205.5310  147.1740 O   0  0  0  0  0  1  0  0  0  0  0  0
  160.4200  204.3810  143.7850 O   0  0  0  0  0  0  0  0  0  0  0  0
  161.3120  203.1060  147.7870 C   0  0  0  0  0  2  0  0  0  0  0  0
  162.5450  205.0790  146.7390 C   0  0  2  0  0  3  0  0  0  0  0  0
  162.1580  206.4040  148.5980 C   0  0  1  0  0  3  0  0  0  0  0  0
  160.4560  206.7630  144.9350 S   0  0  0  0  0  0  0  0  0  0  0  0
  162.8070  203.5780  144.8970 O   0  0  0  0  0  0  0  0  0  0  0  0
  160.1170  202.0230  151.2900 C   0  0  0  0  0  2  0  0  0  0  0  0
  162.1640  204.5490  145.3750 C   0  0  0  0  0  0  0  0  0  0  0  0
  161.0230  204.3890  151.2680 C   0  0  0  0  0  2  0  0  0  0  0  0
  160.5590  206.5630  146.7370 C   0  0  2  0  0  3  0  0  0  0  0  0
  160.8810  204.4950  149.7450 C   0  0  1  0  0  3  0  0  0  0  0  0
  161.3340  207.4540  149.3740 C   0  0  2  0  0  3  0  0  0  0  0  0
  162.2900  209.5770  148.8200 O   0  0  0  0  0  1  0  0  0  0  0  0
  161.2060  208.7400  148.5580 C   0  0  0  0  0  2  0  0  0  0  0  0
  161.9460  207.7180  150.7600 C   0  0  2  0  0  3  0  0  0  0  0  0
  163.0810  206.7530  151.1030 C   0  0  0  0  0  2  0  0  0  0  0  0
  162.9110  206.2040  152.3750 O   0  0  0  0  0  1  0  0  0  0  0  0
  160.8530  209.2630  152.3910 C   0  0  0  0  0  1  0  0  0  0  0  0
  160.9080  207.8390  151.8750 C   0  0  0  0  0  2  0  0  0  0  0  0
  1 10  1  6  0  0  0
  1  2  1  0  0  0  0
  2 19  1  0  0  0  0
  3 12  1  0  0  0  0
  5 19  1  0  0  0  0
  5  7  1  0  0  0  0
  6 13  1  0  0  0  0
  6 16  1  0  0  0  0
  7 15  1  0  0  0  0
  9  6  2  0  0  0  0
 10  5  1  0  0  0  0
 11  3  1  0  0  0  0
 11  1  1  0  0  0  0
 12  2  1  0  0  0  0
 12 20  1  0  0  0  0
 13 18  1  0  0  0  0
 14 16  2  0  0  0  0
 15  4  1  0  0  0  0
 16 11  1  0  0  0  0
 17  4  1  0  0  0  0
 18  3  1  0  0  0  0
 18  8  1  0  0  0  0
 19 17  1  0  0  0  0
 20 23  1  0  0  0  0
 22 21  1  0  0  0  0
 22 20  1  0  0  0  0
 23 24  1  0  0  0  0
 23 27  1  0  0  0  0
 24 25  1  0  0  0  0
 27 26  1  0  0  0  0
M  END
>  <MODEL>
9

>  <REMARK>
 VINA RESULT:      -1.7      5.654      7.851
  Name = 
  5 active torsions:
  status: ('A' for Active; 'I' for Inactive)
    1  A    between atoms: C_4  and  C_17
    2  A    between atoms: C_14  and  C_16
    3  A    between atoms: C_14  and  C_17
    4  A    between atoms: C_14  and  C_19
    5  A    between atoms: C_17  and  C_21
                            x       y       z     vdW  Elec       q    Type
                         _______ _______ _______ _____ _____    ______ ____

>  <TORSDO>
F 5

$$$$
