=
 OpenBabel11062408263D

 32 36  0  0  1  0  0  0  0  0999 V2000
  160.6200  211.3560  154.3010 C   0  0  2  0  0  3  0  0  0  0  0  0
  158.5090  211.6060  153.1710 O   0  0  0  0  0  0  0  0  0  0  0  0
  161.0290  209.9850  154.8470 C   0  0  0  0  0  2  0  0  0  0  0  0
  159.1060  211.6440  154.4320 C   0  0  1  0  0  3  0  0  0  0  0  0
  157.1050  214.1910  154.2160 C   0  0  0  0  0  2  0  0  0  0  0  0
  157.5010  212.9720  149.0690 C   0  0  0  0  0  3  0  0  0  0  0  0
  158.9630  212.7810  152.5610 C   0  0  1  0  0  3  0  0  0  0  0  0
  156.0420  214.1980  150.5540 C   0  0  0  0  0  3  0  0  0  0  0  0
  156.8710  213.9140  151.6450 C   0  0  0  0  0  0  0  0  0  0  0  0
  156.2030  213.3800  155.1320 C   0  0  2  0  0  3  0  0  0  0  0  0
  158.3430  210.7980  155.4360 C   0  0  0  0  0  0  0  0  0  0  0  0
  156.4520  214.4080  152.9300 N   0  0  0  0  0  2  0  0  0  0  0  0
  156.8470  210.8960  155.6100 C   0  0  0  0  0  2  0  0  0  0  0  0
  158.9890  209.9510  156.2510 C   0  0  0  0  0  3  0  0  0  0  0  0
  160.3780  212.6840  152.1490 N   0  0  0  0  0  2  0  0  0  0  0  0
  156.5880  213.5930  156.5890 C   0  0  0  0  0  1  0  0  0  0  0  0
  161.1210  211.6180  152.8520 C   0  0  2  0  0  3  0  0  0  0  0  0
  158.0560  213.1600  151.4320 C   0  0  0  0  0  0  0  0  0  0  0  0
  156.1220  211.9040  154.7060 C   0  0  0  0  0  2  0  0  0  0  0  0
  160.4840  209.8220  156.2550 C   0  0  0  0  0  2  0  0  0  0  0  0
  156.3530  213.7340  149.2750 C   0  0  0  0  0  3  0  0  0  0  0  0
  158.3430  212.6810  150.1430 C   0  0  0  0  0  3  0  0  0  0  0  0
  161.6770  209.3830  149.8140 C   0  0  0  0  0  0  0  0  0  0  0  0
  162.0210  209.5020  148.4740 O   0  0  0  0  0  1  0  0  0  0  0  0
  161.2310  210.3920  151.9800 C   0  0  0  0  0  0  0  0  0  0  0  0
  161.4230  208.1180  150.3510 C   0  0  0  0  0  3  0  0  0  0  0  0
  160.9810  209.1180  152.5080 C   0  0  0  0  0  3  0  0  0  0  0  0
  161.5830  210.5220  150.6250 C   0  0  0  0  0  0  0  0  0  0  0  0
  161.8370  211.7790  150.0830 O   0  0  0  0  0  1  0  0  0  0  0  0
  161.0800  207.9830  151.6990 C   0  0  0  0  0  0  0  0  0  0  0  0
  161.1880  206.5870  153.7270 C   0  0  0  0  0  1  0  0  0  0  0  0
  160.7890  206.6370  152.2640 C   0  0  0  0  0  2  0  0  0  0  0  0
  1  4  1  0  0  0  0
  1  3  1  6  0  0  0
  3 20  1  0  0  0  0
  4  2  1  6  0  0  0
  4 11  1  0  0  0  0
  5 10  1  0  0  0  0
  6 21  2  0  0  0  0
  6 22  1  0  0  0  0
  7 18  1  6  0  0  0
  7  2  1  0  0  0  0
  8  9  2  0  0  0  0
  9 12  1  0  0  0  0
 10 16  1  1  0  0  0
 11 13  1  0  0  0  0
 11 14  2  0  0  0  0
 12  5  1  0  0  0  0
 14 20  1  0  0  0  0
 15  7  1  0  0  0  0
 15 17  1  0  0  0  0
 17 25  1  6  0  0  0
 17  1  1  0  0  0  0
 18  9  1  0  0  0  0
 19 10  1  0  0  0  0
 19 13  1  0  0  0  0
 21  8  1  0  0  0  0
 22 18  2  0  0  0  0
 23 26  2  0  0  0  0
 23 28  1  0  0  0  0
 24 23  1  0  0  0  0
 25 27  1  0  0  0  0
 26 30  1  0  0  0  0
 28 25  2  0  0  0  0
 29 28  1  0  0  0  0
 30 32  1  0  0  0  0
 30 27  2  0  0  0  0
 32 31  1  0  0  0  0
M  END
>  <MODEL>
1

>  <REMARK>
 VINA RESULT:      -5.4      0.000      0.000
  Name = 
  2 active torsions:
  status: ('A' for Active; 'I' for Inactive)
    1  A    between atoms: C_15  and  C_26
    2  A    between atoms: C_16  and  C_27
                            x       y       z     vdW  Elec       q    Type
                         _______ _______ _______ _____ _____    ______ ____

>  <TORSDO>
F 2

$$$$
=
 OpenBabel11062408263D

 32 36  0  0  1  0  0  0  0  0999 V2000
  162.4690  208.9070  150.0370 C   0  0  2  0  0  3  0  0  0  0  0  0
  160.8660  208.1330  151.6580 O   0  0  0  0  0  0  0  0  0  0  0  0
  162.0000  209.2830  148.6280 C   0  0  0  0  0  2  0  0  0  0  0  0
  161.7120  207.6990  150.6360 C   0  0  1  0  0  3  0  0  0  0  0  0
  162.0360  205.6370  153.1210 C   0  0  0  0  0  2  0  0  0  0  0  0
  159.7350  209.6840  155.6610 C   0  0  0  0  0  3  0  0  0  0  0  0
  161.7490  208.4500  152.6970 C   0  0  1  0  0  3  0  0  0  0  0  0
  160.1020  207.3140  155.9470 C   0  0  0  0  0  3  0  0  0  0  0  0
  160.8250  207.2550  154.7500 C   0  0  0  0  0  0  0  0  0  0  0  0
  161.2070  204.6940  152.2630 C   0  0  2  0  0  3  0  0  0  0  0  0
  160.9800  206.8050  149.6490 C   0  0  0  0  0  0  0  0  0  0  0  0
  161.3180  205.9640  154.3470 N   0  0  0  0  0  2  0  0  0  0  0  0
  160.1210  205.6440  150.0890 C   0  0  0  0  0  2  0  0  0  0  0  0
  161.1110  206.9910  148.3280 C   0  0  0  0  0  3  0  0  0  0  0  0
  162.4750  209.7120  152.4460 N   0  0  0  0  0  2  0  0  0  0  0  0
  162.0970  203.9290  151.2940 C   0  0  0  0  0  1  0  0  0  0  0  0
  162.4840  210.1090  151.0240 C   0  0  2  0  0  3  0  0  0  0  0  0
  161.0260  208.4490  154.0070 C   0  0  0  0  0  0  0  0  0  0  0  0
  160.0160  205.4100  151.6020 C   0  0  0  0  0  2  0  0  0  0  0  0
  162.0090  208.0450  147.7480 C   0  0  0  0  0  2  0  0  0  0  0  0
  159.5620  208.5170  156.4020 C   0  0  0  0  0  3  0  0  0  0  0  0
  160.4560  209.6480  154.4670 C   0  0  0  0  0  3  0  0  0  0  0  0
  160.5830  213.0000  149.4220 C   0  0  0  0  0  0  0  0  0  0  0  0
  160.6940  213.8490  148.3280 O   0  0  0  0  0  1  0  0  0  0  0  0
  161.4360  211.1630  150.7670 C   0  0  0  0  0  0  0  0  0  0  0  0
  159.4980  213.1330  150.2910 C   0  0  0  0  0  3  0  0  0  0  0  0
  160.3410  211.3050  151.6300 C   0  0  0  0  0  3  0  0  0  0  0  0
  161.5550  212.0160  149.6560 C   0  0  0  0  0  0  0  0  0  0  0  0
  162.6330  211.8900  148.7850 O   0  0  0  0  0  1  0  0  0  0  0  0
  159.3720  212.2830  151.3940 C   0  0  0  0  0  0  0  0  0  0  0  0
  158.7230  212.8810  153.6940 C   0  0  0  0  0  1  0  0  0  0  0  0
  158.2270  212.4400  152.3310 C   0  0  0  0  0  2  0  0  0  0  0  0
  1  3  1  6  0  0  0
  1  4  1  0  0  0  0
  1 17  1  0  0  0  0
  4 11  1  6  0  0  0
  4  2  1  0  0  0  0
  5 12  1  0  0  0  0
  6 21  1  0  0  0  0
  7  2  1  6  0  0  0
  7 18  1  0  0  0  0
  8 21  2  0  0  0  0
  9  8  1  0  0  0  0
 10 16  1  6  0  0  0
 10  5  1  0  0  0  0
 11 13  1  0  0  0  0
 12  9  1  0  0  0  0
 13 19  1  0  0  0  0
 14 11  2  0  0  0  0
 15  7  1  0  0  0  0
 17 25  1  6  0  0  0
 17 15  1  0  0  0  0
 18 22  1  0  0  0  0
 18  9  2  0  0  0  0
 19 10  1  0  0  0  0
 20 14  1  0  0  0  0
 20  3  1  0  0  0  0
 22  6  2  0  0  0  0
 23 28  2  0  0  0  0
 23 26  1  0  0  0  0
 24 23  1  0  0  0  0
 25 27  2  0  0  0  0
 26 30  2  0  0  0  0
 28 25  1  0  0  0  0
 29 28  1  0  0  0  0
 30 27  1  0  0  0  0
 30 32  1  0  0  0  0
 32 31  1  0  0  0  0
M  END
>  <MODEL>
2

>  <REMARK>
 VINA RESULT:      -5.3      2.530      6.935
  Name = 
  2 active torsions:
  status: ('A' for Active; 'I' for Inactive)
    1  A    between atoms: C_15  and  C_26
    2  A    between atoms: C_16  and  C_27
                            x       y       z     vdW  Elec       q    Type
                         _______ _______ _______ _____ _____    ______ ____

>  <TORSDO>
F 2

$$$$
=
 OpenBabel11062408263D

 32 36  0  0  1  0  0  0  0  0999 V2000
  161.4290  209.4050  154.4410 C   0  0  2  0  0  3  0  0  0  0  0  0
  159.5900  210.6030  153.4520 O   0  0  0  0  0  0  0  0  0  0  0  0
  161.3020  207.9010  154.6980 C   0  0  0  0  0  2  0  0  0  0  0  0
  160.1130  210.1830  154.6760 C   0  0  1  0  0  3  0  0  0  0  0  0
  159.1580  213.2660  155.0220 C   0  0  0  0  0  2  0  0  0  0  0  0
  159.2940  213.0010  149.7270 C   0  0  0  0  0  3  0  0  0  0  0  0
  160.4560  211.6340  153.0650 C   0  0  1  0  0  3  0  0  0  0  0  0
  158.3100  214.3560  151.4680 C   0  0  0  0  0  3  0  0  0  0  0  0
  158.9400  213.5910  152.4560 C   0  0  0  0  0  0  0  0  0  0  0  0
  157.9920  212.6700  155.7940 C   0  0  2  0  0  3  0  0  0  0  0  0
  159.0600  209.4880  155.5220 C   0  0  0  0  0  0  0  0  0  0  0  0
  158.6750  213.9450  153.8250 N   0  0  0  0  0  2  0  0  0  0  0  0
  157.6910  210.0780  155.7610 C   0  0  0  0  0  2  0  0  0  0  0  0
  159.3310  208.3270  156.1360 C   0  0  0  0  0  3  0  0  0  0  0  0
  161.7590  211.1200  152.5960 N   0  0  0  0  0  2  0  0  0  0  0  0
  158.3710  212.4480  157.2510 C   0  0  0  0  0  1  0  0  0  0  0  0
  162.0460  209.7460  153.0550 C   0  0  2  0  0  3  0  0  0  0  0  0
  159.7870  212.5200  152.0620 C   0  0  0  0  0  0  0  0  0  0  0  0
  157.4070  211.4310  155.0930 C   0  0  0  0  0  2  0  0  0  0  0  0
  160.6810  207.6750  156.0660 C   0  0  0  0  0  2  0  0  0  0  0  0
  158.4850  214.0670  150.1140 C   0  0  0  0  0  3  0  0  0  0  0  0
  159.9350  212.2280  150.6960 C   0  0  0  0  0  3  0  0  0  0  0  0
  161.6150  208.2040  149.5940 C   0  0  0  0  0  0  0  0  0  0  0  0
  161.7620  208.5640  148.2610 O   0  0  0  0  0  1  0  0  0  0  0  0
  161.7460  208.7530  151.9590 C   0  0  0  0  0  0  0  0  0  0  0  0
  161.1780  206.9170  149.9170 C   0  0  0  0  0  3  0  0  0  0  0  0
  161.3100  207.4580  152.2700 C   0  0  0  0  0  3  0  0  0  0  0  0
  161.9010  209.1250  150.6120 C   0  0  0  0  0  0  0  0  0  0  0  0
  162.3350  210.4050  150.2830 O   0  0  0  0  0  1  0  0  0  0  0  0
  161.0290  206.5400  151.2550 C   0  0  0  0  0  0  0  0  0  0  0  0
  160.8310  204.2170  150.4580 C   0  0  0  0  0  1  0  0  0  0  0  0
  160.5430  205.1760  151.5980 C   0  0  0  0  0  2  0  0  0  0  0  0
  1  4  1  0  0  0  0
  1  3  1  6  0  0  0
  3 20  1  0  0  0  0
  4  2  1  6  0  0  0
  4 11  1  0  0  0  0
  5 10  1  0  0  0  0
  6 21  2  0  0  0  0
  6 22  1  0  0  0  0
  7 18  1  6  0  0  0
  7  2  1  0  0  0  0
  8  9  2  0  0  0  0
  9 12  1  0  0  0  0
 10 16  1  1  0  0  0
 11 13  1  0  0  0  0
 11 14  2  0  0  0  0
 12  5  1  0  0  0  0
 15 17  1  0  0  0  0
 15  7  1  0  0  0  0
 17 25  1  6  0  0  0
 17  1  1  0  0  0  0
 18  9  1  0  0  0  0
 19 13  1  0  0  0  0
 19 10  1  0  0  0  0
 20 14  1  0  0  0  0
 21  8  1  0  0  0  0
 22 18  2  0  0  0  0
 23 26  2  0  0  0  0
 23 28  1  0  0  0  0
 24 23  1  0  0  0  0
 25 27  1  0  0  0  0
 26 30  1  0  0  0  0
 28 25  2  0  0  0  0
 29 28  1  0  0  0  0
 30 32  1  0  0  0  0
 30 27  2  0  0  0  0
 31 32  1  0  0  0  0
M  END
>  <MODEL>
3

>  <REMARK>
 VINA RESULT:      -4.9      1.515      1.964
  Name = 
  2 active torsions:
  status: ('A' for Active; 'I' for Inactive)
    1  A    between atoms: C_15  and  C_26
    2  A    between atoms: C_16  and  C_27
                            x       y       z     vdW  Elec       q    Type
                         _______ _______ _______ _____ _____    ______ ____

>  <TORSDO>
F 2

$$$$
=
 OpenBabel11062408263D

 32 36  0  0  1  0  0  0  0  0999 V2000
  158.9930  213.5520  139.7900 C   0  0  2  0  0  3  0  0  0  0  0  0
  159.1330  211.1570  139.9950 O   0  0  0  0  0  0  0  0  0  0  0  0
  158.2920  214.3650  140.8810 C   0  0  0  0  0  2  0  0  0  0  0  0
  158.3220  212.1860  139.5130 C   0  0  1  0  0  3  0  0  0  0  0  0
  158.4140  209.8640  137.2470 C   0  0  0  0  0  2  0  0  0  0  0  0
  162.6150  208.4070  140.1370 C   0  0  0  0  0  3  0  0  0  0  0  0
  160.1990  211.1320  139.0880 C   0  0  1  0  0  3  0  0  0  0  0  0
  161.0910  207.4650  138.5170 C   0  0  0  0  0  3  0  0  0  0  0  0
  160.4270  208.6900  138.3900 C   0  0  0  0  0  0  0  0  0  0  0  0
  157.0050  209.5440  137.7190 C   0  0  2  0  0  3  0  0  0  0  0  0
  156.8870  212.0320  139.9860 C   0  0  0  0  0  0  0  0  0  0  0  0
  159.2990  208.7320  137.4980 N   0  0  0  0  0  2  0  0  0  0  0  0
  156.1310  210.7300  139.8730 C   0  0  0  0  0  2  0  0  0  0  0  0
  156.2140  213.0780  140.4870 C   0  0  0  0  0  3  0  0  0  0  0  0
  161.1250  212.2660  139.2830 N   0  0  0  0  0  2  0  0  0  0  0  0
  155.9890  210.4280  137.0120 C   0  0  0  0  0  1  0  0  0  0  0  0
  160.5230  213.3920  140.0250 C   0  0  2  0  0  3  0  0  0  0  0  0
  160.8900  209.8050  139.1400 C   0  0  0  0  0  0  0  0  0  0  0  0
  156.8940  209.5510  139.2540 C   0  0  0  0  0  2  0  0  0  0  0  0
  156.8080  214.4530  140.5680 C   0  0  0  0  0  2  0  0  0  0  0  0
  162.1780  207.3220  139.3810 C   0  0  0  0  0  3  0  0  0  0  0  0
  161.9700  209.6390  140.0220 C   0  0  0  0  0  3  0  0  0  0  0  0
  162.6130  213.7940  143.1880 C   0  0  0  0  0  0  0  0  0  0  0  0
  163.8640  214.2640  143.5640 O   0  0  0  0  0  1  0  0  0  0  0  0
  160.9480  213.3540  141.4710 C   0  0  0  0  0  0  0  0  0  0  0  0
  161.7500  213.2750  144.1570 C   0  0  0  0  0  3  0  0  0  0  0  0
  160.0910  212.8390  142.4530 C   0  0  0  0  0  3  0  0  0  0  0  0
  162.2150  213.8350  141.8440 C   0  0  0  0  0  0  0  0  0  0  0  0
  163.0800  214.3530  140.8840 O   0  0  0  0  0  1  0  0  0  0  0  0
  160.4870  212.8020  143.7930 C   0  0  0  0  0  0  0  0  0  0  0  0
  160.1630  212.4310  146.2070 C   0  0  0  0  0  1  0  0  0  0  0  0
  159.5770  212.2300  144.8230 C   0  0  0  0  0  2  0  0  0  0  0  0
  1 17  1  0  0  0  0
  1  3  1  1  0  0  0
  4  1  1  0  0  0  0
  4 11  1  1  0  0  0
  4  2  1  0  0  0  0
  5 12  1  0  0  0  0
  5 10  1  0  0  0  0
  7 18  1  1  0  0  0
  7 15  1  0  0  0  0
  7  2  1  0  0  0  0
  8 21  1  0  0  0  0
  9  8  2  0  0  0  0
  9 18  1  0  0  0  0
 10 16  1  6  0  0  0
 10 19  1  0  0  0  0
 11 14  2  0  0  0  0
 12  9  1  0  0  0  0
 13 11  1  0  0  0  0
 14 20  1  0  0  0  0
 15 17  1  0  0  0  0
 17 25  1  1  0  0  0
 18 22  2  0  0  0  0
 19 13  1  0  0  0  0
 20  3  1  0  0  0  0
 21  6  2  0  0  0  0
 22  6  1  0  0  0  0
 23 24  1  0  0  0  0
 23 26  1  0  0  0  0
 25 28  1  0  0  0  0
 25 27  2  0  0  0  0
 27 30  1  0  0  0  0
 28 23  2  0  0  0  0
 29 28  1  0  0  0  0
 30 26  2  0  0  0  0
 30 32  1  0  0  0  0
 32 31  1  0  0  0  0
M  END
>  <MODEL>
4

>  <REMARK>
 VINA RESULT:      -4.0      9.687     13.494
  Name = 
  2 active torsions:
  status: ('A' for Active; 'I' for Inactive)
    1  A    between atoms: C_15  and  C_26
    2  A    between atoms: C_16  and  C_27
                            x       y       z     vdW  Elec       q    Type
                         _______ _______ _______ _____ _____    ______ ____

>  <TORSDO>
F 2

$$$$
=
 OpenBabel11062408263D

 32 36  0  0  1  0  0  0  0  0999 V2000
  161.6300  210.0470  152.8080 C   0  0  2  0  0  3  0  0  0  0  0  0
  160.0700  211.0860  151.2970 O   0  0  0  0  0  0  0  0  0  0  0  0
  161.2450  208.7460  153.5180 C   0  0  0  0  0  2  0  0  0  0  0  0
  160.4480  211.0300  152.6400 C   0  0  1  0  0  3  0  0  0  0  0  0
  159.9910  214.1520  151.8780 C   0  0  0  0  0  2  0  0  0  0  0  0
  160.3810  212.1250  146.9920 C   0  0  0  0  0  3  0  0  0  0  0  0
  161.1140  211.8010  150.6970 C   0  0  1  0  0  3  0  0  0  0  0  0
  159.5350  214.1020  148.0920 C   0  0  0  0  0  3  0  0  0  0  0  0
  159.9750  213.6310  149.3340 C   0  0  0  0  0  0  0  0  0  0  0  0
  158.7010  214.0100  152.6700 C   0  0  2  0  0  3  0  0  0  0  0  0
  159.2500  210.8050  153.5460 C   0  0  0  0  0  0  0  0  0  0  0  0
  159.6940  214.4530  150.4820 N   0  0  0  0  0  2  0  0  0  0  0  0
  157.9840  211.6210  153.4350 C   0  0  0  0  0  2  0  0  0  0  0  0
  159.2920  209.8880  154.5240 C   0  0  0  0  0  3  0  0  0  0  0  0
  162.3390  210.9890  150.5580 N   0  0  0  0  0  2  0  0  0  0  0  0
  158.9560  214.2360  154.1530 C   0  0  0  0  0  1  0  0  0  0  0  0
  162.3720  209.8200  151.4600 C   0  0  2  0  0  3  0  0  0  0  0  0
  160.6570  212.3860  149.3960 C   0  0  0  0  0  0  0  0  0  0  0  0
  157.9630  212.7000  152.3440 C   0  0  0  0  0  2  0  0  0  0  0  0
  160.5190  209.0740  154.8110 C   0  0  0  0  0  2  0  0  0  0  0  0
  159.7370  213.3580  146.9280 C   0  0  0  0  0  3  0  0  0  0  0  0
  160.8320  211.6390  148.2200 C   0  0  0  0  0  3  0  0  0  0  0  0
  161.7230  207.3590  148.6220 C   0  0  0  0  0  0  0  0  0  0  0  0
  161.8370  207.3010  147.2390 O   0  0  0  0  0  1  0  0  0  0  0  0
  161.9770  208.5700  150.7140 C   0  0  0  0  0  0  0  0  0  0  0  0
  161.2300  206.2540  149.3200 C   0  0  0  0  0  3  0  0  0  0  0  0
  161.4830  207.4540  151.4040 C   0  0  0  0  0  3  0  0  0  0  0  0
  162.0980  208.5190  149.3150 C   0  0  0  0  0  0  0  0  0  0  0  0
  162.5880  209.6160  148.6120 O   0  0  0  0  0  1  0  0  0  0  0  0
  161.1140  206.2980  150.7120 C   0  0  0  0  0  0  0  0  0  0  0  0
  161.2070  205.0360  152.8270 C   0  0  0  0  0  1  0  0  0  0  0  0
  160.5690  205.1270  151.4540 C   0  0  0  0  0  2  0  0  0  0  0  0
  1  3  1  6  0  0  0
  3 20  1  0  0  0  0
  4  2  1  6  0  0  0
  4  1  1  0  0  0  0
  4 11  1  0  0  0  0
  5 10  1  0  0  0  0
  6 22  1  0  0  0  0
  7 18  1  6  0  0  0
  7  2  1  0  0  0  0
  8  9  2  0  0  0  0
  9 18  1  0  0  0  0
  9 12  1  0  0  0  0
 10 16  1  1  0  0  0
 11 14  2  0  0  0  0
 12  5  1  0  0  0  0
 13 11  1  0  0  0  0
 14 20  1  0  0  0  0
 15  7  1  0  0  0  0
 15 17  1  0  0  0  0
 17 25  1  6  0  0  0
 17  1  1  0  0  0  0
 19 10  1  0  0  0  0
 19 13  1  0  0  0  0
 21  6  2  0  0  0  0
 21  8  1  0  0  0  0
 22 18  2  0  0  0  0
 23 28  2  0  0  0  0
 23 26  1  0  0  0  0
 24 23  1  0  0  0  0
 25 27  2  0  0  0  0
 26 30  2  0  0  0  0
 28 25  1  0  0  0  0
 29 28  1  0  0  0  0
 30 27  1  0  0  0  0
 30 32  1  0  0  0  0
 32 31  1  0  0  0  0
M  END
>  <MODEL>
5

>  <REMARK>
 VINA RESULT:      -3.9      2.041      2.862
  Name = 
  2 active torsions:
  status: ('A' for Active; 'I' for Inactive)
    1  A    between atoms: C_15  and  C_26
    2  A    between atoms: C_16  and  C_27
                            x       y       z     vdW  Elec       q    Type
                         _______ _______ _______ _____ _____    ______ ____

>  <TORSDO>
F 2

$$$$
=
 OpenBabel11062408263D

 32 36  0  0  1  0  0  0  0  0999 V2000
  160.8980  209.8550  154.0100 C   0  0  2  0  0  3  0  0  0  0  0  0
  159.9590  210.8030  152.0070 O   0  0  0  0  0  0  0  0  0  0  0  0
  160.1580  208.7260  154.7320 C   0  0  0  0  0  2  0  0  0  0  0  0
  159.9540  210.9160  153.3980 C   0  0  1  0  0  3  0  0  0  0  0  0
  160.1620  213.9140  152.1700 C   0  0  0  0  0  2  0  0  0  0  0  0
  161.5460  211.1300  147.8730 C   0  0  0  0  0  3  0  0  0  0  0  0
  161.2140  211.3070  151.6450 C   0  0  1  0  0  3  0  0  0  0  0  0
  160.7260  213.3290  148.4450 C   0  0  0  0  0  3  0  0  0  0  0  0
  160.7490  213.0120  149.8070 C   0  0  0  0  0  0  0  0  0  0  0  0
  158.7020  214.0290  152.5760 C   0  0  2  0  0  3  0  0  0  0  0  0
  158.5390  210.9580  153.9480 C   0  0  0  0  0  0  0  0  0  0  0  0
  160.2920  214.0250  150.7220 N   0  0  0  0  0  2  0  0  0  0  0  0
  157.4760  211.8720  153.3870 C   0  0  0  0  0  2  0  0  0  0  0  0
  158.1900  210.2040  155.0010 C   0  0  0  0  0  3  0  0  0  0  0  0
  162.3050  210.3610  151.9570 N   0  0  0  0  0  2  0  0  0  0  0  0
  158.5820  214.4530  154.0320 C   0  0  0  0  0  1  0  0  0  0  0  0
  161.9320  209.3480  152.9650 C   0  0  2  0  0  3  0  0  0  0  0  0
  161.2070  211.7280  150.2080 C   0  0  0  0  0  0  0  0  0  0  0  0
  157.8990  212.7670  152.2140 C   0  0  0  0  0  2  0  0  0  0  0  0
  159.1690  209.3220  155.7180 C   0  0  0  0  0  2  0  0  0  0  0  0
  161.1220  212.3980  147.4830 C   0  0  0  0  0  3  0  0  0  0  0  0
  161.5810  210.7950  149.2270 C   0  0  0  0  0  3  0  0  0  0  0  0
  161.2300  205.6420  152.4080 C   0  0  0  0  0  0  0  0  0  0  0  0
  161.2080  204.4590  153.1350 O   0  0  0  0  0  1  0  0  0  0  0  0
  161.5760  208.0460  152.2920 C   0  0  0  0  0  0  0  0  0  0  0  0
  160.9290  205.6190  151.0440 C   0  0  0  0  0  3  0  0  0  0  0  0
  161.2700  208.0100  150.9240 C   0  0  0  0  0  3  0  0  0  0  0  0
  161.5530  206.8540  153.0360 C   0  0  0  0  0  0  0  0  0  0  0  0
  161.8520  206.8690  154.3950 O   0  0  0  0  0  1  0  0  0  0  0  0
  160.9440  206.8030  150.3010 C   0  0  0  0  0  0  0  0  0  0  0  0
  161.8950  207.0900  148.0460 C   0  0  0  0  0  1  0  0  0  0  0  0
  160.6440  206.7740  148.8430 C   0  0  0  0  0  2  0  0  0  0  0  0
  1  3  1  6  0  0  0
  3 20  1  0  0  0  0
  4  2  1  6  0  0  0
  4 11  1  0  0  0  0
  4  1  1  0  0  0  0
  5 10  1  0  0  0  0
  6 22  1  0  0  0  0
  7 18  1  6  0  0  0
  7 15  1  0  0  0  0
  7  2  1  0  0  0  0
  8  9  2  0  0  0  0
  9 18  1  0  0  0  0
  9 12  1  0  0  0  0
 10 16  1  1  0  0  0
 11 14  2  0  0  0  0
 12  5  1  0  0  0  0
 13 11  1  0  0  0  0
 14 20  1  0  0  0  0
 15 17  1  0  0  0  0
 17 25  1  6  0  0  0
 17  1  1  0  0  0  0
 19 10  1  0  0  0  0
 19 13  1  0  0  0  0
 21  6  2  0  0  0  0
 21  8  1  0  0  0  0
 22 18  2  0  0  0  0
 23 28  1  0  0  0  0
 23 24  1  0  0  0  0
 25 28  2  0  0  0  0
 26 23  2  0  0  0  0
 27 25  1  0  0  0  0
 28 29  1  0  0  0  0
 30 27  2  0  0  0  0
 30 26  1  0  0  0  0
 31 32  1  0  0  0  0
 32 30  1  0  0  0  0
M  END
>  <MODEL>
6

>  <REMARK>
 VINA RESULT:      -3.9      2.359      3.684
  Name = 
  2 active torsions:
  status: ('A' for Active; 'I' for Inactive)
    1  A    between atoms: C_15  and  C_26
    2  A    between atoms: C_16  and  C_27
                            x       y       z     vdW  Elec       q    Type
                         _______ _______ _______ _____ _____    ______ ____

>  <TORSDO>
F 2

$$$$
=
 OpenBabel11062408263D

 32 36  0  0  1  0  0  0  0  0999 V2000
  162.7530  208.0650  150.1590 C   0  0  2  0  0  3  0  0  0  0  0  0
  161.1660  206.3030  149.7390 O   0  0  0  0  0  0  0  0  0  0  0  0
  162.2740  209.5180  150.2130 C   0  0  0  0  0  2  0  0  0  0  0  0
  162.0130  207.2110  149.1020 C   0  0  1  0  0  3  0  0  0  0  0  0
  162.3730  204.3380  147.6360 C   0  0  0  0  0  2  0  0  0  0  0  0
  160.0310  202.7280  152.1130 C   0  0  0  0  0  3  0  0  0  0  0  0
  162.0490  205.3640  150.2860 C   0  0  1  0  0  3  0  0  0  0  0  0
  160.4300  201.9340  149.8670 C   0  0  0  0  0  3  0  0  0  0  0  0
  161.1480  203.0930  149.5560 C   0  0  0  0  0  0  0  0  0  0  0  0
  161.5530  204.9640  146.5190 C   0  0  2  0  0  3  0  0  0  0  0  0
  161.2890  207.9740  148.0070 C   0  0  0  0  0  0  0  0  0  0  0  0
  161.6550  203.2080  148.2140 N   0  0  0  0  0  2  0  0  0  0  0  0
  160.4460  207.2870  146.9590 C   0  0  0  0  0  2  0  0  0  0  0  0
  161.4120  209.3060  147.9010 C   0  0  0  0  0  3  0  0  0  0  0  0
  162.7580  205.8890  151.4700 N   0  0  0  0  0  2  0  0  0  0  0  0
  162.4480  205.7490  145.5720 C   0  0  0  0  0  1  0  0  0  0  0  0
  162.7570  207.3640  151.5480 C   0  0  2  0  0  3  0  0  0  0  0  0
  161.3310  204.0800  150.5620 C   0  0  0  0  0  0  0  0  0  0  0  0
  160.3500  205.7580  147.0600 C   0  0  0  0  0  2  0  0  0  0  0  0
  162.2950  210.1060  148.8130 C   0  0  0  0  0  2  0  0  0  0  0  0
  159.8760  201.7480  151.1350 C   0  0  0  0  0  3  0  0  0  0  0  0
  160.7480  203.8900  151.8260 C   0  0  0  0  0  3  0  0  0  0  0  0
  160.4070  207.5220  154.5460 C   0  0  0  0  0  0  0  0  0  0  0  0
  160.1070  206.7830  155.6820 O   0  0  0  0  0  1  0  0  0  0  0  0
  161.6950  207.8380  152.5080 C   0  0  0  0  0  0  0  0  0  0  0  0
  159.7120  208.7070  154.2900 C   0  0  0  0  0  3  0  0  0  0  0  0
  160.9930  209.0260  152.2640 C   0  0  0  0  0  3  0  0  0  0  0  0
  161.4000  207.0840  153.6570 C   0  0  0  0  0  0  0  0  0  0  0  0
  162.0870  205.9030  153.9190 O   0  0  0  0  0  1  0  0  0  0  0  0
  160.0070  209.4630  153.1530 C   0  0  0  0  0  0  0  0  0  0  0  0
  160.1850  211.7760  152.3210 C   0  0  0  0  0  1  0  0  0  0  0  0
  159.2510  210.7140  152.8700 C   0  0  0  0  0  2  0  0  0  0  0  0
  1  3  1  1  0  0  0
  1 17  1  0  0  0  0
  4 11  1  6  0  0  0
  4  2  1  0  0  0  0
  4  1  1  0  0  0  0
  5 12  1  0  0  0  0
  7  2  1  1  0  0  0
  7 18  1  0  0  0  0
  7 15  1  0  0  0  0
  8 21  1  0  0  0  0
  9  8  2  0  0  0  0
  9 18  1  0  0  0  0
 10 16  1  1  0  0  0
 10 19  1  0  0  0  0
 10  5  1  0  0  0  0
 12  9  1  0  0  0  0
 13 19  1  0  0  0  0
 13 11  1  0  0  0  0
 14 11  2  0  0  0  0
 14 20  1  0  0  0  0
 15 17  1  0  0  0  0
 17 25  1  1  0  0  0
 18 22  2  0  0  0  0
 20  3  1  0  0  0  0
 21  6  2  0  0  0  0
 22  6  1  0  0  0  0
 23 24  1  0  0  0  0
 25 28  1  0  0  0  0
 26 23  1  0  0  0  0
 27 25  2  0  0  0  0
 27 30  1  0  0  0  0
 28 29  1  0  0  0  0
 28 23  2  0  0  0  0
 30 26  2  0  0  0  0
 31 32  1  0  0  0  0
 32 30  1  0  0  0  0
M  END
>  <MODEL>
7

>  <REMARK>
 VINA RESULT:      -3.2      3.957      8.786
  Name = 
  2 active torsions:
  status: ('A' for Active; 'I' for Inactive)
    1  A    between atoms: C_15  and  C_26
    2  A    between atoms: C_16  and  C_27
                            x       y       z     vdW  Elec       q    Type
                         _______ _______ _______ _____ _____    ______ ____

>  <TORSDO>
F 2

$$$$
