=
 OpenBabel11052422323D

 31 36  0  0  1  0  0  0  0  0999 V2000
  161.8400  210.4830  149.5890 C   0  0  0  0  0  0  0  0  0  0  0  0
  161.2670  208.1920  152.5440 C   0  0  0  0  0  0  0  0  0  0  0  0
  161.0990  208.9750  153.6550 C   0  0  0  0  0  0  0  0  0  0  0  0
  161.2580  211.4120  154.4190 C   0  0  0  0  0  3  0  0  0  0  0  0
  161.6210  208.7220  151.1940 C   0  0  0  0  0  0  0  0  0  0  0  0
  162.1590  209.6710  148.6290 N   0  0  0  0  0  0  0  0  0  0  0  0
  161.4050  210.4190  153.5510 C   0  0  0  0  0  3  0  0  0  0  0  0
  161.2920  205.9180  151.4780 C   0  0  0  0  0  0  0  0  0  0  0  0
  161.9470  212.2120  149.3390 Cl  0  0  0  0  0  0  0  0  0  0  0  0
  160.5840  206.8500  154.9710 C   0  0  0  0  0  3  0  0  0  0  0  0
  160.7320  211.3730  155.7780 C   0  0  0  0  0  3  0  0  0  0  0  0
  161.7670  206.4090  150.3710 N   0  0  0  0  0  0  0  0  0  0  0  0
  161.1290  206.7540  152.6400 N   0  0  0  0  0  0  0  0  0  0  0  0
  160.8780  204.5410  151.5370 N   0  0  0  0  0  2  0  0  0  0  0  0
  161.4620  209.9740  150.8730 N   0  0  0  0  0  0  0  0  0  0  0  0
  160.3690  210.3100  156.4810 C   0  0  0  0  0  3  0  0  0  0  0  0
  162.2620  207.7740  150.2110 C   0  0  1  0  0  3  0  0  0  0  0  0
  162.0070  208.2240  148.7710 C   0  0  0  0  0  2  0  0  0  0  0  0
  160.7890  206.1270  153.8810 C   0  0  0  0  0  3  0  0  0  0  0  0
  160.7020  208.3090  154.9360 C   0  0  0  0  0  0  0  0  0  0  0  0
  160.3980  208.9010  156.0910 C   0  0  0  0  0  3  0  0  0  0  0  0
  160.6310  201.2830  146.0460 N   0  0  0  0  0  2  0  0  0  0  0  0
  161.0740  203.0580  148.1260 C   0  0  0  0  0  0  0  0  0  0  0  0
  161.0530  201.2450  149.7340 C   0  0  0  0  0  3  0  0  0  0  0  0
  160.9830  202.1770  150.7740 C   0  0  0  0  0  3  0  0  0  0  0  0
  161.3260  202.5370  145.7440 C   0  0  0  0  0  2  0  0  0  0  0  0
  160.9540  203.5550  150.4980 C   0  0  0  0  0  0  0  0  0  0  0  0
  161.1120  203.4790  146.7960 O   0  0  0  0  0  0  0  0  0  0  0  0
  161.0860  201.6860  148.4100 C   0  0  0  0  0  0  0  0  0  0  0  0
  161.0000  203.9880  149.1670 C   0  0  0  0  0  3  0  0  0  0  0  0
  161.1980  200.7140  147.2720 C   0  0  0  0  0  2  0  0  0  0  0  0
  1 15  1  0  0  0  0
  2 13  1  0  0  0  0
  2  3  2  0  0  0  0
  3 20  1  0  0  0  0
  4 11  1  0  0  0  0
  5  2  1  0  0  0  0
  6 18  1  0  0  0  0
  6  1  2  0  0  0  0
  7  3  1  0  0  0  0
  7  4  2  0  0  0  0
  8 14  1  0  0  0  0
  8 13  1  0  0  0  0
  9  1  1  0  0  0  0
 11 16  2  0  0  0  0
 12  8  2  0  0  0  0
 13 19  1  0  0  0  0
 15  5  2  0  0  0  0
 17 18  1  6  0  0  0
 17 12  1  0  0  0  0
 17  5  1  0  0  0  0
 19 10  2  0  0  0  0
 20 10  1  0  0  0  0
 20 21  2  0  0  0  0
 21 16  1  0  0  0  0
 22 31  1  0  0  0  0
 23 29  2  0  0  0  0
 23 30  1  0  0  0  0
 24 25  2  0  0  0  0
 26 22  1  0  0  0  0
 26 28  1  0  0  0  0
 27 25  1  0  0  0  0
 27 14  1  0  0  0  0
 28 23  1  0  0  0  0
 29 24  1  0  0  0  0
 30 27  2  0  0  0  0
 31 29  1  0  0  0  0
M  END
>  <MODEL>
1

>  <REMARK>
 VINA RESULT:     -11.1      0.000      0.000
  Name = 
  1 active torsions:
  status: ('A' for Active; 'I' for Inactive)
    1  A    between atoms: C_9  and  N_23
                            x       y       z     vdW  Elec       q    Type
                         _______ _______ _______ _____ _____    ______ ____

>  <TORSDO>
F 1

$$$$
=
 OpenBabel11052422323D

 31 36  0  0  1  0  0  0  0  0999 V2000
  160.8560  201.8560  150.5660 C   0  0  0  0  0  0  0  0  0  0  0  0
  161.2590  205.2950  149.0430 C   0  0  0  0  0  0  0  0  0  0  0  0
  161.2790  205.1500  147.6810 C   0  0  0  0  0  0  0  0  0  0  0  0
  161.3540  203.3450  145.8690 C   0  0  0  0  0  3  0  0  0  0  0  0
  161.2190  204.1540  150.0040 C   0  0  0  0  0  0  0  0  0  0  0  0
  161.0210  202.0620  151.8360 N   0  0  0  0  0  0  0  0  0  0  0  0
  161.3940  203.7860  147.1200 C   0  0  0  0  0  3  0  0  0  0  0  0
  161.2700  206.7850  151.0650 C   0  0  0  0  0  0  0  0  0  0  0  0
  160.7140  200.2200  149.9610 Cl  0  0  0  0  0  0  0  0  0  0  0  0
  161.3260  207.6950  147.4960 C   0  0  0  0  0  3  0  0  0  0  0  0
  161.1770  204.1010  144.6350 C   0  0  0  0  0  3  0  0  0  0  0  0
  161.4110  205.7610  151.8550 N   0  0  0  0  0  0  0  0  0  0  0  0
  161.3030  206.6150  149.6340 N   0  0  0  0  0  0  0  0  0  0  0  0
  161.0330  208.0930  151.6150 N   0  0  0  0  0  2  0  0  0  0  0  0
  160.8540  202.9550  149.6470 N   0  0  0  0  0  0  0  0  0  0  0  0
  161.1100  205.4150  144.4870 C   0  0  0  0  0  3  0  0  0  0  0  0
  161.7030  204.4010  151.4110 C   0  0  1  0  0  3  0  0  0  0  0  0
  161.0630  203.4150  152.3910 C   0  0  0  0  0  2  0  0  0  0  0  0
  161.3400  207.7900  148.8160 C   0  0  0  0  0  3  0  0  0  0  0  0
  161.2740  206.3880  146.8380 C   0  0  0  0  0  0  0  0  0  0  0  0
  161.1950  206.4570  145.5090 C   0  0  0  0  0  3  0  0  0  0  0  0
  161.3190  211.0720  157.2610 N   0  0  0  0  0  2  0  0  0  0  0  0
  160.8630  210.2300  154.6610 C   0  0  0  0  0  0  0  0  0  0  0  0
  160.8620  207.9110  155.3670 C   0  0  0  0  0  3  0  0  0  0  0  0
  160.9250  207.5110  154.0290 C   0  0  0  0  0  3  0  0  0  0  0  0
  160.6310  211.9910  156.3500 C   0  0  0  0  0  2  0  0  0  0  0  0
  160.9620  208.4660  152.9980 C   0  0  0  0  0  0  0  0  0  0  0  0
  160.8390  211.5850  154.9970 O   0  0  0  0  0  0  0  0  0  0  0  0
  160.8430  209.2710  155.6820 C   0  0  0  0  0  0  0  0  0  0  0  0
  160.9300  209.8270  153.3240 C   0  0  0  0  0  3  0  0  0  0  0  0
  160.7380  209.7350  157.1060 C   0  0  0  0  0  2  0  0  0  0  0  0
  1  6  2  0  0  0  0
  2 13  1  0  0  0  0
  2  5  1  0  0  0  0
  3  2  2  0  0  0  0
  4  7  2  0  0  0  0
  5 17  1  0  0  0  0
  6 18  1  0  0  0  0
  7  3  1  0  0  0  0
  8 14  1  0  0  0  0
  8 12  2  0  0  0  0
  9  1  1  0  0  0  0
 10 19  2  0  0  0  0
 11  4  1  0  0  0  0
 13  8  1  0  0  0  0
 14 27  1  0  0  0  0
 15  5  2  0  0  0  0
 15  1  1  0  0  0  0
 16 11  2  0  0  0  0
 16 21  1  0  0  0  0
 17 12  1  0  0  0  0
 17 18  1  1  0  0  0
 19 13  1  0  0  0  0
 20 10  1  0  0  0  0
 20  3  1  0  0  0  0
 21 20  2  0  0  0  0
 23 28  1  0  0  0  0
 23 29  1  0  0  0  0
 24 29  2  0  0  0  0
 25 24  1  0  0  0  0
 26 22  1  0  0  0  0
 27 30  1  0  0  0  0
 27 25  2  0  0  0  0
 28 26  1  0  0  0  0
 29 31  1  0  0  0  0
 30 23  2  0  0  0  0
 31 22  1  0  0  0  0
M  END
>  <MODEL>
2

>  <REMARK>
 VINA RESULT:      -9.8      3.578      8.967
  Name = 
  1 active torsions:
  status: ('A' for Active; 'I' for Inactive)
    1  A    between atoms: C_9  and  N_23
                            x       y       z     vdW  Elec       q    Type
                         _______ _______ _______ _____ _____    ______ ____

>  <TORSDO>
F 1

$$$$
=
 OpenBabel11052422323D

 31 36  0  0  1  0  0  0  0  0999 V2000
  161.1060  212.3360  150.4200 C   0  0  0  0  0  0  0  0  0  0  0  0
  160.9430  209.3160  152.6910 C   0  0  0  0  0  0  0  0  0  0  0  0
  160.7280  209.7620  153.9680 C   0  0  0  0  0  0  0  0  0  0  0  0
  160.6230  211.9250  155.3320 C   0  0  0  0  0  3  0  0  0  0  0  0
  161.1720  210.2110  151.5200 C   0  0  0  0  0  0  0  0  0  0  0  0
  161.4810  211.8420  149.2800 N   0  0  0  0  0  0  0  0  0  0  0  0
  160.8520  211.2120  154.2360 C   0  0  0  0  0  3  0  0  0  0  0  0
  161.1970  207.4090  151.0760 C   0  0  0  0  0  0  0  0  0  0  0  0
  160.9930  214.0700  150.6220 Cl  0  0  0  0  0  0  0  0  0  0  0  0
  160.5310  207.3250  154.6980 C   0  0  0  0  0  3  0  0  0  0  0  0
  160.1640  211.4750  156.6400 C   0  0  0  0  0  3  0  0  0  0  0  0
  161.5620  208.2220  150.1280 N   0  0  0  0  0  0  0  0  0  0  0  0
  160.9840  207.8950  152.4160 N   0  0  0  0  0  0  0  0  0  0  0  0
  160.9560  206.0210  150.7830 N   0  0  0  0  0  2  0  0  0  0  0  0
  160.8480  211.4730  151.5340 N   0  0  0  0  0  0  0  0  0  0  0  0
  159.9630  210.2310  157.0500 C   0  0  0  0  0  3  0  0  0  0  0  0
  161.8810  209.6340  150.3190 C   0  0  1  0  0  3  0  0  0  0  0  0
  161.5120  210.3990  149.0470 C   0  0  0  0  0  2  0  0  0  0  0  0
  160.7760  206.9350  153.4570 C   0  0  0  0  0  3  0  0  0  0  0  0
  160.4690  208.7480  155.0380 C   0  0  0  0  0  0  0  0  0  0  0  0
  160.1450  208.9830  156.3100 C   0  0  0  0  0  3  0  0  0  0  0  0
  160.8450  204.2450  144.6460 N   0  0  0  0  0  2  0  0  0  0  0  0
  161.1590  205.4870  147.1030 C   0  0  0  0  0  0  0  0  0  0  0  0
  161.4750  203.3450  148.1920 C   0  0  0  0  0  3  0  0  0  0  0  0
  161.3380  203.9660  149.4370 C   0  0  0  0  0  3  0  0  0  0  0  0
  161.3460  205.6220  144.6620 C   0  0  0  0  0  2  0  0  0  0  0  0
  161.1060  205.3490  149.5240 C   0  0  0  0  0  0  0  0  0  0  0  0
  161.0650  206.2290  145.9240 O   0  0  0  0  0  0  0  0  0  0  0  0
  161.3730  204.1040  147.0250 C   0  0  0  0  0  0  0  0  0  0  0  0
  161.0190  206.1040  148.3490 C   0  0  0  0  0  3  0  0  0  0  0  0
  161.5520  203.4760  145.6740 C   0  0  0  0  0  2  0  0  0  0  0  0
  1  9  1  0  0  0  0
  1 15  1  0  0  0  0
  2  3  2  0  0  0  0
  3  7  1  0  0  0  0
  3 20  1  0  0  0  0
  4 11  1  0  0  0  0
  5 15  2  0  0  0  0
  5  2  1  0  0  0  0
  6  1  2  0  0  0  0
  7  4  2  0  0  0  0
  8 13  1  0  0  0  0
 10 20  1  0  0  0  0
 11 16  2  0  0  0  0
 12 17  1  0  0  0  0
 12  8  2  0  0  0  0
 13  2  1  0  0  0  0
 13 19  1  0  0  0  0
 14  8  1  0  0  0  0
 17 18  1  6  0  0  0
 17  5  1  0  0  0  0
 18  6  1  0  0  0  0
 19 10  2  0  0  0  0
 20 21  2  0  0  0  0
 21 16  1  0  0  0  0
 22 26  1  0  0  0  0
 22 31  1  0  0  0  0
 23 30  1  0  0  0  0
 24 25  2  0  0  0  0
 25 27  1  0  0  0  0
 26 28  1  0  0  0  0
 27 14  1  0  0  0  0
 28 23  1  0  0  0  0
 29 23  2  0  0  0  0
 29 24  1  0  0  0  0
 30 27  2  0  0  0  0
 31 29  1  0  0  0  0
M  END
>  <MODEL>
3

>  <REMARK>
 VINA RESULT:      -9.0      1.648      2.008
  Name = 
  1 active torsions:
  status: ('A' for Active; 'I' for Inactive)
    1  A    between atoms: C_9  and  N_23
                            x       y       z     vdW  Elec       q    Type
                         _______ _______ _______ _____ _____    ______ ____

>  <TORSDO>
F 1

$$$$
=
 OpenBabel11052422323D

 31 36  0  0  1  0  0  0  0  0999 V2000
  161.9530  206.5730  146.7760 C   0  0  0  0  0  0  0  0  0  0  0  0
  161.1250  204.5690  149.8750 C   0  0  0  0  0  0  0  0  0  0  0  0
  161.1170  203.2450  149.5290 C   0  0  0  0  0  0  0  0  0  0  0  0
  161.2570  201.7200  147.4780 C   0  0  0  0  0  3  0  0  0  0  0  0
  161.3080  205.6860  148.9030 C   0  0  0  0  0  0  0  0  0  0  0  0
  161.7690  207.8020  147.1480 N   0  0  0  0  0  0  0  0  0  0  0  0
  161.1680  202.8930  148.0930 C   0  0  0  0  0  3  0  0  0  0  0  0
  160.9380  206.3500  151.6380 C   0  0  0  0  0  0  0  0  0  0  0  0
  162.2920  206.2120  145.0980 Cl  0  0  0  0  0  0  0  0  0  0  0  0
  160.7570  202.6870  151.9930 C   0  0  0  0  0  3  0  0  0  0  0  0
  161.3360  200.3840  148.0580 C   0  0  0  0  0  3  0  0  0  0  0  0
  160.9270  207.2850  150.7330 N   0  0  0  0  0  0  0  0  0  0  0  0
  160.9210  204.9610  151.2540 N   0  0  0  0  0  0  0  0  0  0  0  0
  161.0150  206.6950  153.0320 N   0  0  0  0  0  2  0  0  0  0  0  0
  161.8160  205.5030  147.7180 N   0  0  0  0  0  0  0  0  0  0  0  0
  161.2410  200.0430  149.3340 C   0  0  0  0  0  3  0  0  0  0  0  0
  160.8020  207.0530  149.2970 C   0  0  1  0  0  3  0  0  0  0  0  0
  161.5620  208.1520  148.5520 C   0  0  0  0  0  2  0  0  0  0  0  0
  160.7370  203.9790  152.2810 C   0  0  0  0  0  3  0  0  0  0  0  0
  160.9670  202.2290  150.6180 C   0  0  0  0  0  0  0  0  0  0  0  0
  161.0320  200.9030  150.4990 C   0  0  0  0  0  3  0  0  0  0  0  0
  159.8430  212.0680  156.2860 N   0  0  0  0  0  2  0  0  0  0  0  0
  160.3470  209.4920  155.3990 C   0  0  0  0  0  0  0  0  0  0  0  0
  161.7530  210.3370  153.6140 C   0  0  0  0  0  3  0  0  0  0  0  0
  161.7510  209.0700  153.0230 C   0  0  0  0  0  3  0  0  0  0  0  0
  159.7620  210.9770  157.2600 C   0  0  0  0  0  2  0  0  0  0  0  0
  161.0440  208.0070  153.6120 C   0  0  0  0  0  0  0  0  0  0  0  0
  159.6440  209.7250  156.5830 O   0  0  0  0  0  0  0  0  0  0  0  0
  161.0400  210.5500  154.7960 C   0  0  0  0  0  0  0  0  0  0  0  0
  160.3440  208.2280  154.8030 C   0  0  0  0  0  3  0  0  0  0  0  0
  161.0510  211.8870  155.4770 C   0  0  0  0  0  2  0  0  0  0  0  0
  1  6  2  0  0  0  0
  1 15  1  0  0  0  0
  2 13  1  0  0  0  0
  3  2  2  0  0  0  0
  3 20  1  0  0  0  0
  4 11  1  0  0  0  0
  4  7  2  0  0  0  0
  5 17  1  0  0  0  0
  5  2  1  0  0  0  0
  6 18  1  0  0  0  0
  7  3  1  0  0  0  0
  8 14  1  0  0  0  0
  9  1  1  0  0  0  0
 10 19  2  0  0  0  0
 11 16  2  0  0  0  0
 12  8  2  0  0  0  0
 13  8  1  0  0  0  0
 13 19  1  0  0  0  0
 14 27  1  0  0  0  0
 15  5  2  0  0  0  0
 16 21  1  0  0  0  0
 17 18  1  6  0  0  0
 17 12  1  0  0  0  0
 20 10  1  0  0  0  0
 21 20  2  0  0  0  0
 22 26  1  0  0  0  0
 23 28  1  0  0  0  0
 24 29  1  0  0  0  0
 25 27  1  0  0  0  0
 25 24  2  0  0  0  0
 27 30  2  0  0  0  0
 28 26  1  0  0  0  0
 29 23  2  0  0  0  0
 29 31  1  0  0  0  0
 30 23  1  0  0  0  0
 31 22  1  0  0  0  0
M  END
>  <MODEL>
4

>  <REMARK>
 VINA RESULT:      -8.4      2.968      8.366
  Name = 
  1 active torsions:
  status: ('A' for Active; 'I' for Inactive)
    1  A    between atoms: C_9  and  N_23
                            x       y       z     vdW  Elec       q    Type
                         _______ _______ _______ _____ _____    ______ ____

>  <TORSDO>
F 1

$$$$
=
 OpenBabel11052422323D

 31 36  0  0  1  0  0  0  0  0999 V2000
  161.1320  206.2050  145.8580 C   0  0  0  0  0  0  0  0  0  0  0  0
  161.0100  203.7290  148.7150 C   0  0  0  0  0  0  0  0  0  0  0  0
  161.0730  202.4700  148.1810 C   0  0  0  0  0  0  0  0  0  0  0  0
  161.0260  201.2540  145.9290 C   0  0  0  0  0  3  0  0  0  0  0  0
  160.9260  204.9780  147.9020 C   0  0  0  0  0  0  0  0  0  0  0  0
  160.8940  207.3450  146.4300 N   0  0  0  0  0  0  0  0  0  0  0  0
  160.9260  202.3180  146.7170 C   0  0  0  0  0  3  0  0  0  0  0  0
  160.9400  205.2290  150.7290 C   0  0  0  0  0  0  0  0  0  0  0  0
  161.2300  206.1110  144.1130 Cl  0  0  0  0  0  0  0  0  0  0  0  0
  161.1700  201.5560  150.5620 C   0  0  0  0  0  3  0  0  0  0  0  0
  161.3240  199.8730  146.2870 C   0  0  0  0  0  3  0  0  0  0  0  0
  160.6940  206.2670  149.9830 N   0  0  0  0  0  0  0  0  0  0  0  0
  160.9940  203.9100  150.1510 N   0  0  0  0  0  0  0  0  0  0  0  0
  161.2070  205.3950  152.1330 N   0  0  0  0  0  2  0  0  0  0  0  0
  161.2520  205.0120  146.6410 N   0  0  0  0  0  0  0  0  0  0  0  0
  161.4690  199.3580  147.4990 C   0  0  0  0  0  3  0  0  0  0  0  0
  160.3620  206.2120  148.5630 C   0  0  1  0  0  3  0  0  0  0  0  0
  160.8840  207.4810  147.8860 C   0  0  0  0  0  2  0  0  0  0  0  0
  161.0730  202.7880  151.0370 C   0  0  0  0  0  3  0  0  0  0  0  0
  161.1980  201.3090  149.1190 C   0  0  0  0  0  0  0  0  0  0  0  0
  161.3700  200.0270  148.7960 C   0  0  0  0  0  3  0  0  0  0  0  0
  160.2080  210.0480  156.3970 N   0  0  0  0  0  2  0  0  0  0  0  0
  160.8170  207.7290  155.0090 C   0  0  0  0  0  0  0  0  0  0  0  0
  161.5380  209.0180  153.0870 C   0  0  0  0  0  3  0  0  0  0  0  0
  161.5580  207.8490  152.3200 C   0  0  0  0  0  3  0  0  0  0  0  0
  160.5590  208.8550  157.1720 C   0  0  0  0  0  2  0  0  0  0  0  0
  161.2040  206.6140  152.8900 C   0  0  0  0  0  0  0  0  0  0  0  0
  160.4420  207.6900  156.3540 O   0  0  0  0  0  0  0  0  0  0  0  0
  161.1560  208.9580  154.4290 C   0  0  0  0  0  0  0  0  0  0  0  0
  160.8340  206.5630  154.2390 C   0  0  0  0  0  3  0  0  0  0  0  0
  161.1590  210.1870  155.2910 C   0  0  0  0  0  2  0  0  0  0  0  0
  1  6  2  0  0  0  0
  1 15  1  0  0  0  0
  2 13  1  0  0  0  0
  3  2  2  0  0  0  0
  3 20  1  0  0  0  0
  4 11  1  0  0  0  0
  4  7  2  0  0  0  0
  5 17  1  0  0  0  0
  5  2  1  0  0  0  0
  6 18  1  0  0  0  0
  7  3  1  0  0  0  0
  8 14  1  0  0  0  0
  9  1  1  0  0  0  0
 10 19  2  0  0  0  0
 11 16  2  0  0  0  0
 12  8  2  0  0  0  0
 13  8  1  0  0  0  0
 13 19  1  0  0  0  0
 14 27  1  0  0  0  0
 15  5  2  0  0  0  0
 16 21  1  0  0  0  0
 17 18  1  6  0  0  0
 17 12  1  0  0  0  0
 20 10  1  0  0  0  0
 21 20  2  0  0  0  0
 22 26  1  0  0  0  0
 23 28  1  0  0  0  0
 24 29  2  0  0  0  0
 25 27  2  0  0  0  0
 25 24  1  0  0  0  0
 27 30  1  0  0  0  0
 28 26  1  0  0  0  0
 29 23  1  0  0  0  0
 29 31  1  0  0  0  0
 30 23  2  0  0  0  0
 31 22  1  0  0  0  0
M  END
>  <MODEL>
5

>  <REMARK>
 VINA RESULT:      -8.4      2.976      8.502
  Name = 
  1 active torsions:
  status: ('A' for Active; 'I' for Inactive)
    1  A    between atoms: C_9  and  N_23
                            x       y       z     vdW  Elec       q    Type
                         _______ _______ _______ _____ _____    ______ ____

>  <TORSDO>
F 1

$$$$
