=
 OpenBabel11062409203D

 37 37  0  0  1  0  0  0  0  0999 V2000
  161.2840  208.3410  152.7590 C   0  0  2  0  0  3  0  0  0  0  0  0
  161.4250  206.8280  152.9680 C   0  0  1  0  0  3  0  0  0  0  0  0
  160.8660  206.4380  154.3220 C   0  0  0  0  0  1  0  0  0  0  0  0
  160.7370  206.0250  151.8680 C   0  0  0  0  0  2  0  0  0  0  0  0
  162.6850  204.7090  151.6890 O   0  0  0  0  0  0  0  0  0  0  0  0
  161.4680  204.7500  151.5980 C   0  0  0  0  0  0  0  0  0  0  0  0
  160.6890  203.5210  151.2480 C   0  0  2  0  0  3  0  0  0  0  0  0
  161.1300  202.4440  152.0170 O   0  0  0  0  0  1  0  0  0  0  0  0
  160.5440  204.2990  149.0030 F   0  0  0  0  0  0  0  0  0  0  0  0
  160.8330  203.1870  149.7720 C   0  0  0  0  0  2  0  0  0  0  0  0
  160.3740  208.9330  153.6460 O   0  0  0  0  0  0  0  0  0  0  0  0
  161.0360  210.0610  154.1440 C   0  0  2  0  0  3  0  0  0  0  0  0
  162.6730  210.7000  155.4950 C   0  0  0  0  0  1  0  0  0  0  0  0
  161.6630  209.7470  155.3540 O   0  0  0  0  0  0  0  0  0  0  0  0
  160.0550  211.2230  154.3180 C   0  0  2  0  0  3  0  0  0  0  0  0
  159.0660  210.8880  155.4250 C   0  0  0  0  0  2  0  0  0  0  0  0
  159.1700  211.8530  156.5630 C   0  0  0  0  0  3  0  0  0  0  0  0
  159.5910  213.1000  156.3690 C   0  0  0  0  0  2  0  0  0  0  0  0
  159.2570  211.5700  152.9220 C   0  0  0  0  0  2  0  0  0  0  0  0
  159.8300  212.7920  152.1790 C   0  0  0  0  0  2  0  0  0  0  0  0
  159.3860  211.6150  152.2220 O   0  0  0  0  0  0  0  0  0  0  0  0
  159.0390  213.8550  151.6390 N   0  0  0  0  0  2  0  0  0  0  0  0
  157.5930  213.7830  151.4770 C   0  0  0  0  0  2  0  0  0  0  0  0
  157.2420  213.6000  150.0130 C   0  0  0  0  0  1  0  0  0  0  0  0
  160.9980  208.7320  151.3060 C   0  0  0  0  0  2  0  0  0  0  0  0
  162.1770  209.3730  150.5710 C   0  0  0  0  0  2  0  0  0  0  0  0
  162.1300  209.2050  149.0510 C   0  0  1  0  0  3  0  0  0  0  0  0
  161.4570  207.9030  148.6540 C   0  0  2  0  0  3  0  0  0  0  0  0
  162.3470  206.8370  148.8700 O   0  0  0  0  0  0  0  0  0  0  0  0
  162.1920  207.2690  147.5400 C   0  0  1  0  0  3  0  0  0  0  0  0
  161.2750  206.3020  146.8080 C   0  0  0  0  0  2  0  0  0  0  0  0
  161.9930  205.5490  145.6870 C   0  0  1  0  0  3  0  0  0  0  0  0
  163.2010  204.7980  146.2180 C   0  0  0  0  0  1  0  0  0  0  0  0
  161.2070  203.1860  145.4920 C   0  0  0  0  0  1  0  0  0  0  0  0
  161.0660  204.5950  144.9460 C   0  0  0  0  0  2  0  0  0  0  0  0
  161.4960  210.2920  148.4420 O   0  0  0  0  0  0  0  0  0  0  0  0
  162.2660  211.4010  148.7940 C   0  0  0  0  0  1  0  0  0  0  0  0
  1 25  1  6  0  0  0
  1  2  1  0  0  0  0
  1 11  1  0  0  0  0
  2  3  1  1  0  0  0
  4  2  1  0  0  0  0
  6  5  2  0  0  0  0
  6  4  1  0  0  0  0
  7  6  1  0  0  0  0
  7  8  1  1  0  0  0
  9 10  1  0  0  0  0
 10  7  1  0  0  0  0
 12 11  1  1  0  0  0
 12 15  1  0  0  0  0
 12 14  1  0  0  0  0
 14 13  1  0  0  0  0
 15 19  1  6  0  0  0
 15 16  1  0  0  0  0
 16 17  1  0  0  0  0
 18 17  2  0  0  0  0
 20 21  1  0  0  0  0
 21 19  1  0  0  0  0
 22 20  1  0  0  0  0
 23 22  1  0  0  0  0
 24 23  1  0  0  0  0
 26 25  1  0  0  0  0
 27 26  1  1  0  0  0
 28 29  1  0  0  0  0
 28 27  1  1  0  0  0
 30 31  1  6  0  0  0
 30 28  1  0  0  0  0
 30 29  1  0  0  0  0
 32 33  1  1  0  0  0
 32 31  1  0  0  0  0
 35 34  1  0  0  0  0
 35 32  1  0  0  0  0
 36 37  1  0  0  0  0
 36 27  1  0  0  0  0
M  END
>  <MODEL>
1

>  <REMARK>
 VINA RESULT:      -5.9      0.000      0.000
  Name = 
  22 active torsions:
  status: ('A' for Active; 'I' for Inactive)
    1  A    between atoms: C_1  and  C_5
    2  A    between atoms: C_1  and  C_36
    3  A    between atoms: C_2  and  C_19
    4  A    between atoms: C_2  and  C_35
    5  A    between atoms: C_3  and  N_32
    6  A    between atoms: C_4  and  O_10
    7  A    between atoms: C_4  and  C_13
    8  A    between atoms: C_4  and  O_28
    9  A    between atoms: C_5  and  C_23
   10  A    between atoms: C_6  and  C_31
   11  A    between atoms: C_6  and  C_35
   12  A    between atoms: C_7  and  C_14
   13  A    between atoms: C_7  and  C_27
   14  A    between atoms: C_9  and  C_13
   15  A    between atoms: C_9  and  C_16
   16  A    between atoms: O_10  and  C_14
   17  A    between atoms: O_11  and  C_33
   18  A    between atoms: C_13  and  C_20
   19  A    between atoms: C_14  and  C_31
   20  A    between atoms: C_20  and  C_21
   21  A    between atoms: C_26  and  C_33
   22  A    between atoms: C_27  and  C_33
                            x       y       z     vdW  Elec       q    Type
                         _______ _______ _______ _____ _____    ______ ____

>  <TORSDO>
F 22

$$$$
=
 OpenBabel11062409203D

 37 37  0  0  1  0  0  0  0  0999 V2000
  161.2660  208.3830  152.9040 C   0  0  2  0  0  3  0  0  0  0  0  0
  161.5180  206.8700  152.9300 C   0  0  1  0  0  3  0  0  0  0  0  0
  161.1010  206.2980  154.2710 C   0  0  0  0  0  1  0  0  0  0  0  0
  160.7910  206.1430  151.8020 C   0  0  0  0  0  2  0  0  0  0  0  0
  162.6370  204.6760  151.7830 O   0  0  0  0  0  0  0  0  0  0  0  0
  161.4690  204.8530  151.4720 C   0  0  0  0  0  0  0  0  0  0  0  0
  160.6910  203.7720  150.7890 C   0  0  2  0  0  3  0  0  0  0  0  0
  161.0550  202.5270  151.3030 O   0  0  0  0  0  1  0  0  0  0  0  0
  161.2130  202.5200  148.8340 F   0  0  0  0  0  0  0  0  0  0  0  0
  160.9290  203.7950  149.2880 C   0  0  0  0  0  2  0  0  0  0  0  0
  160.3470  208.8010  153.8770 O   0  0  0  0  0  0  0  0  0  0  0  0
  160.6930  210.1270  154.1560 C   0  0  2  0  0  3  0  0  0  0  0  0
  162.4520  210.6710  155.3900 C   0  0  0  0  0  1  0  0  0  0  0  0
  161.1290  210.2360  155.4810 O   0  0  0  0  0  0  0  0  0  0  0  0
  159.5070  211.0570  153.8900 C   0  0  2  0  0  3  0  0  0  0  0  0
  159.9680  212.2360  153.0450 C   0  0  0  0  0  2  0  0  0  0  0  0
  158.9920  212.5450  151.9550 C   0  0  0  0  0  3  0  0  0  0  0  0
  158.6590  213.8010  151.6670 C   0  0  0  0  0  2  0  0  0  0  0  0
  158.8140  211.5880  155.2840 C   0  0  0  0  0  2  0  0  0  0  0  0
  157.4060  211.0090  155.5240 C   0  0  0  0  0  2  0  0  0  0  0  0
  158.3720  211.7630  155.8150 O   0  0  0  0  0  0  0  0  0  0  0  0
  156.2060  211.5410  154.9570 N   0  0  0  0  0  2  0  0  0  0  0  0
  156.1250  212.8460  154.3140 C   0  0  0  0  0  2  0  0  0  0  0  0
  155.6620  213.8900  155.3130 C   0  0  0  0  0  1  0  0  0  0  0  0
  160.9050  208.9180  151.5150 C   0  0  0  0  0  2  0  0  0  0  0  0
  162.0130  209.7210  150.8300 C   0  0  0  0  0  2  0  0  0  0  0  0
  162.1700  209.4200  149.3380 C   0  0  1  0  0  3  0  0  0  0  0  0
  161.6100  208.0540  148.9840 C   0  0  2  0  0  3  0  0  0  0  0  0
  162.6190  207.0870  149.1290 O   0  0  0  0  0  0  0  0  0  0  0  0
  162.3260  207.4990  147.8160 C   0  0  1  0  0  3  0  0  0  0  0  0
  161.4640  206.4400  147.1450 C   0  0  0  0  0  2  0  0  0  0  0  0
  162.1070  205.8800  145.8750 C   0  0  1  0  0  3  0  0  0  0  0  0
  163.0180  204.7080  146.1930 C   0  0  0  0  0  1  0  0  0  0  0  0
  160.8570  203.9720  144.8590 C   0  0  0  0  0  1  0  0  0  0  0  0
  161.0720  205.4740  144.8360 C   0  0  0  0  0  2  0  0  0  0  0  0
  161.5760  210.4140  148.5570 O   0  0  0  0  0  0  0  0  0  0  0  0
  162.1740  211.6050  148.9720 C   0  0  0  0  0  1  0  0  0  0  0  0
  1 25  1  6  0  0  0
  1  2  1  0  0  0  0
  1 11  1  0  0  0  0
  2  3  1  1  0  0  0
  4  2  1  0  0  0  0
  6  5  2  0  0  0  0
  6  4  1  0  0  0  0
  7  8  1  1  0  0  0
  7  6  1  0  0  0  0
  9 10  1  0  0  0  0
 10  7  1  0  0  0  0
 12 11  1  1  0  0  0
 12 14  1  0  0  0  0
 13 14  1  0  0  0  0
 15 16  1  1  0  0  0
 15 12  1  0  0  0  0
 15 19  1  0  0  0  0
 17 16  1  0  0  0  0
 18 17  2  0  0  0  0
 19 21  1  0  0  0  0
 20 21  1  0  0  0  0
 22 20  1  0  0  0  0
 23 22  1  0  0  0  0
 23 24  1  0  0  0  0
 26 25  1  0  0  0  0
 27 26  1  1  0  0  0
 28 29  1  0  0  0  0
 28 27  1  1  0  0  0
 30 31  1  6  0  0  0
 30 28  1  0  0  0  0
 30 29  1  0  0  0  0
 32 33  1  1  0  0  0
 32 31  1  0  0  0  0
 35 34  1  0  0  0  0
 35 32  1  0  0  0  0
 36 37  1  0  0  0  0
 36 27  1  0  0  0  0
M  END
>  <MODEL>
2

>  <REMARK>
 VINA RESULT:      -5.7      1.489      2.140
  Name = 
  22 active torsions:
  status: ('A' for Active; 'I' for Inactive)
    1  A    between atoms: C_1  and  C_5
    2  A    between atoms: C_1  and  C_36
    3  A    between atoms: C_2  and  C_19
    4  A    between atoms: C_2  and  C_35
    5  A    between atoms: C_3  and  N_32
    6  A    between atoms: C_4  and  O_10
    7  A    between atoms: C_4  and  C_13
    8  A    between atoms: C_4  and  O_28
    9  A    between atoms: C_5  and  C_23
   10  A    between atoms: C_6  and  C_31
   11  A    between atoms: C_6  and  C_35
   12  A    between atoms: C_7  and  C_14
   13  A    between atoms: C_7  and  C_27
   14  A    between atoms: C_9  and  C_13
   15  A    between atoms: C_9  and  C_16
   16  A    between atoms: O_10  and  C_14
   17  A    between atoms: O_11  and  C_33
   18  A    between atoms: C_13  and  C_20
   19  A    between atoms: C_14  and  C_31
   20  A    between atoms: C_20  and  C_21
   21  A    between atoms: C_26  and  C_33
   22  A    between atoms: C_27  and  C_33
                            x       y       z     vdW  Elec       q    Type
                         _______ _______ _______ _____ _____    ______ ____

>  <TORSDO>
F 22

$$$$
=
 OpenBabel11062409203D

 37 36  0  0  1  0  0  0  0  0999 V2000
  161.3270  208.1030  152.6520 C   0  0  2  0  0  3  0  0  0  0  0  0
  161.4850  206.5920  152.8620 C   0  0  1  0  0  3  0  0  0  0  0  0
  160.9320  206.1970  154.2170 C   0  0  0  0  0  1  0  0  0  0  0  0
  160.8070  205.7800  151.7630 C   0  0  0  0  0  2  0  0  0  0  0  0
  162.6410  204.3080  151.9330 O   0  0  0  0  0  0  0  0  0  0  0  0
  161.4830  204.4610  151.5770 C   0  0  0  0  0  0  0  0  0  0  0  0
  160.7140  203.3230  150.9810 C   0  0  2  0  0  3  0  0  0  0  0  0
  161.3760  202.1210  151.2290 O   0  0  0  0  0  1  0  0  0  0  0  0
  161.7700  203.5340  148.8590 F   0  0  0  0  0  0  0  0  0  0  0  0
  160.5370  203.5100  149.4830 C   0  0  0  0  0  2  0  0  0  0  0  0
  160.3970  208.6820  153.5270 O   0  0  0  0  0  0  0  0  0  0  0  0
  160.8970  209.9620  153.7920 C   0  0  2  0  0  3  0  0  0  0  0  0
  162.6330  210.6260  155.0000 C   0  0  0  0  0  1  0  0  0  0  0  0
  162.2950  209.9240  153.8420 O   0  0  0  0  0  0  0  0  0  0  0  0
  160.3140  210.5040  155.0990 C   0  0  0  0  0  2  0  0  0  0  0  0
  159.5000  209.4120  155.7800 C   0  0  0  0  0  2  0  0  0  0  0  0
  160.0580  209.0700  157.1250 C   0  0  0  0  0  3  0  0  0  0  0  0
  160.9940  208.1340  157.2610 C   0  0  0  0  0  2  0  0  0  0  0  0
  159.3890  211.8410  154.8540 C   0  0  0  0  0  1  0  0  0  0  0  0
  158.3170  211.6490  153.7630 C   0  0  0  0  0  2  0  0  0  0  0  0
  159.1640  211.2180  154.5890 O   0  0  0  0  0  0  0  0  0  0  0  0
  156.9150  211.5240  154.0190 N   0  0  0  0  0  2  0  0  0  0  0  0
  156.3540  211.2860  155.3420 C   0  0  0  0  0  2  0  0  0  0  0  0
  155.2820  210.2150  155.2670 C   0  0  0  0  0  1  0  0  0  0  0  0
  161.0540  208.4910  151.1960 C   0  0  0  0  0  2  0  0  0  0  0  0
  162.2420  209.1250  150.4680 C   0  0  0  0  0  2  0  0  0  0  0  0
  162.1940  208.9720  148.9460 C   0  0  1  0  0  3  0  0  0  0  0  0
  161.3900  207.7530  148.5330 C   0  0  2  0  0  3  0  0  0  0  0  0
  162.0820  206.5900  148.9120 O   0  0  0  0  0  0  0  0  0  0  0  0
  162.1510  206.9490  147.5530 C   0  0  1  0  0  3  0  0  0  0  0  0
  161.1940  206.0720  146.7600 C   0  0  0  0  0  2  0  0  0  0  0  0
  161.8660  205.4180  145.5520 C   0  0  1  0  0  3  0  0  0  0  0  0
  163.2120  204.8250  145.9270 C   0  0  0  0  0  1  0  0  0  0  0  0
  161.0710  203.0540  145.6800 C   0  0  0  0  0  1  0  0  0  0  0  0
  160.9860  204.3570  144.9060 C   0  0  0  0  0  2  0  0  0  0  0  0
  161.6890  210.1250  148.3380 O   0  0  0  0  0  0  0  0  0  0  0  0
  162.1860  211.1820  149.1020 C   0  0  0  0  0  1  0  0  0  0  0  0
  1 25  1  6  0  0  0
  1  2  1  0  0  0  0
  1 11  1  0  0  0  0
  2  3  1  1  0  0  0
  4  2  1  0  0  0  0
  6  4  1  0  0  0  0
  6  5  2  0  0  0  0
  7  8  1  6  0  0  0
  7  6  1  0  0  0  0
  9 10  1  0  0  0  0
 10  7  1  0  0  0  0
 11 12  1  0  0  0  0
 12 14  1  0  0  0  0
 12 15  1  1  0  0  0
 14 13  1  0  0  0  0
 15 16  1  0  0  0  0
 16 17  1  0  0  0  0
 17 18  2  0  0  0  0
 20 22  1  0  0  0  0
 20 21  1  0  0  0  0
 21 19  1  0  0  0  0
 22 23  1  0  0  0  0
 24 23  1  0  0  0  0
 26 25  1  0  0  0  0
 27 26  1  1  0  0  0
 28 29  1  0  0  0  0
 28 27  1  1  0  0  0
 30 31  1  6  0  0  0
 30 28  1  0  0  0  0
 30 29  1  0  0  0  0
 32 33  1  1  0  0  0
 32 31  1  0  0  0  0
 35 32  1  0  0  0  0
 35 34  1  0  0  0  0
 36 27  1  0  0  0  0
 36 37  1  0  0  0  0
M  END
>  <MODEL>
3

>  <REMARK>
 VINA RESULT:      -5.4      1.442      1.980
  Name = 
  22 active torsions:
  status: ('A' for Active; 'I' for Inactive)
    1  A    between atoms: C_1  and  C_5
    2  A    between atoms: C_1  and  C_36
    3  A    between atoms: C_2  and  C_19
    4  A    between atoms: C_2  and  C_35
    5  A    between atoms: C_3  and  N_32
    6  A    between atoms: C_4  and  O_10
    7  A    between atoms: C_4  and  C_13
    8  A    between atoms: C_4  and  O_28
    9  A    between atoms: C_5  and  C_23
   10  A    between atoms: C_6  and  C_31
   11  A    between atoms: C_6  and  C_35
   12  A    between atoms: C_7  and  C_14
   13  A    between atoms: C_7  and  C_27
   14  A    between atoms: C_9  and  C_13
   15  A    between atoms: C_9  and  C_16
   16  A    between atoms: O_10  and  C_14
   17  A    between atoms: O_11  and  C_33
   18  A    between atoms: C_13  and  C_20
   19  A    between atoms: C_14  and  C_31
   20  A    between atoms: C_20  and  C_21
   21  A    between atoms: C_26  and  C_33
   22  A    between atoms: C_27  and  C_33
                            x       y       z     vdW  Elec       q    Type
                         _______ _______ _______ _____ _____    ______ ____

>  <TORSDO>
F 22

$$$$
=
 OpenBabel11062409203D

 37 37  0  0  1  0  0  0  0  0999 V2000
  161.8370  208.7940  150.3030 C   0  0  2  0  0  3  0  0  0  0  0  0
  161.5960  208.0830  148.9660 C   0  0  1  0  0  3  0  0  0  0  0  0
  162.9200  207.6860  148.3440 C   0  0  0  0  0  1  0  0  0  0  0  0
  160.6990  206.8570  149.1160 C   0  0  0  0  0  2  0  0  0  0  0  0
  160.4500  206.2790  146.8430 O   0  0  0  0  0  0  0  0  0  0  0  0
  160.8490  205.9390  147.9460 C   0  0  0  0  0  0  0  0  0  0  0  0
  161.5210  204.6150  148.1380 C   0  0  2  0  0  3  0  0  0  0  0  0
  161.5260  203.9060  146.9370 O   0  0  0  0  0  1  0  0  0  0  0  0
  161.5950  203.7520  150.3550 F   0  0  0  0  0  0  0  0  0  0  0  0
  160.8200  203.7980  149.2110 C   0  0  0  0  0  2  0  0  0  0  0  0
  160.8030  208.5890  151.2270 O   0  0  0  0  0  0  0  0  0  0  0  0
  161.4460  208.2380  152.4190 C   0  0  2  0  0  3  0  0  0  0  0  0
  162.1710  206.1450  152.5060 C   0  0  0  0  0  1  0  0  0  0  0  0
  161.0670  206.9460  152.8000 O   0  0  0  0  0  0  0  0  0  0  0  0
  161.1250  209.2530  153.5190 C   0  0  2  0  0  3  0  0  0  0  0  0
  160.6990  208.5130  154.7790 C   0  0  0  0  0  2  0  0  0  0  0  0
  160.9880  209.3140  156.0090 C   0  0  0  0  0  3  0  0  0  0  0  0
  160.0110  209.6800  156.8350 C   0  0  0  0  0  2  0  0  0  0  0  0
  159.9580  210.3150  153.0560 C   0  0  0  0  0  2  0  0  0  0  0  0
  160.3050  211.7810  153.3800 C   0  0  0  0  0  2  0  0  0  0  0  0
  159.7130  210.8910  152.7150 O   0  0  0  0  0  0  0  0  0  0  0  0
  159.5900  212.5930  154.3160 N   0  0  0  0  0  2  0  0  0  0  0  0
  158.2910  212.2360  154.8690 C   0  0  0  0  0  2  0  0  0  0  0  0
  157.2780  213.3230  154.5630 C   0  0  0  0  0  1  0  0  0  0  0  0
  162.1750  210.2810  150.1500 C   0  0  0  0  0  2  0  0  0  0  0  0
  161.7950  210.8880  148.7980 C   0  0  0  0  0  2  0  0  0  0  0  0
  161.5190  212.3930  148.8460 C   0  0  1  0  0  3  0  0  0  0  0  0
  160.7050  212.8480  147.6480 C   0  0  2  0  0  3  0  0  0  0  0  0
  160.6440  211.8070  146.7060 O   0  0  0  0  0  0  0  0  0  0  0  0
  161.5470  212.8510  146.4330 C   0  0  1  0  0  3  0  0  0  0  0  0
  160.9350  213.7750  145.3910 C   0  0  0  0  0  2  0  0  0  0  0  0
  161.4510  213.4880  143.9800 C   0  0  1  0  0  3  0  0  0  0  0  0
  162.9380  213.1860  143.9910 C   0  0  0  0  0  1  0  0  0  0  0  0
  159.4700  212.8900  142.5810 C   0  0  0  0  0  1  0  0  0  0  0  0
  160.6890  212.3540  143.3070 C   0  0  0  0  0  2  0  0  0  0  0  0
  160.8840  212.7520  150.0380 O   0  0  0  0  0  0  0  0  0  0  0  0
  160.1560  213.9010  149.7260 C   0  0  0  0  0  1  0  0  0  0  0  0
  1 25  1  6  0  0  0
  1 11  1  0  0  0  0
  2  3  1  1  0  0  0
  2  4  1  0  0  0  0
  2  1  1  0  0  0  0
  5  6  2  0  0  0  0
  6  7  1  0  0  0  0
  6  4  1  0  0  0  0
  7  8  1  6  0  0  0
  7 10  1  0  0  0  0
 10  9  1  0  0  0  0
 12 11  1  6  0  0  0
 12 14  1  0  0  0  0
 12 15  1  0  0  0  0
 13 14  1  0  0  0  0
 15 19  1  6  0  0  0
 15 16  1  0  0  0  0
 16 17  1  0  0  0  0
 17 18  2  0  0  0  0
 20 22  1  0  0  0  0
 21 19  1  0  0  0  0
 21 20  1  0  0  0  0
 22 23  1  0  0  0  0
 24 23  1  0  0  0  0
 26 25  1  0  0  0  0
 27 26  1  1  0  0  0
 27 36  1  0  0  0  0
 28 27  1  1  0  0  0
 29 28  1  0  0  0  0
 30 31  1  6  0  0  0
 30 29  1  0  0  0  0
 30 28  1  0  0  0  0
 32 33  1  1  0  0  0
 32 31  1  0  0  0  0
 34 35  1  0  0  0  0
 35 32  1  0  0  0  0
 37 36  1  0  0  0  0
M  END
>  <MODEL>
4

>  <REMARK>
 VINA RESULT:      -4.9      2.749      4.675
  Name = 
  22 active torsions:
  status: ('A' for Active; 'I' for Inactive)
    1  A    between atoms: C_1  and  C_5
    2  A    between atoms: C_1  and  C_36
    3  A    between atoms: C_2  and  C_19
    4  A    between atoms: C_2  and  C_35
    5  A    between atoms: C_3  and  N_32
    6  A    between atoms: C_4  and  O_10
    7  A    between atoms: C_4  and  C_13
    8  A    between atoms: C_4  and  O_28
    9  A    between atoms: C_5  and  C_23
   10  A    between atoms: C_6  and  C_31
   11  A    between atoms: C_6  and  C_35
   12  A    between atoms: C_7  and  C_14
   13  A    between atoms: C_7  and  C_27
   14  A    between atoms: C_9  and  C_13
   15  A    between atoms: C_9  and  C_16
   16  A    between atoms: O_10  and  C_14
   17  A    between atoms: O_11  and  C_33
   18  A    between atoms: C_13  and  C_20
   19  A    between atoms: C_14  and  C_31
   20  A    between atoms: C_20  and  C_21
   21  A    between atoms: C_26  and  C_33
   22  A    between atoms: C_27  and  C_33
                            x       y       z     vdW  Elec       q    Type
                         _______ _______ _______ _____ _____    ______ ____

>  <TORSDO>
F 22

$$$$
=
 OpenBabel11062409203D

 37 37  0  0  1  0  0  0  0  0999 V2000
  160.7050  209.4120  153.4190 C   0  0  2  0  0  3  0  0  0  0  0  0
  160.7520  210.7830  152.7330 C   0  0  1  0  0  3  0  0  0  0  0  0
  161.5230  210.6840  151.4310 C   0  0  0  0  0  1  0  0  0  0  0  0
  159.3590  211.3490  152.4740 C   0  0  0  0  0  2  0  0  0  0  0  0
  159.6340  213.1680  153.9490 O   0  0  0  0  0  0  0  0  0  0  0  0
  159.2940  212.7970  152.8360 C   0  0  0  0  0  0  0  0  0  0  0  0
  158.8390  213.7870  151.8100 C   0  0  2  0  0  3  0  0  0  0  0  0
  157.8100  213.2400  151.0440 O   0  0  0  0  0  1  0  0  0  0  0  0
  160.1730  213.2480  149.9140 F   0  0  0  0  0  0  0  0  0  0  0  0
  159.9880  214.1970  150.9020 C   0  0  0  0  0  2  0  0  0  0  0  0
  161.7990  209.1870  154.2670 O   0  0  0  0  0  0  0  0  0  0  0  0
  161.8100  210.2790  155.1410 C   0  0  2  0  0  3  0  0  0  0  0  0
  163.1240  211.0900  156.7310 C   0  0  0  0  0  1  0  0  0  0  0  0
  163.1290  210.6660  155.4020 O   0  0  0  0  0  0  0  0  0  0  0  0
  161.0720  209.9340  156.4370 C   0  0  2  0  0  3  0  0  0  0  0  0
  161.3220  208.4730  156.7880 C   0  0  0  0  0  2  0  0  0  0  0  0
  160.0460  207.6960  156.8430 C   0  0  0  0  0  3  0  0  0  0  0  0
  159.7260  206.8330  155.8830 C   0  0  0  0  0  2  0  0  0  0  0  0
  159.4570  210.2270  156.3230 C   0  0  0  0  0  2  0  0  0  0  0  0
  158.9750  211.3530  157.2590 C   0  0  0  0  0  2  0  0  0  0  0  0
  159.6360  210.9150  156.2810 O   0  0  0  0  0  0  0  0  0  0  0  0
  157.7850  212.1200  157.0530 N   0  0  0  0  0  2  0  0  0  0  0  0
  157.0330  212.1270  155.8060 C   0  0  0  0  0  2  0  0  0  0  0  0
  155.9480  211.0690  155.8460 C   0  0  0  0  0  1  0  0  0  0  0  0
  160.4950  208.2490  152.4440 C   0  0  0  0  0  2  0  0  0  0  0  0
  161.5880  207.1790  152.4780 C   0  0  0  0  0  2  0  0  0  0  0  0
  161.6870  206.3480  151.1970 C   0  0  1  0  0  3  0  0  0  0  0  0
  160.7610  205.1450  151.2400 C   0  0  2  0  0  3  0  0  0  0  0  0
  161.3830  204.1060  151.9530 O   0  0  0  0  0  0  0  0  0  0  0  0
  161.3870  203.9970  150.5500 C   0  0  1  0  0  3  0  0  0  0  0  0
  160.3110  203.0080  150.1280 C   0  0  0  0  0  2  0  0  0  0  0  0
  160.6050  202.3700  148.7690 C   0  0  1  0  0  3  0  0  0  0  0  0
  161.2230  203.3750  147.8140 C   0  0  0  0  0  1  0  0  0  0  0  0
  161.4170  200.3020  147.6280 C   0  0  0  0  0  1  0  0  0  0  0  0
  161.4970  201.1420  148.8890 C   0  0  0  0  0  2  0  0  0  0  0  0
  161.4280  207.1280  150.0670 O   0  0  0  0  0  0  0  0  0  0  0  0
  162.6580  207.6960  149.7310 C   0  0  0  0  0  1  0  0  0  0  0  0
  1 25  1  6  0  0  0
  1 11  1  0  0  0  0
  2  3  1  6  0  0  0
  2  1  1  0  0  0  0
  4  2  1  0  0  0  0
  4  6  1  0  0  0  0
  6  5  2  0  0  0  0
  7  8  1  6  0  0  0
  7  6  1  0  0  0  0
  9 10  1  0  0  0  0
 10  7  1  0  0  0  0
 12 11  1  6  0  0  0
 12 14  1  0  0  0  0
 12 15  1  0  0  0  0
 14 13  1  0  0  0  0
 15 19  1  6  0  0  0
 15 16  1  0  0  0  0
 16 17  1  0  0  0  0
 18 17  2  0  0  0  0
 21 19  1  0  0  0  0
 21 20  1  0  0  0  0
 22 20  1  0  0  0  0
 23 24  1  0  0  0  0
 23 22  1  0  0  0  0
 25 26  1  0  0  0  0
 27 26  1  1  0  0  0
 28 27  1  6  0  0  0
 28 29  1  0  0  0  0
 30 31  1  1  0  0  0
 30 28  1  0  0  0  0
 30 29  1  0  0  0  0
 32 33  1  6  0  0  0
 32 35  1  0  0  0  0
 32 31  1  0  0  0  0
 34 35  1  0  0  0  0
 36 27  1  0  0  0  0
 37 36  1  0  0  0  0
M  END
>  <MODEL>
5

>  <REMARK>
 VINA RESULT:      -4.9      2.545      5.490
  Name = 
  22 active torsions:
  status: ('A' for Active; 'I' for Inactive)
    1  A    between atoms: C_1  and  C_5
    2  A    between atoms: C_1  and  C_36
    3  A    between atoms: C_2  and  C_19
    4  A    between atoms: C_2  and  C_35
    5  A    between atoms: C_3  and  N_32
    6  A    between atoms: C_4  and  O_10
    7  A    between atoms: C_4  and  C_13
    8  A    between atoms: C_4  and  O_28
    9  A    between atoms: C_5  and  C_23
   10  A    between atoms: C_6  and  C_31
   11  A    between atoms: C_6  and  C_35
   12  A    between atoms: C_7  and  C_14
   13  A    between atoms: C_7  and  C_27
   14  A    between atoms: C_9  and  C_13
   15  A    between atoms: C_9  and  C_16
   16  A    between atoms: O_10  and  C_14
   17  A    between atoms: O_11  and  C_33
   18  A    between atoms: C_13  and  C_20
   19  A    between atoms: C_14  and  C_31
   20  A    between atoms: C_20  and  C_21
   21  A    between atoms: C_26  and  C_33
   22  A    between atoms: C_27  and  C_33
                            x       y       z     vdW  Elec       q    Type
                         _______ _______ _______ _____ _____    ______ ____

>  <TORSDO>
F 22

$$$$
=
 OpenBabel11062409203D

 37 37  0  0  1  0  0  0  0  0999 V2000
  161.6430  206.5890  153.0230 C   0  0  2  0  0  3  0  0  0  0  0  0
  161.3940  205.0880  152.8290 C   0  0  1  0  0  3  0  0  0  0  0  0
  159.9060  204.8220  152.7090 C   0  0  0  0  0  1  0  0  0  0  0  0
  162.1250  204.5330  151.6100 C   0  0  0  0  0  2  0  0  0  0  0  0
  161.3780  202.3340  152.0190 O   0  0  0  0  0  0  0  0  0  0  0  0
  161.5500  203.2180  151.1940 C   0  0  0  0  0  0  0  0  0  0  0  0
  161.1570  203.0110  149.7650 C   0  0  2  0  0  3  0  0  0  0  0  0
  160.3890  204.0880  149.3220 O   0  0  0  0  0  1  0  0  0  0  0  0
  161.1670  200.7540  149.0090 F   0  0  0  0  0  0  0  0  0  0  0  0
  160.3720  201.7200  149.5970 C   0  0  0  0  0  2  0  0  0  0  0  0
  160.4940  207.2870  153.4210 O   0  0  0  0  0  0  0  0  0  0  0  0
  160.8590  207.9390  154.6040 C   0  0  2  0  0  3  0  0  0  0  0  0
  160.2550  206.9850  156.5120 C   0  0  0  0  0  1  0  0  0  0  0  0
  159.8100  207.8680  155.5280 O   0  0  0  0  0  0  0  0  0  0  0  0
  161.2420  209.3930  154.3180 C   0  0  2  0  0  3  0  0  0  0  0  0
  161.7700  210.0370  155.5920 C   0  0  0  0  0  2  0  0  0  0  0  0
  160.7860  211.0070  156.1650 C   0  0  0  0  0  3  0  0  0  0  0  0
  160.0910  210.7130  157.2600 C   0  0  0  0  0  2  0  0  0  0  0  0
  159.9770  210.2580  153.7210 C   0  0  0  0  0  2  0  0  0  0  0  0
  160.3970  211.3120  152.6770 C   0  0  0  0  0  2  0  0  0  0  0  0
  159.6550  210.3850  153.0970 O   0  0  0  0  0  0  0  0  0  0  0  0
  159.9430  212.6680  152.6700 N   0  0  0  0  0  2  0  0  0  0  0  0
  158.8240  213.1500  153.4690 C   0  0  0  0  0  2  0  0  0  0  0  0
  157.9720  214.1010  152.6500 C   0  0  0  0  0  1  0  0  0  0  0  0
  162.3240  207.2550  151.8230 C   0  0  0  0  0  2  0  0  0  0  0  0
  161.3760  208.0020  150.8820 C   0  0  0  0  0  2  0  0  0  0  0  0
  162.0820  208.7420  149.7440 C   0  0  1  0  0  3  0  0  0  0  0  0
  161.6010  208.2640  148.3860 C   0  0  2  0  0  3  0  0  0  0  0  0
  160.7560  207.1540  148.5570 O   0  0  0  0  0  0  0  0  0  0  0  0
  162.0720  206.8860  148.1350 C   0  0  1  0  0  3  0  0  0  0  0  0
  162.0660  206.6090  146.6390 C   0  0  0  0  0  2  0  0  0  0  0  0
  161.1870  205.4130  146.2700 C   0  0  1  0  0  3  0  0  0  0  0  0
  160.4440  205.6600  144.9690 C   0  0  0  0  0  1  0  0  0  0  0  0
  161.1180  203.0000  145.6300 C   0  0  0  0  0  1  0  0  0  0  0  0
  161.9820  204.1180  146.1820 C   0  0  0  0  0  2  0  0  0  0  0  0
  161.9230  210.1250  149.8650 O   0  0  0  0  0  0  0  0  0  0  0  0
  162.1500  210.6270  148.5820 C   0  0  0  0  0  1  0  0  0  0  0  0
  1 25  1  6  0  0  0
  1 11  1  0  0  0  0
  2  3  1  6  0  0  0
  2  1  1  0  0  0  0
  4  2  1  0  0  0  0
  6  4  1  0  0  0  0
  6  5  2  0  0  0  0
  7  8  1  1  0  0  0
  7  6  1  0  0  0  0
  9 10  1  0  0  0  0
 10  7  1  0  0  0  0
 12 11  1  6  0  0  0
 12 14  1  0  0  0  0
 14 13  1  0  0  0  0
 15 19  1  1  0  0  0
 15 12  1  0  0  0  0
 15 16  1  0  0  0  0
 16 17  1  0  0  0  0
 17 18  2  0  0  0  0
 20 21  1  0  0  0  0
 21 19  1  0  0  0  0
 22 20  1  0  0  0  0
 22 23  1  0  0  0  0
 24 23  1  0  0  0  0
 26 25  1  0  0  0  0
 27 36  1  0  0  0  0
 27 26  1  1  0  0  0
 28 29  1  0  0  0  0
 28 27  1  1  0  0  0
 30 31  1  6  0  0  0
 30 28  1  0  0  0  0
 30 29  1  0  0  0  0
 32 33  1  6  0  0  0
 32 31  1  0  0  0  0
 34 35  1  0  0  0  0
 35 32  1  0  0  0  0
 37 36  1  0  0  0  0
M  END
>  <MODEL>
6

>  <REMARK>
 VINA RESULT:      -4.8      1.543      2.122
  Name = 
  22 active torsions:
  status: ('A' for Active; 'I' for Inactive)
    1  A    between atoms: C_1  and  C_5
    2  A    between atoms: C_1  and  C_36
    3  A    between atoms: C_2  and  C_19
    4  A    between atoms: C_2  and  C_35
    5  A    between atoms: C_3  and  N_32
    6  A    between atoms: C_4  and  O_10
    7  A    between atoms: C_4  and  C_13
    8  A    between atoms: C_4  and  O_28
    9  A    between atoms: C_5  and  C_23
   10  A    between atoms: C_6  and  C_31
   11  A    between atoms: C_6  and  C_35
   12  A    between atoms: C_7  and  C_14
   13  A    between atoms: C_7  and  C_27
   14  A    between atoms: C_9  and  C_13
   15  A    between atoms: C_9  and  C_16
   16  A    between atoms: O_10  and  C_14
   17  A    between atoms: O_11  and  C_33
   18  A    between atoms: C_13  and  C_20
   19  A    between atoms: C_14  and  C_31
   20  A    between atoms: C_20  and  C_21
   21  A    between atoms: C_26  and  C_33
   22  A    between atoms: C_27  and  C_33
                            x       y       z     vdW  Elec       q    Type
                         _______ _______ _______ _____ _____    ______ ____

>  <TORSDO>
F 22

$$$$
=
 OpenBabel11062409203D

 37 37  0  0  1  0  0  0  0  0999 V2000
  162.2140  208.7310  151.0660 C   0  0  2  0  0  3  0  0  0  0  0  0
  162.3790  209.5470  149.7780 C   0  0  1  0  0  3  0  0  0  0  0  0
  161.7550  208.8060  148.6110 C   0  0  0  0  0  1  0  0  0  0  0  0
  161.7730  210.9430  149.8950 C   0  0  0  0  0  2  0  0  0  0  0  0
  163.1950  211.8990  148.2750 O   0  0  0  0  0  0  0  0  0  0  0  0
  162.0480  211.7510  148.6680 C   0  0  0  0  0  0  0  0  0  0  0  0
  160.9010  212.3450  147.9120 C   0  0  2  0  0  3  0  0  0  0  0  0
  161.2960  212.6410  146.6070 O   0  0  0  0  0  1  0  0  0  0  0  0
  159.3530  213.2990  149.4470 F   0  0  0  0  0  0  0  0  0  0  0  0
  160.3960  213.6070  148.5920 C   0  0  0  0  0  2  0  0  0  0  0  0
  162.5430  207.3780  150.9020 O   0  0  0  0  0  0  0  0  0  0  0  0
  161.3750  206.6790  151.2260 C   0  0  2  0  0  3  0  0  0  0  0  0
  162.6670  205.8640  152.8320 C   0  0  0  0  0  1  0  0  0  0  0  0
  161.3820  206.3490  152.5860 O   0  0  0  0  0  0  0  0  0  0  0  0
  161.2420  205.4270  150.3560 C   0  0  2  0  0  3  0  0  0  0  0  0
  160.5880  205.7980  149.0320 C   0  0  0  0  0  2  0  0  0  0  0  0
  161.3110  205.1880  147.8740 C   0  0  0  0  0  3  0  0  0  0  0  0
  161.1790  205.6810  146.6460 C   0  0  0  0  0  2  0  0  0  0  0  0
  160.3810  204.2430  151.1080 C   0  0  0  0  0  2  0  0  0  0  0  0
  161.1750  202.9350  151.2900 C   0  0  0  0  0  2  0  0  0  0  0  0
  160.1670  203.6680  151.4700 O   0  0  0  0  0  0  0  0  0  0  0  0
  161.1220  201.8250  150.3890 N   0  0  0  0  0  2  0  0  0  0  0  0
  160.1150  201.6770  149.3480 C   0  0  0  0  0  2  0  0  0  0  0  0
  160.7800  201.6210  147.9860 C   0  0  0  0  0  1  0  0  0  0  0  0
  160.8430  208.9050  151.7260 C   0  0  0  0  0  2  0  0  0  0  0  0
  160.8700  209.6160  153.0810 C   0  0  0  0  0  2  0  0  0  0  0  0
  159.5850  210.3780  153.4120 C   0  0  1  0  0  3  0  0  0  0  0  0
  159.7060  211.1300  154.7250 C   0  0  2  0  0  3  0  0  0  0  0  0
  160.1330  210.2450  155.7290 O   0  0  0  0  0  0  0  0  0  0  0  0
  158.7640  210.5730  155.7180 C   0  0  1  0  0  3  0  0  0  0  0  0
  158.4940  211.6060  156.8010 C   0  0  0  0  0  2  0  0  0  0  0  0
  157.1070  212.2390  156.6730 C   0  0  1  0  0  3  0  0  0  0  0  0
  157.2080  213.7170  156.3400 C   0  0  0  0  0  1  0  0  0  0  0  0
  155.8860  212.4670  154.5070 C   0  0  0  0  0  1  0  0  0  0  0  0
  156.2410  211.5270  155.6440 C   0  0  0  0  0  2  0  0  0  0  0  0
  159.2340  211.2490  152.3760 O   0  0  0  0  0  0  0  0  0  0  0  0
  159.7980  212.4760  152.7300 C   0  0  0  0  0  1  0  0  0  0  0  0
  1 25  1  6  0  0  0
  2  3  1  6  0  0  0
  2  4  1  0  0  0  0
  2  1  1  0  0  0  0
  5  6  2  0  0  0  0
  6  4  1  0  0  0  0
  7  8  1  6  0  0  0
  7 10  1  0  0  0  0
  7  6  1  0  0  0  0
 10  9  1  0  0  0  0
 11  1  1  0  0  0  0
 12 11  1  6  0  0  0
 12 14  1  0  0  0  0
 14 13  1  0  0  0  0
 15 16  1  6  0  0  0
 15 19  1  0  0  0  0
 15 12  1  0  0  0  0
 17 16  1  0  0  0  0
 18 17  2  0  0  0  0
 19 21  1  0  0  0  0
 20 21  1  0  0  0  0
 22 20  1  0  0  0  0
 23 22  1  0  0  0  0
 24 23  1  0  0  0  0
 25 26  1  0  0  0  0
 27 26  1  6  0  0  0
 28 27  1  6  0  0  0
 28 30  1  0  0  0  0
 28 29  1  0  0  0  0
 30 29  1  0  0  0  0
 30 31  1  1  0  0  0
 32 33  1  6  0  0  0
 32 31  1  0  0  0  0
 34 35  1  0  0  0  0
 35 32  1  0  0  0  0
 36 37  1  0  0  0  0
 36 27  1  0  0  0  0
M  END
>  <MODEL>
7

>  <REMARK>
 VINA RESULT:      -4.7      3.030      9.013
  Name = 
  22 active torsions:
  status: ('A' for Active; 'I' for Inactive)
    1  A    between atoms: C_1  and  C_5
    2  A    between atoms: C_1  and  C_36
    3  A    between atoms: C_2  and  C_19
    4  A    between atoms: C_2  and  C_35
    5  A    between atoms: C_3  and  N_32
    6  A    between atoms: C_4  and  O_10
    7  A    between atoms: C_4  and  C_13
    8  A    between atoms: C_4  and  O_28
    9  A    between atoms: C_5  and  C_23
   10  A    between atoms: C_6  and  C_31
   11  A    between atoms: C_6  and  C_35
   12  A    between atoms: C_7  and  C_14
   13  A    between atoms: C_7  and  C_27
   14  A    between atoms: C_9  and  C_13
   15  A    between atoms: C_9  and  C_16
   16  A    between atoms: O_10  and  C_14
   17  A    between atoms: O_11  and  C_33
   18  A    between atoms: C_13  and  C_20
   19  A    between atoms: C_14  and  C_31
   20  A    between atoms: C_20  and  C_21
   21  A    between atoms: C_26  and  C_33
   22  A    between atoms: C_27  and  C_33
                            x       y       z     vdW  Elec       q    Type
                         _______ _______ _______ _____ _____    ______ ____

>  <TORSDO>
F 22

$$$$
=
 OpenBabel11062409203D

 37 37  0  0  1  0  0  0  0  0999 V2000
  161.8220  206.9670  152.3470 C   0  0  2  0  0  3  0  0  0  0  0  0
  161.6200  205.4480  152.2850 C   0  0  1  0  0  3  0  0  0  0  0  0
  160.8240  204.9820  153.4880 C   0  0  0  0  0  1  0  0  0  0  0  0
  160.9300  205.0070  150.9980 C   0  0  0  0  0  2  0  0  0  0  0  0
  161.7240  202.8640  151.5780 O   0  0  0  0  0  0  0  0  0  0  0  0
  161.0950  203.5390  150.7780 C   0  0  0  0  0  0  0  0  0  0  0  0
  160.4530  202.9020  149.5850 C   0  0  2  0  0  3  0  0  0  0  0  0
  160.4170  201.5170  149.7480 O   0  0  0  0  0  1  0  0  0  0  0  0
  160.7660  204.4590  147.8130 F   0  0  0  0  0  0  0  0  0  0  0  0
  161.2070  203.2470  148.3110 C   0  0  0  0  0  2  0  0  0  0  0  0
  160.6740  207.6550  152.7650 O   0  0  0  0  0  0  0  0  0  0  0  0
  161.0480  208.2970  153.9500 C   0  0  2  0  0  3  0  0  0  0  0  0
  160.7100  207.3640  155.9320 C   0  0  0  0  0  1  0  0  0  0  0  0
  160.0700  208.0940  154.9300 O   0  0  0  0  0  0  0  0  0  0  0  0
  161.2750  209.7900  153.7010 C   0  0  2  0  0  3  0  0  0  0  0  0
  162.0370  210.3890  154.8750 C   0  0  0  0  0  2  0  0  0  0  0  0
  161.1930  211.3580  155.6390 C   0  0  0  0  0  3  0  0  0  0  0  0
  161.5480  211.7690  156.8540 C   0  0  0  0  0  2  0  0  0  0  0  0
  159.8610  210.5970  153.4640 C   0  0  0  0  0  2  0  0  0  0  0  0
  159.9300  211.6220  152.3150 C   0  0  0  0  0  2  0  0  0  0  0  0
  159.4710  210.5880  152.8680 O   0  0  0  0  0  0  0  0  0  0  0  0
  159.1590  212.8260  152.2580 N   0  0  0  0  0  2  0  0  0  0  0  0
  158.0220  213.0990  153.1270 C   0  0  0  0  0  2  0  0  0  0  0  0
  157.1690  214.2050  152.5350 C   0  0  0  0  0  1  0  0  0  0  0  0
  162.4000  207.5590  151.0580 C   0  0  0  0  0  2  0  0  0  0  0  0
  161.5240  208.6230  150.3930 C   0  0  0  0  0  2  0  0  0  0  0  0
  161.7680  208.7820  148.8910 C   0  0  1  0  0  3  0  0  0  0  0  0
  162.3530  210.1430  148.5620 C   0  0  2  0  0  3  0  0  0  0  0  0
  161.9880  211.0590  149.5630 O   0  0  0  0  0  0  0  0  0  0  0  0
  161.2690  211.1260  148.3540 C   0  0  1  0  0  3  0  0  0  0  0  0
  161.7910  212.2950  147.5320 C   0  0  0  0  0  2  0  0  0  0  0  0
  160.8700  212.6420  146.3610 C   0  0  1  0  0  3  0  0  0  0  0  0
  159.7480  213.5650  146.8010 C   0  0  0  0  0  1  0  0  0  0  0  0
  162.4760  214.4250  145.6670 C   0  0  0  0  0  1  0  0  0  0  0  0
  161.6290  213.2580  145.1940 C   0  0  0  0  0  2  0  0  0  0  0  0
  162.5890  207.7610  148.4020 O   0  0  0  0  0  0  0  0  0  0  0  0
  161.8010  207.0790  147.4730 C   0  0  0  0  0  1  0  0  0  0  0  0
  1 25  1  6  0  0  0
  1 11  1  0  0  0  0
  2  1  1  0  0  0  0
  2  3  1  1  0  0  0
  4  2  1  0  0  0  0
  6  4  1  0  0  0  0
  6  5  2  0  0  0  0
  7  8  1  1  0  0  0
  7  6  1  0  0  0  0
  9 10  1  0  0  0  0
 10  7  1  0  0  0  0
 12 11  1  6  0  0  0
 12 14  1  0  0  0  0
 14 13  1  0  0  0  0
 15 19  1  1  0  0  0
 15 12  1  0  0  0  0
 15 16  1  0  0  0  0
 16 17  1  0  0  0  0
 17 18  2  0  0  0  0
 20 21  1  0  0  0  0
 21 19  1  0  0  0  0
 22 20  1  0  0  0  0
 22 23  1  0  0  0  0
 24 23  1  0  0  0  0
 26 25  1  0  0  0  0
 27 26  1  1  0  0  0
 28 27  1  1  0  0  0
 28 29  1  0  0  0  0
 30 31  1  6  0  0  0
 30 28  1  0  0  0  0
 30 29  1  0  0  0  0
 32 33  1  1  0  0  0
 32 31  1  0  0  0  0
 35 34  1  0  0  0  0
 35 32  1  0  0  0  0
 36 27  1  0  0  0  0
 37 36  1  0  0  0  0
M  END
>  <MODEL>
8

>  <REMARK>
 VINA RESULT:      -4.5      1.785      3.859
  Name = 
  22 active torsions:
  status: ('A' for Active; 'I' for Inactive)
    1  A    between atoms: C_1  and  C_5
    2  A    between atoms: C_1  and  C_36
    3  A    between atoms: C_2  and  C_19
    4  A    between atoms: C_2  and  C_35
    5  A    between atoms: C_3  and  N_32
    6  A    between atoms: C_4  and  O_10
    7  A    between atoms: C_4  and  C_13
    8  A    between atoms: C_4  and  O_28
    9  A    between atoms: C_5  and  C_23
   10  A    between atoms: C_6  and  C_31
   11  A    between atoms: C_6  and  C_35
   12  A    between atoms: C_7  and  C_14
   13  A    between atoms: C_7  and  C_27
   14  A    between atoms: C_9  and  C_13
   15  A    between atoms: C_9  and  C_16
   16  A    between atoms: O_10  and  C_14
   17  A    between atoms: O_11  and  C_33
   18  A    between atoms: C_13  and  C_20
   19  A    between atoms: C_14  and  C_31
   20  A    between atoms: C_20  and  C_21
   21  A    between atoms: C_26  and  C_33
   22  A    between atoms: C_27  and  C_33
                            x       y       z     vdW  Elec       q    Type
                         _______ _______ _______ _____ _____    ______ ____

>  <TORSDO>
F 22

$$$$
=
 OpenBabel11062409203D

 37 37  0  0  1  0  0  0  0  0999 V2000
  161.1040  206.5590  151.3860 C   0  0  2  0  0  3  0  0  0  0  0  0
  161.4360  205.1380  151.8590 C   0  0  1  0  0  3  0  0  0  0  0  0
  161.4630  205.0910  153.3740 C   0  0  0  0  0  1  0  0  0  0  0  0
  160.4510  204.1040  151.3210 C   0  0  0  0  0  2  0  0  0  0  0  0
  161.9430  203.7470  149.5290 O   0  0  0  0  0  0  0  0  0  0  0  0
  161.0810  203.2710  150.2520 C   0  0  0  0  0  0  0  0  0  0  0  0
  160.6670  201.8400  150.1010 C   0  0  2  0  0  3  0  0  0  0  0  0
  161.4920  201.0230  150.8740 O   0  0  0  0  0  1  0  0  0  0  0  0
  161.4710  200.2400  148.5340 F   0  0  0  0  0  0  0  0  0  0  0  0
  160.7340  201.4040  148.6460 C   0  0  0  0  0  2  0  0  0  0  0  0
  160.5760  207.3650  152.4040 O   0  0  0  0  0  0  0  0  0  0  0  0
  160.9700  208.6670  152.0760 C   0  0  2  0  0  3  0  0  0  0  0  0
  162.7050  210.0230  151.8220 C   0  0  0  0  0  1  0  0  0  0  0  0
  162.3290  208.6820  151.7420 O   0  0  0  0  0  0  0  0  0  0  0  0
  160.6780  209.6230  153.2350 C   0  0  2  0  0  3  0  0  0  0  0  0
  160.4570  208.8190  154.5090 C   0  0  0  0  0  2  0  0  0  0  0  0
  161.4940  209.1320  155.5400 C   0  0  0  0  0  3  0  0  0  0  0  0
  161.8080  210.3900  155.8390 C   0  0  0  0  0  2  0  0  0  0  0  0
  159.3760  210.5820  152.9300 C   0  0  0  0  0  2  0  0  0  0  0  0
  159.6490  212.0780  153.1810 C   0  0  0  0  0  2  0  0  0  0  0  0
  158.9500  211.1230  152.7500 O   0  0  0  0  0  0  0  0  0  0  0  0
  159.2790  212.7780  154.3720 N   0  0  0  0  0  2  0  0  0  0  0  0
  158.3620  212.2460  155.3700 C   0  0  0  0  0  2  0  0  0  0  0  0
  157.1350  213.1310  155.4740 C   0  0  0  0  0  1  0  0  0  0  0  0
  160.2340  206.5950  150.1260 C   0  0  0  0  0  2  0  0  0  0  0  0
  160.8070  207.4250  148.9750 C   0  0  0  0  0  2  0  0  0  0  0  0
  162.2070  206.9940  148.5320 C   0  0  1  0  0  3  0  0  0  0  0  0
  162.1820  206.3490  147.1580 C   0  0  2  0  0  3  0  0  0  0  0  0
  160.9240  206.5600  146.5680 O   0  0  0  0  0  0  0  0  0  0  0  0
  161.1580  205.2850  147.1140 C   0  0  1  0  0  3  0  0  0  0  0  0
  161.4780  204.3150  145.9870 C   0  0  0  0  0  2  0  0  0  0  0  0
  160.5140  204.4500  144.8070 C   0  0  1  0  0  3  0  0  0  0  0  0
  161.2000  205.0790  143.6080 C   0  0  0  0  0  1  0  0  0  0  0  0
  160.4590  201.9950  145.2620 C   0  0  0  0  0  1  0  0  0  0  0  0
  159.8900  203.1180  144.4160 C   0  0  0  0  0  2  0  0  0  0  0  0
  163.0970  208.0710  148.5540 O   0  0  0  0  0  0  0  0  0  0  0  0
  162.2950  209.2050  148.4160 C   0  0  0  0  0  1  0  0  0  0  0  0
  1 25  1  6  0  0  0
  1  2  1  0  0  0  0
  1 11  1  0  0  0  0
  2  3  1  1  0  0  0
  4  2  1  0  0  0  0
  5  6  2  0  0  0  0
  6  4  1  0  0  0  0
  7  6  1  0  0  0  0
  7  8  1  1  0  0  0
  9 10  1  0  0  0  0
 10  7  1  0  0  0  0
 12 14  1  1  0  0  0
 12 11  1  0  0  0  0
 12 15  1  0  0  0  0
 14 13  1  0  0  0  0
 15 19  1  6  0  0  0
 15 16  1  0  0  0  0
 16 17  1  0  0  0  0
 17 18  2  0  0  0  0
 20 22  1  0  0  0  0
 21 19  1  0  0  0  0
 21 20  1  0  0  0  0
 22 23  1  0  0  0  0
 23 24  1  0  0  0  0
 26 25  1  0  0  0  0
 27 36  1  0  0  0  0
 27 26  1  6  0  0  0
 28 27  1  1  0  0  0
 29 30  1  0  0  0  0
 29 28  1  0  0  0  0
 30 31  1  6  0  0  0
 30 28  1  0  0  0  0
 32 33  1  6  0  0  0
 32 31  1  0  0  0  0
 35 32  1  0  0  0  0
 35 34  1  0  0  0  0
 37 36  1  0  0  0  0
M  END
>  <MODEL>
9

>  <REMARK>
 VINA RESULT:      -4.4      1.898      2.694
  Name = 
  22 active torsions:
  status: ('A' for Active; 'I' for Inactive)
    1  A    between atoms: C_1  and  C_5
    2  A    between atoms: C_1  and  C_36
    3  A    between atoms: C_2  and  C_19
    4  A    between atoms: C_2  and  C_35
    5  A    between atoms: C_3  and  N_32
    6  A    between atoms: C_4  and  O_10
    7  A    between atoms: C_4  and  C_13
    8  A    between atoms: C_4  and  O_28
    9  A    between atoms: C_5  and  C_23
   10  A    between atoms: C_6  and  C_31
   11  A    between atoms: C_6  and  C_35
   12  A    between atoms: C_7  and  C_14
   13  A    between atoms: C_7  and  C_27
   14  A    between atoms: C_9  and  C_13
   15  A    between atoms: C_9  and  C_16
   16  A    between atoms: O_10  and  C_14
   17  A    between atoms: O_11  and  C_33
   18  A    between atoms: C_13  and  C_20
   19  A    between atoms: C_14  and  C_31
   20  A    between atoms: C_20  and  C_21
   21  A    between atoms: C_26  and  C_33
   22  A    between atoms: C_27  and  C_33
                            x       y       z     vdW  Elec       q    Type
                         _______ _______ _______ _____ _____    ______ ____

>  <TORSDO>
F 22

$$$$
