=
 OpenBabel11062409013D

 37 44  0  0  1  0  0  0  0  0999 V2000
  160.3260  208.0060  151.5700 O   0  0  0  0  0  0  0  0  0  0  0  0
  162.4030  213.0710  149.0630 C   0  0  0  0  0  3  0  0  0  0  0  0
  159.9590  210.7140  156.8390 C   0  0  0  0  0  2  0  0  0  0  0  0
  159.5180  212.1970  153.1430 C   0  0  0  0  0  0  0  0  0  0  0  0
  161.1110  206.8580  151.8410 C   0  0  1  0  0  3  0  0  0  0  0  0
  161.0710  212.3560  149.1870 C   0  0  2  0  0  0  0  0  0  0  0  0
  161.0450  211.0750  149.8770 C   0  0  2  0  0  3  0  0  0  0  0  0
  160.3220  212.3130  147.8780 C   0  0  0  0  0  3  0  0  0  0  0  0
  160.6080  212.7230  155.3640 C   0  0  1  0  0  3  0  0  0  0  0  0
  159.5260  211.1070  152.1090 C   0  0  1  0  0  3  0  0  0  0  0  0
  160.2350  211.8290  154.2080 C   0  0  0  0  0  0  0  0  0  0  0  0
  160.1800  211.5960  150.9200 N   0  0  0  0  0  0  0  0  0  0  0  0
  159.7840  213.2620  145.8140 F   0  0  0  0  0  0  0  0  0  0  0  0
  159.4790  212.9550  156.1760 O   0  0  0  0  0  0  0  0  0  0  0  0
  162.4460  206.9050  151.3170 O   0  0  0  0  0  0  0  0  0  0  0  0
  161.4100  214.4530  147.2600 C   0  0  0  0  0  2  0  0  0  0  0  0
  160.4900  213.2900  146.9730 C   0  0  0  0  0  0  0  0  0  0  0  0
  160.8500  210.5430  153.9130 C   0  0  0  0  0  0  0  0  0  0  0  0
  161.4280  209.0110  155.7280 C   0  0  0  0  0  2  0  0  0  0  0  0
  158.9580  214.3110  151.8910 C   0  0  0  0  0  3  0  0  0  0  0  0
  158.1230  213.9930  154.0120 F   0  0  0  0  0  0  0  0  0  0  0  0
  161.8130  209.9030  154.6910 O   0  0  0  0  0  0  0  0  0  0  0  0
  162.7100  208.0660  150.5410 C   0  0  2  0  0  3  0  0  0  0  0  0
  162.3860  210.6340  150.4980 C   0  0  0  0  0  2  0  0  0  0  0  0
  158.8510  213.5150  152.9740 C   0  0  0  0  0  0  0  0  0  0  0  0
  160.4150  210.1030  152.7470 C   0  0  0  0  0  0  0  0  0  0  0  0
  160.4780  212.1430  156.7400 C   0  0  1  0  0  3  0  0  0  0  0  0
  160.2260  212.9200  150.2920 C   0  0  0  0  0  0  0  0  0  0  0  0
  161.1290  209.7620  157.0180 C   0  0  0  0  0  2  0  0  0  0  0  0
  162.3290  209.3270  151.3220 C   0  0  1  0  0  3  0  0  0  0  0  0
  162.5570  214.0460  148.1550 C   0  0  0  0  0  3  0  0  0  0  0  0
  161.0520  209.0790  151.9820 N   0  0  0  0  0  0  0  0  0  0  0  0
  159.7130  214.0930  150.6350 C   0  0  0  0  0  3  0  0  0  0  0  0
  162.0480  207.9710  149.1660 C   0  0  0  0  0  2  0  0  0  0  0  0
  162.8990  207.3160  148.2760 O   0  0  0  0  0  1  0  0  0  0  0  0
  161.1750  205.1420  153.4320 C   0  0  0  0  0  1  0  0  0  0  0  0
  161.1390  206.5840  153.2710 N   0  0  0  0  0  2  0  0  0  0  0  0
  1  5  1  0  0  0  0
  1 32  1  0  0  0  0
  2  6  1  0  0  0  0
  3 29  1  0  0  0  0
  4 11  2  0  0  0  0
  5 37  1  1  0  0  0
  6  8  1  6  0  0  0
  6  7  1  0  0  0  0
  6 28  1  0  0  0  0
  7 24  1  1  0  0  0
  7 12  1  0  0  0  0
  9 11  1  6  0  0  0
  9 14  1  0  0  0  0
  9 27  1  0  0  0  0
 10 26  1  1  0  0  0
 10  4  1  0  0  0  0
 12 10  1  0  0  0  0
 13 17  1  0  0  0  0
 14 27  1  0  0  0  0
 15  5  1  0  0  0  0
 16 31  1  0  0  0  0
 17 16  1  0  0  0  0
 17  8  2  0  0  0  0
 18 11  1  0  0  0  0
 18 22  1  0  0  0  0
 19 29  1  0  0  0  0
 20 25  2  0  0  0  0
 22 19  1  0  0  0  0
 23 34  1  6  0  0  0
 23 15  1  0  0  0  0
 23 30  1  0  0  0  0
 25  4  1  0  0  0  0
 25 21  1  0  0  0  0
 26 18  2  0  0  0  0
 27  3  1  6  0  0  0
 28 33  2  0  0  0  0
 28 12  1  0  0  0  0
 30 24  1  6  0  0  0
 30 32  1  0  0  0  0
 31  2  2  0  0  0  0
 32 26  1  0  0  0  0
 33 20  1  0  0  0  0
 35 34  1  0  0  0  0
 37 36  1  0  0  0  0
M  END
>  <MODEL>
1

>  <REMARK>
 VINA RESULT:      -3.9      0.000      0.000
  Name = 
  2 active torsions:
  status: ('A' for Active; 'I' for Inactive)
    1  A    between atoms: C_5  and  N_23
    2  A    between atoms: C_11  and  C_26
                            x       y       z     vdW  Elec       q    Type
                         _______ _______ _______ _____ _____    ______ ____

>  <TORSDO>
F 2

$$$$
=
 OpenBabel11062409013D

 37 44  0  0  1  0  0  0  0  0999 V2000
  157.2560  212.3690  152.5340 O   0  0  0  0  0  0  0  0  0  0  0  0
  161.7350  210.1130  155.8660 C   0  0  0  0  0  3  0  0  0  0  0  0
  160.9360  212.9680  147.9150 C   0  0  0  0  0  2  0  0  0  0  0  0
  160.9180  210.2510  150.8610 C   0  0  0  0  0  0  0  0  0  0  0  0
  156.7060  213.6650  152.6900 C   0  0  1  0  0  3  0  0  0  0  0  0
  160.5780  209.5750  155.0460 C   0  0  2  0  0  0  0  0  0  0  0  0
  159.6820  210.5330  154.4180 C   0  0  2  0  0  3  0  0  0  0  0  0
  159.8280  208.4810  155.7660 C   0  0  0  0  0  3  0  0  0  0  0  0
  162.4950  211.7360  149.5540 C   0  0  1  0  0  3  0  0  0  0  0  0
  159.6940  210.3820  151.7210 C   0  0  1  0  0  3  0  0  0  0  0  0
  161.2330  211.4330  150.3230 C   0  0  0  0  0  0  0  0  0  0  0  0
  160.0490  210.0820  153.0870 N   0  0  0  0  0  0  0  0  0  0  0  0
  159.7930  206.6880  157.2610 F   0  0  0  0  0  0  0  0  0  0  0  0
  162.4320  211.1450  148.2760 O   0  0  0  0  0  0  0  0  0  0  0  0
  157.1810  214.3850  153.8370 O   0  0  0  0  0  0  0  0  0  0  0  0
  161.9430  207.8740  156.9090 C   0  0  0  0  0  2  0  0  0  0  0  0
  160.4670  207.6930  156.6450 C   0  0  0  0  0  0  0  0  0  0  0  0
  160.3260  212.4320  150.8700 C   0  0  0  0  0  0  0  0  0  0  0  0
  159.8120  214.4530  149.5950 C   0  0  0  0  0  2  0  0  0  0  0  0
  162.0990  208.1810  151.6780 C   0  0  0  0  0  3  0  0  0  0  0  0
  162.0830  208.6650  149.4280 F   0  0  0  0  0  0  0  0  0  0  0  0
  160.4350  213.8110  150.6980 O   0  0  0  0  0  0  0  0  0  0  0  0
  158.0550  213.6250  154.6610 C   0  0  2  0  0  3  0  0  0  0  0  0
  160.0790  212.0140  154.5830 C   0  0  0  0  0  2  0  0  0  0  0  0
  161.6940  208.9950  150.6830 C   0  0  0  0  0  0  0  0  0  0  0  0
  159.4190  211.8390  151.6240 C   0  0  0  0  0  0  0  0  0  0  0  0
  162.3490  212.5480  148.3030 C   0  0  1  0  0  3  0  0  0  0  0  0
  161.0090  209.1420  153.6750 C   0  0  0  0  0  0  0  0  0  0  0  0
  160.6960  214.4010  148.3570 C   0  0  0  0  0  2  0  0  0  0  0  0
  159.1860  213.0220  153.8240 C   0  0  1  0  0  3  0  0  0  0  0  0
  162.3640  209.3150  156.7410 C   0  0  0  0  0  3  0  0  0  0  0  0
  158.6070  212.5100  152.5870 N   0  0  0  0  0  0  0  0  0  0  0  0
  161.8790  208.2990  153.1390 C   0  0  0  0  0  3  0  0  0  0  0  0
  157.2800  212.5940  155.4820 C   0  0  0  0  0  2  0  0  0  0  0  0
  156.3780  213.2420  156.3260 O   0  0  0  0  0  1  0  0  0  0  0  0
  155.7920  214.1670  150.5950 C   0  0  0  0  0  1  0  0  0  0  0  0
  156.9050  214.4530  151.4820 N   0  0  0  0  0  2  0  0  0  0  0  0
  1 32  1  0  0  0  0
  1  5  1  0  0  0  0
  2 31  2  0  0  0  0
  3 29  1  0  0  0  0
  5 37  1  6  0  0  0
  5 15  1  0  0  0  0
  6  8  1  1  0  0  0
  6  2  1  0  0  0  0
  7 24  1  6  0  0  0
  7  6  1  0  0  0  0
  8 17  2  0  0  0  0
  9 14  1  6  0  0  0
  9 11  1  0  0  0  0
 10  4  1  6  0  0  0
 10 12  1  0  0  0  0
 11  4  2  0  0  0  0
 11 18  1  0  0  0  0
 12 28  1  0  0  0  0
 12  7  1  0  0  0  0
 14 27  1  0  0  0  0
 15 23  1  0  0  0  0
 17 16  1  0  0  0  0
 17 13  1  0  0  0  0
 18 26  2  0  0  0  0
 19 22  1  0  0  0  0
 20 33  1  0  0  0  0
 21 25  1  0  0  0  0
 22 18  1  0  0  0  0
 23 34  1  6  0  0  0
 25  4  1  0  0  0  0
 25 20  2  0  0  0  0
 26 10  1  0  0  0  0
 26 32  1  0  0  0  0
 27  3  1  1  0  0  0
 27  9  1  0  0  0  0
 28  6  1  0  0  0  0
 29 19  1  0  0  0  0
 30 24  1  1  0  0  0
 30 23  1  0  0  0  0
 31 16  1  0  0  0  0
 32 30  1  0  0  0  0
 33 28  2  0  0  0  0
 34 35  1  0  0  0  0
 36 37  1  0  0  0  0
M  END
>  <MODEL>
2

>  <REMARK>
 VINA RESULT:      -2.9      2.819      7.760
  Name = 
  2 active torsions:
  status: ('A' for Active; 'I' for Inactive)
    1  A    between atoms: C_5  and  N_23
    2  A    between atoms: C_11  and  C_26
                            x       y       z     vdW  Elec       q    Type
                         _______ _______ _______ _____ _____    ______ ____

>  <TORSDO>
F 2

$$$$
=
 OpenBabel11062409013D

 37 44  0  0  1  0  0  0  0  0999 V2000
  162.9270  210.1260  150.3750 O   0  0  0  0  0  0  0  0  0  0  0  0
  160.0910  204.9030  151.3320 C   0  0  0  0  0  3  0  0  0  0  0  0
  159.4710  212.7900  154.3990 C   0  0  0  0  0  2  0  0  0  0  0  0
  160.7860  209.0080  154.2290 C   0  0  0  0  0  0  0  0  0  0  0  0
  162.7720  210.9310  149.2190 C   0  0  1  0  0  3  0  0  0  0  0  0
  161.3720  205.5740  151.7910 C   0  0  2  0  0  0  0  0  0  0  0  0
  161.6920  206.8830  151.2420 C   0  0  2  0  0  3  0  0  0  0  0  0
  162.5530  204.6360  151.7510 C   0  0  0  0  0  3  0  0  0  0  0  0
  158.6980  210.3530  154.7090 C   0  0  1  0  0  3  0  0  0  0  0  0
  161.7820  208.8230  153.1190 C   0  0  1  0  0  3  0  0  0  0  0  0
  159.9390  209.9970  153.9290 C   0  0  0  0  0  0  0  0  0  0  0  0
  161.6050  207.5090  152.5500 N   0  0  0  0  0  0  0  0  0  0  0  0
  163.4470  202.4860  151.9270 F   0  0  0  0  0  0  0  0  0  0  0  0
  159.0540  210.9940  155.9130 O   0  0  0  0  0  0  0  0  0  0  0  0
  161.9940  210.3340  148.1710 O   0  0  0  0  0  0  0  0  0  0  0  0
  160.9950  202.7590  152.1870 C   0  0  0  0  0  2  0  0  0  0  0  0
  162.3740  203.3180  151.9260 C   0  0  0  0  0  0  0  0  0  0  0  0
  160.2360  210.4490  152.5770 C   0  0  0  0  0  0  0  0  0  0  0  0
  159.7090  212.7380  151.9020 C   0  0  0  0  0  2  0  0  0  0  0  0
  160.7610  206.8250  155.4870 C   0  0  0  0  0  3  0  0  0  0  0  0
  160.5610  208.8040  156.6450 F   0  0  0  0  0  0  0  0  0  0  0  0
  159.4680  211.3390  151.8290 O   0  0  0  0  0  0  0  0  0  0  0  0
  161.5950  208.9990  148.4530 C   0  0  2  0  0  3  0  0  0  0  0  0
  160.6180  207.4890  150.3140 C   0  0  0  0  0  2  0  0  0  0  0  0
  160.7260  208.1730  155.4580 C   0  0  0  0  0  0  0  0  0  0  0  0
  161.3090  209.8240  152.1290 C   0  0  0  0  0  0  0  0  0  0  0  0
  158.4410  211.8100  154.9470 C   0  0  1  0  0  3  0  0  0  0  0  0
  161.2220  206.2210  153.1370 C   0  0  0  0  0  0  0  0  0  0  0  0
  158.9760  213.3610  153.0820 C   0  0  0  0  0  2  0  0  0  0  0  0
  160.9120  208.9240  149.8210 C   0  0  1  0  0  3  0  0  0  0  0  0
  159.9250  203.5850  151.5140 C   0  0  0  0  0  3  0  0  0  0  0  0
  161.6800  209.7420  150.7520 N   0  0  0  0  0  0  0  0  0  0  0  0
  160.8800  205.8630  154.3660 C   0  0  0  0  0  3  0  0  0  0  0  0
  162.7670  208.0290  148.2970 C   0  0  0  0  0  2  0  0  0  0  0  0
  162.3790  206.9400  147.5160 O   0  0  0  0  0  1  0  0  0  0  0  0
  161.4110  212.6760  148.4550 C   0  0  0  0  0  1  0  0  0  0  0  0
  162.2250  212.2340  149.5730 N   0  0  0  0  0  2  0  0  0  0  0  0
  1 32  1  0  0  0  0
  2 31  2  0  0  0  0
  4 25  1  0  0  0  0
  5 37  1  1  0  0  0
  5  1  1  0  0  0  0
  6  2  1  6  0  0  0
  6 28  1  0  0  0  0
  7 24  1  6  0  0  0
  7  6  1  0  0  0  0
  7 12  1  0  0  0  0
  8  6  1  0  0  0  0
  8 17  2  0  0  0  0
  9 11  1  6  0  0  0
  9 27  1  0  0  0  0
  9 14  1  0  0  0  0
 10 26  1  6  0  0  0
 10  4  1  0  0  0  0
 11  4  2  0  0  0  0
 12 10  1  0  0  0  0
 12 28  1  0  0  0  0
 15 23  1  0  0  0  0
 15  5  1  0  0  0  0
 17 13  1  0  0  0  0
 17 16  1  0  0  0  0
 18 11  1  0  0  0  0
 19 29  1  0  0  0  0
 22 19  1  0  0  0  0
 22 18  1  0  0  0  0
 23 34  1  1  0  0  0
 23 30  1  0  0  0  0
 25 20  2  0  0  0  0
 25 21  1  0  0  0  0
 26 18  2  0  0  0  0
 27  3  1  6  0  0  0
 27 14  1  0  0  0  0
 28 33  2  0  0  0  0
 29  3  1  0  0  0  0
 30 24  1  1  0  0  0
 30 32  1  0  0  0  0
 31 16  1  0  0  0  0
 32 26  1  0  0  0  0
 33 20  1  0  0  0  0
 35 34  1  0  0  0  0
 36 37  1  0  0  0  0
M  END
>  <MODEL>
3

>  <REMARK>
 VINA RESULT:      -1.6      2.984      6.328
  Name = 
  2 active torsions:
  status: ('A' for Active; 'I' for Inactive)
    1  A    between atoms: C_5  and  N_23
    2  A    between atoms: C_11  and  C_26
                            x       y       z     vdW  Elec       q    Type
                         _______ _______ _______ _____ _____    ______ ____

>  <TORSDO>
F 2

$$$$
=
 OpenBabel11062409013D

 37 44  0  0  1  0  0  0  0  0999 V2000
  160.1670  206.8510  149.7430 O   0  0  0  0  0  0  0  0  0  0  0  0
  163.2840  211.8280  148.4170 C   0  0  0  0  0  3  0  0  0  0  0  0
  160.6540  208.0380  155.5380 C   0  0  0  0  0  2  0  0  0  0  0  0
  160.4340  210.5280  152.4060 C   0  0  0  0  0  0  0  0  0  0  0  0
  160.6680  205.5300  149.6310 C   0  0  1  0  0  3  0  0  0  0  0  0
  161.8270  211.4140  148.4870 C   0  0  2  0  0  0  0  0  0  0  0  0
  161.5250  210.0320  148.8260 C   0  0  2  0  0  3  0  0  0  0  0  0
  161.0390  211.8920  147.2920 C   0  0  0  0  0  3  0  0  0  0  0  0
  161.7020  210.1810  154.5670 C   0  0  1  0  0  3  0  0  0  0  0  0
  160.1440  209.7850  151.1330 C   0  0  1  0  0  3  0  0  0  0  0  0
  161.0840  209.7380  153.2650 C   0  0  0  0  0  0  0  0  0  0  0  0
  160.8490  210.4250  150.0490 N   0  0  0  0  0  0  0  0  0  0  0  0
  160.6620  213.4600  145.6040 F   0  0  0  0  0  0  0  0  0  0  0  0
  160.6920  210.4230  155.5210 O   0  0  0  0  0  0  0  0  0  0  0  0
  161.9550  205.4260  149.0060 O   0  0  0  0  0  0  0  0  0  0  0  0
  162.5780  213.8290  147.1360 C   0  0  0  0  0  2  0  0  0  0  0  0
  161.3980  213.0170  146.6550 C   0  0  0  0  0  0  0  0  0  0  0  0
  161.3660  208.4780  152.5910 C   0  0  0  0  0  0  0  0  0  0  0  0
  161.6340  206.4240  153.8870 C   0  0  0  0  0  2  0  0  0  0  0  0
  160.3410  212.9720  151.7980 C   0  0  0  0  0  3  0  0  0  0  0  0
  159.5370  212.2790  153.8410 F   0  0  0  0  0  0  0  0  0  0  0  0
  162.1790  207.4580  153.0800 O   0  0  0  0  0  0  0  0  0  0  0  0
  162.4550  206.6670  148.5300 C   0  0  2  0  0  3  0  0  0  0  0  0
  162.7470  209.1570  149.1760 C   0  0  0  0  0  2  0  0  0  0  0  0
  160.0910  211.9550  152.6480 C   0  0  0  0  0  0  0  0  0  0  0  0
  160.7940  208.4770  151.4010 C   0  0  0  0  0  0  0  0  0  0  0  0
  161.4920  209.2920  155.7560 C   0  0  1  0  0  3  0  0  0  0  0  0
  161.1820  211.8270  149.7780 C   0  0  0  0  0  0  0  0  0  0  0  0
  161.5720  206.8430  155.3490 C   0  0  0  0  0  2  0  0  0  0  0  0
  162.4140  207.7200  149.6400 C   0  0  1  0  0  3  0  0  0  0  0  0
  163.6290  212.9550  147.7770 C   0  0  0  0  0  3  0  0  0  0  0  0
  161.1410  207.5870  150.3400 N   0  0  0  0  0  0  0  0  0  0  0  0
  160.9750  212.9440  150.4590 C   0  0  0  0  0  3  0  0  0  0  0  0
  161.7380  207.0960  147.2490 C   0  0  0  0  0  2  0  0  0  0  0  0
  162.0260  206.1980  146.2220 O   0  0  0  0  0  1  0  0  0  0  0  0
  160.8830  203.4590  150.7020 C   0  0  0  0  0  1  0  0  0  0  0  0
  160.6850  204.8790  150.9340 N   0  0  0  0  0  2  0  0  0  0  0  0
  1 32  1  0  0  0  0
  2  6  1  0  0  0  0
  4 25  1  0  0  0  0
  4 11  2  0  0  0  0
  5  1  1  0  0  0  0
  5 37  1  1  0  0  0
  6  8  1  6  0  0  0
  6  7  1  0  0  0  0
  6 28  1  0  0  0  0
  7 24  1  1  0  0  0
  7 12  1  0  0  0  0
  9 11  1  6  0  0  0
  9 14  1  0  0  0  0
  9 27  1  0  0  0  0
 10 26  1  1  0  0  0
 10  4  1  0  0  0  0
 12 10  1  0  0  0  0
 13 17  1  0  0  0  0
 14 27  1  0  0  0  0
 15  5  1  0  0  0  0
 16 31  1  0  0  0  0
 17 16  1  0  0  0  0
 17  8  2  0  0  0  0
 18 22  1  0  0  0  0
 18 11  1  0  0  0  0
 19 29  1  0  0  0  0
 20 25  2  0  0  0  0
 22 19  1  0  0  0  0
 23 34  1  6  0  0  0
 23 15  1  0  0  0  0
 23 30  1  0  0  0  0
 25 21  1  0  0  0  0
 26 18  2  0  0  0  0
 27  3  1  6  0  0  0
 28 12  1  0  0  0  0
 28 33  2  0  0  0  0
 29  3  1  0  0  0  0
 30 24  1  6  0  0  0
 30 32  1  0  0  0  0
 31  2  2  0  0  0  0
 32 26  1  0  0  0  0
 33 20  1  0  0  0  0
 35 34  1  0  0  0  0
 36 37  1  0  0  0  0
M  END
>  <MODEL>
4

>  <REMARK>
 VINA RESULT:      -1.1      1.726      2.295
  Name = 
  2 active torsions:
  status: ('A' for Active; 'I' for Inactive)
    1  A    between atoms: C_5  and  N_23
    2  A    between atoms: C_11  and  C_26
                            x       y       z     vdW  Elec       q    Type
                         _______ _______ _______ _____ _____    ______ ____

>  <TORSDO>
F 2

$$$$
