=
 OpenBabel11052422373D

 31 35  0  0  1  0  0  0  0  0999 V2000
  160.9460  207.6140  154.1700 C   0  0  0  0  0  0  0  0  0  0  0  0
  161.1490  209.0380  154.0480 N   0  0  0  0  0  0  0  0  0  0  0  0
  160.3060  207.1440  155.1480 O   0  0  0  0  0  0  0  0  0  0  0  0
  160.4670  209.9740  154.9470 C   0  0  1  0  0  0  0  0  0  0  0  0
  160.5380  211.3500  154.4860 C   0  0  1  0  0  3  0  0  0  0  0  0
  158.6650  211.2960  153.1880 C   0  0  0  0  0  2  0  0  0  0  0  0
  159.1700  210.6710  154.4810 C   0  0  1  0  0  3  0  0  0  0  0  0
  160.7830  211.4750  156.8310 N   0  0  0  0  0  2  0  0  0  0  0  0
  158.5690  212.8500  153.3080 C   0  0  0  0  0  2  0  0  0  0  0  0
  160.8660  210.0630  156.4220 C   0  0  0  0  0  2  0  0  0  0  0  0
  158.4220  213.4040  154.7520 C   0  0  0  0  0  2  0  0  0  0  0  0
  159.8720  214.2680  156.4560 O   0  0  0  0  0  0  0  0  0  0  0  0
  160.5340  212.1840  155.6460 N   0  0  0  0  0  0  0  0  0  0  0  0
  159.6670  213.3360  155.6350 C   0  0  0  0  0  0  0  0  0  0  0  0
  161.1940  205.3590  153.5230 O   0  0  0  0  0  1  0  0  0  0  0  0
  161.4440  206.6710  153.1250 C   0  0  0  0  0  2  0  0  0  0  0  0
  161.8880  209.5780  152.9080 C   0  0  0  0  0  2  0  0  0  0  0  0
  161.1950  209.2240  151.6020 C   0  0  0  0  0  2  0  0  0  0  0  0
  162.1700  209.2720  150.4420 C   0  0  0  0  0  2  0  0  0  0  0  0
  162.4390  207.9730  150.0100 O   0  0  0  0  0  0  0  0  0  0  0  0
  161.2330  207.5120  149.4750 C   0  0  0  0  0  2  0  0  0  0  0  0
  160.8670  202.2520  149.0670 C   0  0  0  0  0  0  0  0  0  0  0  0
  160.5370  204.5290  150.1660 C   0  0  0  0  0  2  0  0  0  0  0  0
  161.9840  205.0790  146.8420 C   0  0  0  0  0  3  0  0  0  0  0  0
  161.9410  206.3710  147.3700 C   0  0  0  0  0  3  0  0  0  0  0  0
  160.5570  201.0340  149.0690 O   0  0  0  0  0  0  0  0  0  0  0  0
  161.4670  206.3430  148.6360 N   0  0  0  0  0  0  0  0  0  0  0  0
  160.8510  203.0340  150.3640 C   0  0  0  0  0  2  0  0  0  0  0  0
  161.5120  204.2830  147.8640 C   0  0  0  0  0  0  0  0  0  0  0  0
  161.2160  205.0620  148.9400 C   0  0  0  0  0  0  0  0  0  0  0  0
  161.3030  202.8740  147.8510 N   0  0  0  0  0  2  0  0  0  0  0  0
  1  3  2  0  0  0  0
  2  1  1  0  0  0  0
  4  2  1  6  0  0  0
  4 10  1  0  0  0  0
  5  4  1  0  0  0  0
  5 13  1  1  0  0  0
  6  9  1  0  0  0  0
  7  6  1  6  0  0  0
  7  5  1  0  0  0  0
  7  4  1  0  0  0  0
  9 11  1  0  0  0  0
 10  8  1  0  0  0  0
 11 14  1  0  0  0  0
 13  8  1  0  0  0  0
 14 13  1  0  0  0  0
 14 12  2  0  0  0  0
 16 15  1  0  0  0  0
 16  1  1  0  0  0  0
 17  2  1  0  0  0  0
 18 17  1  0  0  0  0
 19 18  1  0  0  0  0
 20 19  1  0  0  0  0
 21 20  1  0  0  0  0
 22 26  2  0  0  0  0
 22 28  1  0  0  0  0
 23 28  1  0  0  0  0
 24 25  2  0  0  0  0
 24 29  1  0  0  0  0
 25 27  1  0  0  0  0
 27 30  1  0  0  0  0
 27 21  1  0  0  0  0
 29 30  2  0  0  0  0
 30 23  1  0  0  0  0
 31 29  1  0  0  0  0
 31 22  1  0  0  0  0
M  END
>  <MODEL>
1

>  <REMARK>
 VINA RESULT:      -7.8      0.000      0.000
  Name = 
  8 active torsions:
  status: ('A' for Active; 'I' for Inactive)
    1  A    between atoms: C_2  and  C_28
    2  A    between atoms: C_4  and  N_12
    3  A    between atoms: N_9  and  C_23
    4  A    between atoms: N_12  and  C_25
    5  A    between atoms: O_15  and  C_20
    6  A    between atoms: O_15  and  C_23
    7  A    between atoms: C_20  and  C_27
    8  A    between atoms: C_25  and  C_27
                            x       y       z     vdW  Elec       q    Type
                         _______ _______ _______ _____ _____    ______ ____

>  <TORSDO>
F 8

$$$$
=
 OpenBabel11052422373D

 31 35  0  0  1  0  0  0  0  0999 V2000
  161.9580  209.0240  151.3720 C   0  0  0  0  0  0  0  0  0  0  0  0
  161.2430  208.9030  152.6190 N   0  0  0  0  0  0  0  0  0  0  0  0
  162.0070  210.1300  150.7710 O   0  0  0  0  0  0  0  0  0  0  0  0
  160.7190  210.0890  153.3040 C   0  0  1  0  0  0  0  0  0  0  0  0
  160.4670  209.8580  154.7170 C   0  0  1  0  0  3  0  0  0  0  0  0
  162.5520  210.4060  155.4550 C   0  0  0  0  0  2  0  0  0  0  0  0
  161.5950  210.8180  154.3460 C   0  0  1  0  0  3  0  0  0  0  0  0
  158.6830  211.2240  153.9900 N   0  0  0  0  0  2  0  0  0  0  0  0
  161.9480  210.6970  156.8640 C   0  0  0  0  0  2  0  0  0  0  0  0
  159.4370  210.7640  152.8110 C   0  0  0  0  0  2  0  0  0  0  0  0
  160.8610  211.8050  156.9120 C   0  0  0  0  0  2  0  0  0  0  0  0
  158.4650  211.9150  156.8610 O   0  0  0  0  0  0  0  0  0  0  0  0
  159.3740  210.6970  155.0920 N   0  0  0  0  0  0  0  0  0  0  0  0
  159.4990  211.4450  156.3190 C   0  0  0  0  0  0  0  0  0  0  0  0
  162.4860  207.8240  149.4100 O   0  0  0  0  0  1  0  0  0  0  0  0
  162.6950  207.8640  150.7880 C   0  0  0  0  0  2  0  0  0  0  0  0
  161.1950  207.6170  153.3140 C   0  0  0  0  0  2  0  0  0  0  0  0
  160.9050  206.4880  152.3380 C   0  0  0  0  0  2  0  0  0  0  0  0
  161.3200  205.1510  152.9180 C   0  0  0  0  0  2  0  0  0  0  0  0
  161.6770  204.2880  151.8810 O   0  0  0  0  0  0  0  0  0  0  0  0
  160.4760  203.7050  151.4660 C   0  0  0  0  0  2  0  0  0  0  0  0
  161.5840  204.1470  146.3140 C   0  0  0  0  0  0  0  0  0  0  0  0
  161.2670  204.9740  148.7050 C   0  0  0  0  0  2  0  0  0  0  0  0
  160.9080  201.3240  148.7170 C   0  0  0  0  0  3  0  0  0  0  0  0
  160.6230  201.6610  150.0420 C   0  0  0  0  0  3  0  0  0  0  0  0
  162.0210  204.4080  145.1650 O   0  0  0  0  0  0  0  0  0  0  0  0
  160.6660  203.0020  150.2040 N   0  0  0  0  0  0  0  0  0  0  0  0
  161.0880  205.2670  147.2030 C   0  0  0  0  0  2  0  0  0  0  0  0
  161.1190  202.5400  148.1000 C   0  0  0  0  0  0  0  0  0  0  0  0
  160.9580  203.5390  149.0110 C   0  0  0  0  0  0  0  0  0  0  0  0
  161.4890  202.7820  146.7470 N   0  0  0  0  0  2  0  0  0  0  0  0
  1  2  1  0  0  0  0
  2 17  1  0  0  0  0
  3  1  2  0  0  0  0
  4  2  1  6  0  0  0
  4  7  1  0  0  0  0
  4  5  1  0  0  0  0
  5 13  1  1  0  0  0
  6  9  1  0  0  0  0
  7  5  1  0  0  0  0
  7  6  1  6  0  0  0
  8 13  1  0  0  0  0
  9 11  1  0  0  0  0
 10  4  1  0  0  0  0
 10  8  1  0  0  0  0
 13 14  1  0  0  0  0
 14 12  2  0  0  0  0
 14 11  1  0  0  0  0
 15 16  1  0  0  0  0
 16  1  1  0  0  0  0
 18 19  1  0  0  0  0
 18 17  1  0  0  0  0
 20 19  1  0  0  0  0
 21 20  1  0  0  0  0
 22 31  1  0  0  0  0
 22 28  1  0  0  0  0
 23 30  1  0  0  0  0
 24 25  2  0  0  0  0
 25 27  1  0  0  0  0
 26 22  2  0  0  0  0
 27 21  1  0  0  0  0
 28 23  1  0  0  0  0
 29 24  1  0  0  0  0
 29 30  2  0  0  0  0
 30 27  1  0  0  0  0
 31 29  1  0  0  0  0
M  END
>  <MODEL>
2

>  <REMARK>
 VINA RESULT:      -7.5      1.982      3.579
  Name = 
  8 active torsions:
  status: ('A' for Active; 'I' for Inactive)
    1  A    between atoms: C_2  and  C_28
    2  A    between atoms: C_4  and  N_12
    3  A    between atoms: N_9  and  C_23
    4  A    between atoms: N_12  and  C_25
    5  A    between atoms: O_15  and  C_20
    6  A    between atoms: O_15  and  C_23
    7  A    between atoms: C_20  and  C_27
    8  A    between atoms: C_25  and  C_27
                            x       y       z     vdW  Elec       q    Type
                         _______ _______ _______ _____ _____    ______ ____

>  <TORSDO>
F 8

$$$$
=
 OpenBabel11052422373D

 31 35  0  0  1  0  0  0  0  0999 V2000
  161.6600  209.5800  151.2260 C   0  0  0  0  0  0  0  0  0  0  0  0
  160.7730  209.3120  152.3310 N   0  0  0  0  0  0  0  0  0  0  0  0
  161.9320  210.7670  150.9010 O   0  0  0  0  0  0  0  0  0  0  0  0
  160.3180  210.3950  153.2100 C   0  0  1  0  0  0  0  0  0  0  0  0
  160.1080  209.9570  154.5800 C   0  0  1  0  0  3  0  0  0  0  0  0
  162.2380  210.3190  155.3060 C   0  0  0  0  0  2  0  0  0  0  0  0
  161.2580  210.9270  154.3140 C   0  0  1  0  0  3  0  0  0  0  0  0
  158.3520  211.4740  154.1450 N   0  0  0  0  0  2  0  0  0  0  0  0
  161.6960  210.4090  156.7670 C   0  0  0  0  0  2  0  0  0  0  0  0
  159.0450  211.1780  152.8790 C   0  0  0  0  0  2  0  0  0  0  0  0
  160.6530  211.5300  157.0290 C   0  0  0  0  0  2  0  0  0  0  0  0
  158.2630  211.7210  157.0940 O   0  0  0  0  0  0  0  0  0  0  0  0
  159.0620  210.7630  155.1240 N   0  0  0  0  0  0  0  0  0  0  0  0
  159.2590  211.3090  156.4440 C   0  0  0  0  0  0  0  0  0  0  0  0
  162.2770  208.7460  149.1070 O   0  0  0  0  0  1  0  0  0  0  0  0
  162.3130  208.4690  150.4720 C   0  0  0  0  0  2  0  0  0  0  0  0
  160.4660  207.9330  152.7070 C   0  0  0  0  0  2  0  0  0  0  0  0
  161.7330  207.1850  153.0900 C   0  0  0  0  0  2  0  0  0  0  0  0
  161.5010  205.6880  153.0860 C   0  0  0  0  0  2  0  0  0  0  0  0
  161.9770  205.1490  151.8900 O   0  0  0  0  0  0  0  0  0  0  0  0
  160.8620  204.5620  151.2870 C   0  0  0  0  0  2  0  0  0  0  0  0
  161.0980  201.3020  147.1300 C   0  0  0  0  0  0  0  0  0  0  0  0
  160.7100  201.9390  149.5680 C   0  0  0  0  0  2  0  0  0  0  0  0
  161.3650  205.0190  147.6880 C   0  0  0  0  0  3  0  0  0  0  0  0
  161.2650  205.4820  149.0010 C   0  0  0  0  0  3  0  0  0  0  0  0
  160.9530  200.4250  146.2410 O   0  0  0  0  0  0  0  0  0  0  0  0
  161.0670  204.4470  149.8480 N   0  0  0  0  0  0  0  0  0  0  0  0
  161.2470  200.8880  148.5780 C   0  0  0  0  0  2  0  0  0  0  0  0
  161.2180  203.6520  147.8020 C   0  0  0  0  0  0  0  0  0  0  0  0
  161.0510  203.3270  149.1130 C   0  0  0  0  0  0  0  0  0  0  0  0
  161.1930  202.6840  146.7580 N   0  0  0  0  0  2  0  0  0  0  0  0
  1  2  1  0  0  0  0
  2 17  1  0  0  0  0
  3  1  2  0  0  0  0
  4  2  1  6  0  0  0
  4  7  1  0  0  0  0
  4  5  1  0  0  0  0
  5 13  1  1  0  0  0
  6  9  1  0  0  0  0
  7  5  1  0  0  0  0
  7  6  1  6  0  0  0
  8 13  1  0  0  0  0
  9 11  1  0  0  0  0
 10  4  1  0  0  0  0
 10  8  1  0  0  0  0
 13 14  1  0  0  0  0
 14 11  1  0  0  0  0
 14 12  2  0  0  0  0
 15 16  1  0  0  0  0
 16  1  1  0  0  0  0
 17 18  1  0  0  0  0
 19 18  1  0  0  0  0
 20 19  1  0  0  0  0
 21 20  1  0  0  0  0
 22 28  1  0  0  0  0
 24 29  1  0  0  0  0
 24 25  2  0  0  0  0
 25 27  1  0  0  0  0
 26 22  2  0  0  0  0
 27 21  1  0  0  0  0
 28 23  1  0  0  0  0
 29 30  2  0  0  0  0
 30 23  1  0  0  0  0
 30 27  1  0  0  0  0
 31 22  1  0  0  0  0
 31 29  1  0  0  0  0
M  END
>  <MODEL>
3

>  <REMARK>
 VINA RESULT:      -7.4      1.770      3.165
  Name = 
  8 active torsions:
  status: ('A' for Active; 'I' for Inactive)
    1  A    between atoms: C_2  and  C_28
    2  A    between atoms: C_4  and  N_12
    3  A    between atoms: N_9  and  C_23
    4  A    between atoms: N_12  and  C_25
    5  A    between atoms: O_15  and  C_20
    6  A    between atoms: O_15  and  C_23
    7  A    between atoms: C_20  and  C_27
    8  A    between atoms: C_25  and  C_27
                            x       y       z     vdW  Elec       q    Type
                         _______ _______ _______ _____ _____    ______ ____

>  <TORSDO>
F 8

$$$$
=
 OpenBabel11052422373D

 31 35  0  0  1  0  0  0  0  0999 V2000
  161.9030  209.1370  151.2570 C   0  0  0  0  0  0  0  0  0  0  0  0
  161.1100  208.3520  152.1720 N   0  0  0  0  0  0  0  0  0  0  0  0
  162.1990  210.3310  151.5340 O   0  0  0  0  0  0  0  0  0  0  0  0
  160.7910  208.8550  153.5120 C   0  0  1  0  0  0  0  0  0  0  0  0
  161.1920  210.2380  153.7050 C   0  0  1  0  0  3  0  0  0  0  0  0
  159.2670  211.1860  152.9370 C   0  0  0  0  0  2  0  0  0  0  0  0
  159.6960  209.9310  153.6830 C   0  0  1  0  0  3  0  0  0  0  0  0
  161.6690  209.1690  155.7560 N   0  0  0  0  0  2  0  0  0  0  0  0
  159.6080  212.4740  153.7500 C   0  0  0  0  0  2  0  0  0  0  0  0
  161.3290  208.1430  154.7550 C   0  0  0  0  0  2  0  0  0  0  0  0
  159.7450  212.2820  155.2850 C   0  0  0  0  0  2  0  0  0  0  0  0
  161.5210  211.9140  156.8550 O   0  0  0  0  0  0  0  0  0  0  0  0
  161.5180  210.3940  155.0870 N   0  0  0  0  0  0  0  0  0  0  0  0
  160.9990  211.5540  155.7680 C   0  0  0  0  0  0  0  0  0  0  0  0
  162.0360  209.3370  148.9100 O   0  0  0  0  0  1  0  0  0  0  0  0
  162.4300  208.5490  149.9910 C   0  0  0  0  0  2  0  0  0  0  0  0
  160.7750  206.9670  151.8480 C   0  0  0  0  0  2  0  0  0  0  0  0
  161.8580  206.0210  152.3440 C   0  0  0  0  0  2  0  0  0  0  0  0
  161.2800  204.6570  152.6650 C   0  0  0  0  0  2  0  0  0  0  0  0
  161.6890  203.7430  151.6940 O   0  0  0  0  0  0  0  0  0  0  0  0
  160.5070  203.3010  151.0920 C   0  0  0  0  0  2  0  0  0  0  0  0
  161.6340  205.0940  146.2470 C   0  0  0  0  0  0  0  0  0  0  0  0
  161.2470  205.2690  148.7610 C   0  0  0  0  0  2  0  0  0  0  0  0
  161.1020  201.7220  147.8420 C   0  0  0  0  0  3  0  0  0  0  0  0
  160.7860  201.6950  149.2020 C   0  0  0  0  0  3  0  0  0  0  0  0
  162.0660  205.6610  145.2110 O   0  0  0  0  0  0  0  0  0  0  0  0
  160.7490  202.9520  149.6980 N   0  0  0  0  0  0  0  0  0  0  0  0
  161.0660  205.9240  147.3780 C   0  0  0  0  0  2  0  0  0  0  0  0
  161.2480  203.0640  147.5580 C   0  0  0  0  0  0  0  0  0  0  0  0
  161.0200  203.7890  148.6870 C   0  0  0  0  0  0  0  0  0  0  0  0
  161.6150  203.6610  146.3190 N   0  0  0  0  0  2  0  0  0  0  0  0
  1  3  2  0  0  0  0
  1  2  1  0  0  0  0
  4  2  1  6  0  0  0
  4  7  1  0  0  0  0
  4  5  1  0  0  0  0
  4 10  1  0  0  0  0
  5 13  1  1  0  0  0
  6  9  1  0  0  0  0
  7  6  1  6  0  0  0
  7  5  1  0  0  0  0
  9 11  1  0  0  0  0
 10  8  1  0  0  0  0
 11 14  1  0  0  0  0
 13  8  1  0  0  0  0
 13 14  1  0  0  0  0
 14 12  2  0  0  0  0
 15 16  1  0  0  0  0
 16  1  1  0  0  0  0
 17  2  1  0  0  0  0
 17 18  1  0  0  0  0
 18 19  1  0  0  0  0
 20 19  1  0  0  0  0
 21 20  1  0  0  0  0
 22 31  1  0  0  0  0
 22 28  1  0  0  0  0
 24 25  2  0  0  0  0
 25 27  1  0  0  0  0
 26 22  2  0  0  0  0
 27 21  1  0  0  0  0
 28 23  1  0  0  0  0
 29 24  1  0  0  0  0
 29 30  2  0  0  0  0
 30 23  1  0  0  0  0
 30 27  1  0  0  0  0
 31 29  1  0  0  0  0
M  END
>  <MODEL>
4

>  <REMARK>
 VINA RESULT:      -7.2      1.926      3.422
  Name = 
  8 active torsions:
  status: ('A' for Active; 'I' for Inactive)
    1  A    between atoms: C_2  and  C_28
    2  A    between atoms: C_4  and  N_12
    3  A    between atoms: N_9  and  C_23
    4  A    between atoms: N_12  and  C_25
    5  A    between atoms: O_15  and  C_20
    6  A    between atoms: O_15  and  C_23
    7  A    between atoms: C_20  and  C_27
    8  A    between atoms: C_25  and  C_27
                            x       y       z     vdW  Elec       q    Type
                         _______ _______ _______ _____ _____    ______ ____

>  <TORSDO>
F 8

$$$$
=
 OpenBabel11052422373D

 31 35  0  0  1  0  0  0  0  0999 V2000
  161.3060  208.2600  155.2990 C   0  0  0  0  0  0  0  0  0  0  0  0
  161.1310  208.4720  153.8830 N   0  0  0  0  0  0  0  0  0  0  0  0
  161.7870  209.1720  156.0250 O   0  0  0  0  0  0  0  0  0  0  0  0
  161.3300  209.7980  153.2910 C   0  0  1  0  0  0  0  0  0  0  0  0
  160.1030  210.3660  152.7570 C   0  0  1  0  0  3  0  0  0  0  0  0
  159.4140  211.3760  154.6810 C   0  0  0  0  0  2  0  0  0  0  0  0
  160.7230  211.0410  153.9790 C   0  0  1  0  0  3  0  0  0  0  0  0
  161.7850  210.9770  151.2150 N   0  0  0  0  0  2  0  0  0  0  0  0
  158.5460  212.3510  153.8260 C   0  0  0  0  0  2  0  0  0  0  0  0
  162.3450  209.9990  152.1630 C   0  0  0  0  0  2  0  0  0  0  0  0
  159.3240  213.2220  152.8030 C   0  0  0  0  0  2  0  0  0  0  0  0
  159.8780  213.1160  150.4710 O   0  0  0  0  0  0  0  0  0  0  0  0
  160.4690  211.1940  151.6520 N   0  0  0  0  0  0  0  0  0  0  0  0
  159.8630  212.5000  151.5690 C   0  0  0  0  0  0  0  0  0  0  0  0
  159.7330  207.2020  156.7030 O   0  0  0  0  0  1  0  0  0  0  0  0
  160.8840  206.9840  155.9480 C   0  0  0  0  0  2  0  0  0  0  0  0
  160.5680  207.4120  153.0480 C   0  0  0  0  0  2  0  0  0  0  0  0
  161.6620  206.4790  152.5530 C   0  0  0  0  0  2  0  0  0  0  0  0
  161.3230  205.0350  152.8640 C   0  0  0  0  0  2  0  0  0  0  0  0
  161.7540  204.2230  151.8150 O   0  0  0  0  0  0  0  0  0  0  0  0
  160.5880  203.6530  151.2950 C   0  0  0  0  0  2  0  0  0  0  0  0
  161.5960  205.2230  146.3470 C   0  0  0  0  0  0  0  0  0  0  0  0
  161.2670  205.5130  148.8590 C   0  0  0  0  0  2  0  0  0  0  0  0
  161.1150  201.9270  148.1080 C   0  0  0  0  0  3  0  0  0  0  0  0
  160.8300  201.9620  149.4750 C   0  0  0  0  0  3  0  0  0  0  0  0
  162.0020  205.7430  145.2770 O   0  0  0  0  0  0  0  0  0  0  0  0
  160.8000  203.2400  149.9130 N   0  0  0  0  0  0  0  0  0  0  0  0
  161.0510  206.1030  147.4520 C   0  0  0  0  0  2  0  0  0  0  0  0
  161.2480  203.2550  147.7590 C   0  0  0  0  0  0  0  0  0  0  0  0
  161.0430  204.0300  148.8590 C   0  0  0  0  0  0  0  0  0  0  0  0
  161.5850  203.7950  146.4860 N   0  0  0  0  0  2  0  0  0  0  0  0
  1 16  1  0  0  0  0
  1  3  2  0  0  0  0
  2  1  1  0  0  0  0
  4  2  1  1  0  0  0
  4  7  1  0  0  0  0
  5 13  1  6  0  0  0
  5  4  1  0  0  0  0
  5  7  1  0  0  0  0
  7  6  1  1  0  0  0
  8 13  1  0  0  0  0
  8 10  1  0  0  0  0
  9  6  1  0  0  0  0
 10  4  1  0  0  0  0
 11  9  1  0  0  0  0
 12 14  2  0  0  0  0
 14 13  1  0  0  0  0
 14 11  1  0  0  0  0
 16 15  1  0  0  0  0
 17  2  1  0  0  0  0
 18 19  1  0  0  0  0
 18 17  1  0  0  0  0
 20 19  1  0  0  0  0
 21 20  1  0  0  0  0
 22 31  1  0  0  0  0
 22 28  1  0  0  0  0
 24 25  2  0  0  0  0
 25 27  1  0  0  0  0
 26 22  2  0  0  0  0
 27 21  1  0  0  0  0
 28 23  1  0  0  0  0
 29 24  1  0  0  0  0
 29 30  2  0  0  0  0
 30 23  1  0  0  0  0
 30 27  1  0  0  0  0
 31 29  1  0  0  0  0
M  END
>  <MODEL>
5

>  <REMARK>
 VINA RESULT:      -7.2      2.261      3.515
  Name = 
  8 active torsions:
  status: ('A' for Active; 'I' for Inactive)
    1  A    between atoms: C_2  and  C_28
    2  A    between atoms: C_4  and  N_12
    3  A    between atoms: N_9  and  C_23
    4  A    between atoms: N_12  and  C_25
    5  A    between atoms: O_15  and  C_20
    6  A    between atoms: O_15  and  C_23
    7  A    between atoms: C_20  and  C_27
    8  A    between atoms: C_25  and  C_27
                            x       y       z     vdW  Elec       q    Type
                         _______ _______ _______ _____ _____    ______ ____

>  <TORSDO>
F 8

$$$$
=
 OpenBabel11052422373D

 31 35  0  0  1  0  0  0  0  0999 V2000
  161.8550  208.3110  149.8390 C   0  0  0  0  0  0  0  0  0  0  0  0
  161.6870  206.9730  150.3510 N   0  0  0  0  0  0  0  0  0  0  0  0
  161.5620  208.5770  148.6420 O   0  0  0  0  0  0  0  0  0  0  0  0
  161.0070  205.9440  149.5580 C   0  0  1  0  0  0  0  0  0  0  0  0
  161.7410  204.6900  149.5140 C   0  0  1  0  0  3  0  0  0  0  0  0
  160.8310  203.7810  151.3960 C   0  0  0  0  0  2  0  0  0  0  0  0
  160.4100  204.7070  150.2640 C   0  0  1  0  0  3  0  0  0  0  0  0
  160.8470  204.9540  147.3450 N   0  0  0  0  0  2  0  0  0  0  0  0
  161.2070  202.3640  150.8610 C   0  0  0  0  0  2  0  0  0  0  0  0
  160.6480  206.2060  148.0930 C   0  0  0  0  0  2  0  0  0  0  0  0
  160.5710  201.9700  149.4990 C   0  0  0  0  0  2  0  0  0  0  0  0
  161.2080  202.0190  147.1870 O   0  0  0  0  0  0  0  0  0  0  0  0
  161.4510  204.0760  148.2580 N   0  0  0  0  0  0  0  0  0  0  0  0
  161.1320  202.6700  148.2620 C   0  0  0  0  0  0  0  0  0  0  0  0
  162.0200  210.6470  150.1320 O   0  0  0  0  0  1  0  0  0  0  0  0
  162.3300  209.4210  150.7180 C   0  0  0  0  0  2  0  0  0  0  0  0
  162.0230  206.6730  151.7420 C   0  0  0  0  0  2  0  0  0  0  0  0
  160.9090  207.1250  152.6730 C   0  0  0  0  0  2  0  0  0  0  0  0
  161.1820  206.6830  154.0970 C   0  0  0  0  0  2  0  0  0  0  0  0
  160.4770  207.5030  154.9790 O   0  0  0  0  0  0  0  0  0  0  0  0
  161.1350  208.7350  154.9320 C   0  0  0  0  0  2  0  0  0  0  0  0
  158.2130  212.7440  153.1030 C   0  0  0  0  0  0  0  0  0  0  0  0
  159.7510  210.7180  152.9300 C   0  0  0  0  0  2  0  0  0  0  0  0
  158.8260  211.1360  156.4540 C   0  0  0  0  0  3  0  0  0  0  0  0
  159.7300  210.0730  156.5030 C   0  0  0  0  0  3  0  0  0  0  0  0
  157.4550  213.5390  152.4910 O   0  0  0  0  0  0  0  0  0  0  0  0
  160.2140  209.8130  155.2680 N   0  0  0  0  0  0  0  0  0  0  0  0
  159.3780  212.1080  152.3770 C   0  0  0  0  0  2  0  0  0  0  0  0
  158.8030  211.4960  155.1230 C   0  0  0  0  0  0  0  0  0  0  0  0
  159.6540  210.6940  154.4260 C   0  0  0  0  0  0  0  0  0  0  0  0
  158.0110  212.5030  154.5030 N   0  0  0  0  0  2  0  0  0  0  0  0
  1  2  1  0  0  0  0
  1 16  1  0  0  0  0
  2 17  1  0  0  0  0
  3  1  2  0  0  0  0
  4  7  1  0  0  0  0
  4  2  1  1  0  0  0
  5 13  1  6  0  0  0
  5  4  1  0  0  0  0
  5  7  1  0  0  0  0
  7  6  1  1  0  0  0
  8 10  1  0  0  0  0
  8 13  1  0  0  0  0
  9  6  1  0  0  0  0
 10  4  1  0  0  0  0
 11  9  1  0  0  0  0
 12 14  2  0  0  0  0
 13 14  1  0  0  0  0
 14 11  1  0  0  0  0
 15 16  1  0  0  0  0
 17 18  1  0  0  0  0
 18 19  1  0  0  0  0
 19 20  1  0  0  0  0
 21 20  1  0  0  0  0
 21 27  1  0  0  0  0
 22 31  1  0  0  0  0
 23 30  1  0  0  0  0
 24 25  2  0  0  0  0
 26 22  2  0  0  0  0
 27 25  1  0  0  0  0
 28 23  1  0  0  0  0
 28 22  1  0  0  0  0
 29 24  1  0  0  0  0
 30 29  2  0  0  0  0
 30 27  1  0  0  0  0
 31 29  1  0  0  0  0
M  END
>  <MODEL>
6

>  <REMARK>
 VINA RESULT:      -7.0      1.724      9.107
  Name = 
  8 active torsions:
  status: ('A' for Active; 'I' for Inactive)
    1  A    between atoms: C_2  and  C_28
    2  A    between atoms: C_4  and  N_12
    3  A    between atoms: N_9  and  C_23
    4  A    between atoms: N_12  and  C_25
    5  A    between atoms: O_15  and  C_20
    6  A    between atoms: O_15  and  C_23
    7  A    between atoms: C_20  and  C_27
    8  A    between atoms: C_25  and  C_27
                            x       y       z     vdW  Elec       q    Type
                         _______ _______ _______ _____ _____    ______ ____

>  <TORSDO>
F 8

$$$$
=
 OpenBabel11052422373D

 31 35  0  0  1  0  0  0  0  0999 V2000
  160.8380  207.5790  154.4530 C   0  0  0  0  0  0  0  0  0  0  0  0
  160.7700  209.0030  154.2330 N   0  0  0  0  0  0  0  0  0  0  0  0
  160.8660  207.1170  155.6260 O   0  0  0  0  0  0  0  0  0  0  0  0
  160.5480  209.9270  155.3500 C   0  0  1  0  0  0  0  0  0  0  0  0
  160.0660  211.2280  154.9160 C   0  0  1  0  0  3  0  0  0  0  0  0
  157.8450  210.7180  154.9520 C   0  0  0  0  0  2  0  0  0  0  0  0
  159.1080  210.3480  155.7170 C   0  0  1  0  0  3  0  0  0  0  0  0
  161.5690  211.6850  156.6800 N   0  0  0  0  0  2  0  0  0  0  0  0
  157.5250  212.2400  155.0860 C   0  0  0  0  0  2  0  0  0  0  0  0
  161.6870  210.2630  156.3150 C   0  0  0  0  0  2  0  0  0  0  0  0
  158.1160  212.9420  156.3390 C   0  0  0  0  0  2  0  0  0  0  0  0
  160.0680  214.2310  156.8710 O   0  0  0  0  0  0  0  0  0  0  0  0
  160.5540  212.1910  155.8520 N   0  0  0  0  0  0  0  0  0  0  0  0
  159.6250  213.1820  156.3340 C   0  0  0  0  0  0  0  0  0  0  0  0
  161.2480  205.3640  153.7500 O   0  0  0  0  0  1  0  0  0  0  0  0
  160.8280  206.6190  153.3100 C   0  0  0  0  0  2  0  0  0  0  0  0
  160.7320  209.5330  152.8710 C   0  0  0  0  0  2  0  0  0  0  0  0
  162.1210  209.9530  152.4180 C   0  0  0  0  0  2  0  0  0  0  0  0
  162.3300  209.6370  150.9500 C   0  0  0  0  0  2  0  0  0  0  0  0
  162.3450  208.2540  150.7720 O   0  0  0  0  0  0  0  0  0  0  0  0
  161.7300  208.0400  149.5350 C   0  0  0  0  0  2  0  0  0  0  0  0
  161.4660  203.9890  146.1470 C   0  0  0  0  0  0  0  0  0  0  0  0
  161.9840  206.3730  146.8870 C   0  0  0  0  0  2  0  0  0  0  0  0
  160.9070  204.4850  149.8400 C   0  0  0  0  0  3  0  0  0  0  0  0
  161.0670  205.7750  150.3480 C   0  0  0  0  0  3  0  0  0  0  0  0
  161.6190  203.1110  145.2610 O   0  0  0  0  0  0  0  0  0  0  0  0
  161.4240  206.6260  149.3610 N   0  0  0  0  0  0  0  0  0  0  0  0
  161.4690  205.4530  145.7640 C   0  0  0  0  0  2  0  0  0  0  0  0
  161.1860  204.6170  148.4960 C   0  0  0  0  0  0  0  0  0  0  0  0
  161.4840  205.9170  148.2250 C   0  0  0  0  0  0  0  0  0  0  0  0
  161.2170  203.5950  147.5040 N   0  0  0  0  0  2  0  0  0  0  0  0
  1  3  2  0  0  0  0
  2  1  1  0  0  0  0
  4  2  1  6  0  0  0
  4  7  1  0  0  0  0
  4 10  1  0  0  0  0
  5  4  1  0  0  0  0
  5  7  1  0  0  0  0
  5 13  1  1  0  0  0
  6  9  1  0  0  0  0
  7  6  1  6  0  0  0
  9 11  1  0  0  0  0
 10  8  1  0  0  0  0
 13 14  1  0  0  0  0
 13  8  1  0  0  0  0
 14 11  1  0  0  0  0
 14 12  2  0  0  0  0
 16 15  1  0  0  0  0
 16  1  1  0  0  0  0
 17  2  1  0  0  0  0
 18 17  1  0  0  0  0
 19 18  1  0  0  0  0
 20 19  1  0  0  0  0
 21 20  1  0  0  0  0
 22 31  1  0  0  0  0
 23 30  1  0  0  0  0
 24 25  2  0  0  0  0
 26 22  2  0  0  0  0
 27 21  1  0  0  0  0
 27 25  1  0  0  0  0
 28 22  1  0  0  0  0
 28 23  1  0  0  0  0
 29 24  1  0  0  0  0
 30 29  2  0  0  0  0
 30 27  1  0  0  0  0
 31 29  1  0  0  0  0
M  END
>  <MODEL>
7

>  <REMARK>
 VINA RESULT:      -7.0      1.302      1.979
  Name = 
  8 active torsions:
  status: ('A' for Active; 'I' for Inactive)
    1  A    between atoms: C_2  and  C_28
    2  A    between atoms: C_4  and  N_12
    3  A    between atoms: N_9  and  C_23
    4  A    between atoms: N_12  and  C_25
    5  A    between atoms: O_15  and  C_20
    6  A    between atoms: O_15  and  C_23
    7  A    between atoms: C_20  and  C_27
    8  A    between atoms: C_25  and  C_27
                            x       y       z     vdW  Elec       q    Type
                         _______ _______ _______ _____ _____    ______ ____

>  <TORSDO>
F 8

$$$$
=
 OpenBabel11052422373D

 31 35  0  0  1  0  0  0  0  0999 V2000
  161.6380  206.2390  152.8110 C   0  0  0  0  0  0  0  0  0  0  0  0
  161.7080  207.6800  152.8030 N   0  0  0  0  0  0  0  0  0  0  0  0
  161.1620  205.6300  153.8070 O   0  0  0  0  0  0  0  0  0  0  0  0
  161.0650  208.4700  153.8590 C   0  0  1  0  0  0  0  0  0  0  0  0
  161.4850  209.8620  153.8550 C   0  0  1  0  0  3  0  0  0  0  0  0
  159.9080  210.6140  152.3900 C   0  0  0  0  0  2  0  0  0  0  0  0
  160.0360  209.5570  153.4780 C   0  0  1  0  0  3  0  0  0  0  0  0
  161.3120  209.2780  156.1360 N   0  0  0  0  0  2  0  0  0  0  0  0
  160.0940  212.0510  152.9700 C   0  0  0  0  0  2  0  0  0  0  0  0
  161.1950  208.0540  155.3250 C   0  0  0  0  0  2  0  0  0  0  0  0
  159.7930  212.2080  154.4850 C   0  0  0  0  0  2  0  0  0  0  0  0
  161.0420  212.2000  156.5330 O   0  0  0  0  0  0  0  0  0  0  0  0
  161.4270  210.3220  155.2050 N   0  0  0  0  0  0  0  0  0  0  0  0
  160.8160  211.6060  155.4470 C   0  0  0  0  0  0  0  0  0  0  0  0
  161.7200  204.1030  151.8120 O   0  0  0  0  0  1  0  0  0  0  0  0
  162.0810  205.4380  151.6320 C   0  0  0  0  0  2  0  0  0  0  0  0
  162.2560  208.3810  151.6430 C   0  0  0  0  0  2  0  0  0  0  0  0
  161.4770  208.0290  150.3850 C   0  0  0  0  0  2  0  0  0  0  0  0
  161.9490  208.8570  149.2070 C   0  0  0  0  0  2  0  0  0  0  0  0
  161.7990  208.1180  148.0330 O   0  0  0  0  0  0  0  0  0  0  0  0
  161.5920  206.8020  148.4570 C   0  0  0  0  0  2  0  0  0  0  0  0
  160.9940  201.8200  146.7890 C   0  0  0  0  0  0  0  0  0  0  0  0
  160.9180  203.7360  148.4700 C   0  0  0  0  0  2  0  0  0  0  0  0
  161.8350  205.1340  145.2060 C   0  0  0  0  0  3  0  0  0  0  0  0
  161.9190  206.2460  146.0460 C   0  0  0  0  0  3  0  0  0  0  0  0
  160.6490  200.6390  146.5300 O   0  0  0  0  0  0  0  0  0  0  0  0
  161.6510  205.8900  147.3220 N   0  0  0  0  0  0  0  0  0  0  0  0
  161.2110  202.2420  148.2260 C   0  0  0  0  0  2  0  0  0  0  0  0
  161.5060  204.0970  146.0540 C   0  0  0  0  0  0  0  0  0  0  0  0
  161.4110  204.5720  147.3270 C   0  0  0  0  0  0  0  0  0  0  0  0
  161.2520  202.7380  145.7170 N   0  0  0  0  0  2  0  0  0  0  0  0
  1  3  2  0  0  0  0
  2  1  1  0  0  0  0
  4  2  1  6  0  0  0
  4 10  1  0  0  0  0
  5  4  1  0  0  0  0
  5 13  1  1  0  0  0
  6  9  1  0  0  0  0
  7  6  1  6  0  0  0
  7  5  1  0  0  0  0
  7  4  1  0  0  0  0
  9 11  1  0  0  0  0
 10  8  1  0  0  0  0
 11 14  1  0  0  0  0
 13 14  1  0  0  0  0
 13  8  1  0  0  0  0
 14 12  2  0  0  0  0
 16 15  1  0  0  0  0
 16  1  1  0  0  0  0
 17  2  1  0  0  0  0
 18 17  1  0  0  0  0
 19 18  1  0  0  0  0
 20 21  1  0  0  0  0
 20 19  1  0  0  0  0
 22 28  1  0  0  0  0
 24 25  2  0  0  0  0
 24 29  1  0  0  0  0
 25 27  1  0  0  0  0
 26 22  2  0  0  0  0
 27 30  1  0  0  0  0
 27 21  1  0  0  0  0
 28 23  1  0  0  0  0
 29 30  2  0  0  0  0
 30 23  1  0  0  0  0
 31 29  1  0  0  0  0
 31 22  1  0  0  0  0
M  END
>  <MODEL>
8

>  <REMARK>
 VINA RESULT:      -6.9      1.621      1.956
  Name = 
  8 active torsions:
  status: ('A' for Active; 'I' for Inactive)
    1  A    between atoms: C_2  and  C_28
    2  A    between atoms: C_4  and  N_12
    3  A    between atoms: N_9  and  C_23
    4  A    between atoms: N_12  and  C_25
    5  A    between atoms: O_15  and  C_20
    6  A    between atoms: O_15  and  C_23
    7  A    between atoms: C_20  and  C_27
    8  A    between atoms: C_25  and  C_27
                            x       y       z     vdW  Elec       q    Type
                         _______ _______ _______ _____ _____    ______ ____

>  <TORSDO>
F 8

$$$$
=
 OpenBabel11052422373D

 31 35  0  0  1  0  0  0  0  0999 V2000
  161.0290  208.8740  152.8110 C   0  0  0  0  0  0  0  0  0  0  0  0
  161.8310  208.7050  151.6230 N   0  0  0  0  0  0  0  0  0  0  0  0
  160.4540  207.8840  153.3370 O   0  0  0  0  0  0  0  0  0  0  0  0
  162.1440  207.3670  151.1110 C   0  0  1  0  0  0  0  0  0  0  0  0
  161.0390  206.7720  150.3780 C   0  0  1  0  0  3  0  0  0  0  0  0
  161.5760  207.6320  148.3370 C   0  0  0  0  0  2  0  0  0  0  0  0
  162.2920  207.1470  149.5890 C   0  0  1  0  0  3  0  0  0  0  0  0
  161.9960  204.9910  151.5980 N   0  0  0  0  0  2  0  0  0  0  0  0
  160.7610  206.4820  147.6670 C   0  0  0  0  0  2  0  0  0  0  0  0
  162.5870  206.2560  152.0660 C   0  0  0  0  0  2  0  0  0  0  0  0
  161.2480  205.0410  147.9850 C   0  0  0  0  0  2  0  0  0  0  0  0
  160.6910  203.3050  149.5430 O   0  0  0  0  0  0  0  0  0  0  0  0
  161.1250  205.3580  150.5600 N   0  0  0  0  0  0  0  0  0  0  0  0
  160.9640  204.5250  149.3950 C   0  0  0  0  0  0  0  0  0  0  0  0
  161.8240  210.3060  154.5090 O   0  0  0  0  0  1  0  0  0  0  0  0
  160.8990  210.2060  153.4720 C   0  0  0  0  0  2  0  0  0  0  0  0
  162.5000  209.8570  151.0210 C   0  0  0  0  0  2  0  0  0  0  0  0
  161.5270  210.6620  150.1750 C   0  0  0  0  0  2  0  0  0  0  0  0
  162.2480  211.3600  149.0380 C   0  0  0  0  0  2  0  0  0  0  0  0
  161.4610  211.3010  147.8870 O   0  0  0  0  0  0  0  0  0  0  0  0
  161.3330  212.6280  147.4680 C   0  0  0  0  0  2  0  0  0  0  0  0
  162.5010  213.4710  142.3800 C   0  0  0  0  0  0  0  0  0  0  0  0
  162.9960  213.1930  144.8650 C   0  0  0  0  0  2  0  0  0  0  0  0
  159.4360  212.4870  144.3380 C   0  0  0  0  0  3  0  0  0  0  0  0
  159.5610  212.3960  145.7260 C   0  0  0  0  0  3  0  0  0  0  0  0
  162.9760  213.5340  141.2170 O   0  0  0  0  0  0  0  0  0  0  0  0
  160.8270  212.6800  146.1020 N   0  0  0  0  0  0  0  0  0  0  0  0
  163.3300  213.9360  143.5570 C   0  0  0  0  0  2  0  0  0  0  0  0
  160.6990  212.8430  143.9110 C   0  0  0  0  0  0  0  0  0  0  0  0
  161.5190  212.9660  144.9900 C   0  0  0  0  0  0  0  0  0  0  0  0
  161.1500  213.0290  142.5740 N   0  0  0  0  0  2  0  0  0  0  0  0
  1  3  2  0  0  0  0
  1 16  1  0  0  0  0
  2  1  1  0  0  0  0
  4  2  1  1  0  0  0
  4 10  1  0  0  0  0
  5 13  1  1  0  0  0
  5  4  1  0  0  0  0
  7  6  1  6  0  0  0
  7  5  1  0  0  0  0
  7  4  1  0  0  0  0
  8 10  1  0  0  0  0
  9 11  1  0  0  0  0
  9  6  1  0  0  0  0
 11 14  1  0  0  0  0
 13  8  1  0  0  0  0
 14 12  2  0  0  0  0
 14 13  1  0  0  0  0
 16 15  1  0  0  0  0
 17  2  1  0  0  0  0
 18 17  1  0  0  0  0
 19 18  1  0  0  0  0
 20 19  1  0  0  0  0
 21 20  1  0  0  0  0
 22 31  1  0  0  0  0
 22 28  1  0  0  0  0
 23 30  1  0  0  0  0
 24 25  2  0  0  0  0
 25 27  1  0  0  0  0
 26 22  2  0  0  0  0
 27 21  1  0  0  0  0
 28 23  1  0  0  0  0
 29 24  1  0  0  0  0
 29 30  2  0  0  0  0
 30 27  1  0  0  0  0
 31 29  1  0  0  0  0
M  END
>  <MODEL>
9

>  <REMARK>
 VINA RESULT:      -6.8      4.846      8.174
  Name = 
  8 active torsions:
  status: ('A' for Active; 'I' for Inactive)
    1  A    between atoms: C_2  and  C_28
    2  A    between atoms: C_4  and  N_12
    3  A    between atoms: N_9  and  C_23
    4  A    between atoms: N_12  and  C_25
    5  A    between atoms: O_15  and  C_20
    6  A    between atoms: O_15  and  C_23
    7  A    between atoms: C_20  and  C_27
    8  A    between atoms: C_25  and  C_27
                            x       y       z     vdW  Elec       q    Type
                         _______ _______ _______ _____ _____    ______ ____

>  <TORSDO>
F 8

$$$$
