=
 OpenBabel11052423073D

 27 31  0  0  1  0  0  0  0  0999 V2000
  162.8780  207.2360  151.0790 C   0  0  0  0  0  2  0  0  0  0  0  0
  161.3790  205.2920  151.3020 C   0  0  0  0  0  0  0  0  0  0  0  0
  161.0670  206.1180  148.9850 N   0  0  0  0  0  2  0  0  0  0  0  0
  160.5110  201.4450  149.9950 N   0  0  0  0  0  0  0  0  0  0  0  0
  161.4560  200.5280  147.9390 C   0  0  0  0  0  1  0  0  0  0  0  0
  161.3830  204.1380  152.2480 C   0  0  0  0  0  3  0  0  0  0  0  0
  161.1660  203.0570  148.5230 C   0  0  2  0  0  3  0  0  0  0  0  0
  161.3250  209.6760  147.9260 C   0  0  0  0  0  3  0  0  0  0  0  0
  161.9710  203.6240  147.4020 C   0  0  0  0  0  1  0  0  0  0  0  0
  162.1570  210.2210  148.9040 C   0  0  0  0  0  0  0  0  0  0  0  0
  160.7390  203.7130  149.5910 C   0  0  1  0  0  3  0  0  0  0  0  0
  161.8010  206.5710  151.7910 N   0  0  0  0  0  0  0  0  0  0  0  0
  161.0050  201.6420  148.8170 C   0  0  0  0  0  0  0  0  0  0  0  0
  160.2030  202.7410  150.5890 C   0  0  2  0  0  3  0  0  0  0  0  0
  162.3040  208.0570  149.9880 C   0  0  0  0  0  0  0  0  0  0  0  0
  161.1040  205.0850  149.9890 C   0  0  0  0  0  0  0  0  0  0  0  0
  160.9780  208.3240  147.9800 C   0  0  0  0  0  3  0  0  0  0  0  0
  160.8870  202.9380  151.9120 C   0  0  0  0  0  3  0  0  0  0  0  0
  162.5270  211.6590  148.8500 C   0  0  0  0  0  1  0  0  0  0  0  0
  162.6490  209.4110  149.9280 C   0  0  0  0  0  3  0  0  0  0  0  0
  161.4500  207.5030  149.0120 C   0  0  0  0  0  0  0  0  0  0  0  0
  160.4530  208.5410  155.3690 C   0  0  0  0  0  2  0  0  0  0  0  0
  161.2000  207.1990  152.9450 C   0  0  0  0  0  0  0  0  0  0  0  0
  160.9130  206.4700  154.0380 C   0  0  0  0  0  3  0  0  0  0  0  0
  160.2420  207.0370  155.2580 C   0  0  0  0  0  2  0  0  0  0  0  0
  160.0530  209.1840  154.0510 C   0  0  0  0  0  2  0  0  0  0  0  0
  160.9840  208.6990  152.9410 C   0  0  0  0  0  2  0  0  0  0  0  0
  1 12  1  0  0  0  0
  2 12  1  0  0  0  0
  2  6  1  0  0  0  0
  3 21  1  0  0  0  0
  3 16  1  0  0  0  0
  4 14  1  0  0  0  0
  5 13  1  0  0  0  0
  7  9  1  1  0  0  0
  7 13  1  0  0  0  0
  7 11  1  0  0  0  0
  8 17  2  0  0  0  0
  8 10  1  0  0  0  0
 10 20  2  0  0  0  0
 11 16  1  1  0  0  0
 11 14  1  0  0  0  0
 12 23  1  0  0  0  0
 13  4  2  0  0  0  0
 14 18  1  1  0  0  0
 15  1  1  0  0  0  0
 16  2  2  0  0  0  0
 17 21  1  0  0  0  0
 18  6  2  0  0  0  0
 19 10  1  0  0  0  0
 20 15  1  0  0  0  0
 21 15  2  0  0  0  0
 23 24  2  0  0  0  0
 24 25  1  0  0  0  0
 25 22  1  0  0  0  0
 26 22  1  0  0  0  0
 27 23  1  0  0  0  0
 27 26  1  0  0  0  0
M  END
>  <MODEL>
1

>  <REMARK>
 VINA RESULT:      -7.7      0.000      0.000
  Name = 
  1 active torsions:
  status: ('A' for Active; 'I' for Inactive)
    1  A    between atoms: C_9  and  N_15
                            x       y       z     vdW  Elec       q    Type
                         _______ _______ _______ _____ _____    ______ ____

>  <TORSDO>
F 1

$$$$
=
 OpenBabel11052423073D

 27 31  0  0  1  0  0  0  0  0999 V2000
  162.9130  208.8330  150.2670 C   0  0  0  0  0  2  0  0  0  0  0  0
  161.4630  209.6790  152.0710 C   0  0  0  0  0  0  0  0  0  0  0  0
  160.6420  207.3950  151.5650 N   0  0  0  0  0  2  0  0  0  0  0  0
  160.2300  209.1980  156.0100 N   0  0  0  0  0  0  0  0  0  0  0  0
  160.6530  207.1440  157.2600 C   0  0  0  0  0  1  0  0  0  0  0  0
  161.6610  210.7630  153.0780 C   0  0  0  0  0  3  0  0  0  0  0  0
  160.5630  207.3900  154.6620 C   0  0  2  0  0  3  0  0  0  0  0  0
  160.7280  205.7820  148.2140 C   0  0  0  0  0  3  0  0  0  0  0  0
  161.0990  206.0440  154.3050 C   0  0  0  0  0  1  0  0  0  0  0  0
  161.7760  206.4530  147.5840 C   0  0  0  0  0  0  0  0  0  0  0  0
  160.4090  208.4150  153.8380 C   0  0  1  0  0  3  0  0  0  0  0  0
  162.0160  209.8630  150.7620 N   0  0  0  0  0  0  0  0  0  0  0  0
  160.4420  207.9220  156.0090 C   0  0  0  0  0  0  0  0  0  0  0  0
  160.0970  209.6430  154.6270 C   0  0  2  0  0  3  0  0  0  0  0  0
  162.1210  207.7890  149.5770 C   0  0  0  0  0  0  0  0  0  0  0  0
  160.8870  208.5090  152.4460 C   0  0  0  0  0  0  0  0  0  0  0  0
  160.3730  206.1160  149.5230 C   0  0  0  0  0  3  0  0  0  0  0  0
  161.0730  210.7320  154.2830 C   0  0  0  0  0  3  0  0  0  0  0  0
  162.1560  206.1010  146.1910 C   0  0  0  0  0  1  0  0  0  0  0  0
  162.4730  207.4500  148.2670 C   0  0  0  0  0  3  0  0  0  0  0  0
  161.0510  207.1260  150.2140 C   0  0  0  0  0  0  0  0  0  0  0  0
  161.5060  213.4880  148.5040 C   0  0  0  0  0  2  0  0  0  0  0  0
  161.7130  211.0130  149.9440 C   0  0  0  0  0  0  0  0  0  0  0  0
  160.9060  211.9830  150.4140 C   0  0  0  0  0  3  0  0  0  0  0  0
  160.5020  213.1860  149.6090 C   0  0  0  0  0  2  0  0  0  0  0  0
  161.7390  212.2180  147.7010 C   0  0  0  0  0  2  0  0  0  0  0  0
  162.3840  211.1590  148.5930 C   0  0  0  0  0  2  0  0  0  0  0  0
  1 12  1  0  0  0  0
  2 16  2  0  0  0  0
  2  6  1  0  0  0  0
  3 16  1  0  0  0  0
  6 18  2  0  0  0  0
  7  9  1  1  0  0  0
  7 13  1  0  0  0  0
  8 17  1  0  0  0  0
 10  8  2  0  0  0  0
 10 20  1  0  0  0  0
 11 16  1  1  0  0  0
 11 14  1  0  0  0  0
 11  7  1  0  0  0  0
 12  2  1  0  0  0  0
 13  4  2  0  0  0  0
 13  5  1  0  0  0  0
 14 18  1  6  0  0  0
 14  4  1  0  0  0  0
 15 21  1  0  0  0  0
 15  1  1  0  0  0  0
 17 21  2  0  0  0  0
 19 10  1  0  0  0  0
 20 15  2  0  0  0  0
 21  3  1  0  0  0  0
 22 25  1  0  0  0  0
 23 24  2  0  0  0  0
 23 12  1  0  0  0  0
 25 24  1  0  0  0  0
 26 22  1  0  0  0  0
 26 27  1  0  0  0  0
 27 23  1  0  0  0  0
M  END
>  <MODEL>
2

>  <REMARK>
 VINA RESULT:      -7.3      2.543      6.330
  Name = 
  1 active torsions:
  status: ('A' for Active; 'I' for Inactive)
    1  A    between atoms: C_9  and  N_15
                            x       y       z     vdW  Elec       q    Type
                         _______ _______ _______ _____ _____    ______ ____

>  <TORSDO>
F 1

$$$$
=
 OpenBabel11052423073D

 27 31  0  0  1  0  0  0  0  0999 V2000
  162.8430  210.0620  150.6350 C   0  0  0  0  0  2  0  0  0  0  0  0
  161.4280  208.0590  150.8830 C   0  0  0  0  0  0  0  0  0  0  0  0
  161.1670  208.7780  148.5250 N   0  0  0  0  0  2  0  0  0  0  0  0
  160.7900  204.1260  149.7050 N   0  0  0  0  0  0  0  0  0  0  0  0
  161.8540  203.1760  147.7230 C   0  0  0  0  0  1  0  0  0  0  0  0
  161.4500  206.9440  151.8760 C   0  0  0  0  0  3  0  0  0  0  0  0
  161.4250  205.7090  148.1930 C   0  0  2  0  0  3  0  0  0  0  0  0
  161.3000  212.2990  147.3320 C   0  0  0  0  0  3  0  0  0  0  0  0
  162.2450  206.2700  147.0790 C   0  0  0  0  0  1  0  0  0  0  0  0
  162.0690  212.9210  148.3160 C   0  0  0  0  0  0  0  0  0  0  0  0
  160.9280  206.3860  149.2170 C   0  0  1  0  0  3  0  0  0  0  0  0
  161.7720  209.3750  151.3360 N   0  0  0  0  0  0  0  0  0  0  0  0
  161.3190  204.3010  148.5380 C   0  0  0  0  0  0  0  0  0  0  0  0
  160.4000  205.4290  150.2340 C   0  0  2  0  0  3  0  0  0  0  0  0
  162.2740  210.8110  149.4920 C   0  0  0  0  0  0  0  0  0  0  0  0
  161.2140  207.7880  149.5710 C   0  0  0  0  0  0  0  0  0  0  0  0
  161.0140  210.9360  147.4280 C   0  0  0  0  0  3  0  0  0  0  0  0
  161.0240  205.7100  151.5710 C   0  0  0  0  0  3  0  0  0  0  0  0
  162.3730  214.3730  148.2170 C   0  0  0  0  0  1  0  0  0  0  0  0
  162.5580  212.1770  149.3900 C   0  0  0  0  0  3  0  0  0  0  0  0
  161.4840  210.1800  148.5090 C   0  0  0  0  0  0  0  0  0  0  0  0
  159.6420  210.8540  154.7660 C   0  0  0  0  0  2  0  0  0  0  0  0
  161.0990  210.0180  152.4400 C   0  0  0  0  0  0  0  0  0  0  0  0
  159.8290  210.4390  152.3040 C   0  0  0  0  0  3  0  0  0  0  0  0
  159.0760  211.1610  153.3860 C   0  0  0  0  0  2  0  0  0  0  0  0
  161.1410  211.1050  154.7410 C   0  0  0  0  0  2  0  0  0  0  0  0
  161.8070  210.1280  153.7750 C   0  0  0  0  0  2  0  0  0  0  0  0
  1 12  1  0  0  0  0
  2 12  1  0  0  0  0
  2  6  1  0  0  0  0
  3 16  1  0  0  0  0
  4 14  1  0  0  0  0
  5 13  1  0  0  0  0
  7  9  1  1  0  0  0
  7 13  1  0  0  0  0
  7 11  1  0  0  0  0
  8 17  2  0  0  0  0
  8 10  1  0  0  0  0
 10 20  2  0  0  0  0
 11 16  1  1  0  0  0
 11 14  1  0  0  0  0
 12 23  1  0  0  0  0
 13  4  2  0  0  0  0
 14 18  1  1  0  0  0
 15  1  1  0  0  0  0
 16  2  2  0  0  0  0
 17 21  1  0  0  0  0
 18  6  2  0  0  0  0
 19 10  1  0  0  0  0
 20 15  1  0  0  0  0
 21  3  1  0  0  0  0
 21 15  2  0  0  0  0
 23 27  1  0  0  0  0
 24 23  2  0  0  0  0
 24 25  1  0  0  0  0
 25 22  1  0  0  0  0
 26 22  1  0  0  0  0
 27 26  1  0  0  0  0
M  END
>  <MODEL>
3

>  <REMARK>
 VINA RESULT:      -6.2      1.881      2.879
  Name = 
  1 active torsions:
  status: ('A' for Active; 'I' for Inactive)
    1  A    between atoms: C_9  and  N_15
                            x       y       z     vdW  Elec       q    Type
                         _______ _______ _______ _____ _____    ______ ____

>  <TORSDO>
F 1

$$$$
=
 OpenBabel11052423073D

 27 31  0  0  1  0  0  0  0  0999 V2000
  159.7340  205.6630  149.6290 C   0  0  0  0  0  2  0  0  0  0  0  0
  160.8510  206.0450  151.7930 C   0  0  0  0  0  0  0  0  0  0  0  0
  161.8310  207.7010  150.2290 N   0  0  0  0  0  2  0  0  0  0  0  0
  161.4750  208.7040  154.9240 N   0  0  0  0  0  0  0  0  0  0  0  0
  160.9450  211.0800  154.7340 C   0  0  0  0  0  1  0  0  0  0  0  0
  160.4560  205.6970  153.1900 C   0  0  0  0  0  3  0  0  0  0  0  0
  161.4280  209.4340  152.7650 C   0  0  2  0  0  3  0  0  0  0  0  0
  162.3310  207.1670  146.5810 C   0  0  0  0  0  3  0  0  0  0  0  0
  161.0070  210.3220  151.6420 C   0  0  0  0  0  1  0  0  0  0  0  0
  161.3680  206.2030  146.2840 C   0  0  0  0  0  0  0  0  0  0  0  0
  161.6670  208.1340  152.6880 C   0  0  1  0  0  3  0  0  0  0  0  0
  160.5010  205.1340  150.7430 N   0  0  0  0  0  0  0  0  0  0  0  0
  161.3160  209.7500  154.1800 C   0  0  0  0  0  0  0  0  0  0  0  0
  161.8030  207.5720  154.0640 C   0  0  2  0  0  3  0  0  0  0  0  0
  160.6640  206.1870  148.6030 C   0  0  0  0  0  0  0  0  0  0  0  0
  161.4070  207.2550  151.5320 C   0  0  0  0  0  0  0  0  0  0  0  0
  162.4650  207.6390  147.8890 C   0  0  0  0  0  3  0  0  0  0  0  0
  160.8500  206.4250  154.2440 C   0  0  0  0  0  3  0  0  0  0  0  0
  161.2240  205.6990  144.8930 C   0  0  0  0  0  1  0  0  0  0  0  0
  160.5330  205.7200  147.2920 C   0  0  0  0  0  3  0  0  0  0  0  0
  161.6470  207.1490  148.9150 C   0  0  0  0  0  0  0  0  0  0  0  0
  161.2060  200.8980  150.9880 C   0  0  0  0  0  2  0  0  0  0  0  0
  160.8820  203.7410  150.7640 C   0  0  0  0  0  0  0  0  0  0  0  0
  161.5360  203.2350  151.8250 C   0  0  0  0  0  3  0  0  0  0  0  0
  162.0110  201.8110  151.9030 C   0  0  0  0  0  2  0  0  0  0  0  0
  161.1910  201.5020  149.5930 C   0  0  0  0  0  2  0  0  0  0  0  0
  160.4560  202.8400  149.6220 C   0  0  0  0  0  2  0  0  0  0  0  0
  1 12  1  0  0  0  0
  2  6  1  0  0  0  0
  3 16  1  0  0  0  0
  6 18  2  0  0  0  0
  7  9  1  6  0  0  0
  7 13  1  0  0  0  0
  8 17  1  0  0  0  0
 10  8  2  0  0  0  0
 10 20  1  0  0  0  0
 11 16  1  1  0  0  0
 11  7  1  0  0  0  0
 11 14  1  0  0  0  0
 12 23  1  0  0  0  0
 12  2  1  0  0  0  0
 13  5  1  0  0  0  0
 13  4  2  0  0  0  0
 14 18  1  6  0  0  0
 14  4  1  0  0  0  0
 15 21  1  0  0  0  0
 15  1  1  0  0  0  0
 16  2  2  0  0  0  0
 17 21  2  0  0  0  0
 19 10  1  0  0  0  0
 20 15  2  0  0  0  0
 21  3  1  0  0  0  0
 22 25  1  0  0  0  0
 23 24  2  0  0  0  0
 24 25  1  0  0  0  0
 26 27  1  0  0  0  0
 26 22  1  0  0  0  0
 27 23  1  0  0  0  0
M  END
>  <MODEL>
4

>  <REMARK>
 VINA RESULT:      -5.4      1.828      6.008
  Name = 
  1 active torsions:
  status: ('A' for Active; 'I' for Inactive)
    1  A    between atoms: C_9  and  N_15
                            x       y       z     vdW  Elec       q    Type
                         _______ _______ _______ _____ _____    ______ ____

>  <TORSDO>
F 1

$$$$
