=
 OpenBabel11062410393D

 32 36  0  0  1  0  0  0  0  0999 V2000
  162.0320  204.8600  151.4870 C   0  0  0  0  0  3  0  0  0  0  0  0
  161.6580  210.2510  150.6950 C   0  0  0  0  0  3  0  0  0  0  0  0
  159.1190  210.3700  156.1220 C   0  0  0  0  0  3  0  0  0  0  0  0
  158.9160  211.7240  155.7740 C   0  0  0  0  0  3  0  0  0  0  0  0
  161.5310  207.8000  150.4420 C   0  0  0  0  0  0  0  0  0  0  0  0
  161.2740  208.0160  152.9060 C   0  0  0  0  0  3  0  0  0  0  0  0
  162.2200  205.9970  152.1500 C   0  0  0  0  0  3  0  0  0  0  0  0
  159.7290  209.4820  155.2180 C   0  0  0  0  0  3  0  0  0  0  0  0
  160.7410  209.3780  152.9090 C   0  0  0  0  0  0  0  0  0  0  0  0
  160.1100  209.9870  153.9760 C   0  0  0  0  0  0  0  0  0  0  0  0
  160.4100  211.5490  152.4090 N   0  0  0  0  0  0  0  0  0  0  0  0
  160.8560  205.5770  149.4250 C   0  0  0  0  0  3  0  0  0  0  0  0
  161.6320  207.3030  151.8390 C   0  0  0  0  0  0  0  0  0  0  0  0
  161.2000  207.0060  149.4230 C   0  0  0  0  0  3  0  0  0  0  0  0
  161.1790  204.6310  150.3140 C   0  0  0  0  0  0  0  0  0  0  0  0
  159.3210  212.2070  154.5170 C   0  0  0  0  0  3  0  0  0  0  0  0
  159.9180  211.3030  153.6370 C   0  0  0  0  0  0  0  0  0  0  0  0
  161.9000  209.1380  150.0770 N   0  0  0  0  0  0  0  0  0  0  0  0
  160.9180  210.3740  151.9560 C   0  0  0  0  0  0  0  0  0  0  0  0
  160.9140  202.5110  148.8760 C   0  0  0  0  0  0  0  0  0  0  0  0
  160.7810  203.2700  150.0870 N   0  0  0  0  0  2  0  0  0  0  0  0
  161.3630  203.0320  147.8200 O   0  0  0  0  0  0  0  0  0  0  0  0
  160.4980  201.0850  148.8650 C   0  0  0  0  0  1  0  0  0  0  0  0
  160.4680  212.8460  151.7400 C   0  0  0  0  0  2  0  0  0  0  0  0
  158.4080  213.8440  150.9860 O   0  0  0  0  0  0  0  0  0  0  0  0
  157.3020  213.5430  150.1640 C   0  0  2  0  0  3  0  0  0  0  0  0
  160.0150  213.2970  149.2700 C   0  0  1  0  0  3  0  0  0  0  0  0
  158.9030  213.5540  148.2860 C   0  0  0  0  0  3  0  0  0  0  0  0
  157.6380  213.7170  148.7010 C   0  0  0  0  0  3  0  0  0  0  0  0
  156.1340  214.4320  150.5320 C   0  0  0  0  0  1  0  0  0  0  0  0
  160.7920  214.4530  149.3820 O   0  0  0  0  0  1  0  0  0  0  0  0
  159.4160  212.9230  150.6390 C   0  0  1  0  0  3  0  0  0  0  0  0
  1  7  1  0  0  0  0
  2 19  2  0  0  0  0
  4  3  1  0  0  0  0
  5 13  1  0  0  0  0
  6  9  2  0  0  0  0
  8  3  2  0  0  0  0
  9 10  1  0  0  0  0
 10  8  1  0  0  0  0
 11 17  1  0  0  0  0
 12 15  1  0  0  0  0
 13  7  2  0  0  0  0
 13  6  1  0  0  0  0
 14 12  2  0  0  0  0
 14  5  1  0  0  0  0
 15  1  2  0  0  0  0
 16  4  2  0  0  0  0
 17 10  2  0  0  0  0
 17 16  1  0  0  0  0
 18  5  2  0  0  0  0
 18  2  1  0  0  0  0
 19 11  1  0  0  0  0
 19  9  1  0  0  0  0
 20 21  1  0  0  0  0
 21 15  1  0  0  0  0
 22 20  2  0  0  0  0
 23 20  1  0  0  0  0
 24 11  1  0  0  0  0
 26 30  1  1  0  0  0
 26 25  1  0  0  0  0
 27 31  1  1  0  0  0
 27 32  1  0  0  0  0
 28 29  2  0  0  0  0
 28 27  1  0  0  0  0
 29 26  1  0  0  0  0
 32 25  1  0  0  0  0
 32 24  1  1  0  0  0
M  END
>  <MODEL>
1

>  <REMARK>
 VINA RESULT:      -8.6      0.000      0.000
  Name = 
  3 active torsions:
  status: ('A' for Active; 'I' for Inactive)
    1  A    between atoms: N_10  and  C_24
    2  A    between atoms: N_16  and  C_27
    3  A    between atoms: C_27  and  C_32
                            x       y       z     vdW  Elec       q    Type
                         _______ _______ _______ _____ _____    ______ ____

>  <TORSDO>
F 3

$$$$
=
 OpenBabel11062410393D

 32 36  0  0  1  0  0  0  0  0999 V2000
  161.9850  204.2950  150.4660 C   0  0  0  0  0  3  0  0  0  0  0  0
  161.5780  209.6270  151.5740 C   0  0  0  0  0  3  0  0  0  0  0  0
  160.0760  207.8560  157.0990 C   0  0  0  0  0  3  0  0  0  0  0  0
  159.8390  209.2400  157.2580 C   0  0  0  0  0  3  0  0  0  0  0  0
  161.3590  207.3910  150.5550 C   0  0  0  0  0  0  0  0  0  0  0  0
  161.5610  206.7770  152.9560 C   0  0  0  0  0  3  0  0  0  0  0  0
  162.3130  205.1590  151.4210 C   0  0  0  0  0  3  0  0  0  0  0  0
  160.4930  207.3400  155.8590 C   0  0  0  0  0  3  0  0  0  0  0  0
  161.0640  208.0400  153.5030 C   0  0  0  0  0  0  0  0  0  0  0  0
  160.6510  208.2390  154.8060 C   0  0  0  0  0  0  0  0  0  0  0  0
  160.6900  210.2390  153.8130 N   0  0  0  0  0  0  0  0  0  0  0  0
  160.4660  205.5970  149.0000 C   0  0  0  0  0  3  0  0  0  0  0  0
  161.7040  206.4680  151.6680 C   0  0  0  0  0  0  0  0  0  0  0  0
  160.8320  206.9610  149.4080 C   0  0  0  0  0  3  0  0  0  0  0  0
  160.9270  204.4260  149.4560 C   0  0  0  0  0  0  0  0  0  0  0  0
  160.0180  210.1240  156.1800 C   0  0  0  0  0  3  0  0  0  0  0  0
  160.4260  209.5840  154.9590 C   0  0  0  0  0  0  0  0  0  0  0  0
  161.6810  208.7890  150.5910 N   0  0  0  0  0  0  0  0  0  0  0  0
  161.0830  209.2990  152.9160 C   0  0  0  0  0  0  0  0  0  0  0  0
  160.9520  202.5670  147.6740 C   0  0  0  0  0  0  0  0  0  0  0  0
  160.4680  203.1990  148.8670 N   0  0  0  0  0  2  0  0  0  0  0  0
  161.8390  203.1050  146.9580 O   0  0  0  0  0  0  0  0  0  0  0  0
  160.3840  201.2570  147.2660 C   0  0  0  0  0  1  0  0  0  0  0  0
  160.6510  211.6850  153.6100 C   0  0  0  0  0  2  0  0  0  0  0  0
  158.8600  213.1230  154.3380 O   0  0  0  0  0  0  0  0  0  0  0  0
  157.4500  213.1740  154.3390 C   0  0  2  0  0  3  0  0  0  0  0  0
  158.9860  212.7020  151.9650 C   0  0  1  0  0  3  0  0  0  0  0  0
  157.6170  213.3260  151.8830 C   0  0  0  0  0  3  0  0  0  0  0  0
  156.9110  213.5930  152.9910 C   0  0  0  0  0  3  0  0  0  0  0  0
  156.9730  214.1380  155.4050 C   0  0  0  0  0  1  0  0  0  0  0  0
  159.9430  213.6760  151.6650 O   0  0  0  0  0  1  0  0  0  0  0  0
  159.2160  212.1500  153.3860 C   0  0  1  0  0  3  0  0  0  0  0  0
  1  7  1  0  0  0  0
  2 19  2  0  0  0  0
  3  4  1  0  0  0  0
  5 18  2  0  0  0  0
  5 13  1  0  0  0  0
  6  9  2  0  0  0  0
  7 13  2  0  0  0  0
  8  3  2  0  0  0  0
  9 10  1  0  0  0  0
 10 17  2  0  0  0  0
 10  8  1  0  0  0  0
 11 17  1  0  0  0  0
 12 14  2  0  0  0  0
 12 15  1  0  0  0  0
 13  6  1  0  0  0  0
 14  5  1  0  0  0  0
 15  1  2  0  0  0  0
 16  4  2  0  0  0  0
 17 16  1  0  0  0  0
 18  2  1  0  0  0  0
 19  9  1  0  0  0  0
 19 11  1  0  0  0  0
 20 21  1  0  0  0  0
 21 15  1  0  0  0  0
 22 20  2  0  0  0  0
 23 20  1  0  0  0  0
 24 11  1  0  0  0  0
 25 26  1  0  0  0  0
 26 30  1  1  0  0  0
 27 31  1  1  0  0  0
 27 32  1  0  0  0  0
 28 27  1  0  0  0  0
 28 29  2  0  0  0  0
 29 26  1  0  0  0  0
 32 24  1  6  0  0  0
 32 25  1  0  0  0  0
M  END
>  <MODEL>
2

>  <REMARK>
 VINA RESULT:      -8.1      1.586      2.361
  Name = 
  3 active torsions:
  status: ('A' for Active; 'I' for Inactive)
    1  A    between atoms: N_10  and  C_24
    2  A    between atoms: N_16  and  C_27
    3  A    between atoms: C_27  and  C_32
                            x       y       z     vdW  Elec       q    Type
                         _______ _______ _______ _____ _____    ______ ____

>  <TORSDO>
F 3

$$$$
=
 OpenBabel11062410393D

 32 36  0  0  1  0  0  0  0  0999 V2000
  162.1730  204.1240  146.8840 C   0  0  0  0  0  3  0  0  0  0  0  0
  161.8780  209.0070  149.3120 C   0  0  0  0  0  3  0  0  0  0  0  0
  160.9190  205.8940  154.3420 C   0  0  0  0  0  3  0  0  0  0  0  0
  160.6990  207.1900  154.8600 C   0  0  0  0  0  3  0  0  0  0  0  0
  161.5600  207.0870  147.7960 C   0  0  0  0  0  0  0  0  0  0  0  0
  161.9940  205.9050  149.9400 C   0  0  0  0  0  3  0  0  0  0  0  0
  162.5930  204.7330  147.9880 C   0  0  0  0  0  3  0  0  0  0  0  0
  161.2130  205.7100  152.9790 C   0  0  0  0  0  3  0  0  0  0  0  0
  161.5520  206.9820  150.8270 C   0  0  0  0  0  0  0  0  0  0  0  0
  161.2680  206.8440  152.1710 C   0  0  0  0  0  0  0  0  0  0  0  0
  161.2110  209.0270  151.7060 N   0  0  0  0  0  0  0  0  0  0  0  0
  160.5200  205.7100  145.9360 C   0  0  0  0  0  3  0  0  0  0  0  0
  162.0110  205.9270  148.6080 C   0  0  0  0  0  0  0  0  0  0  0  0
  160.9230  206.9400  146.6330 C   0  0  0  0  0  3  0  0  0  0  0  0
  161.0230  204.4750  146.0420 C   0  0  0  0  0  0  0  0  0  0  0  0
  160.7720  208.3170  154.0220 C   0  0  0  0  0  3  0  0  0  0  0  0
  161.0590  208.1040  152.6730 C   0  0  0  0  0  0  0  0  0  0  0  0
  161.8840  208.4400  148.1460 N   0  0  0  0  0  0  0  0  0  0  0  0
  161.5150  208.3470  150.5710 C   0  0  0  0  0  0  0  0  0  0  0  0
  160.3770  202.0310  145.5490 C   0  0  0  0  0  0  0  0  0  0  0  0
  160.5080  203.4200  145.2140 N   0  0  0  0  0  2  0  0  0  0  0  0
  160.7910  201.5780  146.6500 O   0  0  0  0  0  0  0  0  0  0  0  0
  159.7550  201.1050  144.5690 C   0  0  0  0  0  1  0  0  0  0  0  0
  161.1520  210.4770  151.8720 C   0  0  0  0  0  2  0  0  0  0  0  0
  160.6880  211.6340  153.9340 O   0  0  0  0  0  0  0  0  0  0  0  0
  159.8070  211.5660  155.0330 C   0  0  2  0  0  3  0  0  0  0  0  0
  158.8990  211.5880  152.3150 C   0  0  1  0  0  3  0  0  0  0  0  0
  158.0170  212.1010  153.4230 C   0  0  0  0  0  3  0  0  0  0  0  0
  158.4510  212.1370  154.6920 C   0  0  0  0  0  3  0  0  0  0  0  0
  160.3980  212.3150  156.2100 C   0  0  0  0  0  1  0  0  0  0  0  0
  159.3300  212.6730  151.5450 O   0  0  0  0  0  1  0  0  0  0  0  0
  160.1090  210.8490  152.9190 C   0  0  1  0  0  3  0  0  0  0  0  0
  1  7  1  0  0  0  0
  2 19  2  0  0  0  0
  3  4  1  0  0  0  0
  5 18  2  0  0  0  0
  5 13  1  0  0  0  0
  6  9  2  0  0  0  0
  7 13  2  0  0  0  0
  8  3  2  0  0  0  0
  9 10  1  0  0  0  0
 10 17  2  0  0  0  0
 10  8  1  0  0  0  0
 11 24  1  0  0  0  0
 11 17  1  0  0  0  0
 12 15  1  0  0  0  0
 12 14  2  0  0  0  0
 13  6  1  0  0  0  0
 14  5  1  0  0  0  0
 15  1  2  0  0  0  0
 16  4  2  0  0  0  0
 17 16  1  0  0  0  0
 18  2  1  0  0  0  0
 19  9  1  0  0  0  0
 19 11  1  0  0  0  0
 20 22  2  0  0  0  0
 21 20  1  0  0  0  0
 21 15  1  0  0  0  0
 23 20  1  0  0  0  0
 25 26  1  0  0  0  0
 26 30  1  1  0  0  0
 27 31  1  1  0  0  0
 27 32  1  0  0  0  0
 27 28  1  0  0  0  0
 28 29  2  0  0  0  0
 29 26  1  0  0  0  0
 32 24  1  6  0  0  0
 32 25  1  0  0  0  0
M  END
>  <MODEL>
3

>  <REMARK>
 VINA RESULT:      -7.3      2.428      4.092
  Name = 
  3 active torsions:
  status: ('A' for Active; 'I' for Inactive)
    1  A    between atoms: N_10  and  C_24
    2  A    between atoms: N_16  and  C_27
    3  A    between atoms: C_27  and  C_32
                            x       y       z     vdW  Elec       q    Type
                         _______ _______ _______ _____ _____    ______ ____

>  <TORSDO>
F 3

$$$$
=
 OpenBabel11062410393D

 32 36  0  0  1  0  0  0  0  0999 V2000
  160.0520  212.0790  155.4130 C   0  0  0  0  0  3  0  0  0  0  0  0
  161.5780  206.9980  154.1160 C   0  0  0  0  0  3  0  0  0  0  0  0
  162.1010  209.1130  148.5340 C   0  0  0  0  0  3  0  0  0  0  0  0
  162.3300  207.7470  148.2550 C   0  0  0  0  0  3  0  0  0  0  0  0
  160.3680  208.9630  154.9870 C   0  0  0  0  0  0  0  0  0  0  0  0
  161.3800  209.9290  152.9320 C   0  0  0  0  0  3  0  0  0  0  0  0
  160.9650  211.4520  154.6780 C   0  0  0  0  0  3  0  0  0  0  0  0
  161.8100  209.5370  149.8430 C   0  0  0  0  0  3  0  0  0  0  0  0
  161.5110  208.6730  152.1930 C   0  0  0  0  0  0  0  0  0  0  0  0
  161.7480  208.5630  150.8370 C   0  0  0  0  0  0  0  0  0  0  0  0
  161.9000  206.5100  151.7000 N   0  0  0  0  0  0  0  0  0  0  0  0
  158.4670  210.2760  156.0360 C   0  0  0  0  0  3  0  0  0  0  0  0
  160.8860  210.0830  154.1590 C   0  0  0  0  0  0  0  0  0  0  0  0
  159.3180  209.1000  155.7980 C   0  0  0  0  0  3  0  0  0  0  0  0
  158.7460  211.5720  155.8550 C   0  0  0  0  0  0  0  0  0  0  0  0
  162.2710  206.7890  149.2820 C   0  0  0  0  0  3  0  0  0  0  0  0
  161.9730  207.2370  150.5700 C   0  0  0  0  0  0  0  0  0  0  0  0
  161.0340  207.6950  155.0640 N   0  0  0  0  0  0  0  0  0  0  0  0
  161.6190  207.3830  152.7010 C   0  0  0  0  0  0  0  0  0  0  0  0
  156.6580  213.0180  155.4320 C   0  0  0  0  0  0  0  0  0  0  0  0
  157.7760  212.5690  156.2120 N   0  0  0  0  0  2  0  0  0  0  0  0
  156.4580  212.5920  154.2630 O   0  0  0  0  0  0  0  0  0  0  0  0
  155.7260  214.0190  156.0120 C   0  0  0  0  0  1  0  0  0  0  0  0
  162.1660  205.0800  151.8320 C   0  0  0  0  0  2  0  0  0  0  0  0
  161.9550  204.0790  149.6500 O   0  0  0  0  0  0  0  0  0  0  0  0
  160.9590  203.7430  148.7100 C   0  0  2  0  0  3  0  0  0  0  0  0
  160.8390  202.9330  151.4570 C   0  0  1  0  0  3  0  0  0  0  0  0
  160.1530  202.1230  150.3870 C   0  0  0  0  0  3  0  0  0  0  0  0
  160.2430  202.4690  149.0940 C   0  0  0  0  0  3  0  0  0  0  0  0
  161.5800  203.5880  147.3380 C   0  0  0  0  0  1  0  0  0  0  0  0
  161.9460  202.2170  151.9220 O   0  0  0  0  0  1  0  0  0  0  0  0
  161.2870  204.2860  150.8720 C   0  0  1  0  0  3  0  0  0  0  0  0
  1 15  1  0  0  0  0
  2 18  2  0  0  0  0
  3  8  1  0  0  0  0
  4  3  2  0  0  0  0
  4 16  1  0  0  0  0
  5 18  1  0  0  0  0
  5 14  2  0  0  0  0
  6 13  2  0  0  0  0
  7  1  2  0  0  0  0
  8 10  2  0  0  0  0
  9 19  2  0  0  0  0
  9  6  1  0  0  0  0
 10  9  1  0  0  0  0
 11 24  1  0  0  0  0
 11 19  1  0  0  0  0
 13  7  1  0  0  0  0
 13  5  1  0  0  0  0
 14 12  1  0  0  0  0
 15 12  2  0  0  0  0
 15 21  1  0  0  0  0
 16 17  2  0  0  0  0
 17 10  1  0  0  0  0
 17 11  1  0  0  0  0
 19  2  1  0  0  0  0
 20 23  1  0  0  0  0
 20 21  1  0  0  0  0
 22 20  2  0  0  0  0
 25 32  1  0  0  0  0
 26 30  1  6  0  0  0
 26 29  1  0  0  0  0
 26 25  1  0  0  0  0
 27 31  1  6  0  0  0
 28 27  1  0  0  0  0
 29 28  2  0  0  0  0
 32 27  1  0  0  0  0
 32 24  1  1  0  0  0
M  END
>  <MODEL>
4

>  <REMARK>
 VINA RESULT:      -7.2      3.045      8.844
  Name = 
  3 active torsions:
  status: ('A' for Active; 'I' for Inactive)
    1  A    between atoms: N_10  and  C_24
    2  A    between atoms: N_16  and  C_27
    3  A    between atoms: C_27  and  C_32
                            x       y       z     vdW  Elec       q    Type
                         _______ _______ _______ _____ _____    ______ ____

>  <TORSDO>
F 3

$$$$
=
 OpenBabel11062410393D

 32 36  0  0  1  0  0  0  0  0999 V2000
  162.6550  212.8690  146.9330 C   0  0  0  0  0  3  0  0  0  0  0  0
  160.2860  212.3050  151.8210 C   0  0  0  0  0  3  0  0  0  0  0  0
  162.2720  206.6560  151.5770 C   0  0  0  0  0  3  0  0  0  0  0  0
  161.5020  206.5490  152.7560 C   0  0  0  0  0  3  0  0  0  0  0  0
  160.7450  212.8060  149.4490 C   0  0  0  0  0  0  0  0  0  0  0  0
  162.1970  210.8150  149.7810 C   0  0  0  0  0  3  0  0  0  0  0  0
  162.9020  212.3290  148.1210 C   0  0  0  0  0  3  0  0  0  0  0  0
  162.3200  207.8660  150.8610 C   0  0  0  0  0  3  0  0  0  0  0  0
  161.4450  210.2310  150.8920 C   0  0  0  0  0  0  0  0  0  0  0  0
  161.5760  208.9370  151.3530 C   0  0  0  0  0  0  0  0  0  0  0  0
  160.2460  210.0150  152.7860 N   0  0  0  0  0  0  0  0  0  0  0  0
  160.2490  213.4560  147.0480 C   0  0  0  0  0  3  0  0  0  0  0  0
  161.9150  211.9440  149.1340 C   0  0  0  0  0  0  0  0  0  0  0  0
  160.0580  213.4520  148.5060 C   0  0  0  0  0  3  0  0  0  0  0  0
  161.3500  213.1840  146.3380 C   0  0  0  0  0  0  0  0  0  0  0  0
  160.7710  207.6510  153.2350 C   0  0  0  0  0  3  0  0  0  0  0  0
  160.8310  208.8360  152.5010 C   0  0  0  0  0  0  0  0  0  0  0  0
  160.3490  213.0980  150.7970 N   0  0  0  0  0  0  0  0  0  0  0  0
  160.6190  210.8760  151.8050 C   0  0  0  0  0  0  0  0  0  0  0  0
  160.5190  212.5670  143.9800 C   0  0  0  0  0  0  0  0  0  0  0  0
  161.3260  213.3060  144.9070 N   0  0  0  0  0  2  0  0  0  0  0  0
  159.7570  211.6390  144.3650 O   0  0  0  0  0  0  0  0  0  0  0  0
  160.5960  212.8920  142.5330 C   0  0  0  0  0  1  0  0  0  0  0  0
  159.4480  210.3240  153.9690 C   0  0  0  0  0  2  0  0  0  0  0  0
  159.4620  211.9340  155.7620 O   0  0  0  0  0  0  0  0  0  0  0  0
  160.3190  212.8900  156.3460 C   0  0  2  0  0  3  0  0  0  0  0  0
  161.0980  210.1660  155.9090 C   0  0  1  0  0  3  0  0  0  0  0  0
  161.7300  210.9780  157.0100 C   0  0  0  0  0  3  0  0  0  0  0  0
  161.3390  212.2380  157.2510 C   0  0  0  0  0  3  0  0  0  0  0  0
  159.5050  213.8960  157.1320 C   0  0  0  0  0  1  0  0  0  0  0  0
  160.2640  209.2030  156.4850 O   0  0  0  0  0  1  0  0  0  0  0  0
  160.2830  211.0930  154.9870 C   0  0  1  0  0  3  0  0  0  0  0  0
  1  7  1  0  0  0  0
  3  4  1  0  0  0  0
  4 16  2  0  0  0  0
  5 18  2  0  0  0  0
  6  9  2  0  0  0  0
  7 13  2  0  0  0  0
  8 10  1  0  0  0  0
  8  3  2  0  0  0  0
  9 10  1  0  0  0  0
  9 19  1  0  0  0  0
 10 17  2  0  0  0  0
 11 24  1  0  0  0  0
 12 14  2  0  0  0  0
 13  5  1  0  0  0  0
 13  6  1  0  0  0  0
 14  5  1  0  0  0  0
 15  1  2  0  0  0  0
 15 12  1  0  0  0  0
 17 11  1  0  0  0  0
 17 16  1  0  0  0  0
 18  2  1  0  0  0  0
 19  2  2  0  0  0  0
 19 11  1  0  0  0  0
 20 22  2  0  0  0  0
 20 21  1  0  0  0  0
 21 15  1  0  0  0  0
 23 20  1  0  0  0  0
 25 26  1  0  0  0  0
 26 30  1  1  0  0  0
 26 29  1  0  0  0  0
 27 31  1  1  0  0  0
 27 28  1  0  0  0  0
 28 29  2  0  0  0  0
 32 24  1  6  0  0  0
 32 25  1  0  0  0  0
 32 27  1  0  0  0  0
M  END
>  <MODEL>
5

>  <REMARK>
 VINA RESULT:      -6.8      3.376      7.092
  Name = 
  3 active torsions:
  status: ('A' for Active; 'I' for Inactive)
    1  A    between atoms: N_10  and  C_24
    2  A    between atoms: N_16  and  C_27
    3  A    between atoms: C_27  and  C_32
                            x       y       z     vdW  Elec       q    Type
                         _______ _______ _______ _____ _____    ______ ____

>  <TORSDO>
F 3

$$$$
=
 OpenBabel11062410393D

 32 36  0  0  1  0  0  0  0  0999 V2000
  162.1050  212.1130  148.1840 C   0  0  0  0  0  3  0  0  0  0  0  0
  161.5810  209.6310  153.0210 C   0  0  0  0  0  3  0  0  0  0  0  0
  161.1180  204.5850  149.8210 C   0  0  0  0  0  3  0  0  0  0  0  0
  160.8310  204.0440  151.0950 C   0  0  0  0  0  3  0  0  0  0  0  0
  161.3250  211.1450  151.0900 C   0  0  0  0  0  0  0  0  0  0  0  0
  161.9570  209.0360  149.9320 C   0  0  0  0  0  3  0  0  0  0  0  0
  162.5360  211.0270  148.8170 C   0  0  0  0  0  3  0  0  0  0  0  0
  161.3530  205.9630  149.6660 C   0  0  0  0  0  3  0  0  0  0  0  0
  161.4850  208.1180  150.9690 C   0  0  0  0  0  0  0  0  0  0  0  0
  161.2820  206.7630  150.8050 C   0  0  0  0  0  0  0  0  0  0  0  0
  161.0420  207.2050  152.9800 N   0  0  0  0  0  0  0  0  0  0  0  0
  160.2920  212.9590  149.6490 C   0  0  0  0  0  3  0  0  0  0  0  0
  161.9020  210.3670  149.9620 C   0  0  0  0  0  0  0  0  0  0  0  0
  160.6410  212.2740  150.9030 C   0  0  0  0  0  3  0  0  0  0  0  0
  160.8890  212.8910  148.4540 C   0  0  0  0  0  0  0  0  0  0  0  0
  160.7780  204.8750  152.2280 C   0  0  0  0  0  3  0  0  0  0  0  0
  161.0090  206.2390  152.0430 C   0  0  0  0  0  0  0  0  0  0  0  0
  161.5680  210.8010  152.4610 N   0  0  0  0  0  0  0  0  0  0  0  0
  161.3350  208.3600  152.3290 C   0  0  0  0  0  0  0  0  0  0  0  0
  159.7870  213.2540  146.1550 C   0  0  0  0  0  0  0  0  0  0  0  0
  160.4100  213.7000  147.3680 N   0  0  0  0  0  2  0  0  0  0  0  0
  159.6570  212.0280  145.8940 O   0  0  0  0  0  0  0  0  0  0  0  0
  159.2990  214.2620  145.1790 C   0  0  0  0  0  1  0  0  0  0  0  0
  160.8860  207.0240  154.4210 C   0  0  0  0  0  2  0  0  0  0  0  0
  159.5210  208.7770  155.3520 O   0  0  0  0  0  0  0  0  0  0  0  0
  159.5660  210.1660  155.5920 C   0  0  2  0  0  3  0  0  0  0  0  0
  161.6290  208.3730  156.4550 C   0  0  1  0  0  3  0  0  0  0  0  0
  161.3800  209.6660  157.1870 C   0  0  0  0  0  3  0  0  0  0  0  0
  160.3870  210.4890  156.8190 C   0  0  0  0  0  3  0  0  0  0  0  0
  158.1600  210.7030  155.7610 C   0  0  0  0  0  1  0  0  0  0  0  0
  161.2060  207.3120  157.2610 O   0  0  0  0  0  1  0  0  0  0  0  0
  160.8510  208.3760  155.1250 C   0  0  1  0  0  3  0  0  0  0  0  0
  1 15  2  0  0  0  0
  1  7  1  0  0  0  0
  3  4  1  0  0  0  0
  4 16  2  0  0  0  0
  5 18  2  0  0  0  0
  6 13  1  0  0  0  0
  6  9  2  0  0  0  0
  7 13  2  0  0  0  0
  8  3  2  0  0  0  0
  8 10  1  0  0  0  0
  9 19  1  0  0  0  0
 10  9  1  0  0  0  0
 10 17  2  0  0  0  0
 11 24  1  0  0  0  0
 12 14  2  0  0  0  0
 13  5  1  0  0  0  0
 14  5  1  0  0  0  0
 15 12  1  0  0  0  0
 17 16  1  0  0  0  0
 17 11  1  0  0  0  0
 18  2  1  0  0  0  0
 19 11  1  0  0  0  0
 19  2  2  0  0  0  0
 20 21  1  0  0  0  0
 21 15  1  0  0  0  0
 22 20  2  0  0  0  0
 23 20  1  0  0  0  0
 25 26  1  0  0  0  0
 26 30  1  1  0  0  0
 26 29  1  0  0  0  0
 27 28  1  0  0  0  0
 27 31  1  1  0  0  0
 29 28  2  0  0  0  0
 32 24  1  1  0  0  0
 32 25  1  0  0  0  0
 32 27  1  0  0  0  0
M  END
>  <MODEL>
6

>  <REMARK>
 VINA RESULT:      -6.6      2.879      7.437
  Name = 
  3 active torsions:
  status: ('A' for Active; 'I' for Inactive)
    1  A    between atoms: N_10  and  C_24
    2  A    between atoms: N_16  and  C_27
    3  A    between atoms: C_27  and  C_32
                            x       y       z     vdW  Elec       q    Type
                         _______ _______ _______ _____ _____    ______ ____

>  <TORSDO>
F 3

$$$$
=
 OpenBabel11062410393D

 32 36  0  0  1  0  0  0  0  0999 V2000
  160.0800  202.1820  148.9510 C   0  0  0  0  0  3  0  0  0  0  0  0
  161.2790  205.8230  152.8420 C   0  0  0  0  0  3  0  0  0  0  0  0
  161.8780  209.7120  148.3220 C   0  0  0  0  0  3  0  0  0  0  0  0
  162.3310  210.5460  149.3680 C   0  0  0  0  0  3  0  0  0  0  0  0
  161.2150  203.8180  151.4050 C   0  0  0  0  0  0  0  0  0  0  0  0
  160.6650  205.5840  149.7440 C   0  0  0  0  0  3  0  0  0  0  0  0
  159.8080  203.4410  149.2780 C   0  0  0  0  0  3  0  0  0  0  0  0
  161.5090  208.3790  148.5790 C   0  0  0  0  0  3  0  0  0  0  0  0
  161.3120  206.6930  150.4450 C   0  0  0  0  0  0  0  0  0  0  0  0
  161.6170  207.9200  149.8900 C   0  0  0  0  0  0  0  0  0  0  0  0
  162.0230  208.0680  152.0810 N   0  0  0  0  0  0  0  0  0  0  0  0
  161.9420  201.5740  150.4720 C   0  0  0  0  0  3  0  0  0  0  0  0
  160.6040  204.3150  150.1450 C   0  0  0  0  0  0  0  0  0  0  0  0
  161.7760  202.6110  151.5000 C   0  0  0  0  0  3  0  0  0  0  0  0
  161.2430  201.3780  149.3480 C   0  0  0  0  0  0  0  0  0  0  0  0
  162.4190  210.0580  150.6840 C   0  0  0  0  0  3  0  0  0  0  0  0
  162.0520  208.7300  150.9090 C   0  0  0  0  0  0  0  0  0  0  0  0
  161.1360  204.5500  152.6360 N   0  0  0  0  0  0  0  0  0  0  0  0
  161.5690  206.8190  151.8040 C   0  0  0  0  0  0  0  0  0  0  0  0
  161.3780  200.1580  147.0840 C   0  0  0  0  0  0  0  0  0  0  0  0
  161.5430  200.2530  148.5060 N   0  0  0  0  0  2  0  0  0  0  0  0
  160.8600  201.0940  146.4180 O   0  0  0  0  0  0  0  0  0  0  0  0
  161.8140  198.9210  146.3860 C   0  0  0  0  0  1  0  0  0  0  0  0
  162.3310  208.6200  153.3970 C   0  0  0  0  0  2  0  0  0  0  0  0
  161.2610  208.0170  155.4700 O   0  0  0  0  0  0  0  0  0  0  0  0
  159.9720  207.7610  155.9840 C   0  0  2  0  0  3  0  0  0  0  0  0
  160.6180  210.1400  154.5220 C   0  0  1  0  0  3  0  0  0  0  0  0
  159.4980  210.1390  155.5300 C   0  0  0  0  0  3  0  0  0  0  0  0
  159.2200  209.0440  156.2520 C   0  0  0  0  0  3  0  0  0  0  0  0
  160.0810  206.9540  157.2610 C   0  0  0  0  0  1  0  0  0  0  0  0
  161.6810  210.8900  155.0320 O   0  0  0  0  0  1  0  0  0  0  0  0
  161.0690  208.6920  154.2500 C   0  0  1  0  0  3  0  0  0  0  0  0
  1  7  2  0  0  0  0
  1 15  1  0  0  0  0
  3  8  2  0  0  0  0
  3  4  1  0  0  0  0
  4 16  2  0  0  0  0
  5 14  2  0  0  0  0
  5 18  1  0  0  0  0
  6 13  2  0  0  0  0
  6  9  1  0  0  0  0
  7 13  1  0  0  0  0
  8 10  1  0  0  0  0
  9 19  2  0  0  0  0
 10  9  1  0  0  0  0
 10 17  2  0  0  0  0
 11 24  1  0  0  0  0
 12 14  1  0  0  0  0
 13  5  1  0  0  0  0
 15 12  2  0  0  0  0
 16 17  1  0  0  0  0
 17 11  1  0  0  0  0
 18  2  2  0  0  0  0
 19 11  1  0  0  0  0
 19  2  1  0  0  0  0
 20 21  1  0  0  0  0
 21 15  1  0  0  0  0
 22 20  2  0  0  0  0
 23 20  1  0  0  0  0
 25 26  1  0  0  0  0
 26 29  1  0  0  0  0
 26 30  1  1  0  0  0
 27 31  1  1  0  0  0
 27 28  1  0  0  0  0
 28 29  2  0  0  0  0
 32 24  1  1  0  0  0
 32 27  1  0  0  0  0
 32 25  1  0  0  0  0
M  END
>  <MODEL>
7

>  <REMARK>
 VINA RESULT:      -6.2      3.206      5.739
  Name = 
  3 active torsions:
  status: ('A' for Active; 'I' for Inactive)
    1  A    between atoms: N_10  and  C_24
    2  A    between atoms: N_16  and  C_27
    3  A    between atoms: C_27  and  C_32
                            x       y       z     vdW  Elec       q    Type
                         _______ _______ _______ _____ _____    ______ ____

>  <TORSDO>
F 3

$$$$
=
 OpenBabel11062410393D

 32 36  0  0  1  0  0  0  0  0999 V2000
  160.0880  202.1090  148.8280 C   0  0  0  0  0  3  0  0  0  0  0  0
  160.9530  205.4770  153.0400 C   0  0  0  0  0  3  0  0  0  0  0  0
  161.9860  209.6410  148.8560 C   0  0  0  0  0  3  0  0  0  0  0  0
  162.3480  210.4000  149.9910 C   0  0  0  0  0  3  0  0  0  0  0  0
  161.0070  203.5700  151.4760 C   0  0  0  0  0  0  0  0  0  0  0  0
  160.6210  205.4460  149.8900 C   0  0  0  0  0  3  0  0  0  0  0  0
  159.7960  203.3480  149.2110 C   0  0  0  0  0  3  0  0  0  0  0  0
  161.5860  208.2990  148.9910 C   0  0  0  0  0  3  0  0  0  0  0  0
  161.2100  206.4990  150.7180 C   0  0  0  0  0  0  0  0  0  0  0  0
  161.5720  207.7550  150.2740 C   0  0  0  0  0  0  0  0  0  0  0  0
  161.7780  207.7570  152.4970 N   0  0  0  0  0  0  0  0  0  0  0  0
  161.8000  201.3820  150.4680 C   0  0  0  0  0  3  0  0  0  0  0  0
  160.5160  204.1550  150.2010 C   0  0  0  0  0  0  0  0  0  0  0  0
  161.5480  202.3530  151.5430 C   0  0  0  0  0  3  0  0  0  0  0  0
  161.2050  201.2670  149.2750 C   0  0  0  0  0  0  0  0  0  0  0  0
  162.3120  209.8270  151.2750 C   0  0  0  0  0  3  0  0  0  0  0  0
  161.9180  208.4920  151.3790 C   0  0  0  0  0  0  0  0  0  0  0  0
  160.8200  204.2220  152.7400 N   0  0  0  0  0  0  0  0  0  0  0  0
  161.3430  206.5340  152.1000 C   0  0  0  0  0  0  0  0  0  0  0  0
  161.4040  200.1390  146.9690 C   0  0  0  0  0  0  0  0  0  0  0  0
  161.5730  200.1950  148.3920 N   0  0  0  0  0  2  0  0  0  0  0  0
  160.8210  201.0610  146.3380 O   0  0  0  0  0  0  0  0  0  0  0  0
  161.9160  198.9590  146.2250 C   0  0  0  0  0  1  0  0  0  0  0  0
  161.9690  208.2190  153.8700 C   0  0  0  0  0  2  0  0  0  0  0  0
  160.0540  209.6820  153.8840 O   0  0  0  0  0  0  0  0  0  0  0  0
  159.7220  211.0250  153.6120 C   0  0  2  0  0  3  0  0  0  0  0  0
  161.8590  210.2800  155.3700 C   0  0  1  0  0  3  0  0  0  0  0  0
  161.1500  211.5980  155.5400 C   0  0  0  0  0  3  0  0  0  0  0  0
  160.1190  211.9350  154.7510 C   0  0  0  0  0  3  0  0  0  0  0  0
  158.2340  211.1430  153.3570 C   0  0  0  0  0  1  0  0  0  0  0  0
  161.5030  209.4380  156.4280 O   0  0  0  0  0  1  0  0  0  0  0  0
  161.4540  209.6460  154.0250 C   0  0  1  0  0  3  0  0  0  0  0  0
  1  7  2  0  0  0  0
  1 15  1  0  0  0  0
  3  8  2  0  0  0  0
  3  4  1  0  0  0  0
  4 16  2  0  0  0  0
  5 14  2  0  0  0  0
  5 18  1  0  0  0  0
  6 13  2  0  0  0  0
  6  9  1  0  0  0  0
  7 13  1  0  0  0  0
  8 10  1  0  0  0  0
  9 19  2  0  0  0  0
 10  9  1  0  0  0  0
 10 17  2  0  0  0  0
 11 24  1  0  0  0  0
 12 14  1  0  0  0  0
 13  5  1  0  0  0  0
 15 12  2  0  0  0  0
 16 17  1  0  0  0  0
 17 11  1  0  0  0  0
 18  2  2  0  0  0  0
 19 11  1  0  0  0  0
 19  2  1  0  0  0  0
 20 21  1  0  0  0  0
 21 15  1  0  0  0  0
 22 20  2  0  0  0  0
 23 20  1  0  0  0  0
 25 32  1  0  0  0  0
 26 30  1  1  0  0  0
 26 25  1  0  0  0  0
 26 29  1  0  0  0  0
 27 28  1  0  0  0  0
 27 31  1  1  0  0  0
 29 28  2  0  0  0  0
 32 24  1  1  0  0  0
 32 27  1  0  0  0  0
M  END
>  <MODEL>
8

>  <REMARK>
 VINA RESULT:      -6.1      2.891      5.224
  Name = 
  3 active torsions:
  status: ('A' for Active; 'I' for Inactive)
    1  A    between atoms: N_10  and  C_24
    2  A    between atoms: N_16  and  C_27
    3  A    between atoms: C_27  and  C_32
                            x       y       z     vdW  Elec       q    Type
                         _______ _______ _______ _____ _____    ______ ____

>  <TORSDO>
F 3

$$$$
=
 OpenBabel11062410393D

 32 36  0  0  1  0  0  0  0  0999 V2000
  162.1220  212.5990  147.1230 C   0  0  0  0  0  3  0  0  0  0  0  0
  160.4560  212.3700  152.3190 C   0  0  0  0  0  3  0  0  0  0  0  0
  161.9800  206.5810  152.0310 C   0  0  0  0  0  3  0  0  0  0  0  0
  161.3840  206.5700  153.3120 C   0  0  0  0  0  3  0  0  0  0  0  0
  160.5990  212.7600  149.8870 C   0  0  0  0  0  0  0  0  0  0  0  0
  161.9390  210.6760  150.0910 C   0  0  0  0  0  3  0  0  0  0  0  0
  162.5000  212.0780  148.2860 C   0  0  0  0  0  3  0  0  0  0  0  0
  162.0080  207.7610  151.2650 C   0  0  0  0  0  3  0  0  0  0  0  0
  161.3170  210.1860  151.3220 C   0  0  0  0  0  0  0  0  0  0  0  0
  161.4220  208.9000  151.8130 C   0  0  0  0  0  0  0  0  0  0  0  0
  160.3950  210.1210  153.3760 N   0  0  0  0  0  0  0  0  0  0  0  0
  159.8060  213.3710  147.5570 C   0  0  0  0  0  3  0  0  0  0  0  0
  161.6460  211.8030  149.4440 C   0  0  0  0  0  0  0  0  0  0  0  0
  159.8300  213.4270  149.0260 C   0  0  0  0  0  3  0  0  0  0  0  0
  160.7690  212.9940  146.7090 C   0  0  0  0  0  0  0  0  0  0  0  0
  160.8100  207.7390  153.8430 C   0  0  0  0  0  3  0  0  0  0  0  0
  160.8470  208.8930  153.0590 C   0  0  0  0  0  0  0  0  0  0  0  0
  160.4260  213.1230  151.2640 N   0  0  0  0  0  0  0  0  0  0  0  0
  160.6810  210.9200  152.3160 C   0  0  0  0  0  0  0  0  0  0  0  0
  159.3580  212.7140  144.5730 C   0  0  0  0  0  0  0  0  0  0  0  0
  160.5460  213.0730  145.2920 N   0  0  0  0  0  2  0  0  0  0  0  0
  158.3640  212.2040  145.1570 O   0  0  0  0  0  0  0  0  0  0  0  0
  159.3050  212.9340  143.1050 C   0  0  0  0  0  1  0  0  0  0  0  0
  159.8020  210.5270  154.6460 C   0  0  0  0  0  2  0  0  0  0  0  0
  157.4610  210.6210  155.2110 O   0  0  0  0  0  0  0  0  0  0  0  0
  156.2280  210.9940  154.6370 C   0  0  2  0  0  3  0  0  0  0  0  0
  158.5100  212.7270  154.6730 C   0  0  1  0  0  3  0  0  0  0  0  0
  157.1160  213.2950  154.6220 C   0  0  0  0  0  3  0  0  0  0  0  0
  156.0410  212.4930  154.6510 C   0  0  0  0  0  3  0  0  0  0  0  0
  155.0920  210.3280  155.3860 C   0  0  0  0  0  1  0  0  0  0  0  0
  159.0520  212.9820  155.9360 O   0  0  0  0  0  1  0  0  0  0  0  0
  158.4590  211.2100  154.4110 C   0  0  1  0  0  3  0  0  0  0  0  0
  1  7  1  0  0  0  0
  3  4  1  0  0  0  0
  4 16  2  0  0  0  0
  5 18  2  0  0  0  0
  6  9  2  0  0  0  0
  7 13  2  0  0  0  0
  8 10  1  0  0  0  0
  8  3  2  0  0  0  0
  9 10  1  0  0  0  0
  9 19  1  0  0  0  0
 10 17  2  0  0  0  0
 11 24  1  0  0  0  0
 12 14  2  0  0  0  0
 13  5  1  0  0  0  0
 13  6  1  0  0  0  0
 14  5  1  0  0  0  0
 15  1  2  0  0  0  0
 15 12  1  0  0  0  0
 17 11  1  0  0  0  0
 17 16  1  0  0  0  0
 18  2  1  0  0  0  0
 19  2  2  0  0  0  0
 19 11  1  0  0  0  0
 20 22  2  0  0  0  0
 20 21  1  0  0  0  0
 21 15  1  0  0  0  0
 23 20  1  0  0  0  0
 26 29  1  0  0  0  0
 26 25  1  0  0  0  0
 26 30  1  1  0  0  0
 27 31  1  1  0  0  0
 28 29  2  0  0  0  0
 28 27  1  0  0  0  0
 32 24  1  1  0  0  0
 32 27  1  0  0  0  0
 32 25  1  0  0  0  0
M  END
>  <MODEL>
9

>  <REMARK>
 VINA RESULT:      -6.0      3.409      6.559
  Name = 
  3 active torsions:
  status: ('A' for Active; 'I' for Inactive)
    1  A    between atoms: N_10  and  C_24
    2  A    between atoms: N_16  and  C_27
    3  A    between atoms: C_27  and  C_32
                            x       y       z     vdW  Elec       q    Type
                         _______ _______ _______ _____ _____    ______ ____

>  <TORSDO>
F 3

$$$$
