=
 OpenBabel11052422393D

 31 35  0  0  1  0  0  0  0  0999 V2000
  156.1840  214.2100  153.6070 C   0  0  2  0  0  3  0  0  0  0  0  0
  158.7740  213.7880  151.0680 C   0  0  1  0  0  3  0  0  0  0  0  0
  158.3210  213.7330  149.6140 C   0  0  0  0  0  0  0  0  0  0  0  0
  156.1710  214.0580  148.4220 C   0  0  0  0  0  3  0  0  0  0  0  0
  157.7220  213.3540  151.9950 N   0  0  2  0  0  0  0  0  0  0  0  0
  157.6370  213.8800  155.5950 C   0  0  0  0  0  1  0  0  0  0  0  0
  156.9810  213.1460  149.2790 C   0  0  0  0  0  2  0  0  0  0  0  0
  160.2000  211.8960  152.3100 C   0  0  2  0  0  3  0  0  0  0  0  0
  154.8230  213.5470  153.5180 C   0  0  0  0  0  1  0  0  0  0  0  0
  160.9090  214.4530  149.1230 S   0  0  0  0  0  0  0  0  0  0  0  0
  156.5430  214.4000  147.1890 C   0  0  0  0  0  3  0  0  0  0  0  0
  159.0570  211.8740  153.3410 C   0  0  0  0  0  2  0  0  0  0  0  0
  160.0420  212.9410  151.2170 C   0  0  0  0  0  0  0  0  0  0  0  0
  156.7450  214.4120  152.2060 C   0  0  0  0  0  2  0  0  0  0  0  0
  157.8180  214.0070  146.5630 C   0  0  0  0  0  3  0  0  0  0  0  0
  158.3030  213.1880  153.3130 C   0  0  2  0  0  3  0  0  0  0  0  0
  157.1590  213.2700  154.2920 C   0  0  2  0  0  3  0  0  0  0  0  0
  161.0410  213.1320  150.3420 C   0  0  0  0  0  3  0  0  0  0  0  0
  159.2340  213.9800  148.6470 C   0  0  0  0  0  0  0  0  0  0  0  0
  158.9800  213.8170  147.1980 C   0  0  0  0  0  3  0  0  0  0  0  0
  162.5580  210.2970  152.3670 O   0  0  0  0  0  0  0  0  0  0  0  0
  161.5440  209.8020  151.8040 C   0  0  0  0  0  0  0  0  0  0  0  0
  160.3430  210.5750  151.7130 N   0  0  0  0  0  2  0  0  0  0  0  0
  161.5260  205.7200  150.1800 C   0  0  2  0  0  3  0  0  0  0  0  0
  161.3000  207.2920  152.1140 C   0  0  0  0  0  2  0  0  0  0  0  0
  162.0730  209.3490  148.9090 C   0  0  0  0  0  1  0  0  0  0  0  0
  160.0280  205.5570  149.9830 C   0  0  0  0  0  1  0  0  0  0  0  0
  161.8790  205.9630  151.6400 C   0  0  0  0  0  2  0  0  0  0  0  0
  161.8800  208.2320  149.8810 C   0  0  0  0  0  0  0  0  0  0  0  0
  161.6340  208.4460  151.2000 C   0  0  0  0  0  0  0  0  0  0  0  0
  162.0750  206.8490  149.3110 C   0  0  0  0  0  2  0  0  0  0  0  0
  1  9  1  6  0  0  0
  1 17  1  0  0  0  0
  2  3  1  6  0  0  0
  2 13  1  0  0  0  0
  2  5  1  0  0  0  0
  4  7  1  0  0  0  0
  5 14  1  1  0  0  0
  5 16  1  0  0  0  0
  7  3  1  0  0  0  0
  8 23  1  6  0  0  0
  8 12  1  0  0  0  0
 10 18  1  0  0  0  0
 11  4  2  0  0  0  0
 13  8  1  0  0  0  0
 14  1  1  0  0  0  0
 15 11  1  0  0  0  0
 15 20  2  0  0  0  0
 16 12  1  6  0  0  0
 16 17  1  0  0  0  0
 17  6  1  1  0  0  0
 18 13  2  0  0  0  0
 19 10  1  0  0  0  0
 19  3  2  0  0  0  0
 20 19  1  0  0  0  0
 22 21  2  0  0  0  0
 23 22  1  0  0  0  0
 24 27  1  1  0  0  0
 24 28  1  0  0  0  0
 26 29  1  0  0  0  0
 28 25  1  0  0  0  0
 29 30  2  0  0  0  0
 30 22  1  0  0  0  0
 30 25  1  0  0  0  0
 31 29  1  0  0  0  0
 31 24  1  0  0  0  0
M  END
>  <MODEL>
1

>  <REMARK>
 VINA RESULT:      -6.4      0.000      0.000
  Name = 
  2 active torsions:
  status: ('A' for Active; 'I' for Inactive)
    1  A    between atoms: C_9  and  C_22
    2  A    between atoms: C_15  and  N_23
                            x       y       z     vdW  Elec       q    Type
                         _______ _______ _______ _____ _____    ______ ____

>  <TORSDO>
F 2

$$$$
=
 OpenBabel11052422393D

 31 35  0  0  1  0  0  0  0  0999 V2000
  158.6980  212.5570  154.1610 C   0  0  2  0  0  3  0  0  0  0  0  0
  160.1660  212.6870  150.8210 C   0  0  1  0  0  3  0  0  0  0  0  0
  159.2400  213.0540  149.6670 C   0  0  0  0  0  0  0  0  0  0  0  0
  156.8880  213.8120  149.4640 C   0  0  0  0  0  3  0  0  0  0  0  0
  159.4420  212.0800  151.9440 N   0  0  2  0  0  0  0  0  0  0  0  0
  160.6740  211.6190  155.3370 C   0  0  0  0  0  1  0  0  0  0  0  0
  157.7940  212.6570  149.7260 C   0  0  0  0  0  2  0  0  0  0  0  0
  161.6250  210.4510  150.9750 C   0  0  2  0  0  3  0  0  0  0  0  0
  157.3040  212.0230  154.4320 C   0  0  0  0  0  1  0  0  0  0  0  0
  161.5810  213.7280  148.4330 S   0  0  0  0  0  0  0  0  0  0  0  0
  156.8630  214.4520  148.2960 C   0  0  0  0  0  3  0  0  0  0  0  0
  160.9150  210.2170  152.3200 C   0  0  0  0  0  2  0  0  0  0  0  0
  161.2630  211.7600  150.2900 C   0  0  0  0  0  0  0  0  0  0  0  0
  158.7690  213.0980  152.7390 C   0  0  0  0  0  2  0  0  0  0  0  0
  157.7710  214.1700  147.1700 C   0  0  0  0  0  3  0  0  0  0  0  0
  160.4060  211.5320  152.8770 C   0  0  2  0  0  3  0  0  0  0  0  0
  159.6920  211.4130  154.2000 C   0  0  2  0  0  3  0  0  0  0  0  0
  161.9190  212.1210  149.1770 C   0  0  0  0  0  3  0  0  0  0  0  0
  159.7930  213.4980  148.5150 C   0  0  0  0  0  0  0  0  0  0  0  0
  159.0370  213.7480  147.2680 C   0  0  0  0  0  3  0  0  0  0  0  0
  162.7770  207.8510  151.1690 O   0  0  0  0  0  0  0  0  0  0  0  0
  161.9350  208.0370  150.2470 C   0  0  0  0  0  0  0  0  0  0  0  0
  161.3520  209.3340  150.0800 N   0  0  0  0  0  2  0  0  0  0  0  0
  161.2270  204.8300  147.3310 C   0  0  2  0  0  3  0  0  0  0  0  0
  161.7050  207.2310  147.8490 C   0  0  0  0  0  2  0  0  0  0  0  0
  161.3850  205.2660  151.1870 C   0  0  0  0  0  1  0  0  0  0  0  0
  162.6730  204.4870  147.0090 C   0  0  0  0  0  1  0  0  0  0  0  0
  160.8990  206.2730  146.9770 C   0  0  0  0  0  2  0  0  0  0  0  0
  161.3500  205.6540  149.7450 C   0  0  0  0  0  0  0  0  0  0  0  0
  161.6070  206.9200  149.3230 C   0  0  0  0  0  0  0  0  0  0  0  0
  160.9130  204.5620  148.8000 C   0  0  0  0  0  2  0  0  0  0  0  0
  1 17  1  0  0  0  0
  1  9  1  6  0  0  0
  2  3  1  6  0  0  0
  2  5  1  0  0  0  0
  3  7  1  0  0  0  0
  4  7  1  0  0  0  0
  5 14  1  1  0  0  0
  5 16  1  0  0  0  0
  8 23  1  6  0  0  0
  8 12  1  0  0  0  0
 10 19  1  0  0  0  0
 10 18  1  0  0  0  0
 11  4  2  0  0  0  0
 13  2  1  0  0  0  0
 13  8  1  0  0  0  0
 14  1  1  0  0  0  0
 15 20  2  0  0  0  0
 15 11  1  0  0  0  0
 16 12  1  6  0  0  0
 16 17  1  0  0  0  0
 17  6  1  1  0  0  0
 18 13  2  0  0  0  0
 19  3  2  0  0  0  0
 20 19  1  0  0  0  0
 22 21  2  0  0  0  0
 23 22  1  0  0  0  0
 24 27  1  1  0  0  0
 24 31  1  0  0  0  0
 25 30  1  0  0  0  0
 28 24  1  0  0  0  0
 28 25  1  0  0  0  0
 29 26  1  0  0  0  0
 30 29  2  0  0  0  0
 30 22  1  0  0  0  0
 31 29  1  0  0  0  0
M  END
>  <MODEL>
2

>  <REMARK>
 VINA RESULT:      -6.2      1.558      2.661
  Name = 
  2 active torsions:
  status: ('A' for Active; 'I' for Inactive)
    1  A    between atoms: C_9  and  C_22
    2  A    between atoms: C_15  and  N_23
                            x       y       z     vdW  Elec       q    Type
                         _______ _______ _______ _____ _____    ______ ____

>  <TORSDO>
F 2

$$$$
