=
 OpenBabel11062410473D

 32 36  0  0  1  0  0  0  0  0999 V2000
  161.0250  209.6350  153.9920 C   0  0  1  0  0  3  0  0  0  0  0  0
  161.7810  206.8910  149.7560 C   0  0  0  0  0  0  0  0  0  0  0  0
  160.5150  202.2770  150.9900 C   0  0  0  0  0  3  0  0  0  0  0  0
  160.7580  201.9280  149.7240 C   0  0  0  0  0  3  0  0  0  0  0  0
  161.7680  208.6230  151.3790 C   0  0  0  0  0  0  0  0  0  0  0  0
  161.1190  206.4140  152.0030 N   0  0  0  0  0  0  0  0  0  0  0  0
  161.0910  208.1200  153.7830 C   0  0  0  0  0  2  0  0  0  0  0  0
  160.6740  203.6890  151.4930 C   0  0  0  0  0  3  0  0  0  0  0  0
  161.3430  205.9640  150.7360 C   0  0  0  0  0  0  0  0  0  0  0  0
  161.1490  204.6620  150.4370 C   0  0  0  0  0  0  0  0  0  0  0  0
  161.8380  205.1580  148.0780 N   0  0  0  0  0  0  0  0  0  0  0  0
  162.1180  210.3390  153.1850 C   0  0  0  0  0  2  0  0  0  0  0  0
  161.3010  207.7150  152.3480 C   0  0  0  0  0  0  0  0  0  0  0  0
  161.9560  210.0800  151.6860 C   0  0  0  0  0  2  0  0  0  0  0  0
  161.2070  202.9120  148.7270 C   0  0  0  0  0  3  0  0  0  0  0  0
  161.3930  204.1970  149.0500 C   0  0  1  0  0  3  0  0  0  0  0  0
  161.9780  208.1880  150.1090 N   0  0  0  0  0  0  0  0  0  0  0  0
  162.0130  206.5190  148.4900 C   0  0  0  0  0  3  0  0  0  0  0  0
  159.2790  211.3120  154.1580 N   0  0  0  0  0  0  0  0  0  0  0  0
  159.6740  210.1840  153.6620 C   0  0  0  0  0  3  0  0  0  0  0  0
  157.9960  211.8660  153.8580 C   0  0  0  0  0  0  0  0  0  0  0  0
  157.8490  212.6830  152.9090 O   0  0  0  0  0  0  0  0  0  0  0  0
  156.8200  211.4800  154.6840 C   0  0  0  0  0  1  0  0  0  0  0  0
  162.1350  204.7800  146.6980 C   0  0  0  0  0  2  0  0  0  0  0  0
  160.2570  200.8090  144.6360 F   0  0  0  0  0  0  0  0  0  0  0  0
  161.2330  202.7010  145.6980 C   0  0  0  0  0  2  0  0  0  0  0  0
  160.5570  204.8550  144.7270 C   0  0  1  0  0  3  0  0  0  0  0  0
  159.5820  204.1060  143.9530 N   0  0  0  0  0  0  0  0  0  0  0  0
  159.3620  202.8790  144.1020 N   0  0  0  0  0  0  0  0  0  0  0  0
  159.9720  202.0650  145.1370 C   0  0  1  0  0  3  0  0  0  0  0  0
  160.0610  206.1200  144.9830 F   0  0  0  0  0  0  0  0  0  0  0  0
  160.9210  204.1440  146.0300 C   0  0  2  0  0  3  0  0  0  0  0  0
  1 20  1  6  0  0  0
  2 17  1  0  0  0  0
  2  9  1  0  0  0  0
  3  8  2  0  0  0  0
  4  3  1  0  0  0  0
  5 14  1  0  0  0  0
  5 13  1  0  0  0  0
  6 13  2  0  0  0  0
  7  1  1  0  0  0  0
  9  6  1  0  0  0  0
 10  9  2  0  0  0  0
 10  8  1  0  0  0  0
 11 18  1  0  0  0  0
 11 16  1  0  0  0  0
 12  1  1  0  0  0  0
 13  7  1  0  0  0  0
 14 12  1  0  0  0  0
 15  4  2  0  0  0  0
 16 15  1  1  0  0  0
 16 10  1  0  0  0  0
 17  5  2  0  0  0  0
 18  2  2  0  0  0  0
 20 19  2  0  0  0  0
 21 19  1  0  0  0  0
 21 23  1  0  0  0  0
 22 21  2  0  0  0  0
 24 11  1  0  0  0  0
 26 32  1  0  0  0  0
 27 31  1  1  0  0  0
 27 32  1  0  0  0  0
 28 29  2  0  0  0  0
 28 27  1  0  0  0  0
 29 30  1  0  0  0  0
 30 25  1  6  0  0  0
 30 26  1  0  0  0  0
 32 24  1  6  0  0  0
M  END
>  <MODEL>
1

>  <REMARK>
 VINA RESULT:      -9.4      0.000      0.000
  Name = 
  4 active torsions:
  status: ('A' for Active; 'I' for Inactive)
    1  A    between atoms: C_1  and  N_10
    2  A    between atoms: C_2  and  C_24
    3  A    between atoms: N_16  and  C_27
    4  A    between atoms: C_27  and  C_32
                            x       y       z     vdW  Elec       q    Type
                         _______ _______ _______ _____ _____    ______ ____

>  <TORSDO>
F 4

$$$$
=
 OpenBabel11062410473D

 32 36  0  0  1  0  0  0  0  0999 V2000
  160.2760  209.7750  156.0570 C   0  0  1  0  0  3  0  0  0  0  0  0
  161.5560  208.3640  151.3220 C   0  0  0  0  0  0  0  0  0  0  0  0
  160.7480  203.4920  151.1870 C   0  0  0  0  0  3  0  0  0  0  0  0
  161.0960  203.5230  149.8980 C   0  0  0  0  0  3  0  0  0  0  0  0
  161.2640  209.5830  153.3390 C   0  0  0  0  0  0  0  0  0  0  0  0
  160.8330  207.2370  153.3030 N   0  0  0  0  0  0  0  0  0  0  0  0
  160.5210  208.3860  155.4610 C   0  0  0  0  0  2  0  0  0  0  0  0
  160.7220  204.7230  152.0570 C   0  0  0  0  0  3  0  0  0  0  0  0
  161.1720  207.1700  151.9840 C   0  0  0  0  0  0  0  0  0  0  0  0
  161.1410  205.9850  151.3370 C   0  0  0  0  0  0  0  0  0  0  0  0
  161.8940  207.1640  149.2570 N   0  0  0  0  0  0  0  0  0  0  0  0
  161.3250  210.7690  155.5560 C   0  0  0  0  0  2  0  0  0  0  0  0
  160.8510  208.4060  153.9930 C   0  0  0  0  0  0  0  0  0  0  0  0
  161.2730  210.9120  154.0350 C   0  0  0  0  0  2  0  0  0  0  0  0
  161.4840  204.7790  149.2360 C   0  0  0  0  0  3  0  0  0  0  0  0
  161.5090  205.9390  149.9010 C   0  0  1  0  0  3  0  0  0  0  0  0
  161.5890  209.5290  152.0210 N   0  0  0  0  0  0  0  0  0  0  0  0
  161.8950  208.3730  150.0260 C   0  0  0  0  0  3  0  0  0  0  0  0
  158.4400  211.3350  156.3450 N   0  0  0  0  0  0  0  0  0  0  0  0
  158.8920  210.2640  155.7760 C   0  0  0  0  0  3  0  0  0  0  0  0
  157.1230  211.8320  156.0930 C   0  0  0  0  0  0  0  0  0  0  0  0
  156.6970  212.8640  156.6800 O   0  0  0  0  0  0  0  0  0  0  0  0
  156.2420  211.1160  155.1330 C   0  0  0  0  0  1  0  0  0  0  0  0
  162.3050  207.2050  147.8550 C   0  0  0  0  0  2  0  0  0  0  0  0
  163.5130  203.6830  144.7420 F   0  0  0  0  0  0  0  0  0  0  0  0
  163.0100  205.4160  146.2930 C   0  0  0  0  0  2  0  0  0  0  0  0
  160.6970  206.2350  146.1650 C   0  0  1  0  0  3  0  0  0  0  0  0
  160.4400  205.1210  145.2700 N   0  0  0  0  0  0  0  0  0  0  0  0
  161.2740  204.2190  145.0140 N   0  0  0  0  0  0  0  0  0  0  0  0
  162.5700  204.1070  145.6590 C   0  0  1  0  0  3  0  0  0  0  0  0
  159.5460  206.5260  146.8720 F   0  0  0  0  0  0  0  0  0  0  0  0
  161.8580  205.9480  147.1160 C   0  0  2  0  0  3  0  0  0  0  0  0
  1 20  1  6  0  0  0
  2  9  1  0  0  0  0
  2 17  1  0  0  0  0
  3  8  2  0  0  0  0
  4  3  1  0  0  0  0
  5 13  1  0  0  0  0
  5 14  1  0  0  0  0
  6 13  2  0  0  0  0
  7  1  1  0  0  0  0
  9  6  1  0  0  0  0
 10  9  2  0  0  0  0
 10  8  1  0  0  0  0
 11 16  1  0  0  0  0
 11 18  1  0  0  0  0
 12  1  1  0  0  0  0
 13  7  1  0  0  0  0
 14 12  1  0  0  0  0
 15  4  2  0  0  0  0
 16 15  1  1  0  0  0
 16 10  1  0  0  0  0
 17  5  2  0  0  0  0
 18  2  2  0  0  0  0
 20 19  2  0  0  0  0
 21 19  1  0  0  0  0
 21 22  2  0  0  0  0
 23 21  1  0  0  0  0
 24 11  1  0  0  0  0
 26 32  1  0  0  0  0
 27 31  1  1  0  0  0
 27 32  1  0  0  0  0
 28 27  1  0  0  0  0
 29 28  2  0  0  0  0
 29 30  1  0  0  0  0
 30 25  1  6  0  0  0
 30 26  1  0  0  0  0
 32 24  1  6  0  0  0
M  END
>  <MODEL>
2

>  <REMARK>
 VINA RESULT:      -9.0      1.868      2.347
  Name = 
  4 active torsions:
  status: ('A' for Active; 'I' for Inactive)
    1  A    between atoms: C_1  and  N_10
    2  A    between atoms: C_2  and  C_24
    3  A    between atoms: N_16  and  C_27
    4  A    between atoms: C_27  and  C_32
                            x       y       z     vdW  Elec       q    Type
                         _______ _______ _______ _____ _____    ______ ____

>  <TORSDO>
F 4

$$$$
=
 OpenBabel11062410473D

 32 36  0  0  1  0  0  0  0  0999 V2000
  160.9700  213.8160  149.0430 C   0  0  1  0  0  3  0  0  0  0  0  0
  161.9270  209.0010  150.4360 C   0  0  0  0  0  0  0  0  0  0  0  0
  160.2350  208.6580  155.0650 C   0  0  0  0  0  3  0  0  0  0  0  0
  160.5700  207.3660  155.0370 C   0  0  0  0  0  3  0  0  0  0  0  0
  161.8820  211.0750  149.2830 C   0  0  0  0  0  0  0  0  0  0  0  0
  161.0260  210.9400  151.5050 N   0  0  0  0  0  0  0  0  0  0  0  0
  160.9500  213.1530  150.4240 C   0  0  0  0  0  2  0  0  0  0  0  0
  160.4430  209.5840  153.8940 C   0  0  0  0  0  3  0  0  0  0  0  0
  161.3350  209.6140  151.5700 C   0  0  0  0  0  0  0  0  0  0  0  0
  161.0800  208.9150  152.6970 C   0  0  0  0  0  0  0  0  0  0  0  0
  162.0200  206.8770  151.5780 N   0  0  0  0  0  0  0  0  0  0  0  0
  162.1790  213.3420  148.2350 C   0  0  0  0  0  2  0  0  0  0  0  0
  161.2650  211.6820  150.3930 C   0  0  0  0  0  0  0  0  0  0  0  0
  162.1410  211.8300  148.0120 C   0  0  0  0  0  2  0  0  0  0  0  0
  161.1780  206.7550  153.8440 C   0  0  0  0  0  3  0  0  0  0  0  0
  161.4210  207.4720  152.7410 C   0  0  1  0  0  3  0  0  0  0  0  0
  162.1790  209.7510  149.3320 N   0  0  0  0  0  0  0  0  0  0  0  0
  162.2490  207.7010  150.4270 C   0  0  0  0  0  3  0  0  0  0  0  0
  158.5570  213.5860  148.9100 N   0  0  0  0  0  0  0  0  0  0  0  0
  159.6960  213.5820  148.2950 C   0  0  0  0  0  3  0  0  0  0  0  0
  157.3230  213.3700  148.2240 C   0  0  0  0  0  0  0  0  0  0  0  0
  156.2340  213.7950  148.7000 O   0  0  0  0  0  0  0  0  0  0  0  0
  157.3210  212.6260  146.9360 C   0  0  0  0  0  1  0  0  0  0  0  0
  162.4180  205.4720  151.5460 C   0  0  0  0  0  2  0  0  0  0  0  0
  160.5890  201.0370  150.8120 F   0  0  0  0  0  0  0  0  0  0  0  0
  161.5100  203.1850  151.2580 C   0  0  0  0  0  2  0  0  0  0  0  0
  161.5960  204.6650  149.2990 C   0  0  1  0  0  3  0  0  0  0  0  0
  160.7970  203.6650  148.6120 N   0  0  0  0  0  0  0  0  0  0  0  0
  160.3150  202.6490  149.1680 N   0  0  0  0  0  0  0  0  0  0  0  0
  160.3990  202.3880  150.5940 C   0  0  1  0  0  3  0  0  0  0  0  0
  161.2910  205.9160  148.7950 F   0  0  0  0  0  0  0  0  0  0  0  0
  161.3850  204.6250  150.8110 C   0  0  2  0  0  3  0  0  0  0  0  0
  1 20  1  6  0  0  0
  1  7  1  0  0  0  0
  2  9  1  0  0  0  0
  4  3  1  0  0  0  0
  5 17  2  0  0  0  0
  5 13  1  0  0  0  0
  6  9  1  0  0  0  0
  8  3  2  0  0  0  0
  9 10  2  0  0  0  0
 10 16  1  0  0  0  0
 10  8  1  0  0  0  0
 11 16  1  0  0  0  0
 12  1  1  0  0  0  0
 13  7  1  0  0  0  0
 13  6  2  0  0  0  0
 14 12  1  0  0  0  0
 14  5  1  0  0  0  0
 15  4  2  0  0  0  0
 16 15  1  1  0  0  0
 17  2  1  0  0  0  0
 18  2  2  0  0  0  0
 18 11  1  0  0  0  0
 20 19  2  0  0  0  0
 21 22  2  0  0  0  0
 21 19  1  0  0  0  0
 23 21  1  0  0  0  0
 24 11  1  0  0  0  0
 27 31  1  6  0  0  0
 27 32  1  0  0  0  0
 28 29  2  0  0  0  0
 28 27  1  0  0  0  0
 29 30  1  0  0  0  0
 30 25  1  6  0  0  0
 30 26  1  0  0  0  0
 32 26  1  0  0  0  0
 32 24  1  1  0  0  0
M  END
>  <MODEL>
3

>  <REMARK>
 VINA RESULT:      -8.3      3.307      5.281
  Name = 
  4 active torsions:
  status: ('A' for Active; 'I' for Inactive)
    1  A    between atoms: C_1  and  N_10
    2  A    between atoms: C_2  and  C_24
    3  A    between atoms: N_16  and  C_27
    4  A    between atoms: C_27  and  C_32
                            x       y       z     vdW  Elec       q    Type
                         _______ _______ _______ _____ _____    ______ ____

>  <TORSDO>
F 4

$$$$
=
 OpenBabel11062410473D

 32 36  0  0  1  0  0  0  0  0999 V2000
  160.2490  209.3660  156.8050 C   0  0  1  0  0  3  0  0  0  0  0  0
  161.5850  209.9210  151.9100 C   0  0  0  0  0  0  0  0  0  0  0  0
  160.8830  205.4680  149.8900 C   0  0  0  0  0  3  0  0  0  0  0  0
  161.2360  206.0020  148.7180 C   0  0  0  0  0  3  0  0  0  0  0  0
  161.2560  210.2590  154.2380 C   0  0  0  0  0  0  0  0  0  0  0  0
  160.8750  208.1030  153.2900 N   0  0  0  0  0  0  0  0  0  0  0  0
  160.5270  208.3200  155.7210 C   0  0  0  0  0  2  0  0  0  0  0  0
  160.8250  206.2650  151.1680 C   0  0  0  0  0  3  0  0  0  0  0  0
  161.2230  208.5570  152.0530 C   0  0  0  0  0  0  0  0  0  0  0  0
  161.2200  207.7150  150.9980 C   0  0  0  0  0  0  0  0  0  0  0  0
  161.9600  209.6210  149.5460 N   0  0  0  0  0  0  0  0  0  0  0  0
  161.2780  210.4950  156.7410 C   0  0  0  0  0  2  0  0  0  0  0  0
  160.8640  208.9140  154.3800 C   0  0  0  0  0  0  0  0  0  0  0  0
  161.2320  211.2150  155.3930 C   0  0  0  0  0  2  0  0  0  0  0  0
  161.6010  207.4220  148.5980 C   0  0  0  0  0  3  0  0  0  0  0  0
  161.5970  208.2340  149.6610 C   0  0  1  0  0  3  0  0  0  0  0  0
  161.5880  210.7250  153.0060 N   0  0  0  0  0  0  0  0  0  0  0  0
  161.9300  210.4370  150.7240 C   0  0  0  0  0  3  0  0  0  0  0  0
  158.6410  211.1730  156.6000 N   0  0  0  0  0  0  0  0  0  0  0  0
  158.8550  209.9010  156.7160 C   0  0  0  0  0  3  0  0  0  0  0  0
  157.3230  211.7160  156.5080 C   0  0  0  0  0  0  0  0  0  0  0  0
  157.0150  212.7770  157.1160 O   0  0  0  0  0  0  0  0  0  0  0  0
  156.2970  211.0140  155.6910 C   0  0  0  0  0  1  0  0  0  0  0  0
  162.3770  210.2070  148.2750 C   0  0  0  0  0  2  0  0  0  0  0  0
  159.2500  213.5210  146.6050 F   0  0  0  0  0  0  0  0  0  0  0  0
  160.7140  211.8340  147.4240 C   0  0  0  0  0  2  0  0  0  0  0  0
  163.0770  212.5050  147.4920 C   0  0  1  0  0  3  0  0  0  0  0  0
  162.6190  213.8480  147.1820 N   0  0  0  0  0  0  0  0  0  0  0  0
  161.4100  214.1810  147.1250 N   0  0  0  0  0  0  0  0  0  0  0  0
  160.3090  213.2980  147.4640 C   0  0  1  0  0  3  0  0  0  0  0  0
  164.2230  212.5800  148.2610 F   0  0  0  0  0  0  0  0  0  0  0  0
  162.0020  211.6840  148.2030 C   0  0  2  0  0  3  0  0  0  0  0  0
  1 20  1  6  0  0  0
  2  9  1  0  0  0  0
  2 17  1  0  0  0  0
  3  8  2  0  0  0  0
  4  3  1  0  0  0  0
  5 13  1  0  0  0  0
  5 14  1  0  0  0  0
  6 13  2  0  0  0  0
  7  1  1  0  0  0  0
  9  6  1  0  0  0  0
 10  8  1  0  0  0  0
 10  9  2  0  0  0  0
 11 16  1  0  0  0  0
 11 18  1  0  0  0  0
 12  1  1  0  0  0  0
 13  7  1  0  0  0  0
 14 12  1  0  0  0  0
 15  4  2  0  0  0  0
 16 15  1  1  0  0  0
 16 10  1  0  0  0  0
 17  5  2  0  0  0  0
 18  2  2  0  0  0  0
 19 20  2  0  0  0  0
 21 19  1  0  0  0  0
 21 22  2  0  0  0  0
 23 21  1  0  0  0  0
 24 11  1  0  0  0  0
 26 30  1  0  0  0  0
 26 32  1  0  0  0  0
 27 32  1  0  0  0  0
 27 31  1  1  0  0  0
 28 27  1  0  0  0  0
 29 28  2  0  0  0  0
 29 30  1  0  0  0  0
 30 25  1  6  0  0  0
 32 24  1  6  0  0  0
M  END
>  <MODEL>
4

>  <REMARK>
 VINA RESULT:      -7.5      4.233      5.988
  Name = 
  4 active torsions:
  status: ('A' for Active; 'I' for Inactive)
    1  A    between atoms: C_1  and  N_10
    2  A    between atoms: C_2  and  C_24
    3  A    between atoms: N_16  and  C_27
    4  A    between atoms: C_27  and  C_32
                            x       y       z     vdW  Elec       q    Type
                         _______ _______ _______ _____ _____    ______ ____

>  <TORSDO>
F 4

$$$$
=
 OpenBabel11062410473D

 32 36  0  0  1  0  0  0  0  0999 V2000
  160.6520  214.1080  149.5700 C   0  0  1  0  0  3  0  0  0  0  0  0
  162.0860  209.2540  148.9160 C   0  0  0  0  0  0  0  0  0  0  0  0
  160.9050  207.0000  153.1510 C   0  0  0  0  0  3  0  0  0  0  0  0
  161.3270  205.8600  152.6010 C   0  0  0  0  0  3  0  0  0  0  0  0
  161.7760  211.5940  148.6650 C   0  0  0  0  0  0  0  0  0  0  0  0
  161.1640  210.5340  150.7120 N   0  0  0  0  0  0  0  0  0  0  0  0
  160.8200  212.9720  150.5830 C   0  0  0  0  0  2  0  0  0  0  0  0
  160.9260  208.3180  152.4200 C   0  0  0  0  0  3  0  0  0  0  0  0
  161.5710  209.3240  150.2360 C   0  0  0  0  0  0  0  0  0  0  0  0
  161.4830  208.2260  151.0180 C   0  0  0  0  0  0  0  0  0  0  0  0
  162.4460  206.8780  149.1350 N   0  0  0  0  0  0  0  0  0  0  0  0
  161.8020  214.1070  148.5620 C   0  0  0  0  0  2  0  0  0  0  0  0
  161.2340  211.6650  149.9620 C   0  0  0  0  0  0  0  0  0  0  0  0
  161.8490  212.7980  147.7730 C   0  0  0  0  0  2  0  0  0  0  0  0
  161.8500  205.8150  151.2270 C   0  0  0  0  0  3  0  0  0  0  0  0
  161.9280  206.9190  150.4750 C   0  0  1  0  0  3  0  0  0  0  0  0
  162.1700  210.3900  148.1760 N   0  0  0  0  0  0  0  0  0  0  0  0
  162.4970  208.0970  148.3820 C   0  0  0  0  0  3  0  0  0  0  0  0
  158.2790  213.6050  149.4940 N   0  0  0  0  0  0  0  0  0  0  0  0
  159.3290  214.0430  148.8770 C   0  0  0  0  0  3  0  0  0  0  0  0
  156.9990  213.5360  148.8620 C   0  0  0  0  0  0  0  0  0  0  0  0
  155.9370  213.6100  149.5390 O   0  0  0  0  0  0  0  0  0  0  0  0
  156.9200  213.3640  147.3870 C   0  0  0  0  0  1  0  0  0  0  0  0
  162.9370  205.6410  148.5340 C   0  0  0  0  0  2  0  0  0  0  0  0
  160.4990  201.7670  146.9220 F   0  0  0  0  0  0  0  0  0  0  0  0
  161.6950  203.6280  147.7970 C   0  0  0  0  0  2  0  0  0  0  0  0
  162.4780  205.2090  146.0880 C   0  0  1  0  0  3  0  0  0  0  0  0
  161.6700  204.4590  145.1420 N   0  0  0  0  0  0  0  0  0  0  0  0
  160.8960  203.5270  145.4660 N   0  0  0  0  0  0  0  0  0  0  0  0
  160.6210  203.1400  146.8380 C   0  0  1  0  0  3  0  0  0  0  0  0
  162.5320  206.5330  145.6920 F   0  0  0  0  0  0  0  0  0  0  0  0
  161.9440  205.0930  147.5140 C   0  0  2  0  0  3  0  0  0  0  0  0
  1 20  1  6  0  0  0
  1  7  1  0  0  0  0
  2  9  1  0  0  0  0
  4  3  1  0  0  0  0
  5 13  1  0  0  0  0
  8  3  2  0  0  0  0
  9  6  1  0  0  0  0
  9 10  2  0  0  0  0
 10  8  1  0  0  0  0
 11 16  1  0  0  0  0
 12  1  1  0  0  0  0
 13  7  1  0  0  0  0
 13  6  2  0  0  0  0
 14 12  1  0  0  0  0
 14  5  1  0  0  0  0
 15  4  2  0  0  0  0
 16 10  1  0  0  0  0
 16 15  1  1  0  0  0
 17  5  2  0  0  0  0
 17  2  1  0  0  0  0
 18  2  2  0  0  0  0
 18 11  1  0  0  0  0
 20 19  2  0  0  0  0
 21 19  1  0  0  0  0
 21 22  2  0  0  0  0
 23 21  1  0  0  0  0
 24 11  1  0  0  0  0
 27 31  1  6  0  0  0
 27 32  1  0  0  0  0
 28 29  2  0  0  0  0
 28 27  1  0  0  0  0
 29 30  1  0  0  0  0
 30 25  1  6  0  0  0
 30 26  1  0  0  0  0
 32 26  1  0  0  0  0
 32 24  1  1  0  0  0
M  END
>  <MODEL>
5

>  <REMARK>
 VINA RESULT:      -6.8      3.129      4.141
  Name = 
  4 active torsions:
  status: ('A' for Active; 'I' for Inactive)
    1  A    between atoms: C_1  and  N_10
    2  A    between atoms: C_2  and  C_24
    3  A    between atoms: N_16  and  C_27
    4  A    between atoms: C_27  and  C_32
                            x       y       z     vdW  Elec       q    Type
                         _______ _______ _______ _____ _____    ______ ____

>  <TORSDO>
F 4

$$$$
=
 OpenBabel11062410473D

 32 36  0  0  1  0  0  0  0  0999 V2000
  157.9190  213.6450  155.1850 C   0  0  1  0  0  3  0  0  0  0  0  0
  160.6800  210.3200  152.4710 C   0  0  0  0  0  0  0  0  0  0  0  0
  160.5830  206.1410  155.1050 C   0  0  0  0  0  3  0  0  0  0  0  0
  161.2800  205.5670  154.1210 C   0  0  0  0  0  3  0  0  0  0  0  0
  159.6640  212.2980  153.3040 C   0  0  0  0  0  0  0  0  0  0  0  0
  159.5700  210.2890  154.5880 N   0  0  0  0  0  0  0  0  0  0  0  0
  158.5030  212.2820  155.5710 C   0  0  0  0  0  2  0  0  0  0  0  0
  160.1480  207.5830  155.0640 C   0  0  0  0  0  3  0  0  0  0  0  0
  160.2800  209.6190  153.6370 C   0  0  0  0  0  0  0  0  0  0  0  0
  160.5890  208.3170  153.8180 C   0  0  0  0  0  0  0  0  0  0  0  0
  161.7510  208.3430  151.5960 N   0  0  0  0  0  0  0  0  0  0  0  0
  158.9290  214.4530  154.3700 C   0  0  0  0  0  2  0  0  0  0  0  0
  159.2360  211.5980  154.4480 C   0  0  0  0  0  0  0  0  0  0  0  0
  159.3000  213.7340  153.0730 C   0  0  0  0  0  2  0  0  0  0  0  0
  161.6770  206.3170  152.9190 C   0  0  0  0  0  3  0  0  0  0  0  0
  161.3590  207.6070  152.7670 C   0  0  1  0  0  3  0  0  0  0  0  0
  160.3590  211.6330  152.3430 N   0  0  0  0  0  0  0  0  0  0  0  0
  161.3730  209.7210  151.4940 C   0  0  0  0  0  3  0  0  0  0  0  0
  156.3930  214.1920  153.3780 N   0  0  0  0  0  0  0  0  0  0  0  0
  156.6230  213.5060  154.4520 C   0  0  0  0  0  3  0  0  0  0  0  0
  155.1680  214.0780  152.6520 C   0  0  0  0  0  0  0  0  0  0  0  0
  154.0910  213.7840  153.2410 O   0  0  0  0  0  0  0  0  0  0  0  0
  155.1640  214.3020  151.1820 C   0  0  0  0  0  1  0  0  0  0  0  0
  162.5390  207.7320  150.5280 C   0  0  0  0  0  2  0  0  0  0  0  0
  160.9270  203.5690  148.6250 F   0  0  0  0  0  0  0  0  0  0  0  0
  161.7310  205.5660  149.6390 C   0  0  0  0  0  2  0  0  0  0  0  0
  162.0590  207.4260  148.0670 C   0  0  1  0  0  3  0  0  0  0  0  0
  161.3870  206.6000  147.0790 N   0  0  0  0  0  0  0  0  0  0  0  0
  160.8530  205.4940  147.3350 N   0  0  0  0  0  0  0  0  0  0  0  0
  160.7410  204.9370  148.6720 C   0  0  1  0  0  3  0  0  0  0  0  0
  161.8010  208.7570  147.8000 F   0  0  0  0  0  0  0  0  0  0  0  0
  161.6380  207.0690  149.4920 C   0  0  2  0  0  3  0  0  0  0  0  0
  1 20  1  6  0  0  0
  1  7  1  0  0  0  0
  2  9  1  0  0  0  0
  4  3  1  0  0  0  0
  5 13  1  0  0  0  0
  8  3  2  0  0  0  0
  9 10  2  0  0  0  0
  9  6  1  0  0  0  0
 10  8  1  0  0  0  0
 11 16  1  0  0  0  0
 12  1  1  0  0  0  0
 13  6  2  0  0  0  0
 13  7  1  0  0  0  0
 14  5  1  0  0  0  0
 14 12  1  0  0  0  0
 15  4  2  0  0  0  0
 16 15  1  1  0  0  0
 16 10  1  0  0  0  0
 17  2  1  0  0  0  0
 17  5  2  0  0  0  0
 18 11  1  0  0  0  0
 18  2  2  0  0  0  0
 19 20  2  0  0  0  0
 21 22  2  0  0  0  0
 21 19  1  0  0  0  0
 23 21  1  0  0  0  0
 24 11  1  0  0  0  0
 27 31  1  6  0  0  0
 27 32  1  0  0  0  0
 28 29  2  0  0  0  0
 28 27  1  0  0  0  0
 29 30  1  0  0  0  0
 30 25  1  6  0  0  0
 30 26  1  0  0  0  0
 32 26  1  0  0  0  0
 32 24  1  1  0  0  0
M  END
>  <MODEL>
6

>  <REMARK>
 VINA RESULT:      -6.6      2.616      4.790
  Name = 
  4 active torsions:
  status: ('A' for Active; 'I' for Inactive)
    1  A    between atoms: C_1  and  N_10
    2  A    between atoms: C_2  and  C_24
    3  A    between atoms: N_16  and  C_27
    4  A    between atoms: C_27  and  C_32
                            x       y       z     vdW  Elec       q    Type
                         _______ _______ _______ _____ _____    ______ ____

>  <TORSDO>
F 4

$$$$
=
 OpenBabel11062410473D

 32 36  0  0  1  0  0  0  0  0999 V2000
  162.4800  206.0700  151.9890 C   0  0  1  0  0  3  0  0  0  0  0  0
  160.2530  210.6620  152.0210 C   0  0  0  0  0  0  0  0  0  0  0  0
  162.2760  213.0810  148.2180 C   0  0  0  0  0  3  0  0  0  0  0  0
  161.4580  214.0980  148.4970 C   0  0  0  0  0  3  0  0  0  0  0  0
  160.9980  208.4840  152.6040 C   0  0  0  0  0  0  0  0  0  0  0  0
  161.9750  209.6090  150.7410 N   0  0  0  0  0  0  0  0  0  0  0  0
  162.8530  207.3650  151.2620 C   0  0  0  0  0  2  0  0  0  0  0  0
  162.2830  211.7960  149.0060 C   0  0  0  0  0  2  0  0  0  0  0  0
  161.1820  210.6970  150.9500 C   0  0  0  0  0  0  0  0  0  0  0  0
  161.2920  211.7780  150.1480 C   0  0  0  0  0  0  0  0  0  0  0  0
  159.4810  212.8840  151.4850 N   0  0  0  0  0  0  0  0  0  0  0  0
  162.0630  206.3610  153.4310 C   0  0  0  0  0  2  0  0  0  0  0  0
  161.8990  208.5010  151.5220 C   0  0  0  0  0  0  0  0  0  0  0  0
  160.8410  207.2780  153.4820 C   0  0  0  0  0  2  0  0  0  0  0  0
  160.5000  214.0310  149.6120 C   0  0  0  0  0  3  0  0  0  0  0  0
  160.4130  212.9480  150.3930 C   0  0  0  0  0  0  0  0  0  0  0  0
  160.1920  209.5580  152.8100 N   0  0  0  0  0  0  0  0  0  0  0  0
  159.4370  211.6920  152.2790 C   0  0  0  0  0  3  0  0  0  0  0  0
  161.7060  204.2550  150.5750 N   0  0  0  0  0  0  0  0  0  0  0  0
  161.4150  205.3120  151.2630 C   0  0  0  0  0  3  0  0  0  0  0  0
  160.7110  203.5060  149.8740 C   0  0  0  0  0  0  0  0  0  0  0  0
  159.7260  203.0090  150.4850 O   0  0  0  0  0  0  0  0  0  0  0  0
  160.8440  203.3030  148.4070 C   0  0  0  0  0  1  0  0  0  0  0  0
  158.6030  214.0030  151.8180 C   0  0  0  0  0  2  0  0  0  0  0  0
  154.0650  214.1080  153.5340 F   0  0  0  0  0  0  0  0  0  0  0  0
  156.2550  214.0550  152.6060 C   0  0  0  0  0  2  0  0  0  0  0  0
  158.0500  214.3630  154.2560 C   0  0  1  0  0  3  0  0  0  0  0  0
  157.0220  214.2390  155.2750 N   0  0  0  0  0  0  0  0  0  0  0  0
  155.8260  213.9450  155.0330 N   0  0  0  0  0  0  0  0  0  0  0  0
  155.3310  213.5840  153.7170 C   0  0  1  0  0  3  0  0  0  0  0  0
  159.2440  213.8750  154.7530 F   0  0  0  0  0  0  0  0  0  0  0  0
  157.6660  213.6420  152.9650 C   0  0  2  0  0  3  0  0  0  0  0  0
  1 20  1  6  0  0  0
  1 12  1  0  0  0  0
  2 18  2  0  0  0  0
  2 17  1  0  0  0  0
  3  4  2  0  0  0  0
  3  8  1  0  0  0  0
  4 15  1  0  0  0  0
  5 17  2  0  0  0  0
  5 14  1  0  0  0  0
  6  9  1  0  0  0  0
  6 13  2  0  0  0  0
  7 13  1  0  0  0  0
  7  1  1  0  0  0  0
  8 10  1  0  0  0  0
  9  2  1  0  0  0  0
 10 16  1  0  0  0  0
 10  9  2  0  0  0  0
 11 24  1  0  0  0  0
 11 18  1  0  0  0  0
 12 14  1  0  0  0  0
 13  5  1  0  0  0  0
 15 16  2  0  0  0  0
 16 11  1  0  0  0  0
 19 20  2  0  0  0  0
 21 22  2  0  0  0  0
 21 19  1  0  0  0  0
 23 21  1  0  0  0  0
 26 32  1  0  0  0  0
 26 30  1  0  0  0  0
 27 31  1  1  0  0  0
 27 28  1  0  0  0  0
 29 28  2  0  0  0  0
 30 25  1  6  0  0  0
 30 29  1  0  0  0  0
 32 24  1  6  0  0  0
 32 27  1  0  0  0  0
M  END
>  <MODEL>
7

>  <REMARK>
 VINA RESULT:      -6.6      4.854      9.863
  Name = 
  4 active torsions:
  status: ('A' for Active; 'I' for Inactive)
    1  A    between atoms: C_1  and  N_10
    2  A    between atoms: C_2  and  C_24
    3  A    between atoms: N_16  and  C_27
    4  A    between atoms: C_27  and  C_32
                            x       y       z     vdW  Elec       q    Type
                         _______ _______ _______ _____ _____    ______ ____

>  <TORSDO>
F 4

$$$$
=
 OpenBabel11062410473D

 32 36  0  0  1  0  0  0  0  0999 V2000
  161.0200  210.0980  154.1120 C   0  0  1  0  0  3  0  0  0  0  0  0
  161.7770  206.6760  150.4010 C   0  0  0  0  0  0  0  0  0  0  0  0
  160.4080  202.3530  152.3630 C   0  0  0  0  0  3  0  0  0  0  0  0
  160.6600  201.7950  151.1770 C   0  0  0  0  0  3  0  0  0  0  0  0
  161.7760  208.6540  151.7150 C   0  0  0  0  0  0  0  0  0  0  0  0
  161.0780  206.5900  152.6860 N   0  0  0  0  0  0  0  0  0  0  0  0
  161.0600  208.5680  154.1580 C   0  0  0  0  0  2  0  0  0  0  0  0
  160.5870  203.8260  152.6280 C   0  0  0  0  0  3  0  0  0  0  0  0
  161.3090  205.9320  151.5140 C   0  0  0  0  0  0  0  0  0  0  0  0
  161.0930  204.6020  151.4330 C   0  0  0  0  0  0  0  0  0  0  0  0
  161.8220  204.6880  149.0350 N   0  0  0  0  0  0  0  0  0  0  0  0
  162.1360  210.6390  153.2160 C   0  0  0  0  0  2  0  0  0  0  0  0
  161.2800  207.9270  152.8140 C   0  0  0  0  0  0  0  0  0  0  0  0
  161.9880  210.1380  151.7790 C   0  0  0  0  0  2  0  0  0  0  0  0
  161.1400  202.5920  150.0370 C   0  0  0  0  0  3  0  0  0  0  0  0
  161.3470  203.9090  150.1460 C   0  0  1  0  0  3  0  0  0  0  0  0
  161.9940  208.0100  150.5380 N   0  0  0  0  0  0  0  0  0  0  0  0
  162.0170  206.0960  149.2180 C   0  0  0  0  0  3  0  0  0  0  0  0
  159.4850  211.8730  153.4910 N   0  0  0  0  0  0  0  0  0  0  0  0
  159.6840  210.6060  153.6740 C   0  0  0  0  0  3  0  0  0  0  0  0
  158.2220  212.3900  153.0680 C   0  0  0  0  0  0  0  0  0  0  0  0
  157.1740  212.1640  153.7340 O   0  0  0  0  0  0  0  0  0  0  0  0
  158.1410  213.1970  151.8220 C   0  0  0  0  0  1  0  0  0  0  0  0
  162.1290  204.0820  147.7420 C   0  0  0  0  0  2  0  0  0  0  0  0
  158.7550  206.0590  144.8680 F   0  0  0  0  0  0  0  0  0  0  0  0
  160.3440  205.0790  146.3430 C   0  0  0  0  0  2  0  0  0  0  0  0
  162.5230  204.6160  145.3050 C   0  0  1  0  0  3  0  0  0  0  0  0
  162.0430  205.3670  144.1580 N   0  0  0  0  0  0  0  0  0  0  0  0
  160.9530  205.9880  144.1320 N   0  0  0  0  0  0  0  0  0  0  0  0
  160.0730  206.1300  145.2790 C   0  0  1  0  0  3  0  0  0  0  0  0
  163.8930  204.7650  145.4060 F   0  0  0  0  0  0  0  0  0  0  0  0
  161.8350  205.0480  146.5990 C   0  0  2  0  0  3  0  0  0  0  0  0
  1 20  1  6  0  0  0
  1  7  1  0  0  0  0
  2 17  1  0  0  0  0
  2  9  1  0  0  0  0
  3  8  2  0  0  0  0
  4  3  1  0  0  0  0
  5 14  1  0  0  0  0
  5 13  1  0  0  0  0
  6 13  2  0  0  0  0
  9  6  1  0  0  0  0
 10  9  2  0  0  0  0
 10  8  1  0  0  0  0
 11 18  1  0  0  0  0
 11 16  1  0  0  0  0
 12  1  1  0  0  0  0
 13  7  1  0  0  0  0
 14 12  1  0  0  0  0
 15  4  2  0  0  0  0
 16 15  1  1  0  0  0
 16 10  1  0  0  0  0
 17  5  2  0  0  0  0
 18  2  2  0  0  0  0
 19 20  2  0  0  0  0
 21 19  1  0  0  0  0
 21 22  2  0  0  0  0
 23 21  1  0  0  0  0
 24 11  1  0  0  0  0
 26 32  1  0  0  0  0
 27 31  1  1  0  0  0
 27 32  1  0  0  0  0
 28 27  1  0  0  0  0
 29 28  2  0  0  0  0
 29 30  1  0  0  0  0
 30 25  1  6  0  0  0
 30 26  1  0  0  0  0
 32 24  1  1  0  0  0
M  END
>  <MODEL>
8

>  <REMARK>
 VINA RESULT:      -6.5      1.657      2.000
  Name = 
  4 active torsions:
  status: ('A' for Active; 'I' for Inactive)
    1  A    between atoms: C_1  and  N_10
    2  A    between atoms: C_2  and  C_24
    3  A    between atoms: N_16  and  C_27
    4  A    between atoms: C_27  and  C_32
                            x       y       z     vdW  Elec       q    Type
                         _______ _______ _______ _____ _____    ______ ____

>  <TORSDO>
F 4

$$$$
