=
 OpenBabel11052422053D

 25 29  0  0  1  0  0  0  0  0999 V2000
  161.3220  205.1110  149.1600 C   0  0  0  0  0  0  0  0  0  0  0  0
  160.9040  206.2200  150.0740 C   0  0  1  0  0  3  0  0  0  0  0  0
  162.3310  206.5790  147.5100 C   0  0  0  0  0  3  0  0  0  0  0  0
  160.9950  203.8320  149.1150 C   0  0  0  0  0  0  0  0  0  0  0  0
  160.5190  201.1650  148.5240 C   0  0  0  0  0  3  0  0  0  0  0  0
  162.1670  207.7000  148.4700 C   0  0  0  0  0  3  0  0  0  0  0  0
  161.4310  203.2990  147.9050 C   0  0  0  0  0  0  0  0  0  0  0  0
  161.2060  201.9600  147.5910 C   0  0  0  0  0  3  0  0  0  0  0  0
  161.5400  208.6280  150.6620 C   0  0  0  0  0  0  0  0  0  0  0  0
  161.7430  210.3070  150.1910 Cl  0  0  0  0  0  0  0  0  0  0  0  0
  161.1390  205.9210  151.5290 C   0  0  0  0  0  3  0  0  0  0  0  0
  160.0640  201.7150  149.7410 C   0  0  0  0  0  3  0  0  0  0  0  0
  161.9460  205.3630  147.8860 C   0  0  0  0  0  0  0  0  0  0  0  0
  162.0030  204.1630  147.1210 N   0  0  0  0  0  0  0  0  0  0  0  0
  161.4310  208.3210  151.9590 C   0  0  0  0  0  3  0  0  0  0  0  0
  160.2950  203.0660  150.0460 C   0  0  0  0  0  3  0  0  0  0  0  0
  161.3220  206.9130  152.4110 C   0  0  0  0  0  0  0  0  0  0  0  0
  161.5590  207.5370  149.6670 C   0  0  0  0  0  0  0  0  0  0  0  0
  161.4530  206.5950  153.8590 C   0  0  0  0  0  2  0  0  0  0  0  0
  160.5120  207.4650  154.6720 C   0  0  2  0  0  3  0  0  0  0  0  0
  161.3070  208.1650  155.7590 C   0  0  2  0  0  3  0  0  0  0  0  0
  160.4570  206.9530  156.0940 C   0  0  0  0  0  2  0  0  0  0  0  0
  160.6020  209.4150  156.1720 C   0  0  0  0  0  0  0  0  0  0  0  0
  159.6390  209.9800  155.3450 O   0  0  0  0  0  0  0  0  0  0  0  0
  160.9090  209.9850  157.2520 O   0  0  0  0  0  1  0  0  0  0  0  0
  1  2  1  0  0  0  0
  2 11  1  1  0  0  0
  3 13  2  0  0  0  0
  3  6  1  0  0  0  0
  4  1  2  0  0  0  0
  4 16  1  0  0  0  0
  5 12  1  0  0  0  0
  6 18  2  0  0  0  0
  7  4  1  0  0  0  0
  8  7  1  0  0  0  0
  8  5  2  0  0  0  0
  9 15  2  0  0  0  0
 10  9  1  0  0  0  0
 11 17  2  0  0  0  0
 12 16  2  0  0  0  0
 13  1  1  0  0  0  0
 14 13  1  0  0  0  0
 14  7  2  0  0  0  0
 15 17  1  0  0  0  0
 17 19  1  0  0  0  0
 18  2  1  0  0  0  0
 18  9  1  0  0  0  0
 20 19  1  6  0  0  0
 20 21  1  0  0  0  0
 20 22  1  0  0  0  0
 21 22  1  0  0  0  0
 21 23  1  1  0  0  0
 23 25  1  0  0  0  0
 24 23  2  0  0  0  0
M  END
>  <MODEL>
1

>  <REMARK>
 VINA RESULT:     -10.1      0.000      0.000
  Name = 
  3 active torsions:
  status: ('A' for Active; 'I' for Inactive)
    1  A    between atoms: C_2  and  C_21
    2  A    between atoms: C_6  and  C_15
    3  A    between atoms: C_6  and  C_23
                            x       y       z     vdW  Elec       q    Type
                         _______ _______ _______ _____ _____    ______ ____

>  <TORSDO>
F 3

$$$$
=
 OpenBabel11052422053D

 25 29  0  0  1  0  0  0  0  0999 V2000
  161.0580  206.8710  152.1540 C   0  0  0  0  0  0  0  0  0  0  0  0
  160.6720  206.1480  150.9010 C   0  0  0  0  0  0  0  0  0  0  0  0
  161.1040  204.8730  153.5330 C   0  0  0  0  0  3  0  0  0  0  0  0
  161.0710  208.1550  152.4650 C   0  0  0  0  0  0  0  0  0  0  0  0
  161.1350  210.6710  153.6270 C   0  0  0  0  0  3  0  0  0  0  0  0
  160.9620  204.0660  152.2950 C   0  0  0  0  0  3  0  0  0  0  0  0
  161.2370  208.2810  153.8410 C   0  0  0  0  0  0  0  0  0  0  0  0
  161.2770  209.5370  154.4440 C   0  0  0  0  0  3  0  0  0  0  0  0
  160.8210  203.8190  149.8500 C   0  0  0  0  0  0  0  0  0  0  0  0
  160.4340  202.1070  149.8820 Cl  0  0  0  0  0  0  0  0  0  0  0  0
  161.4100  206.6240  149.6800 C   0  0  0  0  0  2  0  0  0  0  0  0
  160.9490  210.5360  152.2350 C   0  0  0  0  0  3  0  0  0  0  0  0
  161.1760  206.1960  153.4210 C   0  0  0  0  0  0  0  0  0  0  0  0
  161.3020  207.1480  154.4730 N   0  0  0  0  0  0  0  0  0  0  0  0
  161.1950  204.3840  148.6960 C   0  0  0  0  0  3  0  0  0  0  0  0
  160.9090  209.2650  151.6380 C   0  0  0  0  0  3  0  0  0  0  0  0
  161.5930  205.8100  148.6310 C   0  0  0  0  0  0  0  0  0  0  0  0
  160.8110  204.6380  151.0780 C   0  0  0  0  0  0  0  0  0  0  0  0
  162.2380  206.3370  147.3970 C   0  0  0  0  0  2  0  0  0  0  0  0
  161.5480  205.7750  146.1670 C   0  0  2  0  0  3  0  0  0  0  0  0
  162.0390  204.3590  145.9320 C   0  0  2  0  0  3  0  0  0  0  0  0
  162.5780  205.5030  145.0940 C   0  0  0  0  0  2  0  0  0  0  0  0
  161.0160  203.5940  145.1580 C   0  0  0  0  0  0  0  0  0  0  0  0
  160.1940  204.2500  144.2500 O   0  0  0  0  0  0  0  0  0  0  0  0
  160.8670  202.3600  145.3570 O   0  0  0  0  0  1  0  0  0  0  0  0
  1  4  1  0  0  0  0
  1 13  1  0  0  0  0
  2 18  1  0  0  0  0
  2  1  2  0  0  0  0
  4  7  1  0  0  0  0
  5  8  1  0  0  0  0
  6  3  2  0  0  0  0
  7  8  2  0  0  0  0
  7 14  1  0  0  0  0
  9 10  1  0  0  0  0
  9 18  2  0  0  0  0
 11  2  1  0  0  0  0
 12  5  2  0  0  0  0
 13  3  1  0  0  0  0
 13 14  2  0  0  0  0
 15  9  1  0  0  0  0
 16 12  1  0  0  0  0
 16  4  2  0  0  0  0
 17 15  2  0  0  0  0
 17 11  1  0  0  0  0
 18  6  1  0  0  0  0
 19 17  1  0  0  0  0
 20 19  1  1  0  0  0
 21 23  1  6  0  0  0
 21 20  1  0  0  0  0
 22 21  1  0  0  0  0
 22 20  1  0  0  0  0
 23 25  1  0  0  0  0
 24 23  2  0  0  0  0
M  END
>  <MODEL>
2

>  <REMARK>
 VINA RESULT:      -9.3      4.642      8.086
  Name = 
  3 active torsions:
  status: ('A' for Active; 'I' for Inactive)
    1  A    between atoms: C_2  and  C_21
    2  A    between atoms: C_6  and  C_15
    3  A    between atoms: C_6  and  C_23
                            x       y       z     vdW  Elec       q    Type
                         _______ _______ _______ _____ _____    ______ ____

>  <TORSDO>
F 3

$$$$
=
 OpenBabel11052422053D

 25 29  0  0  1  0  0  0  0  0999 V2000
  161.0090  208.3200  153.2850 C   0  0  0  0  0  0  0  0  0  0  0  0
  161.6280  207.4250  152.2590 C   0  0  0  0  0  0  0  0  0  0  0  0
  161.2120  210.3350  151.9450 C   0  0  0  0  0  3  0  0  0  0  0  0
  160.7330  208.1400  154.5650 C   0  0  0  0  0  0  0  0  0  0  0  0
  160.1070  208.2990  157.2610 C   0  0  0  0  0  3  0  0  0  0  0  0
  161.6070  209.4800  150.7970 C   0  0  0  0  0  3  0  0  0  0  0  0
  160.4290  209.3720  155.1370 C   0  0  1  0  0  3  0  0  0  0  0  0
  160.1060  209.4730  156.4880 C   0  0  0  0  0  3  0  0  0  0  0  0
  162.0020  207.2970  149.7300 C   0  0  0  0  0  0  0  0  0  0  0  0
  162.6930  207.9590  148.2580 Cl  0  0  0  0  0  0  0  0  0  0  0  0
  160.9240  206.1040  152.1080 C   0  0  0  0  0  3  0  0  0  0  0  0
  160.4340  207.0560  156.6800 C   0  0  0  0  0  3  0  0  0  0  0  0
  160.9080  209.7450  153.0970 C   0  0  0  0  0  0  0  0  0  0  0  0
  160.5190  210.3740  154.3150 N   0  0  0  0  0  0  0  0  0  0  0  0
  161.6310  206.0120  149.7580 C   0  0  0  0  0  3  0  0  0  0  0  0
  160.7580  206.9660  155.3170 C   0  0  0  0  0  3  0  0  0  0  0  0
  160.9850  205.4240  150.9560 C   0  0  0  0  0  0  0  0  0  0  0  0
  161.7540  208.1410  150.9160 C   0  0  0  0  0  0  0  0  0  0  0  0
  160.3630  204.0750  150.8660 C   0  0  0  0  0  2  0  0  0  0  0  0
  161.1880  203.1790  149.9600 C   0  0  2  0  0  3  0  0  0  0  0  0
  160.2720  202.1570  149.3120 C   0  0  2  0  0  3  0  0  0  0  0  0
  161.1500  201.7610  150.4850 C   0  0  0  0  0  2  0  0  0  0  0  0
  160.8780  201.6770  148.0350 C   0  0  0  0  0  0  0  0  0  0  0  0
  161.1670  200.3290  147.8610 O   0  0  0  0  0  1  0  0  0  0  0  0
  161.1690  202.4990  147.1260 O   0  0  0  0  0  0  0  0  0  0  0  0
  1  4  2  0  0  0  0
  2  1  1  0  0  0  0
  3 13  1  0  0  0  0
  4  7  1  0  0  0  0
  4 16  1  0  0  0  0
  6 18  1  0  0  0  0
  6  3  2  0  0  0  0
  7  8  1  1  0  0  0
  8  5  2  0  0  0  0
  9 15  2  0  0  0  0
  9 18  1  0  0  0  0
 10  9  1  0  0  0  0
 11  2  1  0  0  0  0
 12  5  1  0  0  0  0
 13  1  1  0  0  0  0
 13 14  2  0  0  0  0
 14  7  1  0  0  0  0
 15 17  1  0  0  0  0
 16 12  2  0  0  0  0
 17 11  2  0  0  0  0
 18  2  2  0  0  0  0
 19 17  1  0  0  0  0
 20 22  1  0  0  0  0
 20 19  1  1  0  0  0
 21 23  1  6  0  0  0
 21 20  1  0  0  0  0
 21 22  1  0  0  0  0
 24 23  1  0  0  0  0
 25 23  2  0  0  0  0
M  END
>  <MODEL>
3

>  <REMARK>
 VINA RESULT:      -9.1      4.074      7.489
  Name = 
  3 active torsions:
  status: ('A' for Active; 'I' for Inactive)
    1  A    between atoms: C_2  and  C_21
    2  A    between atoms: C_6  and  C_15
    3  A    between atoms: C_6  and  C_23
                            x       y       z     vdW  Elec       q    Type
                         _______ _______ _______ _____ _____    ______ ____

>  <TORSDO>
F 3

$$$$
=
 OpenBabel11052422053D

 25 29  0  0  1  0  0  0  0  0999 V2000
  161.3220  205.6710  150.4280 C   0  0  0  0  0  0  0  0  0  0  0  0
  161.6890  206.6970  151.4540 C   0  0  1  0  0  3  0  0  0  0  0  0
  160.7550  203.9550  152.0490 C   0  0  0  0  0  3  0  0  0  0  0  0
  161.5240  205.6170  149.1230 C   0  0  0  0  0  0  0  0  0  0  0  0
  161.8250  204.9770  146.4420 C   0  0  0  0  0  3  0  0  0  0  0  0
  160.8660  204.9850  153.1130 C   0  0  0  0  0  3  0  0  0  0  0  0
  161.2470  204.3260  148.6800 C   0  0  0  0  0  0  0  0  0  0  0  0
  161.3870  203.9860  147.3360 C   0  0  0  0  0  3  0  0  0  0  0  0
  161.2040  207.2930  153.8960 C   0  0  0  0  0  0  0  0  0  0  0  0
  161.2510  206.8810  155.6020 Cl  0  0  0  0  0  0  0  0  0  0  0  0
  161.1830  208.0770  151.1340 C   0  0  0  0  0  3  0  0  0  0  0  0
  162.1220  206.2780  146.9000 C   0  0  0  0  0  3  0  0  0  0  0  0
  160.9500  204.3280  150.7870 C   0  0  0  0  0  0  0  0  0  0  0  0
  160.9030  203.5040  149.6260 N   0  0  0  0  0  0  0  0  0  0  0  0
  161.0630  208.5740  153.5360 C   0  0  0  0  0  3  0  0  0  0  0  0
  161.9780  206.6100  148.2570 C   0  0  0  0  0  3  0  0  0  0  0  0
  160.9550  208.9660  152.1100 C   0  0  0  0  0  0  0  0  0  0  0  0
  161.2450  206.2550  152.8470 C   0  0  0  0  0  0  0  0  0  0  0  0
  160.5510  210.3550  151.7590 C   0  0  0  0  0  2  0  0  0  0  0  0
  160.0840  211.0920  153.0010 C   0  0  2  0  0  3  0  0  0  0  0  0
  158.5990  211.3740  152.8750 C   0  0  2  0  0  3  0  0  0  0  0  0
  159.6100  212.4760  152.6150 C   0  0  0  0  0  2  0  0  0  0  0  0
  158.0020  211.5390  154.2340 C   0  0  0  0  0  0  0  0  0  0  0  0
  158.5800  210.9130  155.3320 O   0  0  0  0  0  1  0  0  0  0  0  0
  156.9470  212.2100  154.3840 O   0  0  0  0  0  0  0  0  0  0  0  0
  1 13  1  0  0  0  0
  1  2  1  0  0  0  0
  2 11  1  6  0  0  0
  2 18  1  0  0  0  0
  3  6  1  0  0  0  0
  4  1  2  0  0  0  0
  5 12  1  0  0  0  0
  5  8  2  0  0  0  0
  7  4  1  0  0  0  0
  7 14  2  0  0  0  0
  8  7  1  0  0  0  0
  9 10  1  0  0  0  0
 11 17  2  0  0  0  0
 12 16  2  0  0  0  0
 13  3  2  0  0  0  0
 14 13  1  0  0  0  0
 15  9  2  0  0  0  0
 16  4  1  0  0  0  0
 17 15  1  0  0  0  0
 18  6  2  0  0  0  0
 18  9  1  0  0  0  0
 19 17  1  0  0  0  0
 20 19  1  6  0  0  0
 21 20  1  0  0  0  0
 21 23  1  1  0  0  0
 22 21  1  0  0  0  0
 22 20  1  0  0  0  0
 23 25  2  0  0  0  0
 23 24  1  0  0  0  0
M  END
>  <MODEL>
4

>  <REMARK>
 VINA RESULT:      -9.1      2.499      3.967
  Name = 
  3 active torsions:
  status: ('A' for Active; 'I' for Inactive)
    1  A    between atoms: C_2  and  C_21
    2  A    between atoms: C_6  and  C_15
    3  A    between atoms: C_6  and  C_23
                            x       y       z     vdW  Elec       q    Type
                         _______ _______ _______ _____ _____    ______ ____

>  <TORSDO>
F 3

$$$$
=
 OpenBabel11052422053D

 25 29  0  0  1  0  0  0  0  0999 V2000
  161.3770  206.1600  150.8620 C   0  0  0  0  0  0  0  0  0  0  0  0
  160.7700  205.0130  150.1150 C   0  0  1  0  0  3  0  0  0  0  0  0
  161.2120  205.0940  153.0380 C   0  0  0  0  0  3  0  0  0  0  0  0
  161.6280  207.4080  150.5100 C   0  0  0  0  0  0  0  0  0  0  0  0
  162.2070  210.1120  150.3050 C   0  0  0  0  0  3  0  0  0  0  0  0
  160.8320  203.8370  152.3460 C   0  0  0  0  0  3  0  0  0  0  0  0
  161.9310  208.1430  151.6530 C   0  0  0  0  0  0  0  0  0  0  0  0
  162.2300  209.5020  151.5710 C   0  0  0  0  0  3  0  0  0  0  0  0
  160.4410  202.4840  150.3270 C   0  0  0  0  0  0  0  0  0  0  0  0
  159.7820  201.1010  151.1850 Cl  0  0  0  0  0  0  0  0  0  0  0  0
  161.4670  204.7010  148.8200 C   0  0  0  0  0  3  0  0  0  0  0  0
  161.8810  209.3660  149.1530 C   0  0  0  0  0  3  0  0  0  0  0  0
  161.4910  206.1640  152.2970 C   0  0  0  0  0  0  0  0  0  0  0  0
  161.8630  207.4600  152.7560 N   0  0  0  0  0  0  0  0  0  0  0  0
  160.8020  202.3480  149.0460 C   0  0  0  0  0  3  0  0  0  0  0  0
  161.5810  207.9970  149.2480 C   0  0  0  0  0  3  0  0  0  0  0  0
  161.4230  203.4670  148.2990 C   0  0  0  0  0  0  0  0  0  0  0  0
  160.6730  203.7750  151.0040 C   0  0  0  0  0  0  0  0  0  0  0  0
  162.0360  203.2100  146.9670 C   0  0  0  0  0  2  0  0  0  0  0  0
  162.1400  204.5040  146.1810 C   0  0  2  0  0  3  0  0  0  0  0  0
  161.6440  204.2620  144.7680 C   0  0  2  0  0  3  0  0  0  0  0  0
  163.1330  204.3290  145.0540 C   0  0  0  0  0  2  0  0  0  0  0  0
  161.1790  205.5500  144.1710 C   0  0  0  0  0  0  0  0  0  0  0  0
  161.5810  205.9120  142.8920 O   0  0  0  0  0  0  0  0  0  0  0  0
  160.4560  206.3320  144.8420 O   0  0  0  0  0  1  0  0  0  0  0  0
  1 13  1  0  0  0  0
  2 11  1  6  0  0  0
  2  1  1  0  0  0  0
  2 18  1  0  0  0  0
  4  1  2  0  0  0  0
  4  7  1  0  0  0  0
  5  8  2  0  0  0  0
  6  3  1  0  0  0  0
  7 14  2  0  0  0  0
  8  7  1  0  0  0  0
  9 18  1  0  0  0  0
  9 10  1  0  0  0  0
 12 16  2  0  0  0  0
 12  5  1  0  0  0  0
 13 14  1  0  0  0  0
 13  3  2  0  0  0  0
 15  9  2  0  0  0  0
 16  4  1  0  0  0  0
 17 11  2  0  0  0  0
 17 15  1  0  0  0  0
 18  6  2  0  0  0  0
 19 17  1  0  0  0  0
 20 19  1  1  0  0  0
 21 23  1  6  0  0  0
 21 22  1  0  0  0  0
 21 20  1  0  0  0  0
 22 20  1  0  0  0  0
 23 25  1  0  0  0  0
 24 23  2  0  0  0  0
M  END
>  <MODEL>
5

>  <REMARK>
 VINA RESULT:      -8.9      4.506      7.951
  Name = 
  3 active torsions:
  status: ('A' for Active; 'I' for Inactive)
    1  A    between atoms: C_2  and  C_21
    2  A    between atoms: C_6  and  C_15
    3  A    between atoms: C_6  and  C_23
                            x       y       z     vdW  Elec       q    Type
                         _______ _______ _______ _____ _____    ______ ____

>  <TORSDO>
F 3

$$$$
=
 OpenBabel11052422053D

 25 29  0  0  1  0  0  0  0  0999 V2000
  161.6170  206.4010  149.5940 C   0  0  0  0  0  0  0  0  0  0  0  0
  162.2160  207.7230  149.9590 C   0  0  1  0  0  3  0  0  0  0  0  0
  160.8230  205.9140  151.8370 C   0  0  0  0  0  3  0  0  0  0  0  0
  161.7400  205.6410  148.5200 C   0  0  0  0  0  0  0  0  0  0  0  0
  161.7860  203.6610  146.5810 C   0  0  0  0  0  3  0  0  0  0  0  0
  161.1740  207.3060  152.2170 C   0  0  0  0  0  3  0  0  0  0  0  0
  161.2080  204.3850  148.7970 C   0  0  0  0  0  0  0  0  0  0  0  0
  161.2170  203.3770  147.8340 C   0  0  0  0  0  3  0  0  0  0  0  0
  161.9710  209.5780  151.7060 C   0  0  0  0  0  0  0  0  0  0  0  0
  162.0240  210.1110  153.3770 Cl  0  0  0  0  0  0  0  0  0  0  0  0
  161.9590  208.8020  148.9420 C   0  0  0  0  0  3  0  0  0  0  0  0
  162.3400  204.9300  146.3130 C   0  0  0  0  0  3  0  0  0  0  0  0
  161.0200  205.5340  150.5770 C   0  0  0  0  0  0  0  0  0  0  0  0
  160.7650  204.2520  150.0110 N   0  0  0  0  0  0  0  0  0  0  0  0
  162.0510  210.4860  150.7270 C   0  0  0  0  0  3  0  0  0  0  0  0
  162.3270  205.9370  147.2910 C   0  0  0  0  0  3  0  0  0  0  0  0
  161.9470  210.0920  149.3010 C   0  0  0  0  0  0  0  0  0  0  0  0
  161.7680  208.1590  151.3520 C   0  0  0  0  0  0  0  0  0  0  0  0
  161.7900  211.1430  148.2590 C   0  0  0  0  0  2  0  0  0  0  0  0
  161.4640  212.4770  148.9070 C   0  0  2  0  0  3  0  0  0  0  0  0
  160.0920  212.9270  148.4400 C   0  0  2  0  0  3  0  0  0  0  0  0
  161.3440  213.5390  147.8380 C   0  0  0  0  0  2  0  0  0  0  0  0
  159.5000  213.8590  149.4450 C   0  0  0  0  0  0  0  0  0  0  0  0
  160.1140  214.0390  150.6780 O   0  0  0  0  0  1  0  0  0  0  0  0
  158.4180  214.4520  149.1950 O   0  0  0  0  0  0  0  0  0  0  0  0
  1  2  1  0  0  0  0
  1 13  1  0  0  0  0
  2 11  1  6  0  0  0
  2 18  1  0  0  0  0
  3  6  1  0  0  0  0
  4  7  1  0  0  0  0
  4  1  2  0  0  0  0
  5  8  2  0  0  0  0
  7 14  2  0  0  0  0
  8  7  1  0  0  0  0
  9 10  1  0  0  0  0
 11 17  2  0  0  0  0
 12  5  1  0  0  0  0
 12 16  2  0  0  0  0
 13  3  2  0  0  0  0
 14 13  1  0  0  0  0
 15  9  2  0  0  0  0
 16  4  1  0  0  0  0
 17 15  1  0  0  0  0
 18  9  1  0  0  0  0
 18  6  2  0  0  0  0
 19 17  1  0  0  0  0
 20 19  1  6  0  0  0
 21 20  1  0  0  0  0
 21 23  1  1  0  0  0
 22 21  1  0  0  0  0
 22 20  1  0  0  0  0
 23 24  1  0  0  0  0
 25 23  2  0  0  0  0
M  END
>  <MODEL>
6

>  <REMARK>
 VINA RESULT:      -8.4      3.220      5.227
  Name = 
  3 active torsions:
  status: ('A' for Active; 'I' for Inactive)
    1  A    between atoms: C_2  and  C_21
    2  A    between atoms: C_6  and  C_15
    3  A    between atoms: C_6  and  C_23
                            x       y       z     vdW  Elec       q    Type
                         _______ _______ _______ _____ _____    ______ ____

>  <TORSDO>
F 3

$$$$
=
 OpenBabel11052422053D

 25 29  0  0  1  0  0  0  0  0999 V2000
  161.4380  204.7150  149.1240 C   0  0  0  0  0  0  0  0  0  0  0  0
  161.8430  205.5430  150.3040 C   0  0  1  0  0  3  0  0  0  0  0  0
  160.6080  202.8600  150.4540 C   0  0  0  0  0  3  0  0  0  0  0  0
  161.7110  204.8210  147.8360 C   0  0  0  0  0  0  0  0  0  0  0  0
  162.1050  204.5330  145.1070 C   0  0  0  0  0  3  0  0  0  0  0  0
  160.7570  203.7140  151.6590 C   0  0  0  0  0  3  0  0  0  0  0  0
  161.3330  203.6420  147.1990 C   0  0  0  0  0  0  0  0  0  0  0  0
  161.5180  203.4790  145.8280 C   0  0  0  0  0  3  0  0  0  0  0  0
  161.2770  205.8420  152.7820 C   0  0  0  0  0  0  0  0  0  0  0  0
  161.1810  205.1930  154.4100 Cl  0  0  0  0  0  0  0  0  0  0  0  0
  161.4980  207.0000  150.1640 C   0  0  0  0  0  3  0  0  0  0  0  0
  162.5020  205.7180  145.7600 C   0  0  0  0  0  3  0  0  0  0  0  0
  160.9130  203.3820  149.2690 C   0  0  0  0  0  0  0  0  0  0  0  0
  160.8530  202.7380  148.0000 N   0  0  0  0  0  0  0  0  0  0  0  0
  161.2860  207.1680  152.6050 C   0  0  0  0  0  3  0  0  0  0  0  0
  162.3120  205.8710  147.1430 C   0  0  0  0  0  3  0  0  0  0  0  0
  161.3020  207.7630  151.2480 C   0  0  0  0  0  0  0  0  0  0  0  0
  161.2770  204.9610  151.5970 C   0  0  0  0  0  0  0  0  0  0  0  0
  161.0600  209.2230  151.0830 C   0  0  0  0  0  2  0  0  0  0  0  0
  160.4360  209.7940  152.3440 C   0  0  2  0  0  3  0  0  0  0  0  0
  160.5030  211.3080  152.2830 C   0  0  2  0  0  3  0  0  0  0  0  0
  161.4910  210.5340  153.1360 C   0  0  0  0  0  2  0  0  0  0  0  0
  159.4330  211.8940  153.1430 C   0  0  0  0  0  0  0  0  0  0  0  0
  159.7680  212.6910  154.2310 O   0  0  0  0  0  1  0  0  0  0  0  0
  158.2230  211.6320  152.9120 O   0  0  0  0  0  0  0  0  0  0  0  0
  1 13  1  0  0  0  0
  1  2  1  0  0  0  0
  2 11  1  6  0  0  0
  2 18  1  0  0  0  0
  3  6  1  0  0  0  0
  4  1  2  0  0  0  0
  5 12  1  0  0  0  0
  5  8  2  0  0  0  0
  7  4  1  0  0  0  0
  7 14  2  0  0  0  0
  8  7  1  0  0  0  0
  9 10  1  0  0  0  0
 11 17  2  0  0  0  0
 12 16  2  0  0  0  0
 13  3  2  0  0  0  0
 14 13  1  0  0  0  0
 15  9  2  0  0  0  0
 16  4  1  0  0  0  0
 17 15  1  0  0  0  0
 18  6  2  0  0  0  0
 18  9  1  0  0  0  0
 19 17  1  0  0  0  0
 20 19  1  6  0  0  0
 20 22  1  0  0  0  0
 21 20  1  0  0  0  0
 21 22  1  0  0  0  0
 21 23  1  1  0  0  0
 23 24  1  0  0  0  0
 25 23  2  0  0  0  0
M  END
>  <MODEL>
7

>  <REMARK>
 VINA RESULT:      -8.3      2.346      3.784
  Name = 
  3 active torsions:
  status: ('A' for Active; 'I' for Inactive)
    1  A    between atoms: C_2  and  C_21
    2  A    between atoms: C_6  and  C_15
    3  A    between atoms: C_6  and  C_23
                            x       y       z     vdW  Elec       q    Type
                         _______ _______ _______ _____ _____    ______ ____

>  <TORSDO>
F 3

$$$$
=
 OpenBabel11052422053D

 25 29  0  0  1  0  0  0  0  0999 V2000
  161.4270  207.8780  151.8020 C   0  0  0  0  0  0  0  0  0  0  0  0
  161.8190  206.6700  151.0110 C   0  0  0  0  0  0  0  0  0  0  0  0
  161.7530  209.4370  149.9690 C   0  0  0  0  0  3  0  0  0  0  0  0
  161.2600  208.0680  153.0990 C   0  0  0  0  0  0  0  0  0  0  0  0
  160.9340  208.9920  155.6930 C   0  0  0  0  0  3  0  0  0  0  0  0
  161.9170  208.2710  149.0640 C   0  0  0  0  0  3  0  0  0  0  0  0
  161.1760  209.4360  153.3450 C   0  0  1  0  0  3  0  0  0  0  0  0
  161.0080  209.9210  154.6400 C   0  0  0  0  0  3  0  0  0  0  0  0
  161.9170  205.8570  148.5860 C   0  0  0  0  0  0  0  0  0  0  0  0
  162.5360  206.0160  146.9510 Cl  0  0  0  0  0  0  0  0  0  0  0  0
  160.9380  205.4760  151.2580 C   0  0  0  0  0  3  0  0  0  0  0  0
  161.0380  207.6090  155.4400 C   0  0  0  0  0  3  0  0  0  0  0  0
  161.4920  209.2080  151.2530 C   0  0  0  0  0  0  0  0  0  0  0  0
  161.3130  210.1740  152.2840 N   0  0  0  0  0  0  0  0  0  0  0  0
  161.3870  204.6910  148.9750 C   0  0  0  0  0  3  0  0  0  0  0  0
  161.2090  207.1320  154.1300 C   0  0  0  0  0  3  0  0  0  0  0  0
  160.7940  204.5270  150.3230 C   0  0  0  0  0  0  0  0  0  0  0  0
  161.9010  206.9980  149.5220 C   0  0  0  0  0  0  0  0  0  0  0  0
  159.9980  203.3080  150.6310 C   0  0  0  0  0  2  0  0  0  0  0  0
  160.6280  202.0930  149.9760 C   0  0  2  0  0  3  0  0  0  0  0  0
  160.0680  201.9440  148.5740 C   0  0  2  0  0  3  0  0  0  0  0  0
  159.5590  201.0600  149.6970 C   0  0  0  0  0  2  0  0  0  0  0  0
  161.0350  201.1860  147.7250 C   0  0  0  0  0  0  0  0  0  0  0  0
  160.8510  201.1160  146.3490 O   0  0  0  0  0  0  0  0  0  0  0  0
  161.9960  200.5720  148.2570 O   0  0  0  0  0  1  0  0  0  0  0  0
  1  4  2  0  0  0  0
  2 11  1  0  0  0  0
  2  1  1  0  0  0  0
  3 13  1  0  0  0  0
  4  7  1  0  0  0  0
  4 16  1  0  0  0  0
  6 18  1  0  0  0  0
  6  3  2  0  0  0  0
  7  8  1  1  0  0  0
  8  5  2  0  0  0  0
  9 15  2  0  0  0  0
  9 18  1  0  0  0  0
 10  9  1  0  0  0  0
 12  5  1  0  0  0  0
 13  1  1  0  0  0  0
 13 14  2  0  0  0  0
 14  7  1  0  0  0  0
 15 17  1  0  0  0  0
 16 12  2  0  0  0  0
 17 19  1  0  0  0  0
 17 11  2  0  0  0  0
 18  2  2  0  0  0  0
 20 19  1  1  0  0  0
 21 23  1  6  0  0  0
 21 22  1  0  0  0  0
 21 20  1  0  0  0  0
 22 20  1  0  0  0  0
 23 25  1  0  0  0  0
 24 23  2  0  0  0  0
M  END
>  <MODEL>
8

>  <REMARK>
 VINA RESULT:      -8.1      4.129      7.319
  Name = 
  3 active torsions:
  status: ('A' for Active; 'I' for Inactive)
    1  A    between atoms: C_2  and  C_21
    2  A    between atoms: C_6  and  C_15
    3  A    between atoms: C_6  and  C_23
                            x       y       z     vdW  Elec       q    Type
                         _______ _______ _______ _____ _____    ______ ____

>  <TORSDO>
F 3

$$$$
=
 OpenBabel11052422053D

 25 29  0  0  1  0  0  0  0  0999 V2000
  160.9140  208.7800  153.3360 C   0  0  0  0  0  0  0  0  0  0  0  0
  161.6040  208.1220  152.1820 C   0  0  0  0  0  0  0  0  0  0  0  0
  160.8900  210.9880  152.3240 C   0  0  0  0  0  3  0  0  0  0  0  0
  160.6800  208.3770  154.5720 C   0  0  0  0  0  0  0  0  0  0  0  0
  160.0870  208.0540  157.2610 C   0  0  0  0  0  3  0  0  0  0  0  0
  161.3500  210.3650  151.0570 C   0  0  0  0  0  3  0  0  0  0  0  0
  160.2620  209.4690  155.3280 C   0  0  0  0  0  0  0  0  0  0  0  0
  159.9540  209.3260  156.6800 C   0  0  0  0  0  3  0  0  0  0  0  0
  161.9460  208.4250  149.6640 C   0  0  0  0  0  0  0  0  0  0  0  0
  162.5410  209.3730  148.3120 Cl  0  0  0  0  0  0  0  0  0  0  0  0
  161.0340  206.7750  151.8300 C   0  0  0  0  0  3  0  0  0  0  0  0
  160.5280  206.9550  156.4940 C   0  0  0  0  0  3  0  0  0  0  0  0
  160.6670  210.1990  153.3710 C   0  0  0  0  0  0  0  0  0  0  0  0
  160.2370  210.5900  154.6720 N   0  0  0  0  0  0  0  0  0  0  0  0
  161.7060  207.1200  149.4930 C   0  0  0  0  0  3  0  0  0  0  0  0
  160.8360  207.1110  155.1330 C   0  0  0  0  0  3  0  0  0  0  0  0
  161.1430  206.2910  150.5850 C   0  0  0  0  0  0  0  0  0  0  0  0
  161.6340  209.0450  150.9670 C   0  0  2  0  0  3  0  0  0  0  0  0
  160.6600  204.9150  150.2880 C   0  0  0  0  0  2  0  0  0  0  0  0
  161.5640  204.2540  149.2630 C   0  0  2  0  0  3  0  0  0  0  0  0
  160.8040  204.1090  147.9580 C   0  0  2  0  0  3  0  0  0  0  0  0
  160.9850  202.9120  148.8730 C   0  0  0  0  0  2  0  0  0  0  0  0
  161.7690  204.0330  146.8210 C   0  0  0  0  0  0  0  0  0  0  0  0
  162.9530  204.7590  146.8590 O   0  0  0  0  0  1  0  0  0  0  0  0
  161.4930  203.3450  145.8030 O   0  0  0  0  0  0  0  0  0  0  0  0
  1 13  1  0  0  0  0
  1  4  1  0  0  0  0
  2  1  2  0  0  0  0
  3 13  1  0  0  0  0
  4 16  2  0  0  0  0
  4  7  1  0  0  0  0
  6  3  2  0  0  0  0
  7  8  2  0  0  0  0
  8  5  1  0  0  0  0
  9 18  1  0  0  0  0
 10  9  1  0  0  0  0
 11  2  1  0  0  0  0
 12  5  2  0  0  0  0
 13 14  2  0  0  0  0
 14  7  1  0  0  0  0
 15  9  2  0  0  0  0
 15 17  1  0  0  0  0
 16 12  1  0  0  0  0
 17 11  2  0  0  0  0
 18  6  1  6  0  0  0
 18  2  1  0  0  0  0
 19 17  1  0  0  0  0
 20 19  1  1  0  0  0
 21 23  1  6  0  0  0
 21 22  1  0  0  0  0
 21 20  1  0  0  0  0
 22 20  1  0  0  0  0
 23 24  1  0  0  0  0
 25 23  2  0  0  0  0
M  END
>  <MODEL>
9

>  <REMARK>
 VINA RESULT:      -8.0      3.942      7.504
  Name = 
  3 active torsions:
  status: ('A' for Active; 'I' for Inactive)
    1  A    between atoms: C_2  and  C_21
    2  A    between atoms: C_6  and  C_15
    3  A    between atoms: C_6  and  C_23
                            x       y       z     vdW  Elec       q    Type
                         _______ _______ _______ _____ _____    ______ ____

>  <TORSDO>
F 3

$$$$
