=
 OpenBabel11062408413D

 55 61  0  0  1  0  0  0  0  0999 V2000
  161.0560  206.7150  146.8900 C   0  0  0  0  0  2  0  0  0  0  0  0
  161.9450  202.9500  151.6120 C   0  0  0  0  0  2  0  0  0  0  0  0
  160.4750  203.0840  149.5830 C   0  0  2  0  0  3  0  0  0  0  0  0
  161.2500  200.6470  148.2060 C   0  0  0  0  0  3  0  0  0  0  0  0
  161.5480  199.4510  147.5520 C   0  0  0  0  0  3  0  0  0  0  0  0
  160.6740  201.6740  146.0830 C   0  0  0  0  0  0  0  0  0  0  0  0
  160.9500  200.4600  145.4440 C   0  0  0  0  0  3  0  0  0  0  0  0
  159.7040  204.3340  149.9600 C   0  0  0  0  0  1  0  0  0  0  0  0
  161.3890  199.3540  146.1730 C   0  0  0  0  0  3  0  0  0  0  0  0
  161.5830  208.9480  147.8790 C   0  0  0  0  0  3  0  0  0  0  0  0
  160.8030  201.7660  147.4910 C   0  0  0  0  0  0  0  0  0  0  0  0
  161.9860  207.7980  150.4010 C   0  0  0  0  0  0  0  0  0  0  0  0
  162.1060  205.6380  146.6540 C   0  0  0  0  0  2  0  0  0  0  0  0
  161.6320  206.9960  149.3130 C   0  0  0  0  0  3  0  0  0  0  0  0
  160.2970  204.1080  145.6750 C   0  0  0  0  0  2  0  0  0  0  0  0
  160.9790  204.4990  153.0880 C   0  0  0  0  0  2  0  0  0  0  0  0
  160.2530  202.7440  145.2770 O   0  0  0  0  0  0  0  0  0  0  0  0
  162.1660  204.2180  152.2900 N   0  0  0  0  0  2  0  0  0  0  0  0
  161.8990  203.1650  150.1060 C   0  0  0  0  0  2  0  0  0  0  0  0
  161.9210  209.7520  148.9700 C   0  0  0  0  0  3  0  0  0  0  0  0
  160.9560  205.9550  153.5690 C   0  0  2  0  0  3  0  0  0  0  0  0
  161.4400  207.5670  148.0490 C   0  0  0  0  0  0  0  0  0  0  0  0
  160.4750  202.9530  148.1620 O   0  0  0  0  0  0  0  0  0  0  0  0
  161.7240  204.6360  145.5550 C   0  0  1  0  0  3  0  0  0  0  0  0
  160.8750  207.0010  152.4560 C   0  0  0  0  0  2  0  0  0  0  0  0
  162.2040  207.1740  151.7300 C   0  0  0  0  0  2  0  0  0  0  0  0
  162.1220  209.1790  150.2320 C   0  0  0  0  0  3  0  0  0  0  0  0
  163.0240  206.1450  144.2400 C   0  0  0  0  0  2  0  0  0  0  0  0
  162.5830  205.9900  141.7950 N   0  0  0  0  0  0  0  0  0  0  0  0
  160.8360  205.5040  143.4730 C   0  0  0  0  0  2  0  0  0  0  0  0
  161.1780  206.1990  142.1520 C   0  0  0  0  0  2  0  0  0  0  0  0
  163.4470  206.5790  142.8300 C   0  0  0  0  0  2  0  0  0  0  0  0
  162.0420  205.0580  144.1840 N   0  0  0  0  0  0  0  0  0  0  0  0
  162.8360  206.5970  140.4860 C   0  0  0  0  0  3  0  0  0  0  0  0
  161.9470  207.8110  140.2660 C   0  0  0  0  0  1  0  0  0  0  0  0
  162.7060  205.6240  139.3220 C   0  0  0  0  0  1  0  0  0  0  0  0
  161.9140  206.2820  154.7160 C   0  0  0  0  0  2  0  0  0  0  0  0
  161.3160  207.2020  155.7690 C   0  0  0  0  0  2  0  0  0  0  0  0
  159.9800  207.7520  155.2890 C   0  0  0  0  0  2  0  0  0  0  0  0
  161.7200  211.0950  155.0000 C   0  0  2  0  0  3  0  0  0  0  0  0
  158.9520  209.2260  157.2590 F   0  0  0  0  0  0  0  0  0  0  0  0
  159.7490  210.0330  156.4670 C   0  0  2  0  0  0  0  0  0  0  0  0
  159.0240  211.2540  156.3090 O   0  0  0  0  0  0  0  0  0  0  0  0
  160.0330  209.2730  155.1440 C   0  0  1  0  0  3  0  0  0  0  0  0
  163.2360  210.8940  156.9640 C   0  0  0  0  0  1  0  0  0  0  0  0
  160.6640  212.0640  154.4850 C   0  0  0  0  0  2  0  0  0  0  0  0
  159.2180  213.5250  155.7710 C   0  0  0  0  0  1  0  0  0  0  0  0
  159.2870  212.1250  155.2000 C   0  0  2  0  0  0  0  0  0  0  0  0
  161.3810  209.6850  154.5590 C   0  0  0  0  0  2  0  0  0  0  0  0
  160.9450  210.2590  157.1940 O   0  0  0  0  0  0  0  0  0  0  0  0
  161.8110  211.1640  156.5270 C   0  0  2  0  0  3  0  0  0  0  0  0
  156.7030  212.0120  154.5520 C   0  0  0  0  0  1  0  0  0  0  0  0
  158.1680  212.0220  154.1330 C   0  0  0  0  0  0  0  0  0  0  0  0
  158.4730  211.3110  152.8280 C   0  0  0  0  0  2  0  0  0  0  0  0
  158.3870  212.8300  152.8720 C   0  0  0  0  0  2  0  0  0  0  0  0
  1 22  1  0  0  0  0
  2 18  1  0  0  0  0
  3  8  1  6  0  0  0
  3 19  1  0  0  0  0
  5  4  1  0  0  0  0
  6 11  1  0  0  0  0
  7  6  2  0  0  0  0
  7  9  1  0  0  0  0
  9  5  2  0  0  0  0
 10 22  2  0  0  0  0
 10 20  1  0  0  0  0
 11 23  1  0  0  0  0
 11  4  2  0  0  0  0
 12 26  1  0  0  0  0
 13  1  1  0  0  0  0
 14 12  2  0  0  0  0
 16 21  1  0  0  0  0
 17 15  1  0  0  0  0
 17  6  1  0  0  0  0
 18 16  1  0  0  0  0
 19  2  1  0  0  0  0
 20 27  2  0  0  0  0
 21 37  1  6  0  0  0
 22 14  1  0  0  0  0
 23  3  1  0  0  0  0
 24 33  1  6  0  0  0
 24 15  1  0  0  0  0
 24 13  1  0  0  0  0
 25 21  1  0  0  0  0
 26 25  1  0  0  0  0
 27 12  1  0  0  0  0
 29 31  1  0  0  0  0
 29 32  1  0  0  0  0
 30 33  1  0  0  0  0
 31 30  1  0  0  0  0
 32 28  1  0  0  0  0
 33 28  1  0  0  0  0
 34 29  1  0  0  0  0
 35 34  1  0  0  0  0
 36 34  1  0  0  0  0
 37 38  1  0  0  0  0
 39 38  1  0  0  0  0
 40 46  1  1  0  0  0
 40 51  1  0  0  0  0
 42 50  1  0  0  0  0
 42 41  1  1  0  0  0
 43 42  1  0  0  0  0
 44 39  1  1  0  0  0
 44 42  1  0  0  0  0
 46 48  1  0  0  0  0
 48 47  1  1  0  0  0
 48 43  1  0  0  0  0
 49 40  1  0  0  0  0
 49 44  1  0  0  0  0
 51 45  1  6  0  0  0
 51 50  1  0  0  0  0
 53 52  1  0  0  0  0
 53 48  1  0  0  0  0
 54 55  1  0  0  0  0
 54 53  1  0  0  0  0
 55 53  1  0  0  0  0
M  END
>  <MODEL>
1

>  <REMARK>
 VINA RESULT:       3.3      0.000      0.000
  Name = 
  7 active torsions:
  status: ('A' for Active; 'I' for Inactive)
    1  A    between atoms: C_7  and  C_20
    2  A    between atoms: C_7  and  C_22
    3  A    between atoms: C_8  and  C_22
    4  A    between atoms: C_8  and  C_43
    5  A    between atoms: C_10  and  N_32
    6  A    between atoms: C_12  and  C_38
    7  A    between atoms: C_49  and  N_52
                            x       y       z     vdW  Elec       q    Type
                         _______ _______ _______ _____ _____    ______ ____

>  <TORSDO>
F 7

$$$$
=
 OpenBabel11062408413D

 55 61  0  0  1  0  0  0  0  0999 V2000
  161.0360  206.9580  146.9290 C   0  0  0  0  0  2  0  0  0  0  0  0
  161.8600  203.5160  151.9030 C   0  0  0  0  0  2  0  0  0  0  0  0
  160.4400  203.4970  149.8340 C   0  0  2  0  0  3  0  0  0  0  0  0
  161.2850  200.9900  148.6350 C   0  0  0  0  0  3  0  0  0  0  0  0
  161.6170  199.7600  148.0660 C   0  0  0  0  0  3  0  0  0  0  0  0
  160.7490  201.8710  146.4370 C   0  0  0  0  0  0  0  0  0  0  0  0
  161.0580  200.6230  145.8840 C   0  0  0  0  0  3  0  0  0  0  0  0
  159.6420  204.7550  150.1120 C   0  0  0  0  0  1  0  0  0  0  0  0
  161.4950  199.5730  146.6930 C   0  0  0  0  0  3  0  0  0  0  0  0
  161.5050  209.2580  147.7860 C   0  0  0  0  0  3  0  0  0  0  0  0
  160.8410  202.0530  147.8390 C   0  0  0  0  0  0  0  0  0  0  0  0
  161.8600  208.2770  150.3850 C   0  0  0  0  0  0  0  0  0  0  0  0
  162.1070  205.8860  146.7890 C   0  0  0  0  0  2  0  0  0  0  0  0
  161.5460  207.4020  149.3420 C   0  0  0  0  0  3  0  0  0  0  0  0
  160.3470  204.2670  145.8660 C   0  0  0  0  0  2  0  0  0  0  0  0
  160.8340  205.1400  153.2530 C   0  0  0  0  0  2  0  0  0  0  0  0
  160.3330  202.8810  145.5540 O   0  0  0  0  0  0  0  0  0  0  0  0
  162.0450  204.8280  152.5040 N   0  0  0  0  0  2  0  0  0  0  0  0
  161.8490  203.6340  150.3850 C   0  0  0  0  0  2  0  0  0  0  0  0
  161.8040  210.1350  148.8310 C   0  0  0  0  0  3  0  0  0  0  0  0
  160.7770  206.6230  153.6390 C   0  0  2  0  0  3  0  0  0  0  0  0
  161.3780  207.8880  148.0410 C   0  0  0  0  0  0  0  0  0  0  0  0
  160.4780  203.2760  148.4240 O   0  0  0  0  0  0  0  0  0  0  0  0
  161.7690  204.8100  145.7460 C   0  0  1  0  0  3  0  0  0  0  0  0
  160.7090  207.5940  152.4600 C   0  0  0  0  0  2  0  0  0  0  0  0
  162.0540  207.7420  151.7570 C   0  0  0  0  0  2  0  0  0  0  0  0
  161.9800  209.6460  150.1320 C   0  0  0  0  0  3  0  0  0  0  0  0
  163.0190  206.3030  144.3670 C   0  0  0  0  0  2  0  0  0  0  0  0
  162.6920  205.9340  141.9270 N   0  0  0  0  0  0  0  0  0  0  0  0
  160.9120  205.4550  143.5720 C   0  0  0  0  0  2  0  0  0  0  0  0
  161.2630  206.0710  142.2140 C   0  0  0  0  0  2  0  0  0  0  0  0
  163.4710  206.6580  142.9440 C   0  0  0  0  0  2  0  0  0  0  0  0
  162.1140  205.1490  144.3590 N   0  0  0  0  0  0  0  0  0  0  0  0
  162.9590  206.4580  140.5850 C   0  0  0  0  0  3  0  0  0  0  0  0
  162.2760  207.8000  140.3760 C   0  0  0  0  0  1  0  0  0  0  0  0
  162.5900  205.4940  139.4650 C   0  0  0  0  0  1  0  0  0  0  0  0
  161.7010  207.0370  154.7860 C   0  0  0  0  0  2  0  0  0  0  0  0
  161.1640  208.1930  155.6160 C   0  0  0  0  0  2  0  0  0  0  0  0
  161.4790  209.5190  154.9370 C   0  0  0  0  0  2  0  0  0  0  0  0
  158.8050  211.2120  152.8700 C   0  0  2  0  0  3  0  0  0  0  0  0
  161.5040  212.0610  155.7430 F   0  0  0  0  0  0  0  0  0  0  0  0
  160.4290  211.8730  154.8930 C   0  0  2  0  0  0  0  0  0  0  0  0
  159.3360  212.5720  155.4930 O   0  0  0  0  0  0  0  0  0  0  0  0
  160.2090  210.3450  154.7320 C   0  0  1  0  0  3  0  0  0  0  0  0
  160.2820  212.4830  151.3210 C   0  0  0  0  0  1  0  0  0  0  0  0
  157.6650  211.5060  153.8370 C   0  0  0  0  0  2  0  0  0  0  0  0
  157.2460  213.5440  155.0820 C   0  0  0  0  0  1  0  0  0  0  0  0
  157.9810  212.2250  155.1770 C   0  0  2  0  0  0  0  0  0  0  0  0
  159.6040  210.0240  153.3680 C   0  0  0  0  0  2  0  0  0  0  0  0
  160.7810  212.4720  153.6570 O   0  0  0  0  0  0  0  0  0  0  0  0
  159.7120  212.4360  152.7250 C   0  0  2  0  0  3  0  0  0  0  0  0
  158.1210  210.3730  157.0900 C   0  0  0  0  0  1  0  0  0  0  0  0
  157.3250  211.4290  156.3340 C   0  0  0  0  0  0  0  0  0  0  0  0
  155.8240  211.2110  156.3050 C   0  0  0  0  0  2  0  0  0  0  0  0
  156.4330  212.2300  157.2570 C   0  0  0  0  0  2  0  0  0  0  0  0
  1 22  1  0  0  0  0
  2 18  1  0  0  0  0
  3  8  1  6  0  0  0
  3 19  1  0  0  0  0
  5  4  1  0  0  0  0
  6 11  1  0  0  0  0
  7  6  2  0  0  0  0
  7  9  1  0  0  0  0
  9  5  2  0  0  0  0
 10 22  2  0  0  0  0
 10 20  1  0  0  0  0
 11 23  1  0  0  0  0
 11  4  2  0  0  0  0
 12 26  1  0  0  0  0
 13  1  1  0  0  0  0
 14 12  2  0  0  0  0
 16 21  1  0  0  0  0
 17 15  1  0  0  0  0
 17  6  1  0  0  0  0
 18 16  1  0  0  0  0
 19  2  1  0  0  0  0
 20 27  2  0  0  0  0
 21 37  1  6  0  0  0
 22 14  1  0  0  0  0
 23  3  1  0  0  0  0
 24 33  1  6  0  0  0
 24 15  1  0  0  0  0
 24 13  1  0  0  0  0
 25 21  1  0  0  0  0
 26 25  1  0  0  0  0
 27 12  1  0  0  0  0
 29 31  1  0  0  0  0
 29 32  1  0  0  0  0
 30 33  1  0  0  0  0
 31 30  1  0  0  0  0
 32 28  1  0  0  0  0
 33 28  1  0  0  0  0
 34 29  1  0  0  0  0
 35 34  1  0  0  0  0
 36 34  1  0  0  0  0
 37 38  1  0  0  0  0
 39 38  1  0  0  0  0
 40 49  1  1  0  0  0
 40 46  1  0  0  0  0
 42 43  1  0  0  0  0
 42 41  1  1  0  0  0
 44 42  1  0  0  0  0
 44 39  1  6  0  0  0
 46 48  1  0  0  0  0
 48 47  1  6  0  0  0
 48 43  1  0  0  0  0
 48 53  1  0  0  0  0
 49 44  1  0  0  0  0
 50 42  1  0  0  0  0
 51 45  1  6  0  0  0
 51 40  1  0  0  0  0
 51 50  1  0  0  0  0
 53 52  1  0  0  0  0
 53 55  1  0  0  0  0
 54 53  1  0  0  0  0
 54 55  1  0  0  0  0
M  END
>  <MODEL>
2

>  <REMARK>
 VINA RESULT:       5.4      1.178      1.978
  Name = 
  7 active torsions:
  status: ('A' for Active; 'I' for Inactive)
    1  A    between atoms: C_7  and  C_20
    2  A    between atoms: C_7  and  C_22
    3  A    between atoms: C_8  and  C_22
    4  A    between atoms: C_8  and  C_43
    5  A    between atoms: C_10  and  N_32
    6  A    between atoms: C_12  and  C_38
    7  A    between atoms: C_49  and  N_52
                            x       y       z     vdW  Elec       q    Type
                         _______ _______ _______ _____ _____    ______ ____

>  <TORSDO>
F 7

$$$$
=
 OpenBabel11062408413D

 55 61  0  0  1  0  0  0  0  0999 V2000
  161.1430  208.0360  147.4730 C   0  0  0  0  0  2  0  0  0  0  0  0
  161.9550  205.2490  152.8430 C   0  0  0  0  0  2  0  0  0  0  0  0
  160.5100  204.9940  150.8070 C   0  0  2  0  0  3  0  0  0  0  0  0
  161.2890  202.3350  149.9360 C   0  0  0  0  0  3  0  0  0  0  0  0
  161.5890  201.0350  149.5280 C   0  0  0  0  0  3  0  0  0  0  0  0
  160.7440  202.9360  147.6470 C   0  0  0  0  0  0  0  0  0  0  0  0
  161.0210  201.6210  147.2580 C   0  0  0  0  0  3  0  0  0  0  0  0
  159.7420  206.2950  150.9270 C   0  0  0  0  0  1  0  0  0  0  0  0
  161.4460  200.6740  148.1910 C   0  0  0  0  0  3  0  0  0  0  0  0
  161.6700  210.4170  148.0200 C   0  0  0  0  0  3  0  0  0  0  0  0
  160.8570  203.2960  149.0130 C   0  0  0  0  0  0  0  0  0  0  0  0
  162.0360  209.7720  150.7210 C   0  0  0  0  0  0  0  0  0  0  0  0
  162.1900  206.9320  147.4620 C   0  0  0  0  0  2  0  0  0  0  0  0
  161.6920  208.7780  149.8030 C   0  0  0  0  0  3  0  0  0  0  0  0
  160.3850  205.2460  146.7740 C   0  0  0  0  0  2  0  0  0  0  0  0
  160.9800  207.0570  153.9810 C   0  0  0  0  0  2  0  0  0  0  0  0
  160.3390  203.8320  146.6450 O   0  0  0  0  0  0  0  0  0  0  0  0
  162.1750  206.6230  153.2670 N   0  0  0  0  0  2  0  0  0  0  0  0
  161.9290  205.1710  151.3230 C   0  0  0  0  0  2  0  0  0  0  0  0
  161.9990  211.4150  148.9400 C   0  0  0  0  0  3  0  0  0  0  0  0
  160.9590  208.5780  154.1710 C   0  0  2  0  0  3  0  0  0  0  0  0
  161.5180  209.0940  148.4510 C   0  0  0  0  0  0  0  0  0  0  0  0
  160.5270  204.5920  149.4380 O   0  0  0  0  0  0  0  0  0  0  0  0
  161.8160  205.7370  146.5720 C   0  0  1  0  0  3  0  0  0  0  0  0
  160.8970  209.3900  152.8770 C   0  0  0  0  0  2  0  0  0  0  0  0
  162.2360  209.4160  152.1480 C   0  0  0  0  0  2  0  0  0  0  0  0
  162.1820  211.0950  150.2910 C   0  0  0  0  0  3  0  0  0  0  0  0
  160.9120  206.0660  144.3880 C   0  0  0  0  0  2  0  0  0  0  0  0
  162.6160  206.0250  142.5740 N   0  0  0  0  0  0  0  0  0  0  0  0
  162.8840  204.7140  144.6510 C   0  0  0  0  0  2  0  0  0  0  0  0
  163.0030  204.7240  143.1240 C   0  0  0  0  0  2  0  0  0  0  0  0
  161.2080  206.2990  142.9000 C   0  0  0  0  0  2  0  0  0  0  0  0
  162.1520  205.8860  145.1490 N   0  0  0  0  0  0  0  0  0  0  0  0
  162.8300  206.0100  141.1250 C   0  0  0  0  0  3  0  0  0  0  0  0
  163.6840  207.1890  140.6860 C   0  0  0  0  0  1  0  0  0  0  0  0
  161.5410  205.9560  140.3140 C   0  0  0  0  0  1  0  0  0  0  0  0
  161.9050  209.1170  155.2460 C   0  0  0  0  0  2  0  0  0  0  0  0
  161.6670  210.5780  155.5930 C   0  0  0  0  0  2  0  0  0  0  0  0
  160.2170  210.7910  156.0050 C   0  0  0  0  0  2  0  0  0  0  0  0
  158.5640  214.1570  155.5270 C   0  0  2  0  0  3  0  0  0  0  0  0
  157.9260  210.2530  154.7490 F   0  0  0  0  0  0  0  0  0  0  0  0
  158.0970  211.6250  154.7980 C   0  0  2  0  0  0  0  0  0  0  0  0
  157.7160  212.1060  153.5070 O   0  0  0  0  0  0  0  0  0  0  0  0
  159.5730  211.9090  155.1850 C   0  0  1  0  0  3  0  0  0  0  0  0
  156.7850  213.9460  157.2560 C   0  0  0  0  0  1  0  0  0  0  0  0
  158.6590  214.4520  154.0360 C   0  0  0  0  0  2  0  0  0  0  0  0
  157.0150  213.9950  152.3120 C   0  0  0  0  0  1  0  0  0  0  0  0
  158.1950  213.3690  153.0240 C   0  0  2  0  0  0  0  0  0  0  0  0
  159.6910  213.2310  155.9390 C   0  0  0  0  0  2  0  0  0  0  0  0
  157.2060  212.1090  155.7880 O   0  0  0  0  0  0  0  0  0  0  0  0
  157.2110  213.5250  155.8640 C   0  0  2  0  0  3  0  0  0  0  0  0
  160.2730  212.0010  152.0640 C   0  0  0  0  0  1  0  0  0  0  0  0
  159.3060  213.1740  151.9610 C   0  0  0  0  0  0  0  0  0  0  0  0
  159.8460  214.3970  151.2430 C   0  0  0  0  0  2  0  0  0  0  0  0
  158.8990  213.4430  150.5290 C   0  0  0  0  0  2  0  0  0  0  0  0
  1 22  1  0  0  0  0
  2 18  1  0  0  0  0
  3  8  1  6  0  0  0
  3 19  1  0  0  0  0
  5  4  1  0  0  0  0
  6 11  1  0  0  0  0
  7  6  2  0  0  0  0
  7  9  1  0  0  0  0
  9  5  2  0  0  0  0
 10 22  2  0  0  0  0
 10 20  1  0  0  0  0
 11 23  1  0  0  0  0
 11  4  2  0  0  0  0
 12 26  1  0  0  0  0
 13  1  1  0  0  0  0
 14 12  2  0  0  0  0
 16 21  1  0  0  0  0
 17 15  1  0  0  0  0
 17  6  1  0  0  0  0
 18 16  1  0  0  0  0
 19  2  1  0  0  0  0
 20 27  2  0  0  0  0
 21 37  1  6  0  0  0
 22 14  1  0  0  0  0
 23  3  1  0  0  0  0
 24 33  1  6  0  0  0
 24 15  1  0  0  0  0
 24 13  1  0  0  0  0
 25 21  1  0  0  0  0
 26 25  1  0  0  0  0
 27 12  1  0  0  0  0
 28 33  1  0  0  0  0
 29 32  1  0  0  0  0
 29 31  1  0  0  0  0
 30 33  1  0  0  0  0
 31 30  1  0  0  0  0
 32 28  1  0  0  0  0
 34 29  1  0  0  0  0
 35 34  1  0  0  0  0
 36 34  1  0  0  0  0
 37 38  1  0  0  0  0
 38 39  1  0  0  0  0
 40 46  1  6  0  0  0
 40 51  1  0  0  0  0
 40 49  1  0  0  0  0
 42 41  1  6  0  0  0
 42 44  1  0  0  0  0
 42 50  1  0  0  0  0
 43 42  1  0  0  0  0
 44 49  1  0  0  0  0
 44 39  1  1  0  0  0
 48 47  1  6  0  0  0
 48 43  1  0  0  0  0
 48 46  1  0  0  0  0
 50 51  1  0  0  0  0
 51 45  1  1  0  0  0
 53 52  1  0  0  0  0
 53 48  1  0  0  0  0
 54 53  1  0  0  0  0
 55 54  1  0  0  0  0
 55 53  1  0  0  0  0
M  END
>  <MODEL>
3

>  <REMARK>
 VINA RESULT:       5.9      1.570      2.800
  Name = 
  7 active torsions:
  status: ('A' for Active; 'I' for Inactive)
    1  A    between atoms: C_7  and  C_20
    2  A    between atoms: C_7  and  C_22
    3  A    between atoms: C_8  and  C_22
    4  A    between atoms: C_8  and  C_43
    5  A    between atoms: C_10  and  N_32
    6  A    between atoms: C_12  and  C_38
    7  A    between atoms: C_49  and  N_52
                            x       y       z     vdW  Elec       q    Type
                         _______ _______ _______ _____ _____    ______ ____

>  <TORSDO>
F 7

$$$$
