=
 OpenBabel11052422473D

 28 32  0  0  1  0  0  0  0  0999 V2000
  161.5030  209.5600  153.8750 N   0  0  0  0  0  0  0  0  0  0  0  0
  161.5750  210.1260  152.5310 C   0  0  1  0  0  3  0  0  0  0  0  0
  162.2680  209.1820  151.5260 C   0  0  1  0  0  3  0  0  0  0  0  0
  158.4660  206.6130  156.0940 O   0  0  0  0  0  0  0  0  0  0  0  0
  161.6250  207.2850  149.9100 C   0  0  2  0  0  3  0  0  0  0  0  0
  162.0420  206.7850  152.3240 C   0  0  1  0  0  3  0  0  0  0  0  0
  161.8190  209.6320  149.0740 C   0  0  0  0  0  0  0  0  0  0  0  0
  161.5240  207.8460  151.3400 C   0  0  1  0  0  3  0  0  0  0  0  0
  161.4960  205.1220  150.5630 C   0  0  0  0  0  2  0  0  0  0  0  0
  161.1310  208.3100  148.8970 C   0  0  0  0  0  2  0  0  0  0  0  0
  160.4300  208.1220  155.5270 C   0  0  0  0  0  0  0  0  0  0  0  0
  161.9260  207.1480  153.8090 C   0  0  0  0  0  2  0  0  0  0  0  0
  160.8510  206.1160  149.8030 O   0  0  0  0  0  0  0  0  0  0  0  0
  161.9280  209.9590  156.2270 C   0  0  0  0  0  3  0  0  0  0  0  0
  159.4230  207.3480  155.8190 C   0  0  0  0  0  0  0  0  0  0  0  0
  161.3050  208.6510  156.6190 C   0  0  0  0  0  2  0  0  0  0  0  0
  161.6670  210.5000  148.2310 O   0  0  0  0  0  0  0  0  0  0  0  0
  162.7270  209.8900  150.2420 C   0  0  0  0  0  2  0  0  0  0  0  0
  161.3750  205.4410  152.0540 C   0  0  0  0  0  2  0  0  0  0  0  0
  162.0260  210.3530  154.9540 C   0  0  0  0  0  3  0  0  0  0  0  0
  160.8990  208.2390  154.1100 C   0  0  2  0  0  3  0  0  0  0  0  0
  160.2450  210.7930  152.1250 C   0  0  1  0  0  3  0  0  0  0  0  0
  158.8610  212.7700  152.3920 C   0  0  1  0  0  3  0  0  0  0  0  0
  159.1310  210.4420  153.0950 C   0  0  0  0  0  2  0  0  0  0  0  0
  160.7530  212.7960  150.6690 C   0  0  0  0  0  1  0  0  0  0  0  0
  160.2700  212.3080  152.0290 C   0  0  2  0  0  3  0  0  0  0  0  0
  157.9170  212.8160  151.1950 C   0  0  0  0  0  1  0  0  0  0  0  0
  158.3490  211.7220  153.3600 C   0  0  0  0  0  2  0  0  0  0  0  0
  1 21  1  0  0  0  0
  1 20  1  0  0  0  0
  2  1  1  1  0  0  0
  3 18  1  6  0  0  0
  3  2  1  0  0  0  0
  5 10  1  6  0  0  0
  5  8  1  0  0  0  0
  6 19  1  1  0  0  0
  6 12  1  0  0  0  0
  7 18  1  0  0  0  0
  8  3  1  0  0  0  0
  8  6  1  0  0  0  0
  9 19  1  0  0  0  0
 10  7  1  0  0  0  0
 11 15  2  0  0  0  0
 11 16  1  0  0  0  0
 12 21  1  0  0  0  0
 13  5  1  0  0  0  0
 13  9  1  0  0  0  0
 14 16  1  0  0  0  0
 15  4  2  0  0  0  0
 17  7  2  0  0  0  0
 20 14  2  0  0  0  0
 21 11  1  0  0  0  0
 22  2  1  0  0  0  0
 22 24  1  0  0  0  0
 23 28  1  0  0  0  0
 24 28  1  0  0  0  0
 25 26  1  0  0  0  0
 26 22  1  0  0  0  0
 26 23  1  0  0  0  0
 27 23  1  0  0  0  0
M  END
>  <MODEL>
1

>  <REMARK>
 VINA RESULT:      -4.9      0.000      0.000
  Name = 
  1 active torsions:
  status: ('A' for Active; 'I' for Inactive)
    1  A    between atoms: C_2  and  C_3
                            x       y       z     vdW  Elec       q    Type
                         _______ _______ _______ _____ _____    ______ ____

>  <TORSDO>
F 1

$$$$
=
 OpenBabel11052422473D

 28 32  0  0  1  0  0  0  0  0999 V2000
  159.5470  212.4800  154.8800 N   0  0  0  0  0  0  0  0  0  0  0  0
  160.2140  212.1240  153.6290 C   0  0  1  0  0  3  0  0  0  0  0  0
  161.1240  210.8860  153.7740 C   0  0  1  0  0  3  0  0  0  0  0  0
  155.5390  211.0430  157.0480 O   0  0  0  0  0  0  0  0  0  0  0  0
  160.9400  208.3290  153.5620 C   0  0  2  0  0  3  0  0  0  0  0  0
  160.3040  209.4560  155.7010 C   0  0  1  0  0  3  0  0  0  0  0  0
  161.7390  209.6910  151.6270 C   0  0  0  0  0  0  0  0  0  0  0  0
  160.3530  209.6140  154.1730 C   0  0  1  0  0  3  0  0  0  0  0  0
  160.2950  207.0080  155.2840 C   0  0  0  0  0  2  0  0  0  0  0  0
  161.0170  208.4440  152.0450 C   0  0  0  0  0  2  0  0  0  0  0  0
  157.7400  212.1850  156.4890 C   0  0  0  0  0  0  0  0  0  0  0  0
  159.6580  210.6170  156.4660 C   0  0  0  0  0  2  0  0  0  0  0  0
  160.1310  207.2290  153.9030 O   0  0  0  0  0  0  0  0  0  0  0  0
  159.0560  214.2750  156.4300 C   0  0  0  0  0  3  0  0  0  0  0  0
  156.6110  211.6000  156.7760 C   0  0  0  0  0  0  0  0  0  0  0  0
  158.1700  213.3910  157.2610 C   0  0  0  0  0  2  0  0  0  0  0  0
  162.0410  209.8400  150.4550 O   0  0  0  0  0  0  0  0  0  0  0  0
  162.1360  210.7380  152.6290 C   0  0  0  0  0  2  0  0  0  0  0  0
  159.6350  208.1370  156.0770 C   0  0  0  0  0  2  0  0  0  0  0  0
  159.6960  213.8320  155.3460 C   0  0  0  0  0  3  0  0  0  0  0  0
  158.7400  211.4940  155.6150 C   0  0  2  0  0  3  0  0  0  0  0  0
  159.2460  212.1960  152.4310 C   0  0  1  0  0  3  0  0  0  0  0  0
  158.0780  213.6960  150.9190 C   0  0  1  0  0  3  0  0  0  0  0  0
  157.8010  212.2710  152.8900 C   0  0  0  0  0  2  0  0  0  0  0  0
  160.5080  213.0690  150.4220 C   0  0  0  0  0  1  0  0  0  0  0  0
  159.4580  213.3640  151.4840 C   0  0  2  0  0  3  0  0  0  0  0  0
  157.7280  212.8880  149.6750 C   0  0  0  0  0  1  0  0  0  0  0  0
  157.1100  213.3140  152.0210 C   0  0  0  0  0  2  0  0  0  0  0  0
  1 20  1  0  0  0  0
  1 21  1  0  0  0  0
  2  3  1  0  0  0  0
  2  1  1  1  0  0  0
  3 18  1  6  0  0  0
  3  8  1  0  0  0  0
  5 10  1  6  0  0  0
  5 13  1  0  0  0  0
  5  8  1  0  0  0  0
  6 19  1  6  0  0  0
  6 12  1  0  0  0  0
  7 10  1  0  0  0  0
  7 18  1  0  0  0  0
  8  6  1  0  0  0  0
  9 19  1  0  0  0  0
 11 15  2  0  0  0  0
 11 16  1  0  0  0  0
 13  9  1  0  0  0  0
 14 16  1  0  0  0  0
 15  4  2  0  0  0  0
 17  7  2  0  0  0  0
 20 14  2  0  0  0  0
 21 12  1  0  0  0  0
 21 11  1  0  0  0  0
 22 24  1  0  0  0  0
 22  2  1  0  0  0  0
 23 26  1  0  0  0  0
 23 28  1  0  0  0  0
 25 26  1  0  0  0  0
 26 22  1  0  0  0  0
 27 23  1  0  0  0  0
 28 24  1  0  0  0  0
M  END
>  <MODEL>
2

>  <REMARK>
 VINA RESULT:      -4.1      2.375      3.788
  Name = 
  1 active torsions:
  status: ('A' for Active; 'I' for Inactive)
    1  A    between atoms: C_2  and  C_3
                            x       y       z     vdW  Elec       q    Type
                         _______ _______ _______ _____ _____    ______ ____

>  <TORSDO>
F 1

$$$$
=
 OpenBabel11052422473D

 28 32  0  0  1  0  0  0  0  0999 V2000
  162.1040  211.2860  149.3360 N   0  0  0  0  0  0  0  0  0  0  0  0
  162.1430  210.3340  150.4430 C   0  0  1  0  0  3  0  0  0  0  0  0
  161.6520  210.9490  151.7700 C   0  0  1  0  0  3  0  0  0  0  0  0
  158.7240  212.6900  146.2640 O   0  0  0  0  0  0  0  0  0  0  0  0
  159.4400  211.2430  153.0520 C   0  0  2  0  0  3  0  0  0  0  0  0
  160.0860  212.8820  151.2780 C   0  0  1  0  0  3  0  0  0  0  0  0
  160.9380  209.3110  153.5670 C   0  0  0  0  0  0  0  0  0  0  0  0
  160.1840  211.4120  151.7150 C   0  0  1  0  0  3  0  0  0  0  0  0
  158.0560  213.0000  152.7030 C   0  0  0  0  0  2  0  0  0  0  0  0
  159.5190  209.7990  153.5300 C   0  0  0  0  0  2  0  0  0  0  0  0
  160.8940  212.4440  147.5640 C   0  0  0  0  0  0  0  0  0  0  0  0
  160.7000  213.2090  149.9120 C   0  0  0  0  0  2  0  0  0  0  0  0
  158.0900  211.6060  152.8930 O   0  0  0  0  0  0  0  0  0  0  0  0
  163.3580  212.2610  147.5060 C   0  0  0  0  0  3  0  0  0  0  0  0
  159.7810  212.5700  146.8960 C   0  0  0  0  0  0  0  0  0  0  0  0
  162.1600  213.0240  147.0180 C   0  0  0  0  0  2  0  0  0  0  0  0
  161.1860  208.2410  154.0950 O   0  0  0  0  0  0  0  0  0  0  0  0
  162.0620  210.1350  153.0070 C   0  0  0  0  0  2  0  0  0  0  0  0
  158.6380  213.3570  151.3350 C   0  0  0  0  0  2  0  0  0  0  0  0
  163.3160  211.4780  148.5870 C   0  0  0  0  0  3  0  0  0  0  0  0
  160.8630  211.9990  148.9930 C   0  0  2  0  0  3  0  0  0  0  0  0
  161.6030  208.9520  150.0220 C   0  0  1  0  0  3  0  0  0  0  0  0
  162.2230  206.7600  149.1790 C   0  0  1  0  0  3  0  0  0  0  0  0
  161.2600  208.9190  148.5430 C   0  0  0  0  0  2  0  0  0  0  0  0
  162.4030  207.2280  151.6880 C   0  0  0  0  0  1  0  0  0  0  0  0
  162.5330  207.7780  150.2740 C   0  0  2  0  0  3  0  0  0  0  0  0
  161.0910  205.8070  149.5490 C   0  0  0  0  0  1  0  0  0  0  0  0
  161.7730  207.5940  147.9960 C   0  0  0  0  0  2  0  0  0  0  0  0
  2  1  1  6  0  0  0
  2  3  1  0  0  0  0
  3 18  1  1  0  0  0
  4 15  2  0  0  0  0
  5 10  1  6  0  0  0
  6 12  1  6  0  0  0
  6 19  1  0  0  0  0
  6  8  1  0  0  0  0
  7 17  2  0  0  0  0
  8  3  1  0  0  0  0
  8  5  1  0  0  0  0
  9 13  1  0  0  0  0
 10  7  1  0  0  0  0
 11 21  1  0  0  0  0
 13  5  1  0  0  0  0
 14 20  2  0  0  0  0
 15 11  2  0  0  0  0
 16 14  1  0  0  0  0
 16 11  1  0  0  0  0
 18  7  1  0  0  0  0
 19  9  1  0  0  0  0
 20  1  1  0  0  0  0
 21  1  1  0  0  0  0
 21 12  1  0  0  0  0
 22 26  1  0  0  0  0
 22  2  1  0  0  0  0
 23 27  1  0  0  0  0
 23 26  1  0  0  0  0
 24 22  1  0  0  0  0
 26 25  1  0  0  0  0
 28 24  1  0  0  0  0
 28 23  1  0  0  0  0
M  END
>  <MODEL>
3

>  <REMARK>
 VINA RESULT:      -3.2      2.459      6.929
  Name = 
  1 active torsions:
  status: ('A' for Active; 'I' for Inactive)
    1  A    between atoms: C_2  and  C_3
                            x       y       z     vdW  Elec       q    Type
                         _______ _______ _______ _____ _____    ______ ____

>  <TORSDO>
F 1

$$$$
=
 OpenBabel11052422473D

 28 32  0  0  1  0  0  0  0  0999 V2000
  161.5230  212.9490  148.1130 N   0  0  0  0  0  0  0  0  0  0  0  0
  161.1910  212.6060  149.4930 C   0  0  1  0  0  3  0  0  0  0  0  0
  160.0870  213.5110  150.0790 C   0  0  1  0  0  3  0  0  0  0  0  0
  159.7030  211.7710  143.8550 O   0  0  0  0  0  0  0  0  0  0  0  0
  157.5190  213.5580  150.2360 C   0  0  2  0  0  3  0  0  0  0  0  0
  158.6650  214.4380  148.1960 C   0  0  1  0  0  3  0  0  0  0  0  0
  158.8720  212.6190  152.1150 C   0  0  0  0  0  0  0  0  0  0  0  0
  158.7500  213.3990  149.3250 C   0  0  1  0  0  3  0  0  0  0  0  0
  156.2180  214.4530  148.6150 C   0  0  0  0  0  2  0  0  0  0  0  0
  157.5660  212.5510  151.3790 C   0  0  0  0  0  2  0  0  0  0  0  0
  161.0840  212.8090  145.7180 C   0  0  0  0  0  0  0  0  0  0  0  0
  159.7730  214.3580  147.1380 C   0  0  0  0  0  2  0  0  0  0  0  0
  156.3450  213.3560  149.4880 O   0  0  0  0  0  0  0  0  0  0  0  0
  163.3190  213.4420  146.5630 C   0  0  0  0  0  3  0  0  0  0  0  0
  160.3760  212.2770  144.7620 C   0  0  0  0  0  0  0  0  0  0  0  0
  162.3740  213.4960  145.3970 C   0  0  0  0  0  2  0  0  0  0  0  0
  158.9970  212.0060  153.1620 O   0  0  0  0  0  0  0  0  0  0  0  0
  160.0100  213.4610  151.6130 C   0  0  0  0  0  2  0  0  0  0  0  0
  157.2930  214.3880  147.5300 C   0  0  0  0  0  2  0  0  0  0  0  0
  162.9050  213.2050  147.8100 C   0  0  0  0  0  3  0  0  0  0  0  0
  160.4820  213.0060  147.0750 C   0  0  2  0  0  3  0  0  0  0  0  0
  161.0790  211.0800  149.6870 C   0  0  1  0  0  3  0  0  0  0  0  0
  162.3280  209.0470  150.1400 C   0  0  1  0  0  3  0  0  0  0  0  0
  161.2400  210.3420  148.3700 C   0  0  0  0  0  2  0  0  0  0  0  0
  161.6060  210.5290  152.0970 C   0  0  0  0  0  1  0  0  0  0  0  0
  162.0780  210.4640  150.6510 C   0  0  2  0  0  3  0  0  0  0  0  0
  161.3330  208.0280  150.6860 C   0  0  0  0  0  1  0  0  0  0  0  0
  162.1360  209.1400  148.6390 C   0  0  0  0  0  2  0  0  0  0  0  0
  2  1  1  6  0  0  0
  2 22  1  0  0  0  0
  2  3  1  0  0  0  0
  3 18  1  1  0  0  0
  4 15  2  0  0  0  0
  5 10  1  1  0  0  0
  6 12  1  6  0  0  0
  6  8  1  0  0  0  0
  7 17  2  0  0  0  0
  8  3  1  0  0  0  0
  8  5  1  0  0  0  0
  9 13  1  0  0  0  0
 10  7  1  0  0  0  0
 11 21  1  0  0  0  0
 13  5  1  0  0  0  0
 14 20  2  0  0  0  0
 15 11  2  0  0  0  0
 16 11  1  0  0  0  0
 16 14  1  0  0  0  0
 18  7  1  0  0  0  0
 19  6  1  0  0  0  0
 19  9  1  0  0  0  0
 20  1  1  0  0  0  0
 21 12  1  0  0  0  0
 21  1  1  0  0  0  0
 22 26  1  0  0  0  0
 23 26  1  0  0  0  0
 23 27  1  0  0  0  0
 24 28  1  0  0  0  0
 24 22  1  0  0  0  0
 26 25  1  0  0  0  0
 28 23  1  0  0  0  0
M  END
>  <MODEL>
4

>  <REMARK>
 VINA RESULT:      -2.5      3.503      8.005
  Name = 
  1 active torsions:
  status: ('A' for Active; 'I' for Inactive)
    1  A    between atoms: C_2  and  C_3
                            x       y       z     vdW  Elec       q    Type
                         _______ _______ _______ _____ _____    ______ ____

>  <TORSDO>
F 1

$$$$
=
 OpenBabel11052422473D

 28 32  0  0  1  0  0  0  0  0999 V2000
  159.6590  213.4120  151.4760 N   0  0  0  0  0  0  0  0  0  0  0  0
  159.7800  212.9020  152.8400 C   0  0  1  0  0  3  0  0  0  0  0  0
  158.7110  213.4870  153.7880 C   0  0  1  0  0  3  0  0  0  0  0  0
  157.0540  212.1660  147.6690 O   0  0  0  0  0  0  0  0  0  0  0  0
  156.3210  212.9350  154.5650 C   0  0  2  0  0  3  0  0  0  0  0  0
  156.6850  214.2010  152.4400 C   0  0  1  0  0  3  0  0  0  0  0  0
  158.2820  212.1940  155.9240 C   0  0  0  0  0  0  0  0  0  0  0  0
  157.2730  213.1280  153.3710 C   0  0  1  0  0  3  0  0  0  0  0  0
  154.4850  213.6270  153.4370 C   0  0  0  0  0  2  0  0  0  0  0  0
  156.8700  211.8850  155.5220 C   0  0  0  0  0  2  0  0  0  0  0  0
  158.6410  213.3520  149.2620 C   0  0  0  0  0  0  0  0  0  0  0  0
  157.4670  214.4530  151.1450 C   0  0  0  0  0  2  0  0  0  0  0  0
  155.0560  212.5270  154.1040 O   0  0  0  0  0  0  0  0  0  0  0  0
  160.8440  214.4130  149.6150 C   0  0  0  0  0  3  0  0  0  0  0  0
  157.8270  212.7440  148.4440 C   0  0  0  0  0  0  0  0  0  0  0  0
  159.6330  214.3360  148.7300 C   0  0  0  0  0  2  0  0  0  0  0  0
  158.8010  211.5510  156.8210 O   0  0  0  0  0  0  0  0  0  0  0  0
  159.0540  213.3070  155.2750 C   0  0  0  0  0  2  0  0  0  0  0  0
  155.2260  213.8880  152.1250 C   0  0  0  0  0  2  0  0  0  0  0  0
  160.8310  213.9980  150.8840 C   0  0  0  0  0  3  0  0  0  0  0  0
  158.3910  213.3070  150.7380 C   0  0  2  0  0  3  0  0  0  0  0  0
  160.0330  211.3810  152.8560 C   0  0  1  0  0  3  0  0  0  0  0  0
  161.7430  209.6590  152.7650 C   0  0  1  0  0  3  0  0  0  0  0  0
  160.0230  210.8030  151.4520 C   0  0  0  0  0  2  0  0  0  0  0  0
  161.2190  210.7790  155.0050 C   0  0  0  0  0  1  0  0  0  0  0  0
  161.3360  210.9370  153.4950 C   0  0  2  0  0  3  0  0  0  0  0  0
  161.1370  208.4000  153.3770 C   0  0  0  0  0  1  0  0  0  0  0  0
  161.1850  209.8220  151.3650 C   0  0  0  0  0  2  0  0  0  0  0  0
  2  1  1  6  0  0  0
  2 22  1  0  0  0  0
  2  3  1  0  0  0  0
  3 18  1  1  0  0  0
  4 15  2  0  0  0  0
  5 10  1  1  0  0  0
  6 12  1  6  0  0  0
  6  8  1  0  0  0  0
  7 17  2  0  0  0  0
  8  3  1  0  0  0  0
  8  5  1  0  0  0  0
  9 13  1  0  0  0  0
 10  7  1  0  0  0  0
 11 21  1  0  0  0  0
 13  5  1  0  0  0  0
 14 20  2  0  0  0  0
 15 11  2  0  0  0  0
 16 11  1  0  0  0  0
 16 14  1  0  0  0  0
 18  7  1  0  0  0  0
 19  6  1  0  0  0  0
 19  9  1  0  0  0  0
 20  1  1  0  0  0  0
 21 12  1  0  0  0  0
 21  1  1  0  0  0  0
 22 26  1  0  0  0  0
 23 27  1  0  0  0  0
 23 26  1  0  0  0  0
 24 22  1  0  0  0  0
 26 25  1  0  0  0  0
 28 24  1  0  0  0  0
 28 23  1  0  0  0  0
M  END
>  <MODEL>
5

>  <REMARK>
 VINA RESULT:      -2.0      2.891      7.491
  Name = 
  1 active torsions:
  status: ('A' for Active; 'I' for Inactive)
    1  A    between atoms: C_2  and  C_3
                            x       y       z     vdW  Elec       q    Type
                         _______ _______ _______ _____ _____    ______ ____

>  <TORSDO>
F 1

$$$$
