=
 OpenBabel11062410563D

 32 34  0  0  1  0  0  0  0  0999 V2000
  162.3420  209.8000  151.2560 C   0  0  2  0  0  3  0  0  0  0  0  0
  162.0120  210.8320  149.7870 S   0  0  0  0  0  0  0  0  0  0  0  0
  162.4750  208.4360  150.9240 O   0  0  0  0  0  0  0  0  0  0  0  0
  161.7420  208.2270  149.7490 C   0  0  1  0  0  3  0  0  0  0  0  0
  162.0370  209.3450  148.7850 C   0  0  0  0  0  2  0  0  0  0  0  0
  161.9460  210.3510  153.7090 C   0  0  0  0  0  2  0  0  0  0  0  0
  160.1660  211.8780  154.2250 O   0  0  0  0  0  0  0  0  0  0  0  0
  159.4010  211.4470  153.1240 C   0  0  2  0  0  3  0  0  0  0  0  0
  161.3030  210.0280  152.3560 C   0  0  1  0  0  3  0  0  0  0  0  0
  160.3190  211.1230  151.9430 C   0  0  0  0  0  2  0  0  0  0  0  0
  160.8560  210.7480  154.7020 C   0  0  2  0  0  3  0  0  0  0  0  0
  157.4440  212.8920  153.6460 O   0  0  0  0  0  1  0  0  0  0  0  0
  158.4590  213.0260  151.5980 O   0  0  0  0  0  0  0  0  0  0  0  0
  158.4190  212.4990  152.7410 C   0  0  0  0  0  0  0  0  0  0  0  0
  161.4860  211.0540  156.0500 C   0  0  0  0  0  2  0  0  0  0  0  0
  161.9360  209.7770  156.7420 C   0  0  0  0  0  2  0  0  0  0  0  0
  160.8290  209.0880  157.2400 O   0  0  0  0  0  0  0  0  0  0  0  0
  161.0430  207.7620  156.8630 C   0  0  0  0  0  2  0  0  0  0  0  0
  159.9990  207.3490  155.8480 C   0  0  0  0  0  2  0  0  0  0  0  0
  160.6820  206.9120  154.5700 C   0  0  0  0  0  1  0  0  0  0  0  0
  162.1100  206.8820  149.1370 C   0  0  0  0  0  2  0  0  0  0  0  0
  161.4260  203.7920  147.7160 C   0  0  0  0  0  0  0  0  0  0  0  0
  161.1570  205.8170  146.2560 C   0  0  2  0  0  3  0  0  0  0  0  0
  160.8840  206.0460  148.7460 C   0  0  1  0  0  3  0  0  0  0  0  0
  162.0480  203.7690  145.4190 O   0  0  0  0  0  1  0  0  0  0  0  0
  161.8610  202.6170  147.8670 O   0  0  0  0  0  0  0  0  0  0  0  0
  160.3210  206.4260  147.3740 C   0  0  0  0  0  2  0  0  0  0  0  0
  160.6610  206.2420  145.0250 O   0  0  0  0  0  1  0  0  0  0  0  0
  161.1290  204.6050  148.8680 N   0  0  0  0  0  0  0  0  0  0  0  0
  161.1280  204.2940  146.3280 C   0  0  1  0  0  3  0  0  0  0  0  0
  161.2050  204.0390  150.2100 C   0  0  0  0  0  2  0  0  0  0  0  0
  160.4800  204.9330  151.1980 C   0  0  0  0  0  1  0  0  0  0  0  0
  1  2  1  6  0  0  0
  1  9  1  0  0  0  0
  3  1  1  0  0  0  0
  4 21  1  6  0  0  0
  4  3  1  0  0  0  0
  5  4  1  0  0  0  0
  5  2  1  0  0  0  0
  6 11  1  0  0  0  0
  7 11  1  0  0  0  0
  8 14  1  6  0  0  0
  8  7  1  0  0  0  0
  9 10  1  6  0  0  0
  9  6  1  0  0  0  0
 10  8  1  0  0  0  0
 11 15  1  1  0  0  0
 13 14  2  0  0  0  0
 14 12  1  0  0  0  0
 15 16  1  0  0  0  0
 16 17  1  0  0  0  0
 18 17  1  0  0  0  0
 19 18  1  0  0  0  0
 20 19  1  0  0  0  0
 22 26  2  0  0  0  0
 22 29  1  0  0  0  0
 23 28  1  6  0  0  0
 23 30  1  0  0  0  0
 23 27  1  0  0  0  0
 24 29  1  0  0  0  0
 24 21  1  6  0  0  0
 27 24  1  0  0  0  0
 29 31  1  0  0  0  0
 30 25  1  6  0  0  0
 30 22  1  0  0  0  0
 31 32  1  0  0  0  0
M  END
>  <MODEL>
1

>  <REMARK>
 VINA RESULT:      -6.8      0.000      0.000
  Name = 
  10 active torsions:
  status: ('A' for Active; 'I' for Inactive)
    1  A    between atoms: C_1  and  C_20
    2  A    between atoms: C_4  and  C_12
    3  A    between atoms: C_6  and  N_31
    4  A    between atoms: C_9  and  C_28
    5  A    between atoms: C_10  and  C_19
    6  A    between atoms: C_10  and  C_23
    7  A    between atoms: C_15  and  C_26
    8  A    between atoms: C_16  and  C_26
    9  A    between atoms: C_19  and  O_24
   10  A    between atoms: C_20  and  O_24
                            x       y       z     vdW  Elec       q    Type
                         _______ _______ _______ _____ _____    ______ ____

>  <TORSDO>
F 10

$$$$
=
 OpenBabel11062410563D

 32 34  0  0  1  0  0  0  0  0999 V2000
  161.1070  208.1780  149.4980 C   0  0  2  0  0  3  0  0  0  0  0  0
  161.9030  209.4940  148.5160 S   0  0  0  0  0  0  0  0  0  0  0  0
  161.1770  208.4360  150.8820 O   0  0  0  0  0  0  0  0  0  0  0  0
  162.3020  209.2430  151.0920 C   0  0  1  0  0  3  0  0  0  0  0  0
  162.3280  210.3260  150.0470 C   0  0  0  0  0  2  0  0  0  0  0  0
  160.7740  205.6600  149.6850 C   0  0  0  0  0  2  0  0  0  0  0  0
  161.2090  204.3410  147.7270 O   0  0  0  0  0  0  0  0  0  0  0  0
  162.2150  205.2220  147.2870 C   0  0  2  0  0  3  0  0  0  0  0  0
  161.6520  206.7930  149.1410 C   0  0  1  0  0  3  0  0  0  0  0  0
  161.8340  206.6650  147.6280 C   0  0  0  0  0  2  0  0  0  0  0  0
  161.2730  204.3270  149.1320 C   0  0  2  0  0  3  0  0  0  0  0  0
  161.6020  205.7700  144.9390 O   0  0  0  0  0  0  0  0  0  0  0  0
  163.3160  204.3140  145.3700 O   0  0  0  0  0  1  0  0  0  0  0  0
  162.4180  205.0750  145.8180 C   0  0  0  0  0  0  0  0  0  0  0  0
  160.4160  203.2000  149.6810 C   0  0  0  0  0  2  0  0  0  0  0  0
  161.1180  202.4930  150.8300 C   0  0  0  0  0  2  0  0  0  0  0  0
  161.7670  203.4270  151.6400 O   0  0  0  0  0  0  0  0  0  0  0  0
  160.8160  203.7810  152.5970 C   0  0  0  0  0  2  0  0  0  0  0  0
  161.1680  205.1300  153.1870 C   0  0  0  0  0  2  0  0  0  0  0  0
  162.4560  205.6310  152.5700 C   0  0  0  0  0  1  0  0  0  0  0  0
  162.2580  209.8490  152.4880 C   0  0  0  0  0  2  0  0  0  0  0  0
  160.4950  211.3160  155.0910 C   0  0  0  0  0  0  0  0  0  0  0  0
  161.4660  209.0370  155.4970 C   0  0  2  0  0  3  0  0  0  0  0  0
  160.8790  209.7280  153.1510 C   0  0  1  0  0  3  0  0  0  0  0  0
  161.4450  210.7180  157.1900 O   0  0  0  0  0  1  0  0  0  0  0  0
  160.3010  212.4970  155.4920 O   0  0  0  0  0  0  0  0  0  0  0  0
  160.8180  208.6040  154.1890 C   0  0  0  0  0  2  0  0  0  0  0  0
  161.4570  207.9680  156.3920 O   0  0  0  0  0  1  0  0  0  0  0  0
  160.4030  211.0080  153.6870 N   0  0  0  0  0  0  0  0  0  0  0  0
  160.7230  210.2240  156.1020 C   0  0  1  0  0  3  0  0  0  0  0  0
  159.9610  212.0210  152.7350 C   0  0  0  0  0  2  0  0  0  0  0  0
  158.4710  211.8900  152.4840 C   0  0  0  0  0  1  0  0  0  0  0  0
  1  2  1  6  0  0  0
  1  3  1  0  0  0  0
  2  5  1  0  0  0  0
  3  4  1  0  0  0  0
  4 21  1  1  0  0  0
  5  4  1  0  0  0  0
  7 11  1  0  0  0  0
  8 14  1  6  0  0  0
  8 10  1  0  0  0  0
  8  7  1  0  0  0  0
  9 10  1  6  0  0  0
  9  1  1  0  0  0  0
  9  6  1  0  0  0  0
 11 15  1  1  0  0  0
 11  6  1  0  0  0  0
 12 14  2  0  0  0  0
 13 14  1  0  0  0  0
 15 16  1  0  0  0  0
 16 17  1  0  0  0  0
 17 18  1  0  0  0  0
 18 19  1  0  0  0  0
 20 19  1  0  0  0  0
 22 26  2  0  0  0  0
 22 30  1  0  0  0  0
 23 30  1  0  0  0  0
 23 28  1  1  0  0  0
 24 21  1  1  0  0  0
 24 29  1  0  0  0  0
 24 27  1  0  0  0  0
 27 23  1  0  0  0  0
 29 22  1  0  0  0  0
 30 25  1  1  0  0  0
 31 29  1  0  0  0  0
 32 31  1  0  0  0  0
M  END
>  <MODEL>
2

>  <REMARK>
 VINA RESULT:      -6.8      2.171      8.288
  Name = 
  10 active torsions:
  status: ('A' for Active; 'I' for Inactive)
    1  A    between atoms: C_1  and  C_20
    2  A    between atoms: C_4  and  C_12
    3  A    between atoms: C_6  and  N_31
    4  A    between atoms: C_9  and  C_28
    5  A    between atoms: C_10  and  C_19
    6  A    between atoms: C_10  and  C_23
    7  A    between atoms: C_15  and  C_26
    8  A    between atoms: C_16  and  C_26
    9  A    between atoms: C_19  and  O_24
   10  A    between atoms: C_20  and  O_24
                            x       y       z     vdW  Elec       q    Type
                         _______ _______ _______ _____ _____    ______ ____

>  <TORSDO>
F 10

$$$$
=
 OpenBabel11062410563D

 32 34  0  0  1  0  0  0  0  0999 V2000
  161.1300  208.0550  149.6390 C   0  0  2  0  0  3  0  0  0  0  0  0
  161.9410  209.3880  148.6930 S   0  0  0  0  0  0  0  0  0  0  0  0
  161.1890  208.2840  151.0290 O   0  0  0  0  0  0  0  0  0  0  0  0
  162.3150  209.0810  151.2660 C   0  0  1  0  0  3  0  0  0  0  0  0
  162.3560  210.1850  150.2450 C   0  0  0  0  0  2  0  0  0  0  0  0
  160.9680  205.5420  150.0120 C   0  0  0  0  0  2  0  0  0  0  0  0
  161.1050  204.1280  148.0770 O   0  0  0  0  0  0  0  0  0  0  0  0
  161.9660  205.0230  147.4140 C   0  0  2  0  0  3  0  0  0  0  0  0
  161.6710  206.6760  149.2580 C   0  0  1  0  0  3  0  0  0  0  0  0
  161.5790  206.4660  147.7460 C   0  0  0  0  0  2  0  0  0  0  0  0
  161.4260  204.2010  149.4450 C   0  0  2  0  0  3  0  0  0  0  0  0
  162.6250  205.6180  145.0890 O   0  0  0  0  0  0  0  0  0  0  0  0
  161.1890  203.8740  145.4670 O   0  0  0  0  0  1  0  0  0  0  0  0
  161.9030  204.7970  145.9420 C   0  0  0  0  0  0  0  0  0  0  0  0
  160.7440  203.0730  150.2000 C   0  0  0  0  0  2  0  0  0  0  0  0
  160.1620  202.0490  149.2380 C   0  0  0  0  0  2  0  0  0  0  0  0
  160.6860  200.7840  149.5110 O   0  0  0  0  0  0  0  0  0  0  0  0
  161.6200  200.5660  148.4990 C   0  0  0  0  0  2  0  0  0  0  0  0
  160.9630  200.7730  147.1500 C   0  0  0  0  0  2  0  0  0  0  0  0
  161.3160  199.6200  146.2350 C   0  0  0  0  0  1  0  0  0  0  0  0
  162.2610  209.6570  152.6750 C   0  0  0  0  0  2  0  0  0  0  0  0
  160.4010  211.3120  155.0920 C   0  0  0  0  0  0  0  0  0  0  0  0
  161.3860  209.0890  155.7170 C   0  0  2  0  0  3  0  0  0  0  0  0
  160.8640  209.5720  153.3050 C   0  0  1  0  0  3  0  0  0  0  0  0
  161.2930  210.9050  157.2610 O   0  0  0  0  0  1  0  0  0  0  0  0
  160.1810  212.5190  155.3850 O   0  0  0  0  0  0  0  0  0  0  0  0
  160.7840  208.5390  154.4310 C   0  0  0  0  0  2  0  0  0  0  0  0
  161.3620  208.0980  156.6980 O   0  0  0  0  0  1  0  0  0  0  0  0
  160.3560  210.8850  153.7160 N   0  0  0  0  0  0  0  0  0  0  0  0
  160.6100  210.3110  156.1960 C   0  0  1  0  0  3  0  0  0  0  0  0
  159.9320  211.8090  152.6700 C   0  0  0  0  0  2  0  0  0  0  0  0
  158.4170  211.8640  152.6020 C   0  0  0  0  0  1  0  0  0  0  0  0
  1  2  1  6  0  0  0
  1  3  1  0  0  0  0
  2  5  1  0  0  0  0
  3  4  1  0  0  0  0
  4 21  1  1  0  0  0
  5  4  1  0  0  0  0
  7 11  1  0  0  0  0
  8 14  1  6  0  0  0
  8 10  1  0  0  0  0
  8  7  1  0  0  0  0
  9 10  1  6  0  0  0
  9  1  1  0  0  0  0
  9  6  1  0  0  0  0
 11  6  1  0  0  0  0
 11 15  1  1  0  0  0
 12 14  2  0  0  0  0
 13 14  1  0  0  0  0
 16 17  1  0  0  0  0
 16 15  1  0  0  0  0
 18 17  1  0  0  0  0
 19 18  1  0  0  0  0
 20 19  1  0  0  0  0
 22 26  2  0  0  0  0
 22 30  1  0  0  0  0
 23 30  1  0  0  0  0
 23 28  1  1  0  0  0
 24 21  1  1  0  0  0
 24 29  1  0  0  0  0
 24 27  1  0  0  0  0
 27 23  1  0  0  0  0
 29 22  1  0  0  0  0
 30 25  1  1  0  0  0
 31 29  1  0  0  0  0
 32 31  1  0  0  0  0
M  END
>  <MODEL>
3

>  <REMARK>
 VINA RESULT:      -6.8      2.217      9.028
  Name = 
  10 active torsions:
  status: ('A' for Active; 'I' for Inactive)
    1  A    between atoms: C_1  and  C_20
    2  A    between atoms: C_4  and  C_12
    3  A    between atoms: C_6  and  N_31
    4  A    between atoms: C_9  and  C_28
    5  A    between atoms: C_10  and  C_19
    6  A    between atoms: C_10  and  C_23
    7  A    between atoms: C_15  and  C_26
    8  A    between atoms: C_16  and  C_26
    9  A    between atoms: C_19  and  O_24
   10  A    between atoms: C_20  and  O_24
                            x       y       z     vdW  Elec       q    Type
                         _______ _______ _______ _____ _____    ______ ____

>  <TORSDO>
F 10

$$$$
=
 OpenBabel11062410563D

 32 34  0  0  1  0  0  0  0  0999 V2000
  161.7590  207.2550  151.6370 C   0  0  2  0  0  3  0  0  0  0  0  0
  162.3180  206.1560  152.9830 S   0  0  0  0  0  0  0  0  0  0  0  0
  161.0100  208.3460  152.1230 O   0  0  0  0  0  0  0  0  0  0  0  0
  160.4330  207.9400  153.3330 C   0  0  1  0  0  3  0  0  0  0  0  0
  161.4710  207.2210  154.1510 C   0  0  0  0  0  2  0  0  0  0  0  0
  161.4840  206.8650  149.1370 C   0  0  0  0  0  2  0  0  0  0  0  0
  161.2050  204.5990  148.3970 O   0  0  0  0  0  0  0  0  0  0  0  0
  160.5360  204.2340  149.5800 C   0  0  2  0  0  3  0  0  0  0  0  0
  161.0150  206.4840  150.5450 C   0  0  1  0  0  3  0  0  0  0  0  0
  161.1410  204.9780  150.7740 C   0  0  0  0  0  2  0  0  0  0  0  0
  160.8370  205.9280  148.1200 C   0  0  2  0  0  3  0  0  0  0  0  0
  160.1550  201.8980  148.8120 O   0  0  0  0  0  0  0  0  0  0  0  0
  161.1260  202.2950  150.8480 O   0  0  0  0  0  1  0  0  0  0  0  0
  160.6300  202.7620  149.7880 C   0  0  0  0  0  0  0  0  0  0  0  0
  161.2860  206.3120  146.7200 C   0  0  0  0  0  2  0  0  0  0  0  0
  162.1140  205.2020  146.0920 C   0  0  0  0  0  2  0  0  0  0  0  0
  161.7690  205.0500  144.7480 O   0  0  0  0  0  0  0  0  0  0  0  0
  160.6990  204.1550  144.7610 C   0  0  0  0  0  2  0  0  0  0  0  0
  161.1090  202.8850  145.4750 C   0  0  0  0  0  2  0  0  0  0  0  0
  160.1280  201.7800  145.1460 C   0  0  0  0  0  1  0  0  0  0  0  0
  159.9000  209.1500  154.0890 C   0  0  0  0  0  2  0  0  0  0  0  0
  159.9480  212.4530  155.1500 C   0  0  0  0  0  0  0  0  0  0  0  0
  159.0100  211.9890  152.8680 C   0  0  2  0  0  3  0  0  0  0  0  0
  160.7210  210.4220  153.8400 C   0  0  1  0  0  3  0  0  0  0  0  0
  158.0570  213.6300  154.3130 O   0  0  0  0  0  1  0  0  0  0  0  0
  159.8480  213.0400  156.2620 O   0  0  0  0  0  0  0  0  0  0  0  0
  160.2710  211.1820  152.5900 C   0  0  0  0  0  2  0  0  0  0  0  0
  158.5890  212.6080  151.6920 O   0  0  0  0  0  1  0  0  0  0  0  0
  160.7850  211.2860  155.0240 N   0  0  0  0  0  0  0  0  0  0  0  0
  159.2670  213.0400  153.9430 C   0  0  1  0  0  3  0  0  0  0  0  0
  161.6190  210.8520  156.1390 C   0  0  0  0  0  2  0  0  0  0  0  0
  163.0660  210.7390  155.6980 C   0  0  0  0  0  1  0  0  0  0  0  0
  1  3  1  1  0  0  0
  1  2  1  0  0  0  0
  2  5  1  0  0  0  0
  3  4  1  0  0  0  0
  4 21  1  1  0  0  0
  4  5  1  0  0  0  0
  7  8  1  0  0  0  0
  8 14  1  1  0  0  0
  8 10  1  0  0  0  0
  9  6  1  6  0  0  0
  9 10  1  0  0  0  0
  9  1  1  0  0  0  0
 11 15  1  6  0  0  0
 11  7  1  0  0  0  0
 11  6  1  0  0  0  0
 12 14  2  0  0  0  0
 14 13  1  0  0  0  0
 16 15  1  0  0  0  0
 17 18  1  0  0  0  0
 17 16  1  0  0  0  0
 18 19  1  0  0  0  0
 20 19  1  0  0  0  0
 22 26  2  0  0  0  0
 23 28  1  6  0  0  0
 23 30  1  0  0  0  0
 24 21  1  1  0  0  0
 24 29  1  0  0  0  0
 27 23  1  0  0  0  0
 27 24  1  0  0  0  0
 29 22  1  0  0  0  0
 29 31  1  0  0  0  0
 30 25  1  1  0  0  0
 30 22  1  0  0  0  0
 32 31  1  0  0  0  0
M  END
>  <MODEL>
4

>  <REMARK>
 VINA RESULT:      -6.7      2.501      9.321
  Name = 
  10 active torsions:
  status: ('A' for Active; 'I' for Inactive)
    1  A    between atoms: C_1  and  C_20
    2  A    between atoms: C_4  and  C_12
    3  A    between atoms: C_6  and  N_31
    4  A    between atoms: C_9  and  C_28
    5  A    between atoms: C_10  and  C_19
    6  A    between atoms: C_10  and  C_23
    7  A    between atoms: C_15  and  C_26
    8  A    between atoms: C_16  and  C_26
    9  A    between atoms: C_19  and  O_24
   10  A    between atoms: C_20  and  O_24
                            x       y       z     vdW  Elec       q    Type
                         _______ _______ _______ _____ _____    ______ ____

>  <TORSDO>
F 10

$$$$
=
 OpenBabel11062410563D

 32 34  0  0  1  0  0  0  0  0999 V2000
  160.8270  206.3220  151.8480 C   0  0  2  0  0  3  0  0  0  0  0  0
  161.7520  205.0430  152.7630 S   0  0  0  0  0  0  0  0  0  0  0  0
  160.4120  205.8680  150.5790 O   0  0  0  0  0  0  0  0  0  0  0  0
  161.3130  204.8700  150.1870 C   0  0  1  0  0  3  0  0  0  0  0  0
  161.5610  203.9510  151.3540 C   0  0  0  0  0  2  0  0  0  0  0  0
  161.6270  208.2150  150.3450 C   0  0  0  0  0  2  0  0  0  0  0  0
  161.4970  210.4470  151.2180 O   0  0  0  0  0  0  0  0  0  0  0  0
  161.7230  210.0060  152.5360 C   0  0  2  0  0  3  0  0  0  0  0  0
  161.6040  207.6370  151.7640 C   0  0  1  0  0  3  0  0  0  0  0  0
  161.0420  208.6530  152.7590 C   0  0  0  0  0  2  0  0  0  0  0  0
  162.2510  209.6080  150.3780 C   0  0  2  0  0  3  0  0  0  0  0  0
  161.5710  210.9270  154.8420 O   0  0  0  0  0  1  0  0  0  0  0  0
  160.4320  211.9290  153.1270 O   0  0  0  0  0  0  0  0  0  0  0  0
  161.2060  211.0110  153.5070 C   0  0  0  0  0  0  0  0  0  0  0  0
  162.2900  210.1780  148.9700 C   0  0  0  0  0  2  0  0  0  0  0  0
  161.9590  211.6620  148.9770 C   0  0  0  0  0  2  0  0  0  0  0  0
  161.6010  212.0780  147.6930 O   0  0  0  0  0  0  0  0  0  0  0  0
  162.5810  213.0050  147.3390 C   0  0  0  0  0  2  0  0  0  0  0  0
  162.3230  213.5020  145.9320 C   0  0  0  0  0  2  0  0  0  0  0  0
  160.8970  213.1820  145.5370 C   0  0  0  0  0  1  0  0  0  0  0  0
  160.7490  204.0920  149.0060 C   0  0  0  0  0  2  0  0  0  0  0  0
  161.0760  203.6180  145.5840 C   0  0  0  0  0  0  0  0  0  0  0  0
  160.8310  201.5690  147.0140 C   0  0  2  0  0  3  0  0  0  0  0  0
  161.8280  203.6530  148.0070 C   0  0  1  0  0  3  0  0  0  0  0  0
  159.7960  201.7430  144.8710 O   0  0  0  0  0  1  0  0  0  0  0  0
  160.7450  204.2640  144.5520 O   0  0  0  0  0  0  0  0  0  0  0  0
  161.9420  202.1310  147.8890 C   0  0  0  0  0  2  0  0  0  0  0  0
  160.9220  200.1780  146.9880 O   0  0  0  0  0  1  0  0  0  0  0  0
  161.6780  204.3030  146.7000 N   0  0  0  0  0  0  0  0  0  0  0  0
  160.9290  202.1200  145.5950 C   0  0  1  0  0  3  0  0  0  0  0  0
  162.0250  205.7160  146.5990 C   0  0  0  0  0  2  0  0  0  0  0  0
  160.8190  206.5770  146.9230 C   0  0  0  0  0  1  0  0  0  0  0  0
  1  3  1  6  0  0  0
  1  2  1  0  0  0  0
  4 21  1  6  0  0  0
  4  3  1  0  0  0  0
  4  5  1  0  0  0  0
  5  2  1  0  0  0  0
  6 11  1  0  0  0  0
  7  8  1  0  0  0  0
  8 10  1  0  0  0  0
  8 14  1  1  0  0  0
  9  6  1  6  0  0  0
  9  1  1  0  0  0  0
  9 10  1  0  0  0  0
 11 15  1  6  0  0  0
 11  7  1  0  0  0  0
 13 14  2  0  0  0  0
 14 12  1  0  0  0  0
 15 16  1  0  0  0  0
 17 16  1  0  0  0  0
 18 17  1  0  0  0  0
 19 18  1  0  0  0  0
 20 19  1  0  0  0  0
 22 30  1  0  0  0  0
 22 29  1  0  0  0  0
 23 28  1  6  0  0  0
 23 27  1  0  0  0  0
 24 21  1  1  0  0  0
 26 22  2  0  0  0  0
 27 24  1  0  0  0  0
 29 24  1  0  0  0  0
 30 25  1  6  0  0  0
 30 23  1  0  0  0  0
 31 29  1  0  0  0  0
 31 32  1  0  0  0  0
M  END
>  <MODEL>
5

>  <REMARK>
 VINA RESULT:      -6.5      2.613      5.596
  Name = 
  10 active torsions:
  status: ('A' for Active; 'I' for Inactive)
    1  A    between atoms: C_1  and  C_20
    2  A    between atoms: C_4  and  C_12
    3  A    between atoms: C_6  and  N_31
    4  A    between atoms: C_9  and  C_28
    5  A    between atoms: C_10  and  C_19
    6  A    between atoms: C_10  and  C_23
    7  A    between atoms: C_15  and  C_26
    8  A    between atoms: C_16  and  C_26
    9  A    between atoms: C_19  and  O_24
   10  A    between atoms: C_20  and  O_24
                            x       y       z     vdW  Elec       q    Type
                         _______ _______ _______ _____ _____    ______ ____

>  <TORSDO>
F 10

$$$$
=
 OpenBabel11062410563D

 32 34  0  0  1  0  0  0  0  0999 V2000
  161.0760  207.7670  149.8970 C   0  0  2  0  0  3  0  0  0  0  0  0
  162.2860  209.1130  149.6600 S   0  0  0  0  0  0  0  0  0  0  0  0
  160.6030  207.7090  151.2240 O   0  0  0  0  0  0  0  0  0  0  0  0
  161.6010  208.2570  152.0390 C   0  0  1  0  0  3  0  0  0  0  0  0
  162.1160  209.5190  151.3990 C   0  0  0  0  0  2  0  0  0  0  0  0
  160.8360  205.2340  149.9880 C   0  0  0  0  0  2  0  0  0  0  0  0
  161.1170  204.0240  147.9340 O   0  0  0  0  0  0  0  0  0  0  0  0
  162.0500  204.9580  147.4460 C   0  0  2  0  0  3  0  0  0  0  0  0
  161.6240  206.4190  149.4210 C   0  0  1  0  0  3  0  0  0  0  0  0
  161.6620  206.3700  147.8930 C   0  0  0  0  0  2  0  0  0  0  0  0
  161.3170  203.9460  149.3250 C   0  0  2  0  0  3  0  0  0  0  0  0
  160.9670  205.1040  145.2100 O   0  0  0  0  0  0  0  0  0  0  0  0
  163.1990  204.6190  145.3770 O   0  0  0  0  0  1  0  0  0  0  0  0
  162.1140  204.8870  145.9590 C   0  0  0  0  0  0  0  0  0  0  0  0
  160.5500  202.7650  149.8960 C   0  0  0  0  0  2  0  0  0  0  0  0
  160.2390  201.7450  148.8130 C   0  0  0  0  0  2  0  0  0  0  0  0
  161.3570  200.9430  148.5760 O   0  0  0  0  0  0  0  0  0  0  0  0
  161.1970  200.4970  147.2640 C   0  0  0  0  0  2  0  0  0  0  0  0
  160.4710  201.5510  146.4550 C   0  0  0  0  0  2  0  0  0  0  0  0
  160.0820  200.9760  145.1100 C   0  0  0  0  0  1  0  0  0  0  0  0
  161.0420  208.5510  153.4240 C   0  0  0  0  0  2  0  0  0  0  0  0
  159.7680  210.7640  155.7730 C   0  0  0  0  0  0  0  0  0  0  0  0
  159.0050  211.0390  153.3970 C   0  0  2  0  0  3  0  0  0  0  0  0
  161.2510  210.0080  153.8600 C   0  0  1  0  0  3  0  0  0  0  0  0
  157.5240  211.3520  155.2410 O   0  0  0  0  0  1  0  0  0  0  0  0
  159.4840  210.7050  157.0010 O   0  0  0  0  0  0  0  0  0  0  0  0
  160.4730  211.0020  152.9950 C   0  0  0  0  0  2  0  0  0  0  0  0
  158.3140  211.8980  152.5430 O   0  0  0  0  0  1  0  0  0  0  0  0
  161.0050  210.2030  155.2930 N   0  0  0  0  0  0  0  0  0  0  0  0
  158.8520  211.5100  154.8400 C   0  0  1  0  0  3  0  0  0  0  0  0
  161.9930  209.6820  156.2300 C   0  0  0  0  0  2  0  0  0  0  0  0
  163.0740  210.7170  156.4830 C   0  0  0  0  0  1  0  0  0  0  0  0
  1  2  1  1  0  0  0
  1  3  1  0  0  0  0
  2  5  1  0  0  0  0
  3  4  1  0  0  0  0
  4 21  1  1  0  0  0
  5  4  1  0  0  0  0
  7 11  1  0  0  0  0
  8 14  1  6  0  0  0
  8 10  1  0  0  0  0
  8  7  1  0  0  0  0
  9 10  1  6  0  0  0
  9  1  1  0  0  0  0
  9  6  1  0  0  0  0
 11 15  1  1  0  0  0
 11  6  1  0  0  0  0
 12 14  2  0  0  0  0
 13 14  1  0  0  0  0
 16 15  1  0  0  0  0
 17 16  1  0  0  0  0
 18 17  1  0  0  0  0
 19 18  1  0  0  0  0
 20 19  1  0  0  0  0
 22 26  2  0  0  0  0
 23 28  1  6  0  0  0
 23 30  1  0  0  0  0
 24 21  1  6  0  0  0
 24 29  1  0  0  0  0
 27 23  1  0  0  0  0
 27 24  1  0  0  0  0
 29 22  1  0  0  0  0
 29 31  1  0  0  0  0
 30 25  1  1  0  0  0
 30 22  1  0  0  0  0
 31 32  1  0  0  0  0
M  END
>  <MODEL>
6

>  <REMARK>
 VINA RESULT:      -6.4      2.289      9.071
  Name = 
  10 active torsions:
  status: ('A' for Active; 'I' for Inactive)
    1  A    between atoms: C_1  and  C_20
    2  A    between atoms: C_4  and  C_12
    3  A    between atoms: C_6  and  N_31
    4  A    between atoms: C_9  and  C_28
    5  A    between atoms: C_10  and  C_19
    6  A    between atoms: C_10  and  C_23
    7  A    between atoms: C_15  and  C_26
    8  A    between atoms: C_16  and  C_26
    9  A    between atoms: C_19  and  O_24
   10  A    between atoms: C_20  and  O_24
                            x       y       z     vdW  Elec       q    Type
                         _______ _______ _______ _____ _____    ______ ____

>  <TORSDO>
F 10

$$$$
=
 OpenBabel11062410563D

 32 34  0  0  1  0  0  0  0  0999 V2000
  162.5680  208.2960  150.3210 C   0  0  2  0  0  3  0  0  0  0  0  0
  162.1870  209.2630  148.8210 S   0  0  0  0  0  0  0  0  0  0  0  0
  161.9910  207.0100  150.2810 O   0  0  0  0  0  0  0  0  0  0  0  0
  160.8650  207.0920  149.4520 C   0  0  1  0  0  3  0  0  0  0  0  0
  161.2240  207.8750  148.2180 C   0  0  0  0  0  2  0  0  0  0  0  0
  161.2790  210.2490  151.3220 C   0  0  0  0  0  2  0  0  0  0  0  0
  160.1050  209.8590  153.3790 O   0  0  0  0  0  0  0  0  0  0  0  0
  161.0590  208.9190  153.8120 C   0  0  2  0  0  3  0  0  0  0  0  0
  162.1980  209.0550  151.5970 C   0  0  1  0  0  3  0  0  0  0  0  0
  161.5720  208.1060  152.6200 C   0  0  0  0  0  2  0  0  0  0  0  0
  160.8060  210.8360  152.6500 C   0  0  2  0  0  3  0  0  0  0  0  0
  159.6630  208.5440  155.8380 O   0  0  0  0  0  1  0  0  0  0  0  0
  160.6800  206.7750  154.7990 O   0  0  0  0  0  0  0  0  0  0  0  0
  160.4600  208.0140  154.8330 C   0  0  0  0  0  0  0  0  0  0  0  0
  159.9060  212.0310  152.3830 C   0  0  0  0  0  2  0  0  0  0  0  0
  159.3210  212.5710  153.6780 C   0  0  0  0  0  2  0  0  0  0  0  0
  157.9260  212.5730  153.6080 O   0  0  0  0  0  0  0  0  0  0  0  0
  157.5090  212.6460  154.9370 C   0  0  0  0  0  2  0  0  0  0  0  0
  157.0180  211.2870  155.3890 C   0  0  0  0  0  2  0  0  0  0  0  0
  155.7510  211.4520  156.2020 C   0  0  0  0  0  1  0  0  0  0  0  0
  160.3890  205.6950  149.0790 C   0  0  0  0  0  2  0  0  0  0  0  0
  160.8310  202.3450  148.2910 C   0  0  0  0  0  0  0  0  0  0  0  0
  160.6560  202.9440  150.7230 C   0  0  2  0  0  3  0  0  0  0  0  0
  161.5150  204.6530  149.0910 C   0  0  1  0  0  3  0  0  0  0  0  0
  159.6710  200.9590  149.8390 O   0  0  0  0  0  1  0  0  0  0  0  0
  160.4940  201.5950  147.3340 O   0  0  0  0  0  0  0  0  0  0  0  0
  161.7120  204.0090  150.4650 C   0  0  0  0  0  2  0  0  0  0  0  0
  160.8200  202.4320  152.0090 O   0  0  0  0  0  1  0  0  0  0  0  0
  161.3660  203.6560  148.0250 N   0  0  0  0  0  0  0  0  0  0  0  0
  160.7630  201.8180  149.7000 C   0  0  1  0  0  3  0  0  0  0  0  0
  161.6420  204.0770  146.6560 C   0  0  0  0  0  2  0  0  0  0  0  0
  162.9450  204.8510  146.5970 C   0  0  0  0  0  1  0  0  0  0  0  0
  1  2  1  6  0  0  0
  1  9  1  0  0  0  0
  3  1  1  0  0  0  0
  4 21  1  6  0  0  0
  4  3  1  0  0  0  0
  5  2  1  0  0  0  0
  5  4  1  0  0  0  0
  6 11  1  0  0  0  0
  7  8  1  0  0  0  0
  8 14  1  1  0  0  0
  9  6  1  6  0  0  0
  9 10  1  0  0  0  0
 10  8  1  0  0  0  0
 11 15  1  6  0  0  0
 11  7  1  0  0  0  0
 13 14  2  0  0  0  0
 14 12  1  0  0  0  0
 15 16  1  0  0  0  0
 17 16  1  0  0  0  0
 17 18  1  0  0  0  0
 18 19  1  0  0  0  0
 19 20  1  0  0  0  0
 22 30  1  0  0  0  0
 23 28  1  1  0  0  0
 24 21  1  1  0  0  0
 24 27  1  0  0  0  0
 26 22  2  0  0  0  0
 27 23  1  0  0  0  0
 29 22  1  0  0  0  0
 29 24  1  0  0  0  0
 30 25  1  6  0  0  0
 30 23  1  0  0  0  0
 31 29  1  0  0  0  0
 32 31  1  0  0  0  0
M  END
>  <MODEL>
7

>  <REMARK>
 VINA RESULT:      -6.4      2.033      4.204
  Name = 
  10 active torsions:
  status: ('A' for Active; 'I' for Inactive)
    1  A    between atoms: C_1  and  C_20
    2  A    between atoms: C_4  and  C_12
    3  A    between atoms: C_6  and  N_31
    4  A    between atoms: C_9  and  C_28
    5  A    between atoms: C_10  and  C_19
    6  A    between atoms: C_10  and  C_23
    7  A    between atoms: C_15  and  C_26
    8  A    between atoms: C_16  and  C_26
    9  A    between atoms: C_19  and  O_24
   10  A    between atoms: C_20  and  O_24
                            x       y       z     vdW  Elec       q    Type
                         _______ _______ _______ _____ _____    ______ ____

>  <TORSDO>
F 10

$$$$
=
 OpenBabel11062410563D

 32 34  0  0  1  0  0  0  0  0999 V2000
  160.4200  207.9310  152.9850 C   0  0  2  0  0  3  0  0  0  0  0  0
  160.8350  206.7630  154.3240 S   0  0  0  0  0  0  0  0  0  0  0  0
  160.8480  207.4640  151.7250 O   0  0  0  0  0  0  0  0  0  0  0  0
  161.9350  206.6110  151.9520 C   0  0  1  0  0  3  0  0  0  0  0  0
  161.6080  205.7000  153.1040 C   0  0  0  0  0  2  0  0  0  0  0  0
  159.9700  210.4290  152.7890 C   0  0  0  0  0  2  0  0  0  0  0  0
  160.4920  211.7970  154.6910 O   0  0  0  0  0  0  0  0  0  0  0  0
  161.5640  210.9650  155.0670 C   0  0  2  0  0  3  0  0  0  0  0  0
  160.9310  209.3420  153.2810 C   0  0  1  0  0  3  0  0  0  0  0  0
  161.2190  209.5020  154.7750 C   0  0  0  0  0  2  0  0  0  0  0  0
  160.4520  211.7900  153.2850 C   0  0  2  0  0  3  0  0  0  0  0  0
  162.8340  210.3550  157.1170 O   0  0  0  0  0  0  0  0  0  0  0  0
  161.2440  212.0010  157.1970 O   0  0  0  0  0  1  0  0  0  0  0  0
  161.8670  211.1450  156.5140 C   0  0  0  0  0  0  0  0  0  0  0  0
  159.5100  212.8730  152.7850 C   0  0  0  0  0  2  0  0  0  0  0  0
  158.4500  213.1940  153.8270 C   0  0  0  0  0  2  0  0  0  0  0  0
  157.1870  213.2140  153.2330 O   0  0  0  0  0  0  0  0  0  0  0  0
  156.3100  212.8810  154.2650 C   0  0  0  0  0  2  0  0  0  0  0  0
  156.8390  211.6760  155.0120 C   0  0  0  0  0  2  0  0  0  0  0  0
  155.7060  210.7060  155.2740 C   0  0  0  0  0  1  0  0  0  0  0  0
  162.2350  205.8020  150.6980 C   0  0  0  0  0  2  0  0  0  0  0  0
  161.2000  203.4650  148.3520 C   0  0  0  0  0  0  0  0  0  0  0  0
  161.7930  205.7550  147.5130 C   0  0  2  0  0  3  0  0  0  0  0  0
  160.9800  205.4800  149.8770 C   0  0  1  0  0  3  0  0  0  0  0  0
  162.3440  203.7820  146.2900 O   0  0  0  0  0  1  0  0  0  0  0  0
  161.2880  202.2120  148.2330 O   0  0  0  0  0  0  0  0  0  0  0  0
  160.8800  206.3130  148.5960 C   0  0  0  0  0  2  0  0  0  0  0  0
  161.7330  206.5780  146.3890 O   0  0  0  0  0  1  0  0  0  0  0  0
  160.8330  204.0430  149.6200 N   0  0  0  0  0  0  0  0  0  0  0  0
  161.3820  204.3350  147.1380 C   0  0  1  0  0  3  0  0  0  0  0  0
  160.4380  203.1890  150.7350 C   0  0  0  0  0  2  0  0  0  0  0  0
  161.6550  202.5090  151.3320 C   0  0  0  0  0  1  0  0  0  0  0  0
  1  3  1  6  0  0  0
  1  9  1  0  0  0  0
  1  2  1  0  0  0  0
  3  4  1  0  0  0  0
  4 21  1  6  0  0  0
  4  5  1  0  0  0  0
  5  2  1  0  0  0  0
  6 11  1  0  0  0  0
  7  8  1  0  0  0  0
  8 14  1  1  0  0  0
  9  6  1  1  0  0  0
  9 10  1  0  0  0  0
 10  8  1  0  0  0  0
 11 15  1  1  0  0  0
 11  7  1  0  0  0  0
 14 12  2  0  0  0  0
 14 13  1  0  0  0  0
 15 16  1  0  0  0  0
 17 16  1  0  0  0  0
 17 18  1  0  0  0  0
 18 19  1  0  0  0  0
 19 20  1  0  0  0  0
 22 29  1  0  0  0  0
 23 28  1  6  0  0  0
 23 27  1  0  0  0  0
 24 21  1  6  0  0  0
 26 22  2  0  0  0  0
 27 24  1  0  0  0  0
 29 24  1  0  0  0  0
 29 31  1  0  0  0  0
 30 25  1  6  0  0  0
 30 23  1  0  0  0  0
 30 22  1  0  0  0  0
 31 32  1  0  0  0  0
M  END
>  <MODEL>
8

>  <REMARK>
 VINA RESULT:      -6.3      2.037      3.889
  Name = 
  10 active torsions:
  status: ('A' for Active; 'I' for Inactive)
    1  A    between atoms: C_1  and  C_20
    2  A    between atoms: C_4  and  C_12
    3  A    between atoms: C_6  and  N_31
    4  A    between atoms: C_9  and  C_28
    5  A    between atoms: C_10  and  C_19
    6  A    between atoms: C_10  and  C_23
    7  A    between atoms: C_15  and  C_26
    8  A    between atoms: C_16  and  C_26
    9  A    between atoms: C_19  and  O_24
   10  A    between atoms: C_20  and  O_24
                            x       y       z     vdW  Elec       q    Type
                         _______ _______ _______ _____ _____    ______ ____

>  <TORSDO>
F 10

$$$$
=
 OpenBabel11062410563D

 32 34  0  0  1  0  0  0  0  0999 V2000
  160.4500  208.0840  153.1570 C   0  0  2  0  0  3  0  0  0  0  0  0
  161.2020  207.0640  154.4690 S   0  0  0  0  0  0  0  0  0  0  0  0
  160.8030  207.6320  151.8690 O   0  0  0  0  0  0  0  0  0  0  0  0
  162.0340  206.9770  151.9880 C   0  0  1  0  0  3  0  0  0  0  0  0
  161.9960  206.0810  153.1960 C   0  0  0  0  0  2  0  0  0  0  0  0
  159.8070  210.4700  152.5430 C   0  0  0  0  0  2  0  0  0  0  0  0
  159.8020  212.1000  154.3050 O   0  0  0  0  0  0  0  0  0  0  0  0
  160.8520  211.4530  154.9840 C   0  0  2  0  0  3  0  0  0  0  0  0
  160.7520  209.5720  153.3490 C   0  0  1  0  0  3  0  0  0  0  0  0
  160.7170  209.9350  154.8340 C   0  0  0  0  0  2  0  0  0  0  0  0
  160.0460  211.9270  152.9300 C   0  0  2  0  0  3  0  0  0  0  0  0
  159.8960  212.7360  156.8900 O   0  0  0  0  0  0  0  0  0  0  0  0
  161.6890  211.3500  157.2200 O   0  0  0  0  0  1  0  0  0  0  0  0
  160.8400  211.8330  156.4240 C   0  0  0  0  0  0  0  0  0  0  0  0
  159.1220  212.8230  152.1210 C   0  0  0  0  0  2  0  0  0  0  0  0
  159.9040  213.6150  151.0860 C   0  0  0  0  0  2  0  0  0  0  0  0
  160.4710  212.7490  150.1490 O   0  0  0  0  0  0  0  0  0  0  0  0
  160.8050  213.5680  149.0710 C   0  0  0  0  0  2  0  0  0  0  0  0
  161.2840  212.7160  147.9150 C   0  0  0  0  0  2  0  0  0  0  0  0
  161.9560  211.4700  148.4510 C   0  0  0  0  0  1  0  0  0  0  0  0
  162.3190  206.1670  150.7300 C   0  0  0  0  0  2  0  0  0  0  0  0
  161.1890  203.6740  148.5970 C   0  0  0  0  0  0  0  0  0  0  0  0
  161.8730  205.8570  147.5610 C   0  0  2  0  0  3  0  0  0  0  0  0
  161.0510  205.8240  149.9370 C   0  0  1  0  0  3  0  0  0  0  0  0
  162.3440  203.7630  146.5180 O   0  0  0  0  0  1  0  0  0  0  0  0
  161.2280  202.4130  148.5890 O   0  0  0  0  0  0  0  0  0  0  0  0
  160.9830  206.5430  148.5880 C   0  0  0  0  0  2  0  0  0  0  0  0
  161.8440  206.5790  146.3690 O   0  0  0  0  0  1  0  0  0  0  0  0
  160.8470  204.3770  149.8080 N   0  0  0  0  0  0  0  0  0  0  0  0
  161.4050  204.4270  147.3110 C   0  0  1  0  0  3  0  0  0  0  0  0
  160.4190  203.6410  150.9930 C   0  0  0  0  0  2  0  0  0  0  0  0
  161.5980  202.9170  151.6140 C   0  0  0  0  0  1  0  0  0  0  0  0
  1  3  1  6  0  0  0
  1  9  1  0  0  0  0
  1  2  1  0  0  0  0
  3  4  1  0  0  0  0
  4 21  1  6  0  0  0
  4  5  1  0  0  0  0
  5  2  1  0  0  0  0
  6 11  1  0  0  0  0
  7  8  1  0  0  0  0
  8 14  1  1  0  0  0
  9  6  1  6  0  0  0
  9 10  1  0  0  0  0
 10  8  1  0  0  0  0
 11 15  1  6  0  0  0
 11  7  1  0  0  0  0
 14 12  2  0  0  0  0
 14 13  1  0  0  0  0
 16 15  1  0  0  0  0
 17 16  1  0  0  0  0
 18 17  1  0  0  0  0
 19 20  1  0  0  0  0
 19 18  1  0  0  0  0
 22 29  1  0  0  0  0
 23 28  1  6  0  0  0
 23 27  1  0  0  0  0
 24 21  1  6  0  0  0
 26 22  2  0  0  0  0
 27 24  1  0  0  0  0
 29 24  1  0  0  0  0
 29 31  1  0  0  0  0
 30 25  1  6  0  0  0
 30 23  1  0  0  0  0
 30 22  1  0  0  0  0
 31 32  1  0  0  0  0
M  END
>  <MODEL>
9

>  <REMARK>
 VINA RESULT:      -6.2      2.093      4.360
  Name = 
  10 active torsions:
  status: ('A' for Active; 'I' for Inactive)
    1  A    between atoms: C_1  and  C_20
    2  A    between atoms: C_4  and  C_12
    3  A    between atoms: C_6  and  N_31
    4  A    between atoms: C_9  and  C_28
    5  A    between atoms: C_10  and  C_19
    6  A    between atoms: C_10  and  C_23
    7  A    between atoms: C_15  and  C_26
    8  A    between atoms: C_16  and  C_26
    9  A    between atoms: C_19  and  O_24
   10  A    between atoms: C_20  and  O_24
                            x       y       z     vdW  Elec       q    Type
                         _______ _______ _______ _____ _____    ______ ____

>  <TORSDO>
F 10

$$$$
