=
 OpenBabel11062409413D

 34 38  0  0  1  0  0  0  0  0999 V2000
  160.7320  209.3840  153.7000 C   0  0  2  0  0  3  0  0  0  0  0  0
  159.7070  213.0360  154.5930 C   0  0  0  0  0  2  0  0  0  0  0  0
  160.6410  211.0670  155.9390 C   0  0  0  0  0  2  0  0  0  0  0  0
  161.3090  209.1390  151.3290 N   0  0  0  0  0  1  0  0  0  0  0  0
  160.7140  208.4600  152.4710 C   0  0  1  0  0  3  0  0  0  0  0  0
  160.6960  207.3280  155.1550 C   0  0  0  0  0  0  0  0  0  0  0  0
  160.6100  206.7650  156.2780 O   0  0  0  0  0  0  0  0  0  0  0  0
  161.1980  206.5850  154.0440 N   0  0  0  0  0  2  0  0  0  0  0  0
  161.5420  207.1990  152.7640 C   0  0  1  0  0  3  0  0  0  0  0  0
  160.2440  209.6270  156.1400 C   0  0  0  0  0  0  0  0  0  0  0  0
  160.1250  208.7050  154.9400 C   0  0  1  0  0  3  0  0  0  0  0  0
  159.9620  209.2370  157.2610 O   0  0  0  0  0  0  0  0  0  0  0  0
  158.4780  213.2910  153.7300 C   0  0  0  0  0  2  0  0  0  0  0  0
  158.8630  213.5680  152.3400 N   0  0  0  0  0  0  0  0  0  0  0  0
  159.7380  212.5330  151.7640 C   0  0  0  0  0  2  0  0  0  0  0  0
  160.1110  211.5830  154.6220 C   0  0  2  0  0  3  0  0  0  0  0  0
  159.3980  211.1230  152.2460 C   0  0  0  0  0  2  0  0  0  0  0  0
  160.1130  210.7660  153.5300 C   0  0  2  0  0  3  0  0  0  0  0  0
  161.2530  203.8750  150.9150 C   0  0  0  0  0  3  0  0  0  0  0  0
  161.3940  206.6300  150.3320 C   0  0  0  0  0  3  0  0  0  0  0  0
  161.1250  204.5420  147.2380 C   0  0  1  0  0  3  0  0  0  0  0  0
  161.1230  203.5110  148.3800 C   0  0  0  0  0  2  0  0  0  0  0  0
  161.2160  204.3390  149.6000 C   0  0  0  0  0  0  0  0  0  0  0  0
  161.2420  205.9440  147.8610 C   0  0  2  0  0  3  0  0  0  0  0  0
  161.2830  205.6780  149.3150 C   0  0  0  0  0  0  0  0  0  0  0  0
  160.1040  206.6850  147.5470 O   0  0  0  0  0  1  0  0  0  0  0  0
  161.4300  206.1900  151.6660 C   0  0  0  0  0  0  0  0  0  0  0  0
  161.3580  204.8110  151.9530 C   0  0  0  0  0  3  0  0  0  0  0  0
  162.2550  204.2840  146.2950 C   0  0  0  0  0  0  0  0  0  0  0  0
  162.0730  203.6250  145.2380 O   0  0  0  0  0  0  0  0  0  0  0  0
  163.5180  204.7770  146.5910 O   0  0  0  0  0  1  0  0  0  0  0  0
  157.6410  213.6040  151.5480 C   0  0  0  0  0  2  0  0  0  0  0  0
  157.0930  212.9820  149.3100 O   0  0  0  0  0  1  0  0  0  0  0  0
  157.9730  213.7490  150.0730 C   0  0  0  0  0  2  0  0  0  0  0  0
  1 11  1  0  0  0  0
  2 16  1  0  0  0  0
  3 10  1  0  0  0  0
  4  5  1  0  0  0  0
  5  9  1  0  0  0  0
  5  1  1  0  0  0  0
  6  7  2  0  0  0  0
  8  6  1  0  0  0  0
  9  8  1  0  0  0  0
 10 12  2  0  0  0  0
 11  6  1  0  0  0  0
 11 10  1  0  0  0  0
 13  2  1  0  0  0  0
 14 13  1  0  0  0  0
 15 17  1  0  0  0  0
 15 14  1  0  0  0  0
 16  3  1  0  0  0  0
 17 18  1  0  0  0  0
 18  1  1  0  0  0  0
 18 16  1  0  0  0  0
 19 28  1  0  0  0  0
 20 27  1  0  0  0  0
 21 24  1  0  0  0  0
 21 22  1  0  0  0  0
 22 23  1  0  0  0  0
 23 19  2  0  0  0  0
 24 25  1  0  0  0  0
 25 23  1  0  0  0  0
 25 20  2  0  0  0  0
 26 24  1  0  0  0  0
 27 28  2  0  0  0  0
 27  9  1  0  0  0  0
 29 31  1  0  0  0  0
 29 21  1  0  0  0  0
 30 29  2  0  0  0  0
 32 14  1  0  0  0  0
 33 34  1  0  0  0  0
 34 32  1  0  0  0  0
M  END
>  <MODEL>
1

>  <REMARK>
 VINA RESULT:      -9.6      0.000      0.000
  Name = 
  4 active torsions:
  status: ('A' for Active; 'I' for Inactive)
    1  A    between atoms: C_3  and  C_24
    2  A    between atoms: C_3  and  N_25
    3  A    between atoms: C_7  and  C_11
    4  A    between atoms: C_18  and  C_30
                            x       y       z     vdW  Elec       q    Type
                         _______ _______ _______ _____ _____    ______ ____

>  <TORSDO>
F 4

$$$$
=
 OpenBabel11062409413D

 34 38  0  0  1  0  0  0  0  0999 V2000
  160.5860  209.6480  153.7280 C   0  0  2  0  0  3  0  0  0  0  0  0
  159.4180  213.2320  154.7180 C   0  0  0  0  0  2  0  0  0  0  0  0
  160.3830  211.2480  156.0200 C   0  0  0  0  0  2  0  0  0  0  0  0
  161.2290  209.5030  151.3660 N   0  0  0  0  0  1  0  0  0  0  0  0
  160.6290  208.7660  152.4680 C   0  0  1  0  0  3  0  0  0  0  0  0
  160.5820  207.5420  155.1110 C   0  0  0  0  0  0  0  0  0  0  0  0
  160.4860  206.9390  156.2120 O   0  0  0  0  0  0  0  0  0  0  0  0
  161.1350  206.8550  153.9890 N   0  0  0  0  0  2  0  0  0  0  0  0
  161.4900  207.5240  152.7400 C   0  0  1  0  0  3  0  0  0  0  0  0
  160.0300  209.7900  156.1620 C   0  0  0  0  0  0  0  0  0  0  0  0
  159.9710  208.9080  154.9290 C   0  0  1  0  0  3  0  0  0  0  0  0
  159.7330  209.3520  157.2610 O   0  0  0  0  0  0  0  0  0  0  0  0
  158.2040  213.4770  153.8310 C   0  0  0  0  0  2  0  0  0  0  0  0
  158.6140  213.8140  152.4620 N   0  0  0  0  0  0  0  0  0  0  0  0
  159.5360  212.8280  151.8740 C   0  0  0  0  0  2  0  0  0  0  0  0
  159.8690  211.7920  154.7080 C   0  0  2  0  0  3  0  0  0  0  0  0
  159.2310  211.3920  152.3000 C   0  0  0  0  0  2  0  0  0  0  0  0
  159.9250  211.0140  153.5890 C   0  0  2  0  0  3  0  0  0  0  0  0
  161.5190  206.0650  149.2150 C   0  0  0  0  0  3  0  0  0  0  0  0
  161.2600  205.1850  151.8810 C   0  0  0  0  0  3  0  0  0  0  0  0
  161.0620  202.3610  149.4340 C   0  0  1  0  0  3  0  0  0  0  0  0
  161.2530  203.6040  148.5480 C   0  0  0  0  0  2  0  0  0  0  0  0
  161.3440  204.7150  149.5180 C   0  0  0  0  0  0  0  0  0  0  0  0
  161.0300  202.8210  150.9010 C   0  0  2  0  0  3  0  0  0  0  0  0
  161.2200  204.2850  150.8130 C   0  0  0  0  0  0  0  0  0  0  0  0
  162.0980  202.2460  151.5900 O   0  0  0  0  0  1  0  0  0  0  0  0
  161.4390  206.5500  151.6060 C   0  0  0  0  0  0  0  0  0  0  0  0
  161.5680  206.9870  150.2710 C   0  0  0  0  0  3  0  0  0  0  0  0
  159.8000  201.6450  149.0750 C   0  0  0  0  0  0  0  0  0  0  0  0
  159.3780  201.6420  147.8890 O   0  0  0  0  0  0  0  0  0  0  0  0
  159.0880  200.9780  150.0620 O   0  0  0  0  0  1  0  0  0  0  0  0
  157.4110  213.8380  151.6410 C   0  0  0  0  0  2  0  0  0  0  0  0
  156.8260  213.3750  149.3740 O   0  0  0  0  0  1  0  0  0  0  0  0
  157.7770  214.0060  150.1760 C   0  0  0  0  0  2  0  0  0  0  0  0
  1 11  1  0  0  0  0
  3 10  1  0  0  0  0
  4  5  1  0  0  0  0
  5  9  1  0  0  0  0
  5  1  1  0  0  0  0
  6  7  2  0  0  0  0
  8  6  1  0  0  0  0
  9  8  1  0  0  0  0
 10 12  2  0  0  0  0
 11  6  1  0  0  0  0
 11 10  1  0  0  0  0
 13  2  1  0  0  0  0
 14 13  1  0  0  0  0
 15 17  1  0  0  0  0
 15 14  1  0  0  0  0
 16  2  1  0  0  0  0
 16  3  1  0  0  0  0
 17 18  1  0  0  0  0
 18  1  1  0  0  0  0
 18 16  1  0  0  0  0
 19 23  2  0  0  0  0
 19 28  1  0  0  0  0
 21 24  1  0  0  0  0
 22 21  1  0  0  0  0
 22 23  1  0  0  0  0
 23 25  1  0  0  0  0
 24 26  1  0  0  0  0
 25 24  1  0  0  0  0
 25 20  2  0  0  0  0
 27 20  1  0  0  0  0
 27  9  1  0  0  0  0
 28 27  2  0  0  0  0
 29 21  1  0  0  0  0
 29 31  1  0  0  0  0
 30 29  2  0  0  0  0
 32 14  1  0  0  0  0
 33 34  1  0  0  0  0
 34 32  1  0  0  0  0
M  END
>  <MODEL>
2

>  <REMARK>
 VINA RESULT:      -8.5      1.744      2.303
  Name = 
  4 active torsions:
  status: ('A' for Active; 'I' for Inactive)
    1  A    between atoms: C_3  and  C_24
    2  A    between atoms: C_3  and  N_25
    3  A    between atoms: C_7  and  C_11
    4  A    between atoms: C_18  and  C_30
                            x       y       z     vdW  Elec       q    Type
                         _______ _______ _______ _____ _____    ______ ____

>  <TORSDO>
F 4

$$$$
=
 OpenBabel11062409413D

 34 38  0  0  1  0  0  0  0  0999 V2000
  160.8460  208.9510  153.3940 C   0  0  2  0  0  3  0  0  0  0  0  0
  159.2500  211.5500  155.8200 C   0  0  0  0  0  2  0  0  0  0  0  0
  160.3950  209.2810  156.1400 C   0  0  0  0  0  2  0  0  0  0  0  0
  161.5720  209.9760  151.2870 N   0  0  0  0  0  1  0  0  0  0  0  0
  161.0270  208.7630  151.8780 C   0  0  1  0  0  3  0  0  0  0  0  0
  161.0410  206.4530  153.6530 C   0  0  0  0  0  0  0  0  0  0  0  0
  160.9810  205.4010  154.3440 O   0  0  0  0  0  0  0  0  0  0  0  0
  161.7020  206.4160  152.3880 N   0  0  0  0  0  2  0  0  0  0  0  0
  162.0150  207.6160  151.6170 C   0  0  1  0  0  3  0  0  0  0  0  0
  160.2050  207.8990  155.5690 C   0  0  0  0  0  0  0  0  0  0  0  0
  160.2840  207.6880  154.0690 C   0  0  1  0  0  3  0  0  0  0  0  0
  159.9280  206.9770  156.3180 O   0  0  0  0  0  0  0  0  0  0  0  0
  158.0430  212.0710  155.0510 C   0  0  0  0  0  2  0  0  0  0  0  0
  158.4520  213.0390  154.0260 N   0  0  0  0  0  0  0  0  0  0  0  0
  159.4980  212.5240  153.1270 C   0  0  0  0  0  2  0  0  0  0  0  0
  159.8620  210.3250  155.1870 C   0  0  2  0  0  3  0  0  0  0  0  0
  159.3450  211.0330  152.8210 C   0  0  0  0  0  2  0  0  0  0  0  0
  160.0390  210.1620  153.8440 C   0  0  2  0  0  3  0  0  0  0  0  0
  162.8160  207.8340  147.8940 C   0  0  0  0  0  3  0  0  0  0  0  0
  161.5660  206.0690  149.7030 C   0  0  0  0  0  3  0  0  0  0  0  0
  161.5310  204.7600  146.1970 C   0  0  1  0  0  3  0  0  0  0  0  0
  162.2480  206.1160  146.0770 C   0  0  0  0  0  2  0  0  0  0  0  0
  162.2710  206.6240  147.4640 C   0  0  0  0  0  0  0  0  0  0  0  0
  161.1480  204.5510  147.6720 C   0  0  2  0  0  3  0  0  0  0  0  0
  161.6650  205.7640  148.3430 C   0  0  0  0  0  0  0  0  0  0  0  0
  161.8030  203.4220  148.1640 O   0  0  0  0  0  1  0  0  0  0  0  0
  162.1090  207.2800  150.1630 C   0  0  0  0  0  0  0  0  0  0  0  0
  162.7340  208.1600  149.2550 C   0  0  0  0  0  3  0  0  0  0  0  0
  160.3190  204.7230  145.3240 C   0  0  0  0  0  0  0  0  0  0  0  0
  160.0410  203.6940  144.6530 O   0  0  0  0  0  0  0  0  0  0  0  0
  159.4940  205.8360  145.2520 O   0  0  0  0  0  1  0  0  0  0  0  0
  157.2800  213.3370  153.2150 C   0  0  0  0  0  2  0  0  0  0  0  0
  154.9530  213.8350  153.3960 O   0  0  0  0  0  1  0  0  0  0  0  0
  156.0170  213.2120  154.0480 C   0  0  0  0  0  2  0  0  0  0  0  0
  1 18  1  0  0  0  0
  1 11  1  0  0  0  0
  4  5  1  0  0  0  0
  5  1  1  0  0  0  0
  6 11  1  0  0  0  0
  6  7  2  0  0  0  0
  8  6  1  0  0  0  0
  9  5  1  0  0  0  0
  9  8  1  0  0  0  0
 10  3  1  0  0  0  0
 10 12  2  0  0  0  0
 11 10  1  0  0  0  0
 13  2  1  0  0  0  0
 14 13  1  0  0  0  0
 15 14  1  0  0  0  0
 16  2  1  0  0  0  0
 16  3  1  0  0  0  0
 17 15  1  0  0  0  0
 17 18  1  0  0  0  0
 18 16  1  0  0  0  0
 19 28  1  0  0  0  0
 20 27  1  0  0  0  0
 21 24  1  0  0  0  0
 22 21  1  0  0  0  0
 22 23  1  0  0  0  0
 23 19  2  0  0  0  0
 23 25  1  0  0  0  0
 24 26  1  0  0  0  0
 24 25  1  0  0  0  0
 25 20  2  0  0  0  0
 27  9  1  0  0  0  0
 28 27  2  0  0  0  0
 29 21  1  0  0  0  0
 30 29  2  0  0  0  0
 31 29  1  0  0  0  0
 32 14  1  0  0  0  0
 32 34  1  0  0  0  0
 33 34  1  0  0  0  0
M  END
>  <MODEL>
3

>  <REMARK>
 VINA RESULT:      -7.9      1.747      2.504
  Name = 
  4 active torsions:
  status: ('A' for Active; 'I' for Inactive)
    1  A    between atoms: C_3  and  C_24
    2  A    between atoms: C_3  and  N_25
    3  A    between atoms: C_7  and  C_11
    4  A    between atoms: C_18  and  C_30
                            x       y       z     vdW  Elec       q    Type
                         _______ _______ _______ _____ _____    ______ ____

>  <TORSDO>
F 4

$$$$
=
 OpenBabel11062409413D

 34 38  0  0  1  0  0  0  0  0999 V2000
  161.2700  208.3680  152.5600 C   0  0  2  0  0  3  0  0  0  0  0  0
  160.2600  211.2610  154.9680 C   0  0  0  0  0  2  0  0  0  0  0  0
  161.1790  208.8940  155.3110 C   0  0  0  0  0  2  0  0  0  0  0  0
  161.8540  209.1870  150.3230 N   0  0  0  0  0  1  0  0  0  0  0  0
  161.2510  208.0790  151.0490 C   0  0  1  0  0  3  0  0  0  0  0  0
  161.2170  205.8810  152.9620 C   0  0  0  0  0  0  0  0  0  0  0  0
  161.1230  204.8830  153.7230 O   0  0  0  0  0  0  0  0  0  0  0  0
  161.7190  205.7000  151.6370 N   0  0  0  0  0  2  0  0  0  0  0  0
  162.0710  206.8130  150.7590 C   0  0  1  0  0  3  0  0  0  0  0  0
  160.7730  207.5160  154.8570 C   0  0  0  0  0  0  0  0  0  0  0  0
  160.6540  207.2170  153.3740 C   0  0  1  0  0  3  0  0  0  0  0  0
  160.4850  206.6740  155.6920 O   0  0  0  0  0  0  0  0  0  0  0  0
  159.0370  211.8780  154.3040 C   0  0  0  0  0  2  0  0  0  0  0  0
  159.4280  212.7350  153.1780 N   0  0  0  0  0  0  0  0  0  0  0  0
  160.3000  212.0540  152.2060 C   0  0  0  0  0  2  0  0  0  0  0  0
  160.6560  209.9410  154.3550 C   0  0  2  0  0  3  0  0  0  0  0  0
  159.9500  210.5780  152.0180 C   0  0  0  0  0  2  0  0  0  0  0  0
  160.6580  209.6870  153.0150 C   0  0  2  0  0  3  0  0  0  0  0  0
  162.0120  206.9170  146.9460 C   0  0  0  0  0  3  0  0  0  0  0  0
  161.6880  205.0460  149.0290 C   0  0  0  0  0  3  0  0  0  0  0  0
  161.3080  203.4810  145.6510 C   0  0  1  0  0  3  0  0  0  0  0  0
  161.5840  204.9630  145.3430 C   0  0  0  0  0  2  0  0  0  0  0  0
  161.7470  205.5750  146.6780 C   0  0  0  0  0  0  0  0  0  0  0  0
  161.3030  203.3040  147.1790 C   0  0  2  0  0  3  0  0  0  0  0  0
  161.5910  204.6630  147.6900 C   0  0  0  0  0  0  0  0  0  0  0  0
  162.3290  202.4340  147.5480 O   0  0  0  0  0  1  0  0  0  0  0  0
  161.9580  206.3910  149.3280 C   0  0  0  0  0  0  0  0  0  0  0  0
  162.1200  207.3240  148.2830 C   0  0  0  0  0  3  0  0  0  0  0  0
  160.0030  203.0530  145.0640 C   0  0  0  0  0  0  0  0  0  0  0  0
  159.3000  203.8610  144.4010 O   0  0  0  0  0  0  0  0  0  0  0  0
  159.5620  201.7510  145.2530 O   0  0  0  0  0  1  0  0  0  0  0  0
  158.2090  213.1240  152.4810 C   0  0  0  0  0  2  0  0  0  0  0  0
  157.9760  213.4100  150.1240 O   0  0  0  0  0  1  0  0  0  0  0  0
  158.5450  213.9720  151.2670 C   0  0  0  0  0  2  0  0  0  0  0  0
  1 18  1  0  0  0  0
  1 11  1  0  0  0  0
  4  5  1  0  0  0  0
  5  1  1  0  0  0  0
  6 11  1  0  0  0  0
  6  7  2  0  0  0  0
  8  6  1  0  0  0  0
  9  5  1  0  0  0  0
  9  8  1  0  0  0  0
 10  3  1  0  0  0  0
 10 12  2  0  0  0  0
 11 10  1  0  0  0  0
 13  2  1  0  0  0  0
 14 13  1  0  0  0  0
 15 14  1  0  0  0  0
 16  2  1  0  0  0  0
 16  3  1  0  0  0  0
 17 15  1  0  0  0  0
 17 18  1  0  0  0  0
 18 16  1  0  0  0  0
 19 28  1  0  0  0  0
 20 27  1  0  0  0  0
 21 24  1  0  0  0  0
 22 21  1  0  0  0  0
 22 23  1  0  0  0  0
 23 19  2  0  0  0  0
 23 25  1  0  0  0  0
 24 26  1  0  0  0  0
 24 25  1  0  0  0  0
 25 20  2  0  0  0  0
 27  9  1  0  0  0  0
 28 27  2  0  0  0  0
 29 31  1  0  0  0  0
 29 21  1  0  0  0  0
 30 29  2  0  0  0  0
 32 14  1  0  0  0  0
 33 34  1  0  0  0  0
 34 32  1  0  0  0  0
M  END
>  <MODEL>
4

>  <REMARK>
 VINA RESULT:      -7.4      1.605      2.652
  Name = 
  4 active torsions:
  status: ('A' for Active; 'I' for Inactive)
    1  A    between atoms: C_3  and  C_24
    2  A    between atoms: C_3  and  N_25
    3  A    between atoms: C_7  and  C_11
    4  A    between atoms: C_18  and  C_30
                            x       y       z     vdW  Elec       q    Type
                         _______ _______ _______ _____ _____    ______ ____

>  <TORSDO>
F 4

$$$$
=
 OpenBabel11062409413D

 34 38  0  0  1  0  0  0  0  0999 V2000
  161.6420  205.7710  149.9080 C   0  0  2  0  0  3  0  0  0  0  0  0
  161.5810  202.5220  147.7560 C   0  0  0  0  0  2  0  0  0  0  0  0
  162.4300  204.9070  147.3610 C   0  0  0  0  0  2  0  0  0  0  0  0
  161.5540  205.2900  152.3110 N   0  0  0  0  0  1  0  0  0  0  0  0
  161.1450  206.2390  151.2860 C   0  0  1  0  0  3  0  0  0  0  0  0
  161.5810  208.1730  149.1520 C   0  0  0  0  0  0  0  0  0  0  0  0
  161.6710  209.0580  148.2610 O   0  0  0  0  0  0  0  0  0  0  0  0
  161.6410  208.5620  150.5240 N   0  0  0  0  0  2  0  0  0  0  0  0
  161.7650  207.6040  151.6190 C   0  0  1  0  0  3  0  0  0  0  0  0
  161.8310  206.2850  147.4680 C   0  0  0  0  0  0  0  0  0  0  0  0
  161.2450  206.7500  148.7890 C   0  0  1  0  0  3  0  0  0  0  0  0
  161.7680  206.9870  146.4730 O   0  0  0  0  0  0  0  0  0  0  0  0
  160.2480  201.8770  148.1090 C   0  0  0  0  0  2  0  0  0  0  0  0
  160.3200  201.2040  149.4120 N   0  0  0  0  0  0  0  0  0  0  0  0
  160.8120  202.0790  150.4890 C   0  0  0  0  0  2  0  0  0  0  0  0
  161.6970  203.9390  148.2600 C   0  0  2  0  0  3  0  0  0  0  0  0
  160.3420  203.5270  150.3480 C   0  0  0  0  0  2  0  0  0  0  0  0
  161.2730  204.3530  149.4890 C   0  0  2  0  0  3  0  0  0  0  0  0
  160.7870  208.0660  155.2780 C   0  0  0  0  0  3  0  0  0  0  0  0
  160.5230  209.4160  152.8170 C   0  0  0  0  0  3  0  0  0  0  0  0
  158.9250  211.2880  155.6360 C   0  0  1  0  0  3  0  0  0  0  0  0
  159.4860  210.0220  156.3050 C   0  0  0  0  0  2  0  0  0  0  0  0
  160.1280  209.2920  155.1930 C   0  0  0  0  0  0  0  0  0  0  0  0
  159.2550  211.2210  154.1350 C   0  0  2  0  0  3  0  0  0  0  0  0
  160.0000  209.9500  153.9970 C   0  0  0  0  0  0  0  0  0  0  0  0
  160.0810  212.2920  153.7950 O   0  0  0  0  0  1  0  0  0  0  0  0
  161.1950  208.1840  152.8750 C   0  0  0  0  0  0  0  0  0  0  0  0
  161.3260  207.5120  154.1080 C   0  0  0  0  0  3  0  0  0  0  0  0
  157.4490  211.3890  155.8500 C   0  0  0  0  0  0  0  0  0  0  0  0
  156.6440  211.0810  154.9320 O   0  0  0  0  0  0  0  0  0  0  0  0
  156.9640  211.8290  157.0730 O   0  0  0  0  0  1  0  0  0  0  0  0
  158.9690  200.7880  149.7640 C   0  0  0  0  0  2  0  0  0  0  0  0
  156.7700  201.3280  149.0110 O   0  0  0  0  0  1  0  0  0  0  0  0
  158.0410  200.9530  148.5740 C   0  0  0  0  0  2  0  0  0  0  0  0
  1  5  1  0  0  0  0
  2 13  1  0  0  0  0
  2 16  1  0  0  0  0
  3 10  1  0  0  0  0
  3 16  1  0  0  0  0
  5  9  1  0  0  0  0
  5  4  1  0  0  0  0
  6  8  1  0  0  0  0
  7  6  2  0  0  0  0
  8  9  1  0  0  0  0
  9 27  1  0  0  0  0
 10 11  1  0  0  0  0
 11  6  1  0  0  0  0
 11  1  1  0  0  0  0
 12 10  2  0  0  0  0
 13 14  1  0  0  0  0
 14 32  1  0  0  0  0
 14 15  1  0  0  0  0
 16 18  1  0  0  0  0
 17 15  1  0  0  0  0
 18  1  1  0  0  0  0
 18 17  1  0  0  0  0
 20 27  2  0  0  0  0
 20 25  1  0  0  0  0
 21 29  1  0  0  0  0
 21 22  1  0  0  0  0
 23 19  1  0  0  0  0
 23 22  1  0  0  0  0
 24 21  1  0  0  0  0
 25 24  1  0  0  0  0
 25 23  2  0  0  0  0
 26 24  1  0  0  0  0
 27 28  1  0  0  0  0
 28 19  2  0  0  0  0
 29 31  1  0  0  0  0
 30 29  2  0  0  0  0
 34 33  1  0  0  0  0
 34 32  1  0  0  0  0
M  END
>  <MODEL>
5

>  <REMARK>
 VINA RESULT:      -7.0      2.637      9.279
  Name = 
  4 active torsions:
  status: ('A' for Active; 'I' for Inactive)
    1  A    between atoms: C_3  and  C_24
    2  A    between atoms: C_3  and  N_25
    3  A    between atoms: C_7  and  C_11
    4  A    between atoms: C_18  and  C_30
                            x       y       z     vdW  Elec       q    Type
                         _______ _______ _______ _____ _____    ______ ____

>  <TORSDO>
F 4

$$$$
