=
 OpenBabel11062408093D

 34 38  0  0  1  0  0  0  0  0999 V2000
  161.6570  205.3130  151.9500 C   0  0  0  0  0  0  0  0  0  0  0  0
  160.6980  205.6500  149.7420 C   0  0  0  0  0  0  0  0  0  0  0  0
  161.2000  207.6610  151.2720 C   0  0  0  0  0  0  0  0  0  0  0  0
  161.4330  210.0440  150.8280 C   0  0  0  0  0  0  0  0  0  0  0  0
  161.7400  203.9410  151.7060 C   0  0  0  0  0  3  0  0  0  0  0  0
  160.7810  204.2720  149.5150 C   0  0  0  0  0  3  0  0  0  0  0  0
  162.1540  208.3270  149.0440 C   0  0  0  0  0  2  0  0  0  0  0  0
  161.2210  206.2000  150.9410 C   0  0  0  0  0  0  0  0  0  0  0  0
  162.9860  209.4940  148.5150 C   0  0  0  0  0  2  0  0  0  0  0  0
  161.7360  211.0440  149.9970 C   0  0  0  0  0  3  0  0  0  0  0  0
  161.3220  203.4240  150.4800 C   0  0  0  0  0  3  0  0  0  0  0  0
  160.9490  208.0190  152.7050 C   0  0  0  0  0  0  0  0  0  0  0  0
  161.9850  205.8350  153.3160 C   0  0  0  0  0  2  0  0  0  0  0  0
  159.9250  206.4590  148.7550 C   0  0  0  0  0  1  0  0  0  0  0  0
  161.0200  210.3280  152.1280 O   0  0  0  0  0  0  0  0  0  0  0  0
  160.8140  209.3170  153.0780 C   0  0  0  0  0  0  0  0  0  0  0  0
  162.1680  210.7830  148.5840 C   0  0  1  0  0  3  0  0  0  0  0  0
  161.5650  208.6310  150.4030 C   0  0  0  0  0  0  0  0  0  0  0  0
  160.9580  206.8970  153.7130 C   0  0  0  0  0  2  0  0  0  0  0  0
  158.8960  210.7720  155.9920 C   0  0  0  0  0  0  0  0  0  0  0  0
  159.7520  210.5100  157.0650 C   0  0  0  0  0  3  0  0  0  0  0  0
  160.4850  209.7490  154.4590 C   0  0  0  0  0  0  0  0  0  0  0  0
  160.9680  209.8600  156.8430 C   0  0  0  0  0  3  0  0  0  0  0  0
  159.2590  210.3870  154.6980 C   0  0  0  0  0  3  0  0  0  0  0  0
  161.3300  209.4760  155.5490 C   0  0  0  0  0  3  0  0  0  0  0  0
  157.6540  211.4270  156.2170 N   0  0  0  0  0  1  0  0  0  0  0  0
  162.9780  211.9620  148.0750 C   0  0  0  0  0  2  0  0  0  0  0  0
  162.0770  213.1650  147.8550 C   0  0  0  0  0  2  0  0  0  0  0  0
  161.6150  212.9460  145.5110 O   0  0  0  0  0  1  0  0  0  0  0  0
  161.0430  212.8600  146.7830 C   0  0  2  0  0  3  0  0  0  0  0  0
  159.8360  213.7910  146.8930 C   0  0  0  0  0  2  0  0  0  0  0  0
  158.7840  213.5140  149.1420 O   0  0  0  0  0  1  0  0  0  0  0  0
  158.7640  213.2430  147.7800 C   0  0  0  0  0  0  0  0  0  0  0  0
  157.8310  212.5570  147.2900 O   0  0  0  0  0  0  0  0  0  0  0  0
  1 13  1  0  0  0  0
  2  8  1  0  0  0  0
  3 12  1  0  0  0  0
  4 15  1  0  0  0  0
  5  1  1  0  0  0  0
  6  2  2  0  0  0  0
  6 11  1  0  0  0  0
  7 18  1  0  0  0  0
  8  3  1  0  0  0  0
  8  1  2  0  0  0  0
  9 17  1  0  0  0  0
  9  7  1  0  0  0  0
 10  4  2  0  0  0  0
 11  5  2  0  0  0  0
 12 16  2  0  0  0  0
 12 19  1  0  0  0  0
 13 19  1  0  0  0  0
 14  2  1  0  0  0  0
 15 16  1  0  0  0  0
 16 22  1  0  0  0  0
 17 27  1  1  0  0  0
 17 10  1  0  0  0  0
 18  4  1  0  0  0  0
 18  3  2  0  0  0  0
 20 26  1  0  0  0  0
 20 21  1  0  0  0  0
 22 24  1  0  0  0  0
 22 25  2  0  0  0  0
 23 21  2  0  0  0  0
 24 20  2  0  0  0  0
 25 23  1  0  0  0  0
 28 27  1  0  0  0  0
 30 29  1  6  0  0  0
 30 31  1  0  0  0  0
 30 28  1  0  0  0  0
 31 33  1  0  0  0  0
 33 32  1  0  0  0  0
 34 33  2  0  0  0  0
M  END
>  <MODEL>
1

>  <REMARK>
 VINA RESULT:      -7.6      0.000      0.000
  Name = 
  6 active torsions:
  status: ('A' for Active; 'I' for Inactive)
    1  A    between atoms: C_3  and  C_13
    2  A    between atoms: C_3  and  C_29
    3  A    between atoms: C_12  and  C_28
    4  A    between atoms: C_13  and  C_33
    5  A    between atoms: C_20  and  C_22
    6  A    between atoms: C_22  and  C_33
                            x       y       z     vdW  Elec       q    Type
                         _______ _______ _______ _____ _____    ______ ____

>  <TORSDO>
F 6

$$$$
=
 OpenBabel11062408093D

 34 38  0  0  1  0  0  0  0  0999 V2000
  161.6560  205.2750  151.9680 C   0  0  0  0  0  0  0  0  0  0  0  0
  160.6750  205.6140  149.7700 C   0  0  0  0  0  0  0  0  0  0  0  0
  161.1890  207.6230  151.2970 C   0  0  0  0  0  0  0  0  0  0  0  0
  161.4150  210.0070  150.8540 C   0  0  0  0  0  0  0  0  0  0  0  0
  161.7390  203.9040  151.7210 C   0  0  0  0  0  3  0  0  0  0  0  0
  160.7570  204.2360  149.5410 C   0  0  0  0  0  3  0  0  0  0  0  0
  162.1200  208.2930  149.0600 C   0  0  0  0  0  2  0  0  0  0  0  0
  161.2090  206.1630  150.9640 C   0  0  0  0  0  0  0  0  0  0  0  0
  162.9450  209.4630  148.5250 C   0  0  0  0  0  2  0  0  0  0  0  0
  161.7080  211.0090  150.0220 C   0  0  0  0  0  3  0  0  0  0  0  0
  161.3100  203.3880  150.4990 C   0  0  0  0  0  3  0  0  0  0  0  0
  160.9520  207.9790  152.7340 C   0  0  0  0  0  0  0  0  0  0  0  0
  161.9980  205.7960  153.3310 C   0  0  0  0  0  2  0  0  0  0  0  0
  159.8910  206.4230  148.7920 C   0  0  0  0  0  1  0  0  0  0  0  0
  161.0140  210.2890  152.1580 O   0  0  0  0  0  0  0  0  0  0  0  0
  160.8190  209.2760  153.1100 C   0  0  0  0  0  0  0  0  0  0  0  0
  162.1260  210.7510  148.6040 C   0  0  1  0  0  3  0  0  0  0  0  0
  161.5440  208.5950  150.4260 C   0  0  0  0  0  0  0  0  0  0  0  0
  160.9730  206.8560  153.7400 C   0  0  0  0  0  2  0  0  0  0  0  0
  158.9400  210.7500  156.0390 C   0  0  0  0  0  0  0  0  0  0  0  0
  159.7950  210.4650  157.1070 C   0  0  0  0  0  3  0  0  0  0  0  0
  160.5040  209.7060  154.4950 C   0  0  0  0  0  0  0  0  0  0  0  0
  160.9980  209.7940  156.8770 C   0  0  0  0  0  3  0  0  0  0  0  0
  159.2910  210.3660  154.7420 C   0  0  0  0  0  3  0  0  0  0  0  0
  161.3480  209.4110  155.5800 C   0  0  0  0  0  3  0  0  0  0  0  0
  157.7110  211.4260  156.2730 N   0  0  0  0  0  1  0  0  0  0  0  0
  162.9290  211.9310  148.0890 C   0  0  0  0  0  2  0  0  0  0  0  0
  162.0500  213.1660  147.9930 C   0  0  0  0  0  2  0  0  0  0  0  0
  160.5870  212.3770  146.2610 O   0  0  0  0  0  1  0  0  0  0  0  0
  161.5470  213.3450  146.5690 C   0  0  2  0  0  3  0  0  0  0  0  0
  162.6960  213.3000  145.5630 C   0  0  0  0  0  2  0  0  0  0  0  0
  162.5640  212.5100  143.1960 O   0  0  0  0  0  0  0  0  0  0  0  0
  162.2340  213.4630  144.1500 C   0  0  0  0  0  0  0  0  0  0  0  0
  161.5230  214.4510  143.8310 O   0  0  0  0  0  1  0  0  0  0  0  0
  1 13  1  0  0  0  0
  2  8  1  0  0  0  0
  3 12  1  0  0  0  0
  4 15  1  0  0  0  0
  5  1  1  0  0  0  0
  6  2  2  0  0  0  0
  6 11  1  0  0  0  0
  7 18  1  0  0  0  0
  8  3  1  0  0  0  0
  8  1  2  0  0  0  0
  9 17  1  0  0  0  0
  9  7  1  0  0  0  0
 10  4  2  0  0  0  0
 11  5  2  0  0  0  0
 12 16  2  0  0  0  0
 12 19  1  0  0  0  0
 13 19  1  0  0  0  0
 14  2  1  0  0  0  0
 15 16  1  0  0  0  0
 16 22  1  0  0  0  0
 17 27  1  1  0  0  0
 17 10  1  0  0  0  0
 18  4  1  0  0  0  0
 18  3  2  0  0  0  0
 20 26  1  0  0  0  0
 20 21  1  0  0  0  0
 22 24  1  0  0  0  0
 22 25  2  0  0  0  0
 23 21  2  0  0  0  0
 24 20  2  0  0  0  0
 25 23  1  0  0  0  0
 28 27  1  0  0  0  0
 30 29  1  6  0  0  0
 30 28  1  0  0  0  0
 31 30  1  0  0  0  0
 32 33  2  0  0  0  0
 33 31  1  0  0  0  0
 34 33  1  0  0  0  0
M  END
>  <MODEL>
2

>  <REMARK>
 VINA RESULT:      -7.5      1.037      1.862
  Name = 
  6 active torsions:
  status: ('A' for Active; 'I' for Inactive)
    1  A    between atoms: C_3  and  C_13
    2  A    between atoms: C_3  and  C_29
    3  A    between atoms: C_12  and  C_28
    4  A    between atoms: C_13  and  C_33
    5  A    between atoms: C_20  and  C_22
    6  A    between atoms: C_22  and  C_33
                            x       y       z     vdW  Elec       q    Type
                         _______ _______ _______ _____ _____    ______ ____

>  <TORSDO>
F 6

$$$$
=
 OpenBabel11062408093D

 34 38  0  0  1  0  0  0  0  0999 V2000
  160.8400  205.9970  149.5750 C   0  0  0  0  0  0  0  0  0  0  0  0
  162.0130  205.3930  151.6170 C   0  0  0  0  0  0  0  0  0  0  0  0
  161.5450  207.8640  151.0580 C   0  0  0  0  0  0  0  0  0  0  0  0
  161.5460  209.8840  152.4180 C   0  0  0  0  0  0  0  0  0  0  0  0
  160.6670  204.6450  149.2740 C   0  0  0  0  0  3  0  0  0  0  0  0
  161.8390  204.0430  151.2970 C   0  0  0  0  0  3  0  0  0  0  0  0
  160.8470  207.6310  153.4620 C   0  0  0  0  0  2  0  0  0  0  0  0
  161.4340  206.3930  150.7940 C   0  0  0  0  0  0  0  0  0  0  0  0
  160.1630  208.5270  154.4940 C   0  0  0  0  0  2  0  0  0  0  0  0
  161.4000  210.4850  153.6020 C   0  0  0  0  0  3  0  0  0  0  0  0
  161.1470  203.6690  150.1450 C   0  0  0  0  0  3  0  0  0  0  0  0
  161.6980  208.7490  149.8590 C   0  0  0  0  0  0  0  0  0  0  0  0
  160.4370  207.0300  148.5670 C   0  0  0  0  0  2  0  0  0  0  0  0
  162.9340  205.7130  152.7470 C   0  0  0  0  0  1  0  0  0  0  0  0
  161.8660  210.6420  151.2940 O   0  0  0  0  0  0  0  0  0  0  0  0
  161.9050  210.0820  150.0090 C   0  0  0  0  0  0  0  0  0  0  0  0
  161.0740  209.7030  154.8410 C   0  0  1  0  0  3  0  0  0  0  0  0
  161.3380  208.4240  152.2710 C   0  0  0  0  0  0  0  0  0  0  0  0
  161.5090  208.1190  148.5020 C   0  0  0  0  0  2  0  0  0  0  0  0
  161.2290  212.3750  147.0810 C   0  0  0  0  0  0  0  0  0  0  0  0
  162.5090  212.8490  146.7800 C   0  0  0  0  0  3  0  0  0  0  0  0
  162.1450  211.0120  148.8770 C   0  0  0  0  0  0  0  0  0  0  0  0
  163.6060  212.4170  147.5290 C   0  0  0  0  0  3  0  0  0  0  0  0
  161.0490  211.4670  148.1280 C   0  0  0  0  0  3  0  0  0  0  0  0
  163.4240  211.5090  148.5750 C   0  0  0  0  0  3  0  0  0  0  0  0
  160.1100  212.8200  146.3240 N   0  0  0  0  0  1  0  0  0  0  0  0
  160.4110  210.6160  155.8560 C   0  0  0  0  0  2  0  0  0  0  0  0
  160.0090  211.9270  155.2040 C   0  0  0  0  0  2  0  0  0  0  0  0
  157.8880  211.1120  155.9750 O   0  0  0  0  0  1  0  0  0  0  0  0
  158.4950  212.0250  155.1080 C   0  0  2  0  0  3  0  0  0  0  0  0
  158.0110  211.8070  153.6750 C   0  0  0  0  0  2  0  0  0  0  0  0
  158.3320  214.2010  153.0380 O   0  0  0  0  0  1  0  0  0  0  0  0
  158.5050  212.8580  152.7340 C   0  0  0  0  0  0  0  0  0  0  0  0
  159.1000  212.5260  151.6750 O   0  0  0  0  0  0  0  0  0  0  0  0
  1  8  1  0  0  0  0
  2 14  1  0  0  0  0
  3 18  2  0  0  0  0
  4 10  2  0  0  0  0
  5  1  2  0  0  0  0
  5 11  1  0  0  0  0
  6  2  1  0  0  0  0
  7  9  1  0  0  0  0
  8  3  1  0  0  0  0
  8  2  2  0  0  0  0
  9 17  1  0  0  0  0
 10 17  1  0  0  0  0
 11  6  2  0  0  0  0
 12 16  2  0  0  0  0
 12  3  1  0  0  0  0
 13  1  1  0  0  0  0
 15  4  1  0  0  0  0
 16 15  1  0  0  0  0
 17 27  1  1  0  0  0
 18  4  1  0  0  0  0
 18  7  1  0  0  0  0
 19 13  1  0  0  0  0
 19 12  1  0  0  0  0
 20 24  1  0  0  0  0
 21 20  2  0  0  0  0
 21 23  1  0  0  0  0
 22 16  1  0  0  0  0
 23 25  2  0  0  0  0
 24 22  2  0  0  0  0
 25 22  1  0  0  0  0
 26 20  1  0  0  0  0
 28 27  1  0  0  0  0
 30 28  1  0  0  0  0
 30 29  1  1  0  0  0
 31 30  1  0  0  0  0
 33 32  1  0  0  0  0
 33 31  1  0  0  0  0
 34 33  2  0  0  0  0
M  END
>  <MODEL>
3

>  <REMARK>
 VINA RESULT:      -7.4      2.485      6.073
  Name = 
  6 active torsions:
  status: ('A' for Active; 'I' for Inactive)
    1  A    between atoms: C_3  and  C_13
    2  A    between atoms: C_3  and  C_29
    3  A    between atoms: C_12  and  C_28
    4  A    between atoms: C_13  and  C_33
    5  A    between atoms: C_20  and  C_22
    6  A    between atoms: C_22  and  C_33
                            x       y       z     vdW  Elec       q    Type
                         _______ _______ _______ _____ _____    ______ ____

>  <TORSDO>
F 6

$$$$
=
 OpenBabel11062408093D

 34 38  0  0  1  0  0  0  0  0999 V2000
  160.3360  208.3230  155.3970 C   0  0  0  0  0  0  0  0  0  0  0  0
  162.0690  210.0110  155.1610 C   0  0  0  0  0  0  0  0  0  0  0  0
  161.3700  208.5630  153.1480 C   0  0  0  0  0  0  0  0  0  0  0  0
  161.6900  208.8230  150.7480 C   0  0  0  0  0  0  0  0  0  0  0  0
  160.1330  208.7150  156.7210 C   0  0  0  0  0  3  0  0  0  0  0  0
  161.8590  210.3880  156.4910 C   0  0  0  0  0  3  0  0  0  0  0  0
  161.4040  210.9070  152.2410 C   0  0  0  0  0  2  0  0  0  0  0  0
  161.2410  209.0240  154.5680 C   0  0  0  0  0  0  0  0  0  0  0  0
  161.0140  211.5750  150.9230 C   0  0  0  0  0  2  0  0  0  0  0  0
  161.8690  209.6040  149.6800 C   0  0  0  0  0  3  0  0  0  0  0  0
  160.8790  209.7620  157.2610 C   0  0  0  0  0  3  0  0  0  0  0  0
  161.1380  207.1050  152.8940 C   0  0  0  0  0  0  0  0  0  0  0  0
  159.6220  207.1140  154.8730 C   0  0  0  0  0  2  0  0  0  0  0  0
  163.2640  210.5800  154.4710 C   0  0  0  0  0  1  0  0  0  0  0  0
  161.6440  207.4400  150.5910 O   0  0  0  0  0  0  0  0  0  0  0  0
  161.3310  206.5820  151.6560 C   0  0  0  0  0  0  0  0  0  0  0  0
  161.9420  211.0980  149.8070 C   0  0  1  0  0  3  0  0  0  0  0  0
  161.5010  209.4050  152.0980 C   0  0  0  0  0  0  0  0  0  0  0  0
  160.5890  206.2800  154.0310 C   0  0  0  0  0  2  0  0  0  0  0  0
  161.0550  203.3850  149.6590 C   0  0  0  0  0  0  0  0  0  0  0  0
  161.0490  202.4130  150.6630 C   0  0  0  0  0  3  0  0  0  0  0  0
  161.2000  205.1380  151.3410 C   0  0  0  0  0  0  0  0  0  0  0  0
  161.1280  202.7960  152.0030 C   0  0  0  0  0  3  0  0  0  0  0  0
  161.1370  204.7390  149.9970 C   0  0  0  0  0  3  0  0  0  0  0  0
  161.2100  204.1500  152.3400 C   0  0  0  0  0  3  0  0  0  0  0  0
  160.9820  202.9970  148.2930 N   0  0  0  0  0  1  0  0  0  0  0  0
  161.5670  211.7380  148.4840 C   0  0  0  0  0  2  0  0  0  0  0  0
  160.9060  213.0860  148.7190 C   0  0  0  0  0  2  0  0  0  0  0  0
  159.2380  214.3610  147.5560 O   0  0  0  0  0  1  0  0  0  0  0  0
  160.4530  213.6870  147.3980 C   0  0  2  0  0  3  0  0  0  0  0  0
  160.3370  212.6200  146.3110 C   0  0  0  0  0  2  0  0  0  0  0  0
  160.3930  213.0270  143.8460 O   0  0  0  0  0  0  0  0  0  0  0  0
  161.0670  212.9890  145.0590 C   0  0  0  0  0  0  0  0  0  0  0  0
  162.2880  213.2900  145.1080 O   0  0  0  0  0  1  0  0  0  0  0  0
  1  5  1  0  0  0  0
  2  6  2  0  0  0  0
  3  8  1  0  0  0  0
  4 18  1  0  0  0  0
  5 11  2  0  0  0  0
  6 11  1  0  0  0  0
  8  2  1  0  0  0  0
  8  1  2  0  0  0  0
  9  7  1  0  0  0  0
 10 17  1  0  0  0  0
 10  4  2  0  0  0  0
 12  3  1  0  0  0  0
 12 19  1  0  0  0  0
 13  1  1  0  0  0  0
 14  2  1  0  0  0  0
 15  4  1  0  0  0  0
 15 16  1  0  0  0  0
 16 12  2  0  0  0  0
 17 27  1  6  0  0  0
 17  9  1  0  0  0  0
 18  7  1  0  0  0  0
 18  3  2  0  0  0  0
 19 13  1  0  0  0  0
 20 24  2  0  0  0  0
 20 21  1  0  0  0  0
 21 23  2  0  0  0  0
 22 16  1  0  0  0  0
 22 25  2  0  0  0  0
 23 25  1  0  0  0  0
 24 22  1  0  0  0  0
 26 20  1  0  0  0  0
 27 28  1  0  0  0  0
 30 29  1  1  0  0  0
 30 28  1  0  0  0  0
 31 30  1  0  0  0  0
 32 33  2  0  0  0  0
 33 34  1  0  0  0  0
 33 31  1  0  0  0  0
M  END
>  <MODEL>
4

>  <REMARK>
 VINA RESULT:      -6.5      2.514      5.682
  Name = 
  6 active torsions:
  status: ('A' for Active; 'I' for Inactive)
    1  A    between atoms: C_3  and  C_13
    2  A    between atoms: C_3  and  C_29
    3  A    between atoms: C_12  and  C_28
    4  A    between atoms: C_13  and  C_33
    5  A    between atoms: C_20  and  C_22
    6  A    between atoms: C_22  and  C_33
                            x       y       z     vdW  Elec       q    Type
                         _______ _______ _______ _____ _____    ______ ____

>  <TORSDO>
F 6

$$$$
=
 OpenBabel11062408093D

 34 38  0  0  1  0  0  0  0  0999 V2000
  160.4050  213.3740  149.2000 C   0  0  0  0  0  0  0  0  0  0  0  0
  162.4740  212.5100  148.2630 C   0  0  0  0  0  0  0  0  0  0  0  0
  161.3130  211.2930  150.2140 C   0  0  0  0  0  0  0  0  0  0  0  0
  161.5250  209.0350  151.1000 C   0  0  0  0  0  0  0  0  0  0  0  0
  160.3920  214.3860  148.2390 C   0  0  0  0  0  3  0  0  0  0  0  0
  162.4520  213.5350  147.3110 C   0  0  0  0  0  3  0  0  0  0  0  0
  161.8520  209.4630  148.5780 C   0  0  0  0  0  2  0  0  0  0  0  0
  161.3950  212.3660  149.1710 C   0  0  0  0  0  0  0  0  0  0  0  0
  161.5470  207.9690  148.4690 C   0  0  0  0  0  2  0  0  0  0  0  0
  161.8150  207.7440  150.9260 C   0  0  0  0  0  3  0  0  0  0  0  0
  161.4030  214.4530  147.2820 C   0  0  0  0  0  3  0  0  0  0  0  0
  160.7190  211.6860  151.5330 C   0  0  0  0  0  0  0  0  0  0  0  0
  159.3860  213.3930  150.2980 C   0  0  0  0  0  2  0  0  0  0  0  0
  163.7230  211.6970  148.3600 C   0  0  0  0  0  1  0  0  0  0  0  0
  161.1360  209.4910  152.3580 O   0  0  0  0  0  0  0  0  0  0  0  0
  160.6960  210.8070  152.5670 C   0  0  0  0  0  0  0  0  0  0  0  0
  162.2560  207.2150  149.5930 C   0  0  1  0  0  3  0  0  0  0  0  0
  161.5730  209.9890  149.9680 C   0  0  0  0  0  0  0  0  0  0  0  0
  160.0640  213.0410  151.6240 C   0  0  0  0  0  2  0  0  0  0  0  0
  158.3130  211.3980  155.4400 C   0  0  0  0  0  0  0  0  0  0  0  0
  159.1880  211.6750  156.4930 C   0  0  0  0  0  3  0  0  0  0  0  0
  160.2000  211.1430  153.9240 C   0  0  0  0  0  0  0  0  0  0  0  0
  160.5670  211.6770  156.2710 C   0  0  0  0  0  3  0  0  0  0  0  0
  158.8170  211.1280  154.1650 C   0  0  0  0  0  3  0  0  0  0  0  0
  161.0700  211.4070  154.9960 C   0  0  0  0  0  3  0  0  0  0  0  0
  156.9090  211.3880  155.6660 N   0  0  0  0  0  1  0  0  0  0  0  0
  161.9600  205.7290  149.5140 C   0  0  0  0  0  2  0  0  0  0  0  0
  161.0900  205.3010  150.6840 C   0  0  0  0  0  2  0  0  0  0  0  0
  161.4570  203.0700  151.4880 O   0  0  0  0  0  1  0  0  0  0  0  0
  160.7320  203.8280  150.5630 C   0  0  2  0  0  3  0  0  0  0  0  0
  160.9680  203.3120  149.1440 C   0  0  0  0  0  2  0  0  0  0  0  0
  161.4710  200.9510  148.5010 O   0  0  0  0  0  0  0  0  0  0  0  0
  160.5590  201.8840  148.9750 C   0  0  0  0  0  0  0  0  0  0  0  0
  159.3940  201.5220  149.2840 O   0  0  0  0  0  1  0  0  0  0  0  0
  1 13  1  0  0  0  0
  2 14  1  0  0  0  0
  2  8  2  0  0  0  0
  3 12  1  0  0  0  0
  4 15  1  0  0  0  0
  5  1  2  0  0  0  0
  6  2  1  0  0  0  0
  7 18  1  0  0  0  0
  8  1  1  0  0  0  0
  8  3  1  0  0  0  0
  9  7  1  0  0  0  0
  9 17  1  0  0  0  0
 10  4  2  0  0  0  0
 11  6  2  0  0  0  0
 11  5  1  0  0  0  0
 12 19  1  0  0  0  0
 12 16  2  0  0  0  0
 13 19  1  0  0  0  0
 15 16  1  0  0  0  0
 16 22  1  0  0  0  0
 17 27  1  1  0  0  0
 17 10  1  0  0  0  0
 18  3  2  0  0  0  0
 18  4  1  0  0  0  0
 20 26  1  0  0  0  0
 20 21  1  0  0  0  0
 22 24  1  0  0  0  0
 22 25  2  0  0  0  0
 23 21  2  0  0  0  0
 24 20  2  0  0  0  0
 25 23  1  0  0  0  0
 27 28  1  0  0  0  0
 30 28  1  0  0  0  0
 30 29  1  1  0  0  0
 31 30  1  0  0  0  0
 32 33  2  0  0  0  0
 33 31  1  0  0  0  0
 33 34  1  0  0  0  0
M  END
>  <MODEL>
5

>  <REMARK>
 VINA RESULT:      -6.5      3.007      6.949
  Name = 
  6 active torsions:
  status: ('A' for Active; 'I' for Inactive)
    1  A    between atoms: C_3  and  C_13
    2  A    between atoms: C_3  and  C_29
    3  A    between atoms: C_12  and  C_28
    4  A    between atoms: C_13  and  C_33
    5  A    between atoms: C_20  and  C_22
    6  A    between atoms: C_22  and  C_33
                            x       y       z     vdW  Elec       q    Type
                         _______ _______ _______ _____ _____    ______ ____

>  <TORSDO>
F 6

$$$$
=
 OpenBabel11062408093D

 34 38  0  0  1  0  0  0  0  0999 V2000
  160.6910  207.3670  154.9250 C   0  0  0  0  0  0  0  0  0  0  0  0
  161.8340  209.4050  155.5950 C   0  0  0  0  0  0  0  0  0  0  0  0
  161.1940  209.0140  153.1310 C   0  0  0  0  0  0  0  0  0  0  0  0
  160.9890  210.5200  151.2290 C   0  0  0  0  0  0  0  0  0  0  0  0
  160.6350  206.9590  156.2590 C   0  0  0  0  0  3  0  0  0  0  0  0
  161.7780  208.9780  156.9260 C   0  0  0  0  0  3  0  0  0  0  0  0
  160.4320  211.3630  153.6020 C   0  0  0  0  0  2  0  0  0  0  0  0
  161.2080  208.6360  154.5810 C   0  0  0  0  0  0  0  0  0  0  0  0
  159.6440  212.4290  152.8440 C   0  0  0  0  0  2  0  0  0  0  0  0
  160.7540  211.7380  150.7340 C   0  0  0  0  0  3  0  0  0  0  0  0
  161.1590  207.7740  157.2610 C   0  0  0  0  0  3  0  0  0  0  0  0
  161.3200  207.8920  152.1460 C   0  0  0  0  0  0  0  0  0  0  0  0
  160.2440  206.4240  153.8500 C   0  0  0  0  0  2  0  0  0  0  0  0
  162.6860  210.5930  155.2960 C   0  0  0  0  0  1  0  0  0  0  0  0
  161.2880  209.4700  150.3640 O   0  0  0  0  0  0  0  0  0  0  0  0
  161.4160  208.1490  150.8170 C   0  0  0  0  0  0  0  0  0  0  0  0
  160.4470  212.9010  151.6320 C   0  0  1  0  0  3  0  0  0  0  0  0
  160.9010  210.2560  152.6840 C   0  0  0  0  0  0  0  0  0  0  0  0
  161.2290  206.4840  152.6810 C   0  0  0  0  0  2  0  0  0  0  0  0
  161.2990  204.7960  149.0770 C   0  0  0  0  0  0  0  0  0  0  0  0
  161.8910  205.0860  147.8440 C   0  0  0  0  0  3  0  0  0  0  0  0
  161.6230  207.1010  149.7870 C   0  0  0  0  0  0  0  0  0  0  0  0
  162.3400  206.3800  147.5740 C   0  0  0  0  0  3  0  0  0  0  0  0
  161.1610  205.8000  150.0390 C   0  0  0  0  0  3  0  0  0  0  0  0
  162.2010  207.3830  148.5370 C   0  0  0  0  0  3  0  0  0  0  0  0
  160.8350  203.4800  149.3500 N   0  0  0  0  0  1  0  0  0  0  0  0
  159.6790  213.9530  150.8540 C   0  0  0  0  0  2  0  0  0  0  0  0
  160.4810  214.4070  149.6470 C   0  0  0  0  0  2  0  0  0  0  0  0
  158.3140  214.0510  148.6810 O   0  0  0  0  0  1  0  0  0  0  0  0
  159.6660  214.2310  148.3760 C   0  0  2  0  0  3  0  0  0  0  0  0
  160.1870  213.0650  147.5380 C   0  0  0  0  0  2  0  0  0  0  0  0
  162.4990  212.2110  147.9420 O   0  0  0  0  0  1  0  0  0  0  0  0
  161.6640  213.1270  147.3180 C   0  0  0  0  0  0  0  0  0  0  0  0
  162.1500  213.9960  146.5470 O   0  0  0  0  0  0  0  0  0  0  0  0
  1  5  1  0  0  0  0
  2  6  2  0  0  0  0
  3  8  1  0  0  0  0
  4 18  1  0  0  0  0
  5 11  2  0  0  0  0
  6 11  1  0  0  0  0
  8  1  2  0  0  0  0
  8  2  1  0  0  0  0
  9  7  1  0  0  0  0
 10  4  2  0  0  0  0
 10 17  1  0  0  0  0
 12 19  1  0  0  0  0
 12  3  1  0  0  0  0
 13  1  1  0  0  0  0
 14  2  1  0  0  0  0
 15 16  1  0  0  0  0
 15  4  1  0  0  0  0
 16 12  2  0  0  0  0
 17 27  1  6  0  0  0
 17  9  1  0  0  0  0
 18  3  2  0  0  0  0
 18  7  1  0  0  0  0
 19 13  1  0  0  0  0
 20 26  1  0  0  0  0
 20 24  1  0  0  0  0
 21 20  2  0  0  0  0
 22 24  2  0  0  0  0
 22 16  1  0  0  0  0
 23 21  1  0  0  0  0
 23 25  2  0  0  0  0
 25 22  1  0  0  0  0
 28 27  1  0  0  0  0
 30 29  1  1  0  0  0
 30 28  1  0  0  0  0
 31 30  1  0  0  0  0
 33 31  1  0  0  0  0
 33 32  1  0  0  0  0
 34 33  2  0  0  0  0
M  END
>  <MODEL>
6

>  <REMARK>
 VINA RESULT:      -6.4      2.525      5.716
  Name = 
  6 active torsions:
  status: ('A' for Active; 'I' for Inactive)
    1  A    between atoms: C_3  and  C_13
    2  A    between atoms: C_3  and  C_29
    3  A    between atoms: C_12  and  C_28
    4  A    between atoms: C_13  and  C_33
    5  A    between atoms: C_20  and  C_22
    6  A    between atoms: C_22  and  C_33
                            x       y       z     vdW  Elec       q    Type
                         _______ _______ _______ _____ _____    ______ ____

>  <TORSDO>
F 6

$$$$
=
 OpenBabel11062408093D

 34 38  0  0  1  0  0  0  0  0999 V2000
  161.9930  209.3020  155.0770 C   0  0  0  0  0  0  0  0  0  0  0  0
  160.3610  207.5110  155.2710 C   0  0  0  0  0  0  0  0  0  0  0  0
  161.1850  208.2860  152.9570 C   0  0  0  0  0  0  0  0  0  0  0  0
  161.1030  207.2520  150.7540 C   0  0  0  0  0  0  0  0  0  0  0  0
  162.0870  209.3680  156.4690 C   0  0  0  0  0  3  0  0  0  0  0  0
  160.4610  207.5950  156.6640 C   0  0  0  0  0  3  0  0  0  0  0  0
  161.3330  205.7790  152.8580 C   0  0  0  0  0  2  0  0  0  0  0  0
  161.1990  208.3130  154.4550 C   0  0  0  0  0  0  0  0  0  0  0  0
  161.8720  204.7540  151.8610 C   0  0  0  0  0  2  0  0  0  0  0  0
  161.0570  206.1610  149.9860 C   0  0  0  0  0  3  0  0  0  0  0  0
  161.3380  208.4990  157.2610 C   0  0  0  0  0  3  0  0  0  0  0  0
  161.3790  209.5990  152.2620 C   0  0  0  0  0  0  0  0  0  0  0  0
  162.7030  210.3270  154.2460 C   0  0  0  0  0  2  0  0  0  0  0  0
  159.2610  206.6700  154.7150 C   0  0  0  0  0  1  0  0  0  0  0  0
  161.1060  208.5130  150.1610 O   0  0  0  0  0  0  0  0  0  0  0  0
  161.2820  209.6850  150.9110 C   0  0  0  0  0  0  0  0  0  0  0  0
  161.0330  204.7850  150.5840 C   0  0  1  0  0  3  0  0  0  0  0  0
  161.1880  207.1470  152.2290 C   0  0  0  0  0  0  0  0  0  0  0  0
  161.7850  210.7800  153.1090 C   0  0  0  0  0  2  0  0  0  0  0  0
  162.3840  212.2150  148.3280 C   0  0  0  0  0  0  0  0  0  0  0  0
  161.5600  213.3060  148.6180 C   0  0  0  0  0  3  0  0  0  0  0  0
  161.3820  210.9590  150.1560 C   0  0  0  0  0  0  0  0  0  0  0  0
  160.6410  213.2260  149.6660 C   0  0  0  0  0  3  0  0  0  0  0  0
  162.2900  211.0470  149.0890 C   0  0  0  0  0  3  0  0  0  0  0  0
  160.5480  212.0570  150.4260 C   0  0  0  0  0  3  0  0  0  0  0  0
  163.3150  212.2930  147.2560 N   0  0  0  0  0  1  0  0  0  0  0  0
  161.5570  203.7830  149.5720 C   0  0  0  0  0  2  0  0  0  0  0  0
  160.6010  202.6080  149.4490 C   0  0  0  0  0  2  0  0  0  0  0  0
  161.3500  200.6840  148.2270 O   0  0  0  0  0  1  0  0  0  0  0  0
  160.7570  201.9430  148.0910 C   0  0  2  0  0  3  0  0  0  0  0  0
  161.5650  202.8160  147.1320 C   0  0  0  0  0  2  0  0  0  0  0  0
  161.1540  203.9500  144.9440 O   0  0  0  0  0  0  0  0  0  0  0  0
  160.9990  202.8280  145.7480 C   0  0  0  0  0  0  0  0  0  0  0  0
  160.4050  201.8130  145.3020 O   0  0  0  0  0  1  0  0  0  0  0  0
  1  5  1  0  0  0  0
  2  6  2  0  0  0  0
  3  8  1  0  0  0  0
  4 18  1  0  0  0  0
  5 11  2  0  0  0  0
  6 11  1  0  0  0  0
  8  1  2  0  0  0  0
  8  2  1  0  0  0  0
  9  7  1  0  0  0  0
 10 17  1  0  0  0  0
 10  4  2  0  0  0  0
 12  3  1  0  0  0  0
 12 19  1  0  0  0  0
 13  1  1  0  0  0  0
 14  2  1  0  0  0  0
 15  4  1  0  0  0  0
 15 16  1  0  0  0  0
 16 12  2  0  0  0  0
 17 27  1  6  0  0  0
 17  9  1  0  0  0  0
 18  7  1  0  0  0  0
 18  3  2  0  0  0  0
 19 13  1  0  0  0  0
 20 21  2  0  0  0  0
 20 24  1  0  0  0  0
 21 23  1  0  0  0  0
 22 25  1  0  0  0  0
 22 16  1  0  0  0  0
 23 25  2  0  0  0  0
 24 22  2  0  0  0  0
 26 20  1  0  0  0  0
 28 27  1  0  0  0  0
 30 29  1  1  0  0  0
 30 28  1  0  0  0  0
 31 30  1  0  0  0  0
 32 33  2  0  0  0  0
 33 31  1  0  0  0  0
 34 33  1  0  0  0  0
M  END
>  <MODEL>
7

>  <REMARK>
 VINA RESULT:      -6.3      3.862      7.407
  Name = 
  6 active torsions:
  status: ('A' for Active; 'I' for Inactive)
    1  A    between atoms: C_3  and  C_13
    2  A    between atoms: C_3  and  C_29
    3  A    between atoms: C_12  and  C_28
    4  A    between atoms: C_13  and  C_33
    5  A    between atoms: C_20  and  C_22
    6  A    between atoms: C_22  and  C_33
                            x       y       z     vdW  Elec       q    Type
                         _______ _______ _______ _____ _____    ______ ____

>  <TORSDO>
F 6

$$$$
=
 OpenBabel11062408093D

 34 38  0  0  1  0  0  0  0  0999 V2000
  161.9680  209.2310  155.0770 C   0  0  0  0  0  0  0  0  0  0  0  0
  160.3060  207.4680  155.2700 C   0  0  0  0  0  0  0  0  0  0  0  0
  161.1470  208.2260  152.9570 C   0  0  0  0  0  0  0  0  0  0  0  0
  161.0510  207.1910  150.7550 C   0  0  0  0  0  0  0  0  0  0  0  0
  162.0610  209.2970  156.4690 C   0  0  0  0  0  3  0  0  0  0  0  0
  160.4040  207.5520  156.6630 C   0  0  0  0  0  3  0  0  0  0  0  0
  161.2530  205.7170  152.8610 C   0  0  0  0  0  2  0  0  0  0  0  0
  161.1590  208.2550  154.4550 C   0  0  0  0  0  0  0  0  0  0  0  0
  161.7760  204.6810  151.8660 C   0  0  0  0  0  2  0  0  0  0  0  0
  160.9880  206.1000  149.9880 C   0  0  0  0  0  3  0  0  0  0  0  0
  161.2950  208.4430  157.2610 C   0  0  0  0  0  3  0  0  0  0  0  0
  161.3640  209.5350  152.2600 C   0  0  0  0  0  0  0  0  0  0  0  0
  162.6960  210.2430  154.2460 C   0  0  0  0  0  2  0  0  0  0  0  0
  159.1920  206.6450  154.7140 C   0  0  0  0  0  1  0  0  0  0  0  0
  161.0760  208.4510  150.1600 O   0  0  0  0  0  0  0  0  0  0  0  0
  161.2710  209.6210  150.9090 C   0  0  0  0  0  0  0  0  0  0  0  0
  160.9400  204.7250  150.5880 C   0  0  1  0  0  3  0  0  0  0  0  0
  161.1320  207.0860  152.2300 C   0  0  0  0  0  0  0  0  0  0  0  0
  161.7880  210.7100  153.1060 C   0  0  0  0  0  2  0  0  0  0  0  0
  162.4470  212.1390  148.3480 C   0  0  0  0  0  0  0  0  0  0  0  0
  161.6170  213.2330  148.6120 C   0  0  0  0  0  3  0  0  0  0  0  0
  161.3930  210.8920  150.1530 C   0  0  0  0  0  0  0  0  0  0  0  0
  160.6690  213.1580  149.6350 C   0  0  0  0  0  3  0  0  0  0  0  0
  162.3300  210.9740  149.1110 C   0  0  0  0  0  3  0  0  0  0  0  0
  160.5540  211.9920  150.3960 C   0  0  0  0  0  3  0  0  0  0  0  0
  163.4070  212.2120  147.3020 N   0  0  0  0  0  1  0  0  0  0  0  0
  161.4490  203.7130  149.5780 C   0  0  0  0  0  2  0  0  0  0  0  0
  161.5780  204.3540  148.2070 C   0  0  0  0  0  2  0  0  0  0  0  0
  161.1190  202.1100  147.4920 O   0  0  0  0  0  1  0  0  0  0  0  0
  160.9650  203.4560  147.1450 C   0  0  2  0  0  3  0  0  0  0  0  0
  161.5700  203.7270  145.7690 C   0  0  0  0  0  2  0  0  0  0  0  0
  160.3420  205.8190  145.1710 O   0  0  0  0  0  0  0  0  0  0  0  0
  161.5510  205.1780  145.4060 C   0  0  0  0  0  0  0  0  0  0  0  0
  162.6280  205.8240  145.3380 O   0  0  0  0  0  1  0  0  0  0  0  0
  1  5  1  0  0  0  0
  2  6  2  0  0  0  0
  3  8  1  0  0  0  0
  4 18  1  0  0  0  0
  5 11  2  0  0  0  0
  6 11  1  0  0  0  0
  8  1  2  0  0  0  0
  8  2  1  0  0  0  0
  9  7  1  0  0  0  0
 10 17  1  0  0  0  0
 10  4  2  0  0  0  0
 12  3  1  0  0  0  0
 12 19  1  0  0  0  0
 13  1  1  0  0  0  0
 14  2  1  0  0  0  0
 15  4  1  0  0  0  0
 15 16  1  0  0  0  0
 16 12  2  0  0  0  0
 17 27  1  6  0  0  0
 17  9  1  0  0  0  0
 18  7  1  0  0  0  0
 18  3  2  0  0  0  0
 19 13  1  0  0  0  0
 20 21  2  0  0  0  0
 20 24  1  0  0  0  0
 21 23  1  0  0  0  0
 22 25  1  0  0  0  0
 22 16  1  0  0  0  0
 23 25  2  0  0  0  0
 24 22  2  0  0  0  0
 26 20  1  0  0  0  0
 28 27  1  0  0  0  0
 30 29  1  1  0  0  0
 30 28  1  0  0  0  0
 31 30  1  0  0  0  0
 32 33  2  0  0  0  0
 33 31  1  0  0  0  0
 34 33  1  0  0  0  0
M  END
>  <MODEL>
8

>  <REMARK>
 VINA RESULT:      -6.1      3.412      6.885
  Name = 
  6 active torsions:
  status: ('A' for Active; 'I' for Inactive)
    1  A    between atoms: C_3  and  C_13
    2  A    between atoms: C_3  and  C_29
    3  A    between atoms: C_12  and  C_28
    4  A    between atoms: C_13  and  C_33
    5  A    between atoms: C_20  and  C_22
    6  A    between atoms: C_22  and  C_33
                            x       y       z     vdW  Elec       q    Type
                         _______ _______ _______ _____ _____    ______ ____

>  <TORSDO>
F 6

$$$$
=
 OpenBabel11062408093D

 34 38  0  0  1  0  0  0  0  0999 V2000
  160.3830  212.7650  150.1570 C   0  0  0  0  0  0  0  0  0  0  0  0
  162.2630  212.4350  148.6520 C   0  0  0  0  0  0  0  0  0  0  0  0
  161.5800  210.5910  150.3150 C   0  0  0  0  0  0  0  0  0  0  0  0
  162.0780  208.2100  150.4230 C   0  0  0  0  0  0  0  0  0  0  0  0
  160.1270  214.0040  149.5670 C   0  0  0  0  0  3  0  0  0  0  0  0
  161.9990  213.6820  148.0760 C   0  0  0  0  0  3  0  0  0  0  0  0
  161.8700  209.3780  148.1330 C   0  0  0  0  0  2  0  0  0  0  0  0
  161.3970  211.9210  149.6500 C   0  0  0  0  0  0  0  0  0  0  0  0
  161.6250  207.9550  147.6310 C   0  0  0  0  0  2  0  0  0  0  0  0
  162.3920  207.0620  149.8160 C   0  0  0  0  0  3  0  0  0  0  0  0
  160.9210  214.4520  148.5120 C   0  0  0  0  0  3  0  0  0  0  0  0
  161.2440  210.5200  151.7740 C   0  0  0  0  0  0  0  0  0  0  0  0
  159.6070  212.3570  151.3720 C   0  0  0  0  0  2  0  0  0  0  0  0
  163.5450  211.7690  148.2760 C   0  0  0  0  0  1  0  0  0  0  0  0
  161.9270  208.2390  151.8070 O   0  0  0  0  0  0  0  0  0  0  0  0
  161.4740  209.3840  152.4800 C   0  0  0  0  0  0  0  0  0  0  0  0
  162.5820  206.9900  148.3290 C   0  0  1  0  0  3  0  0  0  0  0  0
  161.8500  209.4490  149.6430 C   0  0  0  0  0  0  0  0  0  0  0  0
  160.5540  211.7130  152.3870 C   0  0  0  0  0  2  0  0  0  0  0  0
  161.5690  210.1600  156.1770 C   0  0  0  0  0  0  0  0  0  0  0  0
  160.7720  209.1440  156.7100 C   0  0  0  0  0  3  0  0  0  0  0  0
  161.2440  209.2590  153.9400 C   0  0  0  0  0  0  0  0  0  0  0  0
  160.2010  208.1910  155.8640 C   0  0  0  0  0  3  0  0  0  0  0  0
  161.7980  210.2200  154.8000 C   0  0  0  0  0  3  0  0  0  0  0  0
  160.4300  208.2520  154.4870 C   0  0  0  0  0  3  0  0  0  0  0  0
  162.1450  211.1360  157.0370 N   0  0  0  0  0  1  0  0  0  0  0  0
  162.3500  205.5670  147.8570 C   0  0  0  0  0  2  0  0  0  0  0  0
  160.9950  205.0690  148.3280 C   0  0  0  0  0  2  0  0  0  0  0  0
  160.4210  202.7500  148.0990 O   0  0  0  0  0  1  0  0  0  0  0  0
  161.1180  203.6640  148.8950 C   0  0  2  0  0  3  0  0  0  0  0  0
  160.6250  203.6010  150.3400 C   0  0  0  0  0  2  0  0  0  0  0  0
  161.7120  202.5240  152.3150 O   0  0  0  0  0  1  0  0  0  0  0  0
  161.1200  202.3910  151.0670 C   0  0  0  0  0  0  0  0  0  0  0  0
  160.9770  201.2490  150.5570 O   0  0  0  0  0  0  0  0  0  0  0  0
  1 13  1  0  0  0  0
  2  8  2  0  0  0  0
  3 12  1  0  0  0  0
  4 15  1  0  0  0  0
  5  1  2  0  0  0  0
  6 11  2  0  0  0  0
  6  2  1  0  0  0  0
  7 18  1  0  0  0  0
  8  1  1  0  0  0  0
  8  3  1  0  0  0  0
  9  7  1  0  0  0  0
  9 17  1  0  0  0  0
 10  4  2  0  0  0  0
 11  5  1  0  0  0  0
 12 19  1  0  0  0  0
 12 16  2  0  0  0  0
 13 19  1  0  0  0  0
 14  2  1  0  0  0  0
 15 16  1  0  0  0  0
 16 22  1  0  0  0  0
 17 27  1  6  0  0  0
 17 10  1  0  0  0  0
 18  3  2  0  0  0  0
 18  4  1  0  0  0  0
 20 21  1  0  0  0  0
 20 26  1  0  0  0  0
 22 25  2  0  0  0  0
 22 24  1  0  0  0  0
 23 21  2  0  0  0  0
 24 20  2  0  0  0  0
 25 23  1  0  0  0  0
 27 28  1  0  0  0  0
 28 30  1  0  0  0  0
 30 29  1  6  0  0  0
 30 31  1  0  0  0  0
 31 33  1  0  0  0  0
 33 32  1  0  0  0  0
 34 33  2  0  0  0  0
M  END
>  <MODEL>
9

>  <REMARK>
 VINA RESULT:      -5.4      3.020      6.752
  Name = 
  6 active torsions:
  status: ('A' for Active; 'I' for Inactive)
    1  A    between atoms: C_3  and  C_13
    2  A    between atoms: C_3  and  C_29
    3  A    between atoms: C_12  and  C_28
    4  A    between atoms: C_13  and  C_33
    5  A    between atoms: C_20  and  C_22
    6  A    between atoms: C_22  and  C_33
                            x       y       z     vdW  Elec       q    Type
                         _______ _______ _______ _____ _____    ______ ____

>  <TORSDO>
F 6

$$$$
