=
 OpenBabel11062409523D

 34 38  0  0  1  0  0  0  0  0999 V2000
  158.3360  211.7850  155.3780 C   0  0  2  0  0  0  0  0  0  0  0  0
  157.8210  211.8820  150.7380 C   0  0  0  0  0  1  0  0  0  0  0  0
  157.0460  211.3770  153.4000 O   0  0  0  0  0  0  0  0  0  0  0  0
  156.8240  212.3380  157.2610 C   0  0  0  0  0  2  0  0  0  0  0  0
  155.6390  212.5640  156.4670 O   0  0  0  0  0  0  0  0  0  0  0  0
  157.0260  211.0060  154.7970 C   0  0  2  0  0  3  0  0  0  0  0  0
  158.0260  212.6840  156.5060 C   0  0  0  0  0  2  0  0  0  0  0  0
  155.6250  211.7250  155.2680 C   0  0  0  0  0  2  0  0  0  0  0  0
  158.3250  212.6830  151.8200 C   0  0  0  0  0  0  0  0  0  0  0  0
  159.2500  213.7030  151.6380 C   0  0  0  0  0  0  0  0  0  0  0  0
  159.9530  214.2840  152.7660 C   0  0  0  0  0  3  0  0  0  0  0  0
  157.9760  212.2340  153.1220 C   0  0  0  0  0  0  0  0  0  0  0  0
  159.6650  213.6710  154.1000 C   0  0  0  0  0  3  0  0  0  0  0  0
  158.7370  212.6220  154.2050 C   0  0  0  0  0  0  0  0  0  0  0  0
  159.6010  209.4330  155.3110 C   0  0  1  0  0  3  0  0  0  0  0  0
  162.3150  210.4950  154.4550 C   0  0  0  0  0  2  0  0  0  0  0  0
  161.2100  207.1910  152.6690 C   0  0  0  0  0  2  0  0  0  0  0  0
  160.9600  211.4290  156.2540 C   0  0  0  0  0  0  0  0  0  0  0  0
  159.5220  210.8970  155.8930 C   0  0  1  0  0  3  0  0  0  0  0  0
  162.0100  208.8940  151.3630 C   0  0  2  0  0  3  0  0  0  0  0  0
  161.0510  207.6730  154.0190 C   0  0  0  0  0  2  0  0  0  0  0  0
  161.2840  208.4680  150.2200 O   0  0  0  0  0  1  0  0  0  0  0  0
  160.2500  209.0470  153.9760 C   0  0  2  0  0  3  0  0  0  0  0  0
  161.1090  212.5730  156.8200 O   0  0  0  0  0  0  0  0  0  0  0  0
  163.3250  210.8210  156.8040 C   0  0  0  0  0  1  0  0  0  0  0  0
  162.3760  207.7770  152.1460 O   0  0  0  0  0  0  0  0  0  0  0  0
  161.3890  210.1200  152.0020 C   0  0  0  0  0  0  0  0  0  0  0  0
  161.1070  210.1730  153.5180 C   0  0  2  0  0  3  0  0  0  0  0  0
  160.8330  211.0340  151.2340 C   0  0  0  0  0  2  0  0  0  0  0  0
  162.1060  210.5420  155.9940 C   0  0  2  0  0  3  0  0  0  0  0  0
  159.1370  208.2170  156.1420 C   0  0  0  0  0  1  0  0  0  0  0  0
  159.4250  214.2880  150.2740 C   0  0  0  0  0  0  0  0  0  0  0  0
  158.4440  214.4520  149.5760 O   0  0  0  0  0  0  0  0  0  0  0  0
  160.8020  214.4490  149.7140 C   0  0  0  0  0  1  0  0  0  0  0  0
  1 19  1  0  0  0  0
  1  7  1  1  0  0  0
  2  9  1  0  0  0  0
  3  6  1  0  0  0  0
  5  4  1  0  0  0  0
  6  8  1  1  0  0  0
  6  1  1  0  0  0  0
  7  4  1  0  0  0  0
  8  5  1  0  0  0  0
  9 12  1  0  0  0  0
 10  9  2  0  0  0  0
 10 11  1  0  0  0  0
 11 13  2  0  0  0  0
 12  3  1  0  0  0  0
 12 14  2  0  0  0  0
 13 14  1  0  0  0  0
 14  1  1  0  0  0  0
 15 19  1  0  0  0  0
 15 31  1  1  0  0  0
 16 30  1  0  0  0  0
 17 21  1  0  0  0  0
 18 24  2  0  0  0  0
 19 18  1  6  0  0  0
 20 22  1  6  0  0  0
 20 27  1  0  0  0  0
 20 26  1  0  0  0  0
 23 21  1  1  0  0  0
 23 15  1  0  0  0  0
 26 17  1  0  0  0  0
 27 28  1  0  0  0  0
 28 23  1  0  0  0  0
 28 16  1  1  0  0  0
 29 27  2  0  0  0  0
 30 18  1  0  0  0  0
 30 25  1  1  0  0  0
 32 10  1  0  0  0  0
 33 32  2  0  0  0  0
 34 32  1  0  0  0  0
M  END
>  <MODEL>
1

>  <REMARK>
 VINA RESULT:      -0.4      0.000      0.000
  Name = 
  2 active torsions:
  status: ('A' for Active; 'I' for Inactive)
    1  A    between atoms: C_1  and  C_9
    2  A    between atoms: C_3  and  C_25
                            x       y       z     vdW  Elec       q    Type
                         _______ _______ _______ _____ _____    ______ ____

>  <TORSDO>
F 2

$$$$
=
 OpenBabel11062409523D

 34 38  0  0  1  0  0  0  0  0999 V2000
  160.7170  208.5120  154.5790 C   0  0  2  0  0  0  0  0  0  0  0  0
  163.4110  205.8290  151.8690 C   0  0  0  0  0  1  0  0  0  0  0  0
  162.1330  206.6060  154.2570 O   0  0  0  0  0  0  0  0  0  0  0  0
  159.0140  208.0040  156.3060 C   0  0  0  0  0  2  0  0  0  0  0  0
  159.2190  206.5750  156.3320 O   0  0  0  0  0  0  0  0  0  0  0  0
  161.5780  207.3650  155.3560 C   0  0  2  0  0  3  0  0  0  0  0  0
  159.2960  208.5430  154.9770 C   0  0  0  0  0  2  0  0  0  0  0  0
  160.6080  206.2240  156.0360 C   0  0  0  0  0  2  0  0  0  0  0  0
  162.1620  206.5410  151.8430 C   0  0  0  0  0  0  0  0  0  0  0  0
  161.5420  206.9340  150.6640 C   0  0  0  0  0  0  0  0  0  0  0  0
  160.4560  207.8970  150.6760 C   0  0  0  0  0  3  0  0  0  0  0  0
  161.7000  207.0030  153.1040 C   0  0  0  0  0  0  0  0  0  0  0  0
  160.1080  208.4710  152.0130 C   0  0  0  0  0  3  0  0  0  0  0  0
  160.7990  208.0460  153.1600 C   0  0  0  0  0  0  0  0  0  0  0  0
  160.6470  211.0260  153.6780 C   0  0  1  0  0  3  0  0  0  0  0  0
  159.6670  212.3150  156.2490 C   0  0  0  0  0  2  0  0  0  0  0  0
  157.9880  213.6820  152.9870 C   0  0  0  0  0  2  0  0  0  0  0  0
  161.4980  210.7110  156.1070 C   0  0  0  0  0  0  0  0  0  0  0  0
  161.2040  209.9950  154.7350 C   0  0  1  0  0  3  0  0  0  0  0  0
  156.6200  213.1130  154.7320 C   0  0  2  0  0  3  0  0  0  0  0  0
  159.3340  213.2620  153.2920 C   0  0  0  0  0  2  0  0  0  0  0  0
  155.5140  212.8420  153.8850 O   0  0  0  0  0  1  0  0  0  0  0  0
  159.2950  211.7450  153.7730 C   0  0  2  0  0  3  0  0  0  0  0  0
  162.0360  210.0640  157.0770 O   0  0  0  0  0  0  0  0  0  0  0  0
  161.9690  212.8820  157.2610 C   0  0  0  0  0  1  0  0  0  0  0  0
  157.4100  214.1450  154.1810 O   0  0  0  0  0  0  0  0  0  0  0  0
  157.2590  211.8400  155.2520 C   0  0  0  0  0  0  0  0  0  0  0  0
  158.7830  211.6200  155.1640 C   0  0  2  0  0  3  0  0  0  0  0  0
  156.4960  210.8030  155.5270 C   0  0  0  0  0  2  0  0  0  0  0  0
  161.2110  212.1520  156.2050 C   0  0  2  0  0  3  0  0  0  0  0  0
  161.5190  211.5100  152.4990 C   0  0  0  0  0  1  0  0  0  0  0  0
  161.9200  206.2600  149.3840 C   0  0  0  0  0  0  0  0  0  0  0  0
  162.6230  206.8580  148.5930 O   0  0  0  0  0  0  0  0  0  0  0  0
  161.2550  204.9760  149.0050 C   0  0  0  0  0  1  0  0  0  0  0  0
  1 19  1  0  0  0  0
  1  7  1  1  0  0  0
  1  6  1  0  0  0  0
  3  6  1  0  0  0  0
  4  5  1  0  0  0  0
  6  8  1  1  0  0  0
  7  4  1  0  0  0  0
  8  5  1  0  0  0  0
  9  2  1  0  0  0  0
  9 12  1  0  0  0  0
 10 11  1  0  0  0  0
 10  9  2  0  0  0  0
 11 13  2  0  0  0  0
 12 14  2  0  0  0  0
 12  3  1  0  0  0  0
 13 14  1  0  0  0  0
 14  1  1  0  0  0  0
 15 31  1  1  0  0  0
 15 23  1  0  0  0  0
 15 19  1  0  0  0  0
 17 21  1  0  0  0  0
 17 26  1  0  0  0  0
 18 30  1  0  0  0  0
 18 24  2  0  0  0  0
 19 18  1  1  0  0  0
 20 22  1  6  0  0  0
 20 27  1  0  0  0  0
 23 21  1  1  0  0  0
 23 28  1  0  0  0  0
 26 20  1  0  0  0  0
 27 29  2  0  0  0  0
 28 27  1  0  0  0  0
 28 16  1  1  0  0  0
 30 16  1  0  0  0  0
 30 25  1  1  0  0  0
 32 10  1  0  0  0  0
 33 32  2  0  0  0  0
 34 32  1  0  0  0  0
M  END
>  <MODEL>
2

>  <REMARK>
 VINA RESULT:       1.0      2.068      6.054
  Name = 
  2 active torsions:
  status: ('A' for Active; 'I' for Inactive)
    1  A    between atoms: C_1  and  C_9
    2  A    between atoms: C_3  and  C_25
                            x       y       z     vdW  Elec       q    Type
                         _______ _______ _______ _____ _____    ______ ____

>  <TORSDO>
F 2

$$$$
=
 OpenBabel11062409523D

 34 38  0  0  1  0  0  0  0  0999 V2000
  161.2760  208.5640  152.1650 C   0  0  2  0  0  0  0  0  0  0  0  0
  162.7540  212.0730  149.4630 C   0  0  0  0  0  1  0  0  0  0  0  0
  162.5270  209.3900  150.2960 O   0  0  0  0  0  0  0  0  0  0  0  0
  160.4540  206.2790  151.6730 C   0  0  0  0  0  2  0  0  0  0  0  0
  160.7200  206.3030  150.2540 O   0  0  0  0  0  0  0  0  0  0  0  0
  162.4330  208.1800  151.0820 C   0  0  2  0  0  3  0  0  0  0  0  0
  160.1430  207.6190  152.1650 C   0  0  0  0  0  2  0  0  0  0  0  0
  161.8820  207.1350  149.9390 C   0  0  0  0  0  2  0  0  0  0  0  0
  161.5710  211.6030  150.1310 C   0  0  0  0  0  0  0  0  0  0  0  0
  160.5050  212.4330  150.4530 C   0  0  0  0  0  0  0  0  0  0  0  0
  159.4740  212.0000  151.3770 C   0  0  0  0  0  3  0  0  0  0  0  0
  161.6420  210.2750  150.6290 C   0  0  0  0  0  0  0  0  0  0  0  0
  159.6750  210.6530  151.9950 C   0  0  0  0  0  3  0  0  0  0  0  0
  160.7940  209.8790  151.6430 C   0  0  0  0  0  0  0  0  0  0  0  0
  161.8850  210.1130  154.2550 C   0  0  1  0  0  3  0  0  0  0  0  0
  159.7810  209.0210  156.1530 C   0  0  0  0  0  2  0  0  0  0  0  0
  160.2160  212.9110  156.2500 C   0  0  0  0  0  2  0  0  0  0  0  0
  161.2780  207.6520  154.8010 C   0  0  0  0  0  0  0  0  0  0  0  0
  161.7120  208.6580  153.6690 C   0  0  1  0  0  3  0  0  0  0  0  0
  158.0880  212.0790  156.0960 C   0  0  2  0  0  3  0  0  0  0  0  0
  161.1530  211.8250  156.0990 C   0  0  0  0  0  2  0  0  0  0  0  0
  157.5910  213.2430  155.4550 O   0  0  0  0  0  1  0  0  0  0  0  0
  160.7510  210.9820  154.8110 C   0  0  2  0  0  3  0  0  0  0  0  0
  161.1630  206.3980  154.5500 O   0  0  0  0  0  0  0  0  0  0  0  0
  161.2170  207.1900  157.2600 C   0  0  0  0  0  1  0  0  0  0  0  0
  159.1240  212.4250  156.9910 O   0  0  0  0  0  0  0  0  0  0  0  0
  158.2530  210.9250  155.1270 C   0  0  0  0  0  0  0  0  0  0  0  0
  159.5660  210.1190  155.0630 C   0  0  2  0  0  3  0  0  0  0  0  0
  157.3860  210.7810  154.1450 C   0  0  0  0  0  2  0  0  0  0  0  0
  161.0910  208.1870  156.1600 C   0  0  2  0  0  3  0  0  0  0  0  0
  163.2860  210.7340  154.4470 C   0  0  0  0  0  1  0  0  0  0  0  0
  160.3590  213.7380  149.7380 C   0  0  0  0  0  0  0  0  0  0  0  0
  161.3350  214.4530  149.6210 O   0  0  0  0  0  0  0  0  0  0  0  0
  158.9950  214.2350  149.3860 C   0  0  0  0  0  1  0  0  0  0  0  0
  1  7  1  6  0  0  0
  1 19  1  0  0  0  0
  2  9  1  0  0  0  0
  3 12  1  0  0  0  0
  3  6  1  0  0  0  0
  4  7  1  0  0  0  0
  5  4  1  0  0  0  0
  6  8  1  6  0  0  0
  6  1  1  0  0  0  0
  8  5  1  0  0  0  0
  9 10  2  0  0  0  0
  9 12  1  0  0  0  0
 10 11  1  0  0  0  0
 11 13  2  0  0  0  0
 12 14  2  0  0  0  0
 14 13  1  0  0  0  0
 14  1  1  0  0  0  0
 15 31  1  1  0  0  0
 15 23  1  0  0  0  0
 16 30  1  0  0  0  0
 17 26  1  0  0  0  0
 18 30  1  0  0  0  0
 19 15  1  0  0  0  0
 19 18  1  1  0  0  0
 20 22  1  6  0  0  0
 20 26  1  0  0  0  0
 21 17  1  0  0  0  0
 23 28  1  0  0  0  0
 23 21  1  1  0  0  0
 24 18  2  0  0  0  0
 27 20  1  0  0  0  0
 28 27  1  0  0  0  0
 28 16  1  1  0  0  0
 29 27  2  0  0  0  0
 30 25  1  1  0  0  0
 32 10  1  0  0  0  0
 33 32  2  0  0  0  0
 34 32  1  0  0  0  0
M  END
>  <MODEL>
3

>  <REMARK>
 VINA RESULT:       1.2      1.668      5.414
  Name = 
  2 active torsions:
  status: ('A' for Active; 'I' for Inactive)
    1  A    between atoms: C_1  and  C_9
    2  A    between atoms: C_3  and  C_25
                            x       y       z     vdW  Elec       q    Type
                         _______ _______ _______ _____ _____    ______ ____

>  <TORSDO>
F 2

$$$$
=
 OpenBabel11062409523D

 34 38  0  0  1  0  0  0  0  0999 V2000
  160.5970  211.0010  152.1850 C   0  0  2  0  0  0  0  0  0  0  0  0
  162.0320  213.0270  148.2310 C   0  0  0  0  0  1  0  0  0  0  0  0
  162.0490  211.0940  150.2810 O   0  0  0  0  0  0  0  0  0  0  0  0
  160.2340  208.6400  152.8420 C   0  0  0  0  0  2  0  0  0  0  0  0
  160.7640  208.0440  151.6380 O   0  0  0  0  0  0  0  0  0  0  0  0
  161.9860  210.4190  151.5580 C   0  0  2  0  0  3  0  0  0  0  0  0
  159.6380  209.9430  152.5560 C   0  0  0  0  0  2  0  0  0  0  0  0
  161.8280  208.8620  151.0550 C   0  0  0  0  0  2  0  0  0  0  0  0
  160.8250  212.6800  148.9300 C   0  0  0  0  0  0  0  0  0  0  0  0
  159.6060  213.2980  148.6870 C   0  0  0  0  0  0  0  0  0  0  0  0
  158.4910  213.1400  149.6020 C   0  0  0  0  0  3  0  0  0  0  0  0
  160.9960  211.8050  150.0370 C   0  0  0  0  0  0  0  0  0  0  0  0
  158.7680  212.3340  150.8330 C   0  0  0  0  0  3  0  0  0  0  0  0
  160.0350  211.7610  151.0260 C   0  0  0  0  0  0  0  0  0  0  0  0
  159.5440  212.9260  153.7090 C   0  0  1  0  0  3  0  0  0  0  0  0
  159.3750  211.3150  156.2790 C   0  0  0  0  0  2  0  0  0  0  0  0
  156.2540  213.5610  155.5450 C   0  0  0  0  0  2  0  0  0  0  0  0
  161.3390  211.4350  154.8390 C   0  0  0  0  0  0  0  0  0  0  0  0
  160.7150  211.8960  153.4680 C   0  0  1  0  0  3  0  0  0  0  0  0
  155.8830  211.3800  156.1360 C   0  0  2  0  0  3  0  0  0  0  0  0
  157.6690  213.7560  155.3410 C   0  0  0  0  0  2  0  0  0  0  0  0
  154.6390  211.3220  155.4560 O   0  0  0  0  0  1  0  0  0  0  0  0
  158.2080  212.6010  154.3890 C   0  0  2  0  0  3  0  0  0  0  0  0
  162.3620  210.6580  154.8600 O   0  0  0  0  0  0  0  0  0  0  0  0
  161.6660  211.9740  157.2610 C   0  0  0  0  0  1  0  0  0  0  0  0
  156.1010  212.6840  156.6320 O   0  0  0  0  0  0  0  0  0  0  0  0
  156.9750  210.6440  155.3840 C   0  0  0  0  0  0  0  0  0  0  0  0
  158.3400  211.3070  155.1090 C   0  0  2  0  0  3  0  0  0  0  0  0
  156.6710  209.5470  154.7220 C   0  0  0  0  0  2  0  0  0  0  0  0
  160.7620  211.9850  156.0760 C   0  0  2  0  0  3  0  0  0  0  0  0
  159.7230  214.4270  153.3920 C   0  0  0  0  0  1  0  0  0  0  0  0
  159.4090  214.0340  147.4000 C   0  0  0  0  0  0  0  0  0  0  0  0
  160.3860  214.4500  146.8080 O   0  0  0  0  0  0  0  0  0  0  0  0
  158.0300  214.4350  146.9860 C   0  0  0  0  0  1  0  0  0  0  0  0
  1  7  1  1  0  0  0
  1 19  1  0  0  0  0
  2  9  1  0  0  0  0
  3  6  1  0  0  0  0
  5  4  1  0  0  0  0
  6  8  1  6  0  0  0
  6  1  1  0  0  0  0
  7  4  1  0  0  0  0
  8  5  1  0  0  0  0
  9 12  1  0  0  0  0
 10  9  2  0  0  0  0
 10 11  1  0  0  0  0
 11 13  2  0  0  0  0
 12  3  1  0  0  0  0
 12 14  2  0  0  0  0
 13 14  1  0  0  0  0
 14  1  1  0  0  0  0
 15 31  1  1  0  0  0
 15 23  1  0  0  0  0
 17 26  1  0  0  0  0
 18 24  2  0  0  0  0
 18 30  1  0  0  0  0
 19 15  1  0  0  0  0
 19 18  1  1  0  0  0
 20 22  1  6  0  0  0
 20 26  1  0  0  0  0
 21 17  1  0  0  0  0
 23 28  1  0  0  0  0
 23 21  1  1  0  0  0
 27 20  1  0  0  0  0
 28 27  1  0  0  0  0
 28 16  1  1  0  0  0
 29 27  2  0  0  0  0
 30 16  1  0  0  0  0
 30 25  1  1  0  0  0
 32 10  1  0  0  0  0
 33 32  2  0  0  0  0
 34 32  1  0  0  0  0
M  END
>  <MODEL>
4

>  <REMARK>
 VINA RESULT:       1.9      1.719      5.367
  Name = 
  2 active torsions:
  status: ('A' for Active; 'I' for Inactive)
    1  A    between atoms: C_1  and  C_9
    2  A    between atoms: C_3  and  C_25
                            x       y       z     vdW  Elec       q    Type
                         _______ _______ _______ _____ _____    ______ ____

>  <TORSDO>
F 2

$$$$
=
 OpenBabel11062409523D

 34 38  0  0  1  0  0  0  0  0999 V2000
  161.8710  208.6570  152.5700 C   0  0  2  0  0  0  0  0  0  0  0  0
  159.4090  205.3120  150.4360 C   0  0  0  0  0  1  0  0  0  0  0  0
  160.1980  207.9580  151.0030 O   0  0  0  0  0  0  0  0  0  0  0  0
  162.9440  210.7420  151.7680 C   0  0  0  0  0  2  0  0  0  0  0  0
  162.4330  210.6890  150.4190 O   0  0  0  0  0  0  0  0  0  0  0  0
  160.6170  209.1740  151.6640 C   0  0  2  0  0  3  0  0  0  0  0  0
  163.1210  209.3960  152.3080 C   0  0  0  0  0  2  0  0  0  0  0  0
  161.1180  210.0510  150.3650 C   0  0  0  0  0  2  0  0  0  0  0  0
  160.7500  205.6100  150.8610 C   0  0  0  0  0  0  0  0  0  0  0  0
  161.7120  204.6300  151.0690 C   0  0  0  0  0  0  0  0  0  0  0  0
  162.9440  204.9290  151.7750 C   0  0  0  0  0  3  0  0  0  0  0  0
  160.9770  206.9550  151.2570 C   0  0  0  0  0  0  0  0  0  0  0  0
  163.0680  206.3220  152.3080 C   0  0  0  0  0  3  0  0  0  0  0  0
  162.0410  207.2540  152.0820 C   0  0  0  0  0  0  0  0  0  0  0  0
  161.8450  210.1400  154.7920 C   0  0  1  0  0  3  0  0  0  0  0  0
  159.0280  209.4310  155.6790 C   0  0  0  0  0  2  0  0  0  0  0  0
  159.9750  213.2070  156.0920 C   0  0  0  0  0  2  0  0  0  0  0  0
  160.7080  207.8160  154.9620 C   0  0  0  0  0  0  0  0  0  0  0  0
  161.6960  208.7170  154.1270 C   0  0  1  0  0  3  0  0  0  0  0  0
  157.9750  212.7120  155.0910 C   0  0  2  0  0  3  0  0  0  0  0  0
  160.7210  211.9860  156.2740 C   0  0  0  0  0  2  0  0  0  0  0  0
  157.9500  213.9240  154.3540 O   0  0  0  0  0  1  0  0  0  0  0  0
  160.7290  211.1870  154.8980 C   0  0  2  0  0  3  0  0  0  0  0  0
  160.5120  206.5890  154.6350 O   0  0  0  0  0  0  0  0  0  0  0  0
  159.6250  207.4250  157.1840 C   0  0  0  0  0  1  0  0  0  0  0  0
  158.6210  212.9140  156.3310 O   0  0  0  0  0  0  0  0  0  0  0  0
  158.3290  211.5250  154.2170 C   0  0  0  0  0  0  0  0  0  0  0  0
  159.4250  210.5240  154.6360 C   0  0  2  0  0  3  0  0  0  0  0  0
  157.9020  211.4950  152.9710 C   0  0  0  0  0  2  0  0  0  0  0  0
  160.0900  208.4040  156.1610 C   0  0  2  0  0  3  0  0  0  0  0  0
  163.1370  210.5410  155.5370 C   0  0  0  0  0  1  0  0  0  0  0  0
  161.5220  203.2830  150.4480 C   0  0  0  0  0  0  0  0  0  0  0  0
  161.4540  203.2020  149.2370 O   0  0  0  0  0  0  0  0  0  0  0  0
  161.1990  202.1110  151.3170 C   0  0  0  0  0  1  0  0  0  0  0  0
  1  7  1  6  0  0  0
  1 19  1  0  0  0  0
  2  9  1  0  0  0  0
  3 12  1  0  0  0  0
  3  6  1  0  0  0  0
  4  7  1  0  0  0  0
  5  4  1  0  0  0  0
  6  8  1  6  0  0  0
  6  1  1  0  0  0  0
  8  5  1  0  0  0  0
  9 10  2  0  0  0  0
  9 12  1  0  0  0  0
 10 11  1  0  0  0  0
 11 13  2  0  0  0  0
 12 14  2  0  0  0  0
 14 13  1  0  0  0  0
 14  1  1  0  0  0  0
 15 23  1  0  0  0  0
 15 31  1  1  0  0  0
 16 30  1  0  0  0  0
 17 21  1  0  0  0  0
 17 26  1  0  0  0  0
 18 30  1  0  0  0  0
 19 15  1  0  0  0  0
 19 18  1  6  0  0  0
 20 22  1  6  0  0  0
 20 26  1  0  0  0  0
 23 21  1  1  0  0  0
 24 18  2  0  0  0  0
 27 28  1  0  0  0  0
 27 20  1  0  0  0  0
 28 23  1  0  0  0  0
 28 16  1  1  0  0  0
 29 27  2  0  0  0  0
 30 25  1  6  0  0  0
 32 10  1  0  0  0  0
 32 34  1  0  0  0  0
 33 32  2  0  0  0  0
M  END
>  <MODEL>
5

>  <REMARK>
 VINA RESULT:       2.0      2.322      6.913
  Name = 
  2 active torsions:
  status: ('A' for Active; 'I' for Inactive)
    1  A    between atoms: C_1  and  C_9
    2  A    between atoms: C_3  and  C_25
                            x       y       z     vdW  Elec       q    Type
                         _______ _______ _______ _____ _____    ______ ____

>  <TORSDO>
F 2

$$$$
