=
 OpenBabel11062408383D

 55 63  0  0  1  0  0  0  0  0999 V2000
  159.6060  213.6440  151.7890 C   0  0  0  0  0  2  0  0  0  0  0  0
  159.2670  202.6400  147.8790 O   0  0  0  0  0  1  0  0  0  0  0  0
  161.1190  207.6380  153.3190 C   0  0  0  0  0  2  0  0  0  0  0  0
  158.3640  208.4990  154.3980 C   0  0  0  0  0  1  0  0  0  0  0  0
  160.4700  204.8580  148.9300 O   0  0  0  0  0  0  0  0  0  0  0  0
  161.5730  206.6050  149.5560 C   0  0  2  0  0  3  0  0  0  0  0  0
  163.0770  207.7590  151.1100 C   0  0  0  0  0  2  0  0  0  0  0  0
  156.4960  211.6010  154.6780 O   0  0  0  0  0  0  0  0  0  0  0  0
  161.5750  202.6760  148.6230 C   0  0  0  0  0  2  0  0  0  0  0  0
  161.2790  204.0730  148.0870 C   0  0  1  0  0  0  0  0  0  0  0  0
  155.5520  210.9230  155.4830 C   0  0  0  0  0  2  0  0  0  0  0  0
  157.8880  212.3880  156.4770 C   0  0  1  0  0  3  0  0  0  0  0  0
  156.5670  212.4530  157.2520 C   0  0  0  0  0  2  0  0  0  0  0  0
  158.6520  210.6290  153.0550 C   0  0  0  0  0  2  0  0  0  0  0  0
  162.9710  206.6760  148.9430 C   0  0  1  0  0  3  0  0  0  0  0  0
  163.9040  207.0120  150.0840 C   0  0  0  0  0  2  0  0  0  0  0  0
  155.6650  211.2440  156.9900 C   0  0  0  0  0  2  0  0  0  0  0  0
  160.6820  213.1780  148.1790 C   0  0  0  0  0  3  0  0  0  0  0  0
  157.7540  211.4240  155.2810 C   0  0  2  0  0  3  0  0  0  0  0  0
  161.1560  211.1320  149.3920 C   0  0  0  0  0  0  0  0  0  0  0  0
  160.1920  213.0890  152.9330 O   0  0  0  0  0  0  0  0  0  0  0  0
  160.6780  211.7300  150.5630 C   0  0  0  0  0  3  0  0  0  0  0  0
  159.4450  213.8530  155.1000 C   0  0  2  0  0  3  0  0  0  0  0  0
  160.8340  206.9590  151.9710 C   0  0  0  0  0  2  0  0  0  0  0  0
  158.2220  213.8110  156.0180 C   0  0  0  0  0  2  0  0  0  0  0  0
  160.6100  209.0780  153.4080 C   0  0  0  0  0  2  0  0  0  0  0  0
  160.5870  202.8630  147.4820 C   0  0  2  0  0  0  0  0  0  0  0  0
  159.0950  209.1760  153.2480 C   0  0  1  0  0  3  0  0  0  0  0  0
  160.1880  213.7610  149.3520 C   0  0  0  0  0  3  0  0  0  0  0  0
  163.4490  205.3970  148.2430 C   0  0  0  0  0  2  0  0  0  0  0  0
  161.6000  207.5460  150.7680 C   0  0  2  0  0  0  0  0  0  0  0  0
  160.1940  213.0420  150.5500 C   0  0  0  0  0  0  0  0  0  0  0  0
  158.9130  211.5230  154.2750 C   0  0  2  0  0  3  0  0  0  0  0  0
  161.2540  205.2840  149.9050 O   0  0  0  0  0  0  0  0  0  0  0  0
  159.1530  212.9840  153.8640 C   0  0  2  0  0  3  0  0  0  0  0  0
  160.9180  208.8620  150.3780 C   0  0  0  0  0  2  0  0  0  0  0  0
  162.4220  204.7450  147.3100 C   0  0  2  0  0  3  0  0  0  0  0  0
  161.7160  209.7450  149.4180 C   0  0  0  0  0  2  0  0  0  0  0  0
  161.1700  211.8670  148.2010 C   0  0  0  0  0  3  0  0  0  0  0  0
  161.9480  205.6700  146.2300 C   0  0  0  0  0  0  0  0  0  0  0  0
  161.0000  206.4710  146.4360 O   0  0  0  0  0  1  0  0  0  0  0  0
  162.5870  205.6630  144.9970 O   0  0  0  0  0  0  0  0  0  0  0  0
  161.0540  202.2880  146.1450 C   0  0  1  0  0  3  0  0  0  0  0  0
  161.8230  201.1430  146.3520 O   0  0  0  0  0  1  0  0  0  0  0  0
  159.8800  201.9790  145.2220 C   0  0  0  0  0  2  0  0  0  0  0  0
  160.0470  200.7380  144.6040 O   0  0  0  0  0  1  0  0  0  0  0  0
  160.5820  213.6650  157.2220 O   0  0  0  0  0  1  0  0  0  0  0  0
  160.7300  213.4530  155.8500 C   0  0  1  0  0  3  0  0  0  0  0  0
  161.0640  211.9850  155.6020 C   0  0  0  0  0  2  0  0  0  0  0  0
  162.1120  211.4900  156.5830 C   0  0  0  0  0  2  0  0  0  0  0  0
  160.7650  209.4430  156.3080 C   0  0  1  0  0  3  0  0  0  0  0  0
  161.8010  207.7760  157.1730 N   0  0  0  0  0  2  0  0  0  0  0  0
  161.6500  210.2150  157.2610 C   0  0  1  0  0  3  0  0  0  0  0  0
  162.1950  209.0150  156.5110 C   0  0  2  0  0  3  0  0  0  0  0  0
  160.4080  208.1360  156.9650 C   0  0  0  0  0  2  0  0  0  0  0  0
  1 21  1  0  0  0  0
  3 26  1  0  0  0  0
  5 34  1  0  0  0  0
  6 34  1  1  0  0  0
  6 31  1  0  0  0  0
  8 11  1  0  0  0  0
 10  9  1  1  0  0  0
 10  5  1  0  0  0  0
 11 17  1  0  0  0  0
 12 25  1  6  0  0  0
 12 13  1  0  0  0  0
 14 28  1  0  0  0  0
 15 30  1  1  0  0  0
 15  6  1  0  0  0  0
 15 16  1  0  0  0  0
 16  7  1  0  0  0  0
 17 13  1  0  0  0  0
 18 39  2  0  0  0  0
 18 29  1  0  0  0  0
 19  8  1  6  0  0  0
 19 12  1  0  0  0  0
 20 38  1  0  0  0  0
 20 22  2  0  0  0  0
 23 48  1  1  0  0  0
 23 25  1  0  0  0  0
 24  3  1  0  0  0  0
 27  2  1  1  0  0  0
 27 10  1  0  0  0  0
 27  9  1  0  0  0  0
 28 26  1  0  0  0  0
 28  4  1  1  0  0  0
 29 32  2  0  0  0  0
 31 36  1  6  0  0  0
 31  7  1  0  0  0  0
 31 24  1  0  0  0  0
 32 22  1  0  0  0  0
 32  1  1  0  0  0  0
 33 14  1  6  0  0  0
 33 19  1  0  0  0  0
 35 21  1  6  0  0  0
 35 33  1  0  0  0  0
 35 23  1  0  0  0  0
 37 40  1  6  0  0  0
 37 10  1  0  0  0  0
 37 30  1  0  0  0  0
 38 36  1  0  0  0  0
 39 20  1  0  0  0  0
 40 41  1  0  0  0  0
 42 40  2  0  0  0  0
 43 44  1  1  0  0  0
 43 27  1  0  0  0  0
 45 43  1  0  0  0  0
 46 45  1  0  0  0  0
 48 47  1  1  0  0  0
 49 48  1  0  0  0  0
 49 50  1  0  0  0  0
 51 54  1  0  0  0  0
 51 55  1  1  0  0  0
 51 53  1  0  0  0  0
 53 50  1  6  0  0  0
 54 52  1  1  0  0  0
 54 53  1  0  0  0  0
 55 52  1  0  0  0  0
M  END
>  <MODEL>
1

>  <REMARK>
 VINA RESULT:       7.4      0.000      0.000
  Name = 
  7 active torsions:
  status: ('A' for Active; 'I' for Inactive)
    1  A    between atoms: C_1  and  C_53
    2  A    between atoms: C_11  and  C_29
    3  A    between atoms: C_13  and  C_48
    4  A    between atoms: C_13  and  C_52
    5  A    between atoms: C_29  and  C_38
    6  A    between atoms: C_32  and  C_48
    7  A    between atoms: C_33  and  C_52
                            x       y       z     vdW  Elec       q    Type
                         _______ _______ _______ _____ _____    ______ ____

>  <TORSDO>
F 7

$$$$
=
 OpenBabel11062408383D

 55 63  0  0  1  0  0  0  0  0999 V2000
  159.7810  213.4010  152.1360 C   0  0  0  0  0  2  0  0  0  0  0  0
  158.8930  202.2280  148.8400 O   0  0  0  0  0  1  0  0  0  0  0  0
  160.5590  207.4050  154.1720 C   0  0  0  0  0  2  0  0  0  0  0  0
  157.7880  208.5630  154.8640 C   0  0  0  0  0  1  0  0  0  0  0  0
  160.1650  204.4030  149.9000 O   0  0  0  0  0  0  0  0  0  0  0  0
  161.3440  206.0900  150.5550 C   0  0  2  0  0  3  0  0  0  0  0  0
  162.7590  207.2150  152.2090 C   0  0  0  0  0  2  0  0  0  0  0  0
  156.1900  211.8210  154.7440 O   0  0  0  0  0  0  0  0  0  0  0  0
  161.0960  202.1210  149.8500 C   0  0  0  0  0  2  0  0  0  0  0  0
  160.9900  203.4990  149.2050 C   0  0  1  0  0  0  0  0  0  0  0  0
  155.1030  211.2790  155.4680 C   0  0  0  0  0  2  0  0  0  0  0  0
  157.4340  212.6070  156.6490 C   0  0  1  0  0  3  0  0  0  0  0  0
  156.0440  212.8340  157.2560 C   0  0  0  0  0  2  0  0  0  0  0  0
  158.4200  210.5670  153.4470 C   0  0  0  0  0  2  0  0  0  0  0  0
  162.8030  206.0030  150.1090 C   0  0  1  0  0  3  0  0  0  0  0  0
  163.6270  206.3350  151.3330 C   0  0  0  0  0  2  0  0  0  0  0  0
  155.0720  211.6900  156.9570 C   0  0  0  0  0  2  0  0  0  0  0  0
  161.2140  212.6080  148.7130 C   0  0  0  0  0  3  0  0  0  0  0  0
  157.3500  211.5810  155.5020 C   0  0  2  0  0  3  0  0  0  0  0  0
  161.3600  210.6140  150.0860 C   0  0  0  0  0  0  0  0  0  0  0  0
  160.1800  212.8760  153.3710 O   0  0  0  0  0  0  0  0  0  0  0  0
  160.8070  211.3270  151.1570 C   0  0  0  0  0  3  0  0  0  0  0  0
  159.2640  213.8430  155.3870 C   0  0  2  0  0  3  0  0  0  0  0  0
  160.3690  206.6640  152.8400 C   0  0  0  0  0  2  0  0  0  0  0  0
  157.9450  213.9640  156.1540 C   0  0  0  0  0  2  0  0  0  0  0  0
  160.1760  208.8850  154.1190 C   0  0  0  0  0  2  0  0  0  0  0  0
  160.2650  202.3130  148.5910 C   0  0  2  0  0  0  0  0  0  0  0  0
  158.7050  209.0980  153.7740 C   0  0  1  0  0  3  0  0  0  0  0  0
  160.6450  213.3070  149.7830 C   0  0  0  0  0  3  0  0  0  0  0  0
  163.2390  204.6440  149.5450 C   0  0  0  0  0  2  0  0  0  0  0  0
  161.3170  207.1030  151.7060 C   0  0  2  0  0  0  0  0  0  0  0  0
  160.4500  212.6710  151.0120 C   0  0  0  0  0  0  0  0  0  0  0  0
  158.6200  211.5150  154.6370 C   0  0  2  0  0  3  0  0  0  0  0  0
  160.8680  204.8260  150.9360 O   0  0  0  0  0  0  0  0  0  0  0  0
  159.0370  212.9210  154.1760 C   0  0  2  0  0  3  0  0  0  0  0  0
  160.8060  208.4430  151.1640 C   0  0  0  0  0  2  0  0  0  0  0  0
  162.2710  204.0200  148.5340 C   0  0  2  0  0  3  0  0  0  0  0  0
  161.7850  209.1900  150.2580 C   0  0  0  0  0  2  0  0  0  0  0  0
  161.5760  211.2650  148.8660 C   0  0  0  0  0  3  0  0  0  0  0  0
  162.0090  204.9070  147.3550 C   0  0  0  0  0  0  0  0  0  0  0  0
  161.1120  205.7890  147.3970 O   0  0  0  0  0  1  0  0  0  0  0  0
  162.7900  204.7740  146.2140 O   0  0  0  0  0  0  0  0  0  0  0  0
  160.8270  201.6140  147.3550 C   0  0  1  0  0  3  0  0  0  0  0  0
  161.5430  200.4760  147.7250 O   0  0  0  0  0  1  0  0  0  0  0  0
  159.7280  201.2490  146.3630 C   0  0  0  0  0  2  0  0  0  0  0  0
  160.2140  201.2660  145.0530 O   0  0  0  0  0  1  0  0  0  0  0  0
  160.8700  214.4530  157.0850 O   0  0  0  0  0  1  0  0  0  0  0  0
  160.4130  213.3870  156.3070 C   0  0  1  0  0  3  0  0  0  0  0  0
  159.9550  212.2570  157.2230 C   0  0  0  0  0  2  0  0  0  0  0  0
  160.9770  211.1340  157.2570 C   0  0  0  0  0  2  0  0  0  0  0  0
  163.3940  210.6480  157.2010 C   0  0  1  0  0  3  0  0  0  0  0  0
  164.1740  211.0930  155.2530 N   0  0  0  0  0  2  0  0  0  0  0  0
  162.3240  211.6220  156.7630 C   0  0  1  0  0  3  0  0  0  0  0  0
  162.8980  210.6210  155.7790 C   0  0  2  0  0  3  0  0  0  0  0  0
  164.7020  211.0990  156.6070 C   0  0  0  0  0  2  0  0  0  0  0  0
  1 21  1  0  0  0  0
  5 34  1  0  0  0  0
  6 34  1  1  0  0  0
  6 31  1  0  0  0  0
  8 11  1  0  0  0  0
 10  9  1  1  0  0  0
 10  5  1  0  0  0  0
 11 17  1  0  0  0  0
 12 25  1  6  0  0  0
 12 13  1  0  0  0  0
 14 28  1  0  0  0  0
 15 30  1  1  0  0  0
 15  6  1  0  0  0  0
 15 16  1  0  0  0  0
 16  7  1  0  0  0  0
 17 13  1  0  0  0  0
 18 39  2  0  0  0  0
 18 29  1  0  0  0  0
 19  8  1  6  0  0  0
 19 12  1  0  0  0  0
 20 38  1  0  0  0  0
 20 22  2  0  0  0  0
 23 25  1  0  0  0  0
 23 48  1  1  0  0  0
 24  3  1  0  0  0  0
 26  3  1  0  0  0  0
 27  2  1  1  0  0  0
 27 10  1  0  0  0  0
 27  9  1  0  0  0  0
 28 26  1  0  0  0  0
 28  4  1  1  0  0  0
 29 32  2  0  0  0  0
 31 36  1  6  0  0  0
 31  7  1  0  0  0  0
 31 24  1  0  0  0  0
 32 22  1  0  0  0  0
 32  1  1  0  0  0  0
 33 14  1  6  0  0  0
 33 19  1  0  0  0  0
 35 21  1  1  0  0  0
 35 33  1  0  0  0  0
 35 23  1  0  0  0  0
 37 40  1  6  0  0  0
 37 10  1  0  0  0  0
 37 30  1  0  0  0  0
 38 36  1  0  0  0  0
 39 20  1  0  0  0  0
 40 41  1  0  0  0  0
 42 40  2  0  0  0  0
 43 44  1  1  0  0  0
 43 27  1  0  0  0  0
 45 43  1  0  0  0  0
 46 45  1  0  0  0  0
 48 47  1  1  0  0  0
 48 49  1  0  0  0  0
 49 50  1  0  0  0  0
 51 55  1  6  0  0  0
 52 55  1  0  0  0  0
 53 51  1  0  0  0  0
 53 50  1  1  0  0  0
 54 52  1  6  0  0  0
 54 53  1  0  0  0  0
 54 51  1  0  0  0  0
M  END
>  <MODEL>
2

>  <REMARK>
 VINA RESULT:       8.1      1.237      1.458
  Name = 
  7 active torsions:
  status: ('A' for Active; 'I' for Inactive)
    1  A    between atoms: C_1  and  C_53
    2  A    between atoms: C_11  and  C_29
    3  A    between atoms: C_13  and  C_48
    4  A    between atoms: C_13  and  C_52
    5  A    between atoms: C_29  and  C_38
    6  A    between atoms: C_32  and  C_48
    7  A    between atoms: C_33  and  C_52
                            x       y       z     vdW  Elec       q    Type
                         _______ _______ _______ _____ _____    ______ ____

>  <TORSDO>
F 7

$$$$
