=
 OpenBabel11052423103D

 27 32  0  0  1  0  0  0  0  0999 V2000
  160.4000  213.1580  138.5830 C   0  0  1  0  0  3  0  0  0  0  0  0
  158.8250  213.2270  140.6300 C   0  0  0  0  0  0  0  0  0  0  0  0
  160.6280  211.5260  141.1290 C   0  0  0  0  0  2  0  0  0  0  0  0
  158.3810  214.2070  144.7720 C   0  0  0  0  0  2  0  0  0  0  0  0
  158.0990  212.9720  146.7590 O   0  0  0  0  0  0  0  0  0  0  0  0
  157.8910  214.1690  141.0680 C   0  0  0  0  0  3  0  0  0  0  0  0
  160.3620  212.2520  143.9910 C   0  0  0  0  0  2  0  0  0  0  0  0
  162.5050  209.5750  139.9620 C   0  0  0  0  0  1  0  0  0  0  0  0
  159.5550  211.9030  145.2430 C   0  0  0  0  0  2  0  0  0  0  0  0
  163.0180  211.3070  138.2080 C   0  0  0  0  0  2  0  0  0  0  0  0
  159.6430  212.5790  141.5770 C   0  0  0  0  0  0  0  0  0  0  0  0
  158.9660  212.9730  139.1510 C   0  0  2  0  0  3  0  0  0  0  0  0
  158.6350  213.0210  145.6650 C   0  0  0  0  0  0  0  0  0  0  0  0
  158.5380  213.8390  143.3280 C   0  0  0  0  0  0  0  0  0  0  0  0
  161.5010  213.2930  139.6320 C   0  0  0  0  0  2  0  0  0  0  0  0
  159.4950  212.8850  142.9390 C   0  0  0  0  0  0  0  0  0  0  0  0
  162.1310  210.9260  139.3720 C   0  0  1  0  0  0  0  0  0  0  0  0
  157.7680  214.4530  142.3900 N   0  0  0  0  0  0  0  0  0  0  0  0
  161.5560  210.9250  137.9520 C   0  0  1  0  0  3  0  0  0  0  0  0
  160.8210  212.1900  137.4790 C   0  0  0  0  0  2  0  0  0  0  0  0
  161.7600  212.0100  140.3100 N   0  0  2  0  0  0  0  0  0  0  0  0
  156.7120  209.6160  137.6730 C   0  0  0  0  0  3  0  0  0  0  0  0
  158.1790  211.7910  138.6580 C   0  0  0  0  0  0  0  0  0  0  0  0
  158.2750  210.5360  139.2760 C   0  0  0  0  0  3  0  0  0  0  0  0
  157.5430  209.4510  138.7840 C   0  0  0  0  0  3  0  0  0  0  0  0
  156.6160  210.8640  137.0510 C   0  0  0  0  0  3  0  0  0  0  0  0
  157.3480  211.9490  137.5420 C   0  0  0  0  0  3  0  0  0  0  0  0
  1 20  1  6  0  0  0
  1 12  1  0  0  0  0
  1 15  1  0  0  0  0
  2  6  2  0  0  0  0
  2 11  1  0  0  0  0
  3 11  1  0  0  0  0
  4 13  1  0  0  0  0
  6 18  1  0  0  0  0
  7  9  1  0  0  0  0
  9 13  1  0  0  0  0
 10 17  1  0  0  0  0
 11 16  2  0  0  0  0
 12 23  1  1  0  0  0
 12  2  1  0  0  0  0
 13  5  2  0  0  0  0
 14  4  1  0  0  0  0
 16 14  1  0  0  0  0
 16  7  1  0  0  0  0
 17  8  1  1  0  0  0
 17 21  1  0  0  0  0
 18 14  2  0  0  0  0
 19 20  1  1  0  0  0
 19 10  1  0  0  0  0
 19 17  1  0  0  0  0
 21 15  1  6  0  0  0
 21  3  1  0  0  0  0
 22 25  1  0  0  0  0
 23 24  1  0  0  0  0
 25 24  2  0  0  0  0
 26 27  1  0  0  0  0
 26 22  2  0  0  0  0
 27 23  2  0  0  0  0
M  END
>  <MODEL>
1

>  <REMARK>
 VINA RESULT:      -4.2      0.000      0.000
  Name = 
  1 active torsions:
  status: ('A' for Active; 'I' for Inactive)
    1  A    between atoms: C_9  and  C_15
                            x       y       z     vdW  Elec       q    Type
                         _______ _______ _______ _____ _____    ______ ____

>  <TORSDO>
F 1

$$$$
=
 OpenBabel11052423103D

 27 32  0  0  1  0  0  0  0  0999 V2000
  159.5490  212.5970  155.2190 C   0  0  1  0  0  3  0  0  0  0  0  0
  159.7380  210.0210  155.2670 C   0  0  0  0  0  0  0  0  0  0  0  0
  159.2550  210.6930  152.8780 C   0  0  0  0  0  2  0  0  0  0  0  0
  161.9400  206.5700  154.0200 C   0  0  0  0  0  2  0  0  0  0  0  0
  161.5530  204.7970  152.5180 O   0  0  0  0  0  0  0  0  0  0  0  0
  160.3020  209.1360  156.1880 C   0  0  0  0  0  3  0  0  0  0  0  0
  160.8340  208.3360  152.0170 C   0  0  0  0  0  2  0  0  0  0  0  0
  157.9630  212.6930  151.1400 C   0  0  0  0  0  1  0  0  0  0  0  0
  160.6890  206.8410  151.7250 C   0  0  0  0  0  2  0  0  0  0  0  0
  158.9450  214.4530  152.6480 C   0  0  0  0  0  2  0  0  0  0  0  0
  159.8950  209.7720  153.8890 C   0  0  0  0  0  0  0  0  0  0  0  0
  159.0240  211.2470  155.7770 C   0  0  2  0  0  3  0  0  0  0  0  0
  161.4000  205.9850  152.7420 C   0  0  0  0  0  0  0  0  0  0  0  0
  161.1510  207.7730  154.4390 C   0  0  0  0  0  0  0  0  0  0  0  0
  160.5100  212.4820  154.0380 C   0  0  0  0  0  2  0  0  0  0  0  0
  160.6050  208.6350  153.4720 C   0  0  0  0  0  0  0  0  0  0  0  0
  158.7070  212.9760  152.4360 C   0  0  1  0  0  0  0  0  0  0  0  0
  160.9890  208.0450  155.7620 N   0  0  0  0  0  0  0  0  0  0  0  0
  157.9320  213.7160  153.5310 C   0  0  1  0  0  3  0  0  0  0  0  0
  158.5000  213.6770  154.9580 C   0  0  0  0  0  2  0  0  0  0  0  0
  159.8100  212.0620  152.8120 N   0  0  2  0  0  0  0  0  0  0  0  0
  154.7530  210.8350  156.1350 C   0  0  0  0  0  3  0  0  0  0  0  0
  157.5330  211.0830  155.8880 C   0  0  0  0  0  0  0  0  0  0  0  0
  156.7870  210.4590  154.8780 C   0  0  0  0  0  3  0  0  0  0  0  0
  155.4000  210.3350  155.0010 C   0  0  0  0  0  3  0  0  0  0  0  0
  155.4920  211.4590  157.1430 C   0  0  0  0  0  3  0  0  0  0  0  0
  156.8790  211.5830  157.0190 C   0  0  0  0  0  3  0  0  0  0  0  0
  1 15  1  6  0  0  0
  1 12  1  0  0  0  0
  2 12  1  0  0  0  0
  2  6  1  0  0  0  0
  3 11  1  0  0  0  0
  4 14  1  0  0  0  0
  5 13  2  0  0  0  0
  7 16  1  0  0  0  0
  9  7  1  0  0  0  0
  9 13  1  0  0  0  0
 11  2  2  0  0  0  0
 12 23  1  6  0  0  0
 13  4  1  0  0  0  0
 14 18  1  0  0  0  0
 16 11  1  0  0  0  0
 16 14  2  0  0  0  0
 17  8  1  6  0  0  0
 17 10  1  0  0  0  0
 17 21  1  0  0  0  0
 17 19  1  0  0  0  0
 18  6  2  0  0  0  0
 19 10  1  6  0  0  0
 19 20  1  0  0  0  0
 20  1  1  0  0  0  0
 21  3  1  1  0  0  0
 21 15  1  0  0  0  0
 22 26  1  0  0  0  0
 23 27  1  0  0  0  0
 24 25  1  0  0  0  0
 24 23  2  0  0  0  0
 25 22  2  0  0  0  0
 27 26  2  0  0  0  0
M  END
>  <MODEL>
2

>  <REMARK>
 VINA RESULT:      -4.0     11.383     14.733
  Name = 
  1 active torsions:
  status: ('A' for Active; 'I' for Inactive)
    1  A    between atoms: C_9  and  C_15
                            x       y       z     vdW  Elec       q    Type
                         _______ _______ _______ _____ _____    ______ ____

>  <TORSDO>
F 1

$$$$
=
 OpenBabel11052423103D

 27 32  0  0  1  0  0  0  0  0999 V2000
  161.8790  210.7820  154.9700 C   0  0  1  0  0  3  0  0  0  0  0  0
  159.9910  211.8350  153.5540 C   0  0  0  0  0  0  0  0  0  0  0  0
  158.9160  210.1500  155.1030 C   0  0  0  0  0  2  0  0  0  0  0  0
  156.4820  214.2840  153.5220 C   0  0  0  0  0  2  0  0  0  0  0  0
  154.1830  213.9020  153.1780 O   0  0  0  0  0  0  0  0  0  0  0  0
  159.9220  213.0110  152.8040 C   0  0  0  0  0  3  0  0  0  0  0  0
  156.5090  211.8800  155.1280 C   0  0  0  0  0  2  0  0  0  0  0  0
  159.3040  207.6300  156.5820 C   0  0  0  0  0  1  0  0  0  0  0  0
  155.2140  212.1390  154.3560 C   0  0  0  0  0  2  0  0  0  0  0  0
  161.5660  208.5140  157.2450 C   0  0  0  0  0  2  0  0  0  0  0  0
  158.8760  211.4410  154.3200 C   0  0  0  0  0  0  0  0  0  0  0  0
  161.2790  211.0520  153.5630 C   0  0  2  0  0  3  0  0  0  0  0  0
  155.2220  213.4690  153.6470 C   0  0  0  0  0  0  0  0  0  0  0  0
  157.6960  213.4060  153.5310 C   0  0  0  0  0  0  0  0  0  0  0  0
  160.9520  211.0980  156.1410 C   0  0  0  0  0  2  0  0  0  0  0  0
  157.7170  212.2320  154.3050 C   0  0  0  0  0  0  0  0  0  0  0  0
  160.3410  208.7250  156.3840 C   0  0  1  0  0  0  0  0  0  0  0  0
  158.7910  213.7640  152.8080 N   0  0  0  0  0  0  0  0  0  0  0  0
  161.6630  208.3140  155.7290 C   0  0  1  0  0  3  0  0  0  0  0  0
  162.5600  209.4290  155.1690 C   0  0  0  0  0  2  0  0  0  0  0  0
  159.8570  210.1170  156.2420 N   0  0  2  0  0  0  0  0  0  0  0  0
  161.4320  207.8290  150.7120 C   0  0  0  0  0  3  0  0  0  0  0  0
  161.3100  209.9180  152.5750 C   0  0  0  0  0  0  0  0  0  0  0  0
  160.6150  208.7230  152.8070 C   0  0  0  0  0  3  0  0  0  0  0  0
  160.6750  207.6810  151.8770 C   0  0  0  0  0  3  0  0  0  0  0  0
  162.1300  209.0170  150.4780 C   0  0  0  0  0  3  0  0  0  0  0  0
  162.0690  210.0590  151.4070 C   0  0  0  0  0  3  0  0  0  0  0  0
  1 20  1  6  0  0  0
  1 15  1  0  0  0  0
  2 12  1  0  0  0  0
  2 11  1  0  0  0  0
  4 14  1  0  0  0  0
  4 13  1  0  0  0  0
  5 13  2  0  0  0  0
  6 18  1  0  0  0  0
  6  2  2  0  0  0  0
  9  7  1  0  0  0  0
 11  3  1  0  0  0  0
 12 23  1  1  0  0  0
 12  1  1  0  0  0  0
 13  9  1  0  0  0  0
 14 16  1  0  0  0  0
 15 21  1  0  0  0  0
 16 11  2  0  0  0  0
 16  7  1  0  0  0  0
 17  8  1  1  0  0  0
 17 10  1  0  0  0  0
 18 14  2  0  0  0  0
 19 20  1  6  0  0  0
 19 17  1  0  0  0  0
 19 10  1  0  0  0  0
 21  3  1  6  0  0  0
 21 17  1  0  0  0  0
 22 25  1  0  0  0  0
 23 24  1  0  0  0  0
 25 24  2  0  0  0  0
 26 22  2  0  0  0  0
 26 27  1  0  0  0  0
 27 23  2  0  0  0  0
M  END
>  <MODEL>
3

>  <REMARK>
 VINA RESULT:      -3.9     11.271     14.049
  Name = 
  1 active torsions:
  status: ('A' for Active; 'I' for Inactive)
    1  A    between atoms: C_9  and  C_15
                            x       y       z     vdW  Elec       q    Type
                         _______ _______ _______ _____ _____    ______ ____

>  <TORSDO>
F 1

$$$$
=
 OpenBabel11052423103D

 27 32  0  0  1  0  0  0  0  0999 V2000
  161.9940  211.9350  137.1170 C   0  0  1  0  0  3  0  0  0  0  0  0
  159.5270  211.5190  137.7620 C   0  0  0  0  0  0  0  0  0  0  0  0
  160.5790  212.8480  139.6390 C   0  0  0  0  0  2  0  0  0  0  0  0
  155.6780  213.2430  138.4850 C   0  0  0  0  0  2  0  0  0  0  0  0
  154.3260  213.5710  140.3870 O   0  0  0  0  0  0  0  0  0  0  0  0
  158.4060  211.1580  137.0110 C   0  0  0  0  0  3  0  0  0  0  0  0
  157.9250  214.0860  140.0960 C   0  0  0  0  0  2  0  0  0  0  0  0
  163.0810  213.4290  141.0850 C   0  0  0  0  0  1  0  0  0  0  0  0
  156.6180  213.8650  140.8600 C   0  0  0  0  0  2  0  0  0  0  0  0
  164.2090  213.5320  138.8370 C   0  0  0  0  0  2  0  0  0  0  0  0
  159.3880  212.4760  138.7870 C   0  0  0  0  0  0  0  0  0  0  0  0
  160.8630  210.9140  137.4150 C   0  0  2  0  0  3  0  0  0  0  0  0
  155.4610  213.5540  139.9420 C   0  0  0  0  0  0  0  0  0  0  0  0
  157.0290  212.6370  138.2570 C   0  0  0  0  0  0  0  0  0  0  0  0
  161.6760  213.3820  137.4860 C   0  0  0  0  0  2  0  0  0  0  0  0
  158.1270  213.0370  139.0390 C   0  0  0  0  0  0  0  0  0  0  0  0
  162.9420  213.1940  139.5890 C   0  0  1  0  0  0  0  0  0  0  0  0
  157.1960  211.7170  137.2690 N   0  0  0  0  0  0  0  0  0  0  0  0
  163.7850  212.0670  138.9860 C   0  0  1  0  0  3  0  0  0  0  0  0
  163.3960  211.5520  137.5910 C   0  0  0  0  0  2  0  0  0  0  0  0
  161.6640  213.5760  138.9460 N   0  0  2  0  0  0  0  0  0  0  0  0
  161.9280  207.4500  139.7390 C   0  0  0  0  0  3  0  0  0  0  0  0
  161.2230  209.7140  138.2460 C   0  0  0  0  0  0  0  0  0  0  0  0
  161.3580  209.8000  139.6390 C   0  0  0  0  0  3  0  0  0  0  0  0
  161.7090  208.6700  140.3840 C   0  0  0  0  0  3  0  0  0  0  0  0
  161.7980  207.3590  138.3510 C   0  0  0  0  0  3  0  0  0  0  0  0
  161.4460  208.4890  137.6060 C   0  0  0  0  0  3  0  0  0  0  0  0
  1 12  1  0  0  0  0
  1 15  1  1  0  0  0
  1 20  1  0  0  0  0
  2 11  1  0  0  0  0
  4 13  1  0  0  0  0
  6 18  1  0  0  0  0
  6  2  2  0  0  0  0
  7  9  1  0  0  0  0
 10 19  1  0  0  0  0
 10 17  1  0  0  0  0
 11 16  2  0  0  0  0
 11  3  1  0  0  0  0
 12  2  1  0  0  0  0
 12 23  1  1  0  0  0
 13  5  2  0  0  0  0
 13  9  1  0  0  0  0
 14  4  1  0  0  0  0
 14 16  1  0  0  0  0
 16  7  1  0  0  0  0
 17  8  1  1  0  0  0
 18 14  2  0  0  0  0
 19 20  1  6  0  0  0
 19 17  1  0  0  0  0
 21 15  1  6  0  0  0
 21 17  1  0  0  0  0
 21  3  1  0  0  0  0
 22 25  1  0  0  0  0
 23 24  1  0  0  0  0
 24 25  2  0  0  0  0
 26 22  2  0  0  0  0
 27 23  2  0  0  0  0
 27 26  1  0  0  0  0
M  END
>  <MODEL>
4

>  <REMARK>
 VINA RESULT:      -3.7      3.033      4.520
  Name = 
  1 active torsions:
  status: ('A' for Active; 'I' for Inactive)
    1  A    between atoms: C_9  and  C_15
                            x       y       z     vdW  Elec       q    Type
                         _______ _______ _______ _____ _____    ______ ____

>  <TORSDO>
F 1

$$$$
=
 OpenBabel11052423103D

 27 32  0  0  1  0  0  0  0  0999 V2000
  159.9130  212.4230  154.7750 C   0  0  1  0  0  3  0  0  0  0  0  0
  159.9300  212.4610  152.1920 C   0  0  0  0  0  0  0  0  0  0  0  0
  157.5520  212.0010  152.9190 C   0  0  0  0  0  2  0  0  0  0  0  0
  158.6260  214.4480  148.6330 C   0  0  0  0  0  2  0  0  0  0  0  0
  157.1070  213.9470  146.9030 O   0  0  0  0  0  0  0  0  0  0  0  0
  160.8360  212.9800  151.2640 C   0  0  0  0  0  3  0  0  0  0  0  0
  156.6520  213.4320  150.4840 C   0  0  0  0  0  2  0  0  0  0  0  0
  155.8480  210.8150  155.0110 C   0  0  0  0  0  1  0  0  0  0  0  0
  156.3440  213.1980  149.0040 C   0  0  0  0  0  2  0  0  0  0  0  0
  157.3680  211.9090  156.6930 C   0  0  0  0  0  2  0  0  0  0  0  0
  158.5480  212.5930  151.9500 C   0  0  0  0  0  0  0  0  0  0  0  0
  160.4600  211.8240  153.4510 C   0  0  2  0  0  3  0  0  0  0  0  0
  157.3460  213.8650  148.0950 C   0  0  0  0  0  0  0  0  0  0  0  0
  159.0650  213.7340  149.8760 C   0  0  0  0  0  0  0  0  0  0  0  0
  158.7230  213.3670  154.6180 C   0  0  0  0  0  2  0  0  0  0  0  0
  158.1120  213.2320  150.7790 C   0  0  0  0  0  0  0  0  0  0  0  0
  157.1410  211.5830  155.2350 C   0  0  1  0  0  0  0  0  0  0  0  0
  160.3920  213.5990  150.1400 N   0  0  0  0  0  0  0  0  0  0  0  0
  158.2500  210.8610  156.0060 C   0  0  1  0  0  3  0  0  0  0  0  0
  159.6720  211.4370  155.9170 C   0  0  0  0  0  2  0  0  0  0  0  0
  157.4980  212.6340  154.2540 N   0  0  2  0  0  0  0  0  0  0  0  0
  160.8330  207.5450  153.1630 C   0  0  0  0  0  3  0  0  0  0  0  0
  160.5800  210.3270  153.3730 C   0  0  0  0  0  0  0  0  0  0  0  0
  160.7100  209.5400  154.5260 C   0  0  0  0  0  3  0  0  0  0  0  0
  160.8360  208.1520  154.4210 C   0  0  0  0  0  3  0  0  0  0  0  0
  160.7070  208.3250  152.0100 C   0  0  0  0  0  3  0  0  0  0  0  0
  160.5810  209.7130  152.1150 C   0  0  0  0  0  3  0  0  0  0  0  0
  1 15  1  6  0  0  0
  1 20  1  0  0  0  0
  2 12  1  0  0  0  0
  4 14  1  0  0  0  0
  5 13  2  0  0  0  0
  6  2  2  0  0  0  0
  7 16  1  0  0  0  0
  9  7  1  0  0  0  0
 11  2  1  0  0  0  0
 11  3  1  0  0  0  0
 12 23  1  6  0  0  0
 12  1  1  0  0  0  0
 13  4  1  0  0  0  0
 13  9  1  0  0  0  0
 14 18  2  0  0  0  0
 14 16  1  0  0  0  0
 16 11  2  0  0  0  0
 17  8  1  6  0  0  0
 17 19  1  0  0  0  0
 17 10  1  0  0  0  0
 18  6  1  0  0  0  0
 19 20  1  6  0  0  0
 19 10  1  0  0  0  0
 21  3  1  6  0  0  0
 21 15  1  0  0  0  0
 21 17  1  0  0  0  0
 22 25  1  0  0  0  0
 23 24  1  0  0  0  0
 25 24  2  0  0  0  0
 26 27  1  0  0  0  0
 26 22  2  0  0  0  0
 27 23  2  0  0  0  0
M  END
>  <MODEL>
5

>  <REMARK>
 VINA RESULT:      -3.6      8.743     13.285
  Name = 
  1 active torsions:
  status: ('A' for Active; 'I' for Inactive)
    1  A    between atoms: C_9  and  C_15
                            x       y       z     vdW  Elec       q    Type
                         _______ _______ _______ _____ _____    ______ ____

>  <TORSDO>
F 1

$$$$
=
 OpenBabel11052423103D

 27 32  0  0  1  0  0  0  0  0999 V2000
  161.5290  213.6260  139.5610 C   0  0  1  0  0  3  0  0  0  0  0  0
  159.2700  213.2010  138.3800 C   0  0  0  0  0  0  0  0  0  0  0  0
  158.9280  212.7350  140.8410 C   0  0  0  0  0  2  0  0  0  0  0  0
  155.2030  214.4350  137.8850 C   0  0  0  0  0  2  0  0  0  0  0  0
  153.1040  213.5410  138.4730 O   0  0  0  0  0  0  0  0  0  0  0  0
  158.7680  213.5990  137.1390 C   0  0  0  0  0  3  0  0  0  0  0  0
  156.1280  213.6490  140.5080 C   0  0  0  0  0  2  0  0  0  0  0  0
  160.2170  211.8420  143.3370 C   0  0  0  0  0  1  0  0  0  0  0  0
  154.7400  213.1350  140.1210 C   0  0  0  0  0  2  0  0  0  0  0  0
  162.1630  213.3100  142.7100 C   0  0  0  0  0  2  0  0  0  0  0  0
  158.4150  213.2030  139.5000 C   0  0  0  0  0  0  0  0  0  0  0  0
  160.7280  212.8340  138.4920 C   0  0  2  0  0  3  0  0  0  0  0  0
  154.2690  213.6880  138.8000 C   0  0  0  0  0  0  0  0  0  0  0  0
  156.6190  213.9830  138.0720 C   0  0  0  0  0  0  0  0  0  0  0  0
  160.6810  214.4520  140.5260 C   0  0  0  0  0  2  0  0  0  0  0  0
  157.0770  213.5940  139.3440 C   0  0  0  0  0  0  0  0  0  0  0  0
  160.8470  212.7150  142.2640 C   0  0  1  0  0  0  0  0  0  0  0  0
  157.4700  213.9790  137.0120 N   0  0  0  0  0  0  0  0  0  0  0  0
  162.1530  212.2120  141.6410 C   0  0  1  0  0  3  0  0  0  0  0  0
  162.6040  212.8480  140.3170 C   0  0  0  0  0  2  0  0  0  0  0  0
  159.9520  213.5930  141.4750 N   0  0  2  0  0  0  0  0  0  0  0  0
  161.5540  208.6210  138.1720 C   0  0  0  0  0  3  0  0  0  0  0  0
  160.9940  211.3570  138.3900 C   0  0  0  0  0  0  0  0  0  0  0  0
  160.3780  210.4390  139.2520 C   0  0  0  0  0  3  0  0  0  0  0  0
  160.6570  209.0740  139.1430 C   0  0  0  0  0  3  0  0  0  0  0  0
  162.1730  209.5320  137.3120 C   0  0  0  0  0  3  0  0  0  0  0  0
  161.8940  210.8970  137.4210 C   0  0  0  0  0  3  0  0  0  0  0  0
  1 20  1  1  0  0  0
  1 15  1  0  0  0  0
  2 12  1  0  0  0  0
  2 11  1  0  0  0  0
  3 21  1  0  0  0  0
  4 14  1  0  0  0  0
  4 13  1  0  0  0  0
  5 13  2  0  0  0  0
  6  2  2  0  0  0  0
  9  7  1  0  0  0  0
 11  3  1  0  0  0  0
 12 23  1  1  0  0  0
 12  1  1  0  0  0  0
 13  9  1  0  0  0  0
 14 16  1  0  0  0  0
 16 11  2  0  0  0  0
 16  7  1  0  0  0  0
 17 10  1  0  0  0  0
 17  8  1  1  0  0  0
 18  6  1  0  0  0  0
 18 14  2  0  0  0  0
 19 20  1  6  0  0  0
 19 17  1  0  0  0  0
 19 10  1  0  0  0  0
 21 15  1  6  0  0  0
 21 17  1  0  0  0  0
 22 25  1  0  0  0  0
 23 24  1  0  0  0  0
 25 24  2  0  0  0  0
 26 27  1  0  0  0  0
 26 22  2  0  0  0  0
 27 23  2  0  0  0  0
M  END
>  <MODEL>
6

>  <REMARK>
 VINA RESULT:      -3.6      2.843      4.786
  Name = 
  1 active torsions:
  status: ('A' for Active; 'I' for Inactive)
    1  A    between atoms: C_9  and  C_15
                            x       y       z     vdW  Elec       q    Type
                         _______ _______ _______ _____ _____    ______ ____

>  <TORSDO>
F 1

$$$$
=
 OpenBabel11052423103D

 27 32  0  0  1  0  0  0  0  0999 V2000
  161.0800  213.6640  149.2680 C   0  0  1  0  0  3  0  0  0  0  0  0
  162.0670  212.6790  147.0930 C   0  0  0  0  0  0  0  0  0  0  0  0
  159.5500  212.5120  146.9170 C   0  0  0  0  0  2  0  0  0  0  0  0
  162.4960  213.0820  142.8540 C   0  0  0  0  0  2  0  0  0  0  0  0
  161.6780  211.9190  140.9760 O   0  0  0  0  0  0  0  0  0  0  0  0
  163.3200  212.8010  146.4890 C   0  0  0  0  0  3  0  0  0  0  0  0
  159.8460  212.8540  143.9880 C   0  0  0  0  0  2  0  0  0  0  0  0
  157.0320  212.2260  148.4240 C   0  0  0  0  0  1  0  0  0  0  0  0
  160.0830  212.0500  142.7080 C   0  0  0  0  0  2  0  0  0  0  0  0
  157.9570  213.9160  150.0440 C   0  0  0  0  0  2  0  0  0  0  0  0
  160.9110  212.6870  146.2870 C   0  0  0  0  0  0  0  0  0  0  0  0
  161.9870  212.5980  148.5960 C   0  0  2  0  0  3  0  0  0  0  0  0
  161.4390  212.3170  142.1030 C   0  0  0  0  0  0  0  0  0  0  0  0
  162.3280  212.9230  144.3350 C   0  0  0  0  0  0  0  0  0  0  0  0
  160.1880  214.4530  148.3120 C   0  0  0  0  0  2  0  0  0  0  0  0
  161.0440  212.8060  144.8950 C   0  0  0  0  0  0  0  0  0  0  0  0
  158.2460  213.0380  148.8480 C   0  0  1  0  0  0  0  0  0  0  0  0
  163.4240  212.9200  145.1400 N   0  0  0  0  0  0  0  0  0  0  0  0
  158.8670  212.6940  150.2060 C   0  0  1  0  0  3  0  0  0  0  0  0
  160.2870  213.2060  150.4920 C   0  0  0  0  0  2  0  0  0  0  0  0
  159.0940  213.6200  147.7830 N   0  0  2  0  0  0  0  0  0  0  0  0
  161.7800  208.5530  150.0560 C   0  0  0  0  0  3  0  0  0  0  0  0
  161.9060  211.1940  149.1280 C   0  0  0  0  0  0  0  0  0  0  0  0
  161.9920  210.9230  150.5000 C   0  0  0  0  0  3  0  0  0  0  0  0
  161.9290  209.6050  150.9630 C   0  0  0  0  0  3  0  0  0  0  0  0
  161.6960  208.8180  148.6860 C   0  0  0  0  0  3  0  0  0  0  0  0
  161.7590  210.1350  148.2230 C   0  0  0  0  0  3  0  0  0  0  0  0
  1 15  1  6  0  0  0
  1 20  1  0  0  0  0
  2 12  1  0  0  0  0
  4 14  1  0  0  0  0
  5 13  2  0  0  0  0
  6  2  1  0  0  0  0
  7 16  1  0  0  0  0
  9  7  1  0  0  0  0
 11  3  1  0  0  0  0
 11  2  2  0  0  0  0
 12 23  1  6  0  0  0
 12  1  1  0  0  0  0
 13  9  1  0  0  0  0
 13  4  1  0  0  0  0
 14 16  2  0  0  0  0
 14 18  1  0  0  0  0
 16 11  1  0  0  0  0
 17  8  1  6  0  0  0
 17 10  1  0  0  0  0
 17 19  1  0  0  0  0
 18  6  2  0  0  0  0
 19 10  1  1  0  0  0
 19 20  1  0  0  0  0
 21  3  1  1  0  0  0
 21 15  1  0  0  0  0
 21 17  1  0  0  0  0
 22 25  1  0  0  0  0
 23 24  1  0  0  0  0
 24 25  2  0  0  0  0
 26 22  2  0  0  0  0
 27 26  1  0  0  0  0
 27 23  2  0  0  0  0
M  END
>  <MODEL>
7

>  <REMARK>
 VINA RESULT:      -3.1      4.183      9.284
  Name = 
  1 active torsions:
  status: ('A' for Active; 'I' for Inactive)
    1  A    between atoms: C_9  and  C_15
                            x       y       z     vdW  Elec       q    Type
                         _______ _______ _______ _____ _____    ______ ____

>  <TORSDO>
F 1

$$$$
=
 OpenBabel11052423103D

 27 32  0  0  1  0  0  0  0  0999 V2000
  161.2010  211.1670  154.5160 C   0  0  1  0  0  3  0  0  0  0  0  0
  160.7650  211.4420  151.9840 C   0  0  0  0  0  0  0  0  0  0  0  0
  158.5130  211.4090  153.1340 C   0  0  0  0  0  2  0  0  0  0  0  0
  159.3100  213.9760  148.8580 C   0  0  0  0  0  2  0  0  0  0  0  0
  157.4350  213.9580  147.4310 O   0  0  0  0  0  0  0  0  0  0  0  0
  161.5820  211.8500  150.9270 C   0  0  0  0  0  3  0  0  0  0  0  0
  157.5250  213.2140  151.0000 C   0  0  0  0  0  2  0  0  0  0  0  0
  156.9930  210.4030  155.4510 C   0  0  0  0  0  1  0  0  0  0  0  0
  156.9150  213.1860  149.5980 C   0  0  0  0  0  2  0  0  0  0  0  0
  158.9900  211.0040  156.8620 C   0  0  0  0  0  2  0  0  0  0  0  0
  159.4240  211.8740  152.0230 C   0  0  0  0  0  0  0  0  0  0  0  0
  161.3600  210.5960  153.0810 C   0  0  2  0  0  3  0  0  0  0  0  0
  157.8590  213.7180  148.5490 C   0  0  0  0  0  0  0  0  0  0  0  0
  159.7980  213.0750  149.9510 C   0  0  0  0  0  0  0  0  0  0  0  0
  160.2360  212.3440  154.6430 C   0  0  0  0  0  2  0  0  0  0  0  0
  158.9350  212.6950  150.9950 C   0  0  0  0  0  0  0  0  0  0  0  0
  158.4410  210.8690  155.4600 C   0  0  1  0  0  0  0  0  0  0  0  0
  161.0890  212.6490  149.9460 N   0  0  0  0  0  0  0  0  0  0  0  0
  159.4860  209.8680  155.9610 C   0  0  1  0  0  3  0  0  0  0  0  0
  160.9600  210.1480  155.6290 C   0  0  0  0  0  2  0  0  0  0  0  0
  158.8360  211.9120  154.4850 N   0  0  2  0  0  0  0  0  0  0  0  0
  160.7510  206.3730  152.5010 C   0  0  0  0  0  3  0  0  0  0  0  0
  161.1370  209.1200  152.9010 C   0  0  0  0  0  0  0  0  0  0  0  0
  161.0580  208.2500  153.9980 C   0  0  0  0  0  3  0  0  0  0  0  0
  160.8650  206.8800  153.7990 C   0  0  0  0  0  3  0  0  0  0  0  0
  160.8320  207.2350  151.4040 C   0  0  0  0  0  3  0  0  0  0  0  0
  161.0240  208.6050  151.6040 C   0  0  0  0  0  3  0  0  0  0  0  0
  1 15  1  6  0  0  0
  1 20  1  0  0  0  0
  2 11  1  0  0  0  0
  2 12  1  0  0  0  0
  4 14  1  0  0  0  0
  5 13  2  0  0  0  0
  6  2  2  0  0  0  0
  9  7  1  0  0  0  0
 11  3  1  0  0  0  0
 12 23  1  1  0  0  0
 12  1  1  0  0  0  0
 13  4  1  0  0  0  0
 13  9  1  0  0  0  0
 14 16  1  0  0  0  0
 16  7  1  0  0  0  0
 16 11  2  0  0  0  0
 17  8  1  6  0  0  0
 17 19  1  0  0  0  0
 17 10  1  0  0  0  0
 18 14  2  0  0  0  0
 18  6  1  0  0  0  0
 19 20  1  6  0  0  0
 19 10  1  0  0  0  0
 21  3  1  6  0  0  0
 21 15  1  0  0  0  0
 21 17  1  0  0  0  0
 22 25  1  0  0  0  0
 23 24  1  0  0  0  0
 25 24  2  0  0  0  0
 26 27  1  0  0  0  0
 26 22  2  0  0  0  0
 27 23  2  0  0  0  0
M  END
>  <MODEL>
8

>  <REMARK>
 VINA RESULT:      -2.8      8.939     13.162
  Name = 
  1 active torsions:
  status: ('A' for Active; 'I' for Inactive)
    1  A    between atoms: C_9  and  C_15
                            x       y       z     vdW  Elec       q    Type
                         _______ _______ _______ _____ _____    ______ ____

>  <TORSDO>
F 1

$$$$
=
 OpenBabel11052423103D

 27 32  0  0  1  0  0  0  0  0999 V2000
  161.0410  211.5110  154.5570 C   0  0  1  0  0  3  0  0  0  0  0  0
  160.4290  211.8730  152.0730 C   0  0  0  0  0  0  0  0  0  0  0  0
  158.2620  211.6090  153.3490 C   0  0  0  0  0  2  0  0  0  0  0  0
  158.5970  214.4330  149.1750 C   0  0  0  0  0  2  0  0  0  0  0  0
  156.6430  214.3380  147.8610 O   0  0  0  0  0  0  0  0  0  0  0  0
  161.1460  212.3930  150.9930 C   0  0  0  0  0  3  0  0  0  0  0  0
  157.0110  213.4330  151.3750 C   0  0  0  0  0  2  0  0  0  0  0  0
  156.9680  210.3790  155.6950 C   0  0  0  0  0  1  0  0  0  0  0  0
  156.3180  213.4250  150.0100 C   0  0  0  0  0  2  0  0  0  0  0  0
  158.9980  211.0650  157.0160 C   0  0  0  0  0  2  0  0  0  0  0  0
  159.0650  212.1970  152.2130 C   0  0  0  0  0  0  0  0  0  0  0  0
  161.1520  211.0240  153.0870 C   0  0  2  0  0  3  0  0  0  0  0  0
  157.1530  214.0780  148.9380 C   0  0  0  0  0  0  0  0  0  0  0  0
  159.2180  213.5210  150.1890 C   0  0  0  0  0  0  0  0  0  0  0  0
  160.0010  212.6020  154.8020 C   0  0  0  0  0  2  0  0  0  0  0  0
  158.4530  213.0260  151.2590 C   0  0  0  0  0  0  0  0  0  0  0  0
  158.3750  210.9550  155.6430 C   0  0  1  0  0  0  0  0  0  0  0  0
  160.5350  213.1970  150.0850 N   0  0  0  0  0  0  0  0  0  0  0  0
  159.5210  210.0150  156.0290 C   0  0  1  0  0  3  0  0  0  0  0  0
  160.9470  210.4250  155.6270 C   0  0  0  0  0  2  0  0  0  0  0  0
  158.6300  212.0710  154.7040 N   0  0  2  0  0  0  0  0  0  0  0  0
  160.7710  206.7820  152.4540 C   0  0  0  0  0  3  0  0  0  0  0  0
  161.0290  209.5450  152.8430 C   0  0  0  0  0  0  0  0  0  0  0  0
  160.9090  209.0220  151.5480 C   0  0  0  0  0  3  0  0  0  0  0  0
  160.7800  207.6440  151.3540 C   0  0  0  0  0  3  0  0  0  0  0  0
  160.8870  207.2990  153.7480 C   0  0  0  0  0  3  0  0  0  0  0  0
  161.0160  208.6770  153.9420 C   0  0  0  0  0  3  0  0  0  0  0  0
  1 15  1  6  0  0  0
  1 20  1  0  0  0  0
  2 11  1  0  0  0  0
  2 12  1  0  0  0  0
  4 14  1  0  0  0  0
  5 13  2  0  0  0  0
  6  2  2  0  0  0  0
  9  7  1  0  0  0  0
 11  3  1  0  0  0  0
 12 23  1  1  0  0  0
 12  1  1  0  0  0  0
 13  4  1  0  0  0  0
 13  9  1  0  0  0  0
 14 16  1  0  0  0  0
 16  7  1  0  0  0  0
 16 11  2  0  0  0  0
 17  8  1  6  0  0  0
 17 19  1  0  0  0  0
 17 10  1  0  0  0  0
 18 14  2  0  0  0  0
 18  6  1  0  0  0  0
 19 20  1  6  0  0  0
 19 10  1  0  0  0  0
 21  3  1  6  0  0  0
 21 15  1  0  0  0  0
 21 17  1  0  0  0  0
 22 26  1  0  0  0  0
 23 27  1  0  0  0  0
 24 23  2  0  0  0  0
 25 24  1  0  0  0  0
 25 22  2  0  0  0  0
 26 27  2  0  0  0  0
M  END
>  <MODEL>
9

>  <REMARK>
 VINA RESULT:      -2.6      9.420     13.248
  Name = 
  1 active torsions:
  status: ('A' for Active; 'I' for Inactive)
    1  A    between atoms: C_9  and  C_15
                            x       y       z     vdW  Elec       q    Type
                         _______ _______ _______ _____ _____    ______ ____

>  <TORSDO>
F 1

$$$$
