=
 OpenBabel11062408213D

 32 37  0  0  1  0  0  0  0  0999 V2000
  161.2150  208.1970  151.7320 C   0  0  0  0  0  0  0  0  0  0  0  0
  161.5690  208.2970  149.3310 C   0  0  0  0  0  0  0  0  0  0  0  0
  161.0700  207.4240  152.8970 C   0  0  0  0  0  3  0  0  0  0  0  0
  161.4120  207.5510  150.5060 C   0  0  0  0  0  0  0  0  0  0  0  0
  161.8110  207.6350  148.1210 C   0  0  0  0  0  3  0  0  0  0  0  0
  161.3250  209.7790  149.2770 C   0  0  1  0  0  3  0  0  0  0  0  0
  161.4690  206.1360  150.4530 C   0  0  0  0  0  0  0  0  0  0  0  0
  161.7170  205.4920  149.2410 C   0  0  0  0  0  3  0  0  0  0  0  0
  161.2920  205.3850  151.6170 C   0  0  0  0  0  3  0  0  0  0  0  0
  161.0940  210.4370  150.5930 N   0  0  1  0  0  0  0  0  0  0  0  0
  161.4050  209.6930  151.8220 C   0  0  1  0  0  3  0  0  0  0  0  0
  162.3890  210.5570  149.8950 C   0  0  2  0  0  3  0  0  0  0  0  0
  161.8960  206.2400  148.0750 C   0  0  0  0  0  0  0  0  0  0  0  0
  161.0860  206.0300  152.8380 C   0  0  0  0  0  3  0  0  0  0  0  0
  160.7350  210.3750  155.4910 C   0  0  0  0  0  0  0  0  0  0  0  0
  157.6670  212.0300  155.7730 O   0  0  0  0  0  1  0  0  0  0  0  0
  161.4220  210.4830  156.6560 F   0  0  0  0  0  0  0  0  0  0  0  0
  158.6070  211.5630  153.6730 C   0  0  0  0  0  3  0  0  0  0  0  0
  160.6990  210.3270  152.9910 C   0  0  0  0  0  0  0  0  0  0  0  0
  159.2650  210.1400  155.5740 C   0  0  0  0  0  2  0  0  0  0  0  0
  159.5040  210.8780  152.7230 C   0  0  0  0  0  3  0  0  0  0  0  0
  161.3850  210.4270  154.3170 C   0  0  0  0  0  0  0  0  0  0  0  0
  162.8750  210.5580  154.3430 C   0  0  0  0  0  1  0  0  0  0  0  0
  158.5140  211.2780  154.9710 C   0  0  0  0  0  0  0  0  0  0  0  0
  163.3500  211.8440  147.9980 C   0  0  0  0  0  2  0  0  0  0  0  0
  161.2820  212.8910  147.3430 C   0  0  0  0  0  2  0  0  0  0  0  0
  161.1110  212.3730  148.7610 C   0  0  2  0  0  3  0  0  0  0  0  0
  160.6010  213.4850  149.6560 C   0  0  0  0  0  1  0  0  0  0  0  0
  162.7660  212.8580  147.0430 C   0  0  0  0  0  2  0  0  0  0  0  0
  162.4810  211.9210  149.2350 C   0  0  1  0  0  3  0  0  0  0  0  0
  162.1780  205.5540  146.7850 C   0  0  0  0  0  2  0  0  0  0  0  0
  161.8010  204.0880  146.8800 C   0  0  0  0  0  1  0  0  0  0  0  0
  1 11  1  0  0  0  0
  1  3  1  0  0  0  0
  2  4  1  0  0  0  0
  4  1  2  0  0  0  0
  5  2  2  0  0  0  0
  6  2  1  1  0  0  0
  6 12  1  0  0  0  0
  6 10  1  0  0  0  0
  7  4  1  0  0  0  0
  7  9  2  0  0  0  0
  8  7  1  0  0  0  0
  9 14  1  0  0  0  0
 10 11  1  0  0  0  0
 11 19  1  0  0  0  0
 12 10  1  0  0  0  0
 13  5  1  0  0  0  0
 13  8  2  0  0  0  0
 14  3  2  0  0  0  0
 15 20  1  0  0  0  0
 15 17  1  0  0  0  0
 18 24  2  0  0  0  0
 19 22  1  0  0  0  0
 21 19  2  0  0  0  0
 21 18  1  0  0  0  0
 22 23  1  0  0  0  0
 22 15  2  0  0  0  0
 24 20  1  0  0  0  0
 24 16  1  0  0  0  0
 25 30  1  0  0  0  0
 26 27  1  0  0  0  0
 27 30  1  0  0  0  0
 27 28  1  0  0  0  0
 29 26  1  0  0  0  0
 29 25  1  0  0  0  0
 30 12  1  0  0  0  0
 31 32  1  0  0  0  0
 31 13  1  0  0  0  0
M  END
>  <MODEL>
1

>  <REMARK>
 VINA RESULT:      -7.1      0.000      0.000
  Name = 
  3 active torsions:
  status: ('A' for Active; 'I' for Inactive)
    1  A    between atoms: C_13  and  C_29
    2  A    between atoms: C_16  and  C_27
    3  A    between atoms: C_28  and  C_32
                            x       y       z     vdW  Elec       q    Type
                         _______ _______ _______ _____ _____    ______ ____

>  <TORSDO>
F 3

$$$$
=
 OpenBabel11062408213D

 32 37  0  0  1  0  0  0  0  0999 V2000
  161.2240  207.6610  149.7840 C   0  0  0  0  0  0  0  0  0  0  0  0
  161.5940  206.0340  151.5500 C   0  0  0  0  0  0  0  0  0  0  0  0
  160.9430  207.9300  148.4330 C   0  0  0  0  0  3  0  0  0  0  0  0
  161.3250  206.3310  150.2070 C   0  0  0  0  0  0  0  0  0  0  0  0
  161.6470  204.6980  151.9640 C   0  0  0  0  0  3  0  0  0  0  0  0
  161.9940  207.0880  152.5450 C   0  0  1  0  0  3  0  0  0  0  0  0
  161.1410  205.2770  149.2780 C   0  0  0  0  0  0  0  0  0  0  0  0
  161.1900  203.9510  149.7070 C   0  0  0  0  0  3  0  0  0  0  0  0
  160.8940  205.5650  147.9340 C   0  0  0  0  0  3  0  0  0  0  0  0
  161.9000  208.4930  152.0600 N   0  0  1  0  0  0  0  0  0  0  0  0
  161.1710  208.7660  150.8130 C   0  0  1  0  0  3  0  0  0  0  0  0
  160.8830  207.9280  152.9680 C   0  0  2  0  0  3  0  0  0  0  0  0
  161.4350  203.6590  151.0520 C   0  0  0  0  0  0  0  0  0  0  0  0
  160.8010  206.8910  147.5110 C   0  0  0  0  0  3  0  0  0  0  0  0
  160.7000  212.4490  150.0460 C   0  0  0  0  0  0  0  0  0  0  0  0
  163.2210  213.4570  147.8420 O   0  0  0  0  0  1  0  0  0  0  0  0
  160.1000  213.5410  150.5850 F   0  0  0  0  0  0  0  0  0  0  0  0
  163.2040  211.2980  148.7610 C   0  0  0  0  0  3  0  0  0  0  0  0
  161.5690  210.1160  150.2780 C   0  0  0  0  0  0  0  0  0  0  0  0
  161.0590  212.5000  148.6000 C   0  0  0  0  0  2  0  0  0  0  0  0
  162.6070  210.1240  149.4260 C   0  0  0  0  0  3  0  0  0  0  0  0
  160.9050  211.3530  150.7950 C   0  0  0  0  0  0  0  0  0  0  0  0
  160.4110  211.3630  152.2070 C   0  0  0  0  0  1  0  0  0  0  0  0
  162.5360  212.3980  148.4190 C   0  0  0  0  0  0  0  0  0  0  0  0
  161.5990  209.8730  154.3390 C   0  0  0  0  0  2  0  0  0  0  0  0
  159.7490  209.7800  155.8780 C   0  0  0  0  0  2  0  0  0  0  0  0
  159.8330  208.4380  155.1700 C   0  0  2  0  0  3  0  0  0  0  0  0
  159.8570  207.3180  156.1930 C   0  0  0  0  0  1  0  0  0  0  0  0
  161.0510  210.5010  155.5980 C   0  0  0  0  0  2  0  0  0  0  0  0
  161.1270  208.4360  154.3770 C   0  0  1  0  0  3  0  0  0  0  0  0
  161.4710  202.2450  151.5130 C   0  0  0  0  0  2  0  0  0  0  0  0
  161.0050  201.3210  150.4040 C   0  0  0  0  0  1  0  0  0  0  0  0
  1  4  1  0  0  0  0
  1 11  1  0  0  0  0
  2  5  1  0  0  0  0
  3  1  2  0  0  0  0
  4  2  2  0  0  0  0
  6  2  1  6  0  0  0
  6 12  1  0  0  0  0
  7  8  2  0  0  0  0
  7  4  1  0  0  0  0
  8 13  1  0  0  0  0
  9  7  1  0  0  0  0
 10  6  1  0  0  0  0
 10 12  1  0  0  0  0
 11 10  1  0  0  0  0
 12 30  1  0  0  0  0
 13 31  1  0  0  0  0
 13  5  2  0  0  0  0
 14  9  2  0  0  0  0
 14  3  1  0  0  0  0
 15 17  1  0  0  0  0
 15 22  2  0  0  0  0
 16 24  1  0  0  0  0
 18 21  1  0  0  0  0
 19 22  1  0  0  0  0
 19 11  1  0  0  0  0
 20 15  1  0  0  0  0
 21 19  2  0  0  0  0
 22 23  1  0  0  0  0
 24 20  1  0  0  0  0
 24 18  2  0  0  0  0
 25 30  1  0  0  0  0
 25 29  1  0  0  0  0
 27 26  1  0  0  0  0
 27 28  1  0  0  0  0
 29 26  1  0  0  0  0
 30 27  1  0  0  0  0
 32 31  1  0  0  0  0
M  END
>  <MODEL>
2

>  <REMARK>
 VINA RESULT:      -6.2      2.619      5.623
  Name = 
  3 active torsions:
  status: ('A' for Active; 'I' for Inactive)
    1  A    between atoms: C_13  and  C_29
    2  A    between atoms: C_16  and  C_27
    3  A    between atoms: C_28  and  C_32
                            x       y       z     vdW  Elec       q    Type
                         _______ _______ _______ _____ _____    ______ ____

>  <TORSDO>
F 3

$$$$
=
 OpenBabel11062408213D

 32 37  0  0  1  0  0  0  0  0999 V2000
  161.7180  209.3280  150.2400 C   0  0  0  0  0  0  0  0  0  0  0  0
  161.2910  206.9380  150.1620 C   0  0  0  0  0  0  0  0  0  0  0  0
  161.9200  210.4920  151.0020 C   0  0  0  0  0  3  0  0  0  0  0  0
  161.4850  208.1150  150.8970 C   0  0  0  0  0  0  0  0  0  0  0  0
  161.1050  205.7260  150.8370 C   0  0  0  0  0  3  0  0  0  0  0  0
  161.1080  206.9390  148.6700 C   0  0  1  0  0  3  0  0  0  0  0  0
  161.4600  208.0710  152.3130 C   0  0  0  0  0  0  0  0  0  0  0  0
  161.2800  206.8550  152.9710 C   0  0  0  0  0  3  0  0  0  0  0  0
  161.6310  209.2430  153.0520 C   0  0  0  0  0  3  0  0  0  0  0  0
  161.3380  208.2490  147.9990 N   0  0  1  0  0  0  0  0  0  0  0  0
  161.9920  209.3270  148.7530 C   0  0  1  0  0  3  0  0  0  0  0  0
  162.3460  207.1730  147.9410 C   0  0  2  0  0  3  0  0  0  0  0  0
  161.1100  205.6790  152.2350 C   0  0  0  0  0  0  0  0  0  0  0  0
  161.8550  210.4550  152.3960 C   0  0  0  0  0  3  0  0  0  0  0  0
  162.4770  213.0340  148.1210 C   0  0  0  0  0  0  0  0  0  0  0  0
  159.8230  214.1830  146.1530 O   0  0  0  0  0  1  0  0  0  0  0  0
  163.4750  213.9530  148.1240 F   0  0  0  0  0  0  0  0  0  0  0  0
  160.0670  211.9030  146.6510 C   0  0  0  0  0  3  0  0  0  0  0  0
  161.7240  210.6500  148.0850 C   0  0  0  0  0  0  0  0  0  0  0  0
  161.0740  213.5350  148.1970 C   0  0  0  0  0  2  0  0  0  0  0  0
  160.5730  210.7350  147.3990 C   0  0  0  0  0  3  0  0  0  0  0  0
  162.7670  211.7230  148.1020 C   0  0  0  0  0  0  0  0  0  0  0  0
  164.2080  211.3210  148.1330 C   0  0  0  0  0  1  0  0  0  0  0  0
  160.3160  213.1730  146.9660 C   0  0  0  0  0  0  0  0  0  0  0  0
  163.3800  205.4590  146.4670 C   0  0  0  0  0  2  0  0  0  0  0  0
  161.3150  204.3670  145.8800 C   0  0  0  0  0  2  0  0  0  0  0  0
  160.9730  205.7410  146.4310 C   0  0  2  0  0  3  0  0  0  0  0  0
  160.0710  206.4750  145.4590 C   0  0  0  0  0  1  0  0  0  0  0  0
  162.8020  204.3700  145.5950 C   0  0  0  0  0  2  0  0  0  0  0  0
  162.2820  206.4950  146.5840 C   0  0  1  0  0  3  0  0  0  0  0  0
  160.9350  204.3790  152.9370 C   0  0  0  0  0  2  0  0  0  0  0  0
  161.1200  203.2310  151.9630 C   0  0  0  0  0  1  0  0  0  0  0  0
  1  4  2  0  0  0  0
  1  3  1  0  0  0  0
  2  5  2  0  0  0  0
  2  4  1  0  0  0  0
  3 14  2  0  0  0  0
  4  7  1  0  0  0  0
  5 13  1  0  0  0  0
  6  2  1  1  0  0  0
  7  8  1  0  0  0  0
  7  9  2  0  0  0  0
 10  6  1  0  0  0  0
 10 11  1  0  0  0  0
 11  1  1  0  0  0  0
 12 10  1  0  0  0  0
 12  6  1  0  0  0  0
 13 31  1  0  0  0  0
 13  8  2  0  0  0  0
 14  9  1  0  0  0  0
 15 17  1  0  0  0  0
 15 20  1  0  0  0  0
 16 24  1  0  0  0  0
 18 24  2  0  0  0  0
 18 21  1  0  0  0  0
 19 22  1  0  0  0  0
 19 11  1  0  0  0  0
 21 19  2  0  0  0  0
 22 15  2  0  0  0  0
 22 23  1  0  0  0  0
 24 20  1  0  0  0  0
 25 30  1  0  0  0  0
 26 27  1  0  0  0  0
 27 30  1  0  0  0  0
 28 27  1  0  0  0  0
 29 26  1  0  0  0  0
 29 25  1  0  0  0  0
 30 12  1  0  0  0  0
 32 31  1  0  0  0  0
M  END
>  <MODEL>
3

>  <REMARK>
 VINA RESULT:      -5.6      3.022      6.005
  Name = 
  3 active torsions:
  status: ('A' for Active; 'I' for Inactive)
    1  A    between atoms: C_13  and  C_29
    2  A    between atoms: C_16  and  C_27
    3  A    between atoms: C_28  and  C_32
                            x       y       z     vdW  Elec       q    Type
                         _______ _______ _______ _____ _____    ______ ____

>  <TORSDO>
F 3

$$$$
=
 OpenBabel11062408213D

 32 37  0  0  1  0  0  0  0  0999 V2000
  160.9410  208.8060  153.0550 C   0  0  0  0  0  0  0  0  0  0  0  0
  161.1760  208.3550  150.6790 C   0  0  0  0  0  0  0  0  0  0  0  0
  160.8550  208.3200  154.3710 C   0  0  0  0  0  3  0  0  0  0  0  0
  161.0780  207.8960  152.0000 C   0  0  0  0  0  0  0  0  0  0  0  0
  161.3590  207.4330  149.6420 C   0  0  0  0  0  3  0  0  0  0  0  0
  160.9270  209.7880  150.3020 C   0  0  1  0  0  3  0  0  0  0  0  0
  161.1350  206.5060  152.2680 C   0  0  0  0  0  0  0  0  0  0  0  0
  161.3240  205.6010  151.2240 C   0  0  0  0  0  3  0  0  0  0  0  0
  161.0170  206.0410  153.5790 C   0  0  0  0  0  3  0  0  0  0  0  0
  160.7600  210.7300  151.4430 N   0  0  1  0  0  0  0  0  0  0  0  0
  161.1330  210.2820  152.7930 C   0  0  1  0  0  3  0  0  0  0  0  0
  162.0190  210.6760  150.6750 C   0  0  2  0  0  3  0  0  0  0  0  0
  161.4440  206.0630  149.9100 C   0  0  0  0  0  0  0  0  0  0  0  0
  160.8700  206.9480  154.6300 C   0  0  0  0  0  3  0  0  0  0  0  0
  158.7080  212.9190  154.0340 C   0  0  0  0  0  0  0  0  0  0  0  0
  159.6600  213.8760  157.2610 O   0  0  0  0  0  1  0  0  0  0  0  0
  157.4470  213.3530  153.7810 F   0  0  0  0  0  0  0  0  0  0  0  0
  160.7490  212.1220  156.1430 C   0  0  0  0  0  3  0  0  0  0  0  0
  160.4840  211.1710  153.8200 C   0  0  0  0  0  0  0  0  0  0  0  0
  159.6200  213.8350  154.7790 C   0  0  0  0  0  2  0  0  0  0  0  0
  161.1540  211.3180  154.9740 C   0  0  0  0  0  3  0  0  0  0  0  0
  159.1150  211.7240  153.5740 C   0  0  0  0  0  0  0  0  0  0  0  0
  158.1590  210.9270  152.7460 C   0  0  0  0  0  1  0  0  0  0  0  0
  160.0200  213.2360  156.0830 C   0  0  0  0  0  0  0  0  0  0  0  0
  162.3540  211.3690  148.3120 C   0  0  0  0  0  2  0  0  0  0  0  0
  160.4120  212.7880  148.1970 C   0  0  0  0  0  2  0  0  0  0  0  0
  160.7320  212.5560  149.6640 C   0  0  2  0  0  3  0  0  0  0  0  0
  160.8200  213.8860  150.3880 C   0  0  0  0  0  1  0  0  0  0  0  0
  161.6250  212.3360  147.4110 C   0  0  0  0  0  2  0  0  0  0  0  0
  162.0770  211.8530  149.7190 C   0  0  1  0  0  3  0  0  0  0  0  0
  161.6630  205.0990  148.7980 C   0  0  0  0  0  2  0  0  0  0  0  0
  161.2370  203.7060  149.2220 C   0  0  0  0  0  1  0  0  0  0  0  0
  1  3  1  0  0  0  0
  2  4  1  0  0  0  0
  3 14  2  0  0  0  0
  4  7  1  0  0  0  0
  4  1  2  0  0  0  0
  5 13  1  0  0  0  0
  5  2  2  0  0  0  0
  6 12  1  0  0  0  0
  6  2  1  1  0  0  0
  6 10  1  0  0  0  0
  7  9  2  0  0  0  0
  8  7  1  0  0  0  0
  9 14  1  0  0  0  0
 10 11  1  0  0  0  0
 11  1  1  0  0  0  0
 11 19  1  0  0  0  0
 12 10  1  0  0  0  0
 13  8  2  0  0  0  0
 15 20  1  0  0  0  0
 17 15  1  0  0  0  0
 19 21  2  0  0  0  0
 20 24  1  0  0  0  0
 21 18  1  0  0  0  0
 22 19  1  0  0  0  0
 22 15  2  0  0  0  0
 23 22  1  0  0  0  0
 24 18  2  0  0  0  0
 24 16  1  0  0  0  0
 25 30  1  0  0  0  0
 26 27  1  0  0  0  0
 27 30  1  0  0  0  0
 27 28  1  0  0  0  0
 29 26  1  0  0  0  0
 29 25  1  0  0  0  0
 30 12  1  0  0  0  0
 31 32  1  0  0  0  0
 31 13  1  0  0  0  0
M  END
>  <MODEL>
4

>  <REMARK>
 VINA RESULT:      -4.8      1.673      2.387
  Name = 
  3 active torsions:
  status: ('A' for Active; 'I' for Inactive)
    1  A    between atoms: C_13  and  C_29
    2  A    between atoms: C_16  and  C_27
    3  A    between atoms: C_28  and  C_32
                            x       y       z     vdW  Elec       q    Type
                         _______ _______ _______ _____ _____    ______ ____

>  <TORSDO>
F 3

$$$$
=
 OpenBabel11062408213D

 32 37  0  0  1  0  0  0  0  0999 V2000
  161.1690  205.3230  151.1900 C   0  0  0  0  0  0  0  0  0  0  0  0
  161.3390  205.9330  148.8450 C   0  0  0  0  0  0  0  0  0  0  0  0
  161.0100  204.3250  152.1670 C   0  0  0  0  0  3  0  0  0  0  0  0
  161.1720  204.9600  149.8400 C   0  0  0  0  0  0  0  0  0  0  0  0
  161.3850  205.5450  147.5010 C   0  0  0  0  0  3  0  0  0  0  0  0
  161.3070  207.4060  149.1440 C   0  0  1  0  0  3  0  0  0  0  0  0
  161.0210  203.5990  149.4730 C   0  0  0  0  0  0  0  0  0  0  0  0
  161.0750  203.2280  148.1290 C   0  0  0  0  0  3  0  0  0  0  0  0
  160.8320  202.6270  150.4560 C   0  0  0  0  0  3  0  0  0  0  0  0
  161.2790  207.7640  150.5900 N   0  0  1  0  0  0  0  0  0  0  0  0
  161.5790  206.7240  151.5840 C   0  0  1  0  0  3  0  0  0  0  0  0
  162.5180  207.8840  149.7960 C   0  0  2  0  0  3  0  0  0  0  0  0
  161.2650  204.1980  147.1420 C   0  0  0  0  0  0  0  0  0  0  0  0
  160.8210  202.9910  151.8030 C   0  0  0  0  0  3  0  0  0  0  0  0
  160.7880  209.1920  154.3510 C   0  0  0  0  0  0  0  0  0  0  0  0
  160.0400  207.4000  157.2600 O   0  0  0  0  0  1  0  0  0  0  0  0
  160.3880  210.4810  154.4920 F   0  0  0  0  0  0  0  0  0  0  0  0
  160.4100  206.3020  155.2190 C   0  0  0  0  0  3  0  0  0  0  0  0
  161.0670  207.1500  152.9340 C   0  0  0  0  0  0  0  0  0  0  0  0
  161.4170  208.5290  155.5300 C   0  0  0  0  0  2  0  0  0  0  0  0
  160.8990  206.1670  153.8330 C   0  0  0  0  0  3  0  0  0  0  0  0
  160.6610  208.5710  153.1660 C   0  0  0  0  0  0  0  0  0  0  0  0
  160.1160  209.3580  152.0160 C   0  0  0  0  0  1  0  0  0  0  0  0
  160.5930  207.3740  155.9880 C   0  0  0  0  0  0  0  0  0  0  0  0
  162.0320  209.6900  148.1580 C   0  0  0  0  0  2  0  0  0  0  0  0
  161.3830  211.3340  149.7950 C   0  0  0  0  0  2  0  0  0  0  0  0
  162.1620  210.2450  150.5130 C   0  0  2  0  0  3  0  0  0  0  0  0
  163.2790  210.8670  151.3300 C   0  0  0  0  0  1  0  0  0  0  0  0
  161.6250  211.1360  148.3130 C   0  0  0  0  0  2  0  0  0  0  0  0
  162.7510  209.3430  149.4440 C   0  0  1  0  0  3  0  0  0  0  0  0
  161.3410  203.8010  145.7100 C   0  0  0  0  0  2  0  0  0  0  0  0
  161.7670  204.9830  144.8610 C   0  0  0  0  0  1  0  0  0  0  0  0
  1 11  1  0  0  0  0
  1  3  1  0  0  0  0
  2  4  1  0  0  0  0
  4  1  2  0  0  0  0
  5  2  2  0  0  0  0
  6  2  1  1  0  0  0
  6 12  1  0  0  0  0
  6 10  1  0  0  0  0
  7  4  1  0  0  0  0
  7  9  2  0  0  0  0
  8  7  1  0  0  0  0
  9 14  1  0  0  0  0
 10 11  1  0  0  0  0
 11 19  1  0  0  0  0
 12 10  1  0  0  0  0
 13  5  1  0  0  0  0
 13  8  2  0  0  0  0
 14  3  2  0  0  0  0
 15 17  1  0  0  0  0
 15 20  1  0  0  0  0
 18 24  2  0  0  0  0
 19 22  1  0  0  0  0
 19 21  2  0  0  0  0
 20 24  1  0  0  0  0
 21 18  1  0  0  0  0
 22 15  2  0  0  0  0
 23 22  1  0  0  0  0
 24 16  1  0  0  0  0
 25 29  1  0  0  0  0
 25 30  1  0  0  0  0
 26 27  1  0  0  0  0
 27 28  1  0  0  0  0
 29 26  1  0  0  0  0
 30 12  1  0  0  0  0
 30 27  1  0  0  0  0
 31 13  1  0  0  0  0
 32 31  1  0  0  0  0
M  END
>  <MODEL>
5

>  <REMARK>
 VINA RESULT:      -4.8      1.951      3.172
  Name = 
  3 active torsions:
  status: ('A' for Active; 'I' for Inactive)
    1  A    between atoms: C_13  and  C_29
    2  A    between atoms: C_16  and  C_27
    3  A    between atoms: C_28  and  C_32
                            x       y       z     vdW  Elec       q    Type
                         _______ _______ _______ _____ _____    ______ ____

>  <TORSDO>
F 3

$$$$
=
 OpenBabel11062408213D

 32 37  0  0  1  0  0  0  0  0999 V2000
  161.3290  207.7550  151.4420 C   0  0  0  0  0  0  0  0  0  0  0  0
  161.4970  208.1310  149.0480 C   0  0  0  0  0  0  0  0  0  0  0  0
  161.2460  206.8540  152.5170 C   0  0  0  0  0  3  0  0  0  0  0  0
  161.4020  207.2550  150.1380 C   0  0  0  0  0  0  0  0  0  0  0  0
  161.6150  207.6110  147.7540 C   0  0  0  0  0  3  0  0  0  0  0  0
  161.3110  209.6160  149.1880 C   0  0  1  0  0  3  0  0  0  0  0  0
  161.3960  205.8550  149.9160 C   0  0  0  0  0  0  0  0  0  0  0  0
  161.5210  205.3530  148.6210 C   0  0  0  0  0  3  0  0  0  0  0  0
  161.2810  204.9770  150.9950 C   0  0  0  0  0  3  0  0  0  0  0  0
  161.2120  210.1190  150.5860 N   0  0  1  0  0  0  0  0  0  0  0  0
  161.5880  209.2240  151.6900 C   0  0  1  0  0  3  0  0  0  0  0  0
  162.4520  210.2800  149.8020 C   0  0  2  0  0  3  0  0  0  0  0  0
  161.6390  206.2290  147.5380 C   0  0  0  0  0  0  0  0  0  0  0  0
  161.1990  205.4770  152.2950 C   0  0  0  0  0  3  0  0  0  0  0  0
  160.1450  211.8380  154.0260 C   0  0  0  0  0  0  0  0  0  0  0  0
  160.0520  210.5110  157.2600 O   0  0  0  0  0  1  0  0  0  0  0  0
  159.3720  212.9530  153.9660 F   0  0  0  0  0  0  0  0  0  0  0  0
  160.6920  209.1950  155.4260 C   0  0  0  0  0  3  0  0  0  0  0  0
  161.0020  209.7350  152.9790 C   0  0  0  0  0  0  0  0  0  0  0  0
  160.9740  211.6360  155.2480 C   0  0  0  0  0  2  0  0  0  0  0  0
  161.1650  208.9420  154.0500 C   0  0  0  0  0  3  0  0  0  0  0  0
  160.1850  210.9890  152.9860 C   0  0  0  0  0  0  0  0  0  0  0  0
  159.3980  211.3370  151.7620 C   0  0  0  0  0  1  0  0  0  0  0  0
  160.5560  210.4020  155.9720 C   0  0  0  0  0  0  0  0  0  0  0  0
  163.5280  211.7930  148.1500 C   0  0  0  0  0  2  0  0  0  0  0  0
  161.4870  212.8400  147.4140 C   0  0  0  0  0  2  0  0  0  0  0  0
  161.2090  212.1670  148.7470 C   0  0  2  0  0  3  0  0  0  0  0  0
  160.5740  213.1590  149.7010 C   0  0  0  0  0  1  0  0  0  0  0  0
  162.9930  212.8850  147.2550 C   0  0  0  0  0  2  0  0  0  0  0  0
  162.5480  211.7100  149.3000 C   0  0  1  0  0  3  0  0  0  0  0  0
  161.7890  205.6930  146.1580 C   0  0  0  0  0  2  0  0  0  0  0  0
  162.9100  204.6720  146.1130 C   0  0  0  0  0  1  0  0  0  0  0  0
  1 11  1  0  0  0  0
  1  3  1  0  0  0  0
  2  4  1  0  0  0  0
  4  1  2  0  0  0  0
  5  2  2  0  0  0  0
  6  2  1  1  0  0  0
  6 12  1  0  0  0  0
  6 10  1  0  0  0  0
  7  4  1  0  0  0  0
  7  9  2  0  0  0  0
  8  7  1  0  0  0  0
  9 14  1  0  0  0  0
 10 11  1  0  0  0  0
 11 19  1  0  0  0  0
 12 10  1  0  0  0  0
 13  5  1  0  0  0  0
 13  8  2  0  0  0  0
 14  3  2  0  0  0  0
 15 20  1  0  0  0  0
 17 15  1  0  0  0  0
 18 24  2  0  0  0  0
 19 22  1  0  0  0  0
 19 21  2  0  0  0  0
 20 24  1  0  0  0  0
 21 18  1  0  0  0  0
 22 15  2  0  0  0  0
 23 22  1  0  0  0  0
 24 16  1  0  0  0  0
 25 30  1  0  0  0  0
 26 27  1  0  0  0  0
 27 30  1  0  0  0  0
 27 28  1  0  0  0  0
 29 26  1  0  0  0  0
 29 25  1  0  0  0  0
 30 12  1  0  0  0  0
 31 13  1  0  0  0  0
 32 31  1  0  0  0  0
M  END
>  <MODEL>
6

>  <REMARK>
 VINA RESULT:      -4.7      1.280      1.728
  Name = 
  3 active torsions:
  status: ('A' for Active; 'I' for Inactive)
    1  A    between atoms: C_13  and  C_29
    2  A    between atoms: C_16  and  C_27
    3  A    between atoms: C_28  and  C_32
                            x       y       z     vdW  Elec       q    Type
                         _______ _______ _______ _____ _____    ______ ____

>  <TORSDO>
F 3

$$$$
=
 OpenBabel11062408213D

 32 37  0  0  1  0  0  0  0  0999 V2000
  161.3510  205.8530  151.1670 C   0  0  0  0  0  0  0  0  0  0  0  0
  160.9640  204.1470  149.4820 C   0  0  0  0  0  0  0  0  0  0  0  0
  161.5140  206.1950  152.5200 C   0  0  0  0  0  3  0  0  0  0  0  0
  161.1200  204.5170  150.8250 C   0  0  0  0  0  0  0  0  0  0  0  0
  160.7790  202.7980  149.1550 C   0  0  0  0  0  3  0  0  0  0  0  0
  160.8190  205.1570  148.3780 C   0  0  1  0  0  3  0  0  0  0  0  0
  161.0590  203.5280  151.8380 C   0  0  0  0  0  0  0  0  0  0  0  0
  160.8800  202.1870  151.4950 C   0  0  0  0  0  3  0  0  0  0  0  0
  161.1920  203.8910  153.1790 C   0  0  0  0  0  3  0  0  0  0  0  0
  161.0460  206.5740  148.7750 N   0  0  1  0  0  0  0  0  0  0  0  0
  161.6640  206.8550  150.0790 C   0  0  1  0  0  3  0  0  0  0  0  0
  162.0730  205.8140  148.0360 C   0  0  2  0  0  3  0  0  0  0  0  0
  160.7480  201.8190  150.1540 C   0  0  0  0  0  0  0  0  0  0  0  0
  161.4130  205.2260  153.5200 C   0  0  0  0  0  3  0  0  0  0  0  0
  162.2060  210.6070  150.0350 C   0  0  0  0  0  0  0  0  0  0  0  0
  160.4130  212.0220  152.6840 O   0  0  0  0  0  1  0  0  0  0  0  0
  162.5810  211.5790  149.1650 F   0  0  0  0  0  0  0  0  0  0  0  0
  160.2360  209.7360  152.1820 C   0  0  0  0  0  3  0  0  0  0  0  0
  161.3930  208.2830  150.4720 C   0  0  0  0  0  0  0  0  0  0  0  0
  162.2880  210.9140  151.4930 C   0  0  0  0  0  2  0  0  0  0  0  0
  160.6520  208.4550  151.5780 C   0  0  0  0  0  3  0  0  0  0  0  0
  161.8300  209.4010  149.5790 C   0  0  0  0  0  0  0  0  0  0  0  0
  161.8840  209.1600  148.1030 C   0  0  0  0  0  1  0  0  0  0  0  0
  160.9360  210.8680  152.1180 C   0  0  0  0  0  0  0  0  0  0  0  0
  163.2560  205.6580  145.8560 C   0  0  0  0  0  2  0  0  0  0  0  0
  161.3120  205.0630  144.5660 C   0  0  0  0  0  2  0  0  0  0  0  0
  160.8330  205.6600  145.8790 C   0  0  2  0  0  3  0  0  0  0  0  0
  159.8360  206.7680  145.6050 C   0  0  0  0  0  1  0  0  0  0  0  0
  162.7840  205.3990  144.4460 C   0  0  0  0  0  2  0  0  0  0  0  0
  162.0550  206.2310  146.5770 C   0  0  1  0  0  3  0  0  0  0  0  0
  160.5750  200.3870  149.7870 C   0  0  0  0  0  2  0  0  0  0  0  0
  161.2880  200.0930  148.4810 C   0  0  0  0  0  1  0  0  0  0  0  0
  1  3  1  0  0  0  0
  2  4  1  0  0  0  0
  3 14  2  0  0  0  0
  4  1  2  0  0  0  0
  4  7  1  0  0  0  0
  5  2  2  0  0  0  0
  5 13  1  0  0  0  0
  6 10  1  0  0  0  0
  6  2  1  1  0  0  0
  7  9  2  0  0  0  0
  8  7  1  0  0  0  0
  9 14  1  0  0  0  0
 10 11  1  0  0  0  0
 11 19  1  0  0  0  0
 11  1  1  0  0  0  0
 12  6  1  0  0  0  0
 12 10  1  0  0  0  0
 13  8  2  0  0  0  0
 15 20  1  0  0  0  0
 17 15  1  0  0  0  0
 19 21  2  0  0  0  0
 20 24  1  0  0  0  0
 21 18  1  0  0  0  0
 22 15  2  0  0  0  0
 22 19  1  0  0  0  0
 23 22  1  0  0  0  0
 24 18  2  0  0  0  0
 24 16  1  0  0  0  0
 25 30  1  0  0  0  0
 26 27  1  0  0  0  0
 27 30  1  0  0  0  0
 28 27  1  0  0  0  0
 29 26  1  0  0  0  0
 29 25  1  0  0  0  0
 30 12  1  0  0  0  0
 31 13  1  0  0  0  0
 32 31  1  0  0  0  0
M  END
>  <MODEL>
7

>  <REMARK>
 VINA RESULT:      -4.4      2.665      5.071
  Name = 
  3 active torsions:
  status: ('A' for Active; 'I' for Inactive)
    1  A    between atoms: C_13  and  C_29
    2  A    between atoms: C_16  and  C_27
    3  A    between atoms: C_28  and  C_32
                            x       y       z     vdW  Elec       q    Type
                         _______ _______ _______ _____ _____    ______ ____

>  <TORSDO>
F 3

$$$$
