=
 OpenBabel11052422003D

 30 34  0  0  1  0  0  0  0  0999 V2000
  162.0630  210.0080  149.4850 C   0  0  1  0  0  3  0  0  0  0  0  0
  160.9080  212.5700  150.9510 C   0  0  0  0  0  2  0  0  0  0  0  0
  161.9340  209.4820  150.7150 C   0  0  2  0  0  3  0  0  0  0  0  0
  161.7080  209.1910  148.2580 C   0  0  0  0  0  2  0  0  0  0  0  0
  160.5770  206.0010  149.8640 C   0  0  0  0  0  2  0  0  0  0  0  0
  161.2100  207.3380  149.8700 C   0  0  0  0  0  0  0  0  0  0  0  0
  161.2130  206.7720  147.5990 C   0  0  0  0  0  2  0  0  0  0  0  0
  160.6880  209.7200  153.4700 O   0  0  0  0  0  0  0  0  0  0  0  0
  160.2080  211.6090  151.9210 C   0  0  2  0  0  3  0  0  0  0  0  0
  161.5900  207.7680  148.5800 N   0  0  0  0  0  0  0  0  0  0  0  0
  161.3320  208.1510  150.9220 C   0  0  0  0  0  0  0  0  0  0  0  0
  159.9180  208.9660  152.6910 O   0  0  0  0  0  0  0  0  0  0  0  0
  161.5640  204.3910  148.2450 C   0  0  0  0  0  1  0  0  0  0  0  0
  160.8890  212.0630  149.6390 O   0  0  0  0  0  0  0  0  0  0  0  0
  160.6440  205.5860  148.3920 C   0  0  1  0  0  3  0  0  0  0  0  0
  162.1620  211.5120  149.3960 C   0  0  2  0  0  3  0  0  0  0  0  0
  162.2540  210.2630  151.8240 O   0  0  0  0  0  0  0  0  0  0  0  0
  159.4480  212.3430  152.8310 O   0  0  0  0  0  1  0  0  0  0  0  0
  161.2420  210.7600  152.6860 C   0  0  2  0  0  3  0  0  0  0  0  0
  160.6700  207.8480  152.2350 C   0  0  2  0  0  3  0  0  0  0  0  0
  162.7150  211.9950  148.0550 C   0  0  2  0  0  3  0  0  0  0  0  0
  164.0560  212.3620  148.1990 O   0  0  0  0  0  1  0  0  0  0  0  0
  161.9180  213.1910  147.5560 C   0  0  0  0  0  2  0  0  0  0  0  0
  161.4480  212.9550  146.1330 C   0  0  0  0  0  3  0  0  0  0  0  0
  162.5390  213.3840  145.1750 C   0  0  0  0  0  2  0  0  0  0  0  0
  161.3470  214.2850  145.4160 C   0  0  0  0  0  2  0  0  0  0  0  0
  161.5770  207.2180  153.2570 C   0  0  0  0  0  0  0  0  0  0  0  0
  162.5710  206.5310  152.8920 O   0  0  0  0  0  0  0  0  0  0  0  0
  160.2860  206.8540  155.2990 C   0  0  0  0  0  2  0  0  0  0  0  0
  161.3020  207.4420  154.6790 C   0  0  0  0  0  3  0  0  0  0  0  0
  1  4  1  6  0  0  0
  1  3  1  0  0  0  0
  2  9  1  0  0  0  0
  3 11  1  1  0  0  0
  3 17  1  0  0  0  0
  4 10  1  0  0  0  0
  5  6  1  0  0  0  0
  6 11  2  0  0  0  0
  7 15  1  0  0  0  0
  7 10  1  0  0  0  0
  9 19  1  0  0  0  0
  9 18  1  1  0  0  0
 10  6  1  0  0  0  0
 11 20  1  0  0  0  0
 12  8  1  0  0  0  0
 14  2  1  0  0  0  0
 15 13  1  1  0  0  0
 15  5  1  0  0  0  0
 16 21  1  6  0  0  0
 16  1  1  0  0  0  0
 16 14  1  0  0  0  0
 19 17  1  6  0  0  0
 19  8  1  0  0  0  0
 20 12  1  0  0  0  0
 20 27  1  1  0  0  0
 21 22  1  1  0  0  0
 23 21  1  0  0  0  0
 24 23  1  0  0  0  0
 25 26  1  0  0  0  0
 25 24  1  0  0  0  0
 26 24  1  0  0  0  0
 27 30  1  0  0  0  0
 28 27  2  0  0  0  0
 30 29  2  0  0  0  0
M  END
>  <MODEL>
1

>  <REMARK>
 VINA RESULT:      -6.1      0.000      0.000
  Name = 
  5 active torsions:
  status: ('A' for Active; 'I' for Inactive)
    1  A    between atoms: C_2  and  C_14
    2  A    between atoms: C_2  and  C_22
    3  A    between atoms: C_7  and  C_26
    4  A    between atoms: C_7  and  C_30
    5  A    between atoms: C_14  and  C_20
                            x       y       z     vdW  Elec       q    Type
                         _______ _______ _______ _____ _____    ______ ____

>  <TORSDO>
F 5

$$$$
=
 OpenBabel11052422003D

 30 34  0  0  1  0  0  0  0  0999 V2000
  162.1550  209.5390  149.2500 C   0  0  1  0  0  3  0  0  0  0  0  0
  160.9890  211.6860  151.2690 C   0  0  0  0  0  2  0  0  0  0  0  0
  162.0850  208.7580  150.3410 C   0  0  2  0  0  3  0  0  0  0  0  0
  161.7760  208.9940  147.8860 C   0  0  0  0  0  2  0  0  0  0  0  0
  160.7890  205.4980  148.8000 C   0  0  0  0  0  2  0  0  0  0  0  0
  161.3860  206.8220  149.0750 C   0  0  0  0  0  0  0  0  0  0  0  0
  161.3210  206.7590  146.7360 C   0  0  0  0  0  2  0  0  0  0  0  0
  160.9360  208.3560  153.1180 O   0  0  0  0  0  0  0  0  0  0  0  0
  160.3500  210.5170  152.0300 C   0  0  2  0  0  3  0  0  0  0  0  0
  161.7080  207.5320  147.8970 N   0  0  0  0  0  0  0  0  0  0  0  0
  161.5270  207.3940  150.2730 C   0  0  0  0  0  0  0  0  0  0  0  0
  160.1580  207.7620  152.2190 O   0  0  0  0  0  0  0  0  0  0  0  0
  161.7570  204.3070  146.8410 C   0  0  0  0  0  1  0  0  0  0  0  0
  160.9350  211.4730  149.8800 O   0  0  0  0  0  0  0  0  0  0  0  0
  160.8120  205.4110  147.2710 C   0  0  1  0  0  3  0  0  0  0  0  0
  162.2110  211.0300  149.4850 C   0  0  2  0  0  3  0  0  0  0  0  0
  162.4260  209.2920  151.5820 O   0  0  0  0  0  0  0  0  0  0  0  0
  159.6060  211.0120  153.0990 O   0  0  0  0  0  1  0  0  0  0  0  0
  161.4330  209.5580  152.5610 C   0  0  2  0  0  3  0  0  0  0  0  0
  160.9210  206.7940  151.5100 C   0  0  2  0  0  3  0  0  0  0  0  0
  162.7020  211.8080  148.2630 C   0  0  2  0  0  3  0  0  0  0  0  0
  163.9510  212.3750  148.5320 O   0  0  0  0  0  1  0  0  0  0  0  0
  161.7150  212.9110  147.9100 C   0  0  0  0  0  2  0  0  0  0  0  0
  160.9660  212.5610  146.6380 C   0  0  0  0  0  3  0  0  0  0  0  0
  160.6200  213.8380  145.9020 C   0  0  0  0  0  2  0  0  0  0  0  0
  159.5630  213.1240  146.7170 C   0  0  0  0  0  2  0  0  0  0  0  0
  161.8820  205.9890  152.3430 C   0  0  0  0  0  0  0  0  0  0  0  0
  163.0850  206.3520  152.4600 O   0  0  0  0  0  0  0  0  0  0  0  0
  160.8300  203.7850  152.3870 C   0  0  0  0  0  2  0  0  0  0  0  0
  161.3870  204.7980  153.0380 C   0  0  0  0  0  3  0  0  0  0  0  0
  1  4  1  6  0  0  0
  1 16  1  0  0  0  0
  1  3  1  0  0  0  0
  2  9  1  0  0  0  0
  3 11  1  1  0  0  0
  3 17  1  0  0  0  0
  4 10  1  0  0  0  0
  5  6  1  0  0  0  0
  6 11  2  0  0  0  0
  7 15  1  0  0  0  0
  7 10  1  0  0  0  0
  9 19  1  0  0  0  0
  9 18  1  1  0  0  0
 10  6  1  0  0  0  0
 11 20  1  0  0  0  0
 12  8  1  0  0  0  0
 14  2  1  0  0  0  0
 15 13  1  1  0  0  0
 15  5  1  0  0  0  0
 16 21  1  6  0  0  0
 16 14  1  0  0  0  0
 19 17  1  6  0  0  0
 19  8  1  0  0  0  0
 20 12  1  0  0  0  0
 20 27  1  1  0  0  0
 21 22  1  1  0  0  0
 23 21  1  0  0  0  0
 24 26  1  0  0  0  0
 24 23  1  0  0  0  0
 25 24  1  0  0  0  0
 25 26  1  0  0  0  0
 27 28  2  0  0  0  0
 27 30  1  0  0  0  0
 29 30  2  0  0  0  0
M  END
>  <MODEL>
2

>  <REMARK>
 VINA RESULT:      -5.7      1.256      1.465
  Name = 
  5 active torsions:
  status: ('A' for Active; 'I' for Inactive)
    1  A    between atoms: C_2  and  C_14
    2  A    between atoms: C_2  and  C_22
    3  A    between atoms: C_7  and  C_26
    4  A    between atoms: C_7  and  C_30
    5  A    between atoms: C_14  and  C_20
                            x       y       z     vdW  Elec       q    Type
                         _______ _______ _______ _____ _____    ______ ____

>  <TORSDO>
F 5

$$$$
=
 OpenBabel11052422003D

 30 34  0  0  1  0  0  0  0  0999 V2000
  161.6410  211.3930  149.7740 C   0  0  1  0  0  3  0  0  0  0  0  0
  159.5930  213.7330  149.1620 C   0  0  0  0  0  2  0  0  0  0  0  0
  161.1320  211.5290  151.0100 C   0  0  2  0  0  3  0  0  0  0  0  0
  161.9380  210.0170  149.2100 C   0  0  0  0  0  2  0  0  0  0  0  0
  160.8210  207.8560  152.0590 C   0  0  0  0  0  2  0  0  0  0  0  0
  161.1670  209.1500  151.4310 C   0  0  0  0  0  0  0  0  0  0  0  0
  162.1540  207.5930  149.9890 C   0  0  0  0  0  2  0  0  0  0  0  0
  158.8870  212.6140  152.7350 O   0  0  0  0  0  0  0  0  0  0  0  0
  158.7410  213.1910  150.3180 C   0  0  2  0  0  3  0  0  0  0  0  0
  161.9440  209.0000  150.2620 N   0  0  0  0  0  0  0  0  0  0  0  0
  160.7300  210.3540  151.8070 C   0  0  0  0  0  0  0  0  0  0  0  0
  158.6220  211.3580  152.3890 O   0  0  0  0  0  0  0  0  0  0  0  0
  162.6180  206.1390  151.9580 C   0  0  0  0  0  1  0  0  0  0  0  0
  160.1740  212.6820  148.4290 O   0  0  0  0  0  0  0  0  0  0  0  0
  161.5270  206.8320  151.1680 C   0  0  1  0  0  3  0  0  0  0  0  0
  161.5130  212.5830  148.8510 C   0  0  2  0  0  3  0  0  0  0  0  0
  160.8570  212.8060  151.4950 O   0  0  0  0  0  0  0  0  0  0  0  0
  157.5740  213.9450  150.4270 O   0  0  0  0  0  1  0  0  0  0  0  0
  159.5200  213.2590  151.6450 C   0  0  2  0  0  3  0  0  0  0  0  0
  159.6680  210.5160  152.8560 C   0  0  2  0  0  3  0  0  0  0  0  0
  162.4570  212.5100  147.6510 C   0  0  2  0  0  3  0  0  0  0  0  0
  163.7830  212.5730  148.0870 O   0  0  0  0  0  1  0  0  0  0  0  0
  162.1860  213.6650  146.6980 C   0  0  0  0  0  2  0  0  0  0  0  0
  161.8510  213.1400  145.3150 C   0  0  0  0  0  3  0  0  0  0  0  0
  163.0590  213.3050  144.4180 C   0  0  0  0  0  2  0  0  0  0  0  0
  161.9070  214.2820  144.3230 C   0  0  0  0  0  2  0  0  0  0  0  0
  160.1950  210.8390  154.2280 C   0  0  0  0  0  0  0  0  0  0  0  0
  161.3780  211.2510  154.3780 O   0  0  0  0  0  0  0  0  0  0  0  0
  159.7420  210.2890  156.5650 C   0  0  0  0  0  2  0  0  0  0  0  0
  159.3010  210.6930  155.3810 C   0  0  0  0  0  3  0  0  0  0  0  0
  1  4  1  6  0  0  0
  1  3  1  0  0  0  0
  2  9  1  0  0  0  0
  3 17  1  6  0  0  0
  3 11  1  0  0  0  0
  4 10  1  0  0  0  0
  6 11  2  0  0  0  0
  6  5  1  0  0  0  0
  7 10  1  0  0  0  0
  7 15  1  0  0  0  0
  9 18  1  1  0  0  0
  9 19  1  0  0  0  0
 10  6  1  0  0  0  0
 11 20  1  0  0  0  0
 12  8  1  0  0  0  0
 12 20  1  0  0  0  0
 14 16  1  0  0  0  0
 14  2  1  0  0  0  0
 15 13  1  1  0  0  0
 15  5  1  0  0  0  0
 16 21  1  6  0  0  0
 16  1  1  0  0  0  0
 19 17  1  6  0  0  0
 19  8  1  0  0  0  0
 20 27  1  1  0  0  0
 21 22  1  1  0  0  0
 23 21  1  0  0  0  0
 24 23  1  0  0  0  0
 25 24  1  0  0  0  0
 26 25  1  0  0  0  0
 26 24  1  0  0  0  0
 27 28  2  0  0  0  0
 27 30  1  0  0  0  0
 30 29  2  0  0  0  0
M  END
>  <MODEL>
3

>  <REMARK>
 VINA RESULT:      -5.6      2.009      2.712
  Name = 
  5 active torsions:
  status: ('A' for Active; 'I' for Inactive)
    1  A    between atoms: C_2  and  C_14
    2  A    between atoms: C_2  and  C_22
    3  A    between atoms: C_7  and  C_26
    4  A    between atoms: C_7  and  C_30
    5  A    between atoms: C_14  and  C_20
                            x       y       z     vdW  Elec       q    Type
                         _______ _______ _______ _____ _____    ______ ____

>  <TORSDO>
F 5

$$$$
=
 OpenBabel11052422003D

 30 34  0  0  1  0  0  0  0  0999 V2000
  160.1790  210.7890  152.8030 C   0  0  1  0  0  3  0  0  0  0  0  0
  162.1940  210.2630  155.1920 C   0  0  0  0  0  2  0  0  0  0  0  0
  159.3450  211.0640  153.8200 C   0  0  2  0  0  3  0  0  0  0  0  0
  160.1640  211.6360  151.5440 C   0  0  0  0  0  2  0  0  0  0  0  0
  157.5210  214.1370  152.4360 C   0  0  0  0  0  2  0  0  0  0  0  0
  158.2940  212.8930  152.6420 C   0  0  0  0  0  0  0  0  0  0  0  0
  158.7160  213.4000  150.3960 C   0  0  0  0  0  2  0  0  0  0  0  0
  159.0500  211.7330  156.7630 O   0  0  0  0  0  0  0  0  0  0  0  0
  161.3770  211.2750  156.0070 C   0  0  2  0  0  3  0  0  0  0  0  0
  158.9580  212.4620  151.4730 N   0  0  0  0  0  0  0  0  0  0  0  0
  158.4810  212.2600  153.8020 C   0  0  0  0  0  0  0  0  0  0  0  0
  159.1040  212.8540  156.0500 O   0  0  0  0  0  0  0  0  0  0  0  0
  156.4030  214.3120  150.2200 C   0  0  0  0  0  1  0  0  0  0  0  0
  162.3040  210.6700  153.8500 O   0  0  0  0  0  0  0  0  0  0  0  0
  157.7260  214.4370  150.9490 C   0  0  1  0  0  3  0  0  0  0  0  0
  161.3690  209.9140  153.1170 C   0  0  2  0  0  3  0  0  0  0  0  0
  159.3930  210.2770  154.9690 O   0  0  0  0  0  0  0  0  0  0  0  0
  161.9630  211.4400  157.2610 O   0  0  0  0  0  1  0  0  0  0  0  0
  159.9260  210.7850  156.1830 C   0  0  2  0  0  3  0  0  0  0  0  0
  158.0390  212.8580  155.1070 C   0  0  2  0  0  3  0  0  0  0  0  0
  162.0160  209.3160  151.8680 C   0  0  2  0  0  3  0  0  0  0  0  0
  162.2150  210.3160  150.9120 O   0  0  0  0  0  1  0  0  0  0  0  0
  161.1250  208.2310  151.2820 C   0  0  0  0  0  2  0  0  0  0  0  0
  161.1230  207.0080  152.1790 C   0  0  0  0  0  3  0  0  0  0  0  0
  162.4260  206.2590  151.9940 C   0  0  0  0  0  2  0  0  0  0  0  0
  161.1640  205.7620  151.3190 C   0  0  0  0  0  2  0  0  0  0  0  0
  156.7230  212.3350  155.6150 C   0  0  0  0  0  0  0  0  0  0  0  0
  156.0790  212.9700  156.4960 O   0  0  0  0  0  0  0  0  0  0  0  0
  155.2560  210.3820  155.6680 C   0  0  0  0  0  2  0  0  0  0  0  0
  156.1900  211.0930  155.0480 C   0  0  0  0  0  3  0  0  0  0  0  0
  1  4  1  1  0  0  0
  1 16  1  0  0  0  0
  1  3  1  0  0  0  0
  2  9  1  0  0  0  0
  3 11  1  1  0  0  0
  3 17  1  0  0  0  0
  5  6  1  0  0  0  0
  6 11  2  0  0  0  0
  7 15  1  0  0  0  0
  7 10  1  0  0  0  0
  9 19  1  0  0  0  0
  9 18  1  1  0  0  0
 10  4  1  0  0  0  0
 10  6  1  0  0  0  0
 11 20  1  0  0  0  0
 12  8  1  0  0  0  0
 14  2  1  0  0  0  0
 15 13  1  6  0  0  0
 15  5  1  0  0  0  0
 16 21  1  6  0  0  0
 16 14  1  0  0  0  0
 19 17  1  6  0  0  0
 19  8  1  0  0  0  0
 20 27  1  1  0  0  0
 20 12  1  0  0  0  0
 21 22  1  6  0  0  0
 23 21  1  0  0  0  0
 23 24  1  0  0  0  0
 25 24  1  0  0  0  0
 26 25  1  0  0  0  0
 26 24  1  0  0  0  0
 27 28  2  0  0  0  0
 30 27  1  0  0  0  0
 30 29  2  0  0  0  0
M  END
>  <MODEL>
4

>  <REMARK>
 VINA RESULT:      -5.5      3.374      6.687
  Name = 
  5 active torsions:
  status: ('A' for Active; 'I' for Inactive)
    1  A    between atoms: C_2  and  C_14
    2  A    between atoms: C_2  and  C_22
    3  A    between atoms: C_7  and  C_26
    4  A    between atoms: C_7  and  C_30
    5  A    between atoms: C_14  and  C_20
                            x       y       z     vdW  Elec       q    Type
                         _______ _______ _______ _____ _____    ______ ____

>  <TORSDO>
F 5

$$$$
=
 OpenBabel11052422003D

 30 34  0  0  1  0  0  0  0  0999 V2000
  160.4420  211.4290  152.1810 C   0  0  1  0  0  3  0  0  0  0  0  0
  158.1350  213.2160  153.4180 C   0  0  0  0  0  2  0  0  0  0  0  0
  160.5650  211.0400  153.4610 C   0  0  2  0  0  3  0  0  0  0  0  0
  160.5670  210.4200  151.0540 C   0  0  0  0  0  2  0  0  0  0  0  0
  161.1370  207.2770  153.0120 C   0  0  0  0  0  2  0  0  0  0  0  0
  161.0210  208.7440  152.8610 C   0  0  0  0  0  0  0  0  0  0  0  0
  161.3540  208.0220  150.6600 C   0  0  0  0  0  2  0  0  0  0  0  0
  159.3070  210.9120  156.2180 O   0  0  0  0  0  0  0  0  0  0  0  0
  157.9850  212.1410  154.5030 C   0  0  2  0  0  3  0  0  0  0  0  0
  161.1650  209.1700  151.5230 N   0  0  0  0  0  0  0  0  0  0  0  0
  160.7000  209.6150  153.8210 C   0  0  0  0  0  0  0  0  0  0  0  0
  159.0310  209.7990  155.5450 O   0  0  0  0  0  0  0  0  0  0  0  0
  162.8280  206.2110  151.5310 C   0  0  0  0  0  1  0  0  0  0  0  0
  158.3990  212.6330  152.1650 O   0  0  0  0  0  0  0  0  0  0  0  0
  161.4330  206.7990  151.5880 C   0  0  1  0  0  3  0  0  0  0  0  0
  159.7820  212.7650  151.9370 C   0  0  2  0  0  3  0  0  0  0  0  0
  160.4310  211.9870  154.4750 O   0  0  0  0  0  0  0  0  0  0  0  0
  156.9410  212.4900  155.3590 O   0  0  0  0  0  1  0  0  0  0  0  0
  159.2870  212.0030  155.3150 C   0  0  2  0  0  3  0  0  0  0  0  0
  160.2480  209.1620  155.1790 C   0  0  2  0  0  3  0  0  0  0  0  0
  160.0500  213.3160  150.5360 C   0  0  2  0  0  3  0  0  0  0  0  0
  160.8590  214.4530  150.6210 O   0  0  0  0  0  1  0  0  0  0  0  0
  158.7410  213.6800  149.8540 C   0  0  0  0  0  2  0  0  0  0  0  0
  158.9840  214.0290  148.3980 C   0  0  0  0  0  3  0  0  0  0  0  0
  157.6550  214.3070  147.7280 C   0  0  0  0  0  2  0  0  0  0  0  0
  158.3420  212.9740  147.5210 C   0  0  0  0  0  2  0  0  0  0  0  0
  161.3260  209.1760  156.2290 C   0  0  0  0  0  0  0  0  0  0  0  0
  162.2030  210.0840  156.2330 O   0  0  0  0  0  0  0  0  0  0  0  0
  160.4650  207.1210  157.2320 C   0  0  0  0  0  2  0  0  0  0  0  0
  161.3210  208.1350  157.2610 C   0  0  0  0  0  3  0  0  0  0  0  0
  1  4  1  6  0  0  0
  1  3  1  0  0  0  0
  2  9  1  0  0  0  0
  3 11  1  1  0  0  0
  3 17  1  0  0  0  0
  4 10  1  0  0  0  0
  6  5  1  0  0  0  0
  6 11  2  0  0  0  0
  7 10  1  0  0  0  0
  7 15  1  0  0  0  0
  9 19  1  0  0  0  0
  9 18  1  1  0  0  0
 10  6  1  0  0  0  0
 11 20  1  0  0  0  0
 12  8  1  0  0  0  0
 14  2  1  0  0  0  0
 15 13  1  1  0  0  0
 15  5  1  0  0  0  0
 16 21  1  6  0  0  0
 16 14  1  0  0  0  0
 16  1  1  0  0  0  0
 19 17  1  6  0  0  0
 19  8  1  0  0  0  0
 20 12  1  0  0  0  0
 20 27  1  1  0  0  0
 21 22  1  1  0  0  0
 23 21  1  0  0  0  0
 24 23  1  0  0  0  0
 25 24  1  0  0  0  0
 26 25  1  0  0  0  0
 26 24  1  0  0  0  0
 27 28  2  0  0  0  0
 27 30  1  0  0  0  0
 29 30  2  0  0  0  0
M  END
>  <MODEL>
5

>  <REMARK>
 VINA RESULT:      -5.5      2.845      3.640
  Name = 
  5 active torsions:
  status: ('A' for Active; 'I' for Inactive)
    1  A    between atoms: C_2  and  C_14
    2  A    between atoms: C_2  and  C_22
    3  A    between atoms: C_7  and  C_26
    4  A    between atoms: C_7  and  C_30
    5  A    between atoms: C_14  and  C_20
                            x       y       z     vdW  Elec       q    Type
                         _______ _______ _______ _____ _____    ______ ____

>  <TORSDO>
F 5

$$$$
=
 OpenBabel11052422003D

 30 34  0  0  1  0  0  0  0  0999 V2000
  161.1730  210.4110  150.8820 C   0  0  1  0  0  3  0  0  0  0  0  0
  161.4260  209.6880  153.9580 C   0  0  0  0  0  2  0  0  0  0  0  0
  160.2090  211.2220  151.3490 C   0  0  2  0  0  3  0  0  0  0  0  0
  162.1080  210.8800  149.7830 C   0  0  0  0  0  2  0  0  0  0  0  0
  160.8310  214.3600  149.2400 C   0  0  0  0  0  2  0  0  0  0  0  0
  160.7620  212.9940  149.8030 C   0  0  0  0  0  0  0  0  0  0  0  0
  162.3130  212.7610  148.0660 C   0  0  0  0  0  2  0  0  0  0  0  0
  158.9880  212.6090  153.7540 O   0  0  0  0  0  0  0  0  0  0  0  0
  160.9020  211.0990  154.2570 C   0  0  2  0  0  3  0  0  0  0  0  0
  161.5920  212.0780  149.1200 N   0  0  0  0  0  0  0  0  0  0  0  0
  160.1020  212.6240  150.9030 C   0  0  0  0  0  0  0  0  0  0  0  0
  159.8610  213.4180  153.1620 O   0  0  0  0  0  0  0  0  0  0  0  0
  161.0310  214.4530  146.7620 C   0  0  0  0  0  1  0  0  0  0  0  0
  162.2910  209.6970  152.8480 O   0  0  0  0  0  0  0  0  0  0  0  0
  161.7850  214.2040  148.0520 C   0  0  1  0  0  3  0  0  0  0  0  0
  161.5470  209.2310  151.7480 C   0  0  2  0  0  3  0  0  0  0  0  0
  159.3750  210.7670  152.3690 O   0  0  0  0  0  0  0  0  0  0  0  0
  160.8760  211.2990  155.6360 O   0  0  0  0  0  1  0  0  0  0  0  0
  159.4830  211.2840  153.6870 C   0  0  2  0  0  3  0  0  0  0  0  0
  159.4600  213.6300  151.8140 C   0  0  2  0  0  3  0  0  0  0  0  0
  162.3220  208.1550  150.9860 C   0  0  2  0  0  3  0  0  0  0  0  0
  161.6510  207.8370  149.8010 O   0  0  0  0  0  1  0  0  0  0  0  0
  162.4580  206.9020  151.8380 C   0  0  0  0  0  2  0  0  0  0  0  0
  161.1460  206.1410  151.8700 C   0  0  0  0  0  3  0  0  0  0  0  0
  161.2120  205.0900  152.9580 C   0  0  0  0  0  2  0  0  0  0  0  0
  161.4030  204.6930  151.5100 C   0  0  0  0  0  2  0  0  0  0  0  0
  157.9820  213.8090  151.5990 C   0  0  0  0  0  0  0  0  0  0  0  0
  157.2630  214.3320  152.4960 O   0  0  0  0  0  0  0  0  0  0  0  0
  156.2870  213.9380  149.8440 C   0  0  0  0  0  2  0  0  0  0  0  0
  157.3980  213.3910  150.3210 C   0  0  0  0  0  3  0  0  0  0  0  0
  1  4  1  1  0  0  0
  1  3  1  0  0  0  0
  1 16  1  0  0  0  0
  2  9  1  0  0  0  0
  3 11  1  1  0  0  0
  3 17  1  0  0  0  0
  5  6  1  0  0  0  0
  6 11  2  0  0  0  0
  7 10  1  0  0  0  0
  9 18  1  1  0  0  0
 10  4  1  0  0  0  0
 10  6  1  0  0  0  0
 11 20  1  0  0  0  0
 12  8  1  0  0  0  0
 14  2  1  0  0  0  0
 15 13  1  6  0  0  0
 15  7  1  0  0  0  0
 15  5  1  0  0  0  0
 16 21  1  6  0  0  0
 16 14  1  0  0  0  0
 19 17  1  6  0  0  0
 19  8  1  0  0  0  0
 19  9  1  0  0  0  0
 20 27  1  1  0  0  0
 20 12  1  0  0  0  0
 21 22  1  6  0  0  0
 21 23  1  0  0  0  0
 23 24  1  0  0  0  0
 24 25  1  0  0  0  0
 26 24  1  0  0  0  0
 26 25  1  0  0  0  0
 27 28  2  0  0  0  0
 29 30  2  0  0  0  0
 30 27  1  0  0  0  0
M  END
>  <MODEL>
6

>  <REMARK>
 VINA RESULT:      -5.3      2.367      6.536
  Name = 
  5 active torsions:
  status: ('A' for Active; 'I' for Inactive)
    1  A    between atoms: C_2  and  C_14
    2  A    between atoms: C_2  and  C_22
    3  A    between atoms: C_7  and  C_26
    4  A    between atoms: C_7  and  C_30
    5  A    between atoms: C_14  and  C_20
                            x       y       z     vdW  Elec       q    Type
                         _______ _______ _______ _____ _____    ______ ____

>  <TORSDO>
F 5

$$$$
=
 OpenBabel11052422003D

 30 34  0  0  1  0  0  0  0  0999 V2000
  161.0010  207.7050  151.4090 C   0  0  1  0  0  3  0  0  0  0  0  0
  161.5810  206.3840  154.2310 C   0  0  0  0  0  2  0  0  0  0  0  0
  160.5110  208.6880  152.1840 C   0  0  2  0  0  3  0  0  0  0  0  0
  161.8040  208.0350  150.1640 C   0  0  0  0  0  2  0  0  0  0  0  0
  161.7980  211.7780  150.3190 C   0  0  0  0  0  2  0  0  0  0  0  0
  161.3510  210.4320  150.7390 C   0  0  0  0  0  0  0  0  0  0  0  0
  162.3310  210.0260  148.6530 C   0  0  0  0  0  2  0  0  0  0  0  0
  160.3830  209.9290  154.9480 O   0  0  0  0  0  0  0  0  0  0  0  0
  161.6770  207.8080  154.7960 C   0  0  2  0  0  3  0  0  0  0  0  0
  161.6380  209.4370  149.7790 N   0  0  0  0  0  0  0  0  0  0  0  0
  160.8340  210.1040  151.9250 C   0  0  0  0  0  0  0  0  0  0  0  0
  161.3540  210.5010  154.2410 O   0  0  0  0  0  0  0  0  0  0  0  0
  161.5200  212.2560  147.8940 C   0  0  0  0  0  1  0  0  0  0  0  0
  162.1510  206.3130  152.9470 O   0  0  0  0  0  0  0  0  0  0  0  0
  162.3720  211.5390  148.9200 C   0  0  1  0  0  3  0  0  0  0  0  0
  161.0850  206.3300  152.0270 C   0  0  2  0  0  3  0  0  0  0  0  0
  159.7900  208.3530  153.3290 O   0  0  0  0  0  0  0  0  0  0  0  0
  162.0000  207.7470  156.1500 O   0  0  0  0  0  1  0  0  0  0  0  0
  160.3390  208.5520  154.6230 C   0  0  2  0  0  3  0  0  0  0  0  0
  160.7980  211.0780  153.0670 C   0  0  2  0  0  3  0  0  0  0  0  0
  161.2480  205.2190  150.9890 C   0  0  2  0  0  3  0  0  0  0  0  0
  160.4560  205.4960  149.8710 O   0  0  0  0  0  1  0  0  0  0  0  0
  160.8310  203.8810  151.5800 C   0  0  0  0  0  2  0  0  0  0  0  0
  161.4900  202.7430  150.8250 C   0  0  0  0  0  3  0  0  0  0  0  0
  160.8730  202.6420  149.4460 C   0  0  0  0  0  2  0  0  0  0  0  0
  160.4560  201.6750  150.5330 C   0  0  0  0  0  2  0  0  0  0  0  0
  159.4740  211.7700  153.2500 C   0  0  0  0  0  0  0  0  0  0  0  0
  158.4400  211.3350  152.6730 O   0  0  0  0  0  0  0  0  0  0  0  0
  158.6190  212.9630  155.2030 C   0  0  0  0  0  2  0  0  0  0  0  0
  159.4030  212.9380  154.1330 C   0  0  0  0  0  3  0  0  0  0  0  0
  1  4  1  1  0  0  0
  1 16  1  0  0  0  0
  1  3  1  0  0  0  0
  2  9  1  0  0  0  0
  3 11  1  1  0  0  0
  3 17  1  0  0  0  0
  5  6  1  0  0  0  0
  6 11  2  0  0  0  0
  7 15  1  0  0  0  0
  7 10  1  0  0  0  0
  9 18  1  1  0  0  0
 10  4  1  0  0  0  0
 10  6  1  0  0  0  0
 11 20  1  0  0  0  0
 12  8  1  0  0  0  0
 14  2  1  0  0  0  0
 15 13  1  6  0  0  0
 15  5  1  0  0  0  0
 16 21  1  6  0  0  0
 16 14  1  0  0  0  0
 19 17  1  6  0  0  0
 19  9  1  0  0  0  0
 19  8  1  0  0  0  0
 20 27  1  1  0  0  0
 20 12  1  0  0  0  0
 21 22  1  6  0  0  0
 21 23  1  0  0  0  0
 24 23  1  0  0  0  0
 25 26  1  0  0  0  0
 25 24  1  0  0  0  0
 26 24  1  0  0  0  0
 27 30  1  0  0  0  0
 28 27  2  0  0  0  0
 30 29  2  0  0  0  0
M  END
>  <MODEL>
7

>  <REMARK>
 VINA RESULT:      -5.0      2.179      6.417
  Name = 
  5 active torsions:
  status: ('A' for Active; 'I' for Inactive)
    1  A    between atoms: C_2  and  C_14
    2  A    between atoms: C_2  and  C_22
    3  A    between atoms: C_7  and  C_26
    4  A    between atoms: C_7  and  C_30
    5  A    between atoms: C_14  and  C_20
                            x       y       z     vdW  Elec       q    Type
                         _______ _______ _______ _____ _____    ______ ____

>  <TORSDO>
F 5

$$$$
=
 OpenBabel11052422003D

 30 34  0  0  1  0  0  0  0  0999 V2000
  160.5210  210.0200  152.4260 C   0  0  1  0  0  3  0  0  0  0  0  0
  161.4810  208.9980  155.2680 C   0  0  0  0  0  2  0  0  0  0  0  0
  159.6770  210.7400  153.1840 C   0  0  2  0  0  3  0  0  0  0  0  0
  161.1730  210.6350  151.2020 C   0  0  0  0  0  2  0  0  0  0  0  0
  159.7540  214.0990  151.3410 C   0  0  0  0  0  2  0  0  0  0  0  0
  159.8350  212.6820  151.7540 C   0  0  0  0  0  0  0  0  0  0  0  0
  160.9510  212.6870  149.6960 C   0  0  0  0  0  2  0  0  0  0  0  0
  159.0180  211.8260  155.9370 O   0  0  0  0  0  0  0  0  0  0  0  0
  161.0190  210.3490  155.8300 C   0  0  2  0  0  3  0  0  0  0  0  0
  160.5010  211.8730  150.8060 N   0  0  0  0  0  0  0  0  0  0  0  0
  159.4500  212.1760  152.9270 C   0  0  0  0  0  0  0  0  0  0  0  0
  159.7200  212.7250  155.2550 O   0  0  0  0  0  0  0  0  0  0  0  0
  159.3800  214.4520  148.9070 C   0  0  0  0  0  1  0  0  0  0  0  0
  162.0690  209.1540  154.0000 O   0  0  0  0  0  0  0  0  0  0  0  0
  160.4120  214.1020  149.9590 C   0  0  1  0  0  3  0  0  0  0  0  0
  161.1010  208.7740  153.0520 C   0  0  2  0  0  3  0  0  0  0  0  0
  159.1050  210.1520  154.3100 O   0  0  0  0  0  0  0  0  0  0  0  0
  161.3060  210.4070  157.1920 O   0  0  0  0  0  1  0  0  0  0  0  0
  159.5040  210.5360  155.6180 C   0  0  2  0  0  3  0  0  0  0  0  0
  159.0190  213.0580  154.0640 C   0  0  2  0  0  3  0  0  0  0  0  0
  161.6970  207.8120  152.0230 C   0  0  2  0  0  3  0  0  0  0  0  0
  160.8660  207.7450  150.9010 O   0  0  0  0  0  1  0  0  0  0  0  0
  161.8420  206.4220  152.6240 C   0  0  0  0  0  2  0  0  0  0  0  0
  160.8340  205.4720  152.0060 C   0  0  0  0  0  3  0  0  0  0  0  0
  160.9260  204.1320  152.7060 C   0  0  0  0  0  2  0  0  0  0  0  0
  161.5710  204.3240  151.3500 C   0  0  0  0  0  2  0  0  0  0  0  0
  157.5280  213.1990  154.2090 C   0  0  0  0  0  0  0  0  0  0  0  0
  156.7560  212.2880  153.7990 O   0  0  0  0  0  0  0  0  0  0  0  0
  156.4020  214.3480  156.0480 C   0  0  0  0  0  2  0  0  0  0  0  0
  156.9920  214.3980  154.8600 C   0  0  0  0  0  3  0  0  0  0  0  0
  1  4  1  1  0  0  0
  1 16  1  0  0  0  0
  1  3  1  0  0  0  0
  2  9  1  0  0  0  0
  3 11  1  1  0  0  0
  3 17  1  0  0  0  0
  5  6  1  0  0  0  0
  6 11  2  0  0  0  0
  7 15  1  0  0  0  0
  7 10  1  0  0  0  0
  9 18  1  1  0  0  0
 10  4  1  0  0  0  0
 10  6  1  0  0  0  0
 11 20  1  0  0  0  0
 12  8  1  0  0  0  0
 14  2  1  0  0  0  0
 15 13  1  6  0  0  0
 15  5  1  0  0  0  0
 16 21  1  6  0  0  0
 16 14  1  0  0  0  0
 19 17  1  6  0  0  0
 19  9  1  0  0  0  0
 19  8  1  0  0  0  0
 20 27  1  1  0  0  0
 20 12  1  0  0  0  0
 21 22  1  6  0  0  0
 21 23  1  0  0  0  0
 24 23  1  0  0  0  0
 24 25  1  0  0  0  0
 26 24  1  0  0  0  0
 26 25  1  0  0  0  0
 27 30  1  0  0  0  0
 28 27  2  0  0  0  0
 30 29  2  0  0  0  0
M  END
>  <MODEL>
8

>  <REMARK>
 VINA RESULT:      -5.0      2.956      6.833
  Name = 
  5 active torsions:
  status: ('A' for Active; 'I' for Inactive)
    1  A    between atoms: C_2  and  C_14
    2  A    between atoms: C_2  and  C_22
    3  A    between atoms: C_7  and  C_26
    4  A    between atoms: C_7  and  C_30
    5  A    between atoms: C_14  and  C_20
                            x       y       z     vdW  Elec       q    Type
                         _______ _______ _______ _____ _____    ______ ____

>  <TORSDO>
F 5

$$$$
=
 OpenBabel11052422003D

 30 34  0  0  1  0  0  0  0  0999 V2000
  161.0560  208.0770  152.2110 C   0  0  1  0  0  3  0  0  0  0  0  0
  161.5790  207.4560  155.2750 C   0  0  0  0  0  2  0  0  0  0  0  0
  160.4390  209.1510  152.7310 C   0  0  2  0  0  3  0  0  0  0  0  0
  161.8990  208.2060  150.9560 C   0  0  0  0  0  2  0  0  0  0  0  0
  161.5660  211.8770  150.2850 C   0  0  0  0  0  2  0  0  0  0  0  0
  161.2110  210.6160  150.9720 C   0  0  0  0  0  0  0  0  0  0  0  0
  162.3440  209.8670  149.0660 C   0  0  0  0  0  2  0  0  0  0  0  0
  160.0430  210.9410  155.1480 O   0  0  0  0  0  0  0  0  0  0  0  0
  161.5200  208.9700  155.5160 C   0  0  2  0  0  3  0  0  0  0  0  0
  161.6380  209.4700  150.2670 N   0  0  0  0  0  0  0  0  0  0  0  0
  160.6560  210.5030  152.1810 C   0  0  0  0  0  0  0  0  0  0  0  0
  161.0020  211.4370  154.3720 O   0  0  0  0  0  0  0  0  0  0  0  0
  161.3920  211.7930  147.8050 C   0  0  0  0  0  1  0  0  0  0  0  0
  162.2270  207.1650  154.0600 O   0  0  0  0  0  0  0  0  0  0  0  0
  162.2400  211.3980  148.9960 C   0  0  1  0  0  3  0  0  0  0  0  0
  161.2200  206.8810  153.1190 C   0  0  2  0  0  3  0  0  0  0  0  0
  159.6830  209.0030  153.8930 O   0  0  0  0  0  0  0  0  0  0  0  0
  161.7670  209.2340  156.8620 O   0  0  0  0  0  1  0  0  0  0  0  0
  160.1360  209.5280  155.1320 C   0  0  2  0  0  3  0  0  0  0  0  0
  160.4690  211.6920  153.0780 C   0  0  2  0  0  3  0  0  0  0  0  0
  161.5370  205.5940  152.3570 C   0  0  2  0  0  3  0  0  0  0  0  0
  162.9000  205.5480  152.0500 O   0  0  0  0  0  1  0  0  0  0  0  0
  160.7300  205.5320  151.0690 C   0  0  0  0  0  2  0  0  0  0  0  0
  161.5720  204.9570  149.9460 C   0  0  0  0  0  3  0  0  0  0  0  0
  160.8380  205.1390  148.6350 C   0  0  0  0  0  2  0  0  0  0  0  0
  160.8370  203.7900  149.3210 C   0  0  0  0  0  2  0  0  0  0  0  0
  159.0830  212.2770  153.0530 C   0  0  0  0  0  0  0  0  0  0  0  0
  158.0930  211.5620  152.7320 O   0  0  0  0  0  0  0  0  0  0  0  0
  158.3230  214.0270  154.5800 C   0  0  0  0  0  2  0  0  0  0  0  0
  158.9010  213.6800  153.4360 C   0  0  0  0  0  3  0  0  0  0  0  0
  1  4  1  1  0  0  0
  1  3  1  0  0  0  0
  1 16  1  0  0  0  0
  2  9  1  0  0  0  0
  3 11  1  1  0  0  0
  3 17  1  0  0  0  0
  5  6  1  0  0  0  0
  6 11  2  0  0  0  0
  7 10  1  0  0  0  0
  9 18  1  1  0  0  0
 10  4  1  0  0  0  0
 10  6  1  0  0  0  0
 11 20  1  0  0  0  0
 12  8  1  0  0  0  0
 14  2  1  0  0  0  0
 15 13  1  6  0  0  0
 15  7  1  0  0  0  0
 15  5  1  0  0  0  0
 16 21  1  6  0  0  0
 16 14  1  0  0  0  0
 19 17  1  6  0  0  0
 19  8  1  0  0  0  0
 19  9  1  0  0  0  0
 20 27  1  1  0  0  0
 20 12  1  0  0  0  0
 21 22  1  6  0  0  0
 23 21  1  0  0  0  0
 24 23  1  0  0  0  0
 25 26  1  0  0  0  0
 25 24  1  0  0  0  0
 26 24  1  0  0  0  0
 27 30  1  0  0  0  0
 28 27  2  0  0  0  0
 30 29  2  0  0  0  0
M  END
>  <MODEL>
9

>  <REMARK>
 VINA RESULT:      -5.0      2.152      6.017
  Name = 
  5 active torsions:
  status: ('A' for Active; 'I' for Inactive)
    1  A    between atoms: C_2  and  C_14
    2  A    between atoms: C_2  and  C_22
    3  A    between atoms: C_7  and  C_26
    4  A    between atoms: C_7  and  C_30
    5  A    between atoms: C_14  and  C_20
                            x       y       z     vdW  Elec       q    Type
                         _______ _______ _______ _____ _____    ______ ____

>  <TORSDO>
F 5

$$$$
