=
 OpenBabel11062408503D

 55 60  0  0  1  0  0  0  0  0999 V2000
  159.7780  212.4700  151.3230 C   0  0  0  0  0  2  0  0  0  0  0  0
  162.0980  212.7400  146.6320 C   0  0  0  0  0  2  0  0  0  0  0  0
  164.3590  211.4600  147.8990 F   0  0  0  0  0  0  0  0  0  0  0  0
  162.6160  207.9790  148.8980 C   0  0  0  0  0  3  0  0  0  0  0  0
  162.2960  206.7090  148.6000 C   0  0  0  0  0  3  0  0  0  0  0  0
  161.0580  207.8850  150.8790 C   0  0  2  0  0  3  0  0  0  0  0  0
  161.3530  206.3920  150.9270 C   0  0  0  0  0  2  0  0  0  0  0  0
  163.1090  210.8660  149.7520 N   0  0  0  0  0  2  0  0  0  0  0  0
  161.4410  205.8480  149.4980 C   0  0  0  0  0  2  0  0  0  0  0  0
  157.5060  213.5080  151.3700 C   0  0  0  0  0  3  0  0  0  0  0  0
  162.2390  208.6100  150.2140 C   0  0  2  0  0  3  0  0  0  0  0  0
  157.4970  213.7350  148.5770 C   0  0  0  0  0  0  0  0  0  0  0  0
  159.8830  211.0500  151.0390 N   0  0  0  0  0  2  0  0  0  0  0  0
  158.5890  213.1520  149.2330 C   0  0  0  0  0  3  0  0  0  0  0  0
  161.3380  209.7020  152.5180 C   0  0  1  0  0  3  0  0  0  0  0  0
  161.1270  213.8840  146.3850 C   0  0  0  0  0  2  0  0  0  0  0  0
  160.7440  208.3870  152.2270 N   0  0  0  0  0  2  0  0  0  0  0  0
  162.1990  212.4400  148.1150 C   0  0  0  0  0  2  0  0  0  0  0  0
  163.0700  211.2090  148.3380 C   0  0  1  0  0  3  0  0  0  0  0  0
  156.4070  214.0740  150.7170 C   0  0  0  0  0  3  0  0  0  0  0  0
  159.7200  213.3590  146.1360 C   0  0  1  0  0  3  0  0  0  0  0  0
  158.5970  213.0460  150.6280 C   0  0  0  0  0  0  0  0  0  0  0  0
  161.9090  210.1000  150.0630 C   0  0  1  0  0  3  0  0  0  0  0  0
  161.2590  210.6770  151.3270 C   0  0  1  0  0  3  0  0  0  0  0  0
  158.7310  214.4520  146.5240 C   0  0  0  0  0  2  0  0  0  0  0  0
  157.4570  213.8350  147.0850 C   0  0  0  0  0  2  0  0  0  0  0  0
  156.4030  214.1870  149.3220 C   0  0  0  0  0  3  0  0  0  0  0  0
  160.1050  209.4330  154.7810 C   0  0  0  0  0  3  0  0  0  0  0  0
  159.0170  211.4630  155.6980 C   0  0  1  0  0  3  0  0  0  0  0  0
  160.8040  211.6160  153.9490 C   0  0  0  0  0  3  0  0  0  0  0  0
  160.2650  212.2280  155.2150 C   0  0  0  0  0  2  0  0  0  0  0  0
  159.3160  209.9770  155.7120 C   0  0  0  0  0  3  0  0  0  0  0  0
  160.7750  210.2900  153.7750 C   0  0  0  0  0  0  0  0  0  0  0  0
  158.5820  211.9300  157.0240 N   0  0  0  0  0  0  0  0  0  0  0  0
  158.9740  213.3240  157.1770 C   0  0  0  0  0  1  0  0  0  0  0  0
  157.1270  211.9450  157.0570 C   0  0  0  0  0  1  0  0  0  0  0  0
  158.3950  212.1850  144.5060 O   0  0  0  0  0  1  0  0  0  0  0  0
  159.5330  212.9770  144.6590 C   0  0  2  0  0  3  0  0  0  0  0  0
  160.6470  212.2670  144.1870 O   0  0  0  0  0  0  0  0  0  0  0  0
  161.3430  212.9550  141.8440 C   0  0  2  0  0  0  0  0  0  0  0  0
  159.8660  214.4530  143.0080 F   0  0  0  0  0  0  0  0  0  0  0  0
  159.8990  213.3800  142.1290 C   0  0  2  0  0  3  0  0  0  0  0  0
  160.4780  212.1360  142.7970 C   0  0  2  0  0  0  0  0  0  0  0  0
  159.8740  210.9630  142.3370 O   0  0  0  0  0  1  0  0  0  0  0  0
  162.3180  213.7360  142.4700 O   0  0  0  0  0  1  0  0  0  0  0  0
  161.7210  212.3500  140.4700 C   0  0  1  0  0  3  0  0  0  0  0  0
  162.6200  213.2470  139.6070 C   0  0  2  0  0  3  0  0  0  0  0  0
  161.8530  214.4520  139.0900 C   0  0  0  0  0  1  0  0  0  0  0  0
  163.1140  212.5390  138.5250 F   0  0  0  0  0  0  0  0  0  0  0  0
  163.4400  210.7040  140.0300 O   0  0  0  0  0  1  0  0  0  0  0  0
  162.1140  210.8620  140.4400 C   0  0  2  0  0  3  0  0  0  0  0  0
  160.1360  210.5670  138.8670 N   0  0  0  0  0  2  0  0  0  0  0  0
  159.1700  209.7530  138.1520 C   0  0  0  0  0  1  0  0  0  0  0  0
  161.1850  209.9880  139.6470 C   0  0  0  0  0  0  0  0  0  0  0  0
  161.3330  208.7360  139.6800 O   0  0  0  0  0  0  0  0  0  0  0  0
  2 18  1  0  0  0  0
  5  4  2  0  0  0  0
  5  9  1  0  0  0  0
  6  7  1  1  0  0  0
  6 17  1  0  0  0  0
  9  7  1  0  0  0  0
 11  4  1  6  0  0  0
 11  6  1  0  0  0  0
 12 14  2  0  0  0  0
 12 27  1  0  0  0  0
 13  1  1  0  0  0  0
 14 22  1  0  0  0  0
 15 33  1  1  0  0  0
 16  2  1  0  0  0  0
 17 15  1  0  0  0  0
 18 19  1  0  0  0  0
 19  3  1  1  0  0  0
 19  8  1  0  0  0  0
 20 10  1  0  0  0  0
 21 38  1  6  0  0  0
 21 16  1  0  0  0  0
 21 25  1  0  0  0  0
 22  1  1  0  0  0  0
 22 10  2  0  0  0  0
 23  8  1  1  0  0  0
 23 11  1  0  0  0  0
 23 24  1  0  0  0  0
 24 13  1  6  0  0  0
 24 15  1  0  0  0  0
 25 26  1  0  0  0  0
 26 12  1  0  0  0  0
 27 20  2  0  0  0  0
 28 32  2  0  0  0  0
 29 32  1  0  0  0  0
 29 34  1  1  0  0  0
 30 31  1  0  0  0  0
 31 29  1  0  0  0  0
 33 30  2  0  0  0  0
 33 28  1  0  0  0  0
 34 36  1  0  0  0  0
 34 35  1  0  0  0  0
 38 37  1  1  0  0  0
 39 38  1  0  0  0  0
 40 42  1  0  0  0  0
 40 45  1  1  0  0  0
 40 43  1  0  0  0  0
 42 43  1  0  0  0  0
 42 41  1  1  0  0  0
 43 44  1  6  0  0  0
 43 39  1  0  0  0  0
 46 47  1  1  0  0  0
 46 40  1  0  0  0  0
 47 48  1  6  0  0  0
 49 47  1  0  0  0  0
 51 50  1  6  0  0  0
 51 46  1  0  0  0  0
 52 54  1  0  0  0  0
 53 52  1  0  0  0  0
 54 55  2  0  0  0  0
 54 51  1  0  0  0  0
M  END
>  <MODEL>
1

>  <REMARK>
 VINA RESULT:      -4.4      0.000      0.000
  Name = 
  9 active torsions:
  status: ('A' for Active; 'I' for Inactive)
    1  A    between atoms: C_1  and  C_53
    2  A    between atoms: C_6  and  C_53
    3  A    between atoms: C_8  and  O_22
    4  A    between atoms: C_8  and  C_43
    5  A    between atoms: N_10  and  C_32
    6  A    between atoms: C_20  and  O_22
    7  A    between atoms: C_29  and  C_38
    8  A    between atoms: C_33  and  C_52
    9  A    between atoms: C_38  and  C_53
                            x       y       z     vdW  Elec       q    Type
                         _______ _______ _______ _____ _____    ______ ____

>  <TORSDO>
F 9

$$$$
=
 OpenBabel11062408503D

 55 60  0  0  1  0  0  0  0  0999 V2000
  160.3980  211.7910  151.2890 C   0  0  0  0  0  2  0  0  0  0  0  0
  161.6450  212.6960  146.2800 C   0  0  0  0  0  2  0  0  0  0  0  0
  164.0680  211.2180  146.8250 F   0  0  0  0  0  0  0  0  0  0  0  0
  162.4300  207.6540  147.7030 C   0  0  0  0  0  3  0  0  0  0  0  0
  161.9960  206.4440  147.3130 C   0  0  0  0  0  3  0  0  0  0  0  0
  161.3410  207.2990  149.9500 C   0  0  2  0  0  3  0  0  0  0  0  0
  161.5720  205.8110  149.7260 C   0  0  0  0  0  2  0  0  0  0  0  0
  163.2280  210.3820  148.8110 N   0  0  0  0  0  2  0  0  0  0  0  0
  161.3200  205.4750  148.2540 C   0  0  0  0  0  2  0  0  0  0  0  0
  158.2400  212.8420  151.9820 C   0  0  0  0  0  3  0  0  0  0  0  0
  162.3800  208.0960  149.1440 C   0  0  2  0  0  3  0  0  0  0  0  0
  157.6300  213.4670  149.3190 C   0  0  0  0  0  0  0  0  0  0  0  0
  160.3740  210.4250  150.7970 N   0  0  0  0  0  2  0  0  0  0  0  0
  158.8120  212.7810  149.6290 C   0  0  0  0  0  3  0  0  0  0  0  0
  162.0550  208.8590  151.7170 C   0  0  1  0  0  3  0  0  0  0  0  0
  160.6970  213.8770  146.4150 C   0  0  0  0  0  2  0  0  0  0  0  0
  161.3530  207.6080  151.3890 N   0  0  0  0  0  2  0  0  0  0  0  0
  162.0540  212.1860  147.6490 C   0  0  0  0  0  2  0  0  0  0  0  0
  162.8960  210.9250  147.5010 C   0  0  1  0  0  3  0  0  0  0  0  0
  157.0520  213.5110  151.6740 C   0  0  0  0  0  3  0  0  0  0  0  0
  159.2460  213.4130  146.4160 C   0  0  1  0  0  3  0  0  0  0  0  0
  159.1200  212.4760  150.9590 C   0  0  0  0  0  0  0  0  0  0  0  0
  162.0920  209.5970  149.2740 C   0  0  1  0  0  3  0  0  0  0  0  0
  161.7610  209.9950  150.7180 C   0  0  1  0  0  3  0  0  0  0  0  0
  158.4170  214.4530  147.1600 C   0  0  0  0  0  2  0  0  0  0  0  0
  157.2690  213.7800  147.9020 C   0  0  0  0  0  2  0  0  0  0  0  0
  156.7470  213.8220  150.3440 C   0  0  0  0  0  3  0  0  0  0  0  0
  160.7860  208.5790  153.9590 C   0  0  0  0  0  3  0  0  0  0  0  0
  160.7690  210.5400  155.4750 C   0  0  1  0  0  3  0  0  0  0  0  0
  162.4570  210.3250  153.6370 C   0  0  0  0  0  3  0  0  0  0  0  0
  162.2420  210.7420  155.0670 C   0  0  0  0  0  2  0  0  0  0  0  0
  160.3270  209.1460  155.0790 C   0  0  0  0  0  3  0  0  0  0  0  0
  161.8070  209.2690  153.1360 C   0  0  0  0  0  0  0  0  0  0  0  0
  160.5760  210.7700  156.9160 N   0  0  0  0  0  0  0  0  0  0  0  0
  161.1430  212.0660  157.2600 C   0  0  0  0  0  1  0  0  0  0  0  0
  159.1500  210.9050  157.1770 C   0  0  0  0  0  1  0  0  0  0  0  0
  157.4090  212.7840  144.9960 O   0  0  0  0  0  1  0  0  0  0  0  0
  158.7240  213.2490  144.9800 C   0  0  2  0  0  3  0  0  0  0  0  0
  159.5180  212.3400  144.2660 O   0  0  0  0  0  0  0  0  0  0  0  0
  160.2740  212.0300  141.8610 C   0  0  2  0  0  0  0  0  0  0  0  0
  162.0020  212.3990  143.4910 F   0  0  0  0  0  0  0  0  0  0  0  0
  161.1680  213.0400  142.5870 C   0  0  2  0  0  3  0  0  0  0  0  0
  159.7030  212.8900  142.9840 C   0  0  2  0  0  0  0  0  0  0  0  0
  158.9520  214.0240  142.6650 O   0  0  0  0  0  1  0  0  0  0  0  0
  160.4970  210.6950  142.2090 O   0  0  0  0  0  1  0  0  0  0  0  0
  159.8140  212.2980  140.4070 C   0  0  1  0  0  3  0  0  0  0  0  0
  159.3500  213.7370  140.1440 C   0  0  2  0  0  3  0  0  0  0  0  0
  157.8340  213.8290  140.1400 C   0  0  0  0  0  1  0  0  0  0  0  0
  159.8230  214.1820  138.9210 F   0  0  0  0  0  0  0  0  0  0  0  0
  160.9630  210.3600  139.5250 O   0  0  0  0  0  1  0  0  0  0  0  0
  160.6730  211.7030  139.2760 C   0  0  2  0  0  3  0  0  0  0  0  0
  162.1770  212.9150  137.6220 N   0  0  0  0  0  2  0  0  0  0  0  0
  163.4040  213.6030  137.2630 C   0  0  0  0  0  1  0  0  0  0  0  0
  161.9140  212.4860  138.9600 C   0  0  0  0  0  0  0  0  0  0  0  0
  162.7290  212.7550  139.8840 O   0  0  0  0  0  0  0  0  0  0  0  0
  2 16  1  0  0  0  0
  2 18  1  0  0  0  0
  5  4  2  0  0  0  0
  5  9  1  0  0  0  0
  6  7  1  1  0  0  0
  6 17  1  0  0  0  0
  9  7  1  0  0  0  0
 11  4  1  6  0  0  0
 11 23  1  0  0  0  0
 11  6  1  0  0  0  0
 12 14  2  0  0  0  0
 12 27  1  0  0  0  0
 13  1  1  0  0  0  0
 14 22  1  0  0  0  0
 15 33  1  1  0  0  0
 16 21  1  0  0  0  0
 17 15  1  0  0  0  0
 19  3  1  1  0  0  0
 19 18  1  0  0  0  0
 19  8  1  0  0  0  0
 20 10  1  0  0  0  0
 21 38  1  6  0  0  0
 21 25  1  0  0  0  0
 22  1  1  0  0  0  0
 22 10  2  0  0  0  0
 23  8  1  1  0  0  0
 23 24  1  0  0  0  0
 24 13  1  6  0  0  0
 24 15  1  0  0  0  0
 25 26  1  0  0  0  0
 26 12  1  0  0  0  0
 27 20  2  0  0  0  0
 28 32  2  0  0  0  0
 29 34  1  1  0  0  0
 30 31  1  0  0  0  0
 31 29  1  0  0  0  0
 32 29  1  0  0  0  0
 33 30  2  0  0  0  0
 33 28  1  0  0  0  0
 34 36  1  0  0  0  0
 34 35  1  0  0  0  0
 38 37  1  1  0  0  0
 39 38  1  0  0  0  0
 40 45  1  1  0  0  0
 40 42  1  0  0  0  0
 40 43  1  0  0  0  0
 42 43  1  0  0  0  0
 42 41  1  1  0  0  0
 43 44  1  6  0  0  0
 43 39  1  0  0  0  0
 46 51  1  6  0  0  0
 46 40  1  0  0  0  0
 47 48  1  6  0  0  0
 47 46  1  0  0  0  0
 49 47  1  0  0  0  0
 51 50  1  1  0  0  0
 52 54  1  0  0  0  0
 53 52  1  0  0  0  0
 54 51  1  0  0  0  0
 54 55  2  0  0  0  0
M  END
>  <MODEL>
2

>  <REMARK>
 VINA RESULT:      -1.9      1.534      2.063
  Name = 
  9 active torsions:
  status: ('A' for Active; 'I' for Inactive)
    1  A    between atoms: C_1  and  C_53
    2  A    between atoms: C_6  and  C_53
    3  A    between atoms: C_8  and  O_22
    4  A    between atoms: C_8  and  C_43
    5  A    between atoms: N_10  and  C_32
    6  A    between atoms: C_20  and  O_22
    7  A    between atoms: C_29  and  C_38
    8  A    between atoms: C_33  and  C_52
    9  A    between atoms: C_38  and  C_53
                            x       y       z     vdW  Elec       q    Type
                         _______ _______ _______ _____ _____    ______ ____

>  <TORSDO>
F 9

$$$$
