=
 OpenBabel11052422213D

 25 28  0  0  1  0  0  0  0  0999 V2000
  161.1830  205.4150  151.0790 C   0  0  0  0  0  0  0  0  0  0  0  0
  160.5510  204.6720  149.9300 C   0  0  1  0  0  3  0  0  0  0  0  0
  161.3210  203.2600  152.4620 C   0  0  0  0  0  2  0  0  0  0  0  0
  161.3140  206.7240  151.2730 C   0  0  0  0  0  0  0  0  0  0  0  0
  162.0560  204.3030  147.8700 C   0  0  1  0  0  3  0  0  0  0  0  0
  160.3190  202.7710  151.5070 N   0  0  0  0  0  2  0  0  0  0  0  0
  161.7610  206.9810  152.6890 C   0  0  1  0  0  3  0  0  0  0  0  0
  160.7890  207.7190  153.3660 O   0  0  0  0  0  1  0  0  0  0  0  0
  160.0290  202.3920  149.0870 N   0  0  0  0  0  0  0  0  0  0  0  0
  159.5010  201.1250  149.5820 C   0  0  0  0  0  1  0  0  0  0  0  0
  161.0230  205.1870  148.5620 C   0  0  0  0  0  2  0  0  0  0  0  0
  161.4660  204.7410  152.3210 C   0  0  0  0  0  0  0  0  0  0  0  0
  161.8180  205.5960  153.2630 C   0  0  0  0  0  3  0  0  0  0  0  0
  161.0320  202.0220  148.0940 C   0  0  0  0  0  2  0  0  0  0  0  0
  161.3390  203.1750  147.1440 C   0  0  0  0  0  2  0  0  0  0  0  0
  160.7330  203.1460  150.1410 C   0  0  1  0  0  3  0  0  0  0  0  0
  162.0080  208.0670  149.3210 C   0  0  0  0  0  2  0  0  0  0  0  0
  161.7360  209.0370  150.4460 C   0  0  0  0  0  2  0  0  0  0  0  0
  160.8840  207.7870  150.3020 C   0  0  0  0  0  3  0  0  0  0  0  0
  162.7850  205.0760  146.9250 O   0  0  0  0  0  0  0  0  0  0  0  0
  161.5470  205.5820  144.8730 N   0  0  0  0  0  0  0  0  0  0  0  0
  161.3580  205.4330  143.4400 C   0  0  0  0  0  1  0  0  0  0  0  0
  160.6300  206.4310  145.6120 C   0  0  0  0  0  1  0  0  0  0  0  0
  163.4120  204.1760  144.8970 O   0  0  0  0  0  0  0  0  0  0  0  0
  162.6210  204.9130  145.5460 C   0  0  0  0  0  0  0  0  0  0  0  0
  1  4  2  0  0  0  0
  1 12  1  0  0  0  0
  2 11  1  6  0  0  0
  2 16  1  0  0  0  0
  2  1  1  0  0  0  0
  4  7  1  0  0  0  0
  5 20  1  6  0  0  0
  5 11  1  0  0  0  0
  6  3  1  0  0  0  0
  7 13  1  0  0  0  0
  7  8  1  1  0  0  0
  9 10  1  0  0  0  0
  9 16  1  0  0  0  0
 12  3  1  0  0  0  0
 12 13  2  0  0  0  0
 14  9  1  0  0  0  0
 15  5  1  0  0  0  0
 15 14  1  0  0  0  0
 16  6  1  1  0  0  0
 17 19  1  0  0  0  0
 17 18  1  0  0  0  0
 19 18  1  0  0  0  0
 19  4  1  0  0  0  0
 21 25  1  0  0  0  0
 21 23  1  0  0  0  0
 22 21  1  0  0  0  0
 24 25  2  0  0  0  0
 25 20  1  0  0  0  0
M  END
>  <MODEL>
1

>  <REMARK>
 VINA RESULT:      -7.7      0.000      0.000
  Name = 
  3 active torsions:
  status: ('A' for Active; 'I' for Inactive)
    1  A    between atoms: C_5  and  C_22
    2  A    between atoms: C_6  and  O_15
    3  A    between atoms: O_15  and  C_25
                            x       y       z     vdW  Elec       q    Type
                         _______ _______ _______ _____ _____    ______ ____

>  <TORSDO>
F 3

$$$$
=
 OpenBabel11052422213D

 25 28  0  0  1  0  0  0  0  0999 V2000
  160.9850  203.4660  149.0020 C   0  0  0  0  0  0  0  0  0  0  0  0
  160.5660  204.8410  148.5490 C   0  0  1  0  0  3  0  0  0  0  0  0
  161.6600  202.8310  146.6120 C   0  0  0  0  0  2  0  0  0  0  0  0
  160.7790  202.8570  150.1660 C   0  0  0  0  0  0  0  0  0  0  0  0
  162.1230  206.7740  149.2480 C   0  0  1  0  0  3  0  0  0  0  0  0
  160.8180  203.9740  146.2390 N   0  0  0  0  0  2  0  0  0  0  0  0
  161.1410  201.3990  150.0420 C   0  0  1  0  0  3  0  0  0  0  0  0
  160.0120  200.6100  150.2640 O   0  0  0  0  0  1  0  0  0  0  0  0
  160.6420  206.4050  146.6180 N   0  0  0  0  0  0  0  0  0  0  0  0
  160.4510  206.3850  145.1710 C   0  0  0  0  0  1  0  0  0  0  0  0
  160.8960  205.9300  149.5820 C   0  0  0  0  0  2  0  0  0  0  0  0
  161.4250  202.4820  148.0450 C   0  0  0  0  0  0  0  0  0  0  0  0
  161.5460  201.2910  148.6020 C   0  0  0  0  0  3  0  0  0  0  0  0
  161.7100  207.3730  146.8450 C   0  0  0  0  0  2  0  0  0  0  0  0
  161.7170  207.8790  148.2830 C   0  0  0  0  0  2  0  0  0  0  0  0
  161.1280  205.1100  147.1290 C   0  0  1  0  0  3  0  0  0  0  0  0
  161.1040  204.2720  152.1640 C   0  0  0  0  0  2  0  0  0  0  0  0
  160.6520  202.9170  152.6540 C   0  0  0  0  0  2  0  0  0  0  0  0
  160.0970  203.4740  151.3540 C   0  0  0  0  0  3  0  0  0  0  0  0
  162.6340  207.3590  150.4380 O   0  0  0  0  0  0  0  0  0  0  0  0
  161.4420  208.6420  152.1490 N   0  0  0  0  0  0  0  0  0  0  0  0
  160.9580  209.9070  152.6750 C   0  0  0  0  0  1  0  0  0  0  0  0
  161.1750  207.4280  152.9010 C   0  0  0  0  0  1  0  0  0  0  0  0
  162.4010  209.6470  150.2720 O   0  0  0  0  0  0  0  0  0  0  0  0
  162.1750  208.5890  150.9200 C   0  0  0  0  0  0  0  0  0  0  0  0
  1  4  2  0  0  0  0
  2  1  1  0  0  0  0
  2 11  1  1  0  0  0
  3 12  1  0  0  0  0
  4 19  1  0  0  0  0
  5 11  1  0  0  0  0
  5 20  1  1  0  0  0
  6  3  1  0  0  0  0
  7  4  1  0  0  0  0
  7  8  1  6  0  0  0
  9 14  1  0  0  0  0
  9 16  1  0  0  0  0
 10  9  1  0  0  0  0
 12 13  2  0  0  0  0
 12  1  1  0  0  0  0
 13  7  1  0  0  0  0
 14 15  1  0  0  0  0
 15  5  1  0  0  0  0
 16  6  1  6  0  0  0
 16  2  1  0  0  0  0
 17 18  1  0  0  0  0
 19 17  1  0  0  0  0
 19 18  1  0  0  0  0
 20 25  1  0  0  0  0
 21 22  1  0  0  0  0
 21 23  1  0  0  0  0
 24 25  2  0  0  0  0
 25 21  1  0  0  0  0
M  END
>  <MODEL>
2

>  <REMARK>
 VINA RESULT:      -6.8      2.445      5.763
  Name = 
  3 active torsions:
  status: ('A' for Active; 'I' for Inactive)
    1  A    between atoms: C_5  and  C_22
    2  A    between atoms: C_6  and  O_15
    3  A    between atoms: O_15  and  C_25
                            x       y       z     vdW  Elec       q    Type
                         _______ _______ _______ _____ _____    ______ ____

>  <TORSDO>
F 3

$$$$
=
 OpenBabel11052422213D

 25 28  0  0  1  0  0  0  0  0999 V2000
  160.4080  209.9500  153.4600 C   0  0  0  0  0  0  0  0  0  0  0  0
  161.4740  209.6890  152.4270 C   0  0  1  0  0  3  0  0  0  0  0  0
  159.4760  211.8970  152.0750 C   0  0  0  0  0  2  0  0  0  0  0  0
  160.2800  209.4630  154.6900 C   0  0  0  0  0  0  0  0  0  0  0  0
  161.1530  207.5680  150.9970 C   0  0  1  0  0  3  0  0  0  0  0  0
  160.7850  211.8440  151.4130 N   0  0  0  0  0  2  0  0  0  0  0  0
  159.2130  210.2300  155.4280 C   0  0  1  0  0  3  0  0  0  0  0  0
  159.7720  210.8760  156.5320 O   0  0  0  0  0  1  0  0  0  0  0  0
  162.2000  210.2860  150.1260 N   0  0  0  0  0  0  0  0  0  0  0  0
  162.3370  211.4700  149.2830 C   0  0  0  0  0  1  0  0  0  0  0  0
  161.7670  208.1910  152.2470 C   0  0  0  0  0  2  0  0  0  0  0  0
  159.5110  211.0700  153.3190 C   0  0  0  0  0  0  0  0  0  0  0  0
  158.7960  211.2540  154.4140 C   0  0  0  0  0  3  0  0  0  0  0  0
  161.7910  209.2200  149.2170 C   0  0  0  0  0  2  0  0  0  0  0  0
  162.0620  207.8410  149.8080 C   0  0  0  0  0  2  0  0  0  0  0  0
  161.1170  210.4370  151.1160 C   0  0  1  0  0  3  0  0  0  0  0  0
  160.6970  207.0480  155.0030 C   0  0  0  0  0  2  0  0  0  0  0  0
  160.4720  207.6370  156.3760 C   0  0  0  0  0  2  0  0  0  0  0  0
  161.1960  208.4480  155.3150 C   0  0  0  0  0  3  0  0  0  0  0  0
  161.0310  206.1640  151.1770 O   0  0  0  0  0  0  0  0  0  0  0  0
  160.9940  203.8900  150.2680 N   0  0  0  0  0  0  0  0  0  0  0  0
  160.7240  202.9660  149.1790 C   0  0  0  0  0  1  0  0  0  0  0  0
  161.4920  203.3590  151.5250 C   0  0  0  0  0  1  0  0  0  0  0  0
  160.3370  205.7500  149.0170 O   0  0  0  0  0  0  0  0  0  0  0  0
  160.7680  205.2960  150.1130 C   0  0  0  0  0  0  0  0  0  0  0  0
  1  4  2  0  0  0  0
  2 11  1  6  0  0  0
  2  1  1  0  0  0  0
  3 12  1  0  0  0  0
  4 19  1  0  0  0  0
  4  7  1  0  0  0  0
  5 20  1  1  0  0  0
  5 11  1  0  0  0  0
  6  3  1  0  0  0  0
  7  8  1  1  0  0  0
  9 16  1  0  0  0  0
 10  9  1  0  0  0  0
 12  1  1  0  0  0  0
 12 13  2  0  0  0  0
 13  7  1  0  0  0  0
 14 15  1  0  0  0  0
 14  9  1  0  0  0  0
 15  5  1  0  0  0  0
 16  6  1  1  0  0  0
 16  2  1  0  0  0  0
 17 19  1  0  0  0  0
 17 18  1  0  0  0  0
 19 18  1  0  0  0  0
 21 23  1  0  0  0  0
 22 21  1  0  0  0  0
 24 25  2  0  0  0  0
 25 21  1  0  0  0  0
 25 20  1  0  0  0  0
M  END
>  <MODEL>
3

>  <REMARK>
 VINA RESULT:      -6.7      3.679      6.418
  Name = 
  3 active torsions:
  status: ('A' for Active; 'I' for Inactive)
    1  A    between atoms: C_5  and  C_22
    2  A    between atoms: C_6  and  O_15
    3  A    between atoms: O_15  and  C_25
                            x       y       z     vdW  Elec       q    Type
                         _______ _______ _______ _____ _____    ______ ____

>  <TORSDO>
F 3

$$$$
=
 OpenBabel11052422213D

 25 28  0  0  1  0  0  0  0  0999 V2000
  161.4720  204.8180  148.5850 C   0  0  0  0  0  0  0  0  0  0  0  0
  161.0530  206.1190  149.2210 C   0  0  1  0  0  3  0  0  0  0  0  0
  162.6940  206.0710  146.7110 C   0  0  0  0  0  2  0  0  0  0  0  0
  161.0690  203.5780  148.8450 C   0  0  0  0  0  0  0  0  0  0  0  0
  162.2650  206.7370  151.4110 C   0  0  1  0  0  3  0  0  0  0  0  0
  161.8640  207.2030  147.1430 N   0  0  0  0  0  2  0  0  0  0  0  0
  161.5630  202.6510  147.7650 C   0  0  1  0  0  3  0  0  0  0  0  0
  160.4780  202.0800  147.0980 O   0  0  0  0  0  1  0  0  0  0  0  0
  161.4200  208.5770  149.1420 N   0  0  0  0  0  0  0  0  0  0  0  0
  161.5470  209.6440  148.1550 C   0  0  0  0  0  1  0  0  0  0  0  0
  161.0660  206.0580  150.7560 C   0  0  0  0  0  2  0  0  0  0  0  0
  162.1840  204.8110  147.3320 C   0  0  0  0  0  0  0  0  0  0  0  0
  162.2750  203.5900  146.8380 C   0  0  0  0  0  3  0  0  0  0  0  0
  162.3330  208.9460  150.2180 C   0  0  0  0  0  2  0  0  0  0  0  0
  161.9910  208.2300  151.5200 C   0  0  0  0  0  2  0  0  0  0  0  0
  161.8850  207.2800  148.6160 C   0  0  1  0  0  3  0  0  0  0  0  0
  160.8610  202.6590  151.1290 C   0  0  0  0  0  2  0  0  0  0  0  0
  160.1480  201.7020  150.2030 C   0  0  0  0  0  2  0  0  0  0  0  0
  160.1000  203.1960  149.9290 C   0  0  0  0  0  3  0  0  0  0  0  0
  162.4610  206.2030  152.7130 O   0  0  0  0  0  0  0  0  0  0  0  0
  160.9420  206.9470  154.4840 N   0  0  0  0  0  0  0  0  0  0  0  0
  159.8320  206.6970  155.3870 C   0  0  0  0  0  1  0  0  0  0  0  0
  161.5830  208.2500  154.5120 C   0  0  0  0  0  1  0  0  0  0  0  0
  160.8320  204.8060  153.5590 O   0  0  0  0  0  0  0  0  0  0  0  0
  161.3930  205.9350  153.5760 C   0  0  0  0  0  0  0  0  0  0  0  0
  1  4  2  0  0  0  0
  1  2  1  0  0  0  0
  2 11  1  1  0  0  0
  3  6  1  0  0  0  0
  3 12  1  0  0  0  0
  4 19  1  0  0  0  0
  5 15  1  0  0  0  0
  5 20  1  1  0  0  0
  7  8  1  6  0  0  0
  7  4  1  0  0  0  0
  9 14  1  0  0  0  0
 10  9  1  0  0  0  0
 11  5  1  0  0  0  0
 12  1  1  0  0  0  0
 13 12  2  0  0  0  0
 13  7  1  0  0  0  0
 14 15  1  0  0  0  0
 16  6  1  6  0  0  0
 16  9  1  0  0  0  0
 16  2  1  0  0  0  0
 18 17  1  0  0  0  0
 19 18  1  0  0  0  0
 19 17  1  0  0  0  0
 20 25  1  0  0  0  0
 21 23  1  0  0  0  0
 21 22  1  0  0  0  0
 24 25  2  0  0  0  0
 25 21  1  0  0  0  0
M  END
>  <MODEL>
4

>  <REMARK>
 VINA RESULT:      -6.6      2.396      6.865
  Name = 
  3 active torsions:
  status: ('A' for Active; 'I' for Inactive)
    1  A    between atoms: C_5  and  C_22
    2  A    between atoms: C_6  and  O_15
    3  A    between atoms: O_15  and  C_25
                            x       y       z     vdW  Elec       q    Type
                         _______ _______ _______ _____ _____    ______ ____

>  <TORSDO>
F 3

$$$$
=
 OpenBabel11052422213D

 25 28  0  0  1  0  0  0  0  0999 V2000
  161.0750  208.4000  153.6380 C   0  0  0  0  0  0  0  0  0  0  0  0
  161.2980  209.8440  154.0070 C   0  0  1  0  0  3  0  0  0  0  0  0
  161.3150  207.6860  156.0890 C   0  0  0  0  0  2  0  0  0  0  0  0
  161.0470  207.8240  152.4400 C   0  0  0  0  0  0  0  0  0  0  0  0
  159.2160  211.3620  153.8990 C   0  0  1  0  0  3  0  0  0  0  0  0
  161.9560  208.9980  156.2430 N   0  0  0  0  0  2  0  0  0  0  0  0
  161.0700  206.3260  152.6000 C   0  0  1  0  0  3  0  0  0  0  0  0
  162.2240  205.8050  152.0120 O   0  0  0  0  0  1  0  0  0  0  0  0
  161.4680  211.3960  155.9410 N   0  0  0  0  0  0  0  0  0  0  0  0
  162.0890  211.4540  157.2610 C   0  0  0  0  0  1  0  0  0  0  0  0
  160.4380  210.8060  153.1720 C   0  0  0  0  0  2  0  0  0  0  0  0
  161.1740  207.3650  154.6370 C   0  0  0  0  0  0  0  0  0  0  0  0
  161.1560  206.1640  154.0880 C   0  0  0  0  0  3  0  0  0  0  0  0
  160.1960  212.0950  156.0910 C   0  0  0  0  0  2  0  0  0  0  0  0
  159.6410  212.5520  154.7460 C   0  0  0  0  0  2  0  0  0  0  0  0
  161.1480  210.0130  155.5420 C   0  0  1  0  0  3  0  0  0  0  0  0
  161.2140  207.5480  149.9910 C   0  0  0  0  0  2  0  0  0  0  0  0
  162.4940  208.2050  150.4470 C   0  0  0  0  0  2  0  0  0  0  0  0
  161.1830  208.5500  151.1310 C   0  0  0  0  0  3  0  0  0  0  0  0
  158.2520  211.7890  152.9460 O   0  0  0  0  0  0  0  0  0  0  0  0
  156.3510  212.9490  153.9650 N   0  0  0  0  0  0  0  0  0  0  0  0
  155.5610  214.1520  154.1630 C   0  0  0  0  0  1  0  0  0  0  0  0
  155.9540  211.7340  154.6540 C   0  0  0  0  0  1  0  0  0  0  0  0
  157.8430  214.0180  152.5200 O   0  0  0  0  0  0  0  0  0  0  0  0
  157.5050  212.9590  153.1160 C   0  0  0  0  0  0  0  0  0  0  0  0
  1  2  1  0  0  0  0
  1 12  1  0  0  0  0
  2 11  1  6  0  0  0
  2 16  1  0  0  0  0
  3  6  1  0  0  0  0
  4  7  1  0  0  0  0
  4  1  2  0  0  0  0
  5 20  1  6  0  0  0
  5 15  1  0  0  0  0
  7  8  1  6  0  0  0
  7 13  1  0  0  0  0
  9 14  1  0  0  0  0
  9 10  1  0  0  0  0
 11  5  1  0  0  0  0
 12  3  1  0  0  0  0
 13 12  2  0  0  0  0
 15 14  1  0  0  0  0
 16  9  1  0  0  0  0
 16  6  1  1  0  0  0
 17 18  1  0  0  0  0
 17 19  1  0  0  0  0
 18 19  1  0  0  0  0
 19  4  1  0  0  0  0
 20 25  1  0  0  0  0
 21 22  1  0  0  0  0
 21 23  1  0  0  0  0
 24 25  2  0  0  0  0
 25 21  1  0  0  0  0
M  END
>  <MODEL>
5

>  <REMARK>
 VINA RESULT:      -6.3      5.469      8.905
  Name = 
  3 active torsions:
  status: ('A' for Active; 'I' for Inactive)
    1  A    between atoms: C_5  and  C_22
    2  A    between atoms: C_6  and  O_15
    3  A    between atoms: O_15  and  C_25
                            x       y       z     vdW  Elec       q    Type
                         _______ _______ _______ _____ _____    ______ ____

>  <TORSDO>
F 3

$$$$
=
 OpenBabel11052422213D

 25 28  0  0  1  0  0  0  0  0999 V2000
  160.9590  208.1610  153.2180 C   0  0  0  0  0  0  0  0  0  0  0  0
  160.6620  208.1360  151.7410 C   0  0  1  0  0  3  0  0  0  0  0  0
  161.9430  205.7960  153.1100 C   0  0  0  0  0  2  0  0  0  0  0  0
  160.5660  209.0260  154.1490 C   0  0  0  0  0  0  0  0  0  0  0  0
  162.1770  209.6150  150.2690 C   0  0  1  0  0  3  0  0  0  0  0  0
  161.2070  205.7190  151.8420 N   0  0  0  0  0  2  0  0  0  0  0  0
  160.8850  208.4770  155.5150 C   0  0  1  0  0  3  0  0  0  0  0  0
  159.7060  208.2870  156.2370 O   0  0  0  0  0  1  0  0  0  0  0  0
  161.0730  206.8490  149.6540 N   0  0  0  0  0  0  0  0  0  0  0  0
  161.0890  205.4640  149.1950 C   0  0  0  0  0  1  0  0  0  0  0  0
  160.8840  209.5010  151.0710 C   0  0  0  0  0  2  0  0  0  0  0  0
  161.4930  206.9960  153.8780 C   0  0  0  0  0  0  0  0  0  0  0  0
  161.4860  207.1410  155.1900 C   0  0  0  0  0  3  0  0  0  0  0  0
  162.1340  207.5100  148.9010 C   0  0  0  0  0  2  0  0  0  0  0  0
  161.9560  209.0240  148.8840 C   0  0  0  0  0  2  0  0  0  0  0  0
  161.4310  206.9630  151.0800 C   0  0  1  0  0  3  0  0  0  0  0  0
  160.6630  211.4530  153.7020 C   0  0  0  0  0  2  0  0  0  0  0  0
  159.9190  211.2760  155.0040 C   0  0  0  0  0  2  0  0  0  0  0  0
  159.7460  210.2580  153.8890 C   0  0  0  0  0  3  0  0  0  0  0  0
  162.5360  210.9840  150.1400 O   0  0  0  0  0  0  0  0  0  0  0  0
  161.2140  212.7090  149.0110 N   0  0  0  0  0  0  0  0  0  0  0  0
  160.9020  213.4930  147.8280 C   0  0  0  0  0  1  0  0  0  0  0  0
  160.4560  212.9510  150.2260 C   0  0  0  0  0  1  0  0  0  0  0  0
  162.9040  211.5170  147.9260 O   0  0  0  0  0  0  0  0  0  0  0  0
  162.2520  211.7220  148.9870 C   0  0  0  0  0  0  0  0  0  0  0  0
  1 12  1  0  0  0  0
  1  4  2  0  0  0  0
  2 11  1  6  0  0  0
  2  1  1  0  0  0  0
  3 12  1  0  0  0  0
  4  7  1  0  0  0  0
  5 20  1  6  0  0  0
  5 11  1  0  0  0  0
  6  3  1  0  0  0  0
  7  8  1  1  0  0  0
  9 16  1  0  0  0  0
 10  9  1  0  0  0  0
 12 13  2  0  0  0  0
 13  7  1  0  0  0  0
 14  9  1  0  0  0  0
 15 14  1  0  0  0  0
 15  5  1  0  0  0  0
 16  2  1  0  0  0  0
 16  6  1  1  0  0  0
 17 19  1  0  0  0  0
 17 18  1  0  0  0  0
 19  4  1  0  0  0  0
 19 18  1  0  0  0  0
 21 23  1  0  0  0  0
 22 21  1  0  0  0  0
 24 25  2  0  0  0  0
 25 21  1  0  0  0  0
 25 20  1  0  0  0  0
M  END
>  <MODEL>
6

>  <REMARK>
 VINA RESULT:      -6.1      3.605      5.460
  Name = 
  3 active torsions:
  status: ('A' for Active; 'I' for Inactive)
    1  A    between atoms: C_5  and  C_22
    2  A    between atoms: C_6  and  O_15
    3  A    between atoms: O_15  and  C_25
                            x       y       z     vdW  Elec       q    Type
                         _______ _______ _______ _____ _____    ______ ____

>  <TORSDO>
F 3

$$$$
=
 OpenBabel11052422213D

 25 28  0  0  1  0  0  0  0  0999 V2000
  161.0410  203.0080  148.6780 C   0  0  0  0  0  0  0  0  0  0  0  0
  160.7120  204.2440  147.8800 C   0  0  1  0  0  3  0  0  0  0  0  0
  161.4900  201.6820  146.5300 C   0  0  0  0  0  2  0  0  0  0  0  0
  160.8640  202.7610  149.9730 C   0  0  0  0  0  0  0  0  0  0  0  0
  162.4760  206.1230  147.9500 C   0  0  1  0  0  3  0  0  0  0  0  0
  160.7270  202.7610  145.8920 N   0  0  0  0  0  2  0  0  0  0  0  0
  161.0880  201.2950  150.2420 C   0  0  1  0  0  3  0  0  0  0  0  0
  159.9130  200.7160  150.7210 O   0  0  0  0  0  1  0  0  0  0  0  0
  160.7900  205.2090  145.5910 N   0  0  0  0  0  0  0  0  0  0  0  0
  160.4970  204.8160  144.2160 C   0  0  0  0  0  1  0  0  0  0  0  0
  161.2070  205.5320  148.5570 C   0  0  0  0  0  2  0  0  0  0  0  0
  161.3260  201.7610  148.0130 C   0  0  0  0  0  0  0  0  0  0  0  0
  161.3810  200.7590  148.8710 C   0  0  0  0  0  3  0  0  0  0  0  0
  161.9510  206.0870  145.4950 C   0  0  0  0  0  2  0  0  0  0  0  0
  162.1020  206.9600  146.7360 C   0  0  0  0  0  2  0  0  0  0  0  0
  161.1960  204.0580  146.4180 C   0  0  1  0  0  3  0  0  0  0  0  0
  161.4450  204.2300  151.8710 C   0  0  0  0  0  2  0  0  0  0  0  0
  160.4550  203.2140  152.3890 C   0  0  0  0  0  2  0  0  0  0  0  0
  160.3220  203.7440  150.9710 C   0  0  0  0  0  3  0  0  0  0  0  0
  163.1180  206.9530  148.9080 O   0  0  0  0  0  0  0  0  0  0  0  0
  161.8920  208.6760  150.1440 N   0  0  0  0  0  0  0  0  0  0  0  0
  161.2170  209.1320  151.3470 C   0  0  0  0  0  1  0  0  0  0  0  0
  161.9560  209.5690  149.0010 C   0  0  0  0  0  1  0  0  0  0  0  0
  162.4200  206.6010  151.0780 O   0  0  0  0  0  0  0  0  0  0  0  0
  162.4780  207.3700  150.0790 C   0  0  0  0  0  0  0  0  0  0  0  0
  1  4  2  0  0  0  0
  2 11  1  1  0  0  0
  2  1  1  0  0  0  0
  3 12  1  0  0  0  0
  4  7  1  0  0  0  0
  4 19  1  0  0  0  0
  5 11  1  0  0  0  0
  5 20  1  1  0  0  0
  6  3  1  0  0  0  0
  7  8  1  6  0  0  0
  9 16  1  0  0  0  0
 10  9  1  0  0  0  0
 12  1  1  0  0  0  0
 12 13  2  0  0  0  0
 13  7  1  0  0  0  0
 14  9  1  0  0  0  0
 14 15  1  0  0  0  0
 15  5  1  0  0  0  0
 16  6  1  6  0  0  0
 16  2  1  0  0  0  0
 17 18  1  0  0  0  0
 19 17  1  0  0  0  0
 19 18  1  0  0  0  0
 20 25  1  0  0  0  0
 21 22  1  0  0  0  0
 23 21  1  0  0  0  0
 25 21  1  0  0  0  0
 25 24  2  0  0  0  0
M  END
>  <MODEL>
7

>  <REMARK>
 VINA RESULT:      -6.0      2.342      5.234
  Name = 
  3 active torsions:
  status: ('A' for Active; 'I' for Inactive)
    1  A    between atoms: C_5  and  C_22
    2  A    between atoms: C_6  and  O_15
    3  A    between atoms: O_15  and  C_25
                            x       y       z     vdW  Elec       q    Type
                         _______ _______ _______ _____ _____    ______ ____

>  <TORSDO>
F 3

$$$$
=
 OpenBabel11052422213D

 25 28  0  0  1  0  0  0  0  0999 V2000
  161.4350  208.6930  151.6910 C   0  0  0  0  0  0  0  0  0  0  0  0
  161.6500  209.3680  153.0210 C   0  0  1  0  0  3  0  0  0  0  0  0
  160.8030  206.4960  152.8520 C   0  0  0  0  0  2  0  0  0  0  0  0
  161.7480  209.1100  150.4670 C   0  0  0  0  0  0  0  0  0  0  0  0
  159.8570  211.0880  153.7080 C   0  0  1  0  0  3  0  0  0  0  0  0
  161.4710  207.1010  154.0110 N   0  0  0  0  0  2  0  0  0  0  0  0
  161.5890  207.9730  149.4910 C   0  0  1  0  0  3  0  0  0  0  0  0
  162.8210  207.6710  148.9100 O   0  0  0  0  0  1  0  0  0  0  0  0
  161.3170  209.0850  155.4680 N   0  0  0  0  0  0  0  0  0  0  0  0
  161.4780  208.0590  156.4940 C   0  0  0  0  0  1  0  0  0  0  0  0
  161.1950  210.8350  153.0200 C   0  0  0  0  0  2  0  0  0  0  0  0
  161.1150  207.2890  151.6240 C   0  0  0  0  0  0  0  0  0  0  0  0
  161.1720  206.8410  150.3840 C   0  0  0  0  0  3  0  0  0  0  0  0
  160.1310  209.8350  155.8670 C   0  0  0  0  0  2  0  0  0  0  0  0
  160.0840  211.2090  155.2070 C   0  0  0  0  0  2  0  0  0  0  0  0
  161.0260  208.5010  154.1460 C   0  0  1  0  0  3  0  0  0  0  0  0
  161.2710  211.4450  149.8190 C   0  0  0  0  0  2  0  0  0  0  0  0
  162.0840  210.8360  148.7010 C   0  0  0  0  0  2  0  0  0  0  0  0
  162.3640  210.4410  150.1410 C   0  0  0  0  0  3  0  0  0  0  0  0
  159.2950  212.2990  153.2230 O   0  0  0  0  0  0  0  0  0  0  0  0
  157.3620  213.6790  152.6210 N   0  0  0  0  0  0  0  0  0  0  0  0
  155.9540  214.0120  152.7540 C   0  0  0  0  0  1  0  0  0  0  0  0
  158.1770  214.4530  151.7020 C   0  0  0  0  0  1  0  0  0  0  0  0
  157.2240  211.9360  154.1700 O   0  0  0  0  0  0  0  0  0  0  0  0
  157.9380  212.6030  153.3720 C   0  0  0  0  0  0  0  0  0  0  0  0
  1  2  1  0  0  0  0
  2 11  1  6  0  0  0
  2 16  1  0  0  0  0
  3  6  1  0  0  0  0
  4  1  2  0  0  0  0
  5 20  1  6  0  0  0
  5 15  1  0  0  0  0
  7  8  1  1  0  0  0
  7 13  1  0  0  0  0
  7  4  1  0  0  0  0
  9 14  1  0  0  0  0
  9 10  1  0  0  0  0
 11  5  1  0  0  0  0
 12  1  1  0  0  0  0
 12  3  1  0  0  0  0
 13 12  2  0  0  0  0
 15 14  1  0  0  0  0
 16  6  1  1  0  0  0
 16  9  1  0  0  0  0
 17 19  1  0  0  0  0
 18 17  1  0  0  0  0
 18 19  1  0  0  0  0
 19  4  1  0  0  0  0
 20 25  1  0  0  0  0
 21 22  1  0  0  0  0
 21 25  1  0  0  0  0
 23 21  1  0  0  0  0
 25 24  2  0  0  0  0
M  END
>  <MODEL>
8

>  <REMARK>
 VINA RESULT:      -5.8      4.658      8.151
  Name = 
  3 active torsions:
  status: ('A' for Active; 'I' for Inactive)
    1  A    between atoms: C_5  and  C_22
    2  A    between atoms: C_6  and  O_15
    3  A    between atoms: O_15  and  C_25
                            x       y       z     vdW  Elec       q    Type
                         _______ _______ _______ _____ _____    ______ ____

>  <TORSDO>
F 3

$$$$
=
 OpenBabel11052422213D

 25 28  0  0  1  0  0  0  0  0999 V2000
  161.2040  208.0440  153.1920 C   0  0  0  0  0  0  0  0  0  0  0  0
  161.4060  209.4570  153.6760 C   0  0  1  0  0  3  0  0  0  0  0  0
  160.4540  207.3000  155.5280 C   0  0  0  0  0  2  0  0  0  0  0  0
  161.5700  207.4790  152.0450 C   0  0  0  0  0  0  0  0  0  0  0  0
  159.6600  211.1750  152.8710 C   0  0  1  0  0  3  0  0  0  0  0  0
  161.1090  208.5400  155.9610 N   0  0  0  0  0  2  0  0  0  0  0  0
  161.3960  205.9850  152.1410 C   0  0  1  0  0  3  0  0  0  0  0  0
  162.6330  205.3540  151.9990 O   0  0  0  0  0  1  0  0  0  0  0  0
  160.9880  210.9770  155.5980 N   0  0  0  0  0  0  0  0  0  0  0  0
  161.0790  210.9670  157.0550 C   0  0  0  0  0  1  0  0  0  0  0  0
  161.0070  210.5040  152.6230 C   0  0  0  0  0  2  0  0  0  0  0  0
  160.8320  207.0000  154.1140 C   0  0  0  0  0  0  0  0  0  0  0  0
  160.9100  205.8090  153.5490 C   0  0  0  0  0  3  0  0  0  0  0  0
  159.8200  211.7980  155.2980 C   0  0  0  0  0  2  0  0  0  0  0  0
  159.8470  212.3140  153.8630 C   0  0  0  0  0  2  0  0  0  0  0  0
  160.7140  209.6340  155.0530 C   0  0  1  0  0  3  0  0  0  0  0  0
  161.2860  208.3160  149.7390 C   0  0  0  0  0  2  0  0  0  0  0  0
  162.3900  207.2860  149.7000 C   0  0  0  0  0  2  0  0  0  0  0  0
  162.2460  208.1940  150.9100 C   0  0  0  0  0  3  0  0  0  0  0  0
  159.1600  211.7000  151.6480 O   0  0  0  0  0  0  0  0  0  0  0  0
  160.4560  213.1340  150.1440 N   0  0  0  0  0  0  0  0  0  0  0  0
  160.8180  214.4520  149.6520 C   0  0  0  0  0  1  0  0  0  0  0  0
  161.0810  211.9700  149.5420 C   0  0  0  0  0  1  0  0  0  0  0  0
  158.9570  213.9970  151.7140 O   0  0  0  0  0  0  0  0  0  0  0  0
  159.4950  212.9800  151.1960 C   0  0  0  0  0  0  0  0  0  0  0  0
  1  2  1  0  0  0  0
  1 12  1  0  0  0  0
  2 11  1  6  0  0  0
  2 16  1  0  0  0  0
  3  6  1  0  0  0  0
  4  7  1  0  0  0  0
  4  1  2  0  0  0  0
  5 20  1  6  0  0  0
  5 15  1  0  0  0  0
  7  8  1  1  0  0  0
  7 13  1  0  0  0  0
  9 10  1  0  0  0  0
 11  5  1  0  0  0  0
 12  3  1  0  0  0  0
 13 12  2  0  0  0  0
 14  9  1  0  0  0  0
 15 14  1  0  0  0  0
 16  9  1  0  0  0  0
 16  6  1  1  0  0  0
 17 19  1  0  0  0  0
 18 17  1  0  0  0  0
 18 19  1  0  0  0  0
 19  4  1  0  0  0  0
 21 25  1  0  0  0  0
 22 21  1  0  0  0  0
 23 21  1  0  0  0  0
 25 20  1  0  0  0  0
 25 24  2  0  0  0  0
M  END
>  <MODEL>
9

>  <REMARK>
 VINA RESULT:      -5.7      4.685      7.751
  Name = 
  3 active torsions:
  status: ('A' for Active; 'I' for Inactive)
    1  A    between atoms: C_5  and  C_22
    2  A    between atoms: C_6  and  O_15
    3  A    between atoms: O_15  and  C_25
                            x       y       z     vdW  Elec       q    Type
                         _______ _______ _______ _____ _____    ______ ____

>  <TORSDO>
F 3

$$$$
