=
 OpenBabel11052421533D

 30 33  0  0  1  0  0  0  0  0999 V2000
  161.3340  205.7340  147.9850 C   0  0  0  0  0  3  0  0  0  0  0  0
  161.2820  204.6140  145.8240 C   0  0  0  0  0  0  0  0  0  0  0  0
  160.8240  202.0540  149.9740 C   0  0  0  0  0  3  0  0  0  0  0  0
  161.2810  205.7070  149.3790 C   0  0  0  0  0  0  0  0  0  0  0  0
  160.7680  202.0150  151.3680 C   0  0  0  0  0  3  0  0  0  0  0  0
  161.1750  203.4370  145.0800 C   0  0  0  0  0  3  0  0  0  0  0  0
  161.4540  205.8530  145.1410 N   0  0  0  0  0  1  0  0  0  0  0  0
  160.9930  203.2740  149.2950 C   0  0  0  0  0  0  0  0  0  0  0  0
  161.0050  202.2100  145.7210 C   0  0  0  0  0  3  0  0  0  0  0  0
  161.2230  204.5640  147.2300 C   0  0  0  0  0  0  0  0  0  0  0  0
  161.1080  204.4740  150.0470 C   0  0  0  0  0  0  0  0  0  0  0  0
  160.8800  203.1930  152.1050 C   0  0  0  0  0  3  0  0  0  0  0  0
  161.0490  204.4130  151.4480 C   0  0  0  0  0  3  0  0  0  0  0  0
  160.9430  202.1500  147.1140 C   0  0  0  0  0  3  0  0  0  0  0  0
  161.0510  203.3200  147.8860 C   0  0  0  0  0  0  0  0  0  0  0  0
  161.4060  207.0260  150.0980 C   0  0  1  0  0  3  0  0  0  0  0  0
  163.0470  206.7390  151.8260 O   0  0  0  0  0  1  0  0  0  0  0  0
  161.6740  206.8420  151.5940 C   0  0  1  0  0  3  0  0  0  0  0  0
  160.6800  209.1260  151.8290 N   0  0  0  0  0  0  0  0  0  0  0  0
  161.0360  208.0580  154.0610 S   0  0  0  0  0  0  0  0  0  0  0  0
  161.1170  207.9800  152.3870 C   0  0  0  0  0  0  0  0  0  0  0  0
  160.2790  210.0310  152.7630 C   0  0  0  0  0  3  0  0  0  0  0  0
  160.4010  209.6180  154.0890 C   0  0  0  0  0  3  0  0  0  0  0  0
  162.4020  207.8130  149.5100 O   0  0  0  0  0  0  0  0  0  0  0  0
  161.7140  208.7860  148.7790 C   0  0  0  0  0  2  0  0  0  0  0  0
  162.3600  210.1440  148.9830 C   0  0  0  0  0  2  0  0  0  0  0  0
  161.5780  211.2140  148.2410 C   0  0  0  0  0  2  0  0  0  0  0  0
  161.7210  213.6750  148.5920 O   0  0  0  0  0  1  0  0  0  0  0  0
  162.3430  212.4880  148.2310 C   0  0  0  0  0  0  0  0  0  0  0  0
  163.5650  212.4850  147.9290 O   0  0  0  0  0  0  0  0  0  0  0  0
  1  4  1  0  0  0  0
  2 10  1  0  0  0  0
  3  5  2  0  0  0  0
  4 11  2  0  0  0  0
  4 16  1  0  0  0  0
  5 12  1  0  0  0  0
  6  9  1  0  0  0  0
  6  2  2  0  0  0  0
  7  2  1  0  0  0  0
  8  3  1  0  0  0  0
  8 11  1  0  0  0  0
  9 14  2  0  0  0  0
 10 15  1  0  0  0  0
 10  1  2  0  0  0  0
 11 13  1  0  0  0  0
 13 12  2  0  0  0  0
 14 15  1  0  0  0  0
 15  8  2  0  0  0  0
 16 24  1  6  0  0  0
 16 18  1  0  0  0  0
 18 17  1  6  0  0  0
 18 21  1  0  0  0  0
 19 21  2  0  0  0  0
 19 22  1  0  0  0  0
 20 23  1  0  0  0  0
 21 20  1  0  0  0  0
 22 23  2  0  0  0  0
 25 26  1  0  0  0  0
 25 24  1  0  0  0  0
 27 26  1  0  0  0  0
 29 27  1  0  0  0  0
 29 28  1  0  0  0  0
 30 29  2  0  0  0  0
M  END
>  <MODEL>
1

>  <REMARK>
 VINA RESULT:      -8.9      0.000      0.000
  Name = 
  8 active torsions:
  status: ('A' for Active; 'I' for Inactive)
    1  A    between atoms: C_4  and  C_13
    2  A    between atoms: C_7  and  C_15
    3  A    between atoms: C_7  and  C_16
    4  A    between atoms: C_8  and  C_12
    5  A    between atoms: C_8  and  C_13
    6  A    between atoms: C_13  and  O_27
    7  A    between atoms: C_16  and  C_30
    8  A    between atoms: O_27  and  C_30
                            x       y       z     vdW  Elec       q    Type
                         _______ _______ _______ _____ _____    ______ ____

>  <TORSDO>
F 8

$$$$
=
 OpenBabel11052421533D

 30 33  0  0  1  0  0  0  0  0999 V2000
  161.4330  207.1940  148.9520 C   0  0  0  0  0  3  0  0  0  0  0  0
  161.4030  205.3210  147.3970 C   0  0  0  0  0  0  0  0  0  0  0  0
  161.0610  204.5650  152.2240 C   0  0  0  0  0  3  0  0  0  0  0  0
  161.3910  207.7100  150.2470 C   0  0  0  0  0  0  0  0  0  0  0  0
  161.0170  205.0700  153.5240 C   0  0  0  0  0  3  0  0  0  0  0  0
  161.3290  203.9440  147.1710 C   0  0  0  0  0  3  0  0  0  0  0  0
  161.5280  206.2000  146.2830 N   0  0  0  0  0  1  0  0  0  0  0  0
  161.1840  205.4290  151.1210 C   0  0  0  0  0  0  0  0  0  0  0  0
  161.2060  203.0590  148.2410 C   0  0  0  0  0  3  0  0  0  0  0  0
  161.3560  205.8200  148.7130 C   0  0  0  0  0  0  0  0  0  0  0  0
  161.2640  206.8300  151.3450 C   0  0  0  0  0  0  0  0  0  0  0  0
  161.0950  206.4440  153.7430 C   0  0  0  0  0  3  0  0  0  0  0  0
  161.2180  207.3170  152.6610 C   0  0  0  0  0  3  0  0  0  0  0  0
  161.1560  203.5440  149.5500 C   0  0  0  0  0  3  0  0  0  0  0  0
  161.2310  204.9250  149.8040 C   0  0  0  0  0  0  0  0  0  0  0  0
  161.4770  209.2080  150.3950 C   0  0  1  0  0  3  0  0  0  0  0  0
  163.0790  210.1630  151.9060 O   0  0  0  0  0  1  0  0  0  0  0  0
  161.7920  209.6270  151.8330 C   0  0  1  0  0  3  0  0  0  0  0  0
  160.4720  211.7450  151.6500 N   0  0  0  0  0  0  0  0  0  0  0  0
  160.0380  210.5900  153.8250 S   0  0  0  0  0  0  0  0  0  0  0  0
  160.8030  210.6310  152.3320 C   0  0  0  0  0  0  0  0  0  0  0  0
  159.6000  212.5290  152.3410 C   0  0  0  0  0  3  0  0  0  0  0  0
  159.2300  212.0510  153.5980 C   0  0  0  0  0  3  0  0  0  0  0  0
  162.4220  209.7350  149.5080 O   0  0  0  0  0  0  0  0  0  0  0  0
  161.6980  210.5860  148.6680 C   0  0  0  0  0  2  0  0  0  0  0  0
  162.3950  211.9310  148.5650 C   0  0  0  0  0  2  0  0  0  0  0  0
  161.3970  213.0100  148.1830 C   0  0  0  0  0  2  0  0  0  0  0  0
  159.5770  212.4480  146.5790 O   0  0  0  0  0  1  0  0  0  0  0  0
  160.9060  212.7810  146.7990 C   0  0  0  0  0  0  0  0  0  0  0  0
  161.6870  212.9240  145.8230 O   0  0  0  0  0  0  0  0  0  0  0  0
  1  4  1  0  0  0  0
  2 10  1  0  0  0  0
  3  5  2  0  0  0  0
  4 16  1  0  0  0  0
  4 11  2  0  0  0  0
  5 12  1  0  0  0  0
  6  2  2  0  0  0  0
  6  9  1  0  0  0  0
  7  2  1  0  0  0  0
  8 11  1  0  0  0  0
  8  3  1  0  0  0  0
  9 14  2  0  0  0  0
 10  1  2  0  0  0  0
 10 15  1  0  0  0  0
 11 13  1  0  0  0  0
 13 12  2  0  0  0  0
 14 15  1  0  0  0  0
 15  8  2  0  0  0  0
 16 24  1  6  0  0  0
 16 18  1  0  0  0  0
 18 17  1  6  0  0  0
 18 21  1  0  0  0  0
 19 21  2  0  0  0  0
 19 22  1  0  0  0  0
 21 20  1  0  0  0  0
 22 23  2  0  0  0  0
 23 20  1  0  0  0  0
 25 24  1  0  0  0  0
 26 25  1  0  0  0  0
 27 26  1  0  0  0  0
 28 29  1  0  0  0  0
 29 27  1  0  0  0  0
 30 29  2  0  0  0  0
M  END
>  <MODEL>
2

>  <REMARK>
 VINA RESULT:      -8.7      1.742      2.598
  Name = 
  8 active torsions:
  status: ('A' for Active; 'I' for Inactive)
    1  A    between atoms: C_4  and  C_13
    2  A    between atoms: C_7  and  C_15
    3  A    between atoms: C_7  and  C_16
    4  A    between atoms: C_8  and  C_12
    5  A    between atoms: C_8  and  C_13
    6  A    between atoms: C_13  and  O_27
    7  A    between atoms: C_16  and  C_30
    8  A    between atoms: O_27  and  C_30
                            x       y       z     vdW  Elec       q    Type
                         _______ _______ _______ _____ _____    ______ ____

>  <TORSDO>
F 8

$$$$
=
 OpenBabel11052421533D

 30 33  0  0  1  0  0  0  0  0999 V2000
  161.1320  204.8030  150.2180 C   0  0  0  0  0  3  0  0  0  0  0  0
  160.8930  202.4460  150.7780 C   0  0  0  0  0  0  0  0  0  0  0  0
  161.4950  203.8570  146.1270 C   0  0  0  0  0  3  0  0  0  0  0  0
  161.3070  205.8280  149.2880 C   0  0  0  0  0  0  0  0  0  0  0  0
  161.6710  204.8750  145.1880 C   0  0  0  0  0  3  0  0  0  0  0  0
  160.8310  201.1110  150.3700 C   0  0  0  0  0  3  0  0  0  0  0  0
  160.7690  202.7530  152.1640 N   0  0  0  0  0  1  0  0  0  0  0  0
  161.3730  204.1560  147.4960 C   0  0  0  0  0  0  0  0  0  0  0  0
  160.9500  200.7790  149.0210 C   0  0  0  0  0  3  0  0  0  0  0  0
  161.0730  203.4640  149.8220 C   0  0  0  0  0  0  0  0  0  0  0  0
  161.4300  205.5120  147.9160 C   0  0  0  0  0  0  0  0  0  0  0  0
  161.7280  206.2050  145.6010 C   0  0  0  0  0  3  0  0  0  0  0  0
  161.6090  206.5200  146.9550 C   0  0  0  0  0  3  0  0  0  0  0  0
  161.1300  201.7820  148.0660 C   0  0  0  0  0  3  0  0  0  0  0  0
  161.1930  203.1320  148.4510 C   0  0  0  0  0  0  0  0  0  0  0  0
  161.3620  207.2380  149.8200 C   0  0  1  0  0  3  0  0  0  0  0  0
  163.0070  206.9990  151.5520 O   0  0  0  0  0  1  0  0  0  0  0  0
  161.6570  207.2740  151.3220 C   0  0  1  0  0  3  0  0  0  0  0  0
  160.0600  208.9510  152.2690 N   0  0  0  0  0  0  0  0  0  0  0  0
  162.3730  209.8860  152.1170 S   0  0  0  0  0  0  0  0  0  0  0  0
  161.3110  208.6050  151.9080 C   0  0  0  0  0  0  0  0  0  0  0  0
  159.9910  210.2340  152.7170 C   0  0  0  0  0  3  0  0  0  0  0  0
  161.1960  210.9360  152.7100 C   0  0  0  0  0  3  0  0  0  0  0  0
  162.3040  207.9920  149.1130 O   0  0  0  0  0  0  0  0  0  0  0  0
  161.5870  209.0730  148.5900 C   0  0  0  0  0  2  0  0  0  0  0  0
  162.4370  210.3300  148.6300 C   0  0  0  0  0  2  0  0  0  0  0  0
  161.6160  211.5330  148.2010 C   0  0  0  0  0  2  0  0  0  0  0  0
  161.9800  213.8300  147.3110 O   0  0  0  0  0  0  0  0  0  0  0  0
  162.5150  212.6470  147.8030 C   0  0  0  0  0  0  0  0  0  0  0  0
  163.7590  212.5310  147.9430 O   0  0  0  0  0  1  0  0  0  0  0  0
  2  7  1  0  0  0  0
  3  8  1  0  0  0  0
  4 16  1  0  0  0  0
  4  1  2  0  0  0  0
  5 12  1  0  0  0  0
  5  3  2  0  0  0  0
  6  2  1  0  0  0  0
  8 11  2  0  0  0  0
  8 15  1  0  0  0  0
  9  6  2  0  0  0  0
 10  1  1  0  0  0  0
 10  2  2  0  0  0  0
 11  4  1  0  0  0  0
 12 13  2  0  0  0  0
 13 11  1  0  0  0  0
 14 15  2  0  0  0  0
 14  9  1  0  0  0  0
 15 10  1  0  0  0  0
 16 24  1  6  0  0  0
 16 18  1  0  0  0  0
 18 17  1  6  0  0  0
 18 21  1  0  0  0  0
 19 22  1  0  0  0  0
 20 23  1  0  0  0  0
 21 20  1  0  0  0  0
 21 19  2  0  0  0  0
 23 22  2  0  0  0  0
 25 26  1  0  0  0  0
 25 24  1  0  0  0  0
 27 26  1  0  0  0  0
 28 29  2  0  0  0  0
 29 30  1  0  0  0  0
 29 27  1  0  0  0  0
M  END
>  <MODEL>
3

>  <REMARK>
 VINA RESULT:      -8.6      1.713      3.270
  Name = 
  8 active torsions:
  status: ('A' for Active; 'I' for Inactive)
    1  A    between atoms: C_4  and  C_13
    2  A    between atoms: C_7  and  C_15
    3  A    between atoms: C_7  and  C_16
    4  A    between atoms: C_8  and  C_12
    5  A    between atoms: C_8  and  C_13
    6  A    between atoms: C_13  and  O_27
    7  A    between atoms: C_16  and  C_30
    8  A    between atoms: O_27  and  C_30
                            x       y       z     vdW  Elec       q    Type
                         _______ _______ _______ _____ _____    ______ ____

>  <TORSDO>
F 8

$$$$
=
 OpenBabel11052421533D

 30 33  0  0  1  0  0  0  0  0999 V2000
  161.2870  206.6940  151.3320 C   0  0  0  0  0  3  0  0  0  0  0  0
  161.0880  204.5960  152.5510 C   0  0  0  0  0  0  0  0  0  0  0  0
  161.2110  204.6360  147.6560 C   0  0  0  0  0  3  0  0  0  0  0  0
  161.3730  207.4140  150.1390 C   0  0  0  0  0  0  0  0  0  0  0  0
  161.2970  205.3450  146.4560 C   0  0  0  0  0  3  0  0  0  0  0  0
  160.9720  203.2040  152.5420 C   0  0  0  0  0  3  0  0  0  0  0  0
  161.1130  205.2810  153.8000 N   0  0  0  0  0  1  0  0  0  0  0  0
  161.2360  205.3080  148.8910 C   0  0  0  0  0  0  0  0  0  0  0  0
  160.9460  202.5060  151.3350 C   0  0  0  0  0  3  0  0  0  0  0  0
  161.1760  205.3020  151.3350 C   0  0  0  0  0  0  0  0  0  0  0  0
  161.3490  206.7240  148.9060 C   0  0  0  0  0  0  0  0  0  0  0  0
  161.4080  206.7350  146.4720 C   0  0  0  0  0  3  0  0  0  0  0  0
  161.4340  207.4180  147.6880 C   0  0  0  0  0  3  0  0  0  0  0  0
  161.0330  203.1970  150.1250 C   0  0  0  0  0  3  0  0  0  0  0  0
  161.1480  204.5970  150.1070 C   0  0  0  0  0  0  0  0  0  0  0  0
  161.4960  208.9120  150.2470 C   0  0  1  0  0  3  0  0  0  0  0  0
  163.1350  210.0570  151.5770 O   0  0  0  0  0  1  0  0  0  0  0  0
  161.9300  209.3540  151.6470 C   0  0  1  0  0  3  0  0  0  0  0  0
  160.4490  211.3680  151.7550 N   0  0  0  0  0  0  0  0  0  0  0  0
  160.1830  209.9360  153.7870 S   0  0  0  0  0  0  0  0  0  0  0  0
  160.8880  210.2120  152.2900 C   0  0  0  0  0  0  0  0  0  0  0  0
  159.5470  211.9950  152.5590 C   0  0  0  0  0  3  0  0  0  0  0  0
  159.2600  211.3450  153.7590 C   0  0  0  0  0  3  0  0  0  0  0  0
  162.3780  209.4020  149.2780 O   0  0  0  0  0  0  0  0  0  0  0  0
  161.6930  210.4530  148.6610 C   0  0  0  0  0  2  0  0  0  0  0  0
  162.6360  211.6190  148.4200 C   0  0  0  0  0  2  0  0  0  0  0  0
  161.8480  212.8620  148.0480 C   0  0  0  0  0  2  0  0  0  0  0  0
  162.6530  213.3280  145.7370 O   0  0  0  0  0  0  0  0  0  0  0  0
  161.6320  212.9050  146.5780 C   0  0  0  0  0  0  0  0  0  0  0  0
  160.5360  212.5250  146.0930 O   0  0  0  0  0  1  0  0  0  0  0  0
  1 10  1  0  0  0  0
  2  7  1  0  0  0  0
  3  8  1  0  0  0  0
  4 16  1  0  0  0  0
  4  1  2  0  0  0  0
  5 12  1  0  0  0  0
  5  3  2  0  0  0  0
  6  2  1  0  0  0  0
  8 11  2  0  0  0  0
  8 15  1  0  0  0  0
  9  6  2  0  0  0  0
 10  2  2  0  0  0  0
 11  4  1  0  0  0  0
 12 13  2  0  0  0  0
 13 11  1  0  0  0  0
 14  9  1  0  0  0  0
 15 14  2  0  0  0  0
 15 10  1  0  0  0  0
 16 24  1  6  0  0  0
 16 18  1  0  0  0  0
 18 17  1  6  0  0  0
 18 21  1  0  0  0  0
 19 21  2  0  0  0  0
 19 22  1  0  0  0  0
 21 20  1  0  0  0  0
 22 23  2  0  0  0  0
 23 20  1  0  0  0  0
 25 24  1  0  0  0  0
 26 25  1  0  0  0  0
 27 26  1  0  0  0  0
 28 29  2  0  0  0  0
 29 27  1  0  0  0  0
 30 29  1  0  0  0  0
M  END
>  <MODEL>
4

>  <REMARK>
 VINA RESULT:      -8.2      2.271      3.934
  Name = 
  8 active torsions:
  status: ('A' for Active; 'I' for Inactive)
    1  A    between atoms: C_4  and  C_13
    2  A    between atoms: C_7  and  C_15
    3  A    between atoms: C_7  and  C_16
    4  A    between atoms: C_8  and  C_12
    5  A    between atoms: C_8  and  C_13
    6  A    between atoms: C_13  and  O_27
    7  A    between atoms: C_16  and  C_30
    8  A    between atoms: O_27  and  C_30
                            x       y       z     vdW  Elec       q    Type
                         _______ _______ _______ _____ _____    ______ ____

>  <TORSDO>
F 8

$$$$
=
 OpenBabel11052421533D

 30 33  0  0  1  0  0  0  0  0999 V2000
  161.3030  207.9540  151.1350 C   0  0  0  0  0  3  0  0  0  0  0  0
  161.1230  209.0610  153.2960 C   0  0  0  0  0  0  0  0  0  0  0  0
  160.8710  204.1820  152.9630 C   0  0  0  0  0  3  0  0  0  0  0  0
  161.3210  206.8020  150.3470 C   0  0  0  0  0  0  0  0  0  0  0  0
  160.8890  203.0230  152.1850 C   0  0  0  0  0  3  0  0  0  0  0  0
  160.9580  208.9810  154.6800 C   0  0  0  0  0  3  0  0  0  0  0  0
  161.2690  210.3420  152.6880 N   0  0  0  0  0  1  0  0  0  0  0  0
  161.0140  205.4480  152.3680 C   0  0  0  0  0  0  0  0  0  0  0  0
  160.8140  207.7410  155.3030 C   0  0  0  0  0  3  0  0  0  0  0  0
  161.1420  207.8860  152.5210 C   0  0  0  0  0  0  0  0  0  0  0  0
  161.1790  205.5370  150.9590 C   0  0  0  0  0  0  0  0  0  0  0  0
  161.0510  203.1110  150.8030 C   0  0  0  0  0  3  0  0  0  0  0  0
  161.1950  204.3590  150.1960 C   0  0  0  0  0  3  0  0  0  0  0  0
  160.8330  206.5700  154.5430 C   0  0  0  0  0  3  0  0  0  0  0  0
  160.9960  206.6240  153.1480 C   0  0  0  0  0  0  0  0  0  0  0  0
  161.5050  206.9870  148.8620 C   0  0  1  0  0  3  0  0  0  0  0  0
  159.4500  206.5780  147.6900 O   0  0  0  0  0  1  0  0  0  0  0  0
  160.6660  205.9950  148.0520 C   0  0  1  0  0  3  0  0  0  0  0  0
  162.6010  204.9540  146.8540 N   0  0  0  0  0  0  0  0  0  0  0  0
  160.8860  205.8010  145.2450 S   0  0  0  0  0  0  0  0  0  0  0  0
  161.3930  205.5500  146.8240 C   0  0  0  0  0  0  0  0  0  0  0  0
  163.0800  204.7030  145.6050 C   0  0  0  0  0  3  0  0  0  0  0  0
  162.2570  205.1080  144.5540 C   0  0  0  0  0  3  0  0  0  0  0  0
  161.2100  208.3030  148.4910 O   0  0  0  0  0  0  0  0  0  0  0  0
  162.4470  208.9520  148.4360 C   0  0  0  0  0  2  0  0  0  0  0  0
  162.3310  210.3450  149.0290 C   0  0  0  0  0  2  0  0  0  0  0  0
  161.5810  211.2590  148.0770 C   0  0  0  0  0  2  0  0  0  0  0  0
  161.4710  213.7440  148.2030 O   0  0  0  0  0  1  0  0  0  0  0  0
  162.2310  212.5940  148.0360 C   0  0  0  0  0  0  0  0  0  0  0  0
  163.4770  212.6820  147.8860 O   0  0  0  0  0  0  0  0  0  0  0  0
  1 10  1  0  0  0  0
  2  6  1  0  0  0  0
  4 11  1  0  0  0  0
  4  1  2  0  0  0  0
  5  3  2  0  0  0  0
  6  9  2  0  0  0  0
  7  2  1  0  0  0  0
  8  3  1  0  0  0  0
  8 15  1  0  0  0  0
 10 15  1  0  0  0  0
 10  2  2  0  0  0  0
 11  8  2  0  0  0  0
 12  5  1  0  0  0  0
 13 12  2  0  0  0  0
 13 11  1  0  0  0  0
 14  9  1  0  0  0  0
 15 14  2  0  0  0  0
 16 24  1  6  0  0  0
 16  4  1  0  0  0  0
 18 17  1  6  0  0  0
 18 16  1  0  0  0  0
 20 21  1  0  0  0  0
 21 19  2  0  0  0  0
 21 18  1  0  0  0  0
 22 19  1  0  0  0  0
 23 20  1  0  0  0  0
 23 22  2  0  0  0  0
 25 24  1  0  0  0  0
 25 26  1  0  0  0  0
 27 26  1  0  0  0  0
 29 27  1  0  0  0  0
 29 28  1  0  0  0  0
 30 29  2  0  0  0  0
M  END
>  <MODEL>
5

>  <REMARK>
 VINA RESULT:      -8.0      2.319      5.830
  Name = 
  8 active torsions:
  status: ('A' for Active; 'I' for Inactive)
    1  A    between atoms: C_4  and  C_13
    2  A    between atoms: C_7  and  C_15
    3  A    between atoms: C_7  and  C_16
    4  A    between atoms: C_8  and  C_12
    5  A    between atoms: C_8  and  C_13
    6  A    between atoms: C_13  and  O_27
    7  A    between atoms: C_16  and  C_30
    8  A    between atoms: O_27  and  C_30
                            x       y       z     vdW  Elec       q    Type
                         _______ _______ _______ _____ _____    ______ ____

>  <TORSDO>
F 8

$$$$
=
 OpenBabel11052421533D

 30 33  0  0  1  0  0  0  0  0999 V2000
  161.1950  206.6460  151.4690 C   0  0  0  0  0  3  0  0  0  0  0  0
  161.0390  206.9410  153.8800 C   0  0  0  0  0  0  0  0  0  0  0  0
  161.8050  210.7810  150.9390 C   0  0  0  0  0  3  0  0  0  0  0  0
  161.3710  207.1550  150.1820 C   0  0  0  0  0  0  0  0  0  0  0  0
  161.9820  211.3030  149.6570 C   0  0  0  0  0  3  0  0  0  0  0  0
  161.0680  207.7820  154.9950 C   0  0  0  0  0  3  0  0  0  0  0  0
  160.8310  205.5440  154.0710 N   0  0  0  0  0  1  0  0  0  0  0  0
  161.6000  209.4030  151.1320 C   0  0  0  0  0  0  0  0  0  0  0  0
  161.2680  209.1540  154.8390 C   0  0  0  0  0  3  0  0  0  0  0  0
  161.2160  207.4780  152.5900 C   0  0  0  0  0  0  0  0  0  0  0  0
  161.5740  208.5420  150.0030 C   0  0  0  0  0  0  0  0  0  0  0  0
  161.9560  210.4570  148.5480 C   0  0  0  0  0  3  0  0  0  0  0  0
  161.7530  209.0870  148.7220 C   0  0  0  0  0  3  0  0  0  0  0  0
  161.4440  209.6950  153.5640 C   0  0  0  0  0  3  0  0  0  0  0  0
  161.4210  208.8700  152.4270 C   0  0  0  0  0  0  0  0  0  0  0  0
  161.3240  206.1730  149.0400 C   0  0  1  0  0  3  0  0  0  0  0  0
  163.5140  206.2180  148.0550 O   0  0  0  0  0  1  0  0  0  0  0  0
  162.1910  206.6210  147.8600 C   0  0  1  0  0  3  0  0  0  0  0  0
  160.4970  206.4040  146.0310 N   0  0  0  0  0  0  0  0  0  0  0  0
  162.4330  204.8670  145.6610 S   0  0  0  0  0  0  0  0  0  0  0  0
  161.6820  206.0590  146.5710 C   0  0  0  0  0  0  0  0  0  0  0  0
  160.2310  205.7100  144.8910 C   0  0  0  0  0  3  0  0  0  0  0  0
  161.2050  204.7870  144.5100 C   0  0  0  0  0  3  0  0  0  0  0  0
  161.7030  204.8980  149.4740 O   0  0  0  0  0  0  0  0  0  0  0  0
  160.5520  204.1130  149.3450 C   0  0  0  0  0  2  0  0  0  0  0  0
  160.8310  202.6990  149.8210 C   0  0  0  0  0  2  0  0  0  0  0  0
  160.0200  201.7030  149.0110 C   0  0  0  0  0  2  0  0  0  0  0  0
  160.7800  201.8270  146.6420 O   0  0  0  0  0  0  0  0  0  0  0  0
  160.8310  201.1910  147.8760 C   0  0  0  0  0  0  0  0  0  0  0  0
  161.5920  200.2030  148.0420 O   0  0  0  0  0  1  0  0  0  0  0  0
  1 10  1  0  0  0  0
  2  7  1  0  0  0  0
  2  6  1  0  0  0  0
  3  8  1  0  0  0  0
  4  1  2  0  0  0  0
  5  3  2  0  0  0  0
  8 15  1  0  0  0  0
  9  6  2  0  0  0  0
 10  2  2  0  0  0  0
 11  4  1  0  0  0  0
 11  8  2  0  0  0  0
 12 13  2  0  0  0  0
 12  5  1  0  0  0  0
 13 11  1  0  0  0  0
 14  9  1  0  0  0  0
 15 10  1  0  0  0  0
 15 14  2  0  0  0  0
 16 24  1  1  0  0  0
 16  4  1  0  0  0  0
 18 17  1  1  0  0  0
 18 16  1  0  0  0  0
 19 21  2  0  0  0  0
 20 21  1  0  0  0  0
 21 18  1  0  0  0  0
 22 19  1  0  0  0  0
 23 22  2  0  0  0  0
 23 20  1  0  0  0  0
 25 24  1  0  0  0  0
 25 26  1  0  0  0  0
 27 26  1  0  0  0  0
 28 29  2  0  0  0  0
 29 30  1  0  0  0  0
 29 27  1  0  0  0  0
M  END
>  <MODEL>
6

>  <REMARK>
 VINA RESULT:      -8.0      2.953      8.018
  Name = 
  8 active torsions:
  status: ('A' for Active; 'I' for Inactive)
    1  A    between atoms: C_4  and  C_13
    2  A    between atoms: C_7  and  C_15
    3  A    between atoms: C_7  and  C_16
    4  A    between atoms: C_8  and  C_12
    5  A    between atoms: C_8  and  C_13
    6  A    between atoms: C_13  and  O_27
    7  A    between atoms: C_16  and  C_30
    8  A    between atoms: O_27  and  C_30
                            x       y       z     vdW  Elec       q    Type
                         _______ _______ _______ _____ _____    ______ ____

>  <TORSDO>
F 8

$$$$
=
 OpenBabel11052421533D

 30 33  0  0  1  0  0  0  0  0999 V2000
  161.0630  208.4800  151.6880 C   0  0  0  0  0  3  0  0  0  0  0  0
  160.8790  209.3570  153.9510 C   0  0  0  0  0  0  0  0  0  0  0  0
  160.9390  204.5280  153.1440 C   0  0  0  0  0  3  0  0  0  0  0  0
  161.1340  207.4140  150.7900 C   0  0  0  0  0  0  0  0  0  0  0  0
  161.0110  203.4530  152.2550 C   0  0  0  0  0  3  0  0  0  0  0  0
  160.7620  209.1320  155.3250 C   0  0  0  0  0  3  0  0  0  0  0  0
  160.9200  210.6980  153.4710 N   0  0  0  0  0  1  0  0  0  0  0  0
  160.9800  205.8530  152.6740 C   0  0  0  0  0  0  0  0  0  0  0  0
  160.7200  207.8310  155.8250 C   0  0  0  0  0  3  0  0  0  0  0  0
  160.9510  208.2670  153.0640 C   0  0  0  0  0  0  0  0  0  0  0  0
  161.0940  206.0890  151.2770 C   0  0  0  0  0  0  0  0  0  0  0  0
  161.1230  203.6860  150.8850 C   0  0  0  0  0  3  0  0  0  0  0  0
  161.1640  204.9940  150.4010 C   0  0  0  0  0  3  0  0  0  0  0  0
  160.7930  206.7420  154.9530 C   0  0  0  0  0  3  0  0  0  0  0  0
  160.9080  206.9430  153.5670 C   0  0  0  0  0  0  0  0  0  0  0  0
  161.2580  207.7540  149.3270 C   0  0  1  0  0  3  0  0  0  0  0  0
  163.1530  208.2940  147.9550 O   0  0  0  0  0  1  0  0  0  0  0  0
  162.4130  208.7230  149.0590 C   0  0  1  0  0  3  0  0  0  0  0  0
  161.3900  210.5100  147.6380 N   0  0  0  0  0  0  0  0  0  0  0  0
  161.9950  211.3850  149.9000 S   0  0  0  0  0  0  0  0  0  0  0  0
  161.9090  210.1090  148.8140 C   0  0  0  0  0  0  0  0  0  0  0  0
  161.0610  211.8310  147.6460 C   0  0  0  0  0  3  0  0  0  0  0  0
  161.3260  212.5070  148.8360 C   0  0  0  0  0  3  0  0  0  0  0  0
  161.4020  206.5900  148.5640 O   0  0  0  0  0  0  0  0  0  0  0  0
  160.4490  206.7020  147.5470 C   0  0  0  0  0  2  0  0  0  0  0  0
  160.9660  206.0520  146.2760 C   0  0  0  0  0  2  0  0  0  0  0  0
  162.0330  205.0250  146.6080 C   0  0  0  0  0  2  0  0  0  0  0  0
  161.0800  203.1630  145.2570 O   0  0  0  0  0  0  0  0  0  0  0  0
  161.4720  203.6540  146.4950 C   0  0  0  0  0  0  0  0  0  0  0  0
  161.3840  202.9250  147.5160 O   0  0  0  0  0  1  0  0  0  0  0  0
  1 10  1  0  0  0  0
  2  6  1  0  0  0  0
  4 11  1  0  0  0  0
  4  1  2  0  0  0  0
  5  3  2  0  0  0  0
  6  9  2  0  0  0  0
  7  2  1  0  0  0  0
  8  3  1  0  0  0  0
  8 15  1  0  0  0  0
 10 15  1  0  0  0  0
 10  2  2  0  0  0  0
 11  8  2  0  0  0  0
 12  5  1  0  0  0  0
 13 12  2  0  0  0  0
 13 11  1  0  0  0  0
 14  9  1  0  0  0  0
 15 14  2  0  0  0  0
 16 24  1  6  0  0  0
 16  4  1  0  0  0  0
 18 17  1  6  0  0  0
 18 16  1  0  0  0  0
 19 22  1  0  0  0  0
 19 21  2  0  0  0  0
 21 18  1  0  0  0  0
 21 20  1  0  0  0  0
 22 23  2  0  0  0  0
 23 20  1  0  0  0  0
 25 24  1  0  0  0  0
 26 27  1  0  0  0  0
 26 25  1  0  0  0  0
 28 29  2  0  0  0  0
 29 27  1  0  0  0  0
 29 30  1  0  0  0  0
M  END
>  <MODEL>
7

>  <REMARK>
 VINA RESULT:      -8.0      2.394      6.432
  Name = 
  8 active torsions:
  status: ('A' for Active; 'I' for Inactive)
    1  A    between atoms: C_4  and  C_13
    2  A    between atoms: C_7  and  C_15
    3  A    between atoms: C_7  and  C_16
    4  A    between atoms: C_8  and  C_12
    5  A    between atoms: C_8  and  C_13
    6  A    between atoms: C_13  and  O_27
    7  A    between atoms: C_16  and  C_30
    8  A    between atoms: O_27  and  C_30
                            x       y       z     vdW  Elec       q    Type
                         _______ _______ _______ _____ _____    ______ ____

>  <TORSDO>
F 8

$$$$
=
 OpenBabel11052421533D

 30 33  0  0  1  0  0  0  0  0999 V2000
  160.8240  204.5750  151.3660 C   0  0  0  0  0  3  0  0  0  0  0  0
  160.7850  202.2660  150.5940 C   0  0  0  0  0  0  0  0  0  0  0  0
  161.5510  205.9380  147.4460 C   0  0  0  0  0  3  0  0  0  0  0  0
  160.9570  205.9430  151.1280 C   0  0  0  0  0  0  0  0  0  0  0  0
  161.6880  207.3040  147.1950 C   0  0  0  0  0  3  0  0  0  0  0  0
  160.8840  201.3430  149.5510 C   0  0  0  0  0  3  0  0  0  0  0  0
  160.5400  201.7930  151.9160 N   0  0  0  0  0  1  0  0  0  0  0  0
  161.3090  205.4670  148.7490 C   0  0  0  0  0  0  0  0  0  0  0  0
  161.1250  201.7760  148.2470 C   0  0  0  0  0  3  0  0  0  0  0  0
  160.9260  203.6420  150.3310 C   0  0  0  0  0  0  0  0  0  0  0  0
  161.2030  206.4010  149.8140 C   0  0  0  0  0  0  0  0  0  0  0  0
  161.5840  208.2200  148.2410 C   0  0  0  0  0  3  0  0  0  0  0  0
  161.3430  207.7710  149.5400 C   0  0  0  0  0  3  0  0  0  0  0  0
  161.2670  203.1380  147.9760 C   0  0  0  0  0  3  0  0  0  0  0  0
  161.1700  204.0870  149.0090 C   0  0  0  0  0  0  0  0  0  0  0  0
  160.8360  206.8640  152.3150 C   0  0  1  0  0  3  0  0  0  0  0  0
  162.7030  205.9750  153.5350 O   0  0  0  0  0  1  0  0  0  0  0  0
  161.3270  206.2040  153.6060 C   0  0  1  0  0  3  0  0  0  0  0  0
  161.9450  207.8170  155.4160 N   0  0  0  0  0  0  0  0  0  0  0  0
  159.5500  207.1230  155.5970 S   0  0  0  0  0  0  0  0  0  0  0  0
  161.0220  207.0550  154.7970 C   0  0  0  0  0  0  0  0  0  0  0  0
  161.4380  208.4480  156.5110 C   0  0  0  0  0  3  0  0  0  0  0  0
  160.0960  208.1860  156.7860 C   0  0  0  0  0  3  0  0  0  0  0  0
  161.5220  208.0600  152.0800 O   0  0  0  0  0  0  0  0  0  0  0  0
  160.6040  209.0710  152.3810 C   0  0  0  0  0  2  0  0  0  0  0  0
  161.1810  210.4260  152.0100 C   0  0  0  0  0  2  0  0  0  0  0  0
  160.3170  211.5370  152.5770 C   0  0  0  0  0  2  0  0  0  0  0  0
  158.9330  211.1540  154.6120 O   0  0  0  0  0  0  0  0  0  0  0  0
  160.1820  211.3750  154.0490 C   0  0  0  0  0  0  0  0  0  0  0  0
  161.2050  211.4040  154.7800 O   0  0  0  0  0  1  0  0  0  0  0  0
  2  7  1  0  0  0  0
  3  8  1  0  0  0  0
  4  1  1  0  0  0  0
  4 16  1  0  0  0  0
  5  3  2  0  0  0  0
  5 12  1  0  0  0  0
  6  2  2  0  0  0  0
  8 15  2  0  0  0  0
  8 11  1  0  0  0  0
  9  6  1  0  0  0  0
 10  2  1  0  0  0  0
 10  1  2  0  0  0  0
 11  4  2  0  0  0  0
 12 13  2  0  0  0  0
 13 11  1  0  0  0  0
 14  9  2  0  0  0  0
 14 15  1  0  0  0  0
 15 10  1  0  0  0  0
 16 24  1  6  0  0  0
 16 18  1  0  0  0  0
 18 17  1  6  0  0  0
 18 21  1  0  0  0  0
 19 22  1  0  0  0  0
 20 23  1  0  0  0  0
 21 19  2  0  0  0  0
 21 20  1  0  0  0  0
 22 23  2  0  0  0  0
 24 25  1  0  0  0  0
 26 25  1  0  0  0  0
 26 27  1  0  0  0  0
 27 29  1  0  0  0  0
 29 28  2  0  0  0  0
 29 30  1  0  0  0  0
M  END
>  <MODEL>
8

>  <REMARK>
 VINA RESULT:      -7.7      2.886      4.289
  Name = 
  8 active torsions:
  status: ('A' for Active; 'I' for Inactive)
    1  A    between atoms: C_4  and  C_13
    2  A    between atoms: C_7  and  C_15
    3  A    between atoms: C_7  and  C_16
    4  A    between atoms: C_8  and  C_12
    5  A    between atoms: C_8  and  C_13
    6  A    between atoms: C_13  and  O_27
    7  A    between atoms: C_16  and  C_30
    8  A    between atoms: O_27  and  C_30
                            x       y       z     vdW  Elec       q    Type
                         _______ _______ _______ _____ _____    ______ ____

>  <TORSDO>
F 8

$$$$
=
 OpenBabel11052421533D

 30 33  0  0  1  0  0  0  0  0999 V2000
  161.2750  205.5900  148.2350 C   0  0  0  0  0  3  0  0  0  0  0  0
  161.2020  204.8800  145.9070 C   0  0  0  0  0  0  0  0  0  0  0  0
  160.8260  201.6060  149.5300 C   0  0  0  0  0  3  0  0  0  0  0  0
  161.2420  205.3110  149.6010 C   0  0  0  0  0  0  0  0  0  0  0  0
  160.7900  201.3140  150.8940 C   0  0  0  0  0  3  0  0  0  0  0  0
  161.0950  203.8560  144.9630 C   0  0  0  0  0  3  0  0  0  0  0  0
  161.3530  206.2230  145.4570 N   0  0  0  0  0  1  0  0  0  0  0  0
  160.9750  202.9300  149.0810 C   0  0  0  0  0  0  0  0  0  0  0  0
  160.9450  202.5310  145.3730 C   0  0  0  0  0  3  0  0  0  0  0  0
  161.1630  204.5750  147.2810 C   0  0  0  0  0  0  0  0  0  0  0  0
  161.0890  203.9760  150.0370 C   0  0  0  0  0  0  0  0  0  0  0  0
  160.9030  202.3410  151.8310 C   0  0  0  0  0  3  0  0  0  0  0  0
  161.0510  203.6610  151.4040 C   0  0  0  0  0  3  0  0  0  0  0  0
  160.9040  202.2190  146.7340 C   0  0  0  0  0  3  0  0  0  0  0  0
  161.0120  203.2310  147.7030 C   0  0  0  0  0  0  0  0  0  0  0  0
  161.3650  206.4800  150.5460 C   0  0  1  0  0  3  0  0  0  0  0  0
  163.2280  206.0940  152.0100 O   0  0  0  0  0  1  0  0  0  0  0  0
  161.8340  206.0470  151.9370 C   0  0  1  0  0  3  0  0  0  0  0  0
  160.9920  208.2300  152.8240 N   0  0  0  0  0  0  0  0  0  0  0  0
  160.9120  206.4480  154.5750 S   0  0  0  0  0  0  0  0  0  0  0  0
  161.2480  206.9190  153.0010 C   0  0  0  0  0  0  0  0  0  0  0  0
  160.5200  208.8180  153.9570 C   0  0  0  0  0  3  0  0  0  0  0  0
  160.4010  207.9770  155.0630 C   0  0  0  0  0  3  0  0  0  0  0  0
  162.2210  207.4510  150.0150 O   0  0  0  0  0  0  0  0  0  0  0  0
  161.3760  208.4450  149.5120 C   0  0  0  0  0  2  0  0  0  0  0  0
  162.1640  209.4000  148.6320 C   0  0  0  0  0  2  0  0  0  0  0  0
  162.0990  210.8080  149.1980 C   0  0  0  0  0  2  0  0  0  0  0  0
  163.0070  210.3270  151.4660 O   0  0  0  0  0  1  0  0  0  0  0  0
  161.9500  210.7550  150.6760 C   0  0  0  0  0  0  0  0  0  0  0  0
  160.8760  211.1320  151.2130 O   0  0  0  0  0  0  0  0  0  0  0  0
  1  4  1  0  0  0  0
  2 10  1  0  0  0  0
  3  5  2  0  0  0  0
  4 11  2  0  0  0  0
  4 16  1  0  0  0  0
  5 12  1  0  0  0  0
  6  9  1  0  0  0  0
  6  2  2  0  0  0  0
  7  2  1  0  0  0  0
  8  3  1  0  0  0  0
  8 11  1  0  0  0  0
  9 14  2  0  0  0  0
 10 15  1  0  0  0  0
 10  1  2  0  0  0  0
 11 13  1  0  0  0  0
 13 12  2  0  0  0  0
 14 15  1  0  0  0  0
 15  8  2  0  0  0  0
 16 24  1  6  0  0  0
 16 18  1  0  0  0  0
 18 17  1  6  0  0  0
 18 21  1  0  0  0  0
 19 21  2  0  0  0  0
 19 22  1  0  0  0  0
 20 23  1  0  0  0  0
 21 20  1  0  0  0  0
 22 23  2  0  0  0  0
 25 24  1  0  0  0  0
 26 27  1  0  0  0  0
 26 25  1  0  0  0  0
 27 29  1  0  0  0  0
 29 30  2  0  0  0  0
 29 28  1  0  0  0  0
M  END
>  <MODEL>
9

>  <REMARK>
 VINA RESULT:      -7.6      1.337      1.551
  Name = 
  8 active torsions:
  status: ('A' for Active; 'I' for Inactive)
    1  A    between atoms: C_4  and  C_13
    2  A    between atoms: C_7  and  C_15
    3  A    between atoms: C_7  and  C_16
    4  A    between atoms: C_8  and  C_12
    5  A    between atoms: C_8  and  C_13
    6  A    between atoms: C_13  and  O_27
    7  A    between atoms: C_16  and  C_30
    8  A    between atoms: O_27  and  C_30
                            x       y       z     vdW  Elec       q    Type
                         _______ _______ _______ _____ _____    ______ ____

>  <TORSDO>
F 8

$$$$
