=
 OpenBabel11062410533D

 32 36  0  0  1  0  0  0  0  0999 V2000
  161.2030  204.9350  152.8220 C   0  0  0  0  0  2  0  0  0  0  0  0
  161.2040  205.8500  154.0150 C   0  0  0  0  0  3  0  0  0  0  0  0
  161.9950  205.5320  151.6650 C   0  0  0  0  0  2  0  0  0  0  0  0
  161.4660  206.9280  151.3590 C   0  0  1  0  0  3  0  0  0  0  0  0
  161.3730  207.1750  153.8990 C   0  0  0  0  0  3  0  0  0  0  0  0
  161.6690  207.8490  152.5780 C   0  0  2  0  0  3  0  0  0  0  0  0
  160.2550  211.1320  151.8770 N   0  0  0  0  0  0  0  0  0  0  0  0
  158.6990  211.6570  153.4410 C   0  0  0  0  0  0  0  0  0  0  0  0
  160.8650  209.1050  152.4580 C   0  0  0  0  0  0  0  0  0  0  0  0
  159.1140  212.9730  152.8500 C   0  0  0  0  0  3  0  0  0  0  0  0
  160.2310  212.5860  151.8370 C   0  0  0  0  0  3  0  0  0  0  0  0
  159.7660  209.3860  153.2070 N   0  0  0  0  0  0  0  0  0  0  0  0
  157.8910  211.4950  154.3930 O   0  0  0  0  0  0  0  0  0  0  0  0
  161.1930  210.1990  151.6760 C   0  0  0  0  0  0  0  0  0  0  0  0
  159.4370  210.6240  152.7790 C   0  0  0  0  0  0  0  0  0  0  0  0
  162.3990  210.3800  150.9320 N   0  0  0  0  0  2  0  0  0  0  0  0
  162.3780  210.8670  149.7830 O   0  0  0  0  0  1  0  0  0  0  0  0
  162.2030  207.4710  150.1440 C   0  0  0  0  0  2  0  0  0  0  0  0
  163.0190  204.9650  146.5750 O   0  0  0  0  0  0  0  0  0  0  0  0
  160.5380  205.7130  147.8670 C   0  0  1  0  0  3  0  0  0  0  0  0
  162.0370  207.5710  147.8090 C   0  0  0  0  0  2  0  0  0  0  0  0
  162.1620  205.8770  145.9230 C   0  0  0  0  0  2  0  0  0  0  0  0
  161.2750  207.6990  149.0470 N   0  0  0  0  0  0  0  0  0  0  0  0
  162.2380  203.9590  147.1870 C   0  0  1  0  0  3  0  0  0  0  0  0
  161.2710  206.6310  146.9130 C   0  0  1  0  0  3  0  0  0  0  0  0
  161.4000  204.5330  148.3280 C   0  0  0  0  0  2  0  0  0  0  0  0
  160.2950  206.6080  149.0660 C   0  0  0  0  0  2  0  0  0  0  0  0
  161.4390  203.2800  146.2560 O   0  0  0  0  0  0  0  0  0  0  0  0
  160.6980  202.4260  147.0000 N   0  0  0  0  0  2  0  0  0  0  0  0
  161.0570  201.0830  146.5750 C   0  0  0  0  0  2  0  0  0  0  0  0
  161.4710  200.2510  147.7740 C   0  0  0  0  0  2  0  0  0  0  0  0
  161.1000  200.9610  149.0620 C   0  0  0  0  0  1  0  0  0  0  0  0
  1  2  1  0  0  0  0
  3  1  1  0  0  0  0
  4 18  1  6  0  0  0
  4  3  1  0  0  0  0
  4  6  1  0  0  0  0
  5  2  2  0  0  0  0
  6  9  1  6  0  0  0
  6  5  1  0  0  0  0
  7 15  1  0  0  0  0
  8 13  2  0  0  0  0
  9 12  1  0  0  0  0
 10  8  1  0  0  0  0
 11  7  1  0  0  0  0
 11 10  2  0  0  0  0
 14  7  1  0  0  0  0
 14  9  2  0  0  0  0
 15 12  2  0  0  0  0
 15  8  1  0  0  0  0
 16 14  1  0  0  0  0
 17 16  1  0  0  0  0
 19 24  1  0  0  0  0
 20 26  1  1  0  0  0
 20 27  1  0  0  0  0
 21 23  1  0  0  0  0
 22 19  1  0  0  0  0
 23 27  1  0  0  0  0
 23 18  1  0  0  0  0
 24 28  1  6  0  0  0
 24 26  1  0  0  0  0
 25 22  1  6  0  0  0
 25 21  1  0  0  0  0
 25 20  1  0  0  0  0
 28 29  1  0  0  0  0
 30 29  1  0  0  0  0
 30 31  1  0  0  0  0
 31 32  1  0  0  0  0
M  END
>  <MODEL>
1

>  <REMARK>
 VINA RESULT:      -7.8      0.000      0.000
  Name = 
  8 active torsions:
  status: ('A' for Active; 'I' for Inactive)
    1  A    between atoms: C_1  and  C_20
    2  A    between atoms: C_3  and  N_14
    3  A    between atoms: C_3  and  C_15
    4  A    between atoms: N_6  and  C_31
    5  A    between atoms: N_10  and  C_20
    6  A    between atoms: N_10  and  O_24
    7  A    between atoms: C_16  and  C_26
    8  A    between atoms: C_19  and  O_24
                            x       y       z     vdW  Elec       q    Type
                         _______ _______ _______ _____ _____    ______ ____

>  <TORSDO>
F 8

$$$$
=
 OpenBabel11062410533D

 32 36  0  0  1  0  0  0  0  0999 V2000
  160.8040  204.2570  152.0780 C   0  0  0  0  0  2  0  0  0  0  0  0
  160.9040  204.6670  153.5210 C   0  0  0  0  0  3  0  0  0  0  0  0
  161.7500  205.0700  151.2030 C   0  0  0  0  0  2  0  0  0  0  0  0
  161.4950  206.5560  151.4300 C   0  0  1  0  0  3  0  0  0  0  0  0
  161.3120  205.8900  153.8890 C   0  0  0  0  0  3  0  0  0  0  0  0
  161.7930  206.9250  152.8960 C   0  0  2  0  0  3  0  0  0  0  0  0
  160.4840  209.9590  154.4300 N   0  0  0  0  0  0  0  0  0  0  0  0
  159.2830  211.1400  152.9120 C   0  0  0  0  0  0  0  0  0  0  0  0
  161.2330  208.2660  153.2500 C   0  0  0  0  0  0  0  0  0  0  0  0
  158.8010  211.6230  154.2490 C   0  0  0  0  0  3  0  0  0  0  0  0
  159.5880  210.7450  155.2640 C   0  0  0  0  0  3  0  0  0  0  0  0
  160.7060  209.1380  152.3490 N   0  0  0  0  0  0  0  0  0  0  0  0
  158.8330  211.4950  151.7910 O   0  0  0  0  0  0  0  0  0  0  0  0
  161.0510  208.7510  154.5330 C   0  0  0  0  0  0  0  0  0  0  0  0
  160.2950  210.1530  153.1390 C   0  0  0  0  0  0  0  0  0  0  0  0
  161.2580  208.0310  155.7500 N   0  0  0  0  0  2  0  0  0  0  0  0
  162.1810  208.3410  156.5300 O   0  0  0  0  0  1  0  0  0  0  0  0
  162.3800  207.3510  150.4820 C   0  0  0  0  0  2  0  0  0  0  0  0
  162.9760  204.9050  146.8290 O   0  0  0  0  0  0  0  0  0  0  0  0
  160.5940  206.0800  147.9840 C   0  0  1  0  0  3  0  0  0  0  0  0
  162.4340  207.5940  148.1530 C   0  0  0  0  0  2  0  0  0  0  0  0
  162.3760  206.0030  146.1770 C   0  0  0  0  0  2  0  0  0  0  0  0
  161.6110  207.8150  149.3380 N   0  0  0  0  0  0  0  0  0  0  0  0
  161.9620  204.0510  147.3180 C   0  0  1  0  0  3  0  0  0  0  0  0
  161.5730  206.8740  147.1460 C   0  0  1  0  0  3  0  0  0  0  0  0
  161.1630  204.7280  148.4300 C   0  0  0  0  0  2  0  0  0  0  0  0
  160.4360  206.9480  149.2170 C   0  0  0  0  0  2  0  0  0  0  0  0
  161.1240  203.5950  146.2910 O   0  0  0  0  0  0  0  0  0  0  0  0
  161.3970  202.2720  146.1890 N   0  0  0  0  0  2  0  0  0  0  0  0
  160.5150  201.5910  147.1220 C   0  0  0  0  0  2  0  0  0  0  0  0
  161.3280  200.7340  148.0740 C   0  0  0  0  0  2  0  0  0  0  0  0
  161.0190  201.1050  149.5110 C   0  0  0  0  0  1  0  0  0  0  0  0
  1  2  1  0  0  0  0
  2  5  2  0  0  0  0
  3  4  1  0  0  0  0
  3  1  1  0  0  0  0
  4 18  1  6  0  0  0
  4  6  1  0  0  0  0
  6  9  1  1  0  0  0
  6  5  1  0  0  0  0
  7 14  1  0  0  0  0
  7 11  1  0  0  0  0
  8 15  1  0  0  0  0
  8 10  1  0  0  0  0
  9 14  2  0  0  0  0
 10 11  2  0  0  0  0
 12 15  2  0  0  0  0
 12  9  1  0  0  0  0
 13  8  2  0  0  0  0
 14 16  1  0  0  0  0
 15  7  1  0  0  0  0
 16 17  1  0  0  0  0
 19 24  1  0  0  0  0
 20 26  1  1  0  0  0
 20 27  1  0  0  0  0
 21 23  1  0  0  0  0
 22 19  1  0  0  0  0
 23 18  1  0  0  0  0
 24 28  1  6  0  0  0
 24 26  1  0  0  0  0
 25 22  1  1  0  0  0
 25 20  1  0  0  0  0
 25 21  1  0  0  0  0
 27 23  1  0  0  0  0
 29 28  1  0  0  0  0
 29 30  1  0  0  0  0
 30 31  1  0  0  0  0
 31 32  1  0  0  0  0
M  END
>  <MODEL>
2

>  <REMARK>
 VINA RESULT:      -7.4      1.518      2.113
  Name = 
  8 active torsions:
  status: ('A' for Active; 'I' for Inactive)
    1  A    between atoms: C_1  and  C_20
    2  A    between atoms: C_3  and  N_14
    3  A    between atoms: C_3  and  C_15
    4  A    between atoms: N_6  and  C_31
    5  A    between atoms: N_10  and  C_20
    6  A    between atoms: N_10  and  O_24
    7  A    between atoms: C_16  and  C_26
    8  A    between atoms: C_19  and  O_24
                            x       y       z     vdW  Elec       q    Type
                         _______ _______ _______ _____ _____    ______ ____

>  <TORSDO>
F 8

$$$$
=
 OpenBabel11062410533D

 32 36  0  0  1  0  0  0  0  0999 V2000
  161.2100  208.1240  157.1700 C   0  0  0  0  0  2  0  0  0  0  0  0
  161.8200  209.4890  157.0040 C   0  0  0  0  0  3  0  0  0  0  0  0
  161.2310  207.3450  155.8600 C   0  0  0  0  0  2  0  0  0  0  0  0
  160.5680  208.1770  154.7690 C   0  0  1  0  0  3  0  0  0  0  0  0
  161.8500  210.1190  155.8220 C   0  0  0  0  0  3  0  0  0  0  0  0
  161.3620  209.4790  154.5420 C   0  0  2  0  0  3  0  0  0  0  0  0
  159.9450  211.7910  152.1080 N   0  0  0  0  0  0  0  0  0  0  0  0
  158.5640  213.2600  153.1460 C   0  0  0  0  0  0  0  0  0  0  0  0
  160.5730  210.4710  153.7460 C   0  0  0  0  0  0  0  0  0  0  0  0
  158.9420  213.9270  151.8560 C   0  0  0  0  0  3  0  0  0  0  0  0
  159.9440  212.9300  151.2050 C   0  0  0  0  0  3  0  0  0  0  0  0
  159.5600  211.2250  154.2500 N   0  0  0  0  0  0  0  0  0  0  0  0
  157.8530  213.7590  154.0570 O   0  0  0  0  0  0  0  0  0  0  0  0
  160.8410  210.8550  152.4440 C   0  0  0  0  0  0  0  0  0  0  0  0
  159.2130  211.9840  153.1880 C   0  0  0  0  0  0  0  0  0  0  0  0
  161.9690  210.4650  151.6590 N   0  0  0  0  0  2  0  0  0  0  0  0
  161.8210  209.9650  150.5250 O   0  0  0  0  0  1  0  0  0  0  0  0
  160.5130  207.3500  153.4930 C   0  0  0  0  0  2  0  0  0  0  0  0
  160.0740  204.0200  150.5940 O   0  0  0  0  0  0  0  0  0  0  0  0
  162.2780  205.8200  151.1280 C   0  0  1  0  0  3  0  0  0  0  0  0
  161.2420  205.1460  153.1720 C   0  0  0  0  0  2  0  0  0  0  0  0
  161.2260  203.5120  151.2310 C   0  0  0  0  0  2  0  0  0  0  0  0
  161.7010  206.5160  153.3770 N   0  0  0  0  0  0  0  0  0  0  0  0
  160.4680  204.9310  149.5900 C   0  0  1  0  0  3  0  0  0  0  0  0
  161.9920  204.6030  151.9820 C   0  0  1  0  0  3  0  0  0  0  0  0
  161.1110  206.1760  150.2010 C   0  0  0  0  0  2  0  0  0  0  0  0
  162.4070  206.9240  152.1590 C   0  0  0  0  0  2  0  0  0  0  0  0
  161.3100  204.3330  148.6430 O   0  0  0  0  0  0  0  0  0  0  0  0
  161.3280  205.2000  147.6040 N   0  0  0  0  0  2  0  0  0  0  0  0
  162.2150  204.6330  146.6020 C   0  0  0  0  0  2  0  0  0  0  0  0
  161.4310  204.2810  145.3520 C   0  0  0  0  0  2  0  0  0  0  0  0
  160.9420  202.8480  145.4220 C   0  0  0  0  0  1  0  0  0  0  0  0
  2  1  1  0  0  0  0
  3  1  1  0  0  0  0
  4 18  1  6  0  0  0
  4  3  1  0  0  0  0
  5  2  2  0  0  0  0
  6  9  1  1  0  0  0
  6  4  1  0  0  0  0
  6  5  1  0  0  0  0
  7 14  1  0  0  0  0
  7 15  1  0  0  0  0
  8 15  1  0  0  0  0
  8 13  2  0  0  0  0
  9 12  1  0  0  0  0
 10  8  1  0  0  0  0
 11 10  2  0  0  0  0
 11  7  1  0  0  0  0
 14  9  2  0  0  0  0
 15 12  2  0  0  0  0
 16 14  1  0  0  0  0
 17 16  1  0  0  0  0
 19 22  1  0  0  0  0
 20 26  1  6  0  0  0
 20 25  1  0  0  0  0
 20 27  1  0  0  0  0
 21 23  1  0  0  0  0
 23 18  1  0  0  0  0
 24 28  1  6  0  0  0
 24 26  1  0  0  0  0
 24 19  1  0  0  0  0
 25 22  1  6  0  0  0
 25 21  1  0  0  0  0
 27 23  1  0  0  0  0
 29 28  1  0  0  0  0
 30 29  1  0  0  0  0
 31 32  1  0  0  0  0
 31 30  1  0  0  0  0
M  END
>  <MODEL>
3

>  <REMARK>
 VINA RESULT:      -7.0      2.094      3.551
  Name = 
  8 active torsions:
  status: ('A' for Active; 'I' for Inactive)
    1  A    between atoms: C_1  and  C_20
    2  A    between atoms: C_3  and  N_14
    3  A    between atoms: C_3  and  C_15
    4  A    between atoms: N_6  and  C_31
    5  A    between atoms: N_10  and  C_20
    6  A    between atoms: N_10  and  O_24
    7  A    between atoms: C_16  and  C_26
    8  A    between atoms: C_19  and  O_24
                            x       y       z     vdW  Elec       q    Type
                         _______ _______ _______ _____ _____    ______ ____

>  <TORSDO>
F 8

$$$$
=
 OpenBabel11062410533D

 32 36  0  0  1  0  0  0  0  0999 V2000
  160.4370  209.2010  156.2170 C   0  0  0  0  0  2  0  0  0  0  0  0
  160.8130  210.6450  156.4090 C   0  0  0  0  0  3  0  0  0  0  0  0
  160.8010  208.7130  154.8210 C   0  0  0  0  0  2  0  0  0  0  0  0
  160.1820  209.6430  153.7840 C   0  0  1  0  0  3  0  0  0  0  0  0
  160.9170  211.4970  155.3800 C   0  0  0  0  0  3  0  0  0  0  0  0
  160.7580  211.0640  153.9390 C   0  0  2  0  0  3  0  0  0  0  0  0
  158.3060  213.4340  152.6590 N   0  0  0  0  0  0  0  0  0  0  0  0
  158.6170  213.7470  150.4340 C   0  0  0  0  0  0  0  0  0  0  0  0
  159.9420  212.0720  153.1930 C   0  0  0  0  0  0  0  0  0  0  0  0
  157.1990  214.1690  150.6910 C   0  0  0  0  0  3  0  0  0  0  0  0
  156.9960  213.8740  152.2060 C   0  0  0  0  0  3  0  0  0  0  0  0
  160.2110  212.4900  151.9270 N   0  0  0  0  0  0  0  0  0  0  0  0
  159.1840  213.7040  149.3110 O   0  0  0  0  0  0  0  0  0  0  0  0
  158.7440  212.6170  153.6230 C   0  0  0  0  0  0  0  0  0  0  0  0
  159.1870  213.3350  151.6810 C   0  0  0  0  0  0  0  0  0  0  0  0
  158.0140  212.2440  154.7920 N   0  0  0  0  0  2  0  0  0  0  0  0
  157.2450  211.2620  154.7840 O   0  0  0  0  0  1  0  0  0  0  0  0
  160.4770  209.0900  152.3980 C   0  0  0  0  0  2  0  0  0  0  0  0
  160.1980  205.4380  149.8940 O   0  0  0  0  0  0  0  0  0  0  0  0
  162.3540  207.3300  150.2930 C   0  0  1  0  0  3  0  0  0  0  0  0
  161.2500  206.8780  152.3620 C   0  0  0  0  0  2  0  0  0  0  0  0
  161.3320  205.0290  150.6270 C   0  0  0  0  0  2  0  0  0  0  0  0
  161.6800  208.2720  152.4230 N   0  0  0  0  0  0  0  0  0  0  0  0
  160.6170  206.2340  148.8050 C   0  0  1  0  0  3  0  0  0  0  0  0
  162.0530  206.2150  151.2720 C   0  0  1  0  0  3  0  0  0  0  0  0
  161.2180  207.5530  149.2890 C   0  0  0  0  0  2  0  0  0  0  0  0
  162.4270  208.5480  151.1920 C   0  0  0  0  0  2  0  0  0  0  0  0
  161.5030  205.5460  147.9660 O   0  0  0  0  0  0  0  0  0  0  0  0
  161.7620  206.4110  146.9570 N   0  0  0  0  0  2  0  0  0  0  0  0
  162.2910  205.6230  145.8560 C   0  0  0  0  0  2  0  0  0  0  0  0
  161.1600  204.9150  145.1330 C   0  0  0  0  0  2  0  0  0  0  0  0
  161.2400  203.4190  145.3680 C   0  0  0  0  0  1  0  0  0  0  0  0
  1  2  1  0  0  0  0
  3  1  1  0  0  0  0
  4 18  1  6  0  0  0
  4  6  1  0  0  0  0
  4  3  1  0  0  0  0
  5  2  2  0  0  0  0
  6  9  1  6  0  0  0
  6  5  1  0  0  0  0
  7 14  1  0  0  0  0
  8 10  1  0  0  0  0
  8 15  1  0  0  0  0
  9 14  2  0  0  0  0
 10 11  2  0  0  0  0
 11  7  1  0  0  0  0
 12  9  1  0  0  0  0
 13  8  2  0  0  0  0
 14 16  1  0  0  0  0
 15 12  2  0  0  0  0
 15  7  1  0  0  0  0
 17 16  1  0  0  0  0
 18 23  1  0  0  0  0
 19 22  1  0  0  0  0
 20 26  1  6  0  0  0
 20 27  1  0  0  0  0
 20 25  1  0  0  0  0
 21 23  1  0  0  0  0
 24 28  1  1  0  0  0
 24 26  1  0  0  0  0
 24 19  1  0  0  0  0
 25 22  1  6  0  0  0
 25 21  1  0  0  0  0
 27 23  1  0  0  0  0
 29 28  1  0  0  0  0
 30 29  1  0  0  0  0
 31 32  1  0  0  0  0
 31 30  1  0  0  0  0
M  END
>  <MODEL>
4

>  <REMARK>
 VINA RESULT:      -6.9      2.259      4.296
  Name = 
  8 active torsions:
  status: ('A' for Active; 'I' for Inactive)
    1  A    between atoms: C_1  and  C_20
    2  A    between atoms: C_3  and  N_14
    3  A    between atoms: C_3  and  C_15
    4  A    between atoms: N_6  and  C_31
    5  A    between atoms: N_10  and  C_20
    6  A    between atoms: N_10  and  O_24
    7  A    between atoms: C_16  and  C_26
    8  A    between atoms: C_19  and  O_24
                            x       y       z     vdW  Elec       q    Type
                         _______ _______ _______ _____ _____    ______ ____

>  <TORSDO>
F 8

$$$$
=
 OpenBabel11062410533D

 32 36  0  0  1  0  0  0  0  0999 V2000
  160.6640  206.7700  153.8430 C   0  0  0  0  0  2  0  0  0  0  0  0
  161.0050  208.0600  154.5370 C   0  0  0  0  0  3  0  0  0  0  0  0
  161.5400  206.5520  152.6160 C   0  0  0  0  0  2  0  0  0  0  0  0
  161.4460  207.7730  151.7070 C   0  0  1  0  0  3  0  0  0  0  0  0
  161.5630  209.0930  153.8900 C   0  0  0  0  0  3  0  0  0  0  0  0
  161.9830  209.0180  152.4390 C   0  0  2  0  0  3  0  0  0  0  0  0
  160.5060  212.1080  151.1970 N   0  0  0  0  0  0  0  0  0  0  0  0
  161.1700  212.4820  149.0610 C   0  0  0  0  0  0  0  0  0  0  0  0
  161.5950  210.2790  151.7330 C   0  0  0  0  0  0  0  0  0  0  0  0
  159.9160  213.2910  149.2250 C   0  0  0  0  0  3  0  0  0  0  0  0
  159.4480  212.9560  150.6710 C   0  0  0  0  0  3  0  0  0  0  0  0
  162.1300  210.6920  150.5530 N   0  0  0  0  0  0  0  0  0  0  0  0
  161.8360  212.3560  148.0000 O   0  0  0  0  0  0  0  0  0  0  0  0
  160.5630  211.1250  152.1020 C   0  0  0  0  0  0  0  0  0  0  0  0
  161.4350  211.8230  150.3040 C   0  0  0  0  0  0  0  0  0  0  0  0
  159.6160  210.9020  153.1480 N   0  0  0  0  0  2  0  0  0  0  0  0
  158.4400  211.3080  153.0470 O   0  0  0  0  0  1  0  0  0  0  0  0
  162.2510  207.5010  150.4440 C   0  0  0  0  0  2  0  0  0  0  0  0
  162.9770  204.8090  146.9930 O   0  0  0  0  0  0  0  0  0  0  0  0
  160.5400  205.9690  148.0420 C   0  0  1  0  0  3  0  0  0  0  0  0
  162.3140  207.5670  148.1030 C   0  0  0  0  0  2  0  0  0  0  0  0
  162.3390  205.8280  146.2550 C   0  0  0  0  0  2  0  0  0  0  0  0
  161.4730  207.8430  149.2630 N   0  0  0  0  0  0  0  0  0  0  0  0
  161.9950  203.9530  147.5400 C   0  0  1  0  0  3  0  0  0  0  0  0
  161.4920  206.7370  147.1500 C   0  0  1  0  0  3  0  0  0  0  0  0
  161.1600  204.6810  148.5930 C   0  0  0  0  0  2  0  0  0  0  0  0
  160.3350  206.9210  149.2030 C   0  0  0  0  0  2  0  0  0  0  0  0
  161.1860  203.3860  146.5470 O   0  0  0  0  0  0  0  0  0  0  0  0
  161.4140  202.0550  146.6390 N   0  0  0  0  0  2  0  0  0  0  0  0
  160.4550  201.5320  147.5980 C   0  0  0  0  0  2  0  0  0  0  0  0
  161.1770  200.7620  148.6880 C   0  0  0  0  0  2  0  0  0  0  0  0
  160.8280  201.3270  150.0510 C   0  0  0  0  0  1  0  0  0  0  0  0
  1  2  1  0  0  0  0
  3  1  1  0  0  0  0
  4 18  1  6  0  0  0
  4  6  1  0  0  0  0
  4  3  1  0  0  0  0
  5  2  2  0  0  0  0
  6  9  1  6  0  0  0
  6  5  1  0  0  0  0
  7 14  1  0  0  0  0
  8 10  1  0  0  0  0
  8 15  1  0  0  0  0
  9 14  2  0  0  0  0
 10 11  2  0  0  0  0
 11  7  1  0  0  0  0
 12  9  1  0  0  0  0
 13  8  2  0  0  0  0
 14 16  1  0  0  0  0
 15 12  2  0  0  0  0
 15  7  1  0  0  0  0
 17 16  1  0  0  0  0
 19 24  1  0  0  0  0
 20 26  1  1  0  0  0
 20 27  1  0  0  0  0
 21 23  1  0  0  0  0
 22 19  1  0  0  0  0
 23 18  1  0  0  0  0
 24 28  1  6  0  0  0
 24 26  1  0  0  0  0
 25 22  1  1  0  0  0
 25 20  1  0  0  0  0
 25 21  1  0  0  0  0
 27 23  1  0  0  0  0
 28 29  1  0  0  0  0
 29 30  1  0  0  0  0
 30 31  1  0  0  0  0
 31 32  1  0  0  0  0
M  END
>  <MODEL>
5

>  <REMARK>
 VINA RESULT:      -6.5      1.243      2.462
  Name = 
  8 active torsions:
  status: ('A' for Active; 'I' for Inactive)
    1  A    between atoms: C_1  and  C_20
    2  A    between atoms: C_3  and  N_14
    3  A    between atoms: C_3  and  C_15
    4  A    between atoms: N_6  and  C_31
    5  A    between atoms: N_10  and  C_20
    6  A    between atoms: N_10  and  O_24
    7  A    between atoms: C_16  and  C_26
    8  A    between atoms: C_19  and  O_24
                            x       y       z     vdW  Elec       q    Type
                         _______ _______ _______ _____ _____    ______ ____

>  <TORSDO>
F 8

$$$$
=
 OpenBabel11062410533D

 32 36  0  0  1  0  0  0  0  0999 V2000
  158.9900  211.1550  155.9180 C   0  0  0  0  0  2  0  0  0  0  0  0
  159.1440  212.6480  155.8260 C   0  0  0  0  0  3  0  0  0  0  0  0
  159.6880  210.4540  154.7580 C   0  0  0  0  0  2  0  0  0  0  0  0
  159.1860  211.0360  153.4420 C   0  0  1  0  0  3  0  0  0  0  0  0
  159.3520  213.2750  154.6600 C   0  0  0  0  0  3  0  0  0  0  0  0
  159.5430  212.5330  153.3560 C   0  0  2  0  0  3  0  0  0  0  0  0
  157.1300  214.1280  151.1420 N   0  0  0  0  0  0  0  0  0  0  0  0
  157.8900  214.0860  149.0060 C   0  0  0  0  0  0  0  0  0  0  0  0
  158.7810  213.2170  152.2660 C   0  0  0  0  0  0  0  0  0  0  0  0
  156.4050  214.2740  148.8860 C   0  0  0  0  0  3  0  0  0  0  0  0
  155.9070  214.2240  150.3600 C   0  0  0  0  0  3  0  0  0  0  0  0
  159.2670  213.4420  151.0160 N   0  0  0  0  0  0  0  0  0  0  0  0
  158.6980  213.9490  148.0510 O   0  0  0  0  0  0  0  0  0  0  0  0
  157.4510  213.5950  152.3270 C   0  0  0  0  0  0  0  0  0  0  0  0
  158.2140  214.0210  150.3990 C   0  0  0  0  0  0  0  0  0  0  0  0
  156.5350  213.3090  153.3850 N   0  0  0  0  0  2  0  0  0  0  0  0
  155.9300  214.2260  153.9760 O   0  0  0  0  0  1  0  0  0  0  0  0
  159.8210  210.2630  152.2960 C   0  0  0  0  0  2  0  0  0  0  0  0
  160.4530  206.5640  149.9270 O   0  0  0  0  0  0  0  0  0  0  0  0
  162.3260  208.4470  151.0820 C   0  0  1  0  0  3  0  0  0  0  0  0
  160.5170  208.0450  152.5880 C   0  0  0  0  0  2  0  0  0  0  0  0
  161.2210  206.1620  151.0400 C   0  0  0  0  0  2  0  0  0  0  0  0
  160.9140  209.4360  152.7850 N   0  0  0  0  0  0  0  0  0  0  0  0
  161.2630  207.3360  149.0650 C   0  0  1  0  0  3  0  0  0  0  0  0
  161.6630  207.3540  151.8910 C   0  0  1  0  0  3  0  0  0  0  0  0
  161.6560  208.6590  149.7200 C   0  0  0  0  0  2  0  0  0  0  0  0
  162.0730  209.6820  151.9230 C   0  0  0  0  0  2  0  0  0  0  0  0
  162.3900  206.6240  148.6320 O   0  0  0  0  0  0  0  0  0  0  0  0
  161.8960  205.6640  147.8150 N   0  0  0  0  0  2  0  0  0  0  0  0
  162.2890  206.0230  146.4630 C   0  0  0  0  0  2  0  0  0  0  0  0
  162.6640  204.7780  145.6820 C   0  0  0  0  0  2  0  0  0  0  0  0
  161.5880  203.7200  145.8290 C   0  0  0  0  0  1  0  0  0  0  0  0
  2  1  1  0  0  0  0
  3  1  1  0  0  0  0
  4 18  1  6  0  0  0
  4  3  1  0  0  0  0
  5  2  2  0  0  0  0
  6  9  1  6  0  0  0
  6  4  1  0  0  0  0
  6  5  1  0  0  0  0
  7 14  1  0  0  0  0
  8 15  1  0  0  0  0
  9 14  2  0  0  0  0
 10  8  1  0  0  0  0
 10 11  2  0  0  0  0
 11  7  1  0  0  0  0
 12  9  1  0  0  0  0
 13  8  2  0  0  0  0
 14 16  1  0  0  0  0
 15 12  2  0  0  0  0
 15  7  1  0  0  0  0
 16 17  1  0  0  0  0
 18 23  1  0  0  0  0
 19 22  1  0  0  0  0
 20 26  1  6  0  0  0
 20 25  1  0  0  0  0
 20 27  1  0  0  0  0
 21 23  1  0  0  0  0
 24 28  1  1  0  0  0
 24 26  1  0  0  0  0
 24 19  1  0  0  0  0
 25 22  1  6  0  0  0
 25 21  1  0  0  0  0
 27 23  1  0  0  0  0
 29 28  1  0  0  0  0
 30 29  1  0  0  0  0
 31 32  1  0  0  0  0
 31 30  1  0  0  0  0
M  END
>  <MODEL>
6

>  <REMARK>
 VINA RESULT:      -5.8      2.657      5.304
  Name = 
  8 active torsions:
  status: ('A' for Active; 'I' for Inactive)
    1  A    between atoms: C_1  and  C_20
    2  A    between atoms: C_3  and  N_14
    3  A    between atoms: C_3  and  C_15
    4  A    between atoms: N_6  and  C_31
    5  A    between atoms: N_10  and  C_20
    6  A    between atoms: N_10  and  O_24
    7  A    between atoms: C_16  and  C_26
    8  A    between atoms: C_19  and  O_24
                            x       y       z     vdW  Elec       q    Type
                         _______ _______ _______ _____ _____    ______ ____

>  <TORSDO>
F 8

$$$$
=
 OpenBabel11062410533D

 32 36  0  0  1  0  0  0  0  0999 V2000
  156.7440  212.5950  157.0070 C   0  0  0  0  0  2  0  0  0  0  0  0
  156.9460  214.0420  156.6480 C   0  0  0  0  0  3  0  0  0  0  0  0
  157.6970  211.6940  156.2320 C   0  0  0  0  0  2  0  0  0  0  0  0
  157.5560  211.9740  154.7400 C   0  0  1  0  0  3  0  0  0  0  0  0
  157.4550  214.4210  155.4670 C   0  0  0  0  0  3  0  0  0  0  0  0
  157.9540  213.4320  154.4370 C   0  0  2  0  0  3  0  0  0  0  0  0
  156.2080  214.3230  151.3670 N   0  0  0  0  0  0  0  0  0  0  0  0
  157.6310  214.2100  149.6040 C   0  0  0  0  0  0  0  0  0  0  0  0
  157.5070  213.8510  153.0730 C   0  0  0  0  0  0  0  0  0  0  0  0
  156.2590  214.1060  149.0040 C   0  0  0  0  0  3  0  0  0  0  0  0
  155.3140  214.1130  150.2400 C   0  0  0  0  0  3  0  0  0  0  0  0
  158.3420  214.0360  152.0160 N   0  0  0  0  0  0  0  0  0  0  0  0
  158.7200  214.1310  148.9790 O   0  0  0  0  0  0  0  0  0  0  0  0
  156.1920  213.9800  152.6600 C   0  0  0  0  0  0  0  0  0  0  0  0
  157.4810  214.3460  151.0220 C   0  0  0  0  0  0  0  0  0  0  0  0
  155.0280  213.6370  153.4140 N   0  0  0  0  0  2  0  0  0  0  0  0
  154.0720  214.4320  153.5190 O   0  0  0  0  0  1  0  0  0  0  0  0
  158.4440  211.0030  153.9770 C   0  0  0  0  0  2  0  0  0  0  0  0
  160.4530  207.0570  153.6880 O   0  0  0  0  0  0  0  0  0  0  0  0
  161.4430  209.7490  153.2840 C   0  0  1  0  0  3  0  0  0  0  0  0
  159.9710  209.6780  155.1630 C   0  0  0  0  0  2  0  0  0  0  0  0
  161.3380  207.6050  154.6410 C   0  0  0  0  0  2  0  0  0  0  0  0
  159.7840  210.9870  154.5450 N   0  0  0  0  0  0  0  0  0  0  0  0
  160.8750  207.4420  152.3960 C   0  0  1  0  0  3  0  0  0  0  0  0
  161.2840  209.1350  154.6580 C   0  0  1  0  0  3  0  0  0  0  0  0
  160.7200  208.9490  152.1950 C   0  0  0  0  0  2  0  0  0  0  0  0
  160.7340  211.0800  153.4330 C   0  0  0  0  0  2  0  0  0  0  0  0
  162.1840  207.0210  152.1270 O   0  0  0  0  0  0  0  0  0  0  0  0
  162.0580  205.7250  151.7560 N   0  0  0  0  0  2  0  0  0  0  0  0
  160.9810  205.6720  150.7820 C   0  0  0  0  0  2  0  0  0  0  0  0
  161.2030  204.5170  149.8240 C   0  0  0  0  0  2  0  0  0  0  0  0
  160.4650  203.2830  150.3070 C   0  0  0  0  0  1  0  0  0  0  0  0
  2  1  1  0  0  0  0
  3  1  1  0  0  0  0
  4 18  1  6  0  0  0
  4  3  1  0  0  0  0
  5  2  2  0  0  0  0
  6  9  1  6  0  0  0
  6  4  1  0  0  0  0
  6  5  1  0  0  0  0
  7 14  1  0  0  0  0
  8 15  1  0  0  0  0
 10  8  1  0  0  0  0
 10 11  2  0  0  0  0
 11  7  1  0  0  0  0
 12  9  1  0  0  0  0
 13  8  2  0  0  0  0
 14  9  2  0  0  0  0
 14 16  1  0  0  0  0
 15  7  1  0  0  0  0
 15 12  2  0  0  0  0
 16 17  1  0  0  0  0
 18 23  1  0  0  0  0
 19 22  1  0  0  0  0
 20 26  1  6  0  0  0
 20 27  1  0  0  0  0
 20 25  1  0  0  0  0
 23 21  1  0  0  0  0
 24 28  1  1  0  0  0
 24 19  1  0  0  0  0
 25 22  1  6  0  0  0
 25 21  1  0  0  0  0
 26 24  1  0  0  0  0
 27 23  1  0  0  0  0
 29 28  1  0  0  0  0
 30 29  1  0  0  0  0
 31 32  1  0  0  0  0
 31 30  1  0  0  0  0
M  END
>  <MODEL>
7

>  <REMARK>
 VINA RESULT:      -5.8      3.358      6.920
  Name = 
  8 active torsions:
  status: ('A' for Active; 'I' for Inactive)
    1  A    between atoms: C_1  and  C_20
    2  A    between atoms: C_3  and  N_14
    3  A    between atoms: C_3  and  C_15
    4  A    between atoms: N_6  and  C_31
    5  A    between atoms: N_10  and  C_20
    6  A    between atoms: N_10  and  O_24
    7  A    between atoms: C_16  and  C_26
    8  A    between atoms: C_19  and  O_24
                            x       y       z     vdW  Elec       q    Type
                         _______ _______ _______ _____ _____    ______ ____

>  <TORSDO>
F 8

$$$$
=
 OpenBabel11062410533D

 32 36  0  0  1  0  0  0  0  0999 V2000
  160.5270  206.1530  144.8850 C   0  0  0  0  0  2  0  0  0  0  0  0
  161.5890  205.0890  144.8430 C   0  0  0  0  0  3  0  0  0  0  0  0
  160.5930  206.9530  146.1800 C   0  0  0  0  0  2  0  0  0  0  0  0
  160.5400  205.9960  147.3660 C   0  0  1  0  0  3  0  0  0  0  0  0
  162.1170  204.5630  145.9580 C   0  0  0  0  0  3  0  0  0  0  0  0
  161.7620  205.0570  147.3430 C   0  0  2  0  0  3  0  0  0  0  0  0
  161.1010  201.8810  148.9990 N   0  0  0  0  0  0  0  0  0  0  0  0
  160.8110  202.2110  151.2240 C   0  0  0  0  0  0  0  0  0  0  0  0
  161.5780  203.8940  148.2650 C   0  0  0  0  0  0  0  0  0  0  0  0
  160.1510  200.8930  150.9370 C   0  0  0  0  0  3  0  0  0  0  0  0
  160.3030  200.7320  149.3970 C   0  0  0  0  0  3  0  0  0  0  0  0
  161.6280  203.9760  149.6210 N   0  0  0  0  0  0  0  0  0  0  0  0
  160.8300  202.8030  152.3340 O   0  0  0  0  0  0  0  0  0  0  0  0
  161.2050  202.6160  147.8860 C   0  0  0  0  0  0  0  0  0  0  0  0
  161.3540  202.7080  149.9950 C   0  0  0  0  0  0  0  0  0  0  0  0
  160.8250  202.1960  146.5750 N   0  0  0  0  0  2  0  0  0  0  0  0
  161.0170  201.0240  146.1940 O   0  0  0  0  0  1  0  0  0  0  0  0
  160.5130  206.8140  148.6490 C   0  0  0  0  0  2  0  0  0  0  0  0
  160.4430  210.0230  151.7120 O   0  0  0  0  0  0  0  0  0  0  0  0
  162.3310  207.8830  151.2180 C   0  0  1  0  0  3  0  0  0  0  0  0
  161.5910  208.8320  149.1550 C   0  0  0  0  0  2  0  0  0  0  0  0
  161.7120  210.3460  151.1880 C   0  0  0  0  0  2  0  0  0  0  0  0
  161.8160  207.4140  148.8960 N   0  0  0  0  0  0  0  0  0  0  0  0
  160.5920  209.0070  152.6830 C   0  0  1  0  0  3  0  0  0  0  0  0
  162.3300  209.1720  150.4240 C   0  0  1  0  0  3  0  0  0  0  0  0
  161.0510  207.6980  152.0400 C   0  0  0  0  0  2  0  0  0  0  0  0
  162.3430  206.8270  150.1310 C   0  0  0  0  0  2  0  0  0  0  0  0
  161.4500  209.3970  153.7190 O   0  0  0  0  0  0  0  0  0  0  0  0
  160.6250  209.8240  154.7040 N   0  0  0  0  0  2  0  0  0  0  0  0
  161.2920  209.5350  155.9630 C   0  0  0  0  0  2  0  0  0  0  0  0
  161.4710  208.0370  156.1240 C   0  0  0  0  0  2  0  0  0  0  0  0
  160.1260  207.3620  156.3010 C   0  0  0  0  0  1  0  0  0  0  0  0
  1  3  1  0  0  0  0
  2  1  1  0  0  0  0
  2  5  2  0  0  0  0
  3  4  1  0  0  0  0
  4 18  1  1  0  0  0
  5  6  1  0  0  0  0
  6  4  1  0  0  0  0
  6  9  1  1  0  0  0
  7 11  1  0  0  0  0
  7 15  1  0  0  0  0
  8 13  2  0  0  0  0
  9 12  1  0  0  0  0
 10  8  1  0  0  0  0
 11 10  2  0  0  0  0
 12 15  2  0  0  0  0
 14  9  2  0  0  0  0
 14  7  1  0  0  0  0
 15  8  1  0  0  0  0
 16 14  1  0  0  0  0
 17 16  1  0  0  0  0
 18 23  1  0  0  0  0
 19 24  1  0  0  0  0
 20 27  1  6  0  0  0
 20 26  1  0  0  0  0
 22 19  1  0  0  0  0
 23 21  1  0  0  0  0
 23 27  1  0  0  0  0
 24 28  1  1  0  0  0
 25 21  1  6  0  0  0
 25 22  1  0  0  0  0
 25 20  1  0  0  0  0
 26 24  1  0  0  0  0
 28 29  1  0  0  0  0
 29 30  1  0  0  0  0
 30 31  1  0  0  0  0
 31 32  1  0  0  0  0
M  END
>  <MODEL>
8

>  <REMARK>
 VINA RESULT:      -5.5      2.235      8.210
  Name = 
  8 active torsions:
  status: ('A' for Active; 'I' for Inactive)
    1  A    between atoms: C_1  and  C_20
    2  A    between atoms: C_3  and  N_14
    3  A    between atoms: C_3  and  C_15
    4  A    between atoms: N_6  and  C_31
    5  A    between atoms: N_10  and  C_20
    6  A    between atoms: N_10  and  O_24
    7  A    between atoms: C_16  and  C_26
    8  A    between atoms: C_19  and  O_24
                            x       y       z     vdW  Elec       q    Type
                         _______ _______ _______ _____ _____    ______ ____

>  <TORSDO>
F 8

$$$$
=
 OpenBabel11062410533D

 32 36  0  0  1  0  0  0  0  0999 V2000
  161.8900  209.9900  148.6770 C   0  0  0  0  0  2  0  0  0  0  0  0
  162.7070  208.7980  148.2600 C   0  0  0  0  0  3  0  0  0  0  0  0
  161.7600  210.0710  150.1930 C   0  0  0  0  0  2  0  0  0  0  0  0
  161.2200  208.7490  150.7250 C   0  0  1  0  0  3  0  0  0  0  0  0
  162.8160  207.7030  149.0270 C   0  0  0  0  0  3  0  0  0  0  0  0
  162.2080  207.6090  150.4080 C   0  0  2  0  0  3  0  0  0  0  0  0
  160.8670  204.4170  151.5400 N   0  0  0  0  0  0  0  0  0  0  0  0
  160.6000  203.0170  149.7750 C   0  0  0  0  0  0  0  0  0  0  0  0
  161.5740  206.2660  150.5930 C   0  0  0  0  0  0  0  0  0  0  0  0
  160.6590  202.1200  150.9770 C   0  0  0  0  0  3  0  0  0  0  0  0
  160.9150  203.1010  152.1580 C   0  0  0  0  0  3  0  0  0  0  0  0
  161.1660  205.4650  149.5730 N   0  0  0  0  0  0  0  0  0  0  0  0
  160.5180  202.6440  148.5760 O   0  0  0  0  0  0  0  0  0  0  0  0
  161.4340  205.6000  151.7980 C   0  0  0  0  0  0  0  0  0  0  0  0
  160.7250  204.3690  150.2290 C   0  0  0  0  0  0  0  0  0  0  0  0
  161.9590  206.0120  153.0620 N   0  0  0  0  0  2  0  0  0  0  0  0
  161.2280  206.0750  154.0710 O   0  0  0  0  0  1  0  0  0  0  0  0
  161.0090  208.8790  152.2260 C   0  0  0  0  0  2  0  0  0  0  0  0
  157.9300  211.3980  154.1910 O   0  0  0  0  0  0  0  0  0  0  0  0
  160.6970  210.8730  154.8670 C   0  0  1  0  0  3  0  0  0  0  0  0
  160.4530  211.1380  152.5060 C   0  0  0  0  0  2  0  0  0  0  0  0
  158.8780  212.4290  154.0190 C   0  0  0  0  0  2  0  0  0  0  0  0
  161.5170  210.1580  152.7010 N   0  0  0  0  0  0  0  0  0  0  0  0
  158.2200  210.7020  155.3860 C   0  0  1  0  0  3  0  0  0  0  0  0
  160.2900  211.8770  153.8100 C   0  0  1  0  0  3  0  0  0  0  0  0
  159.5450  209.9480  155.2730 C   0  0  0  0  0  2  0  0  0  0  0  0
  161.7340  210.0360  154.1450 C   0  0  0  0  0  2  0  0  0  0  0  0
  158.2070  211.5510  156.5000 O   0  0  0  0  0  0  0  0  0  0  0  0
  156.8950  211.7120  156.7940 N   0  0  0  0  0  2  0  0  0  0  0  0
  156.6850  213.1340  157.0010 C   0  0  0  0  0  2  0  0  0  0  0  0
  155.3750  213.5640  156.3670 C   0  0  0  0  0  2  0  0  0  0  0  0
  155.6130  214.0680  154.9570 C   0  0  0  0  0  1  0  0  0  0  0  0
  1  3  1  0  0  0  0
  2  1  1  0  0  0  0
  2  5  2  0  0  0  0
  3  4  1  0  0  0  0
  4 18  1  1  0  0  0
  5  6  1  0  0  0  0
  6  9  1  6  0  0  0
  6  4  1  0  0  0  0
  7 14  1  0  0  0  0
  7 11  1  0  0  0  0
  8 15  1  0  0  0  0
  8 10  1  0  0  0  0
  9 14  2  0  0  0  0
 10 11  2  0  0  0  0
 12 15  2  0  0  0  0
 12  9  1  0  0  0  0
 13  8  2  0  0  0  0
 14 16  1  0  0  0  0
 15  7  1  0  0  0  0
 16 17  1  0  0  0  0
 18 23  1  0  0  0  0
 19 24  1  0  0  0  0
 20 27  1  6  0  0  0
 20 26  1  0  0  0  0
 21 23  1  0  0  0  0
 22 19  1  0  0  0  0
 23 27  1  0  0  0  0
 24 28  1  1  0  0  0
 25 21  1  6  0  0  0
 25 22  1  0  0  0  0
 25 20  1  0  0  0  0
 26 24  1  0  0  0  0
 28 29  1  0  0  0  0
 29 30  1  0  0  0  0
 31 30  1  0  0  0  0
 32 31  1  0  0  0  0
M  END
>  <MODEL>
9

>  <REMARK>
 VINA RESULT:      -5.4      2.755      9.154
  Name = 
  8 active torsions:
  status: ('A' for Active; 'I' for Inactive)
    1  A    between atoms: C_1  and  C_20
    2  A    between atoms: C_3  and  N_14
    3  A    between atoms: C_3  and  C_15
    4  A    between atoms: N_6  and  C_31
    5  A    between atoms: N_10  and  C_20
    6  A    between atoms: N_10  and  O_24
    7  A    between atoms: C_16  and  C_26
    8  A    between atoms: C_19  and  O_24
                            x       y       z     vdW  Elec       q    Type
                         _______ _______ _______ _____ _____    ______ ____

>  <TORSDO>
F 8

$$$$
