=
 OpenBabel11052421483D

 30 32  0  0  1  0  0  0  0  0999 V2000
  160.8740  208.0270  154.5320 C   0  0  0  0  0  0  0  0  0  0  0  0
  161.4940  208.6700  155.6480 N   0  0  0  0  0  2  0  0  0  0  0  0
  160.5190  206.8220  154.6310 O   0  0  0  0  0  0  0  0  0  0  0  0
  161.5800  209.9740  153.1170 C   0  0  2  0  0  3  0  0  0  0  0  0
  161.9020  210.0390  155.5710 C   0  0  0  0  0  3  0  0  0  0  0  0
  160.5660  208.8260  153.2900 C   0  0  1  0  0  3  0  0  0  0  0  0
  161.9080  210.6830  154.4050 C   0  0  0  0  0  3  0  0  0  0  0  0
  159.7690  212.9480  151.3090 C   0  0  0  0  0  3  0  0  0  0  0  0
  160.3600  212.9120  150.1140 C   0  0  0  0  0  3  0  0  0  0  0  0
  160.0780  211.9570  152.4040 C   0  0  0  0  0  0  0  0  0  0  0  0
  161.9670  211.8080  148.6490 N   0  0  0  0  0  2  0  0  0  0  0  0
  161.7430  210.9320  150.8550 C   0  0  0  0  0  3  0  0  0  0  0  0
  158.9060  211.2900  152.7610 O   0  0  0  0  0  1  0  0  0  0  0  0
  161.3730  211.8890  149.8050 C   0  0  0  0  0  0  0  0  0  0  0  0
  161.1590  210.9560  152.0610 C   0  0  0  0  0  0  0  0  0  0  0  0
  162.5090  213.6240  147.2510 O   0  0  0  0  0  0  0  0  0  0  0  0
  161.7600  212.6410  147.4970 C   0  0  0  0  0  0  0  0  0  0  0  0
  160.6840  212.3500  146.6150 N   0  0  0  0  0  1  0  0  0  0  0  0
  160.5720  207.9460  152.0460 C   0  0  0  0  0  2  0  0  0  0  0  0
  161.9670  207.4090  151.8040 C   0  0  0  0  0  2  0  0  0  0  0  0
  162.2440  207.2370  150.0200 S   0  0  0  0  0  0  0  0  0  0  0  0
  161.4180  205.6430  149.9640 C   0  0  0  0  0  0  0  0  0  0  0  0
  161.4620  204.8420  151.0240 C   0  0  0  0  0  2  0  0  0  0  0  0
  161.4010  204.2190  146.6600 C   0  0  0  0  0  2  0  0  0  0  0  0
  160.7500  205.1710  148.7100 C   0  0  1  0  0  3  0  0  0  0  0  0
  161.2260  205.7140  146.5540 C   0  0  2  0  0  0  0  0  0  0  0  0
  160.6960  206.2110  147.7600 O   0  0  0  0  0  0  0  0  0  0  0  0
  161.4820  203.9830  148.1300 C   0  0  0  0  0  2  0  0  0  0  0  0
  160.2820  206.0320  145.4130 C   0  0  0  0  0  1  0  0  0  0  0  0
  162.4620  206.3120  146.3110 O   0  0  0  0  0  1  0  0  0  0  0  0
  1  3  2  0  0  0  0
  1  2  1  0  0  0  0
  4 15  1  6  0  0  0
  4  6  1  0  0  0  0
  4  7  1  0  0  0  0
  5  2  1  0  0  0  0
  6 19  1  6  0  0  0
  6  1  1  0  0  0  0
  7  5  2  0  0  0  0
  8 10  1  0  0  0  0
  9  8  2  0  0  0  0
 10 13  1  0  0  0  0
 11 14  1  0  0  0  0
 12 15  1  0  0  0  0
 14  9  1  0  0  0  0
 14 12  2  0  0  0  0
 15 10  2  0  0  0  0
 16 17  2  0  0  0  0
 17 11  1  0  0  0  0
 18 17  1  0  0  0  0
 20 19  1  0  0  0  0
 21 20  1  0  0  0  0
 22 21  1  0  0  0  0
 22 23  2  0  0  0  0
 24 28  1  0  0  0  0
 25 22  1  1  0  0  0
 26 29  1  6  0  0  0
 26 24  1  0  0  0  0
 26 27  1  0  0  0  0
 27 25  1  0  0  0  0
 28 25  1  0  0  0  0
 30 26  1  0  0  0  0
M  END
>  <MODEL>
1

>  <REMARK>
 VINA RESULT:      -7.1      0.000      0.000
  Name = 
  7 active torsions:
  status: ('A' for Active; 'I' for Inactive)
    1  A    between atoms: C_1  and  S_4
    2  A    between atoms: C_1  and  C_5
    3  A    between atoms: S_4  and  C_27
    4  A    between atoms: C_5  and  C_22
    5  A    between atoms: C_8  and  C_27
    6  A    between atoms: C_15  and  N_16
    7  A    between atoms: C_19  and  C_29
                            x       y       z     vdW  Elec       q    Type
                         _______ _______ _______ _____ _____    ______ ____

>  <TORSDO>
F 7

$$$$
=
 OpenBabel11052421483D

 30 32  0  0  1  0  0  0  0  0999 V2000
  161.1980  206.5990  153.1290 C   0  0  0  0  0  0  0  0  0  0  0  0
  161.0130  206.8840  154.5180 N   0  0  0  0  0  2  0  0  0  0  0  0
  161.3280  205.4020  152.7550 O   0  0  0  0  0  0  0  0  0  0  0  0
  161.6030  209.0460  152.7610 C   0  0  2  0  0  3  0  0  0  0  0  0
  160.8540  208.2300  154.9760 C   0  0  0  0  0  3  0  0  0  0  0  0
  161.1350  207.7240  152.1250 C   0  0  1  0  0  3  0  0  0  0  0  0
  161.0820  209.2570  154.1580 C   0  0  0  0  0  3  0  0  0  0  0  0
  160.1290  212.4580  151.5060 C   0  0  0  0  0  3  0  0  0  0  0  0
  160.7370  212.5760  150.3260 C   0  0  0  0  0  3  0  0  0  0  0  0
  160.3170  211.2640  152.4080 C   0  0  0  0  0  0  0  0  0  0  0  0
  162.2590  211.5940  148.6920 N   0  0  0  0  0  2  0  0  0  0  0  0
  161.9060  210.3680  150.7060 C   0  0  0  0  0  3  0  0  0  0  0  0
  159.0790  210.6640  152.6380 O   0  0  0  0  0  1  0  0  0  0  0  0
  161.6520  211.5270  149.8420 C   0  0  0  0  0  0  0  0  0  0  0  0
  161.3020  210.2370  151.8950 C   0  0  0  0  0  0  0  0  0  0  0  0
  162.9440  213.6180  147.7030 O   0  0  0  0  0  0  0  0  0  0  0  0
  162.1580  212.6340  147.7060 C   0  0  0  0  0  0  0  0  0  0  0  0
  161.1450  212.5500  146.7120 N   0  0  0  0  0  1  0  0  0  0  0  0
  161.9820  207.4180  150.8960 C   0  0  0  0  0  2  0  0  0  0  0  0
  161.0870  207.2190  149.6910 C   0  0  0  0  0  2  0  0  0  0  0  0
  160.5680  205.4840  149.6070 S   0  0  0  0  0  0  0  0  0  0  0  0
  161.3500  205.2440  148.0070 C   0  0  0  0  0  0  0  0  0  0  0  0
  161.4400  206.2650  147.1600 C   0  0  0  0  0  2  0  0  0  0  0  0
  160.9350  202.0070  146.4950 C   0  0  0  0  0  2  0  0  0  0  0  0
  161.8270  203.8900  147.5840 C   0  0  1  0  0  3  0  0  0  0  0  0
  160.8920  201.8590  147.9960 C   0  0  2  0  0  0  0  0  0  0  0  0
  161.5690  202.9400  148.5930 O   0  0  0  0  0  0  0  0  0  0  0  0
  161.1600  203.4670  146.2960 C   0  0  0  0  0  2  0  0  0  0  0  0
  161.5570  200.5580  148.3940 C   0  0  0  0  0  1  0  0  0  0  0  0
  159.5650  201.8500  148.4260 O   0  0  0  0  0  1  0  0  0  0  0  0
  1  2  1  0  0  0  0
  2  5  1  0  0  0  0
  3  1  2  0  0  0  0
  4 15  1  6  0  0  0
  4  7  1  0  0  0  0
  6 19  1  6  0  0  0
  6  4  1  0  0  0  0
  6  1  1  0  0  0  0
  7  5  2  0  0  0  0
  8 10  1  0  0  0  0
  9  8  2  0  0  0  0
 10 13  1  0  0  0  0
 11 14  1  0  0  0  0
 12 15  1  0  0  0  0
 14  9  1  0  0  0  0
 14 12  2  0  0  0  0
 15 10  2  0  0  0  0
 16 17  2  0  0  0  0
 17 11  1  0  0  0  0
 18 17  1  0  0  0  0
 20 19  1  0  0  0  0
 21 20  1  0  0  0  0
 22 21  1  0  0  0  0
 23 22  2  0  0  0  0
 24 26  1  0  0  0  0
 25 22  1  1  0  0  0
 25 27  1  0  0  0  0
 26 29  1  1  0  0  0
 26 30  1  0  0  0  0
 26 27  1  0  0  0  0
 28 24  1  0  0  0  0
 28 25  1  0  0  0  0
M  END
>  <MODEL>
2

>  <REMARK>
 VINA RESULT:      -7.0      1.708      2.459
  Name = 
  7 active torsions:
  status: ('A' for Active; 'I' for Inactive)
    1  A    between atoms: C_1  and  S_4
    2  A    between atoms: C_1  and  C_5
    3  A    between atoms: S_4  and  C_27
    4  A    between atoms: C_5  and  C_22
    5  A    between atoms: C_8  and  C_27
    6  A    between atoms: C_15  and  N_16
    7  A    between atoms: C_19  and  C_29
                            x       y       z     vdW  Elec       q    Type
                         _______ _______ _______ _____ _____    ______ ____

>  <TORSDO>
F 7

$$$$
=
 OpenBabel11052421483D

 30 32  0  0  1  0  0  0  0  0999 V2000
  161.5460  206.1620  148.1070 C   0  0  0  0  0  0  0  0  0  0  0  0
  161.1710  204.7900  148.2470 N   0  0  0  0  0  0  0  0  0  0  0  0
  161.8560  206.6060  146.9680 O   0  0  0  0  0  0  0  0  0  0  0  0
  161.7040  206.2940  150.6060 C   0  0  2  0  0  3  0  0  0  0  0  0
  160.8040  204.2570  149.5240 C   0  0  0  0  0  3  0  0  0  0  0  0
  161.4700  207.0800  149.3020 C   0  0  1  0  0  3  0  0  0  0  0  0
  161.0040  204.9610  150.6370 C   0  0  0  0  0  2  0  0  0  0  0  0
  161.4020  207.4260  154.3500 C   0  0  0  0  0  3  0  0  0  0  0  0
  160.8260  208.6200  154.2070 C   0  0  0  0  0  3  0  0  0  0  0  0
  161.7090  206.5200  153.1850 C   0  0  0  0  0  0  0  0  0  0  0  0
  159.8920  210.2800  152.6830 N   0  0  0  0  0  2  0  0  0  0  0  0
  160.7890  208.3010  151.7000 C   0  0  0  0  0  3  0  0  0  0  0  0
  161.0480  205.3040  153.3620 O   0  0  0  0  0  1  0  0  0  0  0  0
  160.4670  209.1260  152.8700 C   0  0  0  0  0  0  0  0  0  0  0  0
  161.3690  207.1000  151.8290 C   0  0  0  0  0  0  0  0  0  0  0  0
  160.3510  211.9040  154.3250 O   0  0  0  0  0  0  0  0  0  0  0  0
  159.4990  211.2360  153.6800 C   0  0  0  0  0  0  0  0  0  0  0  0
  158.1170  211.4320  153.9460 N   0  0  0  0  0  1  0  0  0  0  0  0
  162.4830  208.2130  149.1980 C   0  0  0  0  0  2  0  0  0  0  0  0
  161.8590  209.3970  148.4900 C   0  0  0  0  0  2  0  0  0  0  0  0
  162.0410  210.8790  149.5190 S   0  0  0  0  0  0  0  0  0  0  0  0
  162.2880  211.9390  148.0900 C   0  0  0  0  0  0  0  0  0  0  0  0
  163.5000  212.4200  147.8290 C   0  0  0  0  0  2  0  0  0  0  0  0
  160.0070  214.3490  146.7010 C   0  0  0  0  0  2  0  0  0  0  0  0
  161.1310  212.3540  147.2360 C   0  0  1  0  0  3  0  0  0  0  0  0
  159.3140  213.5940  147.8080 C   0  0  2  0  0  0  0  0  0  0  0  0
  159.9380  212.3450  147.9860 O   0  0  0  0  0  0  0  0  0  0  0  0
  161.3620  213.7290  146.6550 C   0  0  0  0  0  2  0  0  0  0  0  0
  157.8580  213.3900  147.4440 C   0  0  0  0  0  1  0  0  0  0  0  0
  159.3950  214.3260  148.9930 O   0  0  0  0  0  1  0  0  0  0  0  0
  1  2  1  0  0  0  0
  1  6  1  0  0  0  0
  2  5  2  0  0  0  0
  3  1  2  0  0  0  0
  4  7  1  0  0  0  0
  4 15  1  1  0  0  0
  5  7  1  0  0  0  0
  6 19  1  6  0  0  0
  6  4  1  0  0  0  0
  9  8  1  0  0  0  0
 10 13  1  0  0  0  0
 10  8  2  0  0  0  0
 11 14  1  0  0  0  0
 11 17  1  0  0  0  0
 12 15  2  0  0  0  0
 12 14  1  0  0  0  0
 14  9  2  0  0  0  0
 15 10  1  0  0  0  0
 17 18  1  0  0  0  0
 17 16  2  0  0  0  0
 20 19  1  0  0  0  0
 20 21  1  0  0  0  0
 22 21  1  0  0  0  0
 23 22  2  0  0  0  0
 24 26  1  0  0  0  0
 25 27  1  0  0  0  0
 25 22  1  1  0  0  0
 26 29  1  6  0  0  0
 26 27  1  0  0  0  0
 26 30  1  0  0  0  0
 28 24  1  0  0  0  0
 28 25  1  0  0  0  0
M  END
>  <MODEL>
3

>  <REMARK>
 VINA RESULT:      -6.7      2.555      6.773
  Name = 
  7 active torsions:
  status: ('A' for Active; 'I' for Inactive)
    1  A    between atoms: C_1  and  S_4
    2  A    between atoms: C_1  and  C_5
    3  A    between atoms: S_4  and  C_27
    4  A    between atoms: C_5  and  C_22
    5  A    between atoms: C_8  and  C_27
    6  A    between atoms: C_15  and  N_16
    7  A    between atoms: C_19  and  C_29
                            x       y       z     vdW  Elec       q    Type
                         _______ _______ _______ _____ _____    ______ ____

>  <TORSDO>
F 7

$$$$
=
 OpenBabel11052421483D

 30 32  0  0  1  0  0  0  0  0999 V2000
  161.1580  207.1030  153.7050 C   0  0  0  0  0  0  0  0  0  0  0  0
  160.9980  207.5340  155.0590 N   0  0  0  0  0  2  0  0  0  0  0  0
  161.2970  205.8750  153.4580 O   0  0  0  0  0  0  0  0  0  0  0  0
  161.5190  209.5020  153.0680 C   0  0  2  0  0  3  0  0  0  0  0  0
  160.8280  208.9190  155.3730 C   0  0  0  0  0  3  0  0  0  0  0  0
  161.0580  208.1130  152.5870 C   0  0  1  0  0  3  0  0  0  0  0  0
  161.0240  209.8560  154.4460 C   0  0  0  0  0  3  0  0  0  0  0  0
  159.8950  212.6880  151.4530 C   0  0  0  0  0  3  0  0  0  0  0  0
  160.5430  212.7380  150.2890 C   0  0  0  0  0  3  0  0  0  0  0  0
  160.1170  211.5940  152.4670 C   0  0  0  0  0  0  0  0  0  0  0  0
  162.1860  211.7120  148.8070 N   0  0  0  0  0  2  0  0  0  0  0  0
  161.8250  210.6510  150.9110 C   0  0  0  0  0  3  0  0  0  0  0  0
  158.9090  210.9390  152.7080 O   0  0  0  0  0  1  0  0  0  0  0  0
  161.5380  211.7100  149.9370 C   0  0  0  0  0  0  0  0  0  0  0  0
  161.1830  210.5880  152.0860 C   0  0  0  0  0  0  0  0  0  0  0  0
  161.2780  212.4490  146.7630 O   0  0  0  0  0  0  0  0  0  0  0  0
  162.0630  212.6510  147.7270 C   0  0  0  0  0  0  0  0  0  0  0  0
  162.8480  213.8360  147.7470 N   0  0  0  0  0  1  0  0  0  0  0  0
  161.8830  207.6880  151.3800 C   0  0  0  0  0  2  0  0  0  0  0  0
  160.9730  207.4360  150.1970 C   0  0  0  0  0  2  0  0  0  0  0  0
  160.8590  205.6520  149.8940 S   0  0  0  0  0  0  0  0  0  0  0  0
  161.6840  205.7880  148.3040 C   0  0  0  0  0  0  0  0  0  0  0  0
  161.9300  206.9900  147.7920 C   0  0  0  0  0  2  0  0  0  0  0  0
  162.5600  204.0460  145.2810 C   0  0  0  0  0  2  0  0  0  0  0  0
  162.0250  204.5650  147.5110 C   0  0  1  0  0  3  0  0  0  0  0  0
  161.0970  203.8220  145.5740 C   0  0  2  0  0  0  0  0  0  0  0  0
  160.8610  204.0020  146.9500 O   0  0  0  0  0  0  0  0  0  0  0  0
  163.0150  204.8950  146.4190 C   0  0  0  0  0  2  0  0  0  0  0  0
  160.7120  202.4130  145.1710 C   0  0  0  0  0  1  0  0  0  0  0  0
  160.3310  204.7350  144.8490 O   0  0  0  0  0  1  0  0  0  0  0  0
  1  2  1  0  0  0  0
  2  5  1  0  0  0  0
  3  1  2  0  0  0  0
  4 15  1  6  0  0  0
  4  7  1  0  0  0  0
  6 19  1  6  0  0  0
  6  4  1  0  0  0  0
  6  1  1  0  0  0  0
  7  5  2  0  0  0  0
  8 10  1  0  0  0  0
  9  8  2  0  0  0  0
 10 13  1  0  0  0  0
 11 14  1  0  0  0  0
 12 15  1  0  0  0  0
 14  9  1  0  0  0  0
 14 12  2  0  0  0  0
 15 10  2  0  0  0  0
 16 17  2  0  0  0  0
 17 18  1  0  0  0  0
 17 11  1  0  0  0  0
 20 19  1  0  0  0  0
 21 20  1  0  0  0  0
 22 21  1  0  0  0  0
 23 22  2  0  0  0  0
 24 26  1  0  0  0  0
 24 28  1  0  0  0  0
 25 22  1  6  0  0  0
 26 29  1  6  0  0  0
 26 27  1  0  0  0  0
 27 25  1  0  0  0  0
 28 25  1  0  0  0  0
 30 26  1  0  0  0  0
M  END
>  <MODEL>
4

>  <REMARK>
 VINA RESULT:      -6.6      1.468      1.806
  Name = 
  7 active torsions:
  status: ('A' for Active; 'I' for Inactive)
    1  A    between atoms: C_1  and  S_4
    2  A    between atoms: C_1  and  C_5
    3  A    between atoms: S_4  and  C_27
    4  A    between atoms: C_5  and  C_22
    5  A    between atoms: C_8  and  C_27
    6  A    between atoms: C_15  and  N_16
    7  A    between atoms: C_19  and  C_29
                            x       y       z     vdW  Elec       q    Type
                         _______ _______ _______ _____ _____    ______ ____

>  <TORSDO>
F 7

$$$$
=
 OpenBabel11052421483D

 30 32  0  0  1  0  0  0  0  0999 V2000
  161.4910  207.4500  152.8380 C   0  0  0  0  0  0  0  0  0  0  0  0
  161.2960  206.6270  153.9910 N   0  0  0  0  0  2  0  0  0  0  0  0
  161.6970  208.6840  152.9870 O   0  0  0  0  0  0  0  0  0  0  0  0
  160.6830  205.5360  151.4330 C   0  0  2  0  0  3  0  0  0  0  0  0
  161.0690  205.2200  153.8580 C   0  0  0  0  0  3  0  0  0  0  0  0
  161.5440  206.8130  151.4710 C   0  0  1  0  0  3  0  0  0  0  0  0
  160.8230  204.6810  152.6650 C   0  0  0  0  0  3  0  0  0  0  0  0
  160.9310  202.4950  148.9650 C   0  0  0  0  0  3  0  0  0  0  0  0
  161.2790  203.1140  147.8380 C   0  0  0  0  0  3  0  0  0  0  0  0
  160.7430  203.2220  150.2730 C   0  0  0  0  0  0  0  0  0  0  0  0
  161.8410  205.2180  146.7380 N   0  0  0  0  0  2  0  0  0  0  0  0
  161.2710  205.3320  149.0500 C   0  0  0  0  0  3  0  0  0  0  0  0
  161.6160  202.6910  151.2230 O   0  0  0  0  0  1  0  0  0  0  0  0
  161.4890  204.5730  147.8130 C   0  0  0  0  0  0  0  0  0  0  0  0
  160.9190  204.7230  150.1910 C   0  0  0  0  0  0  0  0  0  0  0  0
  163.2130  204.1690  145.1370 O   0  0  0  0  0  0  0  0  0  0  0  0
  162.0980  204.6750  145.4340 C   0  0  0  0  0  0  0  0  0  0  0  0
  161.0680  204.7100  144.4540 N   0  0  0  0  0  1  0  0  0  0  0  0
  161.0750  207.7790  150.3900 C   0  0  0  0  0  2  0  0  0  0  0  0
  162.2100  208.7010  149.9970 C   0  0  0  0  0  2  0  0  0  0  0  0
  161.9950  209.2190  148.2730 S   0  0  0  0  0  0  0  0  0  0  0  0
  161.9550  210.9590  148.7170 C   0  0  0  0  0  0  0  0  0  0  0  0
  161.9440  211.3100  150.0000 C   0  0  0  0  0  2  0  0  0  0  0  0
  161.1970  214.2710  147.5350 C   0  0  0  0  0  2  0  0  0  0  0  0
  161.8520  212.0170  147.6620 C   0  0  1  0  0  3  0  0  0  0  0  0
  160.0770  213.3390  147.1430 C   0  0  2  0  0  0  0  0  0  0  0  0
  160.5630  212.0190  147.0930 O   0  0  0  0  0  0  0  0  0  0  0  0
  162.1610  213.3780  148.2390 C   0  0  0  0  0  2  0  0  0  0  0  0
  159.5410  213.7380  145.7840 C   0  0  0  0  0  1  0  0  0  0  0  0
  159.0520  213.4190  148.0860 O   0  0  0  0  0  1  0  0  0  0  0  0
  1  3  2  0  0  0  0
  1  2  1  0  0  0  0
  4 15  1  6  0  0  0
  4  6  1  0  0  0  0
  4  7  1  0  0  0  0
  5  2  1  0  0  0  0
  6 19  1  6  0  0  0
  6  1  1  0  0  0  0
  7  5  2  0  0  0  0
  8 10  1  0  0  0  0
  9  8  2  0  0  0  0
 10 13  1  0  0  0  0
 11 14  1  0  0  0  0
 12 15  1  0  0  0  0
 14  9  1  0  0  0  0
 14 12  2  0  0  0  0
 15 10  2  0  0  0  0
 16 17  2  0  0  0  0
 17 11  1  0  0  0  0
 18 17  1  0  0  0  0
 20 19  1  0  0  0  0
 21 22  1  0  0  0  0
 21 20  1  0  0  0  0
 22 23  2  0  0  0  0
 24 28  1  0  0  0  0
 25 28  1  0  0  0  0
 25 22  1  1  0  0  0
 26 29  1  6  0  0  0
 26 24  1  0  0  0  0
 26 30  1  0  0  0  0
 27 26  1  0  0  0  0
 27 25  1  0  0  0  0
M  END
>  <MODEL>
5

>  <REMARK>
 VINA RESULT:      -6.5      2.898      6.963
  Name = 
  7 active torsions:
  status: ('A' for Active; 'I' for Inactive)
    1  A    between atoms: C_1  and  S_4
    2  A    between atoms: C_1  and  C_5
    3  A    between atoms: S_4  and  C_27
    4  A    between atoms: C_5  and  C_22
    5  A    between atoms: C_8  and  C_27
    6  A    between atoms: C_15  and  N_16
    7  A    between atoms: C_19  and  C_29
                            x       y       z     vdW  Elec       q    Type
                         _______ _______ _______ _____ _____    ______ ____

>  <TORSDO>
F 7

$$$$
=
 OpenBabel11052421483D

 30 32  0  0  1  0  0  0  0  0999 V2000
  161.4760  206.5080  152.3890 C   0  0  0  0  0  0  0  0  0  0  0  0
  161.2260  205.4950  153.3670 N   0  0  0  0  0  2  0  0  0  0  0  0
  161.7190  207.6860  152.7660 O   0  0  0  0  0  0  0  0  0  0  0  0
  160.6420  204.9150  150.6410 C   0  0  2  0  0  3  0  0  0  0  0  0
  160.9560  204.1470  152.9740 C   0  0  0  0  0  3  0  0  0  0  0  0
  161.5430  206.1310  150.9290 C   0  0  1  0  0  3  0  0  0  0  0  0
  160.7230  203.8450  151.6970 C   0  0  0  0  0  3  0  0  0  0  0  0
  161.5170  204.6080  146.8290 C   0  0  0  0  0  3  0  0  0  0  0  0
  161.4310  203.2890  146.6560 C   0  0  0  0  0  3  0  0  0  0  0  0
  161.2230  205.2820  148.1450 C   0  0  0  0  0  0  0  0  0  0  0  0
  160.9380  201.1150  147.6480 N   0  0  0  0  0  2  0  0  0  0  0  0
  160.7980  203.0110  149.0870 C   0  0  0  0  0  3  0  0  0  0  0  0
  160.1910  206.2040  147.9680 O   0  0  0  0  0  1  0  0  0  0  0  0
  161.0470  202.4070  147.7730 C   0  0  0  0  0  0  0  0  0  0  0  0
  160.8820  204.3360  149.2760 C   0  0  0  0  0  0  0  0  0  0  0  0
  161.9150  199.3340  146.4580 O   0  0  0  0  0  0  0  0  0  0  0  0
  161.1420  200.3290  146.4640 C   0  0  0  0  0  0  0  0  0  0  0  0
  160.4560  200.6830  145.2700 N   0  0  0  0  0  1  0  0  0  0  0  0
  161.1330  207.2960  150.0360 C   0  0  0  0  0  2  0  0  0  0  0  0
  162.3090  208.2290  149.8360 C   0  0  0  0  0  2  0  0  0  0  0  0
  161.9560  209.3550  148.4600 S   0  0  0  0  0  0  0  0  0  0  0  0
  161.9850  210.7990  149.5290 C   0  0  0  0  0  0  0  0  0  0  0  0
  161.8890  210.6440  150.8460 C   0  0  0  0  0  2  0  0  0  0  0  0
  160.4990  213.7800  148.1700 C   0  0  0  0  0  2  0  0  0  0  0  0
  162.0340  212.1790  148.9500 C   0  0  1  0  0  3  0  0  0  0  0  0
  161.0710  212.9560  147.0430 C   0  0  2  0  0  0  0  0  0  0  0  0
  162.0880  212.1200  147.5430 O   0  0  0  0  0  0  0  0  0  0  0  0
  160.8320  212.9830  149.3860 C   0  0  0  0  0  2  0  0  0  0  0  0
  161.6420  213.8770  145.9850 C   0  0  0  0  0  1  0  0  0  0  0  0
  160.0630  212.1730  146.4800 O   0  0  0  0  0  1  0  0  0  0  0  0
  1  3  2  0  0  0  0
  1  2  1  0  0  0  0
  4 15  1  6  0  0  0
  4  6  1  0  0  0  0
  4  7  1  0  0  0  0
  5  2  1  0  0  0  0
  6 19  1  6  0  0  0
  6  1  1  0  0  0  0
  7  5  2  0  0  0  0
  8 10  1  0  0  0  0
  9  8  2  0  0  0  0
  9 14  1  0  0  0  0
 10 15  2  0  0  0  0
 11 14  1  0  0  0  0
 12 15  1  0  0  0  0
 13 10  1  0  0  0  0
 14 12  2  0  0  0  0
 16 17  2  0  0  0  0
 17 11  1  0  0  0  0
 18 17  1  0  0  0  0
 20 19  1  0  0  0  0
 21 22  1  0  0  0  0
 21 20  1  0  0  0  0
 22 23  2  0  0  0  0
 24 28  1  0  0  0  0
 25 28  1  0  0  0  0
 25 22  1  1  0  0  0
 26 29  1  6  0  0  0
 26 27  1  0  0  0  0
 26 24  1  0  0  0  0
 27 25  1  0  0  0  0
 30 26  1  0  0  0  0
M  END
>  <MODEL>
6

>  <REMARK>
 VINA RESULT:      -6.5      3.626      7.767
  Name = 
  7 active torsions:
  status: ('A' for Active; 'I' for Inactive)
    1  A    between atoms: C_1  and  S_4
    2  A    between atoms: C_1  and  C_5
    3  A    between atoms: S_4  and  C_27
    4  A    between atoms: C_5  and  C_22
    5  A    between atoms: C_8  and  C_27
    6  A    between atoms: C_15  and  N_16
    7  A    between atoms: C_19  and  C_29
                            x       y       z     vdW  Elec       q    Type
                         _______ _______ _______ _____ _____    ______ ____

>  <TORSDO>
F 7

$$$$
=
 OpenBabel11052421483D

 30 32  0  0  1  0  0  0  0  0999 V2000
  161.9550  205.9550  152.7390 C   0  0  0  0  0  0  0  0  0  0  0  0
  161.2060  205.0290  153.5290 N   0  0  0  0  0  2  0  0  0  0  0  0
  162.5820  206.8890  153.3080 O   0  0  0  0  0  0  0  0  0  0  0  0
  160.8120  205.0270  150.7090 C   0  0  2  0  0  3  0  0  0  0  0  0
  160.4910  203.9520  152.9160 C   0  0  0  0  0  3  0  0  0  0  0  0
  162.0660  205.7420  151.2490 C   0  0  1  0  0  3  0  0  0  0  0  0
  160.3320  203.9070  151.5940 C   0  0  0  0  0  3  0  0  0  0  0  0
  161.6270  204.9780  146.8710 C   0  0  0  0  0  3  0  0  0  0  0  0
  161.4240  203.6920  146.5870 C   0  0  0  0  0  3  0  0  0  0  0  0
  161.4040  205.5580  148.2450 C   0  0  0  0  0  0  0  0  0  0  0  0
  160.7500  201.4910  147.3960 N   0  0  0  0  0  2  0  0  0  0  0  0
  160.7880  203.2590  148.9950 C   0  0  0  0  0  3  0  0  0  0  0  0
  160.4550  206.5780  148.1640 O   0  0  0  0  0  1  0  0  0  0  0  0
  160.9730  202.7530  147.6300 C   0  0  0  0  0  0  0  0  0  0  0  0
  160.9900  204.5500  149.2950 C   0  0  0  0  0  0  0  0  0  0  0  0
  161.5800  199.7580  146.0360 O   0  0  0  0  0  0  0  0  0  0  0  0
  160.8750  200.7960  146.1460 C   0  0  0  0  0  0  0  0  0  0  0  0
  160.1870  201.2920  145.0050 N   0  0  0  0  0  1  0  0  0  0  0  0
  162.2610  207.0610  150.5130 C   0  0  0  0  0  2  0  0  0  0  0  0
  161.2270  208.0660  150.9750 C   0  0  0  0  0  2  0  0  0  0  0  0
  162.0120  209.6880  151.1780 S   0  0  0  0  0  0  0  0  0  0  0  0
  160.9750  210.1030  152.5850 C   0  0  0  0  0  0  0  0  0  0  0  0
  159.8220  210.7360  152.3880 C   0  0  0  0  0  2  0  0  0  0  0  0
  160.4450  209.5620  156.1020 C   0  0  0  0  0  2  0  0  0  0  0  0
  161.4310  209.8180  153.9820 C   0  0  1  0  0  3  0  0  0  0  0  0
  160.9640  210.9620  155.8910 C   0  0  2  0  0  0  0  0  0  0  0  0
  161.6720  211.0210  154.6750 O   0  0  0  0  0  0  0  0  0  0  0  0
  160.4010  208.9970  154.7230 C   0  0  0  0  0  2  0  0  0  0  0  0
  161.8830  211.3370  157.0350 C   0  0  0  0  0  1  0  0  0  0  0  0
  159.8940  211.8550  155.8470 O   0  0  0  0  0  1  0  0  0  0  0  0
  1  3  2  0  0  0  0
  1  2  1  0  0  0  0
  4 15  1  6  0  0  0
  4  6  1  0  0  0  0
  4  7  1  0  0  0  0
  5  2  1  0  0  0  0
  6 19  1  6  0  0  0
  6  1  1  0  0  0  0
  7  5  2  0  0  0  0
  8 10  1  0  0  0  0
  9  8  2  0  0  0  0
  9 14  1  0  0  0  0
 10 15  2  0  0  0  0
 11 14  1  0  0  0  0
 12 15  1  0  0  0  0
 13 10  1  0  0  0  0
 14 12  2  0  0  0  0
 16 17  2  0  0  0  0
 17 11  1  0  0  0  0
 18 17  1  0  0  0  0
 19 20  1  0  0  0  0
 20 21  1  0  0  0  0
 21 22  1  0  0  0  0
 23 22  2  0  0  0  0
 25 22  1  6  0  0  0
 25 27  1  0  0  0  0
 25 28  1  0  0  0  0
 26 24  1  0  0  0  0
 26 29  1  1  0  0  0
 27 26  1  0  0  0  0
 28 24  1  0  0  0  0
 30 26  1  0  0  0  0
M  END
>  <MODEL>
7

>  <REMARK>
 VINA RESULT:      -6.3      3.556      8.257
  Name = 
  7 active torsions:
  status: ('A' for Active; 'I' for Inactive)
    1  A    between atoms: C_1  and  S_4
    2  A    between atoms: C_1  and  C_5
    3  A    between atoms: S_4  and  C_27
    4  A    between atoms: C_5  and  C_22
    5  A    between atoms: C_8  and  C_27
    6  A    between atoms: C_15  and  N_16
    7  A    between atoms: C_19  and  C_29
                            x       y       z     vdW  Elec       q    Type
                         _______ _______ _______ _____ _____    ______ ____

>  <TORSDO>
F 7

$$$$
=
 OpenBabel11052421483D

 30 32  0  0  1  0  0  0  0  0999 V2000
  161.5350  205.6660  152.2120 C   0  0  0  0  0  0  0  0  0  0  0  0
  161.2030  205.3350  153.5630 N   0  0  0  0  0  0  0  0  0  0  0  0
  161.9180  204.7570  151.4280 O   0  0  0  0  0  0  0  0  0  0  0  0
  161.4890  208.0840  152.8770 C   0  0  2  0  0  3  0  0  0  0  0  0
  160.7570  206.3410  154.4760 C   0  0  0  0  0  3  0  0  0  0  0  0
  161.3290  207.0780  151.7210 C   0  0  1  0  0  3  0  0  0  0  0  0
  160.8400  207.6330  154.1590 C   0  0  0  0  0  2  0  0  0  0  0  0
  161.2020  211.5490  151.0590 C   0  0  0  0  0  3  0  0  0  0  0  0
  160.1490  212.0750  151.6850 C   0  0  0  0  0  3  0  0  0  0  0  0
  161.7770  210.2020  151.4170 C   0  0  0  0  0  0  0  0  0  0  0  0
  158.4540  211.8230  153.4200 N   0  0  0  0  0  2  0  0  0  0  0  0
  159.9700  210.0070  153.1250 C   0  0  0  0  0  3  0  0  0  0  0  0
  163.1150  210.3570  151.7840 O   0  0  0  0  0  1  0  0  0  0  0  0
  159.4770  211.3430  152.7720 C   0  0  0  0  0  0  0  0  0  0  0  0
  161.0260  209.4640  152.5040 C   0  0  0  0  0  0  0  0  0  0  0  0
  157.5930  213.8720  154.1980 O   0  0  0  0  0  0  0  0  0  0  0  0
  157.8140  213.0950  153.2310 C   0  0  0  0  0  0  0  0  0  0  0  0
  157.4210  213.4850  151.9220 N   0  0  0  0  0  1  0  0  0  0  0  0
  162.3020  207.4250  150.6020 C   0  0  0  0  0  2  0  0  0  0  0  0
  161.5380  207.7370  149.3330 C   0  0  0  0  0  2  0  0  0  0  0  0
  162.3450  206.9240  147.9280 S   0  0  0  0  0  0  0  0  0  0  0  0
  161.3070  205.4650  148.0730 C   0  0  0  0  0  0  0  0  0  0  0  0
  160.0850  205.5760  148.5860 C   0  0  0  0  0  2  0  0  0  0  0  0
  161.0190  202.1840  146.6270 C   0  0  0  0  0  2  0  0  0  0  0  0
  161.8300  204.1140  147.6980 C   0  0  1  0  0  3  0  0  0  0  0  0
  160.9290  202.0710  148.1290 C   0  0  2  0  0  0  0  0  0  0  0  0
  161.5610  203.1810  148.7210 O   0  0  0  0  0  0  0  0  0  0  0  0
  161.2160  203.6440  146.4000 C   0  0  0  0  0  2  0  0  0  0  0  0
  161.6110  200.7960  148.5800 C   0  0  0  0  0  1  0  0  0  0  0  0
  159.5890  202.0400  148.5150 O   0  0  0  0  0  1  0  0  0  0  0  0
  1  2  1  0  0  0  0
  2  5  2  0  0  0  0
  3  1  2  0  0  0  0
  4 15  1  6  0  0  0
  4  7  1  0  0  0  0
  6 19  1  6  0  0  0
  6  1  1  0  0  0  0
  6  4  1  0  0  0  0
  7  5  1  0  0  0  0
  8 10  2  0  0  0  0
  8  9  1  0  0  0  0
  9 14  2  0  0  0  0
 10 13  1  0  0  0  0
 10 15  1  0  0  0  0
 14 12  1  0  0  0  0
 14 11  1  0  0  0  0
 15 12  2  0  0  0  0
 17 11  1  0  0  0  0
 17 16  2  0  0  0  0
 18 17  1  0  0  0  0
 20 19  1  0  0  0  0
 21 22  1  0  0  0  0
 21 20  1  0  0  0  0
 22 23  2  0  0  0  0
 24 26  1  0  0  0  0
 25 22  1  1  0  0  0
 25 27  1  0  0  0  0
 26 30  1  0  0  0  0
 26 29  1  1  0  0  0
 26 27  1  0  0  0  0
 28 24  1  0  0  0  0
 28 25  1  0  0  0  0
M  END
>  <MODEL>
8

>  <REMARK>
 VINA RESULT:      -6.0      2.823      3.960
  Name = 
  7 active torsions:
  status: ('A' for Active; 'I' for Inactive)
    1  A    between atoms: C_1  and  S_4
    2  A    between atoms: C_1  and  C_5
    3  A    between atoms: S_4  and  C_27
    4  A    between atoms: C_5  and  C_22
    5  A    between atoms: C_8  and  C_27
    6  A    between atoms: C_15  and  N_16
    7  A    between atoms: C_19  and  C_29
                            x       y       z     vdW  Elec       q    Type
                         _______ _______ _______ _____ _____    ______ ____

>  <TORSDO>
F 7

$$$$
=
 OpenBabel11052421483D

 30 32  0  0  1  0  0  0  0  0999 V2000
  160.8520  203.9300  150.3900 C   0  0  0  0  0  0  0  0  0  0  0  0
  160.9160  203.4750  151.7430 N   0  0  0  0  0  0  0  0  0  0  0  0
  160.5930  203.1070  149.4710 O   0  0  0  0  0  0  0  0  0  0  0  0
  161.8920  206.0830  151.1470 C   0  0  2  0  0  3  0  0  0  0  0  0
  161.1990  204.3840  152.8110 C   0  0  0  0  0  3  0  0  0  0  0  0
  160.9980  205.4030  150.0930 C   0  0  1  0  0  3  0  0  0  0  0  0
  161.6150  205.6240  152.5550 C   0  0  0  0  0  2  0  0  0  0  0  0
  161.6900  209.8680  152.1590 C   0  0  0  0  0  3  0  0  0  0  0  0
  161.8220  210.4540  150.9690 C   0  0  0  0  0  3  0  0  0  0  0  0
  161.6550  208.3710  152.3350 C   0  0  0  0  0  0  0  0  0  0  0  0
  162.0750  210.1760  148.5590 N   0  0  0  0  0  2  0  0  0  0  0  0
  161.9760  208.1850  149.8670 C   0  0  0  0  0  3  0  0  0  0  0  0
  160.4530  208.0090  152.9430 O   0  0  0  0  0  1  0  0  0  0  0  0
  161.9560  209.6470  149.7440 C   0  0  0  0  0  0  0  0  0  0  0  0
  161.8450  207.5820  151.0570 C   0  0  0  0  0  0  0  0  0  0  0  0
  161.0340  212.1760  147.8820 O   0  0  0  0  0  0  0  0  0  0  0  0
  162.0860  211.5710  148.2180 C   0  0  0  0  0  0  0  0  0  0  0  0
  163.3150  212.2850  148.2610 N   0  0  0  0  0  1  0  0  0  0  0  0
  161.5770  205.6350  148.7030 C   0  0  0  0  0  2  0  0  0  0  0  0
  160.4570  205.7340  147.6890 C   0  0  0  0  0  2  0  0  0  0  0  0
  161.1240  206.3320  146.1130 S   0  0  0  0  0  0  0  0  0  0  0  0
  162.0650  204.8260  145.8460 C   0  0  0  0  0  0  0  0  0  0  0  0
  163.2790  204.7060  146.3760 C   0  0  0  0  0  2  0  0  0  0  0  0
  159.4620  202.6950  144.5710 C   0  0  0  0  0  2  0  0  0  0  0  0
  161.5320  203.7360  144.9690 C   0  0  1  0  0  3  0  0  0  0  0  0
  160.3020  201.9150  145.5520 C   0  0  2  0  0  0  0  0  0  0  0  0
  161.5810  202.4970  145.6400 O   0  0  0  0  0  0  0  0  0  0  0  0
  160.1140  204.0360  144.5460 C   0  0  0  0  0  2  0  0  0  0  0  0
  160.4260  200.4810  145.0800 C   0  0  0  0  0  1  0  0  0  0  0  0
  159.6950  201.9370  146.8070 O   0  0  0  0  0  1  0  0  0  0  0  0
  1  2  1  0  0  0  0
  2  5  2  0  0  0  0
  3  1  2  0  0  0  0
  4 15  1  1  0  0  0
  4  7  1  0  0  0  0
  6 19  1  6  0  0  0
  6  1  1  0  0  0  0
  6  4  1  0  0  0  0
  7  5  1  0  0  0  0
  8 10  1  0  0  0  0
  9  8  2  0  0  0  0
 10 13  1  0  0  0  0
 11 14  1  0  0  0  0
 12 15  1  0  0  0  0
 14 12  2  0  0  0  0
 14  9  1  0  0  0  0
 15 10  2  0  0  0  0
 16 17  2  0  0  0  0
 17 18  1  0  0  0  0
 17 11  1  0  0  0  0
 20 19  1  0  0  0  0
 21 20  1  0  0  0  0
 22 21  1  0  0  0  0
 22 23  2  0  0  0  0
 24 26  1  0  0  0  0
 25 27  1  0  0  0  0
 25 22  1  1  0  0  0
 26 29  1  6  0  0  0
 26 27  1  0  0  0  0
 26 30  1  0  0  0  0
 28 24  1  0  0  0  0
 28 25  1  0  0  0  0
M  END
>  <MODEL>
9

>  <REMARK>
 VINA RESULT:      -5.9      2.561      4.318
  Name = 
  7 active torsions:
  status: ('A' for Active; 'I' for Inactive)
    1  A    between atoms: C_1  and  S_4
    2  A    between atoms: C_1  and  C_5
    3  A    between atoms: S_4  and  C_27
    4  A    between atoms: C_5  and  C_22
    5  A    between atoms: C_8  and  C_27
    6  A    between atoms: C_15  and  N_16
    7  A    between atoms: C_19  and  C_29
                            x       y       z     vdW  Elec       q    Type
                         _______ _______ _______ _____ _____    ______ ____

>  <TORSDO>
F 7

$$$$
