=
 OpenBabel11052421463D

 30 32  0  0  1  0  0  0  0  0999 V2000
  161.1920  208.2750  151.7330 N   0  0  1  0  0  0  0  0  0  0  0  0
  162.0600  208.7660  152.8270 C   0  0  1  0  0  3  0  0  0  0  0  0
  161.8250  209.6090  151.6290 C   0  0  2  0  0  3  0  0  0  0  0  0
  161.3460  207.5310  149.4450 C   0  0  0  0  0  0  0  0  0  0  0  0
  160.5320  206.4450  148.8640 C   0  0  0  0  0  3  0  0  0  0  0  0
  161.5110  208.6030  148.8010 O   0  0  0  0  0  0  0  0  0  0  0  0
  161.9230  205.9490  151.3020 C   0  0  0  0  0  3  0  0  0  0  0  0
  161.2840  203.5910  151.2440 C   0  0  0  0  0  1  0  0  0  0  0  0
  161.9330  207.3960  150.8290 C   0  0  2  0  0  3  0  0  0  0  0  0
  160.4810  205.2470  149.4590 C   0  0  0  0  0  3  0  0  0  0  0  0
  161.2360  204.9790  150.6920 C   0  0  0  0  0  0  0  0  0  0  0  0
  159.8140  212.7990  151.0300 C   0  0  0  0  0  3  0  0  0  0  0  0
  160.8290  211.8330  150.9200 C   0  0  0  0  0  0  0  0  0  0  0  0
  159.7030  210.5240  152.6360 C   0  0  0  0  0  3  0  0  0  0  0  0
  160.7880  210.6990  151.7550 C   0  0  0  0  0  0  0  0  0  0  0  0
  158.7540  212.6260  151.9280 C   0  0  0  0  0  3  0  0  0  0  0  0
  158.6930  211.4840  152.7260 C   0  0  0  0  0  3  0  0  0  0  0  0
  161.8680  211.9610  149.9790 O   0  0  0  0  0  0  0  0  0  0  0  0
  161.4820  214.0790  148.8560 C   0  0  0  0  0  1  0  0  0  0  0  0
  163.0850  212.4400  147.9700 C   0  0  0  0  0  1  0  0  0  0  0  0
  160.6850  211.9380  147.8550 C   0  0  0  0  0  1  0  0  0  0  0  0
  161.7670  212.5960  148.6990 C   0  0  0  0  0  0  0  0  0  0  0  0
  161.1930  209.0660  154.0600 C   0  0  2  0  0  3  0  0  0  0  0  0
  160.9250  211.6650  155.4310 O   0  0  0  0  0  0  0  0  0  0  0  0
  161.8380  210.8720  155.7880 C   0  0  0  0  0  0  0  0  0  0  0  0
  162.7620  211.2750  156.8770 C   0  0  0  0  0  1  0  0  0  0  0  0
  161.9940  209.5830  155.1740 N   0  0  0  0  0  2  0  0  0  0  0  0
  161.0270  206.6740  154.4480 O   0  0  0  0  0  1  0  0  0  0  0  0
  159.7220  208.1030  155.8540 C   0  0  0  0  0  1  0  0  0  0  0  0
  160.3110  207.8760  154.4700 C   0  0  1  0  0  3  0  0  0  0  0  0
  1  9  1  6  0  0  0
  1  2  1  0  0  0  0
  2 23  1  1  0  0  0
  3  1  1  0  0  0  0
  3 15  1  1  0  0  0
  3  2  1  0  0  0  0
  4  9  1  0  0  0  0
  5  4  1  0  0  0  0
  5 10  2  0  0  0  0
  6  4  2  0  0  0  0
  9  7  1  1  0  0  0
 10 11  1  0  0  0  0
 11  8  1  0  0  0  0
 11  7  2  0  0  0  0
 12 16  1  0  0  0  0
 13 12  2  0  0  0  0
 13 15  1  0  0  0  0
 14 17  1  0  0  0  0
 15 14  2  0  0  0  0
 16 17  2  0  0  0  0
 18 13  1  0  0  0  0
 20 22  1  0  0  0  0
 21 22  1  0  0  0  0
 22 19  1  0  0  0  0
 22 18  1  0  0  0  0
 23 30  1  0  0  0  0
 23 27  1  1  0  0  0
 24 25  2  0  0  0  0
 25 26  1  0  0  0  0
 27 25  1  0  0  0  0
 28 30  1  0  0  0  0
 30 29  1  1  0  0  0
M  END
>  <MODEL>
1

>  <REMARK>
 VINA RESULT:      -6.2      0.000      0.000
  Name = 
  7 active torsions:
  status: ('A' for Active; 'I' for Inactive)
    1  A    between atoms: N_1  and  C_22
    2  A    between atoms: C_4  and  C_23
    3  A    between atoms: C_5  and  C_12
    4  A    between atoms: C_8  and  O_13
    5  A    between atoms: O_13  and  C_30
    6  A    between atoms: C_23  and  N_25
    7  A    between atoms: C_23  and  C_26
                            x       y       z     vdW  Elec       q    Type
                         _______ _______ _______ _____ _____    ______ ____

>  <TORSDO>
F 7

$$$$
=
 OpenBabel11052421463D

 30 32  0  0  1  0  0  0  0  0999 V2000
  160.8290  209.2750  153.5860 N   0  0  1  0  0  0  0  0  0  0  0  0
  161.0710  210.7260  153.4090 C   0  0  1  0  0  3  0  0  0  0  0  0
  162.0370  209.7390  152.8680 C   0  0  2  0  0  3  0  0  0  0  0  0
  160.0630  208.5150  155.7420 C   0  0  0  0  0  0  0  0  0  0  0  0
  159.6660  209.4070  156.8480 C   0  0  0  0  0  3  0  0  0  0  0  0
  159.3510  207.5110  155.4610 O   0  0  0  0  0  0  0  0  0  0  0  0
  162.1800  209.8480  155.5800 C   0  0  0  0  0  3  0  0  0  0  0  0
  162.7640  211.5610  157.2200 C   0  0  0  0  0  1  0  0  0  0  0  0
  161.2790  208.8240  154.9020 C   0  0  2  0  0  3  0  0  0  0  0  0
  160.4900  210.3780  157.2610 C   0  0  0  0  0  3  0  0  0  0  0  0
  161.8060  210.5750  156.6360 C   0  0  0  0  0  0  0  0  0  0  0  0
  161.2370  207.9730  149.5790 C   0  0  0  0  0  3  0  0  0  0  0  0
  161.3660  208.2080  150.9580 C   0  0  0  0  0  0  0  0  0  0  0  0
  162.3030  210.3960  150.4490 C   0  0  0  0  0  3  0  0  0  0  0  0
  161.9340  209.4210  151.3960 C   0  0  0  0  0  0  0  0  0  0  0  0
  161.6310  208.9410  148.6470 C   0  0  0  0  0  3  0  0  0  0  0  0
  162.1570  210.1570  149.0810 C   0  0  0  0  0  3  0  0  0  0  0  0
  160.9170  207.2720  151.9090 O   0  0  0  0  0  0  0  0  0  0  0  0
  160.8230  204.9900  151.0840 C   0  0  0  0  0  1  0  0  0  0  0  0
  162.9330  205.9740  151.8750 C   0  0  0  0  0  1  0  0  0  0  0  0
  161.1740  205.4580  153.5080 C   0  0  0  0  0  1  0  0  0  0  0  0
  161.4340  205.9480  152.0910 C   0  0  0  0  0  0  0  0  0  0  0  0
  160.0380  211.2910  152.4210 C   0  0  2  0  0  3  0  0  0  0  0  0
  158.6200  213.0160  150.4930 O   0  0  0  0  0  0  0  0  0  0  0  0
  159.8430  213.2220  150.7190 C   0  0  0  0  0  0  0  0  0  0  0  0
  160.5390  214.3150  149.9970 C   0  0  0  0  0  1  0  0  0  0  0  0
  160.5730  212.4300  151.6690 N   0  0  0  0  0  2  0  0  0  0  0  0
  158.0520  210.4400  153.5310 O   0  0  0  0  0  1  0  0  0  0  0  0
  158.8810  212.5660  154.2490 C   0  0  0  0  0  1  0  0  0  0  0  0
  158.6890  211.6040  153.0870 C   0  0  1  0  0  3  0  0  0  0  0  0
  1  9  1  1  0  0  0
  2 23  1  6  0  0  0
  2  1  1  0  0  0  0
  3 15  1  6  0  0  0
  3  2  1  0  0  0  0
  3  1  1  0  0  0  0
  4  5  1  0  0  0  0
  5 10  2  0  0  0  0
  6  4  2  0  0  0  0
  7 11  2  0  0  0  0
  9  7  1  1  0  0  0
  9  4  1  0  0  0  0
 11  8  1  0  0  0  0
 11 10  1  0  0  0  0
 12 13  1  0  0  0  0
 13 15  2  0  0  0  0
 13 18  1  0  0  0  0
 14 15  1  0  0  0  0
 16 17  1  0  0  0  0
 16 12  2  0  0  0  0
 17 14  2  0  0  0  0
 18 22  1  0  0  0  0
 19 22  1  0  0  0  0
 20 22  1  0  0  0  0
 22 21  1  0  0  0  0
 23 27  1  1  0  0  0
 23 30  1  0  0  0  0
 24 25  2  0  0  0  0
 25 27  1  0  0  0  0
 26 25  1  0  0  0  0
 30 28  1  0  0  0  0
 30 29  1  1  0  0  0
M  END
>  <MODEL>
2

>  <REMARK>
 VINA RESULT:      -5.2      1.822      6.130
  Name = 
  7 active torsions:
  status: ('A' for Active; 'I' for Inactive)
    1  A    between atoms: N_1  and  C_22
    2  A    between atoms: C_4  and  C_23
    3  A    between atoms: C_5  and  C_12
    4  A    between atoms: C_8  and  O_13
    5  A    between atoms: O_13  and  C_30
    6  A    between atoms: C_23  and  N_25
    7  A    between atoms: C_23  and  C_26
                            x       y       z     vdW  Elec       q    Type
                         _______ _______ _______ _____ _____    ______ ____

>  <TORSDO>
F 7

$$$$
=
 OpenBabel11052421463D

 30 32  0  0  1  0  0  0  0  0999 V2000
  161.3690  210.8200  152.6130 N   0  0  1  0  0  0  0  0  0  0  0  0
  159.9590  210.4720  152.3230 C   0  0  1  0  0  3  0  0  0  0  0  0
  160.6180  209.9490  153.5450 C   0  0  2  0  0  3  0  0  0  0  0  0
  162.1490  210.2390  150.4070 C   0  0  0  0  0  0  0  0  0  0  0  0
  161.4750  209.2800  149.5100 C   0  0  0  0  0  3  0  0  0  0  0  0
  162.5680  211.3370  149.9480 O   0  0  0  0  0  0  0  0  0  0  0  0
  162.0400  208.4760  152.1850 C   0  0  0  0  0  3  0  0  0  0  0  0
  161.2940  206.1980  151.7110 C   0  0  0  0  0  1  0  0  0  0  0  0
  162.2870  209.9470  151.8810 C   0  0  2  0  0  3  0  0  0  0  0  0
  161.1700  208.0510  149.9430 C   0  0  0  0  0  3  0  0  0  0  0  0
  161.5040  207.6220  151.3090 C   0  0  0  0  0  0  0  0  0  0  0  0
  159.6270  210.6840  157.1580 C   0  0  0  0  0  3  0  0  0  0  0  0
  159.8270  209.9850  155.9550 C   0  0  0  0  0  0  0  0  0  0  0  0
  160.6870  212.0330  154.9610 C   0  0  0  0  0  3  0  0  0  0  0  0
  160.3330  210.6750  154.8370 C   0  0  0  0  0  0  0  0  0  0  0  0
  159.9590  212.0410  157.2610 C   0  0  0  0  0  3  0  0  0  0  0  0
  160.4970  212.7150  156.1650 C   0  0  0  0  0  3  0  0  0  0  0  0
  159.5570  208.6070  155.8530 O   0  0  0  0  0  0  0  0  0  0  0  0
  161.8530  208.1090  156.4640 C   0  0  0  0  0  1  0  0  0  0  0  0
  159.9910  206.7110  157.2550 C   0  0  0  0  0  1  0  0  0  0  0  0
  160.6060  206.6420  154.8790 C   0  0  0  0  0  1  0  0  0  0  0  0
  160.4910  207.5480  156.0960 C   0  0  0  0  0  0  0  0  0  0  0  0
  159.0870  211.7250  152.4940 C   0  0  2  0  0  3  0  0  0  0  0  0
  157.5870  213.2770  154.5060 O   0  0  0  0  0  0  0  0  0  0  0  0
  157.1130  212.1840  154.0930 C   0  0  0  0  0  0  0  0  0  0  0  0
  155.8220  211.7010  154.6420 C   0  0  0  0  0  1  0  0  0  0  0  0
  157.7880  211.4040  153.0930 N   0  0  0  0  0  2  0  0  0  0  0  0
  157.6920  213.1340  151.0910 O   0  0  0  0  0  1  0  0  0  0  0  0
  160.0370  213.6040  151.1250 C   0  0  0  0  0  1  0  0  0  0  0  0
  158.9540  212.5390  151.1970 C   0  0  1  0  0  3  0  0  0  0  0  0
  1  9  1  6  0  0  0
  1  3  1  0  0  0  0
  2 23  1  1  0  0  0
  2  1  1  0  0  0  0
  2  3  1  0  0  0  0
  3 15  1  1  0  0  0
  4  9  1  0  0  0  0
  5 10  2  0  0  0  0
  5  4  1  0  0  0  0
  6  4  2  0  0  0  0
  9  7  1  6  0  0  0
 10 11  1  0  0  0  0
 11  8  1  0  0  0  0
 11  7  2  0  0  0  0
 12 16  1  0  0  0  0
 13 12  2  0  0  0  0
 14 17  1  0  0  0  0
 15 14  2  0  0  0  0
 15 13  1  0  0  0  0
 17 16  2  0  0  0  0
 18 13  1  0  0  0  0
 18 22  1  0  0  0  0
 21 22  1  0  0  0  0
 22 19  1  0  0  0  0
 22 20  1  0  0  0  0
 23 27  1  6  0  0  0
 25 24  2  0  0  0  0
 25 26  1  0  0  0  0
 27 25  1  0  0  0  0
 28 30  1  0  0  0  0
 30 29  1  1  0  0  0
 30 23  1  0  0  0  0
M  END
>  <MODEL>
3

>  <REMARK>
 VINA RESULT:      -5.0      2.179      5.601
  Name = 
  7 active torsions:
  status: ('A' for Active; 'I' for Inactive)
    1  A    between atoms: N_1  and  C_22
    2  A    between atoms: C_4  and  C_23
    3  A    between atoms: C_5  and  C_12
    4  A    between atoms: C_8  and  O_13
    5  A    between atoms: O_13  and  C_30
    6  A    between atoms: C_23  and  N_25
    7  A    between atoms: C_23  and  C_26
                            x       y       z     vdW  Elec       q    Type
                         _______ _______ _______ _____ _____    ______ ____

>  <TORSDO>
F 7

$$$$
=
 OpenBabel11052421463D

 30 32  0  0  1  0  0  0  0  0999 V2000
  162.2430  209.2360  151.7560 N   0  0  1  0  0  0  0  0  0  0  0  0
  160.7700  209.3470  151.8620 C   0  0  1  0  0  3  0  0  0  0  0  0
  161.5460  208.6830  152.9390 C   0  0  2  0  0  3  0  0  0  0  0  0
  161.9140  208.2030  149.6040 C   0  0  0  0  0  0  0  0  0  0  0  0
  160.7930  207.3010  149.2740 C   0  0  0  0  0  3  0  0  0  0  0  0
  162.2490  209.1090  148.7910 O   0  0  0  0  0  0  0  0  0  0  0  0
  162.3260  206.7660  151.6160 C   0  0  0  0  0  3  0  0  0  0  0  0
  161.1330  204.6650  151.9770 C   0  0  0  0  0  1  0  0  0  0  0  0
  162.6260  208.0920  150.9310 C   0  0  2  0  0  3  0  0  0  0  0  0
  160.5310  206.2400  150.0460 C   0  0  0  0  0  3  0  0  0  0  0  0
  161.3520  205.9390  151.2290 C   0  0  0  0  0  0  0  0  0  0  0  0
  161.4060  210.1290  156.4700 C   0  0  0  0  0  3  0  0  0  0  0  0
  161.0590  209.3870  155.3280 C   0  0  0  0  0  0  0  0  0  0  0  0
  163.0030  210.3130  154.1930 C   0  0  0  0  0  3  0  0  0  0  0  0
  161.8490  209.5060  154.1670 C   0  0  0  0  0  0  0  0  0  0  0  0
  162.5420  210.9470  156.4740 C   0  0  0  0  0  3  0  0  0  0  0  0
  163.3470  211.0340  155.3380 C   0  0  0  0  0  3  0  0  0  0  0  0
  159.9560  208.5120  155.3260 O   0  0  0  0  0  0  0  0  0  0  0  0
  160.4200  207.1200  157.2610 C   0  0  0  0  0  1  0  0  0  0  0  0
  158.5380  206.6270  155.7570 C   0  0  0  0  0  1  0  0  0  0  0  0
  160.8300  206.2750  154.9500 C   0  0  0  0  0  1  0  0  0  0  0  0
  159.9530  207.1660  155.8170 C   0  0  0  0  0  0  0  0  0  0  0  0
  160.3920  210.8180  152.0940 C   0  0  2  0  0  3  0  0  0  0  0  0
  159.7550  212.5590  154.3890 O   0  0  0  0  0  0  0  0  0  0  0  0
  158.8640  211.7910  153.9330 C   0  0  0  0  0  0  0  0  0  0  0  0
  157.5260  211.7730  154.5730 C   0  0  0  0  0  1  0  0  0  0  0  0
  159.1130  210.9450  152.8000 N   0  0  0  0  0  2  0  0  0  0  0  0
  159.8930  212.9270  150.9980 O   0  0  0  0  0  1  0  0  0  0  0  0
  161.8720  211.7750  150.3050 C   0  0  0  0  0  1  0  0  0  0  0  0
  160.4410  211.6540  150.8050 C   0  0  1  0  0  3  0  0  0  0  0  0
  1  9  1  6  0  0  0
  1  2  1  0  0  0  0
  1  3  1  0  0  0  0
  2 23  1  1  0  0  0
  2  3  1  0  0  0  0
  3 15  1  1  0  0  0
  4  9  1  0  0  0  0
  5  4  1  0  0  0  0
  5 10  2  0  0  0  0
  6  4  2  0  0  0  0
  9  7  1  1  0  0  0
 10 11  1  0  0  0  0
 11  7  2  0  0  0  0
 11  8  1  0  0  0  0
 12 16  1  0  0  0  0
 13 12  2  0  0  0  0
 14 17  1  0  0  0  0
 15 14  2  0  0  0  0
 15 13  1  0  0  0  0
 17 16  2  0  0  0  0
 18 13  1  0  0  0  0
 18 22  1  0  0  0  0
 20 22  1  0  0  0  0
 21 22  1  0  0  0  0
 22 19  1  0  0  0  0
 23 27  1  6  0  0  0
 25 24  2  0  0  0  0
 25 26  1  0  0  0  0
 27 25  1  0  0  0  0
 30 29  1  1  0  0  0
 30 28  1  0  0  0  0
 30 23  1  0  0  0  0
M  END
>  <MODEL>
4

>  <REMARK>
 VINA RESULT:      -4.3      1.611      5.216
  Name = 
  7 active torsions:
  status: ('A' for Active; 'I' for Inactive)
    1  A    between atoms: N_1  and  C_22
    2  A    between atoms: C_4  and  C_23
    3  A    between atoms: C_5  and  C_12
    4  A    between atoms: C_8  and  O_13
    5  A    between atoms: O_13  and  C_30
    6  A    between atoms: C_23  and  N_25
    7  A    between atoms: C_23  and  C_26
                            x       y       z     vdW  Elec       q    Type
                         _______ _______ _______ _____ _____    ______ ____

>  <TORSDO>
F 7

$$$$
=
 OpenBabel11052421463D

 30 32  0  0  1  0  0  0  0  0999 V2000
  161.0880  211.3240  153.8950 N   0  0  1  0  0  0  0  0  0  0  0  0
  159.8580  211.1920  153.0800 C   0  0  1  0  0  3  0  0  0  0  0  0
  159.8010  210.9980  154.5500 C   0  0  2  0  0  3  0  0  0  0  0  0
  161.8630  209.5440  152.4660 C   0  0  0  0  0  0  0  0  0  0  0  0
  161.0720  208.3460  152.1220 C   0  0  0  0  0  3  0  0  0  0  0  0
  162.5030  210.1520  151.5650 O   0  0  0  0  0  0  0  0  0  0  0  0
  161.3330  209.0610  154.8680 C   0  0  0  0  0  3  0  0  0  0  0  0
  160.2040  207.0090  155.5610 C   0  0  0  0  0  1  0  0  0  0  0  0
  161.8650  210.0850  153.8760 C   0  0  2  0  0  3  0  0  0  0  0  0
  160.5220  207.6000  153.0880 C   0  0  0  0  0  3  0  0  0  0  0  0
  160.6960  207.9450  154.5060 C   0  0  0  0  0  0  0  0  0  0  0  0
  157.6540  213.2180  156.7960 C   0  0  0  0  0  3  0  0  0  0  0  0
  158.0490  212.1350  155.9920 C   0  0  0  0  0  0  0  0  0  0  0  0
  160.1820  213.2480  155.6220 C   0  0  0  0  0  3  0  0  0  0  0  0
  159.3140  212.1660  155.3740 C   0  0  0  0  0  0  0  0  0  0  0  0
  158.5160  214.3000  157.0150 C   0  0  0  0  0  3  0  0  0  0  0  0
  159.7840  214.3120  156.4350 C   0  0  0  0  0  3  0  0  0  0  0  0
  157.2190  211.0120  155.8110 O   0  0  0  0  0  0  0  0  0  0  0  0
  155.2820  212.3820  155.2940 C   0  0  0  0  0  1  0  0  0  0  0  0
  155.3250  209.9820  154.7630 C   0  0  0  0  0  1  0  0  0  0  0  0
  155.1930  210.6790  157.1140 C   0  0  0  0  0  1  0  0  0  0  0  0
  155.7880  211.0270  155.7570 C   0  0  0  0  0  0  0  0  0  0  0  0
  159.4540  212.5780  152.5530 C   0  0  2  0  0  3  0  0  0  0  0  0
  157.3720  214.4530  153.4780 O   0  0  0  0  0  0  0  0  0  0  0  0
  157.0610  213.5400  152.6660 C   0  0  0  0  0  0  0  0  0  0  0  0
  155.6540  213.4240  152.2110 C   0  0  0  0  0  1  0  0  0  0  0  0
  158.0410  212.6190  152.1620 N   0  0  0  0  0  2  0  0  0  0  0  0
  160.4500  212.1910  150.3720 O   0  0  0  0  0  1  0  0  0  0  0  0
  159.9330  214.4530  150.9530 C   0  0  0  0  0  1  0  0  0  0  0  0
  160.3880  213.0870  151.4440 C   0  0  1  0  0  3  0  0  0  0  0  0
  1  9  1  6  0  0  0
  1  3  1  0  0  0  0
  2 23  1  1  0  0  0
  2  1  1  0  0  0  0
  2  3  1  0  0  0  0
  3 15  1  1  0  0  0
  4  9  1  0  0  0  0
  5  4  1  0  0  0  0
  5 10  2  0  0  0  0
  6  4  2  0  0  0  0
  9  7  1  1  0  0  0
 10 11  1  0  0  0  0
 11  7  2  0  0  0  0
 11  8  1  0  0  0  0
 12 16  1  0  0  0  0
 13 12  2  0  0  0  0
 14 17  1  0  0  0  0
 15 14  2  0  0  0  0
 15 13  1  0  0  0  0
 17 16  2  0  0  0  0
 18 13  1  0  0  0  0
 19 22  1  0  0  0  0
 20 22  1  0  0  0  0
 22 18  1  0  0  0  0
 22 21  1  0  0  0  0
 23 27  1  6  0  0  0
 25 24  2  0  0  0  0
 26 25  1  0  0  0  0
 27 25  1  0  0  0  0
 28 30  1  0  0  0  0
 30 29  1  6  0  0  0
 30 23  1  0  0  0  0
M  END
>  <MODEL>
5

>  <REMARK>
 VINA RESULT:      -4.0      3.085      6.182
  Name = 
  7 active torsions:
  status: ('A' for Active; 'I' for Inactive)
    1  A    between atoms: N_1  and  C_22
    2  A    between atoms: C_4  and  C_23
    3  A    between atoms: C_5  and  C_12
    4  A    between atoms: C_8  and  O_13
    5  A    between atoms: O_13  and  C_30
    6  A    between atoms: C_23  and  N_25
    7  A    between atoms: C_23  and  C_26
                            x       y       z     vdW  Elec       q    Type
                         _______ _______ _______ _____ _____    ______ ____

>  <TORSDO>
F 7

$$$$
=
 OpenBabel11052421463D

 30 32  0  0  1  0  0  0  0  0999 V2000
  160.3820  211.0440  154.8780 N   0  0  1  0  0  0  0  0  0  0  0  0
  159.8830  209.9050  154.0740 C   0  0  1  0  0  3  0  0  0  0  0  0
  158.9690  211.0160  154.4370 C   0  0  2  0  0  3  0  0  0  0  0  0
  161.7670  210.9360  156.8480 C   0  0  0  0  0  0  0  0  0  0  0  0
  162.6190  209.7860  157.2070 C   0  0  0  0  0  3  0  0  0  0  0  0
  162.2230  212.1080  156.9480 O   0  0  0  0  0  0  0  0  0  0  0  0
  159.8830  209.3060  156.5690 C   0  0  0  0  0  3  0  0  0  0  0  0
  160.0970  206.9550  157.1980 C   0  0  0  0  0  1  0  0  0  0  0  0
  160.3750  210.7220  156.3050 C   0  0  2  0  0  3  0  0  0  0  0  0
  162.1010  208.5530  157.2610 C   0  0  0  0  0  3  0  0  0  0  0  0
  160.6780  208.3130  156.9760 C   0  0  0  0  0  0  0  0  0  0  0  0
  157.3250  213.7720  152.3690 C   0  0  0  0  0  3  0  0  0  0  0  0
  157.4970  212.7620  153.3300 C   0  0  0  0  0  0  0  0  0  0  0  0
  159.7680  212.4400  152.5170 C   0  0  0  0  0  3  0  0  0  0  0  0
  158.7220  212.0670  153.3830 C   0  0  0  0  0  0  0  0  0  0  0  0
  158.3650  214.1160  151.4970 C   0  0  0  0  0  3  0  0  0  0  0  0
  159.5910  213.4550  151.5750 C   0  0  0  0  0  3  0  0  0  0  0  0
  156.4840  212.4470  154.2560 O   0  0  0  0  0  0  0  0  0  0  0  0
  154.9540  214.1760  155.0070 C   0  0  0  0  0  1  0  0  0  0  0  0
  155.6220  212.3320  156.4900 C   0  0  0  0  0  1  0  0  0  0  0  0
  157.2780  214.0470  155.9040 C   0  0  0  0  0  1  0  0  0  0  0  0
  156.0960  213.2460  155.3790 C   0  0  0  0  0  0  0  0  0  0  0  0
  160.5140  209.9630  152.6740 C   0  0  2  0  0  3  0  0  0  0  0  0
  161.4690  207.3580  153.6810 O   0  0  0  0  0  0  0  0  0  0  0  0
  160.9650  207.4250  152.5260 C   0  0  0  0  0  0  0  0  0  0  0  0
  160.8800  206.1950  151.7010 C   0  0  0  0  0  1  0  0  0  0  0  0
  160.4590  208.6620  152.0000 N   0  0  0  0  0  2  0  0  0  0  0  0
  162.6880  210.0700  153.7530 O   0  0  0  0  0  1  0  0  0  0  0  0
  162.6370  210.2750  151.3700 C   0  0  0  0  0  1  0  0  0  0  0  0
  161.9290  210.5620  152.6850 C   0  0  1  0  0  3  0  0  0  0  0  0
  1  9  1  1  0  0  0
  2 23  1  6  0  0  0
  2  3  1  0  0  0  0
  2  1  1  0  0  0  0
  3 15  1  6  0  0  0
  3  1  1  0  0  0  0
  4  6  2  0  0  0  0
  4  5  1  0  0  0  0
  5 10  2  0  0  0  0
  7 11  2  0  0  0  0
  9  7  1  6  0  0  0
  9  4  1  0  0  0  0
 11  8  1  0  0  0  0
 11 10  1  0  0  0  0
 12 13  1  0  0  0  0
 13 15  2  0  0  0  0
 13 18  1  0  0  0  0
 14 15  1  0  0  0  0
 16 17  1  0  0  0  0
 16 12  2  0  0  0  0
 17 14  2  0  0  0  0
 18 22  1  0  0  0  0
 19 22  1  0  0  0  0
 22 21  1  0  0  0  0
 22 20  1  0  0  0  0
 23 27  1  1  0  0  0
 23 30  1  0  0  0  0
 25 24  2  0  0  0  0
 26 25  1  0  0  0  0
 27 25  1  0  0  0  0
 30 29  1  6  0  0  0
 30 28  1  0  0  0  0
M  END
>  <MODEL>
6

>  <REMARK>
 VINA RESULT:      -3.9      2.416      6.261
  Name = 
  7 active torsions:
  status: ('A' for Active; 'I' for Inactive)
    1  A    between atoms: N_1  and  C_22
    2  A    between atoms: C_4  and  C_23
    3  A    between atoms: C_5  and  C_12
    4  A    between atoms: C_8  and  O_13
    5  A    between atoms: O_13  and  C_30
    6  A    between atoms: C_23  and  N_25
    7  A    between atoms: C_23  and  C_26
                            x       y       z     vdW  Elec       q    Type
                         _______ _______ _______ _____ _____    ______ ____

>  <TORSDO>
F 7

$$$$
=
 OpenBabel11052421463D

 30 32  0  0  1  0  0  0  0  0999 V2000
  161.4220  208.6130  151.3360 N   0  0  1  0  0  0  0  0  0  0  0  0
  161.9810  207.9270  152.5240 C   0  0  1  0  0  3  0  0  0  0  0  0
  161.9780  209.4090  152.4530 C   0  0  2  0  0  3  0  0  0  0  0  0
  161.9650  209.7320  149.2710 C   0  0  0  0  0  0  0  0  0  0  0  0
  161.4290  209.3510  147.9500 C   0  0  0  0  0  3  0  0  0  0  0  0
  162.0070  210.9490  149.6010 O   0  0  0  0  0  0  0  0  0  0  0  0
  162.6010  207.3270  149.5790 C   0  0  0  0  0  3  0  0  0  0  0  0
  162.4050  205.6910  147.7750 C   0  0  0  0  0  1  0  0  0  0  0  0
  162.4060  208.6770  150.2560 C   0  0  2  0  0  3  0  0  0  0  0  0
  161.5260  208.0860  147.5210 C   0  0  0  0  0  3  0  0  0  0  0  0
  162.1720  207.0530  148.3440 C   0  0  0  0  0  0  0  0  0  0  0  0
  160.0570  211.3450  155.1250 C   0  0  0  0  0  3  0  0  0  0  0  0
  161.0910  210.6370  154.4890 C   0  0  0  0  0  0  0  0  0  0  0  0
  159.6550  210.3850  152.5400 C   0  0  0  0  0  3  0  0  0  0  0  0
  160.8750  210.1240  153.1950 C   0  0  0  0  0  0  0  0  0  0  0  0
  158.8400  211.5750  154.4720 C   0  0  0  0  0  3  0  0  0  0  0  0
  158.6400  211.1020  153.1760 C   0  0  0  0  0  3  0  0  0  0  0  0
  162.3430  210.4510  155.1060 O   0  0  0  0  0  0  0  0  0  0  0  0
  161.5940  211.6490  157.0810 C   0  0  0  0  0  1  0  0  0  0  0  0
  162.7090  209.4650  157.2610 C   0  0  0  0  0  1  0  0  0  0  0  0
  164.0240  211.4200  156.5700 C   0  0  0  0  0  1  0  0  0  0  0  0
  162.6590  210.7560  156.4700 C   0  0  0  0  0  0  0  0  0  0  0  0
  160.8350  207.2730  153.3110 C   0  0  2  0  0  3  0  0  0  0  0  0
  158.9170  207.3280  155.5530 O   0  0  0  0  0  0  0  0  0  0  0  0
  160.1530  207.2750  155.8010 C   0  0  0  0  0  0  0  0  0  0  0  0
  160.6080  207.2570  157.2130 C   0  0  0  0  0  1  0  0  0  0  0  0
  161.1270  207.2170  154.7470 N   0  0  0  0  0  2  0  0  0  0  0  0
  160.4570  205.9060  151.3400 O   0  0  0  0  0  1  0  0  0  0  0  0
  161.3250  204.8100  153.2810 C   0  0  0  0  0  1  0  0  0  0  0  0
  160.4230  205.9080  152.7380 C   0  0  1  0  0  3  0  0  0  0  0  0
  1  9  1  6  0  0  0
  1  3  1  0  0  0  0
  1  2  1  0  0  0  0
  2 23  1  1  0  0  0
  3  2  1  0  0  0  0
  3 15  1  1  0  0  0
  4  6  2  0  0  0  0
  4  9  1  0  0  0  0
  5  4  1  0  0  0  0
  8 11  1  0  0  0  0
  9  7  1  6  0  0  0
 10  5  2  0  0  0  0
 10 11  1  0  0  0  0
 11  7  2  0  0  0  0
 13 18  1  0  0  0  0
 13 12  1  0  0  0  0
 14 17  2  0  0  0  0
 14 15  1  0  0  0  0
 15 13  2  0  0  0  0
 16 12  2  0  0  0  0
 17 16  1  0  0  0  0
 18 22  1  0  0  0  0
 22 21  1  0  0  0  0
 22 19  1  0  0  0  0
 22 20  1  0  0  0  0
 23 27  1  1  0  0  0
 24 25  2  0  0  0  0
 25 26  1  0  0  0  0
 27 25  1  0  0  0  0
 28 30  1  0  0  0  0
 30 29  1  1  0  0  0
 30 23  1  0  0  0  0
M  END
>  <MODEL>
7

>  <REMARK>
 VINA RESULT:      -3.7      2.059      4.370
  Name = 
  7 active torsions:
  status: ('A' for Active; 'I' for Inactive)
    1  A    between atoms: N_1  and  C_22
    2  A    between atoms: C_4  and  C_23
    3  A    between atoms: C_5  and  C_12
    4  A    between atoms: C_8  and  O_13
    5  A    between atoms: O_13  and  C_30
    6  A    between atoms: C_23  and  N_25
    7  A    between atoms: C_23  and  C_26
                            x       y       z     vdW  Elec       q    Type
                         _______ _______ _______ _____ _____    ______ ____

>  <TORSDO>
F 7

$$$$
=
 OpenBabel11052421463D

 30 32  0  0  1  0  0  0  0  0999 V2000
  160.9410  210.1010  153.5130 N   0  0  1  0  0  0  0  0  0  0  0  0
  161.0060  211.4030  152.8100 C   0  0  1  0  0  3  0  0  0  0  0  0
  161.9650  210.3250  152.4670 C   0  0  2  0  0  3  0  0  0  0  0  0
  161.2130  208.9780  155.6280 C   0  0  0  0  0  0  0  0  0  0  0  0
  160.3210  209.1600  156.7890 C   0  0  0  0  0  3  0  0  0  0  0  0
  161.5810  207.8170  155.2960 O   0  0  0  0  0  0  0  0  0  0  0  0
  161.3920  211.4760  155.5210 C   0  0  0  0  0  3  0  0  0  0  0  0
  160.4520  212.9200  157.2540 C   0  0  0  0  0  1  0  0  0  0  0  0
  161.6420  210.1620  154.7950 C   0  0  2  0  0  3  0  0  0  0  0  0
  160.0530  210.3880  157.2500 C   0  0  0  0  0  3  0  0  0  0  0  0
  160.6430  211.5800  156.6230 C   0  0  0  0  0  0  0  0  0  0  0  0
  161.6900  209.1830  148.8340 C   0  0  0  0  0  3  0  0  0  0  0  0
  161.9390  210.0000  149.9510 C   0  0  0  0  0  0  0  0  0  0  0  0
  161.1940  208.1820  151.3870 C   0  0  0  0  0  3  0  0  0  0  0  0
  161.6580  209.5030  151.2390 C   0  0  0  0  0  0  0  0  0  0  0  0
  161.2050  207.8790  148.9940 C   0  0  0  0  0  3  0  0  0  0  0  0
  160.9640  207.3750  150.2710 C   0  0  0  0  0  3  0  0  0  0  0  0
  162.4860  211.2900  149.8110 O   0  0  0  0  0  0  0  0  0  0  0  0
  161.2620  211.7370  147.7620 C   0  0  0  0  0  1  0  0  0  0  0  0
  162.3690  213.5450  149.0070 C   0  0  0  0  0  1  0  0  0  0  0  0
  163.7500  211.8960  147.8250 C   0  0  0  0  0  1  0  0  0  0  0  0
  162.4660  212.0840  148.6200 C   0  0  0  0  0  0  0  0  0  0  0  0
  159.7750  211.5440  151.9000 C   0  0  2  0  0  3  0  0  0  0  0  0
  157.6200  212.9210  150.4280 O   0  0  0  0  0  0  0  0  0  0  0  0
  158.8090  213.3170  150.2900 C   0  0  0  0  0  0  0  0  0  0  0  0
  159.0940  214.4530  149.3800 C   0  0  0  0  0  1  0  0  0  0  0  0
  159.8920  212.7010  151.0060 N   0  0  0  0  0  2  0  0  0  0  0  0
  158.2530  210.3130  153.3370 O   0  0  0  0  0  1  0  0  0  0  0  0
  158.4220  212.6740  153.6880 C   0  0  0  0  0  1  0  0  0  0  0  0
  158.4530  211.5340  152.6820 C   0  0  1  0  0  3  0  0  0  0  0  0
  1  9  1  1  0  0  0
  2 23  1  6  0  0  0
  2  1  1  0  0  0  0
  3 15  1  6  0  0  0
  3  2  1  0  0  0  0
  3  1  1  0  0  0  0
  4  5  1  0  0  0  0
  5 10  2  0  0  0  0
  6  4  2  0  0  0  0
  7 11  2  0  0  0  0
  9  7  1  1  0  0  0
  9  4  1  0  0  0  0
 11 10  1  0  0  0  0
 11  8  1  0  0  0  0
 12 16  2  0  0  0  0
 12 13  1  0  0  0  0
 13 15  2  0  0  0  0
 15 14  1  0  0  0  0
 16 17  1  0  0  0  0
 17 14  2  0  0  0  0
 18 13  1  0  0  0  0
 19 22  1  0  0  0  0
 21 22  1  0  0  0  0
 22 20  1  0  0  0  0
 22 18  1  0  0  0  0
 23 27  1  1  0  0  0
 23 30  1  0  0  0  0
 25 24  2  0  0  0  0
 25 27  1  0  0  0  0
 26 25  1  0  0  0  0
 30 28  1  0  0  0  0
 30 29  1  1  0  0  0
M  END
>  <MODEL>
8

>  <REMARK>
 VINA RESULT:      -3.6      1.931      5.575
  Name = 
  7 active torsions:
  status: ('A' for Active; 'I' for Inactive)
    1  A    between atoms: N_1  and  C_22
    2  A    between atoms: C_4  and  C_23
    3  A    between atoms: C_5  and  C_12
    4  A    between atoms: C_8  and  O_13
    5  A    between atoms: O_13  and  C_30
    6  A    between atoms: C_23  and  N_25
    7  A    between atoms: C_23  and  C_26
                            x       y       z     vdW  Elec       q    Type
                         _______ _______ _______ _____ _____    ______ ____

>  <TORSDO>
F 7

$$$$
=
 OpenBabel11052421463D

 30 32  0  0  1  0  0  0  0  0999 V2000
  158.5470  213.7720  152.7790 N   0  0  1  0  0  0  0  0  0  0  0  0
  157.5450  212.6810  152.7800 C   0  0  1  0  0  3  0  0  0  0  0  0
  158.9800  212.3730  152.5610 C   0  0  2  0  0  3  0  0  0  0  0  0
  157.3840  214.0270  150.6830 C   0  0  0  0  0  0  0  0  0  0  0  0
  157.4990  213.0920  149.5470 C   0  0  0  0  0  3  0  0  0  0  0  0
  156.2480  214.4530  151.0300 O   0  0  0  0  0  0  0  0  0  0  0  0
  159.8890  214.1020  150.7250 C   0  0  0  0  0  3  0  0  0  0  0  0
  161.2490  213.0490  148.9900 C   0  0  0  0  0  1  0  0  0  0  0  0
  158.6050  214.4300  151.4740 C   0  0  2  0  0  3  0  0  0  0  0  0
  158.7030  212.7580  149.0670 C   0  0  0  0  0  3  0  0  0  0  0  0
  159.9340  213.3160  149.6460 C   0  0  0  0  0  0  0  0  0  0  0  0
  161.1630  210.2020  154.8180 C   0  0  0  0  0  3  0  0  0  0  0  0
  160.4020  210.6150  153.7110 C   0  0  0  0  0  0  0  0  0  0  0  0
  159.9390  212.7060  154.8680 C   0  0  0  0  0  3  0  0  0  0  0  0
  159.7580  211.8670  153.7510 C   0  0  0  0  0  0  0  0  0  0  0  0
  161.3150  211.0360  155.9330 C   0  0  0  0  0  3  0  0  0  0  0  0
  160.7100  212.2920  155.9560 C   0  0  0  0  0  3  0  0  0  0  0  0
  160.2900  209.8160  152.5570 O   0  0  0  0  0  0  0  0  0  0  0  0
  162.6240  209.7990  151.8890 C   0  0  0  0  0  1  0  0  0  0  0  0
  161.5700  207.8170  152.8900 C   0  0  0  0  0  1  0  0  0  0  0  0
  160.9220  208.4910  150.6190 C   0  0  0  0  0  1  0  0  0  0  0  0
  161.3300  209.0110  151.9900 C   0  0  0  0  0  0  0  0  0  0  0  0
  157.0110  212.4910  154.2090 C   0  0  2  0  0  3  0  0  0  0  0  0
  156.1910  210.9270  156.5730 O   0  0  0  0  0  0  0  0  0  0  0  0
  155.6710  210.6690  155.4530 C   0  0  0  0  0  0  0  0  0  0  0  0
  154.6740  209.5750  155.3530 C   0  0  0  0  0  1  0  0  0  0  0  0
  156.0130  211.4190  154.2770 N   0  0  0  0  0  2  0  0  0  0  0  0
  155.1160  213.8280  154.9310 O   0  0  0  0  0  1  0  0  0  0  0  0
  157.1300  214.0010  156.2120 C   0  0  0  0  0  1  0  0  0  0  0  0
  156.5120  213.8020  154.8360 C   0  0  1  0  0  3  0  0  0  0  0  0
  1  9  1  6  0  0  0
  1  2  1  0  0  0  0
  2 23  1  1  0  0  0
  3  1  1  0  0  0  0
  3  2  1  0  0  0  0
  3 15  1  1  0  0  0
  4  6  2  0  0  0  0
  4  9  1  0  0  0  0
  5  4  1  0  0  0  0
  8 11  1  0  0  0  0
  9  7  1  6  0  0  0
 10  5  2  0  0  0  0
 10 11  1  0  0  0  0
 11  7  2  0  0  0  0
 12 16  1  0  0  0  0
 13 15  1  0  0  0  0
 13 12  2  0  0  0  0
 14 17  1  0  0  0  0
 15 14  2  0  0  0  0
 16 17  2  0  0  0  0
 18 13  1  0  0  0  0
 19 22  1  0  0  0  0
 21 22  1  0  0  0  0
 22 18  1  0  0  0  0
 22 20  1  0  0  0  0
 23 27  1  6  0  0  0
 23 30  1  0  0  0  0
 25 24  2  0  0  0  0
 26 25  1  0  0  0  0
 27 25  1  0  0  0  0
 30 28  1  0  0  0  0
 30 29  1  1  0  0  0
M  END
>  <MODEL>
9

>  <REMARK>
 VINA RESULT:      -3.4      3.292      6.408
  Name = 
  7 active torsions:
  status: ('A' for Active; 'I' for Inactive)
    1  A    between atoms: N_1  and  C_22
    2  A    between atoms: C_4  and  C_23
    3  A    between atoms: C_5  and  C_12
    4  A    between atoms: C_8  and  O_13
    5  A    between atoms: O_13  and  C_30
    6  A    between atoms: C_23  and  N_25
    7  A    between atoms: C_23  and  C_26
                            x       y       z     vdW  Elec       q    Type
                         _______ _______ _______ _____ _____    ______ ____

>  <TORSDO>
F 7

$$$$
