=
 OpenBabel11052422243D

 31 35  0  0  1  0  0  0  0  0999 V2000
  160.9800  210.1650  154.3980 C   0  0  2  0  0  3  0  0  0  0  0  0
  160.4240  211.4810  154.8930 C   0  0  0  0  0  0  0  0  0  0  0  0
  160.4760  213.2580  156.5250 C   0  0  0  0  0  3  0  0  0  0  0  0
  161.0010  212.0700  156.0210 C   0  0  0  0  0  3  0  0  0  0  0  0
  158.7290  211.5580  153.0000 C   0  0  0  0  0  2  0  0  0  0  0  0
  159.4070  213.8400  155.9220 N   0  0  0  0  0  0  0  0  0  0  0  0
  160.5070  209.7740  152.9930 C   0  0  1  0  0  3  0  0  0  0  0  0
  158.8190  213.2990  154.8220 C   0  0  0  0  0  0  0  0  0  0  0  0
  159.0200  210.0740  152.8040 C   0  0  0  0  0  2  0  0  0  0  0  0
  159.3100  212.0980  154.2800 C   0  0  0  0  0  0  0  0  0  0  0  0
  157.4520  214.1380  154.1010 Cl  0  0  0  0  0  0  0  0  0  0  0  0
  159.4070  207.1750  156.1630 C   0  0  0  0  0  0  0  0  0  0  0  0
  160.7350  209.0460  155.3670 C   0  0  0  0  0  0  0  0  0  0  0  0
  160.3550  206.9260  157.1600 C   0  0  0  0  0  3  0  0  0  0  0  0
  158.3070  206.3920  156.0630 F   0  0  0  0  0  0  0  0  0  0  0  0
  159.5970  208.2310  155.2670 C   0  0  0  0  0  3  0  0  0  0  0  0
  161.6830  208.7890  156.3630 C   0  0  0  0  0  3  0  0  0  0  0  0
  161.4920  207.7320  157.2600 C   0  0  0  0  0  3  0  0  0  0  0  0
  161.3530  210.4360  151.9030 C   0  0  1  0  0  3  0  0  0  0  0  0
  162.6590  209.9080  151.9140 O   0  0  0  0  0  0  0  0  0  0  0  0
  161.8470  209.5120  150.8340 C   0  0  1  0  0  3  0  0  0  0  0  0
  162.5050  207.3510  151.9020 C   0  0  0  0  0  1  0  0  0  0  0  0
  161.4990  208.0290  150.9890 C   0  0  2  0  0  3  0  0  0  0  0  0
  161.3200  205.9900  147.1970 C   0  0  0  0  0  0  0  0  0  0  0  0
  161.8540  207.9610  148.4940 C   0  0  0  0  0  3  0  0  0  0  0  0
  160.4420  205.1160  151.0280 Cl  0  0  0  0  0  0  0  0  0  0  0  0
  161.2460  205.1640  145.6570 Cl  0  0  0  0  0  0  0  0  0  0  0  0
  161.7970  207.3020  147.2640 C   0  0  0  0  0  3  0  0  0  0  0  0
  160.9620  205.9900  149.5950 C   0  0  0  0  0  0  0  0  0  0  0  0
  161.4280  207.3180  149.6670 C   0  0  0  0  0  0  0  0  0  0  0  0
  160.9060  205.3370  148.3590 C   0  0  0  0  0  3  0  0  0  0  0  0
  1  2  1  0  0  0  0
  1 13  1  1  0  0  0
  2  4  1  0  0  0  0
  4  3  2  0  0  0  0
  5 10  1  0  0  0  0
  6  3  1  0  0  0  0
  7  9  1  6  0  0  0
  7  1  1  0  0  0  0
  8  6  2  0  0  0  0
  9  5  1  0  0  0  0
 10  8  1  0  0  0  0
 10  2  2  0  0  0  0
 11  8  1  0  0  0  0
 12 14  1  0  0  0  0
 13 17  2  0  0  0  0
 14 18  2  0  0  0  0
 15 12  1  0  0  0  0
 16 13  1  0  0  0  0
 16 12  2  0  0  0  0
 17 18  1  0  0  0  0
 19 20  1  1  0  0  0
 19  7  1  0  0  0  0
 21 23  1  1  0  0  0
 21 19  1  0  0  0  0
 21 20  1  0  0  0  0
 23 22  1  1  0  0  0
 24 28  2  0  0  0  0
 24 31  1  0  0  0  0
 25 30  2  0  0  0  0
 27 24  1  0  0  0  0
 28 25  1  0  0  0  0
 29 30  1  0  0  0  0
 29 26  1  0  0  0  0
 30 23  1  0  0  0  0
 31 29  2  0  0  0  0
M  END
>  <MODEL>
1

>  <REMARK>
 VINA RESULT:      -6.5      0.000      0.000
  Name = 
  4 active torsions:
  status: ('A' for Active; 'I' for Inactive)
    1  A    between atoms: C_4  and  C_12
    2  A    between atoms: C_9  and  C_22
    3  A    between atoms: C_9  and  C_23
    4  A    between atoms: C_15  and  C_21
                            x       y       z     vdW  Elec       q    Type
                         _______ _______ _______ _____ _____    ______ ____

>  <TORSDO>
F 4

$$$$
=
 OpenBabel11052422243D

 31 35  0  0  1  0  0  0  0  0999 V2000
  160.6830  211.4270  152.7810 C   0  0  2  0  0  3  0  0  0  0  0  0
  160.3780  211.4650  154.2620 C   0  0  0  0  0  0  0  0  0  0  0  0
  161.1660  211.2700  156.5340 C   0  0  0  0  0  3  0  0  0  0  0  0
  161.4290  211.2870  155.1660 C   0  0  0  0  0  3  0  0  0  0  0  0
  157.9180  211.9250  153.8170 C   0  0  0  0  0  2  0  0  0  0  0  0
  159.8940  211.4230  156.9860 N   0  0  0  0  0  0  0  0  0  0  0  0
  159.5470  211.9500  151.8950 C   0  0  1  0  0  3  0  0  0  0  0  0
  158.8470  211.6000  156.1380 C   0  0  0  0  0  0  0  0  0  0  0  0
  158.1860  211.4590  152.3890 C   0  0  0  0  0  2  0  0  0  0  0  0
  159.0610  211.6200  154.7490 C   0  0  0  0  0  0  0  0  0  0  0  0
  157.2400  211.8120  156.8210 Cl  0  0  0  0  0  0  0  0  0  0  0  0
  161.1090  207.6480  152.5390 C   0  0  0  0  0  0  0  0  0  0  0  0
  161.1220  210.0670  152.3270 C   0  0  0  0  0  0  0  0  0  0  0  0
  161.9140  207.5440  151.4010 C   0  0  0  0  0  3  0  0  0  0  0  0
  160.7120  206.5300  153.1930 F   0  0  0  0  0  0  0  0  0  0  0  0
  160.7120  208.9060  153.0010 C   0  0  0  0  0  3  0  0  0  0  0  0
  161.9230  209.9560  151.1850 C   0  0  0  0  0  3  0  0  0  0  0  0
  162.3200  208.6970  150.7240 C   0  0  0  0  0  3  0  0  0  0  0  0
  159.5790  213.4750  151.7690 C   0  0  1  0  0  3  0  0  0  0  0  0
  160.8280  213.8960  151.2720 O   0  0  0  0  0  0  0  0  0  0  0  0
  159.7470  213.9940  150.3750 C   0  0  1  0  0  3  0  0  0  0  0  0
  161.3970  212.7320  148.9860 C   0  0  0  0  0  1  0  0  0  0  0  0
  159.9220  212.9510  149.2680 C   0  0  2  0  0  3  0  0  0  0  0  0
  157.8530  214.0180  145.6410 C   0  0  0  0  0  0  0  0  0  0  0  0
  159.9180  213.6340  146.8400 C   0  0  0  0  0  3  0  0  0  0  0  0
  156.8250  212.9570  149.3870 Cl  0  0  0  0  0  0  0  0  0  0  0  0
  157.0150  214.4530  144.1690 Cl  0  0  0  0  0  0  0  0  0  0  0  0
  159.2500  213.9800  145.6640 C   0  0  0  0  0  3  0  0  0  0  0  0
  157.7890  213.3560  147.9720 C   0  0  0  0  0  0  0  0  0  0  0  0
  159.1970  213.3300  148.0060 C   0  0  0  0  0  0  0  0  0  0  0  0
  157.1260  213.7050  146.7910 C   0  0  0  0  0  3  0  0  0  0  0  0
  1 13  1  6  0  0  0
  1  2  1  0  0  0  0
  2 10  2  0  0  0  0
  2  4  1  0  0  0  0
  3  6  1  0  0  0  0
  4  3  2  0  0  0  0
  5 10  1  0  0  0  0
  7  9  1  1  0  0  0
  7  1  1  0  0  0  0
  8 11  1  0  0  0  0
  8  6  2  0  0  0  0
  9  5  1  0  0  0  0
 10  8  1  0  0  0  0
 12 16  1  0  0  0  0
 12 15  1  0  0  0  0
 13 16  2  0  0  0  0
 14 12  2  0  0  0  0
 17 13  1  0  0  0  0
 18 17  2  0  0  0  0
 18 14  1  0  0  0  0
 19 20  1  1  0  0  0
 19  7  1  0  0  0  0
 21 23  1  6  0  0  0
 21 20  1  0  0  0  0
 21 19  1  0  0  0  0
 23 22  1  6  0  0  0
 24 28  2  0  0  0  0
 24 31  1  0  0  0  0
 25 30  2  0  0  0  0
 27 24  1  0  0  0  0
 28 25  1  0  0  0  0
 29 30  1  0  0  0  0
 29 26  1  0  0  0  0
 30 23  1  0  0  0  0
 31 29  2  0  0  0  0
M  END
>  <MODEL>
2

>  <REMARK>
 VINA RESULT:      -6.0      4.001      5.330
  Name = 
  4 active torsions:
  status: ('A' for Active; 'I' for Inactive)
    1  A    between atoms: C_4  and  C_12
    2  A    between atoms: C_9  and  C_22
    3  A    between atoms: C_9  and  C_23
    4  A    between atoms: C_15  and  C_21
                            x       y       z     vdW  Elec       q    Type
                         _______ _______ _______ _____ _____    ______ ____

>  <TORSDO>
F 4

$$$$
=
 OpenBabel11052422243D

 31 35  0  0  1  0  0  0  0  0999 V2000
  159.8570  212.6540  152.9050 C   0  0  2  0  0  3  0  0  0  0  0  0
  159.0720  213.1690  154.0900 C   0  0  0  0  0  0  0  0  0  0  0  0
  158.9860  213.6570  156.4520 C   0  0  0  0  0  3  0  0  0  0  0  0
  159.7030  213.2320  155.3350 C   0  0  0  0  0  3  0  0  0  0  0  0
  157.0240  213.5850  152.6420 C   0  0  0  0  0  2  0  0  0  0  0  0
  157.6790  214.0070  156.3300 N   0  0  0  0  0  0  0  0  0  0  0  0
  159.1960  212.9270  151.5500 C   0  0  1  0  0  3  0  0  0  0  0  0
  157.0310  213.9600  155.1360 C   0  0  0  0  0  0  0  0  0  0  0  0
  157.6880  212.6840  151.6070 C   0  0  0  0  0  2  0  0  0  0  0  0
  157.7100  213.5320  153.9820 C   0  0  0  0  0  0  0  0  0  0  0  0
  155.3440  214.4530  155.0760 Cl  0  0  0  0  0  0  0  0  0  0  0  0
  160.8730  209.0750  152.0770 C   0  0  0  0  0  0  0  0  0  0  0  0
  160.2000  211.2000  153.0400 C   0  0  0  0  0  0  0  0  0  0  0  0
  160.8980  208.5040  153.3520 C   0  0  0  0  0  3  0  0  0  0  0  0
  161.1860  208.3260  150.9930 F   0  0  0  0  0  0  0  0  0  0  0  0
  160.5270  210.4200  151.9200 C   0  0  0  0  0  3  0  0  0  0  0  0
  160.2320  210.6240  154.3160 C   0  0  0  0  0  3  0  0  0  0  0  0
  160.5780  209.2790  154.4710 C   0  0  0  0  0  3  0  0  0  0  0  0
  159.5150  214.3330  151.0340 C   0  0  1  0  0  3  0  0  0  0  0  0
  160.8890  214.4430  150.7390 O   0  0  0  0  0  0  0  0  0  0  0  0
  160.0260  214.3930  149.6280 C   0  0  1  0  0  3  0  0  0  0  0  0
  161.6430  212.5630  149.0960 C   0  0  0  0  0  1  0  0  0  0  0  0
  160.2190  213.0550  148.9070 C   0  0  2  0  0  3  0  0  0  0  0  0
  159.2700  213.2820  144.7100 C   0  0  0  0  0  0  0  0  0  0  0  0
  160.9030  213.3090  146.4930 C   0  0  0  0  0  3  0  0  0  0  0  0
  157.2280  212.7840  148.1440 Cl  0  0  0  0  0  0  0  0  0  0  0  0
  158.8850  213.3750  143.0060 Cl  0  0  0  0  0  0  0  0  0  0  0  0
  160.5980  213.3820  145.1330 C   0  0  0  0  0  3  0  0  0  0  0  0
  158.5490  213.0260  147.0100 C   0  0  0  0  0  0  0  0  0  0  0  0
  159.8840  213.1420  147.4440 C   0  0  0  0  0  0  0  0  0  0  0  0
  158.2500  213.1020  145.6460 C   0  0  0  0  0  3  0  0  0  0  0  0
  1 13  1  1  0  0  0
  1  2  1  0  0  0  0
  2  4  1  0  0  0  0
  4  3  2  0  0  0  0
  5 10  1  0  0  0  0
  6  3  1  0  0  0  0
  7  9  1  1  0  0  0
  7  1  1  0  0  0  0
  8  6  2  0  0  0  0
  9  5  1  0  0  0  0
 10  2  2  0  0  0  0
 10  8  1  0  0  0  0
 11  8  1  0  0  0  0
 12 14  1  0  0  0  0
 13 17  2  0  0  0  0
 14 18  2  0  0  0  0
 15 12  1  0  0  0  0
 16 12  2  0  0  0  0
 16 13  1  0  0  0  0
 17 18  1  0  0  0  0
 19 20  1  1  0  0  0
 19  7  1  0  0  0  0
 21 23  1  6  0  0  0
 21 20  1  0  0  0  0
 21 19  1  0  0  0  0
 23 22  1  6  0  0  0
 24 28  2  0  0  0  0
 24 31  1  0  0  0  0
 25 30  2  0  0  0  0
 27 24  1  0  0  0  0
 28 25  1  0  0  0  0
 29 30  1  0  0  0  0
 29 26  1  0  0  0  0
 30 23  1  0  0  0  0
 31 29  2  0  0  0  0
M  END
>  <MODEL>
3

>  <REMARK>
 VINA RESULT:      -5.2      4.118      5.111
  Name = 
  4 active torsions:
  status: ('A' for Active; 'I' for Inactive)
    1  A    between atoms: C_4  and  C_12
    2  A    between atoms: C_9  and  C_22
    3  A    between atoms: C_9  and  C_23
    4  A    between atoms: C_15  and  C_21
                            x       y       z     vdW  Elec       q    Type
                         _______ _______ _______ _____ _____    ______ ____

>  <TORSDO>
F 4

$$$$
=
 OpenBabel11052422243D

 31 35  0  0  1  0  0  0  0  0999 V2000
  160.1830  211.1060  154.7820 C   0  0  2  0  0  3  0  0  0  0  0  0
  159.6080  212.2560  155.5780 C   0  0  0  0  0  0  0  0  0  0  0  0
  159.9500  214.0290  157.1790 C   0  0  0  0  0  3  0  0  0  0  0  0
  160.4640  212.9950  156.3990 C   0  0  0  0  0  3  0  0  0  0  0  0
  157.2930  211.8680  154.6040 C   0  0  0  0  0  2  0  0  0  0  0  0
  158.6230  214.3150  157.1430 N   0  0  0  0  0  0  0  0  0  0  0  0
  159.2510  210.5780  153.6850 C   0  0  1  0  0  3  0  0  0  0  0  0
  157.7590  213.6200  156.3560 C   0  0  0  0  0  0  0  0  0  0  0  0
  157.8060  210.4970  154.1740 C   0  0  0  0  0  2  0  0  0  0  0  0
  158.2290  212.5650  155.5550 C   0  0  0  0  0  0  0  0  0  0  0  0
  156.0620  214.0790  156.3620 Cl  0  0  0  0  0  0  0  0  0  0  0  0
  160.3260  207.8030  156.6780 C   0  0  0  0  0  0  0  0  0  0  0  0
  160.6500  209.9850  155.6620 C   0  0  0  0  0  0  0  0  0  0  0  0
  161.5940  207.8860  157.2600 C   0  0  0  0  0  3  0  0  0  0  0  0
  159.5560  206.7090  156.8850 F   0  0  0  0  0  0  0  0  0  0  0  0
  159.8550  208.8480  155.8780 C   0  0  0  0  0  3  0  0  0  0  0  0
  161.9200  210.0600  156.2430 C   0  0  0  0  0  3  0  0  0  0  0  0
  162.3910  209.0140  157.0430 C   0  0  0  0  0  3  0  0  0  0  0  0
  159.3610  211.4020  152.4000 C   0  0  1  0  0  3  0  0  0  0  0  0
  160.6190  212.0330  152.3320 O   0  0  0  0  0  0  0  0  0  0  0  0
  160.4260  210.9550  151.4470 C   0  0  1  0  0  3  0  0  0  0  0  0
  162.6830  210.2790  152.2790 C   0  0  0  0  0  1  0  0  0  0  0  0
  161.3020  209.7810  151.8940 C   0  0  2  0  0  3  0  0  0  0  0  0
  161.5690  206.7180  148.8750 C   0  0  0  0  0  0  0  0  0  0  0  0
  160.9200  207.4190  151.0970 C   0  0  0  0  0  3  0  0  0  0  0  0
  162.5520  210.6100  149.1820 Cl  0  0  0  0  0  0  0  0  0  0  0  0
  161.6780  205.4730  147.6510 Cl  0  0  0  0  0  0  0  0  0  0  0  0
  161.0050  206.4260  150.1200 C   0  0  0  0  0  3  0  0  0  0  0  0
  161.9570  209.0040  149.5790 C   0  0  0  0  0  0  0  0  0  0  0  0
  161.4030  208.7130  150.8410 C   0  0  0  0  0  0  0  0  0  0  0  0
  162.0400  208.0040  148.6060 C   0  0  0  0  0  3  0  0  0  0  0  0
  1  2  1  0  0  0  0
  1 13  1  1  0  0  0
  2  4  1  0  0  0  0
  4  3  2  0  0  0  0
  5 10  1  0  0  0  0
  6  3  1  0  0  0  0
  7  9  1  1  0  0  0
  7  1  1  0  0  0  0
  8 11  1  0  0  0  0
  8  6  2  0  0  0  0
  9  5  1  0  0  0  0
 10  2  2  0  0  0  0
 10  8  1  0  0  0  0
 12 15  1  0  0  0  0
 12 14  1  0  0  0  0
 13 16  1  0  0  0  0
 13 17  2  0  0  0  0
 16 12  2  0  0  0  0
 17 18  1  0  0  0  0
 18 14  2  0  0  0  0
 19 20  1  1  0  0  0
 19  7  1  0  0  0  0
 21 23  1  1  0  0  0
 21 20  1  0  0  0  0
 21 19  1  0  0  0  0
 23 22  1  6  0  0  0
 24 28  1  0  0  0  0
 26 29  1  0  0  0  0
 27 24  1  0  0  0  0
 28 25  2  0  0  0  0
 29 30  2  0  0  0  0
 30 25  1  0  0  0  0
 30 23  1  0  0  0  0
 31 24  2  0  0  0  0
 31 29  1  0  0  0  0
M  END
>  <MODEL>
4

>  <REMARK>
 VINA RESULT:      -5.0      1.746      2.282
  Name = 
  4 active torsions:
  status: ('A' for Active; 'I' for Inactive)
    1  A    between atoms: C_4  and  C_12
    2  A    between atoms: C_9  and  C_22
    3  A    between atoms: C_9  and  C_23
    4  A    between atoms: C_15  and  C_21
                            x       y       z     vdW  Elec       q    Type
                         _______ _______ _______ _____ _____    ______ ____

>  <TORSDO>
F 4

$$$$
=
 OpenBabel11052422243D

 31 35  0  0  1  0  0  0  0  0999 V2000
  160.3660  212.7890  150.9490 C   0  0  2  0  0  3  0  0  0  0  0  0
  159.1530  213.3090  151.6880 C   0  0  0  0  0  0  0  0  0  0  0  0
  158.1070  213.8840  153.7850 C   0  0  0  0  0  3  0  0  0  0  0  0
  159.2250  213.4530  153.0760 C   0  0  0  0  0  3  0  0  0  0  0  0
  157.8530  213.5650  149.5190 C   0  0  0  0  0  2  0  0  0  0  0  0
  156.9500  214.1630  153.1290 N   0  0  0  0  0  0  0  0  0  0  0  0
  160.3000  212.9750  149.4290 C   0  0  1  0  0  3  0  0  0  0  0  0
  156.8410  214.0370  151.7800 C   0  0  0  0  0  0  0  0  0  0  0  0
  158.9050  212.6580  148.8900 C   0  0  0  0  0  2  0  0  0  0  0  0
  157.9410  213.5990  151.0220 C   0  0  0  0  0  0  0  0  0  0  0  0
  155.3080  214.4410  151.0200 Cl  0  0  0  0  0  0  0  0  0  0  0  0
  161.8490  209.2790  150.8810 C   0  0  0  0  0  0  0  0  0  0  0  0
  160.6680  211.3600  151.2920 C   0  0  0  0  0  0  0  0  0  0  0  0
  161.2520  208.7160  152.0120 C   0  0  0  0  0  3  0  0  0  0  0  0
  162.7100  208.5470  150.1340 F   0  0  0  0  0  0  0  0  0  0  0  0
  161.5600  210.5990  150.5220 C   0  0  0  0  0  3  0  0  0  0  0  0
  160.0780  210.7930  152.4270 C   0  0  0  0  0  3  0  0  0  0  0  0
  160.3670  209.4730  152.7850 C   0  0  0  0  0  3  0  0  0  0  0  0
  160.7570  214.3740  149.0070 C   0  0  1  0  0  3  0  0  0  0  0  0
  162.1640  214.4510  149.0240 O   0  0  0  0  0  0  0  0  0  0  0  0
  161.5670  214.4250  147.7490 C   0  0  1  0  0  3  0  0  0  0  0  0
  163.1700  212.5100  147.6450 C   0  0  0  0  0  1  0  0  0  0  0  0
  161.8840  213.0850  147.0780 C   0  0  2  0  0  3  0  0  0  0  0  0
  162.1630  213.4050  142.7900 C   0  0  0  0  0  0  0  0  0  0  0  0
  163.1620  213.6470  144.9790 C   0  0  0  0  0  3  0  0  0  0  0  0
  159.3780  212.2480  145.4580 Cl  0  0  0  0  0  0  0  0  0  0  0  0
  162.2770  213.5370  141.0500 Cl  0  0  0  0  0  0  0  0  0  0  0  0
  163.2550  213.7510  143.5900 C   0  0  0  0  0  3  0  0  0  0  0  0
  160.8830  212.8410  144.7700 C   0  0  0  0  0  0  0  0  0  0  0  0
  161.9750  213.2030  145.5830 C   0  0  0  0  0  0  0  0  0  0  0  0
  160.9820  212.9490  143.3790 C   0  0  0  0  0  3  0  0  0  0  0  0
  1 13  1  6  0  0  0
  1  2  1  0  0  0  0
  2  4  1  0  0  0  0
  4  3  2  0  0  0  0
  5 10  1  0  0  0  0
  6  3  1  0  0  0  0
  7  9  1  1  0  0  0
  7  1  1  0  0  0  0
  8  6  2  0  0  0  0
  9  5  1  0  0  0  0
 10  2  2  0  0  0  0
 10  8  1  0  0  0  0
 11  8  1  0  0  0  0
 12 14  1  0  0  0  0
 13 17  2  0  0  0  0
 14 18  2  0  0  0  0
 15 12  1  0  0  0  0
 16 12  2  0  0  0  0
 16 13  1  0  0  0  0
 17 18  1  0  0  0  0
 19 20  1  1  0  0  0
 19  7  1  0  0  0  0
 21 23  1  6  0  0  0
 21 19  1  0  0  0  0
 21 20  1  0  0  0  0
 23 22  1  1  0  0  0
 24 31  2  0  0  0  0
 24 28  1  0  0  0  0
 25 30  1  0  0  0  0
 27 24  1  0  0  0  0
 28 25  2  0  0  0  0
 29 26  1  0  0  0  0
 29 30  2  0  0  0  0
 30 23  1  0  0  0  0
 31 29  1  0  0  0  0
M  END
>  <MODEL>
5

>  <REMARK>
 VINA RESULT:      -4.7      4.895      6.066
  Name = 
  4 active torsions:
  status: ('A' for Active; 'I' for Inactive)
    1  A    between atoms: C_4  and  C_12
    2  A    between atoms: C_9  and  C_22
    3  A    between atoms: C_9  and  C_23
    4  A    between atoms: C_15  and  C_21
                            x       y       z     vdW  Elec       q    Type
                         _______ _______ _______ _____ _____    ______ ____

>  <TORSDO>
F 4

$$$$
=
 OpenBabel11052422243D

 31 35  0  0  1  0  0  0  0  0999 V2000
  161.8790  204.6730  148.6640 C   0  0  2  0  0  3  0  0  0  0  0  0
  161.5810  203.1940  148.7650 C   0  0  0  0  0  0  0  0  0  0  0  0
  161.9460  200.9560  147.9380 C   0  0  0  0  0  3  0  0  0  0  0  0
  162.2390  202.3180  147.8970 C   0  0  0  0  0  3  0  0  0  0  0  0
  159.9730  203.5770  150.6960 C   0  0  0  0  0  2  0  0  0  0  0  0
  161.0230  200.4840  148.8170 N   0  0  0  0  0  0  0  0  0  0  0  0
  161.3680  205.4960  149.8520 C   0  0  1  0  0  3  0  0  0  0  0  0
  160.3640  201.3040  149.6770 C   0  0  0  0  0  0  0  0  0  0  0  0
  159.9730  205.0450  150.2820 C   0  0  0  0  0  2  0  0  0  0  0  0
  160.6220  202.6860  149.6700 C   0  0  0  0  0  0  0  0  0  0  0  0
  159.2030  200.5940  150.7910 Cl  0  0  0  0  0  0  0  0  0  0  0  0
  161.2530  205.2320  144.9470 C   0  0  0  0  0  0  0  0  0  0  0  0
  161.4000  205.2610  147.3700 C   0  0  0  0  0  0  0  0  0  0  0  0
  160.4250  206.3570  144.9830 C   0  0  0  0  0  3  0  0  0  0  0  0
  161.5840  204.6720  143.7590 F   0  0  0  0  0  0  0  0  0  0  0  0
  161.7380  204.6830  146.1370 C   0  0  0  0  0  3  0  0  0  0  0  0
  160.5660  206.3840  147.4010 C   0  0  0  0  0  3  0  0  0  0  0  0
  160.0810  206.9330  146.2100 C   0  0  0  0  0  3  0  0  0  0  0  0
  162.3490  205.4720  151.0260 C   0  0  1  0  0  3  0  0  0  0  0  0
  163.2980  206.5050  150.8890 O   0  0  0  0  0  0  0  0  0  0  0  0
  162.3310  206.6910  151.8950 C   0  0  1  0  0  3  0  0  0  0  0  0
  161.9590  208.5620  150.2810 C   0  0  0  0  0  1  0  0  0  0  0  0
  161.3860  207.8220  151.4760 C   0  0  2  0  0  3  0  0  0  0  0  0
  160.5640  210.5700  154.6910 C   0  0  0  0  0  0  0  0  0  0  0  0
  161.0890  210.1620  152.3660 C   0  0  0  0  0  3  0  0  0  0  0  0
  160.8070  206.5750  154.2540 Cl  0  0  0  0  0  0  0  0  0  0  0  0
  160.2310  211.6870  155.9970 Cl  0  0  0  0  0  0  0  0  0  0  0  0
  160.8220  211.0540  153.4070 C   0  0  0  0  0  3  0  0  0  0  0  0
  160.8310  208.2960  153.8960 C   0  0  0  0  0  0  0  0  0  0  0  0
  161.1070  208.7780  152.6020 C   0  0  0  0  0  0  0  0  0  0  0  0
  160.5660  209.1950  154.9340 C   0  0  0  0  0  3  0  0  0  0  0  0
  1 13  1  6  0  0  0
  1  2  1  0  0  0  0
  1  7  1  0  0  0  0
  2 10  1  0  0  0  0
  3  6  2  0  0  0  0
  4  3  1  0  0  0  0
  4  2  2  0  0  0  0
  6  8  1  0  0  0  0
  7  9  1  1  0  0  0
  7 19  1  0  0  0  0
  8 11  1  0  0  0  0
  9  5  1  0  0  0  0
 10  8  2  0  0  0  0
 10  5  1  0  0  0  0
 12 14  2  0  0  0  0
 12 16  1  0  0  0  0
 13 17  1  0  0  0  0
 14 18  1  0  0  0  0
 15 12  1  0  0  0  0
 16 13  2  0  0  0  0
 18 17  2  0  0  0  0
 19 20  1  6  0  0  0
 19 21  1  0  0  0  0
 20 21  1  0  0  0  0
 21 23  1  6  0  0  0
 23 22  1  6  0  0  0
 23 30  1  0  0  0  0
 24 31  1  0  0  0  0
 24 27  1  0  0  0  0
 25 30  2  0  0  0  0
 25 28  1  0  0  0  0
 28 24  2  0  0  0  0
 29 26  1  0  0  0  0
 29 31  2  0  0  0  0
 30 29  1  0  0  0  0
M  END
>  <MODEL>
6

>  <REMARK>
 VINA RESULT:      -4.0      4.310      9.341
  Name = 
  4 active torsions:
  status: ('A' for Active; 'I' for Inactive)
    1  A    between atoms: C_4  and  C_12
    2  A    between atoms: C_9  and  C_22
    3  A    between atoms: C_9  and  C_23
    4  A    between atoms: C_15  and  C_21
                            x       y       z     vdW  Elec       q    Type
                         _______ _______ _______ _____ _____    ______ ____

>  <TORSDO>
F 4

$$$$
=
 OpenBabel11052422243D

 31 35  0  0  1  0  0  0  0  0999 V2000
  161.8620  204.4980  148.8310 C   0  0  2  0  0  3  0  0  0  0  0  0
  161.4960  203.0310  148.8480 C   0  0  0  0  0  0  0  0  0  0  0  0
  161.7470  200.8330  147.8860 C   0  0  0  0  0  3  0  0  0  0  0  0
  162.1030  202.1790  147.9220 C   0  0  0  0  0  3  0  0  0  0  0  0
  159.9280  203.3720  150.8200 C   0  0  0  0  0  2  0  0  0  0  0  0
  160.8130  200.3510  148.7470 N   0  0  0  0  0  0  0  0  0  0  0  0
  161.4020  205.2720  150.0710 C   0  0  1  0  0  3  0  0  0  0  0  0
  160.2010  201.1480  149.6630 C   0  0  0  0  0  0  0  0  0  0  0  0
  159.9920  204.8610  150.4930 C   0  0  0  0  0  2  0  0  0  0  0  0
  160.5240  202.5150  149.7340 C   0  0  0  0  0  0  0  0  0  0  0  0
  159.0200  200.4280  150.7490 Cl  0  0  0  0  0  0  0  0  0  0  0  0
  160.9400  205.1760  145.1950 C   0  0  0  0  0  0  0  0  0  0  0  0
  161.3970  205.1830  147.5800 C   0  0  0  0  0  0  0  0  0  0  0  0
  160.4560  206.4840  145.2830 C   0  0  0  0  0  3  0  0  0  0  0  0
  160.9530  204.5370  144.0010 F   0  0  0  0  0  0  0  0  0  0  0  0
  161.4070  204.5250  146.3410 C   0  0  0  0  0  3  0  0  0  0  0  0
  160.9070  206.4910  147.6630 C   0  0  0  0  0  3  0  0  0  0  0  0
  160.4390  207.1420  146.5170 C   0  0  0  0  0  3  0  0  0  0  0  0
  162.3940  205.1330  151.2280 C   0  0  1  0  0  3  0  0  0  0  0  0
  163.3840  206.1320  151.1440 O   0  0  0  0  0  0  0  0  0  0  0  0
  162.4370  206.2950  152.1720 C   0  0  1  0  0  3  0  0  0  0  0  0
  162.2850  208.4730  150.9560 C   0  0  0  0  0  1  0  0  0  0  0  0
  161.5370  207.4880  151.8370 C   0  0  2  0  0  3  0  0  0  0  0  0
  160.0730  209.4550  155.3810 C   0  0  0  0  0  0  0  0  0  0  0  0
  160.8540  207.4570  154.2640 C   0  0  0  0  0  3  0  0  0  0  0  0
  160.9340  210.5190  151.5940 Cl  0  0  0  0  0  0  0  0  0  0  0  0
  159.4770  210.2530  156.8190 Cl  0  0  0  0  0  0  0  0  0  0  0  0
  160.3800  208.0930  155.4130 C   0  0  0  0  0  3  0  0  0  0  0  0
  160.7210  209.5530  153.0470 C   0  0  0  0  0  0  0  0  0  0  0  0
  161.0190  208.1760  153.0690 C   0  0  0  0  0  0  0  0  0  0  0  0
  160.2460  210.1830  154.2010 C   0  0  0  0  0  3  0  0  0  0  0  0
  1 13  1  6  0  0  0
  1  2  1  0  0  0  0
  1  7  1  0  0  0  0
  2 10  1  0  0  0  0
  3  4  1  0  0  0  0
  3  6  2  0  0  0  0
  4  2  2  0  0  0  0
  6  8  1  0  0  0  0
  7  9  1  1  0  0  0
  7 19  1  0  0  0  0
  8 10  2  0  0  0  0
  8 11  1  0  0  0  0
  9  5  1  0  0  0  0
 10  5  1  0  0  0  0
 12 14  2  0  0  0  0
 12 16  1  0  0  0  0
 13 17  1  0  0  0  0
 14 18  1  0  0  0  0
 15 12  1  0  0  0  0
 16 13  2  0  0  0  0
 18 17  2  0  0  0  0
 19 20  1  6  0  0  0
 19 21  1  0  0  0  0
 20 21  1  0  0  0  0
 21 23  1  6  0  0  0
 23 22  1  6  0  0  0
 23 30  1  0  0  0  0
 24 28  1  0  0  0  0
 24 27  1  0  0  0  0
 25 28  2  0  0  0  0
 26 29  1  0  0  0  0
 29 30  2  0  0  0  0
 29 31  1  0  0  0  0
 30 25  1  0  0  0  0
 31 24  2  0  0  0  0
M  END
>  <MODEL>
7

>  <REMARK>
 VINA RESULT:      -3.7      4.411      9.419
  Name = 
  4 active torsions:
  status: ('A' for Active; 'I' for Inactive)
    1  A    between atoms: C_4  and  C_12
    2  A    between atoms: C_9  and  C_22
    3  A    between atoms: C_9  and  C_23
    4  A    between atoms: C_15  and  C_21
                            x       y       z     vdW  Elec       q    Type
                         _______ _______ _______ _____ _____    ______ ____

>  <TORSDO>
F 4

$$$$
=
 OpenBabel11052422243D

 31 35  0  0  1  0  0  0  0  0999 V2000
  160.5500  210.1830  152.9520 C   0  0  2  0  0  3  0  0  0  0  0  0
  159.9610  211.2370  153.8640 C   0  0  0  0  0  0  0  0  0  0  0  0
  158.1970  212.8200  154.3130 C   0  0  0  0  0  3  0  0  0  0  0  0
  158.7370  211.8130  153.5160 C   0  0  0  0  0  3  0  0  0  0  0  0
  161.9040  211.0190  155.4890 C   0  0  0  0  0  2  0  0  0  0  0  0
  158.8600  213.2400  155.4220 N   0  0  0  0  0  0  0  0  0  0  0  0
  161.7060  209.3930  153.5760 C   0  0  1  0  0  3  0  0  0  0  0  0
  160.0520  212.7030  155.7940 C   0  0  0  0  0  0  0  0  0  0  0  0
  162.6450  210.3070  154.3620 C   0  0  0  0  0  2  0  0  0  0  0  0
  160.6390  211.6880  155.0180 C   0  0  0  0  0  0  0  0  0  0  0  0
  160.8230  213.3000  157.2570 Cl  0  0  0  0  0  0  0  0  0  0  0  0
  160.8310  212.4700  149.9170 C   0  0  0  0  0  0  0  0  0  0  0  0
  160.9530  210.7450  151.6220 C   0  0  0  0  0  0  0  0  0  0  0  0
  161.7870  211.7880  149.1590 C   0  0  0  0  0  3  0  0  0  0  0  0
  160.3090  213.6330  149.4610 F   0  0  0  0  0  0  0  0  0  0  0  0
  160.4160  211.9510  151.1460 C   0  0  0  0  0  3  0  0  0  0  0  0
  161.9140  210.0700  150.8610 C   0  0  0  0  0  3  0  0  0  0  0  0
  162.3290  210.5890  149.6310 C   0  0  0  0  0  3  0  0  0  0  0  0
  161.2040  208.2340  154.4390 C   0  0  1  0  0  3  0  0  0  0  0  0
  159.9630  207.7700  153.9570 O   0  0  0  0  0  0  0  0  0  0  0  0
  161.0650  206.9240  153.7270 C   0  0  1  0  0  3  0  0  0  0  0  0
  160.4540  207.8660  151.4950 C   0  0  0  0  0  1  0  0  0  0  0  0
  161.3840  206.9170  152.2290 C   0  0  2  0  0  3  0  0  0  0  0  0
  161.1290  202.9630  150.5350 C   0  0  0  0  0  0  0  0  0  0  0  0
  161.2070  204.4130  152.4690 C   0  0  0  0  0  3  0  0  0  0  0  0
  161.3790  206.7310  149.1350 Cl  0  0  0  0  0  0  0  0  0  0  0  0
  161.0270  201.3580  149.8480 Cl  0  0  0  0  0  0  0  0  0  0  0  0
  161.1230  203.1310  151.9220 C   0  0  0  0  0  3  0  0  0  0  0  0
  161.2930  205.3630  150.2370 C   0  0  0  0  0  0  0  0  0  0  0  0
  161.3030  205.5390  151.6350 C   0  0  0  0  0  0  0  0  0  0  0  0
  161.2110  204.0760  149.6960 C   0  0  0  0  0  3  0  0  0  0  0  0
  1 13  1  6  0  0  0
  1  7  1  0  0  0  0
  1  2  1  0  0  0  0
  2 10  1  0  0  0  0
  3  6  2  0  0  0  0
  4  2  2  0  0  0  0
  4  3  1  0  0  0  0
  6  8  1  0  0  0  0
  7  9  1  1  0  0  0
  7 19  1  0  0  0  0
  8 11  1  0  0  0  0
  9  5  1  0  0  0  0
 10  5  1  0  0  0  0
 10  8  2  0  0  0  0
 12 16  1  0  0  0  0
 14 18  1  0  0  0  0
 14 12  2  0  0  0  0
 15 12  1  0  0  0  0
 16 13  2  0  0  0  0
 17 13  1  0  0  0  0
 18 17  2  0  0  0  0
 19 20  1  6  0  0  0
 21 23  1  6  0  0  0
 21 20  1  0  0  0  0
 21 19  1  0  0  0  0
 23 22  1  6  0  0  0
 24 28  1  0  0  0  0
 26 29  1  0  0  0  0
 27 24  1  0  0  0  0
 28 25  2  0  0  0  0
 29 30  2  0  0  0  0
 30 23  1  0  0  0  0
 30 25  1  0  0  0  0
 31 29  1  0  0  0  0
 31 24  2  0  0  0  0
M  END
>  <MODEL>
8

>  <REMARK>
 VINA RESULT:      -3.6      2.837      4.696
  Name = 
  4 active torsions:
  status: ('A' for Active; 'I' for Inactive)
    1  A    between atoms: C_4  and  C_12
    2  A    between atoms: C_9  and  C_22
    3  A    between atoms: C_9  and  C_23
    4  A    between atoms: C_15  and  C_21
                            x       y       z     vdW  Elec       q    Type
                         _______ _______ _______ _____ _____    ______ ____

>  <TORSDO>
F 4

$$$$
=
 OpenBabel11052422243D

 31 35  0  0  1  0  0  0  0  0999 V2000
  160.8540  207.5230  151.3540 C   0  0  2  0  0  3  0  0  0  0  0  0
  160.6980  208.1980  152.6980 C   0  0  0  0  0  0  0  0  0  0  0  0
  159.6930  209.9460  154.0230 C   0  0  0  0  0  3  0  0  0  0  0  0
  159.8180  209.2780  152.8070 C   0  0  0  0  0  3  0  0  0  0  0  0
  162.3310  206.5780  153.7800 C   0  0  0  0  0  2  0  0  0  0  0  0
  160.4250  209.5510  155.0960 N   0  0  0  0  0  0  0  0  0  0  0  0
  161.5770  206.1730  151.4120 C   0  0  1  0  0  3  0  0  0  0  0  0
  161.2910  208.5050  155.0300 C   0  0  0  0  0  0  0  0  0  0  0  0
  162.7710  206.2210  152.3640 C   0  0  0  0  0  2  0  0  0  0  0  0
  161.4560  207.8030  153.8240 C   0  0  0  0  0  0  0  0  0  0  0  0
  162.1790  208.0570  156.4800 Cl  0  0  0  0  0  0  0  0  0  0  0  0
  162.1990  210.6220  149.5890 C   0  0  0  0  0  0  0  0  0  0  0  0
  161.4970  208.4220  150.3390 C   0  0  0  0  0  0  0  0  0  0  0  0
  162.7680  210.0510  148.4470 C   0  0  0  0  0  3  0  0  0  0  0  0
  162.2630  211.9610  149.7800 F   0  0  0  0  0  0  0  0  0  0  0  0
  161.5670  209.8100  150.5340 C   0  0  0  0  0  3  0  0  0  0  0  0
  162.0740  207.8550  149.1970 C   0  0  0  0  0  3  0  0  0  0  0  0
  162.7060  208.6680  148.2510 C   0  0  0  0  0  3  0  0  0  0  0  0
  160.6220  205.0320  151.7710 C   0  0  1  0  0  3  0  0  0  0  0  0
  159.5190  205.0250  150.8940 O   0  0  0  0  0  0  0  0  0  0  0  0
  160.4520  203.9870  150.7110 C   0  0  1  0  0  3  0  0  0  0  0  0
  160.6040  205.4010  148.6560 C   0  0  0  0  0  1  0  0  0  0  0  0
  161.1990  204.2150  149.3930 C   0  0  2  0  0  3  0  0  0  0  0  0
  161.2060  200.7220  146.8700 C   0  0  0  0  0  0  0  0  0  0  0  0
  161.2060  203.1280  147.1180 C   0  0  0  0  0  3  0  0  0  0  0  0
  161.2210  201.4670  150.8270 Cl  0  0  0  0  0  0  0  0  0  0  0  0
  161.2070  199.3050  145.8440 Cl  0  0  0  0  0  0  0  0  0  0  0  0
  161.2090  201.9980  146.2990 C   0  0  0  0  0  3  0  0  0  0  0  0
  161.2050  201.7060  149.0850 C   0  0  0  0  0  0  0  0  0  0  0  0
  161.1930  202.9950  148.5160 C   0  0  0  0  0  0  0  0  0  0  0  0
  161.2060  200.5780  148.2580 C   0  0  0  0  0  3  0  0  0  0  0  0
  1 13  1  6  0  0  0
  1  7  1  0  0  0  0
  1  2  1  0  0  0  0
  2  4  2  0  0  0  0
  2 10  1  0  0  0  0
  3  6  2  0  0  0  0
  4  3  1  0  0  0  0
  5 10  1  0  0  0  0
  7 19  1  0  0  0  0
  7  9  1  1  0  0  0
  8  6  1  0  0  0  0
  8 11  1  0  0  0  0
  9  5  1  0  0  0  0
 10  8  2  0  0  0  0
 12 15  1  0  0  0  0
 12 16  1  0  0  0  0
 13 16  2  0  0  0  0
 14 12  2  0  0  0  0
 17 13  1  0  0  0  0
 18 14  1  0  0  0  0
 18 17  2  0  0  0  0
 19 20  1  6  0  0  0
 21 23  1  6  0  0  0
 21 20  1  0  0  0  0
 21 19  1  0  0  0  0
 23 22  1  6  0  0  0
 24 31  1  0  0  0  0
 25 30  2  0  0  0  0
 27 24  1  0  0  0  0
 28 24  2  0  0  0  0
 28 25  1  0  0  0  0
 29 26  1  0  0  0  0
 30 29  1  0  0  0  0
 30 23  1  0  0  0  0
 31 29  2  0  0  0  0
M  END
>  <MODEL>
9

>  <REMARK>
 VINA RESULT:      -3.6      3.419      5.812
  Name = 
  4 active torsions:
  status: ('A' for Active; 'I' for Inactive)
    1  A    between atoms: C_4  and  C_12
    2  A    between atoms: C_9  and  C_22
    3  A    between atoms: C_9  and  C_23
    4  A    between atoms: C_15  and  C_21
                            x       y       z     vdW  Elec       q    Type
                         _______ _______ _______ _____ _____    ______ ____

>  <TORSDO>
F 4

$$$$
