=
 OpenBabel11062408203D

 32 36  0  0  1  0  0  0  0  0999 V2000
  162.1260  209.7430  151.4560 C   0  0  1  0  0  3  0  0  0  0  0  0
  160.0380  209.9180  152.6040 C   0  0  1  0  0  3  0  0  0  0  0  0
  160.6680  205.3860  150.3810 C   0  0  2  0  0  3  0  0  0  0  0  0
  161.8670  209.4320  149.9680 C   0  0  0  0  0  2  0  0  0  0  0  0
  161.1560  210.7650  152.0510 C   0  0  2  0  0  3  0  0  0  0  0  0
  159.3050  212.0630  153.8560 C   0  0  0  0  0  2  0  0  0  0  0  0
  160.5500  204.0140  150.6170 O   0  0  0  0  0  1  0  0  0  0  0  0
  160.7020  208.5810  152.9520 C   0  0  1  0  0  3  0  0  0  0  0  0
  158.8680  212.7680  152.5820 C   0  0  1  0  0  3  0  0  0  0  0  0
  161.4470  205.6530  149.0730 C   0  0  2  0  0  3  0  0  0  0  0  0
  161.3030  208.0360  149.9780 C   0  0  1  0  0  3  0  0  0  0  0  0
  159.2070  210.5440  153.7410 C   0  0  0  0  0  2  0  0  0  0  0  0
  160.6240  211.7780  151.0380 C   0  0  0  0  0  2  0  0  0  0  0  0
  162.9070  207.3880  148.2890 O   0  0  0  0  0  1  0  0  0  0  0  0
  161.6100  207.1600  148.7560 C   0  0  1  0  0  3  0  0  0  0  0  0
  161.2780  206.1090  151.6080 C   0  0  1  0  0  3  0  0  0  0  0  0
  162.2390  205.3080  152.2280 O   0  0  0  0  0  1  0  0  0  0  0  0
  161.9790  208.4910  152.2230 N   0  0  1  0  0  0  0  0  0  0  0  0
  158.1800  214.0600  152.9880 C   0  0  0  0  0  1  0  0  0  0  0  0
  161.9260  207.4420  151.2030 C   0  0  2  0  0  3  0  0  0  0  0  0
  160.0960  213.0480  151.6990 C   0  0  1  0  0  3  0  0  0  0  0  0
  160.1880  207.1770  156.4270 C   0  0  0  0  0  3  0  0  0  0  0  0
  160.7680  208.2880  157.2600 C   0  0  0  0  0  2  0  0  0  0  0  0
  161.7380  209.1600  155.1310 C   0  0  0  0  0  3  0  0  0  0  0  0
  160.9370  208.3520  154.4200 C   0  0  0  0  0  0  0  0  0  0  0  0
  162.0100  208.8770  156.5840 C   0  0  0  0  0  2  0  0  0  0  0  0
  160.2370  207.2380  155.0920 C   0  0  0  0  0  3  0  0  0  0  0  0
  161.8120  204.2310  147.4150 C   0  0  0  0  0  1  0  0  0  0  0  0
  160.8180  205.0190  147.9990 O   0  0  0  0  0  0  0  0  0  0  0  0
  159.7670  213.9990  150.6480 N   0  0  0  0  0  2  0  0  0  0  0  0
  160.6730  214.2390  149.6070 C   0  0  0  0  0  0  0  0  0  0  0  0
  161.4520  214.4460  148.7110 C   0  0  0  0  0  3  0  0  0  0  0  0
  1  4  1  6  0  0  0
  1  5  1  0  0  0  0
  1 18  1  0  0  0  0
  2  8  1  0  0  0  0
  2 12  1  1  0  0  0
  3  7  1  1  0  0  0
  3 16  1  0  0  0  0
  5 13  1  6  0  0  0
  5  2  1  0  0  0  0
  8 25  1  1  0  0  0
  9 19  1  1  0  0  0
  9  6  1  0  0  0  0
 10 29  1  6  0  0  0
 10  3  1  0  0  0  0
 11  4  1  6  0  0  0
 11 20  1  0  0  0  0
 12  6  1  0  0  0  0
 13 21  1  0  0  0  0
 15 14  1  1  0  0  0
 15 10  1  0  0  0  0
 15 11  1  0  0  0  0
 16 17  1  6  0  0  0
 18  8  1  0  0  0  0
 20 16  1  0  0  0  0
 20 18  1  0  0  0  0
 21  9  1  0  0  0  0
 22 23  1  0  0  0  0
 24 26  1  0  0  0  0
 25 27  1  0  0  0  0
 25 24  2  0  0  0  0
 26 23  1  0  0  0  0
 27 22  2  0  0  0  0
 28 29  1  0  0  0  0
 30 21  1  0  0  0  0
 31 30  1  0  0  0  0
 32 31  3  0  0  0  0
M  END
>  <MODEL>
1

>  <REMARK>
 VINA RESULT:      -7.8      0.000      0.000
  Name = 
  4 active torsions:
  status: ('A' for Active; 'I' for Inactive)
    1  A    between atoms: C_10  and  C_28
    2  A    between atoms: N_14  and  C_21
    3  A    between atoms: N_14  and  C_29
    4  A    between atoms: C_15  and  O_26
                            x       y       z     vdW  Elec       q    Type
                         _______ _______ _______ _____ _____    ______ ____

>  <TORSDO>
F 4

$$$$
