=
 OpenBabel11052423153D

 27 30  0  0  1  0  0  0  0  0999 V2000
  160.7980  205.8560  149.9520 N   0  0  0  0  0  0  0  0  0  0  0  0
  161.3840  206.8660  150.8430 C   0  0  1  0  0  3  0  0  0  0  0  0
  162.1780  210.2130  153.3480 C   0  0  0  0  0  3  0  0  0  0  0  0
  162.2340  211.2080  155.5120 F   0  0  0  0  0  0  0  0  0  0  0  0
  161.3940  208.2510  150.2040 C   0  0  0  0  0  2  0  0  0  0  0  0
  160.8570  207.9990  154.4290 C   0  0  0  0  0  3  0  0  0  0  0  0
  161.2190  209.0680  155.2530 C   0  0  0  0  0  3  0  0  0  0  0  0
  161.1600  208.0240  153.0650 C   0  0  0  0  0  0  0  0  0  0  0  0
  161.8790  210.1750  154.7130 C   0  0  0  0  0  0  0  0  0  0  0  0
  161.8090  209.1530  152.5140 C   0  0  0  0  0  0  0  0  0  0  0  0
  160.6900  206.8860  152.2050 C   0  0  0  0  0  2  0  0  0  0  0  0
  162.2160  209.2020  151.0690 C   0  0  0  0  0  2  0  0  0  0  0  0
  161.2420  201.6740  150.6290 C   0  0  0  0  0  3  0  0  0  0  0  0
  160.9530  204.4390  150.1930 C   0  0  0  0  0  0  0  0  0  0  0  0
  161.3200  203.9450  151.4580 C   0  0  0  0  0  3  0  0  0  0  0  0
  161.4630  202.5720  151.6740 C   0  0  0  0  0  3  0  0  0  0  0  0
  160.8760  202.1480  149.3670 C   0  0  0  0  0  3  0  0  0  0  0  0
  160.7340  203.5210  149.1510 C   0  0  0  0  0  3  0  0  0  0  0  0
  160.2080  206.2630  148.7380 N   0  0  0  0  0  2  0  0  0  0  0  0
  162.8320  205.0350  146.5680 C   0  0  0  0  0  3  0  0  0  0  0  0
  161.5400  205.5060  144.4830 C   0  0  0  0  0  0  0  0  0  0  0  0
  161.7350  205.5110  143.1080 O   0  0  0  0  0  1  0  0  0  0  0  0
  160.8180  206.1660  147.4440 C   0  0  0  0  0  0  0  0  0  0  0  0
  162.5070  204.7530  145.3070 C   0  0  0  0  0  3  0  0  0  0  0  0
  160.4500  206.1190  144.9640 C   0  0  0  0  0  3  0  0  0  0  0  0
  160.0210  206.2070  146.3750 C   0  0  0  0  0  3  0  0  0  0  0  0
  162.3060  206.2260  147.2950 C   0  0  0  0  0  2  0  0  0  0  0  0
  1 14  1  0  0  0  0
  2  1  1  6  0  0  0
  2 11  1  0  0  0  0
  3  9  1  0  0  0  0
  5  2  1  0  0  0  0
  5 12  1  0  0  0  0
  6  7  1  0  0  0  0
  8  6  2  0  0  0  0
  9  7  2  0  0  0  0
  9  4  1  0  0  0  0
 10  8  1  0  0  0  0
 10  3  2  0  0  0  0
 11  8  1  0  0  0  0
 12 10  1  0  0  0  0
 13 16  1  0  0  0  0
 14 15  1  0  0  0  0
 15 16  2  0  0  0  0
 17 13  2  0  0  0  0
 18 17  1  0  0  0  0
 18 14  2  0  0  0  0
 19  1  1  0  0  0  0
 20 27  1  0  0  0  0
 21 25  2  0  0  0  0
 21 24  1  0  0  0  0
 22 21  1  0  0  0  0
 23 19  1  0  0  0  0
 24 20  2  0  0  0  0
 25 26  1  0  0  0  0
 26 23  2  0  0  0  0
 27 23  1  0  0  0  0
M  END
>  <MODEL>
1

>  <REMARK>
 VINA RESULT:      -9.6      0.000      0.000
  Name = 
  4 active torsions:
  status: ('A' for Active; 'I' for Inactive)
    1  A    between atoms: N_1  and  N_15
    2  A    between atoms: N_1  and  C_18
    3  A    between atoms: C_2  and  N_15
    4  A    between atoms: C_9  and  N_15
                            x       y       z     vdW  Elec       q    Type
                         _______ _______ _______ _____ _____    ______ ____

>  <TORSDO>
F 4

$$$$
=
 OpenBabel11052423153D

 27 30  0  0  1  0  0  0  0  0999 V2000
  161.3120  205.8990  150.3430 N   0  0  0  0  0  0  0  0  0  0  0  0
  160.9290  206.7380  151.4870 C   0  0  1  0  0  3  0  0  0  0  0  0
  160.7950  209.3910  154.8110 C   0  0  0  0  0  3  0  0  0  0  0  0
  160.4890  211.5820  155.6950 F   0  0  0  0  0  0  0  0  0  0  0  0
  161.6490  206.3200  152.7640 C   0  0  0  0  0  2  0  0  0  0  0  0
  160.7640  210.4590  152.2270 C   0  0  0  0  0  3  0  0  0  0  0  0
  160.6200  211.3010  153.3330 C   0  0  0  0  0  3  0  0  0  0  0  0
  160.9140  209.0800  152.4030 C   0  0  0  0  0  0  0  0  0  0  0  0
  160.6340  210.7680  154.6250 C   0  0  0  0  0  0  0  0  0  0  0  0
  160.9510  208.5430  153.7100 C   0  0  0  0  0  0  0  0  0  0  0  0
  161.1370  208.2230  151.1900 C   0  0  0  0  0  2  0  0  0  0  0  0
  161.0450  207.0630  153.9520 C   0  0  0  0  0  2  0  0  0  0  0  0
  160.8800  201.6620  150.4280 C   0  0  0  0  0  3  0  0  0  0  0  0
  161.1580  204.4620  150.3620 C   0  0  0  0  0  0  0  0  0  0  0  0
  160.5830  203.7710  149.2800 C   0  0  0  0  0  3  0  0  0  0  0  0
  160.4440  202.3810  149.3140 C   0  0  0  0  0  3  0  0  0  0  0  0
  161.4550  202.3330  151.5100 C   0  0  0  0  0  3  0  0  0  0  0  0
  161.5920  203.7240  151.4760 C   0  0  0  0  0  3  0  0  0  0  0  0
  162.0020  206.4800  149.2590 N   0  0  0  0  0  2  0  0  0  0  0  0
  162.6230  204.0690  146.6310 C   0  0  0  0  0  3  0  0  0  0  0  0
  160.9300  205.0770  145.0960 C   0  0  0  0  0  0  0  0  0  0  0  0
  160.5080  204.9580  143.7780 O   0  0  0  0  0  1  0  0  0  0  0  0
  161.8970  206.0670  147.8900 C   0  0  0  0  0  0  0  0  0  0  0  0
  161.7100  203.9610  145.6670 C   0  0  0  0  0  3  0  0  0  0  0  0
  160.5410  206.1600  145.7820 C   0  0  0  0  0  3  0  0  0  0  0  0
  160.8340  206.4770  147.1960 C   0  0  0  0  0  3  0  0  0  0  0  0
  163.0390  205.3790  147.2110 C   0  0  0  0  0  2  0  0  0  0  0  0
  1 14  1  0  0  0  0
  2  1  1  6  0  0  0
  2  5  1  0  0  0  0
  5 12  1  0  0  0  0
  6  8  2  0  0  0  0
  6  7  1  0  0  0  0
  7  9  2  0  0  0  0
  8 10  1  0  0  0  0
  9  3  1  0  0  0  0
  9  4  1  0  0  0  0
 10 12  1  0  0  0  0
 10  3  2  0  0  0  0
 11  2  1  0  0  0  0
 11  8  1  0  0  0  0
 13 17  1  0  0  0  0
 14 18  1  0  0  0  0
 15 16  1  0  0  0  0
 15 14  2  0  0  0  0
 16 13  2  0  0  0  0
 18 17  2  0  0  0  0
 19  1  1  0  0  0  0
 20 27  1  0  0  0  0
 21 24  1  0  0  0  0
 21 25  2  0  0  0  0
 22 21  1  0  0  0  0
 23 19  1  0  0  0  0
 24 20  2  0  0  0  0
 25 26  1  0  0  0  0
 26 23  2  0  0  0  0
 27 23  1  0  0  0  0
M  END
>  <MODEL>
2

>  <REMARK>
 VINA RESULT:      -8.9      1.036      1.923
  Name = 
  4 active torsions:
  status: ('A' for Active; 'I' for Inactive)
    1  A    between atoms: N_1  and  N_15
    2  A    between atoms: N_1  and  C_18
    3  A    between atoms: C_2  and  N_15
    4  A    between atoms: C_9  and  N_15
                            x       y       z     vdW  Elec       q    Type
                         _______ _______ _______ _____ _____    ______ ____

>  <TORSDO>
F 4

$$$$
=
 OpenBabel11052423153D

 27 30  0  0  1  0  0  0  0  0999 V2000
  161.1840  208.6310  153.2810 N   0  0  0  0  0  0  0  0  0  0  0  0
  160.9170  207.7720  152.1190 C   0  0  1  0  0  3  0  0  0  0  0  0
  161.1330  205.1260  148.7940 C   0  0  0  0  0  3  0  0  0  0  0  0
  161.0170  202.9220  147.8950 F   0  0  0  0  0  0  0  0  0  0  0  0
  161.6770  208.2400  150.8820 C   0  0  0  0  0  2  0  0  0  0  0  0
  161.0320  204.0500  151.3730 C   0  0  0  0  0  3  0  0  0  0  0  0
  161.0020  203.2040  150.2610 C   0  0  0  0  0  3  0  0  0  0  0  0
  161.1030  205.4370  151.2050 C   0  0  0  0  0  0  0  0  0  0  0  0
  161.0520  203.7410  148.9720 C   0  0  0  0  0  0  0  0  0  0  0  0
  161.1760  205.9790  149.9010 C   0  0  0  0  0  0  0  0  0  0  0  0
  161.2040  206.3030  152.4270 C   0  0  0  0  0  2  0  0  0  0  0  0
  161.1870  207.4620  149.6640 C   0  0  0  0  0  2  0  0  0  0  0  0
  160.4600  207.2950  157.2610 C   0  0  0  0  0  3  0  0  0  0  0  0
  160.9500  208.1810  154.6350 C   0  0  0  0  0  0  0  0  0  0  0  0
  161.8310  208.5100  155.6800 C   0  0  0  0  0  3  0  0  0  0  0  0
  161.5880  208.0700  156.9840 C   0  0  0  0  0  3  0  0  0  0  0  0
  159.5750  206.9610  156.2340 C   0  0  0  0  0  3  0  0  0  0  0  0
  159.8190  207.4010  154.9300 C   0  0  0  0  0  3  0  0  0  0  0  0
  161.5180  209.9850  153.0790 N   0  0  0  0  0  2  0  0  0  0  0  0
  158.5870  211.9840  152.3570 C   0  0  0  0  0  3  0  0  0  0  0  0
  158.6180  213.1110  154.5860 C   0  0  0  0  0  0  0  0  0  0  0  0
  157.9790  214.1550  155.2410 O   0  0  0  0  0  1  0  0  0  0  0  0
  160.6660  211.1030  153.3610 C   0  0  0  0  0  0  0  0  0  0  0  0
  157.9620  212.5520  153.3860 C   0  0  0  0  0  3  0  0  0  0  0  0
  159.7470  212.6310  155.1250 C   0  0  0  0  0  3  0  0  0  0  0  0
  160.5700  211.5080  154.6280 C   0  0  0  0  0  3  0  0  0  0  0  0
  160.0730  211.9110  152.2500 C   0  0  0  0  0  2  0  0  0  0  0  0
  1 14  1  0  0  0  0
  2 11  1  0  0  0  0
  2  1  1  1  0  0  0
  3  9  2  0  0  0  0
  3 10  1  0  0  0  0
  4  9  1  0  0  0  0
  5  2  1  0  0  0  0
  7  6  2  0  0  0  0
  8  6  1  0  0  0  0
  8 11  1  0  0  0  0
  9  7  1  0  0  0  0
 10  8  2  0  0  0  0
 12 10  1  0  0  0  0
 12  5  1  0  0  0  0
 14 18  2  0  0  0  0
 14 15  1  0  0  0  0
 15 16  2  0  0  0  0
 16 13  1  0  0  0  0
 17 13  2  0  0  0  0
 18 17  1  0  0  0  0
 19  1  1  0  0  0  0
 19 23  1  0  0  0  0
 20 24  2  0  0  0  0
 21 25  2  0  0  0  0
 21 22  1  0  0  0  0
 23 26  2  0  0  0  0
 24 21  1  0  0  0  0
 26 25  1  0  0  0  0
 27 20  1  0  0  0  0
 27 23  1  0  0  0  0
M  END
>  <MODEL>
3

>  <REMARK>
 VINA RESULT:      -8.9      4.417      8.095
  Name = 
  4 active torsions:
  status: ('A' for Active; 'I' for Inactive)
    1  A    between atoms: N_1  and  N_15
    2  A    between atoms: N_1  and  C_18
    3  A    between atoms: C_2  and  N_15
    4  A    between atoms: C_9  and  N_15
                            x       y       z     vdW  Elec       q    Type
                         _______ _______ _______ _____ _____    ______ ____

>  <TORSDO>
F 4

$$$$
=
 OpenBabel11052423153D

 27 30  0  0  1  0  0  0  0  0999 V2000
  161.3960  204.5230  148.6700 N   0  0  0  0  0  0  0  0  0  0  0  0
  161.5820  205.5450  149.7090 C   0  0  1  0  0  3  0  0  0  0  0  0
  161.1260  208.4310  152.8030 C   0  0  0  0  0  3  0  0  0  0  0  0
  161.0770  208.9870  155.1200 F   0  0  0  0  0  0  0  0  0  0  0  0
  160.8310  206.8310  149.3820 C   0  0  0  0  0  2  0  0  0  0  0  0
  161.2060  205.7200  153.4840 C   0  0  0  0  0  3  0  0  0  0  0  0
  161.1580  206.6910  154.4870 C   0  0  0  0  0  3  0  0  0  0  0  0
  161.2240  206.0940  152.1370 C   0  0  0  0  0  0  0  0  0  0  0  0
  161.1180  208.0460  154.1480 C   0  0  0  0  0  0  0  0  0  0  0  0
  161.1620  207.4650  151.7930 C   0  0  0  0  0  0  0  0  0  0  0  0
  161.2040  205.0160  151.0920 C   0  0  0  0  0  2  0  0  0  0  0  0
  161.2440  207.9230  150.3650 C   0  0  0  0  0  2  0  0  0  0  0  0
  161.6580  205.4530  144.5220 C   0  0  0  0  0  3  0  0  0  0  0  0
  161.4970  204.8350  147.2620 C   0  0  0  0  0  0  0  0  0  0  0  0
  162.6190  204.4560  146.5050 C   0  0  0  0  0  3  0  0  0  0  0  0
  162.6990  204.7630  145.1440 C   0  0  0  0  0  3  0  0  0  0  0  0
  160.5360  205.8360  145.2600 C   0  0  0  0  0  3  0  0  0  0  0  0
  160.4570  205.5290  146.6210 C   0  0  0  0  0  3  0  0  0  0  0  0
  160.9440  203.2390  149.0360 N   0  0  0  0  0  2  0  0  0  0  0  0
  160.0870  201.8980  145.7840 C   0  0  0  0  0  3  0  0  0  0  0  0
  161.2060  199.7080  146.2220 C   0  0  0  0  0  0  0  0  0  0  0  0
  161.3200  198.4550  145.6360 O   0  0  0  0  0  1  0  0  0  0  0  0
  160.7850  202.1280  148.1430 C   0  0  0  0  0  0  0  0  0  0  0  0
  160.7550  200.8240  145.3660 C   0  0  0  0  0  3  0  0  0  0  0  0
  161.5810  199.8380  147.5020 C   0  0  0  0  0  3  0  0  0  0  0  0
  161.5830  201.0730  148.3140 C   0  0  0  0  0  3  0  0  0  0  0  0
  159.6300  202.0720  147.1930 C   0  0  0  0  0  2  0  0  0  0  0  0
  1 19  1  0  0  0  0
  2  1  1  6  0  0  0
  2 11  1  0  0  0  0
  3  9  1  0  0  0  0
  5  2  1  0  0  0  0
  5 12  1  0  0  0  0
  6  7  1  0  0  0  0
  8  6  2  0  0  0  0
  9  7  2  0  0  0  0
  9  4  1  0  0  0  0
 10  8  1  0  0  0  0
 10  3  2  0  0  0  0
 11  8  1  0  0  0  0
 12 10  1  0  0  0  0
 13 16  2  0  0  0  0
 13 17  1  0  0  0  0
 14  1  1  0  0  0  0
 15 14  2  0  0  0  0
 16 15  1  0  0  0  0
 17 18  2  0  0  0  0
 18 14  1  0  0  0  0
 20 27  1  0  0  0  0
 21 25  2  0  0  0  0
 22 21  1  0  0  0  0
 23 26  2  0  0  0  0
 23 19  1  0  0  0  0
 24 20  2  0  0  0  0
 24 21  1  0  0  0  0
 25 26  1  0  0  0  0
 27 23  1  0  0  0  0
M  END
>  <MODEL>
4

>  <REMARK>
 VINA RESULT:      -8.8      2.417      4.273
  Name = 
  4 active torsions:
  status: ('A' for Active; 'I' for Inactive)
    1  A    between atoms: N_1  and  N_15
    2  A    between atoms: N_1  and  C_18
    3  A    between atoms: C_2  and  N_15
    4  A    between atoms: C_9  and  N_15
                            x       y       z     vdW  Elec       q    Type
                         _______ _______ _______ _____ _____    ______ ____

>  <TORSDO>
F 4

$$$$
=
 OpenBabel11052423153D

 27 30  0  0  1  0  0  0  0  0999 V2000
  161.1470  204.3970  148.9170 N   0  0  0  0  0  0  0  0  0  0  0  0
  160.9320  205.4130  149.9560 C   0  0  1  0  0  3  0  0  0  0  0  0
  161.2910  208.2430  153.1140 C   0  0  0  0  0  3  0  0  0  0  0  0
  161.6420  210.4800  153.8540 F   0  0  0  0  0  0  0  0  0  0  0  0
  161.2980  204.8940  151.3430 C   0  0  0  0  0  2  0  0  0  0  0  0
  161.9540  209.0280  150.5130 C   0  0  0  0  0  3  0  0  0  0  0  0
  161.9670  209.9640  151.5500 C   0  0  0  0  0  3  0  0  0  0  0  0
  161.6020  207.6980  150.7650 C   0  0  0  0  0  0  0  0  0  0  0  0
  161.6350  209.5720  152.8500 C   0  0  0  0  0  0  0  0  0  0  0  0
  161.2870  207.2970  152.0840 C   0  0  0  0  0  0  0  0  0  0  0  0
  161.6700  206.7120  149.6340 C   0  0  0  0  0  2  0  0  0  0  0  0
  160.8390  205.8980  152.3960 C   0  0  0  0  0  2  0  0  0  0  0  0
  162.0470  205.4560  144.8910 C   0  0  0  0  0  3  0  0  0  0  0  0
  161.4640  204.7520  147.5520 C   0  0  0  0  0  0  0  0  0  0  0  0
  162.6750  204.3580  146.9530 C   0  0  0  0  0  3  0  0  0  0  0  0
  162.9640  204.7080  145.6320 C   0  0  0  0  0  3  0  0  0  0  0  0
  160.8410  205.8540  145.4700 C   0  0  0  0  0  3  0  0  0  0  0  0
  160.5520  205.5040  146.7930 C   0  0  0  0  0  3  0  0  0  0  0  0
  160.8780  203.0430  149.2070 N   0  0  0  0  0  2  0  0  0  0  0  0
  160.0350  201.9260  145.8680 C   0  0  0  0  0  3  0  0  0  0  0  0
  161.2030  199.7350  146.1410 C   0  0  0  0  0  0  0  0  0  0  0  0
  161.3420  198.5300  145.4640 O   0  0  0  0  0  1  0  0  0  0  0  0
  160.7390  201.9980  148.2350 C   0  0  0  0  0  0  0  0  0  0  0  0
  160.7250  200.9000  145.3700 C   0  0  0  0  0  3  0  0  0  0  0  0
  161.5820  199.7790  147.4260 C   0  0  0  0  0  3  0  0  0  0  0  0
  161.5600  200.9510  148.3260 C   0  0  0  0  0  3  0  0  0  0  0  0
  159.5810  201.9860  147.2870 C   0  0  0  0  0  2  0  0  0  0  0  0
  1 19  1  0  0  0  0
  2  1  1  6  0  0  0
  2  5  1  0  0  0  0
  5 12  1  0  0  0  0
  6  8  2  0  0  0  0
  6  7  1  0  0  0  0
  7  9  2  0  0  0  0
  8 10  1  0  0  0  0
  9  3  1  0  0  0  0
  9  4  1  0  0  0  0
 10 12  1  0  0  0  0
 10  3  2  0  0  0  0
 11  2  1  0  0  0  0
 11  8  1  0  0  0  0
 13 17  2  0  0  0  0
 13 16  1  0  0  0  0
 14  1  1  0  0  0  0
 15 14  1  0  0  0  0
 16 15  2  0  0  0  0
 17 18  1  0  0  0  0
 18 14  2  0  0  0  0
 20 27  1  0  0  0  0
 21 25  2  0  0  0  0
 22 21  1  0  0  0  0
 23 26  2  0  0  0  0
 23 19  1  0  0  0  0
 24 20  2  0  0  0  0
 24 21  1  0  0  0  0
 25 26  1  0  0  0  0
 27 23  1  0  0  0  0
M  END
>  <MODEL>
5

>  <REMARK>
 VINA RESULT:      -8.6      2.354      4.377
  Name = 
  4 active torsions:
  status: ('A' for Active; 'I' for Inactive)
    1  A    between atoms: N_1  and  N_15
    2  A    between atoms: N_1  and  C_18
    3  A    between atoms: C_2  and  N_15
    4  A    between atoms: C_9  and  N_15
                            x       y       z     vdW  Elec       q    Type
                         _______ _______ _______ _____ _____    ______ ____

>  <TORSDO>
F 4

$$$$
=
 OpenBabel11052423153D

 27 30  0  0  1  0  0  0  0  0999 V2000
  161.5340  209.6320  151.3990 N   0  0  0  0  0  0  0  0  0  0  0  0
  161.1160  208.3010  150.9410 C   0  0  1  0  0  3  0  0  0  0  0  0
  160.8930  204.2700  149.5930 C   0  0  0  0  0  3  0  0  0  0  0  0
  160.7000  201.9420  150.0620 F   0  0  0  0  0  0  0  0  0  0  0  0
  161.6650  207.9790  149.5540 C   0  0  0  0  0  2  0  0  0  0  0  0
  161.2150  204.7660  152.3260 C   0  0  0  0  0  3  0  0  0  0  0  0
  161.0380  203.4570  151.8690 C   0  0  0  0  0  3  0  0  0  0  0  0
  161.2220  205.8350  151.4250 C   0  0  0  0  0  0  0  0  0  0  0  0
  160.8760  203.2090  150.5040 C   0  0  0  0  0  0  0  0  0  0  0  0
  161.0810  205.5810  150.0410 C   0  0  0  0  0  0  0  0  0  0  0  0
  161.4860  207.2160  151.9520 C   0  0  0  0  0  2  0  0  0  0  0  0
  161.0160  206.6980  149.0380 C   0  0  0  0  0  2  0  0  0  0  0  0
  160.0960  211.3120  155.0400 C   0  0  0  0  0  3  0  0  0  0  0  0
  161.0560  210.2000  152.6400 C   0  0  0  0  0  0  0  0  0  0  0  0
  161.9260  210.4430  153.7180 C   0  0  0  0  0  3  0  0  0  0  0  0
  161.4490  210.9940  154.9100 C   0  0  0  0  0  3  0  0  0  0  0  0
  159.2190  211.0780  153.9780 C   0  0  0  0  0  3  0  0  0  0  0  0
  159.6970  210.5250  152.7870 C   0  0  0  0  0  3  0  0  0  0  0  0
  162.2860  210.4560  150.5370 N   0  0  0  0  0  2  0  0  0  0  0  0
  160.8170  213.7130  149.9540 C   0  0  0  0  0  3  0  0  0  0  0  0
  161.3020  213.6620  147.5040 C   0  0  0  0  0  0  0  0  0  0  0  0
  161.0070  214.3960  146.3620 O   0  0  0  0  0  1  0  0  0  0  0  0
  161.7450  211.4440  149.6490 C   0  0  0  0  0  0  0  0  0  0  0  0
  161.1160  214.3270  148.8100 C   0  0  0  0  0  3  0  0  0  0  0  0
  161.8040  212.4300  147.3440 C   0  0  0  0  0  3  0  0  0  0  0  0
  162.2230  211.4900  148.4050 C   0  0  0  0  0  3  0  0  0  0  0  0
  160.5470  212.2490  150.0420 C   0  0  0  0  0  2  0  0  0  0  0  0
  1 14  1  0  0  0  0
  2  1  1  1  0  0  0
  2 11  1  0  0  0  0
  3 10  2  0  0  0  0
  3  9  1  0  0  0  0
  4  9  1  0  0  0  0
  5  2  1  0  0  0  0
  7  6  1  0  0  0  0
  8 11  1  0  0  0  0
  8  6  2  0  0  0  0
  9  7  2  0  0  0  0
 10  8  1  0  0  0  0
 12  5  1  0  0  0  0
 12 10  1  0  0  0  0
 14 18  2  0  0  0  0
 14 15  1  0  0  0  0
 15 16  2  0  0  0  0
 16 13  1  0  0  0  0
 17 13  2  0  0  0  0
 18 17  1  0  0  0  0
 19  1  1  0  0  0  0
 20 27  1  0  0  0  0
 21 24  1  0  0  0  0
 22 21  1  0  0  0  0
 23 27  1  0  0  0  0
 23 19  1  0  0  0  0
 24 20  2  0  0  0  0
 25 21  2  0  0  0  0
 25 26  1  0  0  0  0
 26 23  2  0  0  0  0
M  END
>  <MODEL>
6

>  <REMARK>
 VINA RESULT:      -8.4      3.987      7.083
  Name = 
  4 active torsions:
  status: ('A' for Active; 'I' for Inactive)
    1  A    between atoms: N_1  and  N_15
    2  A    between atoms: N_1  and  C_18
    3  A    between atoms: C_2  and  N_15
    4  A    between atoms: C_9  and  N_15
                            x       y       z     vdW  Elec       q    Type
                         _______ _______ _______ _____ _____    ______ ____

>  <TORSDO>
F 4

$$$$
=
 OpenBabel11052423153D

 27 30  0  0  1  0  0  0  0  0999 V2000
  161.8580  209.4650  149.5190 N   0  0  0  0  0  0  0  0  0  0  0  0
  161.5560  208.1490  148.9380 C   0  0  1  0  0  3  0  0  0  0  0  0
  161.5810  204.0990  147.6320 C   0  0  0  0  0  3  0  0  0  0  0  0
  161.0430  201.8070  147.9960 F   0  0  0  0  0  0  0  0  0  0  0  0
  162.5830  207.7440  147.8860 C   0  0  0  0  0  2  0  0  0  0  0  0
  160.8310  204.6660  150.2650 C   0  0  0  0  0  3  0  0  0  0  0  0
  160.7520  203.3570  149.7820 C   0  0  0  0  0  3  0  0  0  0  0  0
  161.2760  205.7000  149.4360 C   0  0  0  0  0  0  0  0  0  0  0  0
  161.1260  203.0740  148.4650 C   0  0  0  0  0  0  0  0  0  0  0  0
  161.6750  205.4090  148.1110 C   0  0  0  0  0  0  0  0  0  0  0  0
  161.4130  207.0770  150.0180 C   0  0  0  0  0  2  0  0  0  0  0  0
  162.0970  206.4930  147.1600 C   0  0  0  0  0  2  0  0  0  0  0  0
  162.1160  212.9670  147.1080 C   0  0  0  0  0  3  0  0  0  0  0  0
  161.9560  210.6560  148.7060 C   0  0  0  0  0  0  0  0  0  0  0  0
  163.1290  211.4310  148.6790 C   0  0  0  0  0  3  0  0  0  0  0  0
  163.2090  212.5790  147.8860 C   0  0  0  0  0  3  0  0  0  0  0  0
  160.9450  212.2070  147.1220 C   0  0  0  0  0  3  0  0  0  0  0  0
  160.8660  211.0600  147.9170 C   0  0  0  0  0  3  0  0  0  0  0  0
  162.2270  209.5540  150.8770 N   0  0  0  0  0  2  0  0  0  0  0  0
  161.1250  209.0320  154.2860 C   0  0  0  0  0  3  0  0  0  0  0  0
  159.7870  211.1410  154.3380 C   0  0  0  0  0  0  0  0  0  0  0  0
  158.8720  211.7810  155.1640 O   0  0  0  0  0  1  0  0  0  0  0  0
  161.3360  209.8450  151.9620 C   0  0  0  0  0  0  0  0  0  0  0  0
  160.6220  210.0800  154.9370 C   0  0  0  0  0  3  0  0  0  0  0  0
  159.9040  211.5770  153.0770 C   0  0  0  0  0  3  0  0  0  0  0  0
  160.8310  211.0770  152.0390 C   0  0  0  0  0  3  0  0  0  0  0  0
  160.8310  208.7520  152.8510 C   0  0  0  0  0  2  0  0  0  0  0  0
  1 19  1  0  0  0  0
  2  1  1  1  0  0  0
  2 11  1  0  0  0  0
  3 10  2  0  0  0  0
  3  9  1  0  0  0  0
  4  9  1  0  0  0  0
  5  2  1  0  0  0  0
  7  6  1  0  0  0  0
  8 11  1  0  0  0  0
  8  6  2  0  0  0  0
  9  7  2  0  0  0  0
 10  8  1  0  0  0  0
 12  5  1  0  0  0  0
 12 10  1  0  0  0  0
 13 17  2  0  0  0  0
 13 16  1  0  0  0  0
 14  1  1  0  0  0  0
 15 14  1  0  0  0  0
 16 15  2  0  0  0  0
 17 18  1  0  0  0  0
 18 14  2  0  0  0  0
 19 23  1  0  0  0  0
 20 24  2  0  0  0  0
 21 24  1  0  0  0  0
 21 22  1  0  0  0  0
 23 26  2  0  0  0  0
 23 27  1  0  0  0  0
 25 21  2  0  0  0  0
 26 25  1  0  0  0  0
 27 20  1  0  0  0  0
M  END
>  <MODEL>
7

>  <REMARK>
 VINA RESULT:      -8.1      4.366      8.187
  Name = 
  4 active torsions:
  status: ('A' for Active; 'I' for Inactive)
    1  A    between atoms: N_1  and  N_15
    2  A    between atoms: N_1  and  C_18
    3  A    between atoms: C_2  and  N_15
    4  A    between atoms: C_9  and  N_15
                            x       y       z     vdW  Elec       q    Type
                         _______ _______ _______ _____ _____    ______ ____

>  <TORSDO>
F 4

$$$$
=
 OpenBabel11052423153D

 27 30  0  0  1  0  0  0  0  0999 V2000
  161.0180  209.1530  153.1960 N   0  0  0  0  0  0  0  0  0  0  0  0
  161.3400  207.8160  152.6810 C   0  0  1  0  0  3  0  0  0  0  0  0
  161.2760  203.8310  151.1880 C   0  0  0  0  0  3  0  0  0  0  0  0
  161.2440  202.3130  149.3520 F   0  0  0  0  0  0  0  0  0  0  0  0
  160.8300  206.7140  153.6050 C   0  0  0  0  0  2  0  0  0  0  0  0
  160.8710  205.9490  149.4080 C   0  0  0  0  0  3  0  0  0  0  0  0
  160.9540  204.6390  148.9280 C   0  0  0  0  0  3  0  0  0  0  0  0
  160.9980  206.2110  150.7750 C   0  0  0  0  0  0  0  0  0  0  0  0
  161.1570  203.5810  149.8180 C   0  0  0  0  0  0  0  0  0  0  0  0
  161.1810  205.1380  151.6770 C   0  0  0  0  0  0  0  0  0  0  0  0
  160.8300  207.6250  151.2530 C   0  0  0  0  0  2  0  0  0  0  0  0
  161.3890  205.3700  153.1470 C   0  0  0  0  0  2  0  0  0  0  0  0
  161.7140  210.2400  157.2560 C   0  0  0  0  0  3  0  0  0  0  0  0
  161.2430  209.5180  154.5770 C   0  0  0  0  0  0  0  0  0  0  0  0
  160.3940  209.0660  155.6030 C   0  0  0  0  0  3  0  0  0  0  0  0
  160.6270  209.4250  156.9330 C   0  0  0  0  0  3  0  0  0  0  0  0
  162.5680  210.6950  156.2490 C   0  0  0  0  0  3  0  0  0  0  0  0
  162.3330  210.3360  154.9190 C   0  0  0  0  0  3  0  0  0  0  0  0
  160.3180  210.0610  152.3750 N   0  0  0  0  0  2  0  0  0  0  0  0
  159.1310  213.4580  151.9810 C   0  0  0  0  0  3  0  0  0  0  0  0
  157.2870  213.1690  153.6420 C   0  0  0  0  0  0  0  0  0  0  0  0
  156.3420  213.9420  154.3030 O   0  0  0  0  0  1  0  0  0  0  0  0
  159.5500  211.1790  152.8390 C   0  0  0  0  0  0  0  0  0  0  0  0
  157.9080  213.7380  152.4280 C   0  0  0  0  0  3  0  0  0  0  0  0
  157.5200  211.9330  154.1040 C   0  0  0  0  0  3  0  0  0  0  0  0
  158.4460  210.9270  153.5420 C   0  0  0  0  0  3  0  0  0  0  0  0
  160.0800  212.5730  152.7160 C   0  0  0  0  0  2  0  0  0  0  0  0
  1 14  1  0  0  0  0
  2  1  1  1  0  0  0
  2  5  1  0  0  0  0
  3 10  1  0  0  0  0
  4  9  1  0  0  0  0
  6  8  1  0  0  0  0
  7  6  2  0  0  0  0
  7  9  1  0  0  0  0
  8 11  1  0  0  0  0
  8 10  2  0  0  0  0
  9  3  2  0  0  0  0
 10 12  1  0  0  0  0
 11  2  1  0  0  0  0
 12  5  1  0  0  0  0
 14 18  2  0  0  0  0
 14 15  1  0  0  0  0
 15 16  2  0  0  0  0
 16 13  1  0  0  0  0
 17 13  2  0  0  0  0
 18 17  1  0  0  0  0
 19 23  1  0  0  0  0
 19  1  1  0  0  0  0
 20 24  2  0  0  0  0
 20 27  1  0  0  0  0
 21 25  2  0  0  0  0
 21 22  1  0  0  0  0
 23 26  2  0  0  0  0
 24 21  1  0  0  0  0
 26 25  1  0  0  0  0
 27 23  1  0  0  0  0
M  END
>  <MODEL>
8

>  <REMARK>
 VINA RESULT:      -8.1      4.536      8.408
  Name = 
  4 active torsions:
  status: ('A' for Active; 'I' for Inactive)
    1  A    between atoms: N_1  and  N_15
    2  A    between atoms: N_1  and  C_18
    3  A    between atoms: C_2  and  N_15
    4  A    between atoms: C_9  and  N_15
                            x       y       z     vdW  Elec       q    Type
                         _______ _______ _______ _____ _____    ______ ____

>  <TORSDO>
F 4

$$$$
=
 OpenBabel11052423153D

 27 30  0  0  1  0  0  0  0  0999 V2000
  161.2440  208.0280  152.8110 N   0  0  0  0  0  0  0  0  0  0  0  0
  160.8810  209.2010  152.0050 C   0  0  1  0  0  3  0  0  0  0  0  0
  160.6600  212.9890  150.0780 C   0  0  0  0  0  3  0  0  0  0  0  0
  161.1610  214.3960  148.2220 F   0  0  0  0  0  0  0  0  0  0  0  0
  160.6290  210.4310  152.8720 C   0  0  0  0  0  2  0  0  0  0  0  0
  162.3310  211.0220  149.0040 C   0  0  0  0  0  3  0  0  0  0  0  0
  162.1630  212.2370  148.3350 C   0  0  0  0  0  3  0  0  0  0  0  0
  161.6600  210.7770  150.2050 C   0  0  0  0  0  0  0  0  0  0  0  0
  161.3270  213.2210  148.8720 C   0  0  0  0  0  0  0  0  0  0  0  0
  160.8310  211.7800  150.7590 C   0  0  0  0  0  0  0  0  0  0  0  0
  161.9250  209.4860  150.9250 C   0  0  0  0  0  2  0  0  0  0  0  0
  160.0370  211.5430  152.0120 C   0  0  0  0  0  2  0  0  0  0  0  0
  160.5660  207.8690  157.0140 C   0  0  0  0  0  3  0  0  0  0  0  0
  161.0230  207.9820  154.2400 C   0  0  0  0  0  0  0  0  0  0  0  0
  161.6430  208.8980  155.1080 C   0  0  0  0  0  3  0  0  0  0  0  0
  161.4170  208.8420  156.4850 C   0  0  0  0  0  3  0  0  0  0  0  0
  159.9410  206.9530  156.1650 C   0  0  0  0  0  3  0  0  0  0  0  0
  160.1690  207.0100  154.7870 C   0  0  0  0  0  3  0  0  0  0  0  0
  161.9770  206.9810  152.2180 N   0  0  0  0  0  2  0  0  0  0  0  0
  161.1610  205.3220  149.1050 C   0  0  0  0  0  3  0  0  0  0  0  0
  160.8120  203.1040  150.2010 C   0  0  0  0  0  0  0  0  0  0  0  0
  160.3380  201.8400  149.8780 O   0  0  0  0  0  1  0  0  0  0  0  0
  161.4140  205.8740  151.5000 C   0  0  0  0  0  0  0  0  0  0  0  0
  161.2060  203.9910  149.0870 C   0  0  0  0  0  3  0  0  0  0  0  0
  160.9490  203.4100  151.4980 C   0  0  0  0  0  3  0  0  0  0  0  0
  161.4660  204.6700  152.0710 C   0  0  0  0  0  3  0  0  0  0  0  0
  160.6150  206.0990  150.2550 C   0  0  0  0  0  2  0  0  0  0  0  0
  1 14  1  0  0  0  0
  2  1  1  1  0  0  0
  2  5  1  0  0  0  0
  3 10  1  0  0  0  0
  4  9  1  0  0  0  0
  6  8  1  0  0  0  0
  7  9  1  0  0  0  0
  7  6  2  0  0  0  0
  8 10  2  0  0  0  0
  8 11  1  0  0  0  0
  9  3  2  0  0  0  0
 10 12  1  0  0  0  0
 11  2  1  0  0  0  0
 12  5  1  0  0  0  0
 14 18  2  0  0  0  0
 14 15  1  0  0  0  0
 15 16  2  0  0  0  0
 16 13  1  0  0  0  0
 17 13  2  0  0  0  0
 18 17  1  0  0  0  0
 19  1  1  0  0  0  0
 20 27  1  0  0  0  0
 21 25  2  0  0  0  0
 22 21  1  0  0  0  0
 23 26  2  0  0  0  0
 23 19  1  0  0  0  0
 24 20  2  0  0  0  0
 24 21  1  0  0  0  0
 25 26  1  0  0  0  0
 27 23  1  0  0  0  0
M  END
>  <MODEL>
9

>  <REMARK>
 VINA RESULT:      -7.9      3.080      5.741
  Name = 
  4 active torsions:
  status: ('A' for Active; 'I' for Inactive)
    1  A    between atoms: N_1  and  N_15
    2  A    between atoms: N_1  and  C_18
    3  A    between atoms: C_2  and  N_15
    4  A    between atoms: C_9  and  N_15
                            x       y       z     vdW  Elec       q    Type
                         _______ _______ _______ _____ _____    ______ ____

>  <TORSDO>
F 4

$$$$
