=
 OpenBabel11062408033D

 34 41  0  0  1  0  0  0  0  0999 V2000
  161.1910  206.9470  153.8900 C   0  0  0  0  0  0  0  0  0  0  0  0
  161.5810  209.1670  153.0020 C   0  0  0  0  0  0  0  0  0  0  0  0
  161.8720  212.5030  148.6310 C   0  0  0  0  0  3  0  0  0  0  0  0
  161.4790  207.2370  151.5160 C   0  0  0  0  0  0  0  0  0  0  0  0
  161.7250  207.6730  149.1870 C   0  0  0  0  0  0  0  0  0  0  0  0
  161.2980  208.8170  155.3010 N   0  0  0  0  0  0  0  0  0  0  0  0
  161.5130  209.6430  154.2700 N   0  0  0  0  0  0  0  0  0  0  0  0
  161.8510  209.4350  150.6150 C   0  0  0  0  0  0  0  0  0  0  0  0
  161.4220  207.7780  152.8010 C   0  0  0  0  0  0  0  0  0  0  0  0
  161.9510  211.2360  148.9530 C   0  0  0  0  0  0  0  0  0  0  0  0
  161.9210  208.8360  148.2590 C   0  0  0  0  0  2  0  0  0  0  0  0
  161.1370  207.4990  155.1280 N   0  0  0  0  0  0  0  0  0  0  0  0
  161.3030  205.8670  151.2610 C   0  0  0  0  0  0  0  0  0  0  0  0
  161.0100  205.5690  153.6800 C   0  0  0  0  0  3  0  0  0  0  0  0
  161.7960  210.0260  151.8910 C   0  0  0  0  0  3  0  0  0  0  0  0
  161.5500  206.3560  148.8910 N   0  0  0  0  0  0  0  0  0  0  0  0
  161.3510  205.4230  149.8910 C   0  0  0  0  0  0  0  0  0  0  0  0
  162.0250  209.9730  149.2650 C   0  0  0  0  0  0  0  0  0  0  0  0
  161.6950  208.0930  150.4710 C   0  0  0  0  0  0  0  0  0  0  0  0
  161.0610  205.0350  152.3740 C   0  0  0  0  0  3  0  0  0  0  0  0
  161.0840  202.2500  147.7970 C   0  0  0  0  0  0  0  0  0  0  0  0
  160.8040  201.3020  148.7830 C   0  0  0  0  0  3  0  0  0  0  0  0
  161.1830  204.0010  149.4880 C   0  0  0  0  0  0  0  0  0  0  0  0
  160.7070  201.6970  150.1200 C   0  0  0  0  0  3  0  0  0  0  0  0
  161.2670  203.5900  148.1470 C   0  0  0  0  0  3  0  0  0  0  0  0
  160.8920  203.0370  150.4680 C   0  0  0  0  0  3  0  0  0  0  0  0
  161.1750  201.8710  146.5000 F   0  0  0  0  0  0  0  0  0  0  0  0
  162.6910  213.1700  146.0150 O   0  0  0  0  0  1  0  0  0  0  0  0
  160.8150  213.0790  147.7220 C   0  0  1  0  0  3  0  0  0  0  0  0
  161.3610  213.4360  146.3480 C   0  0  2  0  0  0  0  0  0  0  0  0
  159.4780  213.8040  145.0330 C   0  0  0  0  0  2  0  0  0  0  0  0
  159.1920  212.5820  145.8830 C   0  0  0  0  0  2  0  0  0  0  0  0
  160.5150  212.1990  146.4960 C   0  0  2  0  0  3  0  0  0  0  0  0
  160.6660  214.4530  145.5730 N   0  0  0  0  0  2  0  0  0  0  0  0
  1 12  1  0  0  0  0
  2  7  2  0  0  0  0
  3 10  2  0  0  0  0
  4  9  1  0  0  0  0
  5 19  1  0  0  0  0
  7  6  1  0  0  0  0
  8 15  2  0  0  0  0
  9  2  1  0  0  0  0
  9  1  2  0  0  0  0
 10 18  2  0  0  0  0
 11  5  1  0  0  0  0
 11 18  1  0  0  0  0
 12  6  2  0  0  0  0
 13  4  1  0  0  0  0
 13 20  1  0  0  0  0
 14  1  1  0  0  0  0
 15  2  1  0  0  0  0
 16  5  2  0  0  0  0
 16 17  1  0  0  0  0
 17 13  2  0  0  0  0
 18  8  1  0  0  0  0
 19  8  1  0  0  0  0
 19  4  2  0  0  0  0
 20 14  2  0  0  0  0
 21 25  2  0  0  0  0
 21 22  1  0  0  0  0
 22 24  2  0  0  0  0
 23 17  1  0  0  0  0
 23 26  2  0  0  0  0
 24 26  1  0  0  0  0
 25 23  1  0  0  0  0
 27 21  1  0  0  0  0
 29  3  1  1  0  0  0
 30 28  1  6  0  0  0
 30 33  1  0  0  0  0
 30 29  1  0  0  0  0
 31 34  1  0  0  0  0
 31 32  1  0  0  0  0
 33 32  1  6  0  0  0
 33 29  1  0  0  0  0
 34 30  1  0  0  0  0
M  END
>  <MODEL>
1

>  <REMARK>
 VINA RESULT:     -12.7      0.000      0.000
  Name = 
  2 active torsions:
  status: ('A' for Active; 'I' for Inactive)
    1  A    between atoms: C_3  and  C_13
    2  A    between atoms: C_12  and  C_28
                            x       y       z     vdW  Elec       q    Type
                         _______ _______ _______ _____ _____    ______ ____

>  <TORSDO>
F 2

$$$$
