=
 OpenBabel11062409383D

 34 40  0  0  1  0  0  0  0  0999 V2000
  161.5410  207.8500  152.9420 C   0  0  0  0  0  0  0  0  0  0  0  0
  160.6120  206.1050  149.8700 C   0  0  0  0  0  2  0  0  0  0  0  0
  158.5250  209.9200  155.7820 C   0  0  0  0  0  3  0  0  0  0  0  0
  161.5610  208.2950  150.7770 C   0  0  0  0  0  0  0  0  0  0  0  0
  160.7230  211.8000  155.2710 C   0  0  0  0  0  2  0  0  0  0  0  0
  156.7150  212.6760  153.9450 C   0  0  0  0  0  0  0  0  0  0  0  0
  161.9840  209.5810  154.6670 C   0  0  2  0  0  0  0  0  0  0  0  0
  161.7710  208.0690  154.4090 C   0  0  0  0  0  2  0  0  0  0  0  0
  162.4300  210.0260  152.2280 C   0  0  0  0  0  0  0  0  0  0  0  0
  162.6970  210.8170  151.0960 C   0  0  0  0  0  3  0  0  0  0  0  0
  156.9750  211.4900  154.6450 C   0  0  0  0  0  3  0  0  0  0  0  0
  158.2730  211.1800  155.0580 C   0  0  0  0  0  0  0  0  0  0  0  0
  162.7710  210.4340  153.6370 C   0  0  0  0  0  2  0  0  0  0  0  0
  162.2700  209.9330  156.1180 C   0  0  0  0  0  2  0  0  0  0  0  0
  161.8000  209.0510  149.6280 C   0  0  0  0  0  3  0  0  0  0  0  0
  161.8790  208.7780  152.0070 C   0  0  0  0  0  0  0  0  0  0  0  0
  162.3790  210.3310  149.8020 C   0  0  0  0  0  3  0  0  0  0  0  0
  159.7620  204.9270  150.3280 C   0  0  0  0  0  2  0  0  0  0  0  0
  160.5840  203.9820  151.1520 C   0  0  0  0  0  0  0  0  0  0  0  0
  159.0720  213.2550  154.0810 C   0  0  0  0  0  3  0  0  0  0  0  0
  160.9270  204.3140  152.3970 C   0  0  0  0  0  3  0  0  0  0  0  0
  159.3330  212.0680  154.7700 C   0  0  0  0  0  0  0  0  0  0  0  0
  157.7710  213.5550  153.6650 C   0  0  0  0  0  3  0  0  0  0  0  0
  160.9300  210.3000  155.5010 C   0  0  1  0  0  0  0  0  0  0  0  0
  159.7690  209.5020  156.0210 C   0  0  0  0  0  3  0  0  0  0  0  0
  161.0170  207.0360  150.9830 C   0  0  0  0  0  0  0  0  0  0  0  0
  160.4820  205.5980  153.0260 C   0  0  0  0  0  2  0  0  0  0  0  0
  161.0340  206.7580  152.3260 N   0  0  0  0  0  0  0  0  0  0  0  0
  161.0540  202.7150  150.5620 C   0  0  0  0  0  0  0  0  0  0  0  0
  160.8690  202.4570  149.1740 N   0  0  0  0  0  1  0  0  0  0  0  0
  161.6240  201.8480  151.2790 O   0  0  0  0  0  0  0  0  0  0  0  0
  155.3450  212.9970  153.5070 C   0  0  0  0  0  0  0  0  0  0  0  0
  154.4470  212.1120  153.5250 O   0  0  0  0  0  0  0  0  0  0  0  0
  155.0200  214.3090  153.0580 N   0  0  0  0  0  1  0  0  0  0  0  0
  1  8  1  0  0  0  0
  2 18  1  0  0  0  0
  2 26  1  0  0  0  0
  3 25  2  0  0  0  0
  4 26  2  0  0  0  0
  4 16  1  0  0  0  0
  6 11  1  0  0  0  0
  7 13  1  6  0  0  0
  7 24  1  0  0  0  0
  7 14  1  0  0  0  0
  8  7  1  0  0  0  0
  9 13  1  0  0  0  0
 10  9  2  0  0  0  0
 11 12  2  0  0  0  0
 12  3  1  0  0  0  0
 15 17  2  0  0  0  0
 15  4  1  0  0  0  0
 16  9  1  0  0  0  0
 16  1  2  0  0  0  0
 17 10  1  0  0  0  0
 18 19  1  0  0  0  0
 19 21  2  0  0  0  0
 20 22  2  0  0  0  0
 21 27  1  0  0  0  0
 22 12  1  0  0  0  0
 22  5  1  0  0  0  0
 23  6  2  0  0  0  0
 23 20  1  0  0  0  0
 24  5  1  6  0  0  0
 24 25  1  0  0  0  0
 24 14  1  0  0  0  0
 26 28  1  0  0  0  0
 28  1  1  0  0  0  0
 28 27  1  0  0  0  0
 29 19  1  0  0  0  0
 29 31  2  0  0  0  0
 30 29  1  0  0  0  0
 32 33  2  0  0  0  0
 32  6  1  0  0  0  0
 34 32  1  0  0  0  0
M  END
>  <MODEL>
1

>  <REMARK>
 VINA RESULT:      -3.9      0.000      0.000
  Name = 
  2 active torsions:
  status: ('A' for Active; 'I' for Inactive)
    1  A    between atoms: C_3  and  C_25
    2  A    between atoms: C_7  and  C_11
                            x       y       z     vdW  Elec       q    Type
                         _______ _______ _______ _____ _____    ______ ____

>  <TORSDO>
F 2

$$$$
