=
 OpenBabel11062410423D

 32 36  0  0  1  0  0  0  0  0999 V2000
  161.8130  210.3700  154.6100 C   0  0  1  0  0  3  0  0  0  0  0  0
  160.7800  207.6580  150.9910 C   0  0  0  0  0  2  0  0  0  0  0  0
  161.6860  212.8740  148.8390 C   0  0  0  0  0  2  0  0  0  0  0  0
  161.2310  212.1090  147.5860 C   0  0  0  0  0  2  0  0  0  0  0  0
  160.7860  208.4090  153.3750 C   0  0  2  0  0  3  0  0  0  0  0  0
  162.6910  209.8570  152.3150 C   0  0  0  0  0  2  0  0  0  0  0  0
  162.9960  211.0640  154.8730 O   0  0  0  0  0  1  0  0  0  0  0  0
  161.5100  212.0600  150.1190 C   0  0  0  0  0  2  0  0  0  0  0  0
  161.8140  209.7750  151.0720 C   0  0  1  0  0  3  0  0  0  0  0  0
  162.2940  210.7490  150.0220 C   0  0  1  0  0  3  0  0  0  0  0  0
  161.7660  208.5900  149.0640 C   0  0  2  0  0  3  0  0  0  0  0  0
  159.9980  208.9950  155.6960 C   0  0  1  0  0  3  0  0  0  0  0  0
  162.0690  209.2510  153.5910 C   0  0  1  0  0  3  0  0  0  0  0  0
  160.2690  207.8660  154.7060 C   0  0  0  0  0  2  0  0  0  0  0  0
  161.2740  209.8050  155.9220 C   0  0  0  0  0  2  0  0  0  0  0  0
  160.9980  210.6150  147.8310 C   0  0  0  0  0  2  0  0  0  0  0  0
  162.1140  210.0200  148.6910 C   0  0  1  0  0  3  0  0  0  0  0  0
  161.0130  207.2330  152.4350 C   0  0  0  0  0  2  0  0  0  0  0  0
  161.9120  208.4350  150.5070 N   0  0  2  0  0  0  0  0  0  0  0  0
  158.9430  209.8240  155.2210 O   0  0  0  0  0  0  0  0  0  0  0  0
  158.6840  211.0810  155.7680 C   0  0  0  0  0  0  0  0  0  0  0  0
  158.4070  211.2240  157.1230 O   0  0  0  0  0  1  0  0  0  0  0  0
  158.6970  212.0960  155.0270 O   0  0  0  0  0  0  0  0  0  0  0  0
  162.6030  207.5630  148.2800 C   0  0  0  0  0  2  0  0  0  0  0  0
  161.7630  205.2770  149.0150 C   0  0  0  0  0  2  0  0  0  0  0  0
  160.8620  204.1170  148.5940 C   0  0  1  0  0  3  0  0  0  0  0  0
  161.9870  204.2280  146.3630 C   0  0  0  0  0  3  0  0  0  0  0  0
  161.2670  203.5390  147.2620 C   0  0  0  0  0  3  0  0  0  0  0  0
  162.5450  205.5990  146.6410 C   0  0  0  0  0  2  0  0  0  0  0  0
  161.8980  206.2640  147.8590 C   0  0  2  0  0  3  0  0  0  0  0  0
  160.8630  203.0430  149.6310 C   0  0  0  0  0  3  0  0  0  0  0  0
  160.9300  203.3430  150.9260 C   0  0  0  0  0  2  0  0  0  0  0  0
  1  7  1  1  0  0  0
  1 15  1  0  0  0  0
  2 18  1  0  0  0  0
  3  8  1  0  0  0  0
  4 16  1  0  0  0  0
  4  3  1  0  0  0  0
  5 18  1  6  0  0  0
  5 13  1  0  0  0  0
  5 14  1  0  0  0  0
  9  6  1  1  0  0  0
 10  8  1  6  0  0  0
 10  9  1  0  0  0  0
 11 24  1  6  0  0  0
 11 19  1  0  0  0  0
 12 20  1  6  0  0  0
 12 15  1  0  0  0  0
 13  6  1  6  0  0  0
 13  1  1  0  0  0  0
 14 12  1  0  0  0  0
 17 16  1  1  0  0  0
 17 11  1  0  0  0  0
 17 10  1  0  0  0  0
 19  2  1  1  0  0  0
 19  9  1  0  0  0  0
 20 21  1  0  0  0  0
 21 22  1  0  0  0  0
 23 21  2  0  0  0  0
 26 25  1  0  0  0  0
 26 31  1  1  0  0  0
 27 29  1  0  0  0  0
 27 28  2  0  0  0  0
 28 26  1  0  0  0  0
 29 30  1  0  0  0  0
 30 24  1  1  0  0  0
 30 25  1  0  0  0  0
 31 32  2  0  0  0  0
M  END
>  <MODEL>
1

>  <REMARK>
 VINA RESULT:      -6.3      0.000      0.000
  Name = 
  5 active torsions:
  status: ('A' for Active; 'I' for Inactive)
    1  A    between atoms: C_1  and  O_17
    2  A    between atoms: C_7  and  C_22
    3  A    between atoms: C_16  and  C_27
    4  A    between atoms: O_17  and  C_19
    5  A    between atoms: C_27  and  C_32
                            x       y       z     vdW  Elec       q    Type
                         _______ _______ _______ _____ _____    ______ ____

>  <TORSDO>
F 5

$$$$
=
 OpenBabel11062410423D

 32 36  0  0  1  0  0  0  0  0999 V2000
  161.5250  210.5150  155.0230 C   0  0  1  0  0  3  0  0  0  0  0  0
  160.1180  206.3230  153.6180 C   0  0  0  0  0  2  0  0  0  0  0  0
  161.9770  209.0110  148.9300 C   0  0  0  0  0  2  0  0  0  0  0  0
  161.4250  207.7090  148.3290 C   0  0  0  0  0  2  0  0  0  0  0  0
  160.1990  208.3540  155.0730 C   0  0  2  0  0  3  0  0  0  0  0  0
  162.3530  208.6130  153.6090 C   0  0  0  0  0  2  0  0  0  0  0  0
  162.8040  211.0710  154.9700 O   0  0  0  0  0  1  0  0  0  0  0  0
  161.6300  209.1670  150.4090 C   0  0  0  0  0  2  0  0  0  0  0  0
  161.5060  207.9070  152.5580 C   0  0  1  0  0  3  0  0  0  0  0  0
  162.1740  207.9790  151.2060 C   0  0  1  0  0  3  0  0  0  0  0  0
  161.2990  205.7670  151.6550 C   0  0  2  0  0  3  0  0  0  0  0  0
  159.4710  210.3170  156.4750 C   0  0  1  0  0  3  0  0  0  0  0  0
  161.6040  208.9860  154.9060 C   0  0  1  0  0  3  0  0  0  0  0  0
  159.5630  208.7970  156.3880 C   0  0  0  0  0  2  0  0  0  0  0  0
  160.8630  210.9310  156.3350 C   0  0  0  0  0  2  0  0  0  0  0  0
  160.9280  206.7110  149.3780 C   0  0  0  0  0  2  0  0  0  0  0  0
  161.9010  206.6220  150.5550 C   0  0  1  0  0  3  0  0  0  0  0  0
  160.2390  206.8320  155.0480 C   0  0  0  0  0  2  0  0  0  0  0  0
  161.3810  206.5000  152.9140 N   0  0  2  0  0  0  0  0  0  0  0  0
  158.5890  210.8140  155.4740 O   0  0  0  0  0  0  0  0  0  0  0  0
  157.2970  211.2490  155.7740 C   0  0  0  0  0  0  0  0  0  0  0  0
  156.2660  211.1070  154.8540 O   0  0  0  0  0  0  0  0  0  0  0  0
  157.0640  211.7800  156.8910 O   0  0  0  0  0  1  0  0  0  0  0  0
  161.9610  204.3810  151.7440 C   0  0  0  0  0  2  0  0  0  0  0  0
  161.5360  204.0850  149.2540 C   0  0  0  0  0  2  0  0  0  0  0  0
  161.4710  203.0360  148.1450 C   0  0  1  0  0  3  0  0  0  0  0  0
  160.0380  201.6870  149.6880 C   0  0  0  0  0  3  0  0  0  0  0  0
  160.4620  201.9570  148.4430 C   0  0  0  0  0  3  0  0  0  0  0  0
  160.4500  202.5020  150.8860 C   0  0  0  0  0  2  0  0  0  0  0  0
  161.6650  203.3910  150.6060 C   0  0  2  0  0  3  0  0  0  0  0  0
  161.1550  203.6720  146.8320 C   0  0  0  0  0  3  0  0  0  0  0  0
  161.9920  204.5450  146.2760 C   0  0  0  0  0  2  0  0  0  0  0  0
  1  7  1  1  0  0  0
  1 15  1  0  0  0  0
  2 18  1  0  0  0  0
  3  8  1  0  0  0  0
  4  3  1  0  0  0  0
  4 16  1  0  0  0  0
  5 18  1  1  0  0  0
  5 14  1  0  0  0  0
  9 19  1  0  0  0  0
  9  6  1  1  0  0  0
 10  8  1  6  0  0  0
 10  9  1  0  0  0  0
 11 24  1  1  0  0  0
 11 19  1  0  0  0  0
 12 20  1  6  0  0  0
 13  6  1  6  0  0  0
 13  1  1  0  0  0  0
 13  5  1  0  0  0  0
 14 12  1  0  0  0  0
 15 12  1  0  0  0  0
 17 16  1  6  0  0  0
 17 10  1  0  0  0  0
 17 11  1  0  0  0  0
 19  2  1  1  0  0  0
 20 21  1  0  0  0  0
 21 23  1  0  0  0  0
 22 21  2  0  0  0  0
 25 30  1  0  0  0  0
 26 31  1  6  0  0  0
 26 28  1  0  0  0  0
 26 25  1  0  0  0  0
 27 29  1  0  0  0  0
 28 27  2  0  0  0  0
 30 29  1  0  0  0  0
 30 24  1  1  0  0  0
 32 31  2  0  0  0  0
M  END
>  <MODEL>
2

>  <REMARK>
 VINA RESULT:      -5.9      1.616      3.067
  Name = 
  5 active torsions:
  status: ('A' for Active; 'I' for Inactive)
    1  A    between atoms: C_1  and  O_17
    2  A    between atoms: C_7  and  C_22
    3  A    between atoms: C_16  and  C_27
    4  A    between atoms: O_17  and  C_19
    5  A    between atoms: C_27  and  C_32
                            x       y       z     vdW  Elec       q    Type
                         _______ _______ _______ _____ _____    ______ ____

>  <TORSDO>
F 5

$$$$
=
 OpenBabel11062410423D

 32 36  0  0  1  0  0  0  0  0999 V2000
  161.0160  211.5700  156.5350 C   0  0  1  0  0  3  0  0  0  0  0  0
  158.6030  211.6220  152.5730 C   0  0  0  0  0  2  0  0  0  0  0  0
  155.3960  214.3970  156.4030 C   0  0  0  0  0  2  0  0  0  0  0  0
  154.4530  214.3650  155.1910 C   0  0  0  0  0  2  0  0  0  0  0  0
  160.2540  210.7790  154.2500 C   0  0  2  0  0  3  0  0  0  0  0  0
  159.7640  213.2050  155.1000 C   0  0  0  0  0  2  0  0  0  0  0  0
  161.5290  212.6470  157.2610 O   0  0  0  0  0  1  0  0  0  0  0  0
  156.6410  213.5360  156.2000 C   0  0  0  0  0  2  0  0  0  0  0  0
  158.3820  212.9360  154.5170 C   0  0  1  0  0  3  0  0  0  0  0  0
  157.4070  214.0010  154.9590 C   0  0  1  0  0  3  0  0  0  0  0  0
  157.1730  213.4950  152.6030 C   0  0  2  0  0  3  0  0  0  0  0  0
  161.5420  209.2270  155.7610 C   0  0  1  0  0  3  0  0  0  0  0  0
  160.7220  211.9950  155.0890 C   0  0  1  0  0  3  0  0  0  0  0  0
  161.2810  209.6510  154.3180 C   0  0  0  0  0  2  0  0  0  0  0  0
  162.0260  210.4250  156.5760 C   0  0  0  0  0  2  0  0  0  0  0  0
  155.0840  213.7500  153.9380 C   0  0  0  0  0  2  0  0  0  0  0  0
  156.5150  214.2530  153.7420 C   0  0  1  0  0  3  0  0  0  0  0  0
  160.0300  211.1340  152.7860 C   0  0  0  0  0  2  0  0  0  0  0  0
  158.4610  212.9850  153.0630 N   0  0  2  0  0  0  0  0  0  0  0  0
  160.3640  208.6630  156.3280 O   0  0  0  0  0  0  0  0  0  0  0  0
  160.0460  207.3120  156.1860 C   0  0  0  0  0  0  0  0  0  0  0  0
  160.1070  206.6940  154.9430 O   0  0  0  0  0  0  0  0  0  0  0  0
  159.6960  206.6470  157.1940 O   0  0  0  0  0  1  0  0  0  0  0  0
  157.3070  214.3530  151.3330 C   0  0  0  0  0  2  0  0  0  0  0  0
  159.1020  214.2340  149.5360 C   0  0  0  0  0  2  0  0  0  0  0  0
  159.6490  213.3490  148.4160 C   0  0  1  0  0  3  0  0  0  0  0  0
  157.2830  213.0910  147.6470 C   0  0  0  0  0  3  0  0  0  0  0  0
  158.5980  213.0250  147.3850 C   0  0  0  0  0  3  0  0  0  0  0  0
  156.7350  213.5930  148.9580 C   0  0  0  0  0  2  0  0  0  0  0  0
  157.7960  213.6450  150.0600 C   0  0  2  0  0  3  0  0  0  0  0  0
  160.8210  213.9960  147.7550 C   0  0  0  0  0  3  0  0  0  0  0  0
  162.0600  213.7570  148.1740 C   0  0  0  0  0  2  0  0  0  0  0  0
  1 15  1  0  0  0  0
  1  7  1  1  0  0  0
  2 18  1  0  0  0  0
  4  3  1  0  0  0  0
  5 18  1  6  0  0  0
  5 14  1  0  0  0  0
  5 13  1  0  0  0  0
  8  3  1  0  0  0  0
  9 10  1  0  0  0  0
  9  6  1  1  0  0  0
 10  8  1  1  0  0  0
 11 24  1  6  0  0  0
 11 19  1  0  0  0  0
 11 17  1  0  0  0  0
 12 20  1  1  0  0  0
 12 15  1  0  0  0  0
 13  6  1  1  0  0  0
 13  1  1  0  0  0  0
 14 12  1  0  0  0  0
 16  4  1  0  0  0  0
 17 16  1  1  0  0  0
 17 10  1  0  0  0  0
 19  2  1  6  0  0  0
 19  9  1  0  0  0  0
 21 20  1  0  0  0  0
 21 23  1  0  0  0  0
 22 21  2  0  0  0  0
 25 30  1  0  0  0  0
 26 31  1  6  0  0  0
 26 25  1  0  0  0  0
 27 29  1  0  0  0  0
 28 27  2  0  0  0  0
 28 26  1  0  0  0  0
 29 30  1  0  0  0  0
 30 24  1  1  0  0  0
 31 32  2  0  0  0  0
M  END
>  <MODEL>
3

>  <REMARK>
 VINA RESULT:      -5.0      4.866      7.263
  Name = 
  5 active torsions:
  status: ('A' for Active; 'I' for Inactive)
    1  A    between atoms: C_1  and  O_17
    2  A    between atoms: C_7  and  C_22
    3  A    between atoms: C_16  and  C_27
    4  A    between atoms: O_17  and  C_19
    5  A    between atoms: C_27  and  C_32
                            x       y       z     vdW  Elec       q    Type
                         _______ _______ _______ _____ _____    ______ ____

>  <TORSDO>
F 5

$$$$
=
 OpenBabel11062410423D

 32 36  0  0  1  0  0  0  0  0999 V2000
  161.1060  209.9940  152.3040 C   0  0  1  0  0  3  0  0  0  0  0  0
  161.4000  211.3310  147.8720 C   0  0  0  0  0  2  0  0  0  0  0  0
  156.6270  213.7150  149.9210 C   0  0  0  0  0  2  0  0  0  0  0  0
  156.5470  214.1130  148.4390 C   0  0  0  0  0  2  0  0  0  0  0  0
  161.7770  209.8670  149.8620 C   0  0  2  0  0  3  0  0  0  0  0  0
  160.9310  212.0960  150.9440 C   0  0  0  0  0  2  0  0  0  0  0  0
  161.1310  210.7800  153.4580 O   0  0  0  0  0  1  0  0  0  0  0  0
  157.7480  212.7160  150.2000 C   0  0  0  0  0  2  0  0  0  0  0  0
  160.1280  212.2060  149.6540 C   0  0  1  0  0  3  0  0  0  0  0  0
  159.0950  213.3010  149.7670 C   0  0  1  0  0  3  0  0  0  0  0  0
  160.2430  213.3720  147.6380 C   0  0  2  0  0  3  0  0  0  0  0  0
  161.9390  207.8220  151.3260 C   0  0  1  0  0  3  0  0  0  0  0  0
  161.7010  210.7700  151.1200 C   0  0  1  0  0  3  0  0  0  0  0  0
  162.5590  208.5910  150.1630 C   0  0  0  0  0  2  0  0  0  0  0  0
  161.8900  208.7100  152.5690 C   0  0  0  0  0  2  0  0  0  0  0  0
  157.7710  213.6880  147.6230 C   0  0  0  0  0  2  0  0  0  0  0  0
  159.0650  213.9640  148.3900 C   0  0  1  0  0  3  0  0  0  0  0  0
  162.4380  210.5680  148.6830 C   0  0  0  0  0  2  0  0  0  0  0  0
  161.0260  212.5580  148.5620 N   0  0  2  0  0  0  0  0  0  0  0  0
  160.6390  207.3620  150.9740 O   0  0  0  0  0  0  0  0  0  0  0  0
  160.4400  206.1890  150.2450 C   0  0  0  0  0  0  0  0  0  0  0  0
  160.4620  204.9490  150.8710 O   0  0  0  0  0  1  0  0  0  0  0  0
  160.2420  206.2550  149.0040 O   0  0  0  0  0  0  0  0  0  0  0  0
  161.0960  214.4510  146.9470 C   0  0  0  0  0  2  0  0  0  0  0  0
  160.7010  213.0970  144.8300 C   0  0  0  0  0  2  0  0  0  0  0  0
  161.0590  213.0220  143.3470 C   0  0  1  0  0  3  0  0  0  0  0  0
  163.4410  213.3320  144.0440 C   0  0  0  0  0  3  0  0  0  0  0  0
  162.5470  212.9280  143.1270 C   0  0  0  0  0  3  0  0  0  0  0  0
  163.0440  213.8170  145.4140 C   0  0  0  0  0  2  0  0  0  0  0  0
  161.5550  214.1630  145.5090 C   0  0  2  0  0  3  0  0  0  0  0  0
  160.3790  211.8630  142.6960 C   0  0  0  0  0  3  0  0  0  0  0  0
  160.5150  211.6360  141.3920 C   0  0  0  0  0  2  0  0  0  0  0  0
  1 15  1  0  0  0  0
  1  7  1  1  0  0  0
  2 18  1  0  0  0  0
  3  8  1  0  0  0  0
  4  3  1  0  0  0  0
  5 18  1  6  0  0  0
  5 14  1  0  0  0  0
  5 13  1  0  0  0  0
  9 10  1  0  0  0  0
  9  6  1  1  0  0  0
 10  8  1  6  0  0  0
 11 24  1  1  0  0  0
 11 17  1  0  0  0  0
 11 19  1  0  0  0  0
 12 20  1  6  0  0  0
 12 15  1  0  0  0  0
 13  6  1  6  0  0  0
 13  1  1  0  0  0  0
 14 12  1  0  0  0  0
 16  4  1  0  0  0  0
 17 16  1  6  0  0  0
 17 10  1  0  0  0  0
 19  2  1  6  0  0  0
 19  9  1  0  0  0  0
 21 22  1  0  0  0  0
 21 20  1  0  0  0  0
 23 21  2  0  0  0  0
 25 30  1  0  0  0  0
 26 31  1  1  0  0  0
 26 25  1  0  0  0  0
 27 29  1  0  0  0  0
 28 26  1  0  0  0  0
 28 27  2  0  0  0  0
 29 30  1  0  0  0  0
 30 24  1  1  0  0  0
 32 31  2  0  0  0  0
M  END
>  <MODEL>
4

>  <REMARK>
 VINA RESULT:      -4.2      3.653      6.728
  Name = 
  5 active torsions:
  status: ('A' for Active; 'I' for Inactive)
    1  A    between atoms: C_1  and  O_17
    2  A    between atoms: C_7  and  C_22
    3  A    between atoms: C_16  and  C_27
    4  A    between atoms: O_17  and  C_19
    5  A    between atoms: C_27  and  C_32
                            x       y       z     vdW  Elec       q    Type
                         _______ _______ _______ _____ _____    ______ ____

>  <TORSDO>
F 5

$$$$
=
 OpenBabel11062410423D

 32 36  0  0  1  0  0  0  0  0999 V2000
  160.1510  211.2220  156.2970 C   0  0  1  0  0  3  0  0  0  0  0  0
  160.4340  211.6140  151.6830 C   0  0  0  0  0  2  0  0  0  0  0  0
  155.5330  214.1440  153.1800 C   0  0  0  0  0  2  0  0  0  0  0  0
  155.4520  214.2190  151.6470 C   0  0  0  0  0  2  0  0  0  0  0  0
  160.8550  210.6190  153.9370 C   0  0  2  0  0  3  0  0  0  0  0  0
  159.8950  212.9820  154.5260 C   0  0  0  0  0  2  0  0  0  0  0  0
  160.1260  212.2320  157.2610 O   0  0  0  0  0  1  0  0  0  0  0  0
  156.6960  213.2800  153.6630 C   0  0  0  0  0  2  0  0  0  0  0  0
  159.1030  212.7810  153.2400 C   0  0  1  0  0  3  0  0  0  0  0  0
  158.0190  213.8250  153.1200 C   0  0  1  0  0  3  0  0  0  0  0  0
  159.1870  213.5030  151.0250 C   0  0  2  0  0  3  0  0  0  0  0  0
  161.0950  208.9360  155.7970 C   0  0  1  0  0  3  0  0  0  0  0  0
  160.7230  211.7600  154.9770 C   0  0  1  0  0  3  0  0  0  0  0  0
  161.6920  209.4720  154.4990 C   0  0  0  0  0  2  0  0  0  0  0  0
  160.9910  210.0610  156.8260 C   0  0  0  0  0  2  0  0  0  0  0  0
  156.7040  213.6910  150.9400 C   0  0  0  0  0  2  0  0  0  0  0  0
  157.9750  214.1830  151.6340 C   0  0  1  0  0  3  0  0  0  0  0  0
  161.4970  211.0870  152.6380 C   0  0  0  0  0  2  0  0  0  0  0  0
  159.9960  212.9390  152.1000 N   0  0  2  0  0  0  0  0  0  0  0  0
  159.8220  208.3510  155.5470 O   0  0  0  0  0  0  0  0  0  0  0  0
  159.4180  207.1640  156.1600 C   0  0  0  0  0  0  0  0  0  0  0  0
  158.2700  206.5020  155.7430 O   0  0  0  0  0  0  0  0  0  0  0  0
  160.1010  206.6880  157.1030 O   0  0  0  0  0  1  0  0  0  0  0  0
  159.9970  214.4530  150.1240 C   0  0  0  0  0  2  0  0  0  0  0  0
  159.0220  213.4670  147.9920 C   0  0  0  0  0  2  0  0  0  0  0  0
  159.3180  213.2330  146.5110 C   0  0  1  0  0  3  0  0  0  0  0  0
  161.5430  212.3490  147.2320 C   0  0  0  0  0  3  0  0  0  0  0  0
  160.5770  212.4320  146.3040 C   0  0  0  0  0  3  0  0  0  0  0  0
  161.4130  212.9610  148.6030 C   0  0  0  0  0  2  0  0  0  0  0  0
  160.2780  213.9830  148.6880 C   0  0  2  0  0  3  0  0  0  0  0  0
  158.1710  212.5510  145.8430 C   0  0  0  0  0  3  0  0  0  0  0  0
  156.9150  212.8380  146.1780 C   0  0  0  0  0  2  0  0  0  0  0  0
  1 15  1  0  0  0  0
  1  7  1  1  0  0  0
  2 18  1  0  0  0  0
  3  8  1  0  0  0  0
  4  3  1  0  0  0  0
  5 18  1  6  0  0  0
  5 14  1  0  0  0  0
  5 13  1  0  0  0  0
  9  6  1  1  0  0  0
 10  9  1  0  0  0  0
 10  8  1  6  0  0  0
 11 24  1  1  0  0  0
 11 17  1  0  0  0  0
 11 19  1  0  0  0  0
 12 20  1  6  0  0  0
 12 15  1  0  0  0  0
 13  6  1  6  0  0  0
 13  1  1  0  0  0  0
 14 12  1  0  0  0  0
 16  4  1  0  0  0  0
 17 16  1  6  0  0  0
 17 10  1  0  0  0  0
 19  2  1  6  0  0  0
 19  9  1  0  0  0  0
 20 21  1  0  0  0  0
 21 23  1  0  0  0  0
 22 21  2  0  0  0  0
 25 30  1  0  0  0  0
 26 31  1  1  0  0  0
 26 25  1  0  0  0  0
 27 29  1  0  0  0  0
 28 26  1  0  0  0  0
 28 27  2  0  0  0  0
 29 30  1  0  0  0  0
 30 24  1  1  0  0  0
 31 32  2  0  0  0  0
M  END
>  <MODEL>
5

>  <REMARK>
 VINA RESULT:      -4.0      4.371      6.275
  Name = 
  5 active torsions:
  status: ('A' for Active; 'I' for Inactive)
    1  A    between atoms: C_1  and  O_17
    2  A    between atoms: C_7  and  C_22
    3  A    between atoms: C_16  and  C_27
    4  A    between atoms: O_17  and  C_19
    5  A    between atoms: C_27  and  C_32
                            x       y       z     vdW  Elec       q    Type
                         _______ _______ _______ _____ _____    ______ ____

>  <TORSDO>
F 5

$$$$
=
 OpenBabel11062410423D

 32 36  0  0  1  0  0  0  0  0999 V2000
  161.4710  208.2810  153.5830 C   0  0  1  0  0  3  0  0  0  0  0  0
  161.2610  210.9650  149.8040 C   0  0  0  0  0  2  0  0  0  0  0  0
  156.9640  212.6520  153.1720 C   0  0  0  0  0  2  0  0  0  0  0  0
  156.7150  213.5060  151.9200 C   0  0  0  0  0  2  0  0  0  0  0  0
  161.8030  208.9320  151.1550 C   0  0  2  0  0  3  0  0  0  0  0  0
  161.2530  210.7110  152.9940 C   0  0  0  0  0  2  0  0  0  0  0  0
  161.6970  208.6540  154.9090 O   0  0  0  0  0  1  0  0  0  0  0  0
  158.0450  211.5960  152.9560 C   0  0  0  0  0  2  0  0  0  0  0  0
  160.2950  211.2440  151.9360 C   0  0  1  0  0  3  0  0  0  0  0  0
  159.3580  212.2640  152.5380 C   0  0  1  0  0  3  0  0  0  0  0  0
  160.2170  212.9930  150.3960 C   0  0  2  0  0  3  0  0  0  0  0  0
  162.0260  206.5230  151.8600 C   0  0  1  0  0  3  0  0  0  0  0  0
  161.9520  209.3850  152.6300 C   0  0  1  0  0  3  0  0  0  0  0  0
  162.5350  207.6130  150.9200 C   0  0  0  0  0  2  0  0  0  0  0  0
  162.1990  206.9660  153.3120 C   0  0  0  0  0  2  0  0  0  0  0  0
  157.7900  213.3430  150.8410 C   0  0  0  0  0  2  0  0  0  0  0  0
  159.1890  213.3350  151.4600 C   0  0  1  0  0  3  0  0  0  0  0  0
  162.3460  209.9620  150.1730 C   0  0  0  0  0  2  0  0  0  0  0  0
  161.0610  211.9110  150.8920 N   0  0  2  0  0  0  0  0  0  0  0  0
  160.6640  206.2240  151.5740 O   0  0  0  0  0  0  0  0  0  0  0  0
  160.2950  205.3660  150.5370 C   0  0  0  0  0  0  0  0  0  0  0  0
  160.1030  205.8480  149.2480 O   0  0  0  0  0  0  0  0  0  0  0  0
  160.1320  204.1420  150.7730 O   0  0  0  0  0  1  0  0  0  0  0  0
  161.0380  214.2210  149.9640 C   0  0  0  0  0  2  0  0  0  0  0  0
  160.0980  213.8350  147.6320 C   0  0  0  0  0  2  0  0  0  0  0  0
  160.2360  214.2740  146.1750 C   0  0  1  0  0  3  0  0  0  0  0  0
  162.7000  213.9540  146.4500 C   0  0  0  0  0  3  0  0  0  0  0  0
  161.6300  214.0580  145.6460 C   0  0  0  0  0  3  0  0  0  0  0  0
  162.5950  213.9390  147.9530 C   0  0  0  0  0  2  0  0  0  0  0  0
  161.2360  214.4330  148.4550 C   0  0  2  0  0  3  0  0  0  0  0  0
  159.2520  213.5560  145.3110 C   0  0  0  0  0  3  0  0  0  0  0  0
  158.3250  212.7640  145.8430 C   0  0  0  0  0  2  0  0  0  0  0  0
  1  7  1  1  0  0  0
  2 18  1  0  0  0  0
  4  3  1  0  0  0  0
  5 18  1  6  0  0  0
  5 13  1  0  0  0  0
  8  3  1  0  0  0  0
  9 10  1  0  0  0  0
  9  6  1  1  0  0  0
 10  8  1  6  0  0  0
 11 24  1  1  0  0  0
 11 19  1  0  0  0  0
 11 17  1  0  0  0  0
 12 20  1  6  0  0  0
 12 15  1  0  0  0  0
 13  6  1  6  0  0  0
 13  1  1  0  0  0  0
 14  5  1  0  0  0  0
 14 12  1  0  0  0  0
 15  1  1  0  0  0  0
 16  4  1  0  0  0  0
 17 16  1  6  0  0  0
 17 10  1  0  0  0  0
 19  2  1  6  0  0  0
 19  9  1  0  0  0  0
 21 23  1  0  0  0  0
 21 20  1  0  0  0  0
 22 21  2  0  0  0  0
 25 30  1  0  0  0  0
 26 31  1  6  0  0  0
 26 25  1  0  0  0  0
 27 29  1  0  0  0  0
 28 26  1  0  0  0  0
 28 27  2  0  0  0  0
 29 30  1  0  0  0  0
 30 24  1  1  0  0  0
 31 32  2  0  0  0  0
M  END
>  <MODEL>
6

>  <REMARK>
 VINA RESULT:      -3.9      3.171      6.691
  Name = 
  5 active torsions:
  status: ('A' for Active; 'I' for Inactive)
    1  A    between atoms: C_1  and  O_17
    2  A    between atoms: C_7  and  C_22
    3  A    between atoms: C_16  and  C_27
    4  A    between atoms: O_17  and  C_19
    5  A    between atoms: C_27  and  C_32
                            x       y       z     vdW  Elec       q    Type
                         _______ _______ _______ _____ _____    ______ ____

>  <TORSDO>
F 5

$$$$
=
 OpenBabel11062410423D

 32 36  0  0  1  0  0  0  0  0999 V2000
  162.1630  209.9290  152.5560 C   0  0  1  0  0  3  0  0  0  0  0  0
  160.2010  205.7430  152.1700 C   0  0  0  0  0  2  0  0  0  0  0  0
  161.4420  207.3970  146.8420 C   0  0  0  0  0  2  0  0  0  0  0  0
  160.6910  206.0820  146.5790 C   0  0  0  0  0  2  0  0  0  0  0  0
  160.6950  207.9660  153.2020 C   0  0  2  0  0  3  0  0  0  0  0  0
  162.5800  207.7410  151.4010 C   0  0  0  0  0  2  0  0  0  0  0  0
  163.4550  210.3250  152.2070 O   0  0  0  0  0  1  0  0  0  0  0  0
  161.3670  207.8330  148.3040 C   0  0  0  0  0  2  0  0  0  0  0  0
  161.5110  206.9680  150.6390 C   0  0  1  0  0  3  0  0  0  0  0  0
  161.9410  206.7400  149.2090 C   0  0  1  0  0  3  0  0  0  0  0  0
  160.9790  204.7440  150.1810 C   0  0  2  0  0  3  0  0  0  0  0  0
  160.3790  210.2020  154.3200 C   0  0  1  0  0  3  0  0  0  0  0  0
  162.0970  208.4030  152.7080 C   0  0  1  0  0  3  0  0  0  0  0  0
  160.3310  208.6870  154.4970 C   0  0  0  0  0  2  0  0  0  0  0  0
  161.7710  210.6280  153.8570 C   0  0  0  0  0  2  0  0  0  0  0  0
  160.3020  205.3320  147.8570 C   0  0  0  0  0  2  0  0  0  0  0  0
  161.4520  205.3330  148.8660 C   0  0  1  0  0  3  0  0  0  0  0  0
  160.6060  206.4660  153.4480 C   0  0  0  0  0  2  0  0  0  0  0  0
  161.3350  205.6610  151.2590 N   0  0  2  0  0  0  0  0  0  0  0  0
  159.3820  210.6200  153.3940 O   0  0  0  0  0  0  0  0  0  0  0  0
  159.1340  211.9680  153.1290 C   0  0  0  0  0  0  0  0  0  0  0  0
  159.4720  212.5260  151.9020 O   0  0  0  0  0  0  0  0  0  0  0  0
  158.6020  212.6870  154.0140 O   0  0  0  0  0  1  0  0  0  0  0  0
  161.5320  203.3270  150.4170 C   0  0  0  0  0  2  0  0  0  0  0  0
  160.8450  202.8810  148.0090 C   0  0  0  0  0  2  0  0  0  0  0  0
  161.2390  202.1030  146.7540 C   0  0  1  0  0  3  0  0  0  0  0  0
  161.4840  200.1010  148.2320 C   0  0  0  0  0  3  0  0  0  0  0  0
  161.3130  200.6190  147.0060 C   0  0  0  0  0  3  0  0  0  0  0  0
  161.5130  200.9460  149.4790 C   0  0  0  0  0  2  0  0  0  0  0  0
  161.7160  202.4340  149.1800 C   0  0  2  0  0  3  0  0  0  0  0  0
  160.2830  202.3780  145.6400 C   0  0  0  0  0  3  0  0  0  0  0  0
  159.8280  201.3920  144.8710 C   0  0  0  0  0  2  0  0  0  0  0  0
  1  7  1  1  0  0  0
  1 13  1  0  0  0  0
  1 15  1  0  0  0  0
  2 18  1  0  0  0  0
  3  8  1  0  0  0  0
  4  3  1  0  0  0  0
  4 16  1  0  0  0  0
  5 18  1  1  0  0  0
  5 14  1  0  0  0  0
  9 19  1  0  0  0  0
  9  6  1  1  0  0  0
 10  8  1  6  0  0  0
 10  9  1  0  0  0  0
 11 24  1  1  0  0  0
 11 19  1  0  0  0  0
 12 20  1  6  0  0  0
 12 14  1  0  0  0  0
 13  6  1  6  0  0  0
 13  5  1  0  0  0  0
 15 12  1  0  0  0  0
 17 16  1  6  0  0  0
 17 10  1  0  0  0  0
 17 11  1  0  0  0  0
 19  2  1  1  0  0  0
 21 20  1  0  0  0  0
 21 23  1  0  0  0  0
 22 21  2  0  0  0  0
 25 30  1  0  0  0  0
 26 31  1  6  0  0  0
 26 28  1  0  0  0  0
 26 25  1  0  0  0  0
 27 29  1  0  0  0  0
 28 27  2  0  0  0  0
 30 29  1  0  0  0  0
 30 24  1  1  0  0  0
 32 31  2  0  0  0  0
M  END
>  <MODEL>
7

>  <REMARK>
 VINA RESULT:      -3.5      2.127      3.739
  Name = 
  5 active torsions:
  status: ('A' for Active; 'I' for Inactive)
    1  A    between atoms: C_1  and  O_17
    2  A    between atoms: C_7  and  C_22
    3  A    between atoms: C_16  and  C_27
    4  A    between atoms: O_17  and  C_19
    5  A    between atoms: C_27  and  C_32
                            x       y       z     vdW  Elec       q    Type
                         _______ _______ _______ _____ _____    ______ ____

>  <TORSDO>
F 5

$$$$
=
 OpenBabel11062410423D

 32 36  0  0  1  0  0  0  0  0999 V2000
  161.4360  207.8730  154.7650 C   0  0  1  0  0  3  0  0  0  0  0  0
  159.9340  210.9730  151.6570 C   0  0  0  0  0  2  0  0  0  0  0  0
  156.1900  211.1300  155.9720 C   0  0  0  0  0  2  0  0  0  0  0  0
  155.5260  212.0840  154.9650 C   0  0  0  0  0  2  0  0  0  0  0  0
  161.1250  208.9370  152.4850 C   0  0  2  0  0  3  0  0  0  0  0  0
  160.6390  210.2520  154.6950 C   0  0  0  0  0  2  0  0  0  0  0  0
  161.8580  208.0860  156.0790 O   0  0  0  0  0  1  0  0  0  0  0  0
  157.3850  210.3890  155.3760 C   0  0  0  0  0  2  0  0  0  0  0  0
  159.3970  210.7070  153.9380 C   0  0  1  0  0  3  0  0  0  0  0  0
  158.4290  211.3900  154.8740 C   0  0  1  0  0  3  0  0  0  0  0  0
  158.6670  212.6040  152.7940 C   0  0  2  0  0  3  0  0  0  0  0  0
  161.9470  206.5620  152.6710 C   0  0  1  0  0  3  0  0  0  0  0  0
  161.4880  209.1860  153.9710 C   0  0  1  0  0  3  0  0  0  0  0  0
  162.0310  207.8650  151.8820 C   0  0  0  0  0  2  0  0  0  0  0  0
  162.3300  206.8110  154.1290 C   0  0  0  0  0  2  0  0  0  0  0  0
  156.3650  212.3290  153.7070 C   0  0  0  0  0  2  0  0  0  0  0  0
  157.8370  212.5430  154.0630 C   0  0  1  0  0  3  0  0  0  0  0  0
  161.2440  210.1960  151.6380 C   0  0  0  0  0  2  0  0  0  0  0  0
  159.7880  211.6780  152.9230 N   0  0  2  0  0  0  0  0  0  0  0  0
  160.6390  206.0110  152.5720 O   0  0  0  0  0  0  0  0  0  0  0  0
  160.3940  204.7900  151.9420 C   0  0  0  0  0  0  0  0  0  0  0  0
  160.2330  204.7210  150.5630 O   0  0  0  0  0  0  0  0  0  0  0  0
  160.3160  203.7400  152.6300 O   0  0  0  0  0  1  0  0  0  0  0  0
  159.1290  214.0350  152.4670 C   0  0  0  0  0  2  0  0  0  0  0  0
  158.0450  213.7550  150.1840 C   0  0  0  0  0  2  0  0  0  0  0  0
  157.9710  214.3690  148.7860 C   0  0  1  0  0  3  0  0  0  0  0  0
  160.4700  214.4450  148.8320 C   0  0  0  0  0  3  0  0  0  0  0  0
  159.3260  214.4530  148.1310 C   0  0  0  0  0  3  0  0  0  0  0  0
  160.5130  214.2460  150.3250 C   0  0  0  0  0  2  0  0  0  0  0  0
  159.1460  214.4430  150.9860 C   0  0  2  0  0  3  0  0  0  0  0  0
  157.0380  213.5940  147.9160 C   0  0  0  0  0  3  0  0  0  0  0  0
  157.4720  212.5640  147.1950 C   0  0  0  0  0  2  0  0  0  0  0  0
  1  7  1  1  0  0  0
  4  3  1  0  0  0  0
  5 18  1  6  0  0  0
  5 13  1  0  0  0  0
  8  3  1  0  0  0  0
  9  6  1  1  0  0  0
  9 10  1  0  0  0  0
 10  8  1  6  0  0  0
 11 24  1  1  0  0  0
 11 19  1  0  0  0  0
 11 17  1  0  0  0  0
 12 20  1  1  0  0  0
 12 15  1  0  0  0  0
 13  6  1  1  0  0  0
 13  1  1  0  0  0  0
 14  5  1  0  0  0  0
 14 12  1  0  0  0  0
 15  1  1  0  0  0  0
 16  4  1  0  0  0  0
 17 16  1  6  0  0  0
 17 10  1  0  0  0  0
 18  2  1  0  0  0  0
 19  2  1  6  0  0  0
 19  9  1  0  0  0  0
 21 20  1  0  0  0  0
 21 23  1  0  0  0  0
 22 21  2  0  0  0  0
 25 30  1  0  0  0  0
 26 31  1  6  0  0  0
 26 25  1  0  0  0  0
 27 29  1  0  0  0  0
 28 26  1  0  0  0  0
 28 27  2  0  0  0  0
 29 30  1  0  0  0  0
 30 24  1  1  0  0  0
 32 31  2  0  0  0  0
M  END
>  <MODEL>
8

>  <REMARK>
 VINA RESULT:      -3.3      3.247      7.317
  Name = 
  5 active torsions:
  status: ('A' for Active; 'I' for Inactive)
    1  A    between atoms: C_1  and  O_17
    2  A    between atoms: C_7  and  C_22
    3  A    between atoms: C_16  and  C_27
    4  A    between atoms: O_17  and  C_19
    5  A    between atoms: C_27  and  C_32
                            x       y       z     vdW  Elec       q    Type
                         _______ _______ _______ _____ _____    ______ ____

>  <TORSDO>
F 5

$$$$
