=
 OpenBabel11062408543D

 55 59  0  0  1  0  0  0  0  0999 V2000
  160.5490  209.8090  153.3500 C   0  0  0  0  0  2  0  0  0  0  0  0
  160.4770  206.6700  147.7340 C   0  0  0  0  0  0  0  0  0  0  0  0
  162.5790  208.0480  149.2440 O   0  0  0  0  0  0  0  0  0  0  0  0
  161.5670  210.0600  148.7770 O   0  0  0  0  0  0  0  0  0  0  0  0
  161.5370  207.6410  154.1400 C   0  0  0  0  0  2  0  0  0  0  0  0
  160.8810  206.4380  152.2080 C   0  0  2  0  0  3  0  0  0  0  0  0
  161.6140  210.3320  152.3960 C   0  0  0  0  0  2  0  0  0  0  0  0
  160.4220  207.7530  152.0430 O   0  0  0  0  0  0  0  0  0  0  0  0
  159.5360  206.1930  146.8260 O   0  0  0  0  0  1  0  0  0  0  0  0
  160.7370  207.9820  147.7350 C   0  0  0  0  0  3  0  0  0  0  0  0
  161.6800  208.6790  148.6240 C   0  0  0  0  0  0  0  0  0  0  0  0
  161.9030  206.4320  153.3360 C   0  0  1  0  0  3  0  0  0  0  0  0
  161.1170  205.7240  148.7210 C   0  0  1  0  0  3  0  0  0  0  0  0
  160.4240  208.2860  153.3430 C   0  0  2  0  0  3  0  0  0  0  0  0
  162.0660  210.7020  149.9460 C   0  0  2  0  0  3  0  0  0  0  0  0
  160.9900  210.6130  151.0380 C   0  0  2  0  0  3  0  0  0  0  0  0
  160.4350  205.7400  149.9460 O   0  0  0  0  0  0  0  0  0  0  0  0
  161.4400  205.8720  150.9090 C   0  0  0  0  0  2  0  0  0  0  0  0
  163.2040  206.6010  152.8520 O   0  0  0  0  0  1  0  0  0  0  0  0
  161.3110  213.0870  149.4850 C   0  0  0  0  0  2  0  0  0  0  0  0
  160.5320  212.8130  148.2010 C   0  0  0  0  0  2  0  0  0  0  0  0
  163.4100  212.1880  148.3770 C   0  0  2  0  0  3  0  0  0  0  0  0
  162.6140  211.9900  147.0840 C   0  0  0  0  0  2  0  0  0  0  0  0
  161.4460  212.9690  146.9930 C   0  0  0  0  0  2  0  0  0  0  0  0
  162.5110  212.1400  149.6250 C   0  0  2  0  0  3  0  0  0  0  0  0
  164.2110  213.4750  148.3320 C   0  0  0  0  0  1  0  0  0  0  0  0
  160.1610  203.6550  148.1230 F   0  0  0  0  0  0  0  0  0  0  0  0
  161.3880  204.2910  148.2070 C   0  0  0  0  0  0  0  0  0  0  0  0
  162.1630  203.5980  149.1220 F   0  0  0  0  0  0  0  0  0  0  0  0
  162.0670  204.2890  146.8150 C   0  0  1  0  0  3  0  0  0  0  0  0
  163.4470  204.1000  146.9310 O   0  0  0  0  0  1  0  0  0  0  0  0
  161.4520  203.3210  145.7660 C   0  0  2  0  0  0  0  0  0  0  0  0
  162.2910  203.2640  144.6490 O   0  0  0  0  0  1  0  0  0  0  0  0
  160.1790  204.5680  144.1220 O   0  0  0  0  0  1  0  0  0  0  0  0
  160.0770  203.8160  145.2950 C   0  0  0  0  0  2  0  0  0  0  0  0
  161.3210  201.8930  146.3490 C   0  0  2  0  0  3  0  0  0  0  0  0
  161.0120  200.8420  145.2730 C   0  0  2  0  0  3  0  0  0  0  0  0
  159.6820  200.9310  144.8510 O   0  0  0  0  0  1  0  0  0  0  0  0
  161.2840  199.4480  145.8020 C   0  0  0  0  0  1  0  0  0  0  0  0
  160.3530  201.8500  147.3660 O   0  0  0  0  0  0  0  0  0  0  0  0
  162.1810  200.9430  148.3830 O   0  0  0  0  0  1  0  0  0  0  0  0
  160.7940  200.8740  148.2630 C   0  0  1  0  0  3  0  0  0  0  0  0
  160.9490  201.0730  150.7510 O   0  0  0  0  0  1  0  0  0  0  0  0
  160.1680  201.0910  149.6010 C   0  0  0  0  0  0  0  0  0  0  0  0
  158.9210  201.2400  149.6900 O   0  0  0  0  0  0  0  0  0  0  0  0
  160.2010  211.7720  151.0830 O   0  0  0  0  0  0  0  0  0  0  0  0
  156.8870  213.7860  154.9760 C   0  0  0  0  0  2  0  0  0  0  0  0
  159.8540  213.3450  152.8430 C   0  0  0  0  0  3  0  0  0  0  0  0
  157.8670  212.9200  155.7730 C   0  0  1  0  0  3  0  0  0  0  0  0
  157.9670  213.0140  154.2620 C   0  0  1  0  0  0  0  0  0  0  0  0
  158.3890  211.3200  152.5640 C   0  0  0  0  0  3  0  0  0  0  0  0
  157.5280  211.8300  153.4550 C   0  0  0  0  0  3  0  0  0  0  0  0
  158.8150  213.7370  156.3920 O   0  0  0  0  0  1  0  0  0  0  0  0
  159.0260  213.8330  153.7060 N   0  0  0  0  0  0  0  0  0  0  0  0
  159.7800  211.8920  152.4120 C   0  0  1  0  0  3  0  0  0  0  0  0
  2 10  2  0  0  0  0
  2 13  1  0  0  0  0
  6 18  1  6  0  0  0
  6 12  1  0  0  0  0
  7  1  1  0  0  0  0
  8  6  1  0  0  0  0
  8 14  1  0  0  0  0
  9  2  1  0  0  0  0
 10 11  1  0  0  0  0
 11  4  1  0  0  0  0
 11  3  2  0  0  0  0
 12 19  1  6  0  0  0
 12  5  1  0  0  0  0
 13 28  1  6  0  0  0
 13 17  1  0  0  0  0
 14  1  1  6  0  0  0
 14  5  1  0  0  0  0
 15  4  1  6  0  0  0
 15 16  1  0  0  0  0
 16 46  1  1  0  0  0
 16  7  1  0  0  0  0
 17 18  1  0  0  0  0
 21 20  1  0  0  0  0
 22 26  1  6  0  0  0
 22 25  1  0  0  0  0
 23 22  1  0  0  0  0
 24 23  1  0  0  0  0
 24 21  1  0  0  0  0
 25 20  1  6  0  0  0
 25 15  1  0  0  0  0
 27 28  1  0  0  0  0
 28 29  1  0  0  0  0
 30 31  1  1  0  0  0
 30 28  1  0  0  0  0
 32 33  1  6  0  0  0
 32 36  1  0  0  0  0
 32 30  1  0  0  0  0
 34 35  1  0  0  0  0
 35 32  1  0  0  0  0
 36 40  1  1  0  0  0
 37 39  1  1  0  0  0
 37 36  1  0  0  0  0
 38 37  1  0  0  0  0
 40 42  1  0  0  0  0
 42 41  1  1  0  0  0
 42 44  1  0  0  0  0
 44 45  2  0  0  0  0
 44 43  1  0  0  0  0
 47 49  1  0  0  0  0
 48 54  2  0  0  0  0
 49 53  1  1  0  0  0
 50 52  1  6  0  0  0
 50 47  1  0  0  0  0
 50 49  1  0  0  0  0
 51 52  2  0  0  0  0
 54 50  1  0  0  0  0
 55 46  1  6  0  0  0
 55 51  1  0  0  0  0
 55 48  1  0  0  0  0
M  END
>  <MODEL>
1

>  <REMARK>
 VINA RESULT:       0.4      0.000      0.000
  Name = 
  12 active torsions:
  status: ('A' for Active; 'I' for Inactive)
    1  A    between atoms: C_1  and  C_53
    2  A    between atoms: C_6  and  C_14
    3  A    between atoms: C_6  and  C_20
    4  A    between atoms: C_6  and  C_53
    5  A    between atoms: C_8  and  C_20
    6  A    between atoms: C_8  and  C_43
    7  A    between atoms: C_11  and  C_29
    8  A    between atoms: C_11  and  O_38
    9  A    between atoms: C_26  and  C_45
   10  A    between atoms: O_33  and  C_49
   11  A    between atoms: O_33  and  C_52
   12  A    between atoms: O_38  and  C_53
                            x       y       z     vdW  Elec       q    Type
                         _______ _______ _______ _____ _____    ______ ____

>  <TORSDO>
F 12

$$$$
=
 OpenBabel11062408543D

 55 59  0  0  1  0  0  0  0  0999 V2000
  160.8100  208.8310  153.0020 C   0  0  0  0  0  2  0  0  0  0  0  0
  160.8590  206.8290  146.8880 C   0  0  0  0  0  0  0  0  0  0  0  0
  162.8370  208.1780  148.5810 O   0  0  0  0  0  0  0  0  0  0  0  0
  161.5440  210.0800  148.5410 O   0  0  0  0  0  0  0  0  0  0  0  0
  162.1170  206.7130  153.3300 C   0  0  0  0  0  2  0  0  0  0  0  0
  161.5260  205.8160  151.2200 C   0  0  2  0  0  3  0  0  0  0  0  0
  161.7450  209.6680  152.1400 C   0  0  0  0  0  2  0  0  0  0  0  0
  160.8890  207.0600  151.3250 O   0  0  0  0  0  0  0  0  0  0  0  0
  159.9430  206.4050  145.9290 O   0  0  0  0  0  1  0  0  0  0  0  0
  160.9430  208.1410  147.1360 C   0  0  0  0  0  3  0  0  0  0  0  0
  161.8300  208.7820  148.1190 C   0  0  0  0  0  0  0  0  0  0  0  0
  162.5980  205.7400  152.2970 C   0  0  1  0  0  3  0  0  0  0  0  0
  161.6700  205.8130  147.6550 C   0  0  1  0  0  3  0  0  0  0  0  0
  160.8880  207.3340  152.7030 C   0  0  2  0  0  3  0  0  0  0  0  0
  162.0140  210.5530  149.7970 C   0  0  2  0  0  3  0  0  0  0  0  0
  161.0190  210.1100  150.8800 C   0  0  2  0  0  3  0  0  0  0  0  0
  161.0580  205.5010  148.8770 O   0  0  0  0  0  0  0  0  0  0  0  0
  162.0860  205.5890  149.8210 C   0  0  0  0  0  2  0  0  0  0  0  0
  163.8370  206.1790  151.8210 O   0  0  0  0  0  1  0  0  0  0  0  0
  160.9310  212.8540  149.8850 C   0  0  0  0  0  2  0  0  0  0  0  0
  160.0790  212.7290  148.6250 C   0  0  0  0  0  2  0  0  0  0  0  0
  163.0150  212.4890  148.4840 C   0  0  2  0  0  3  0  0  0  0  0  0
  162.1360  212.4380  147.2320 C   0  0  0  0  0  2  0  0  0  0  0  0
  160.8520  213.2430  147.4180 C   0  0  0  0  0  2  0  0  0  0  0  0
  162.2470  212.0740  149.7510 C   0  0  2  0  0  3  0  0  0  0  0  0
  163.6440  213.8590  148.6530 C   0  0  0  0  0  1  0  0  0  0  0  0
  163.4380  204.3360  147.1580 F   0  0  0  0  0  0  0  0  0  0  0  0
  162.1010  204.5560  146.8650 C   0  0  0  0  0  0  0  0  0  0  0  0
  161.9990  204.7920  145.5050 F   0  0  0  0  0  0  0  0  0  0  0  0
  161.2750  203.3070  147.2600 C   0  0  1  0  0  3  0  0  0  0  0  0
  160.1340  203.6690  147.9810 O   0  0  0  0  0  1  0  0  0  0  0  0
  160.9230  202.3360  146.0990 C   0  0  2  0  0  0  0  0  0  0  0  0
  161.7780  202.5830  145.0200 O   0  0  0  0  0  1  0  0  0  0  0  0
  159.4430  202.8660  144.2530 O   0  0  0  0  0  1  0  0  0  0  0  0
  159.4830  202.5510  145.6140 C   0  0  0  0  0  2  0  0  0  0  0  0
  161.1110  200.8640  146.5400 C   0  0  2  0  0  3  0  0  0  0  0  0
  160.9450  199.8730  145.3790 C   0  0  2  0  0  3  0  0  0  0  0  0
  159.5950  199.6750  145.0770 O   0  0  0  0  0  1  0  0  0  0  0  0
  161.5890  198.5450  145.7210 C   0  0  0  0  0  1  0  0  0  0  0  0
  160.2360  200.5360  147.5890 O   0  0  0  0  0  0  0  0  0  0  0  0
  162.3680  200.6500  148.3920 O   0  0  0  0  0  1  0  0  0  0  0  0
  161.0510  200.3100  148.7010 C   0  0  1  0  0  3  0  0  0  0  0  0
  161.4990  201.6640  150.7550 O   0  0  0  0  0  1  0  0  0  0  0  0
  160.5830  201.1350  149.8530 C   0  0  0  0  0  0  0  0  0  0  0  0
  159.3490  201.3090  150.0370 O   0  0  0  0  0  0  0  0  0  0  0  0
  160.0870  211.1170  151.1700 O   0  0  0  0  0  0  0  0  0  0  0  0
  158.1990  212.9720  155.9860 C   0  0  0  0  0  2  0  0  0  0  0  0
  160.5600  211.9150  153.3680 C   0  0  0  0  0  3  0  0  0  0  0  0
  158.5670  211.5190  156.2970 C   0  0  1  0  0  3  0  0  0  0  0  0
  158.7400  212.0800  154.8980 C   0  0  1  0  0  0  0  0  0  0  0  0
  158.2660  211.1270  152.7080 C   0  0  0  0  0  3  0  0  0  0  0  0
  157.7720  211.6400  153.8430 C   0  0  0  0  0  3  0  0  0  0  0  0
  159.7860  211.4820  156.9780 O   0  0  0  0  0  1  0  0  0  0  0  0
  160.0840  212.4060  154.4640 N   0  0  0  0  0  0  0  0  0  0  0  0
  159.7550  210.9490  152.5190 C   0  0  1  0  0  3  0  0  0  0  0  0
  2 10  2  0  0  0  0
  2 13  1  0  0  0  0
  6 18  1  6  0  0  0
  6  8  1  0  0  0  0
  6 12  1  0  0  0  0
  7  1  1  0  0  0  0
  8 14  1  0  0  0  0
  9  2  1  0  0  0  0
 10 11  1  0  0  0  0
 11  4  1  0  0  0  0
 11  3  2  0  0  0  0
 12 19  1  6  0  0  0
 12  5  1  0  0  0  0
 13 28  1  6  0  0  0
 13 17  1  0  0  0  0
 14  1  1  6  0  0  0
 14  5  1  0  0  0  0
 15  4  1  6  0  0  0
 15 16  1  0  0  0  0
 16 46  1  1  0  0  0
 16  7  1  0  0  0  0
 17 18  1  0  0  0  0
 21 20  1  0  0  0  0
 22 26  1  1  0  0  0
 22 25  1  0  0  0  0
 23 24  1  0  0  0  0
 23 22  1  0  0  0  0
 24 21  1  0  0  0  0
 25 15  1  0  0  0  0
 25 20  1  6  0  0  0
 28 27  1  0  0  0  0
 28 30  1  0  0  0  0
 29 28  1  0  0  0  0
 30 31  1  6  0  0  0
 32 33  1  6  0  0  0
 32 36  1  0  0  0  0
 32 30  1  0  0  0  0
 34 35  1  0  0  0  0
 35 32  1  0  0  0  0
 36 40  1  1  0  0  0
 37 39  1  1  0  0  0
 37 36  1  0  0  0  0
 38 37  1  0  0  0  0
 40 42  1  0  0  0  0
 42 41  1  6  0  0  0
 42 44  1  0  0  0  0
 44 45  2  0  0  0  0
 44 43  1  0  0  0  0
 47 49  1  0  0  0  0
 48 54  2  0  0  0  0
 49 53  1  1  0  0  0
 50 52  1  6  0  0  0
 50 47  1  0  0  0  0
 50 49  1  0  0  0  0
 51 52  2  0  0  0  0
 54 50  1  0  0  0  0
 55 46  1  6  0  0  0
 55 51  1  0  0  0  0
 55 48  1  0  0  0  0
M  END
>  <MODEL>
2

>  <REMARK>
 VINA RESULT:       0.6      1.211      1.378
  Name = 
  12 active torsions:
  status: ('A' for Active; 'I' for Inactive)
    1  A    between atoms: C_1  and  C_53
    2  A    between atoms: C_6  and  C_14
    3  A    between atoms: C_6  and  C_20
    4  A    between atoms: C_6  and  C_53
    5  A    between atoms: C_8  and  C_20
    6  A    between atoms: C_8  and  C_43
    7  A    between atoms: C_11  and  C_29
    8  A    between atoms: C_11  and  O_38
    9  A    between atoms: C_26  and  C_45
   10  A    between atoms: O_33  and  C_49
   11  A    between atoms: O_33  and  C_52
   12  A    between atoms: O_38  and  C_53
                            x       y       z     vdW  Elec       q    Type
                         _______ _______ _______ _____ _____    ______ ____

>  <TORSDO>
F 12

$$$$
=
 OpenBabel11062408543D

 55 59  0  0  1  0  0  0  0  0999 V2000
  161.5050  208.0640  148.7760 C   0  0  0  0  0  2  0  0  0  0  0  0
  159.5310  207.6140  154.8840 C   0  0  0  0  0  0  0  0  0  0  0  0
  162.0720  207.0320  153.5410 O   0  0  0  0  0  0  0  0  0  0  0  0
  161.0840  205.2360  152.4960 O   0  0  0  0  0  0  0  0  0  0  0  0
  162.5600  210.1680  149.6480 C   0  0  0  0  0  2  0  0  0  0  0  0
  161.2750  210.1950  151.6380 C   0  0  2  0  0  3  0  0  0  0  0  0
  162.2540  206.9770  149.5350 C   0  0  0  0  0  2  0  0  0  0  0  0
  160.8640  209.0720  150.9040 O   0  0  0  0  0  0  0  0  0  0  0  0
  158.3310  207.6330  155.5880 O   0  0  0  0  0  1  0  0  0  0  0  0
  159.8550  206.4940  154.2280 C   0  0  0  0  0  3  0  0  0  0  0  0
  161.0640  206.2840  153.4160 C   0  0  0  0  0  0  0  0  0  0  0  0
  162.5920  210.6860  151.0540 C   0  0  1  0  0  3  0  0  0  0  0  0
  160.3870  208.8560  154.8230 C   0  0  1  0  0  3  0  0  0  0  0  0
  161.2960  209.3380  149.5940 C   0  0  2  0  0  3  0  0  0  0  0  0
  161.9530  205.2780  151.3700 C   0  0  2  0  0  3  0  0  0  0  0  0
  161.2610  206.0820  150.2600 C   0  0  2  0  0  3  0  0  0  0  0  0
  160.1170  209.5970  153.6640 O   0  0  0  0  0  0  0  0  0  0  0  0
  161.3740  209.8850  153.1260 C   0  0  0  0  0  2  0  0  0  0  0  0
  163.6880  210.1180  151.7090 O   0  0  0  0  0  1  0  0  0  0  0  0
  161.5330  203.3590  149.7530 C   0  0  0  0  0  2  0  0  0  0  0  0
  160.0930  203.0570  150.1610 C   0  0  0  0  0  2  0  0  0  0  0  0
  162.2830  202.8710  152.1280 C   0  0  2  0  0  3  0  0  0  0  0  0
  160.8390  202.5090  152.4850 C   0  0  0  0  0  2  0  0  0  0  0  0
  160.0720  202.0080  151.2640 C   0  0  0  0  0  2  0  0  0  0  0  0
  162.3610  203.8550  150.9480 C   0  0  2  0  0  3  0  0  0  0  0  0
  163.1060  201.6270  151.8540 C   0  0  0  0  0  1  0  0  0  0  0  0
  161.6290  210.3760  156.1270 F   0  0  0  0  0  0  0  0  0  0  0  0
  160.4040  209.7300  156.0990 C   0  0  0  0  0  0  0  0  0  0  0  0
  160.3230  208.9270  157.2250 F   0  0  0  0  0  0  0  0  0  0  0  0
  159.2670  210.7790  156.1020 C   0  0  1  0  0  3  0  0  0  0  0  0
  158.4910  210.6740  157.2600 O   0  0  0  0  0  1  0  0  0  0  0  0
  159.7030  212.2490  155.8500 C   0  0  2  0  0  0  0  0  0  0  0  0
  160.8250  212.2560  155.0150 O   0  0  0  0  0  1  0  0  0  0  0  0
  160.6190  214.2180  156.9280 O   0  0  0  0  0  1  0  0  0  0  0  0
  160.0910  212.9450  157.1620 C   0  0  0  0  0  2  0  0  0  0  0  0
  158.5730  213.0440  155.1510 C   0  0  2  0  0  3  0  0  0  0  0  0
  157.2650  213.0410  155.9540 C   0  0  2  0  0  3  0  0  0  0  0  0
  156.2210  212.4830  155.2100 O   0  0  0  0  0  1  0  0  0  0  0  0
  156.8960  214.4510  156.3690 C   0  0  0  0  0  1  0  0  0  0  0  0
  158.3490  212.5630  153.8500 O   0  0  0  0  0  0  0  0  0  0  0  0
  159.8130  213.4120  152.3210 O   0  0  0  0  0  1  0  0  0  0  0  0
  158.6160  213.6400  153.0000 C   0  0  1  0  0  3  0  0  0  0  0  0
  157.7090  213.4770  150.6760 O   0  0  0  0  0  0  0  0  0  0  0  0
  157.5080  213.7970  152.0130 C   0  0  0  0  0  0  0  0  0  0  0  0
  156.4010  214.2700  152.3860 O   0  0  0  0  0  1  0  0  0  0  0  0
  160.5930  205.2450  149.3540 O   0  0  0  0  0  0  0  0  0  0  0  0
  160.6170  204.8530  143.8730 C   0  0  0  0  0  2  0  0  0  0  0  0
  161.5920  204.3420  147.3840 C   0  0  0  0  0  3  0  0  0  0  0  0
  161.7560  205.8370  144.1520 C   0  0  1  0  0  3  0  0  0  0  0  0
  160.9300  205.2650  145.2890 C   0  0  1  0  0  0  0  0  0  0  0  0
  160.0110  206.2950  147.2950 C   0  0  0  0  0  3  0  0  0  0  0  0
  159.9430  206.1680  145.9630 C   0  0  0  0  0  3  0  0  0  0  0  0
  162.9810  205.1770  144.0390 O   0  0  0  0  0  1  0  0  0  0  0  0
  161.5300  204.2230  146.1000 N   0  0  0  0  0  0  0  0  0  0  0  0
  161.0840  205.5860  148.0890 C   0  0  1  0  0  3  0  0  0  0  0  0
  1  7  1  0  0  0  0
  2  9  1  0  0  0  0
  4 11  1  0  0  0  0
  5 12  1  0  0  0  0
  6 18  1  1  0  0  0
  7 16  1  0  0  0  0
  8  6  1  0  0  0  0
 10  2  2  0  0  0  0
 11  3  2  0  0  0  0
 11 10  1  0  0  0  0
 12  6  1  0  0  0  0
 12 19  1  1  0  0  0
 13  2  1  0  0  0  0
 13 28  1  1  0  0  0
 14  1  1  1  0  0  0
 14  5  1  0  0  0  0
 14  8  1  0  0  0  0
 15  4  1  1  0  0  0
 16 46  1  6  0  0  0
 16 15  1  0  0  0  0
 17 13  1  0  0  0  0
 18 17  1  0  0  0  0
 20 21  1  0  0  0  0
 21 24  1  0  0  0  0
 22 26  1  6  0  0  0
 22 23  1  0  0  0  0
 24 23  1  0  0  0  0
 25 20  1  6  0  0  0
 25 15  1  0  0  0  0
 25 22  1  0  0  0  0
 28 30  1  0  0  0  0
 28 27  1  0  0  0  0
 28 29  1  0  0  0  0
 30 31  1  1  0  0  0
 32 33  1  6  0  0  0
 32 30  1  0  0  0  0
 32 35  1  0  0  0  0
 34 35  1  0  0  0  0
 36 40  1  6  0  0  0
 36 32  1  0  0  0  0
 36 37  1  0  0  0  0
 37 39  1  6  0  0  0
 38 37  1  0  0  0  0
 42 41  1  6  0  0  0
 42 40  1  0  0  0  0
 43 44  2  0  0  0  0
 44 45  1  0  0  0  0
 44 42  1  0  0  0  0
 47 49  1  0  0  0  0
 48 55  1  0  0  0  0
 49 53  1  1  0  0  0
 49 50  1  0  0  0  0
 50 47  1  6  0  0  0
 50 52  1  0  0  0  0
 50 54  1  0  0  0  0
 51 55  1  0  0  0  0
 52 51  2  0  0  0  0
 54 48  2  0  0  0  0
 55 46  1  1  0  0  0
M  END
>  <MODEL>
3

>  <REMARK>
 VINA RESULT:       1.5      3.580     10.695
  Name = 
  12 active torsions:
  status: ('A' for Active; 'I' for Inactive)
    1  A    between atoms: C_1  and  C_53
    2  A    between atoms: C_6  and  C_14
    3  A    between atoms: C_6  and  C_20
    4  A    between atoms: C_6  and  C_53
    5  A    between atoms: C_8  and  C_20
    6  A    between atoms: C_8  and  C_43
    7  A    between atoms: C_11  and  C_29
    8  A    between atoms: C_11  and  O_38
    9  A    between atoms: C_26  and  C_45
   10  A    between atoms: O_33  and  C_49
   11  A    between atoms: O_33  and  C_52
   12  A    between atoms: O_38  and  C_53
                            x       y       z     vdW  Elec       q    Type
                         _______ _______ _______ _____ _____    ______ ____

>  <TORSDO>
F 12

$$$$
=
 OpenBabel11062408543D

 55 59  0  0  1  0  0  0  0  0999 V2000
  160.1070  214.4530  151.9990 C   0  0  0  0  0  2  0  0  0  0  0  0
  161.6750  208.2610  151.2260 C   0  0  0  0  0  0  0  0  0  0  0  0
  159.1610  209.7490  150.9720 O   0  0  0  0  0  0  0  0  0  0  0  0
  159.1280  210.0400  153.2540 O   0  0  0  0  0  0  0  0  0  0  0  0
  160.2320  214.4270  149.4920 C   0  0  0  0  0  2  0  0  0  0  0  0
  161.3870  212.3620  149.3980 C   0  0  2  0  0  3  0  0  0  0  0  0
  158.9300  213.5320  152.2840 C   0  0  0  0  0  2  0  0  0  0  0  0
  161.1850  212.6520  150.7550 O   0  0  0  0  0  0  0  0  0  0  0  0
  162.7380  207.4160  151.5320 O   0  0  0  0  0  1  0  0  0  0  0  0
  160.8360  208.5940  152.2120 C   0  0  0  0  0  3  0  0  0  0  0  0
  159.6700  209.4850  152.0960 C   0  0  0  0  0  0  0  0  0  0  0  0
  160.4750  213.2640  148.5790 C   0  0  1  0  0  3  0  0  0  0  0  0
  161.5390  208.8230  149.8320 C   0  0  1  0  0  3  0  0  0  0  0  0
  160.9250  214.0330  150.7780 C   0  0  2  0  0  3  0  0  0  0  0  0
  158.3780  211.2490  153.1940 C   0  0  2  0  0  3  0  0  0  0  0  0
  159.3630  212.4260  153.2330 C   0  0  2  0  0  3  0  0  0  0  0  0
  162.1250  210.0940  149.7430 O   0  0  0  0  0  0  0  0  0  0  0  0
  161.1650  210.8840  149.1020 C   0  0  0  0  0  2  0  0  0  0  0  0
  159.2480  212.6490  148.3120 O   0  0  0  0  0  1  0  0  0  0  0  0
  155.9020  211.0880  153.7540 C   0  0  0  0  0  2  0  0  0  0  0  0
  155.4340  212.3160  152.9750 C   0  0  0  0  0  2  0  0  0  0  0  0
  157.4190  212.5750  155.1420 C   0  0  2  0  0  3  0  0  0  0  0  0
  156.8770  213.7920  154.3880 C   0  0  0  0  0  2  0  0  0  0  0  0
  155.4610  213.5450  153.8740 C   0  0  0  0  0  2  0  0  0  0  0  0
  157.3190  211.2850  154.3110 C   0  0  2  0  0  3  0  0  0  0  0  0
  156.7290  212.4130  156.4830 C   0  0  0  0  0  1  0  0  0  0  0  0
  163.3460  207.7660  148.7500 F   0  0  0  0  0  0  0  0  0  0  0  0
  161.9670  207.8870  148.6790 C   0  0  0  0  0  0  0  0  0  0  0  0
  161.6550  208.4630  147.4590 F   0  0  0  0  0  0  0  0  0  0  0  0
  161.3200  206.4850  148.7940 C   0  0  1  0  0  3  0  0  0  0  0  0
  160.0020  206.5780  149.2500 O   0  0  0  0  0  1  0  0  0  0  0  0
  161.4160  205.5910  147.5260 C   0  0  2  0  0  0  0  0  0  0  0  0
  162.6250  205.8500  146.8730 O   0  0  0  0  0  1  0  0  0  0  0  0
  160.7680  206.1960  145.2700 O   0  0  0  0  0  1  0  0  0  0  0  0
  160.2770  205.8990  146.5440 C   0  0  0  0  0  2  0  0  0  0  0  0
  161.3830  204.0910  147.9100 C   0  0  2  0  0  3  0  0  0  0  0  0
  160.8440  203.2040  146.7790 C   0  0  2  0  0  3  0  0  0  0  0  0
  160.2450  202.0490  147.2900 O   0  0  0  0  0  1  0  0  0  0  0  0
  161.9610  202.8190  145.8300 C   0  0  0  0  0  1  0  0  0  0  0  0
  160.6410  203.8880  149.0860 O   0  0  0  0  0  0  0  0  0  0  0  0
  161.7790  204.3500  151.0080 O   0  0  0  0  0  1  0  0  0  0  0  0
  161.5510  203.3900  150.0220 C   0  0  1  0  0  3  0  0  0  0  0  0
  160.4070  202.2070  151.9050 O   0  0  0  0  0  1  0  0  0  0  0  0
  161.0070  202.1510  150.6530 C   0  0  0  0  0  0  0  0  0  0  0  0
  161.1380  201.0430  150.0680 O   0  0  0  0  0  0  0  0  0  0  0  0
  159.5240  212.9230  154.5350 O   0  0  0  0  0  0  0  0  0  0  0  0
  163.6950  210.3570  157.0280 C   0  0  0  0  0  2  0  0  0  0  0  0
  161.1670  211.1940  154.4870 C   0  0  0  0  0  3  0  0  0  0  0  0
  162.5180  209.4050  157.2600 C   0  0  1  0  0  3  0  0  0  0  0  0
  162.3230  210.7140  156.5160 C   0  0  1  0  0  0  0  0  0  0  0  0
  160.5490  212.3780  156.6170 C   0  0  0  0  0  3  0  0  0  0  0  0
  161.6060  211.8220  157.2240 C   0  0  0  0  0  3  0  0  0  0  0  0
  162.6050  208.3300  156.3730 O   0  0  0  0  0  1  0  0  0  0  0  0
  162.1840  210.6540  155.0740 N   0  0  0  0  0  0  0  0  0  0  0  0
  160.0630  211.8680  155.2800 C   0  0  1  0  0  3  0  0  0  0  0  0
  1  7  1  0  0  0  0
  2  9  1  0  0  0  0
  2 10  2  0  0  0  0
  3 11  2  0  0  0  0
  6 18  1  1  0  0  0
  6  8  1  0  0  0  0
  7 16  1  0  0  0  0
  8 14  1  0  0  0  0
 11 10  1  0  0  0  0
 11  4  1  0  0  0  0
 12 19  1  1  0  0  0
 12  6  1  0  0  0  0
 12  5  1  0  0  0  0
 13 28  1  6  0  0  0
 13  2  1  0  0  0  0
 14  5  1  6  0  0  0
 14  1  1  0  0  0  0
 15 16  1  0  0  0  0
 15  4  1  1  0  0  0
 15 25  1  0  0  0  0
 16 46  1  1  0  0  0
 17 13  1  0  0  0  0
 18 17  1  0  0  0  0
 21 20  1  0  0  0  0
 21 24  1  0  0  0  0
 22 26  1  1  0  0  0
 23 22  1  0  0  0  0
 24 23  1  0  0  0  0
 25 20  1  6  0  0  0
 25 22  1  0  0  0  0
 28 27  1  0  0  0  0
 28 30  1  0  0  0  0
 29 28  1  0  0  0  0
 30 31  1  6  0  0  0
 32 33  1  6  0  0  0
 32 36  1  0  0  0  0
 32 30  1  0  0  0  0
 34 35  1  0  0  0  0
 35 32  1  0  0  0  0
 36 40  1  1  0  0  0
 37 39  1  6  0  0  0
 37 38  1  0  0  0  0
 37 36  1  0  0  0  0
 40 42  1  0  0  0  0
 42 44  1  0  0  0  0
 42 41  1  1  0  0  0
 44 43  1  0  0  0  0
 45 44  2  0  0  0  0
 47 49  1  0  0  0  0
 48 54  2  0  0  0  0
 48 55  1  0  0  0  0
 49 53  1  6  0  0  0
 50 47  1  1  0  0  0
 50 52  1  0  0  0  0
 50 49  1  0  0  0  0
 51 52  2  0  0  0  0
 54 50  1  0  0  0  0
 55 46  1  6  0  0  0
 55 51  1  0  0  0  0
M  END
>  <MODEL>
4

>  <REMARK>
 VINA RESULT:       1.7      2.230      5.409
  Name = 
  12 active torsions:
  status: ('A' for Active; 'I' for Inactive)
    1  A    between atoms: C_1  and  C_53
    2  A    between atoms: C_6  and  C_14
    3  A    between atoms: C_6  and  C_20
    4  A    between atoms: C_6  and  C_53
    5  A    between atoms: C_8  and  C_20
    6  A    between atoms: C_8  and  C_43
    7  A    between atoms: C_11  and  C_29
    8  A    between atoms: C_11  and  O_38
    9  A    between atoms: C_26  and  C_45
   10  A    between atoms: O_33  and  C_49
   11  A    between atoms: O_33  and  C_52
   12  A    between atoms: O_38  and  C_53
                            x       y       z     vdW  Elec       q    Type
                         _______ _______ _______ _____ _____    ______ ____

>  <TORSDO>
F 12

$$$$
=
 OpenBabel11062408543D

 55 59  0  0  1  0  0  0  0  0999 V2000
  160.0160  214.4490  152.0800 C   0  0  0  0  0  2  0  0  0  0  0  0
  161.5770  208.2470  151.3780 C   0  0  0  0  0  0  0  0  0  0  0  0
  159.0510  209.7230  151.1780 O   0  0  0  0  0  0  0  0  0  0  0  0
  159.0920  210.0600  153.4530 O   0  0  0  0  0  0  0  0  0  0  0  0
  160.0570  214.3730  149.5710 C   0  0  0  0  0  2  0  0  0  0  0  0
  161.2160  212.3090  149.4800 C   0  0  2  0  0  3  0  0  0  0  0  0
  158.8510  213.5300  152.4210 C   0  0  0  0  0  2  0  0  0  0  0  0
  161.0580  212.6270  150.8360 O   0  0  0  0  0  0  0  0  0  0  0  0
  162.6520  207.4100  151.6660 O   0  0  0  0  0  1  0  0  0  0  0  0
  160.7690  208.5970  152.3850 C   0  0  0  0  0  3  0  0  0  0  0  0
  159.5980  209.4820  152.2890 C   0  0  0  0  0  0  0  0  0  0  0  0
  160.2740  213.1930  148.6740 C   0  0  1  0  0  3  0  0  0  0  0  0
  161.3930  208.7810  149.9780 C   0  0  1  0  0  3  0  0  0  0  0  0
  160.7940  214.0060  150.8410 C   0  0  2  0  0  3  0  0  0  0  0  0
  158.3370  211.2650  153.3950 C   0  0  2  0  0  3  0  0  0  0  0  0
  159.3190  212.4450  153.3780 C   0  0  2  0  0  3  0  0  0  0  0  0
  161.9720  210.0510  149.8450 O   0  0  0  0  0  0  0  0  0  0  0  0
  160.9890  210.8250  149.2210 C   0  0  0  0  0  2  0  0  0  0  0  0
  159.0410  212.5700  148.4600 O   0  0  0  0  0  1  0  0  0  0  0  0
  155.9220  210.8630  154.0880 C   0  0  0  0  0  2  0  0  0  0  0  0
  155.2710  211.8960  153.1710 C   0  0  0  0  0  2  0  0  0  0  0  0
  157.2620  212.7180  155.1860 C   0  0  2  0  0  3  0  0  0  0  0  0
  156.5390  213.7340  154.2980 C   0  0  0  0  0  2  0  0  0  0  0  0
  155.1560  213.2330  153.8910 C   0  0  0  0  0  2  0  0  0  0  0  0
  157.3160  211.3200  154.5440 C   0  0  2  0  0  3  0  0  0  0  0  0
  156.6400  212.6590  156.5680 C   0  0  0  0  0  1  0  0  0  0  0  0
  163.1690  207.7330  148.8370 F   0  0  0  0  0  0  0  0  0  0  0  0
  161.7860  207.8230  148.8300 C   0  0  0  0  0  0  0  0  0  0  0  0
  161.4030  208.3590  147.6130 F   0  0  0  0  0  0  0  0  0  0  0  0
  161.1770  206.4110  149.0140 C   0  0  1  0  0  3  0  0  0  0  0  0
  159.8140  206.4890  149.3130 O   0  0  0  0  0  1  0  0  0  0  0  0
  161.4440  205.4060  147.8600 C   0  0  2  0  0  0  0  0  0  0  0  0
  162.8240  205.2460  147.7000 O   0  0  0  0  0  1  0  0  0  0  0  0
  161.3590  205.1870  145.4460 O   0  0  0  0  0  1  0  0  0  0  0  0
  160.8750  205.9240  146.5310 C   0  0  0  0  0  2  0  0  0  0  0  0
  160.8300  204.0220  148.1860 C   0  0  2  0  0  3  0  0  0  0  0  0
  160.4430  203.8810  149.6650 C   0  0  2  0  0  3  0  0  0  0  0  0
  161.4980  204.2640  150.4980 O   0  0  0  0  0  1  0  0  0  0  0  0
  160.0470  202.4510  149.9730 C   0  0  0  0  0  1  0  0  0  0  0  0
  161.6980  202.9840  147.8070 O   0  0  0  0  0  0  0  0  0  0  0  0
  161.3180  202.5400  145.6020 O   0  0  0  0  0  1  0  0  0  0  0  0
  160.9720  202.1970  146.9090 C   0  0  1  0  0  3  0  0  0  0  0  0
  161.6010  200.2990  148.4100 O   0  0  0  0  0  1  0  0  0  0  0  0
  161.2720  200.7530  147.1380 C   0  0  0  0  0  0  0  0  0  0  0  0
  161.2760  199.9530  146.1650 O   0  0  0  0  0  0  0  0  0  0  0  0
  159.5210  212.9690  154.6640 O   0  0  0  0  0  0  0  0  0  0  0  0
  163.8720  210.4450  156.8790 C   0  0  0  0  0  2  0  0  0  0  0  0
  161.1310  211.2110  154.5440 C   0  0  0  0  0  3  0  0  0  0  0  0
  162.7090  209.5250  157.2610 C   0  0  1  0  0  3  0  0  0  0  0  0
  162.4620  210.8020  156.4790 C   0  0  1  0  0  0  0  0  0  0  0  0
  160.7270  212.5000  156.6660 C   0  0  0  0  0  3  0  0  0  0  0  0
  161.8280  211.9530  157.1980 C   0  0  0  0  0  3  0  0  0  0  0  0
  162.7000  208.4100  156.4200 O   0  0  0  0  0  1  0  0  0  0  0  0
  162.1900  210.6810  155.0600 N   0  0  0  0  0  0  0  0  0  0  0  0
  160.1130  211.9390  155.4030 C   0  0  1  0  0  3  0  0  0  0  0  0
  1  7  1  0  0  0  0
  2  9  1  0  0  0  0
  2 10  2  0  0  0  0
  3 11  2  0  0  0  0
  6 18  1  1  0  0  0
  6  8  1  0  0  0  0
  7 16  1  0  0  0  0
  8 14  1  0  0  0  0
 11 10  1  0  0  0  0
 11  4  1  0  0  0  0
 12 19  1  1  0  0  0
 12  6  1  0  0  0  0
 12  5  1  0  0  0  0
 13 28  1  6  0  0  0
 13  2  1  0  0  0  0
 14  5  1  6  0  0  0
 14  1  1  0  0  0  0
 15  4  1  1  0  0  0
 15 25  1  0  0  0  0
 16 15  1  0  0  0  0
 16 46  1  1  0  0  0
 17 13  1  0  0  0  0
 18 17  1  0  0  0  0
 21 24  1  0  0  0  0
 21 20  1  0  0  0  0
 22 26  1  1  0  0  0
 23 22  1  0  0  0  0
 24 23  1  0  0  0  0
 25 20  1  6  0  0  0
 25 22  1  0  0  0  0
 28 27  1  0  0  0  0
 28 30  1  0  0  0  0
 29 28  1  0  0  0  0
 30 31  1  6  0  0  0
 32 33  1  6  0  0  0
 32 36  1  0  0  0  0
 32 30  1  0  0  0  0
 34 35  1  0  0  0  0
 35 32  1  0  0  0  0
 36 40  1  1  0  0  0
 36 37  1  0  0  0  0
 37 39  1  6  0  0  0
 37 38  1  0  0  0  0
 42 41  1  6  0  0  0
 42 44  1  0  0  0  0
 42 40  1  0  0  0  0
 44 43  1  0  0  0  0
 45 44  2  0  0  0  0
 47 49  1  0  0  0  0
 48 54  2  0  0  0  0
 48 55  1  0  0  0  0
 49 53  1  6  0  0  0
 50 47  1  6  0  0  0
 50 52  1  0  0  0  0
 50 49  1  0  0  0  0
 51 52  2  0  0  0  0
 54 50  1  0  0  0  0
 55 46  1  6  0  0  0
 55 51  1  0  0  0  0
M  END
>  <MODEL>
5

>  <REMARK>
 VINA RESULT:       1.7      2.245      5.599
  Name = 
  12 active torsions:
  status: ('A' for Active; 'I' for Inactive)
    1  A    between atoms: C_1  and  C_53
    2  A    between atoms: C_6  and  C_14
    3  A    between atoms: C_6  and  C_20
    4  A    between atoms: C_6  and  C_53
    5  A    between atoms: C_8  and  C_20
    6  A    between atoms: C_8  and  C_43
    7  A    between atoms: C_11  and  C_29
    8  A    between atoms: C_11  and  O_38
    9  A    between atoms: C_26  and  C_45
   10  A    between atoms: O_33  and  C_49
   11  A    between atoms: O_33  and  C_52
   12  A    between atoms: O_38  and  C_53
                            x       y       z     vdW  Elec       q    Type
                         _______ _______ _______ _____ _____    ______ ____

>  <TORSDO>
F 12

$$$$
=
 OpenBabel11062408543D

 55 59  0  0  1  0  0  0  0  0999 V2000
  160.7090  209.3590  152.8690 C   0  0  0  0  0  2  0  0  0  0  0  0
  160.7780  207.0330  146.8700 C   0  0  0  0  0  0  0  0  0  0  0  0
  162.7430  208.4880  148.4880 O   0  0  0  0  0  0  0  0  0  0  0  0
  161.4340  210.3730  148.3460 O   0  0  0  0  0  0  0  0  0  0  0  0
  162.0350  207.2730  153.3100 C   0  0  0  0  0  2  0  0  0  0  0  0
  161.4520  206.2590  151.2500 C   0  0  2  0  0  3  0  0  0  0  0  0
  161.6370  210.1570  151.9630 C   0  0  0  0  0  2  0  0  0  0  0  0
  160.8040  207.5020  151.2890 O   0  0  0  0  0  0  0  0  0  0  0  0
  159.8660  206.5500  145.9360 O   0  0  0  0  0  1  0  0  0  0  0  0
  160.8500  208.3570  147.0480 C   0  0  0  0  0  3  0  0  0  0  0  0
  161.7320  209.0570  147.9950 C   0  0  0  0  0  0  0  0  0  0  0  0
  162.5250  206.2510  152.3300 C   0  0  1  0  0  3  0  0  0  0  0  0
  161.5980  206.0670  147.6900 C   0  0  1  0  0  3  0  0  0  0  0  0
  160.8010  207.8490  152.6500 C   0  0  2  0  0  3  0  0  0  0  0  0
  161.8990  210.9170  149.5760 C   0  0  2  0  0  3  0  0  0  0  0  0
  160.9080  210.5240  150.6800 C   0  0  2  0  0  3  0  0  0  0  0  0
  160.9880  205.8150  148.9280 O   0  0  0  0  0  0  0  0  0  0  0  0
  162.0140  205.9630  149.8650 C   0  0  0  0  0  2  0  0  0  0  0  0
  163.7600  206.6740  151.8310 O   0  0  0  0  0  1  0  0  0  0  0  0
  160.7880  213.1940  149.3390 C   0  0  0  0  0  2  0  0  0  0  0  0
  160.1220  212.9590  147.9850 C   0  0  0  0  0  2  0  0  0  0  0  0
  163.0530  212.7740  148.2720 C   0  0  2  0  0  3  0  0  0  0  0  0
  162.3580  212.6120  146.9170 C   0  0  0  0  0  2  0  0  0  0  0  0
  161.0510  213.4000  146.8630 C   0  0  0  0  0  2  0  0  0  0  0  0
  162.1190  212.4350  149.4480 C   0  0  2  0  0  3  0  0  0  0  0  0
  163.6360  214.1660  148.4230 C   0  0  0  0  0  1  0  0  0  0  0  0
  163.3910  204.6080  147.2310 F   0  0  0  0  0  0  0  0  0  0  0  0
  162.0400  204.7720  146.9700 C   0  0  0  0  0  0  0  0  0  0  0  0
  161.8890  204.9160  145.6000 F   0  0  0  0  0  0  0  0  0  0  0  0
  161.2630  203.5310  147.4700 C   0  0  1  0  0  3  0  0  0  0  0  0
  160.1500  203.9080  148.2280 O   0  0  0  0  0  1  0  0  0  0  0  0
  160.8770  202.4920  146.3810 C   0  0  2  0  0  0  0  0  0  0  0  0
  161.8610  202.4830  145.3880 O   0  0  0  0  0  1  0  0  0  0  0  0
  159.7000  203.0860  144.3470 O   0  0  0  0  0  1  0  0  0  0  0  0
  159.5420  202.8560  145.7160 C   0  0  0  0  0  2  0  0  0  0  0  0
  160.7870  201.0700  146.9880 C   0  0  2  0  0  3  0  0  0  0  0  0
  161.1630  201.0370  148.4760 C   0  0  2  0  0  3  0  0  0  0  0  0
  161.7780  199.8280  148.8120 O   0  0  0  0  0  1  0  0  0  0  0  0
  159.9330  201.2370  149.3370 C   0  0  0  0  0  1  0  0  0  0  0  0
  161.5780  200.1620  146.2640 O   0  0  0  0  0  0  0  0  0  0  0  0
  160.1120  199.8760  144.5410 O   0  0  0  0  0  1  0  0  0  0  0  0
  160.6800  199.2760  145.6640 C   0  0  1  0  0  3  0  0  0  0  0  0
  162.2260  197.3720  146.1500 O   0  0  0  0  0  1  0  0  0  0  0  0
  161.3900  198.0290  145.2550 C   0  0  0  0  0  0  0  0  0  0  0  0
  161.2710  197.6000  144.0770 O   0  0  0  0  0  0  0  0  0  0  0  0
  159.9670  211.5370  150.9160 O   0  0  0  0  0  0  0  0  0  0  0  0
  157.6850  213.5470  155.4930 C   0  0  0  0  0  2  0  0  0  0  0  0
  160.0590  213.1000  152.7170 C   0  0  0  0  0  3  0  0  0  0  0  0
  158.8170  212.6690  156.0310 C   0  0  1  0  0  3  0  0  0  0  0  0
  158.5580  212.7730  154.5390 C   0  0  1  0  0  0  0  0  0  0  0  0
  158.5520  211.0880  152.7810 C   0  0  0  0  0  3  0  0  0  0  0  0
  157.9310  211.5980  153.8530 C   0  0  0  0  0  3  0  0  0  0  0  0
  159.8920  213.4750  156.4120 O   0  0  0  0  0  1  0  0  0  0  0  0
  159.4630  213.5890  153.7530 N   0  0  0  0  0  0  0  0  0  0  0  0
  159.8730  211.6510  152.3070 C   0  0  1  0  0  3  0  0  0  0  0  0
  2 10  2  0  0  0  0
  2 13  1  0  0  0  0
  6 18  1  6  0  0  0
  6  8  1  0  0  0  0
  6 12  1  0  0  0  0
  7  1  1  0  0  0  0
  8 14  1  0  0  0  0
  9  2  1  0  0  0  0
 10 11  1  0  0  0  0
 11  4  1  0  0  0  0
 11  3  2  0  0  0  0
 12 19  1  6  0  0  0
 12  5  1  0  0  0  0
 13 28  1  6  0  0  0
 13 17  1  0  0  0  0
 14  1  1  6  0  0  0
 14  5  1  0  0  0  0
 15  4  1  6  0  0  0
 15 16  1  0  0  0  0
 16 46  1  1  0  0  0
 16  7  1  0  0  0  0
 17 18  1  0  0  0  0
 21 20  1  0  0  0  0
 22 26  1  1  0  0  0
 22 25  1  0  0  0  0
 23 22  1  0  0  0  0
 24 23  1  0  0  0  0
 24 21  1  0  0  0  0
 25 20  1  6  0  0  0
 25 15  1  0  0  0  0
 28 27  1  0  0  0  0
 28 30  1  0  0  0  0
 29 28  1  0  0  0  0
 30 31  1  6  0  0  0
 32 33  1  6  0  0  0
 32 36  1  0  0  0  0
 32 30  1  0  0  0  0
 34 35  1  0  0  0  0
 35 32  1  0  0  0  0
 36 40  1  6  0  0  0
 36 37  1  0  0  0  0
 37 38  1  0  0  0  0
 37 39  1  1  0  0  0
 42 41  1  6  0  0  0
 42 40  1  0  0  0  0
 44 42  1  0  0  0  0
 44 43  1  0  0  0  0
 45 44  2  0  0  0  0
 47 49  1  0  0  0  0
 48 54  2  0  0  0  0
 49 53  1  6  0  0  0
 50 52  1  6  0  0  0
 50 47  1  0  0  0  0
 50 49  1  0  0  0  0
 51 52  2  0  0  0  0
 54 50  1  0  0  0  0
 55 46  1  6  0  0  0
 55 48  1  0  0  0  0
 55 51  1  0  0  0  0
M  END
>  <MODEL>
6

>  <REMARK>
 VINA RESULT:       2.4      1.323      2.238
  Name = 
  12 active torsions:
  status: ('A' for Active; 'I' for Inactive)
    1  A    between atoms: C_1  and  C_53
    2  A    between atoms: C_6  and  C_14
    3  A    between atoms: C_6  and  C_20
    4  A    between atoms: C_6  and  C_53
    5  A    between atoms: C_8  and  C_20
    6  A    between atoms: C_8  and  C_43
    7  A    between atoms: C_11  and  C_29
    8  A    between atoms: C_11  and  O_38
    9  A    between atoms: C_26  and  C_45
   10  A    between atoms: O_33  and  C_49
   11  A    between atoms: O_33  and  C_52
   12  A    between atoms: O_38  and  C_53
                            x       y       z     vdW  Elec       q    Type
                         _______ _______ _______ _____ _____    ______ ____

>  <TORSDO>
F 12

$$$$
=
 OpenBabel11062408543D

 55 59  0  0  1  0  0  0  0  0999 V2000
  160.3710  210.2740  154.0100 C   0  0  0  0  0  2  0  0  0  0  0  0
  160.3590  206.1830  149.0440 C   0  0  0  0  0  0  0  0  0  0  0  0
  162.4550  207.7710  150.3400 O   0  0  0  0  0  0  0  0  0  0  0  0
  161.4990  209.6850  149.4950 O   0  0  0  0  0  0  0  0  0  0  0  0
  161.2930  208.2650  155.2000 C   0  0  0  0  0  2  0  0  0  0  0  0
  160.6550  206.7470  153.4970 C   0  0  2  0  0  3  0  0  0  0  0  0
  161.4690  210.5990  153.0070 C   0  0  0  0  0  2  0  0  0  0  0  0
  160.2290  208.0190  153.0890 O   0  0  0  0  0  0  0  0  0  0  0  0
  159.4280  205.5680  148.2110 O   0  0  0  0  0  1  0  0  0  0  0  0
  160.6480  207.4700  148.8180 C   0  0  0  0  0  3  0  0  0  0  0  0
  161.5850  208.2970  149.5940 C   0  0  0  0  0  0  0  0  0  0  0  0
  161.6510  206.9250  154.6350 C   0  0  1  0  0  3  0  0  0  0  0  0
  160.9550  205.4180  150.2000 C   0  0  1  0  0  3  0  0  0  0  0  0
  160.2130  208.7760  154.2720 C   0  0  2  0  0  3  0  0  0  0  0  0
  161.9850  210.5170  150.5430 C   0  0  2  0  0  3  0  0  0  0  0  0
  160.8830  210.6430  151.6050 C   0  0  2  0  0  3  0  0  0  0  0  0
  160.2460  205.6640  151.3850 O   0  0  0  0  0  0  0  0  0  0  0  0
  161.2310  205.9490  152.3350 C   0  0  0  0  0  2  0  0  0  0  0  0
  162.9660  206.9830  154.1630 O   0  0  0  0  0  1  0  0  0  0  0  0
  161.3480  212.9160  149.9850 C   0  0  0  0  0  2  0  0  0  0  0  0
  160.2950  212.6080  148.9230 C   0  0  0  0  0  2  0  0  0  0  0  0
  163.0830  211.7090  148.5810 C   0  0  2  0  0  3  0  0  0  0  0  0
  162.0180  211.4780  147.5060 C   0  0  0  0  0  2  0  0  0  0  0  0
  160.9420  212.5600  147.5460 C   0  0  0  0  0  2  0  0  0  0  0  0
  162.4690  211.8660  149.9830 C   0  0  2  0  0  3  0  0  0  0  0  0
  163.9600  212.8970  148.2350 C   0  0  0  0  0  1  0  0  0  0  0  0
  160.1540  203.2280  150.5440 F   0  0  0  0  0  0  0  0  0  0  0  0
  161.2070  203.9120  149.9570 C   0  0  0  0  0  0  0  0  0  0  0  0
  162.3730  203.5170  150.5920 F   0  0  0  0  0  0  0  0  0  0  0  0
  161.2700  203.5660  148.4490 C   0  0  1  0  0  3  0  0  0  0  0  0
  162.5560  203.7720  147.9420 O   0  0  0  0  0  1  0  0  0  0  0  0
  160.7270  202.1650  148.0540 C   0  0  2  0  0  0  0  0  0  0  0  0
  159.4880  201.9630  148.6720 O   0  0  0  0  0  1  0  0  0  0  0  0
  161.2870  200.5460  149.7700 O   0  0  0  0  0  1  0  0  0  0  0  0
  161.6720  201.0510  148.5250 C   0  0  0  0  0  2  0  0  0  0  0  0
  160.5270  202.0670  146.5220 C   0  0  2  0  0  3  0  0  0  0  0  0
  160.3880  200.6170  146.0360 C   0  0  2  0  0  3  0  0  0  0  0  0
  161.6030  199.9350  146.1370 O   0  0  0  0  0  1  0  0  0  0  0  0
  159.9060  200.5850  144.6000 C   0  0  0  0  0  1  0  0  0  0  0  0
  161.5680  202.7140  145.8360 O   0  0  0  0  0  0  0  0  0  0  0  0
  159.5750  203.6030  145.1730 O   0  0  0  0  0  1  0  0  0  0  0  0
  160.9430  203.5490  144.9060 C   0  0  1  0  0  3  0  0  0  0  0  0
  160.7260  206.0330  144.7170 O   0  0  0  0  0  0  0  0  0  0  0  0
  161.5180  204.9230  144.9860 C   0  0  0  0  0  0  0  0  0  0  0  0
  162.7410  205.0740  145.2510 O   0  0  0  0  0  1  0  0  0  0  0  0
  160.1190  211.8050  151.4220 O   0  0  0  0  0  0  0  0  0  0  0  0
  156.4200  214.2600  154.6610 C   0  0  0  0  0  2  0  0  0  0  0  0
  159.5850  213.5980  152.9030 C   0  0  0  0  0  3  0  0  0  0  0  0
  157.3260  213.5360  155.6610 C   0  0  1  0  0  3  0  0  0  0  0  0
  157.5720  213.4220  154.1680 C   0  0  1  0  0  0  0  0  0  0  0  0
  158.1750  211.5200  152.7720 C   0  0  0  0  0  3  0  0  0  0  0  0
  157.2260  212.1280  153.4970 C   0  0  0  0  0  3  0  0  0  0  0  0
  158.2010  214.4530  156.2460 O   0  0  0  0  0  1  0  0  0  0  0  0
  158.6720  214.1820  153.6060 N   0  0  0  0  0  0  0  0  0  0  0  0
  159.5690  212.0980  152.6740 C   0  0  1  0  0  3  0  0  0  0  0  0
  2 13  1  0  0  0  0
  4 11  1  0  0  0  0
  6 18  1  6  0  0  0
  6 12  1  0  0  0  0
  7  1  1  0  0  0  0
  8  6  1  0  0  0  0
  8 14  1  0  0  0  0
  9  2  1  0  0  0  0
 10  2  2  0  0  0  0
 10 11  1  0  0  0  0
 11  3  2  0  0  0  0
 12 19  1  6  0  0  0
 12  5  1  0  0  0  0
 13 28  1  6  0  0  0
 13 17  1  0  0  0  0
 14  1  1  6  0  0  0
 14  5  1  0  0  0  0
 15  4  1  6  0  0  0
 15 16  1  0  0  0  0
 16 46  1  6  0  0  0
 16  7  1  0  0  0  0
 17 18  1  0  0  0  0
 21 20  1  0  0  0  0
 22 26  1  6  0  0  0
 22 25  1  0  0  0  0
 23 24  1  0  0  0  0
 23 22  1  0  0  0  0
 24 21  1  0  0  0  0
 25 20  1  6  0  0  0
 25 15  1  0  0  0  0
 28 27  1  0  0  0  0
 28 29  1  0  0  0  0
 30 31  1  1  0  0  0
 30 28  1  0  0  0  0
 32 30  1  0  0  0  0
 32 35  1  0  0  0  0
 32 33  1  1  0  0  0
 35 34  1  0  0  0  0
 36 40  1  6  0  0  0
 36 32  1  0  0  0  0
 37 39  1  6  0  0  0
 37 38  1  0  0  0  0
 37 36  1  0  0  0  0
 42 44  1  0  0  0  0
 42 41  1  1  0  0  0
 42 40  1  0  0  0  0
 43 44  2  0  0  0  0
 44 45  1  0  0  0  0
 47 49  1  0  0  0  0
 48 54  2  0  0  0  0
 49 53  1  1  0  0  0
 50 52  1  6  0  0  0
 50 47  1  0  0  0  0
 50 49  1  0  0  0  0
 51 52  2  0  0  0  0
 54 50  1  0  0  0  0
 55 46  1  6  0  0  0
 55 51  1  0  0  0  0
 55 48  1  0  0  0  0
M  END
>  <MODEL>
7

>  <REMARK>
 VINA RESULT:       2.8      1.153      2.563
  Name = 
  12 active torsions:
  status: ('A' for Active; 'I' for Inactive)
    1  A    between atoms: C_1  and  C_53
    2  A    between atoms: C_6  and  C_14
    3  A    between atoms: C_6  and  C_20
    4  A    between atoms: C_6  and  C_53
    5  A    between atoms: C_8  and  C_20
    6  A    between atoms: C_8  and  C_43
    7  A    between atoms: C_11  and  C_29
    8  A    between atoms: C_11  and  O_38
    9  A    between atoms: C_26  and  C_45
   10  A    between atoms: O_33  and  C_49
   11  A    between atoms: O_33  and  C_52
   12  A    between atoms: O_38  and  C_53
                            x       y       z     vdW  Elec       q    Type
                         _______ _______ _______ _____ _____    ______ ____

>  <TORSDO>
F 12

$$$$
