=
 OpenBabel11052422023D

 30 33  0  0  1  0  0  0  0  0999 V2000
  159.2950  211.8260  155.6100 C   0  0  0  0  0  0  0  0  0  0  0  0
  157.5440  213.0790  154.4990 C   0  0  0  0  0  3  0  0  0  0  0  0
  159.5530  212.9350  150.7770 O   0  0  0  0  0  0  0  0  0  0  0  0
  159.6180  209.6960  152.9990 C   0  0  0  0  0  2  0  0  0  0  0  0
  160.7070  211.5970  155.6640 N   0  0  0  0  0  0  0  0  0  0  0  0
  160.6560  208.0950  155.9960 C   0  0  1  0  0  3  0  0  0  0  0  0
  160.4000  209.4170  156.4430 O   0  0  0  0  0  0  0  0  0  0  0  0
  162.7070  210.3290  156.0840 C   0  0  0  0  0  1  0  0  0  0  0  0
  162.0760  210.1470  151.2200 C   0  0  2  0  0  3  0  0  0  0  0  0
  160.5890  212.0490  150.5170 C   0  0  0  0  0  0  0  0  0  0  0  0
  161.2250  210.4830  156.0790 C   0  0  0  0  0  0  0  0  0  0  0  0
  160.5220  208.7280  153.6190 N   0  0  0  0  0  0  0  0  0  0  0  0
  156.8600  213.6270  153.2860 C   0  0  0  0  0  2  0  0  0  0  0  0
  162.6860  209.5320  152.4830 C   0  0  0  0  0  2  0  0  0  0  0  0
  160.1060  207.1110  157.0070 C   0  0  0  0  0  1  0  0  0  0  0  0
  158.5790  211.5660  156.6170 O   0  0  0  0  0  0  0  0  0  0  0  0
  158.9320  213.0070  152.0250 C   0  0  0  0  0  0  0  0  0  0  0  0
  157.8930  214.0830  152.2590 C   0  0  1  0  0  3  0  0  0  0  0  0
  159.9640  207.8660  154.6550 C   0  0  0  0  0  2  0  0  0  0  0  0
  158.6780  212.3740  154.3870 C   0  0  0  0  0  0  0  0  0  0  0  0
  160.2890  211.0540  152.8100 C   0  0  1  0  0  3  0  0  0  0  0  0
  161.1900  212.1160  149.4120 O   0  0  0  0  0  0  0  0  0  0  0  0
  160.9750  211.0860  151.5080 N   0  0  0  0  0  0  0  0  0  0  0  0
  162.3370  207.3080  153.2300 O   0  0  0  0  0  0  0  0  0  0  0  0
  157.1800  214.4530  150.9710 C   0  0  0  0  0  1  0  0  0  0  0  0
  159.3000  212.1870  153.0360 C   0  0  0  0  0  0  0  0  0  0  0  0
  161.8400  208.4580  153.1030 C   0  0  0  0  0  0  0  0  0  0  0  0
  161.7230  209.0730  150.1780 C   0  0  2  0  0  3  0  0  0  0  0  0
  162.4940  207.7950  150.4350 C   0  0  0  0  0  1  0  0  0  0  0  0
  161.9480  209.5150  148.8720 O   0  0  0  0  0  1  0  0  0  0  0  0
  1  5  1  0  0  0  0
  1 16  2  0  0  0  0
  3 17  1  0  0  0  0
  4 12  1  0  0  0  0
  5 11  2  0  0  0  0
  6  7  1  0  0  0  0
  6 15  1  1  0  0  0
  9 28  1  6  0  0  0
  9 23  1  0  0  0  0
  9 14  1  0  0  0  0
 10  3  1  0  0  0  0
 10 23  1  0  0  0  0
 11  8  1  0  0  0  0
 11  7  1  0  0  0  0
 12 19  1  0  0  0  0
 13  2  1  0  0  0  0
 14 27  1  0  0  0  0
 17 18  1  0  0  0  0
 17 26  2  0  0  0  0
 18 25  1  6  0  0  0
 18 13  1  0  0  0  0
 19  6  1  0  0  0  0
 20  2  2  0  0  0  0
 20  1  1  0  0  0  0
 21  4  1  6  0  0  0
 21 26  1  0  0  0  0
 22 10  2  0  0  0  0
 23 21  1  0  0  0  0
 26 20  1  0  0  0  0
 27 24  2  0  0  0  0
 27 12  1  0  0  0  0
 28 29  1  1  0  0  0
 30 28  1  0  0  0  0
M  END
>  <MODEL>
1

>  <REMARK>
 VINA RESULT:      -3.6      0.000      0.000
  Name = 
  1 active torsions:
  status: ('A' for Active; 'I' for Inactive)
    1  A    between atoms: C_7  and  C_10
                            x       y       z     vdW  Elec       q    Type
                         _______ _______ _______ _____ _____    ______ ____

>  <TORSDO>
F 1

$$$$
=
 OpenBabel11052422023D

 30 33  0  0  1  0  0  0  0  0999 V2000
  161.3160  210.2150  152.0040 C   0  0  0  0  0  0  0  0  0  0  0  0
  161.5650  211.8180  150.2040 C   0  0  0  0  0  3  0  0  0  0  0  0
  157.7820  213.5510  150.9790 O   0  0  0  0  0  0  0  0  0  0  0  0
  159.9830  212.5400  154.0720 C   0  0  0  0  0  2  0  0  0  0  0  0
  160.3790  209.3960  152.7100 N   0  0  0  0  0  0  0  0  0  0  0  0
  161.5360  209.9780  155.9810 C   0  0  1  0  0  3  0  0  0  0  0  0
  161.6630  209.4770  154.6600 O   0  0  0  0  0  0  0  0  0  0  0  0
  159.5150  208.1860  154.6010 C   0  0  0  0  0  1  0  0  0  0  0  0
  156.9470  212.3660  154.4770 C   0  0  2  0  0  3  0  0  0  0  0  0
  157.0920  213.3470  152.1650 C   0  0  0  0  0  0  0  0  0  0  0  0
  160.5530  209.0270  153.9410 C   0  0  0  0  0  0  0  0  0  0  0  0
  159.9660  211.7510  155.3040 N   0  0  0  0  0  0  0  0  0  0  0  0
  161.1550  213.0340  149.4330 C   0  0  0  0  0  2  0  0  0  0  0  0
  157.4610  211.1710  155.2850 C   0  0  0  0  0  2  0  0  0  0  0  0
  162.8330  209.7470  156.7280 C   0  0  0  0  0  1  0  0  0  0  0  0
  162.5420  209.9180  152.0150 O   0  0  0  0  0  0  0  0  0  0  0  0
  159.0060  212.9330  150.7150 C   0  0  0  0  0  0  0  0  0  0  0  0
  159.6330  213.1150  149.3490 C   0  0  1  0  0  3  0  0  0  0  0  0
  161.2530  211.4770  155.9340 C   0  0  0  0  0  2  0  0  0  0  0  0
  160.8500  211.4000  151.2570 C   0  0  0  0  0  0  0  0  0  0  0  0
  159.0210  211.9770  153.0300 C   0  0  1  0  0  3  0  0  0  0  0  0
  155.9380  213.8330  152.2940 O   0  0  0  0  0  0  0  0  0  0  0  0
  157.6880  212.5750  153.2180 N   0  0  0  0  0  0  0  0  0  0  0  0
  158.7660  211.3120  157.2610 O   0  0  0  0  0  0  0  0  0  0  0  0
  159.2430  214.4460  148.7340 C   0  0  0  0  0  1  0  0  0  0  0  0
  159.5900  212.1230  151.6280 C   0  0  0  0  0  0  0  0  0  0  0  0
  158.7490  211.4380  156.0080 C   0  0  0  0  0  0  0  0  0  0  0  0
  156.8250  213.6290  155.3440 C   0  0  2  0  0  3  0  0  0  0  0  0
  155.6210  214.4530  154.9360 C   0  0  0  0  0  1  0  0  0  0  0  0
  157.9800  214.4130  155.2960 O   0  0  0  0  0  1  0  0  0  0  0  0
  1 16  2  0  0  0  0
  1  5  1  0  0  0  0
  2 20  2  0  0  0  0
  3 10  1  0  0  0  0
  4 12  1  0  0  0  0
  5 11  2  0  0  0  0
  6 15  1  1  0  0  0
  7  6  1  0  0  0  0
  9 14  1  0  0  0  0
  9 28  1  1  0  0  0
 10 22  2  0  0  0  0
 10 23  1  0  0  0  0
 11  8  1  0  0  0  0
 11  7  1  0  0  0  0
 12 19  1  0  0  0  0
 12 27  1  0  0  0  0
 13  2  1  0  0  0  0
 14 27  1  0  0  0  0
 17  3  1  0  0  0  0
 17 26  2  0  0  0  0
 18 25  1  1  0  0  0
 18 13  1  0  0  0  0
 18 17  1  0  0  0  0
 19  6  1  0  0  0  0
 20 26  1  0  0  0  0
 20  1  1  0  0  0  0
 21 23  1  0  0  0  0
 21  4  1  1  0  0  0
 23  9  1  0  0  0  0
 26 21  1  0  0  0  0
 27 24  2  0  0  0  0
 28 29  1  6  0  0  0
 30 28  1  0  0  0  0
M  END
>  <MODEL>
2

>  <REMARK>
 VINA RESULT:      -3.1      1.848      5.042
  Name = 
  1 active torsions:
  status: ('A' for Active; 'I' for Inactive)
    1  A    between atoms: C_7  and  C_10
                            x       y       z     vdW  Elec       q    Type
                         _______ _______ _______ _____ _____    ______ ____

>  <TORSDO>
F 1

$$$$
=
 OpenBabel11052422023D

 30 33  0  0  1  0  0  0  0  0999 V2000
  161.3460  210.7700  149.9170 C   0  0  0  0  0  0  0  0  0  0  0  0
  161.5840  208.4100  150.4090 C   0  0  0  0  0  3  0  0  0  0  0  0
  160.8910  209.0150  154.5400 O   0  0  0  0  0  0  0  0  0  0  0  0
  158.7060  211.0810  152.0120 C   0  0  0  0  0  2  0  0  0  0  0  0
  161.5890  212.0920  150.4100 N   0  0  0  0  0  0  0  0  0  0  0  0
  158.5330  213.5670  149.4800 C   0  0  1  0  0  3  0  0  0  0  0  0
  159.7830  212.9550  149.2050 O   0  0  0  0  0  0  0  0  0  0  0  0
  161.1940  214.4530  150.6360 C   0  0  0  0  0  1  0  0  0  0  0  0
  159.2990  212.4470  154.6950 C   0  0  2  0  0  3  0  0  0  0  0  0
  160.3300  210.1800  155.0440 C   0  0  0  0  0  0  0  0  0  0  0  0
  160.8780  213.1170  150.0570 C   0  0  0  0  0  0  0  0  0  0  0  0
  158.3090  212.4450  151.6610 N   0  0  0  0  0  0  0  0  0  0  0  0
  161.4830  207.2170  151.3080 C   0  0  0  0  0  2  0  0  0  0  0  0
  159.3330  213.6180  153.7080 C   0  0  0  0  0  2  0  0  0  0  0  0
  157.8010  213.8110  148.1770 C   0  0  0  0  0  1  0  0  0  0  0  0
  161.2110  210.5790  148.6760 O   0  0  0  0  0  0  0  0  0  0  0  0
  161.1610  208.8480  153.1800 C   0  0  0  0  0  0  0  0  0  0  0  0
  161.8830  207.5960  152.7310 C   0  0  1  0  0  3  0  0  0  0  0  0
  157.6920  212.6410  150.3540 C   0  0  0  0  0  2  0  0  0  0  0  0
  161.2620  209.6320  150.8530 C   0  0  0  0  0  0  0  0  0  0  0  0
  160.0700  211.0500  152.6950 C   0  0  1  0  0  3  0  0  0  0  0  0
  160.2240  210.3200  156.2910 O   0  0  0  0  0  0  0  0  0  0  0  0
  159.8960  211.2140  154.1480 N   0  0  0  0  0  0  0  0  0  0  0  0
  157.4650  214.4530  152.5070 O   0  0  0  0  0  0  0  0  0  0  0  0
  161.5900  206.4270  153.6540 C   0  0  0  0  0  1  0  0  0  0  0  0
  160.8570  209.8150  152.2840 C   0  0  0  0  0  0  0  0  0  0  0  0
  158.3050  213.5220  152.6170 C   0  0  0  0  0  0  0  0  0  0  0  0
  157.8970  212.2480  155.2930 C   0  0  2  0  0  3  0  0  0  0  0  0
  157.9090  212.4780  156.7900 C   0  0  0  0  0  1  0  0  0  0  0  0
  157.3790  210.9830  155.0060 O   0  0  0  0  0  1  0  0  0  0  0  0
  1  5  1  0  0  0  0
  1 20  1  0  0  0  0
  2 20  2  0  0  0  0
  2 13  1  0  0  0  0
  3 10  1  0  0  0  0
  6 15  1  6  0  0  0
  6 19  1  0  0  0  0
  7  6  1  0  0  0  0
  7 11  1  0  0  0  0
  9 28  1  6  0  0  0
 10 22  2  0  0  0  0
 11  5  2  0  0  0  0
 11  8  1  0  0  0  0
 12  4  1  0  0  0  0
 12 27  1  0  0  0  0
 13 18  1  0  0  0  0
 14  9  1  0  0  0  0
 16  1  2  0  0  0  0
 17  3  1  0  0  0  0
 18 17  1  0  0  0  0
 18 25  1  1  0  0  0
 19 12  1  0  0  0  0
 20 26  1  0  0  0  0
 21  4  1  6  0  0  0
 21 23  1  0  0  0  0
 23  9  1  0  0  0  0
 23 10  1  0  0  0  0
 24 27  2  0  0  0  0
 26 21  1  0  0  0  0
 26 17  2  0  0  0  0
 27 14  1  0  0  0  0
 28 29  1  1  0  0  0
 30 28  1  0  0  0  0
M  END
>  <MODEL>
3

>  <REMARK>
 VINA RESULT:      -2.3      1.736      6.783
  Name = 
  1 active torsions:
  status: ('A' for Active; 'I' for Inactive)
    1  A    between atoms: C_7  and  C_10
                            x       y       z     vdW  Elec       q    Type
                         _______ _______ _______ _____ _____    ______ ____

>  <TORSDO>
F 1

$$$$
=
 OpenBabel11052422023D

 30 33  0  0  1  0  0  0  0  0999 V2000
  158.9820  210.8670  155.3670 C   0  0  0  0  0  0  0  0  0  0  0  0
  156.7900  211.8550  155.0710 C   0  0  0  0  0  3  0  0  0  0  0  0
  158.0260  214.0170  151.6490 O   0  0  0  0  0  0  0  0  0  0  0  0
  159.3430  210.3370  152.0430 C   0  0  0  0  0  2  0  0  0  0  0  0
  160.3890  211.0980  155.2410 N   0  0  0  0  0  0  0  0  0  0  0  0
  161.3070  207.9960  153.8570 C   0  0  1  0  0  3  0  0  0  0  0  0
  160.8070  208.8260  154.8930 O   0  0  0  0  0  0  0  0  0  0  0  0
  162.6900  210.4810  154.9120 C   0  0  0  0  0  1  0  0  0  0  0  0
  161.2200  212.2800  150.5900 C   0  0  2  0  0  3  0  0  0  0  0  0
  159.1870  213.7170  150.9500 C   0  0  0  0  0  0  0  0  0  0  0  0
  161.2450  210.1430  155.0480 C   0  0  0  0  0  0  0  0  0  0  0  0
  160.5670  209.5360  152.0820 N   0  0  0  0  0  0  0  0  0  0  0  0
  155.7710  212.6350  154.3000 C   0  0  0  0  0  2  0  0  0  0  0  0
  162.1950  211.3980  151.3750 C   0  0  0  0  0  2  0  0  0  0  0  0
  161.2300  206.5490  154.2960 C   0  0  0  0  0  1  0  0  0  0  0  0
  158.5610  209.9760  156.1560 O   0  0  0  0  0  0  0  0  0  0  0  0
  157.6560  213.3290  152.8060 C   0  0  0  0  0  0  0  0  0  0  0  0
  156.4380  213.7990  153.5720 C   0  0  1  0  0  3  0  0  0  0  0  0
  160.4560  208.1780  152.6030 C   0  0  0  0  0  2  0  0  0  0  0  0
  158.0250  211.6720  154.5840 C   0  0  0  0  0  0  0  0  0  0  0  0
  159.5940  211.7720  152.4980 C   0  0  1  0  0  3  0  0  0  0  0  0
  159.5310  214.4510  149.9870 O   0  0  0  0  0  0  0  0  0  0  0  0
  159.9890  212.5920  151.3410 N   0  0  0  0  0  0  0  0  0  0  0  0
  162.5790  209.0910  150.9800 O   0  0  0  0  0  0  0  0  0  0  0  0
  155.4230  214.4530  152.6530 C   0  0  0  0  0  1  0  0  0  0  0  0
  158.4070  212.3090  153.2830 C   0  0  0  0  0  0  0  0  0  0  0  0
  161.7880  209.9550  151.4420 C   0  0  0  0  0  0  0  0  0  0  0  0
  160.9650  211.7280  149.1780 C   0  0  2  0  0  3  0  0  0  0  0  0
  162.2610  211.3010  148.5200 C   0  0  0  0  0  1  0  0  0  0  0  0
  160.2970  212.6490  148.3670 O   0  0  0  0  0  1  0  0  0  0  0  0
  1 16  2  0  0  0  0
  3 17  1  0  0  0  0
  4 12  1  0  0  0  0
  5  1  1  0  0  0  0
  6 15  1  1  0  0  0
  6  7  1  0  0  0  0
  7 11  1  0  0  0  0
  8 11  1  0  0  0  0
  9 28  1  6  0  0  0
  9 23  1  0  0  0  0
  9 14  1  0  0  0  0
 10 23  1  0  0  0  0
 10  3  1  0  0  0  0
 11  5  2  0  0  0  0
 12 19  1  0  0  0  0
 13  2  1  0  0  0  0
 14 27  1  0  0  0  0
 17 26  2  0  0  0  0
 17 18  1  0  0  0  0
 18 25  1  6  0  0  0
 18 13  1  0  0  0  0
 19  6  1  0  0  0  0
 20  2  2  0  0  0  0
 20  1  1  0  0  0  0
 21  4  1  6  0  0  0
 21 26  1  0  0  0  0
 22 10  2  0  0  0  0
 23 21  1  0  0  0  0
 24 27  2  0  0  0  0
 26 20  1  0  0  0  0
 27 12  1  0  0  0  0
 28 29  1  6  0  0  0
 30 28  1  0  0  0  0
M  END
>  <MODEL>
4

>  <REMARK>
 VINA RESULT:      -2.0      1.589      2.128
  Name = 
  1 active torsions:
  status: ('A' for Active; 'I' for Inactive)
    1  A    between atoms: C_7  and  C_10
                            x       y       z     vdW  Elec       q    Type
                         _______ _______ _______ _____ _____    ______ ____

>  <TORSDO>
F 1

$$$$
=
 OpenBabel11052422023D

 30 33  0  0  1  0  0  0  0  0999 V2000
  161.0160  207.4420  148.0970 C   0  0  0  0  0  0  0  0  0  0  0  0
  161.9020  208.0380  150.2720 C   0  0  0  0  0  3  0  0  0  0  0  0
  160.8970  204.2700  151.9160 O   0  0  0  0  0  0  0  0  0  0  0  0
  162.3350  204.3280  148.2610 C   0  0  0  0  0  2  0  0  0  0  0  0
  159.9870  206.7120  147.4200 N   0  0  0  0  0  0  0  0  0  0  0  0
  161.9460  205.2950  144.8640 C   0  0  1  0  0  3  0  0  0  0  0  0
  161.3470  206.3830  145.5490 O   0  0  0  0  0  0  0  0  0  0  0  0
  159.0090  205.4800  145.6010 C   0  0  0  0  0  1  0  0  0  0  0  0
  160.3430  202.0780  148.8780 C   0  0  2  0  0  3  0  0  0  0  0  0
  160.5900  203.1670  151.1320 C   0  0  0  0  0  0  0  0  0  0  0  0
  160.1300  206.2420  146.2200 C   0  0  0  0  0  0  0  0  0  0  0  0
  162.0510  203.9000  146.8910 N   0  0  0  0  0  0  0  0  0  0  0  0
  162.3310  207.7210  151.6710 C   0  0  0  0  0  2  0  0  0  0  0  0
  160.0060  202.4350  147.4280 C   0  0  0  0  0  2  0  0  0  0  0  0
  162.7980  205.8280  143.7310 C   0  0  0  0  0  1  0  0  0  0  0  0
  161.5970  208.3970  147.5110 O   0  0  0  0  0  0  0  0  0  0  0  0
  161.1780  205.5210  151.3620 C   0  0  0  0  0  0  0  0  0  0  0  0
  161.3850  206.6970  152.2920 C   0  0  1  0  0  3  0  0  0  0  0  0
  162.8370  204.5140  145.8260 C   0  0  0  0  0  2  0  0  0  0  0  0
  161.3920  207.0860  149.4790 C   0  0  0  0  0  0  0  0  0  0  0  0
  161.0540  204.5290  149.0650 C   0  0  1  0  0  3  0  0  0  0  0  0
  160.2260  202.0990  151.6920 O   0  0  0  0  0  0  0  0  0  0  0  0
  160.6700  203.2580  149.7020 N   0  0  0  0  0  0  0  0  0  0  0  0
  161.4290  202.0800  145.5630 O   0  0  0  0  0  0  0  0  0  0  0  0
  161.9480  206.2530  153.6300 C   0  0  0  0  0  1  0  0  0  0  0  0
  161.1900  205.7030  150.0220 C   0  0  0  0  0  0  0  0  0  0  0  0
  161.2060  202.7720  146.5910 C   0  0  0  0  0  0  0  0  0  0  0  0
  161.3880  200.9530  148.9590 C   0  0  2  0  0  3  0  0  0  0  0  0
  161.3140  200.0560  147.7410 C   0  0  0  0  0  1  0  0  0  0  0  0
  161.2510  200.1930  150.1230 O   0  0  0  0  0  1  0  0  0  0  0  0
  1 20  1  0  0  0  0
  2 13  1  0  0  0  0
  5  1  1  0  0  0  0
  6 15  1  6  0  0  0
  6  7  1  0  0  0  0
  6 19  1  0  0  0  0
  7 11  1  0  0  0  0
  8 11  1  0  0  0  0
  9 28  1  6  0  0  0
  9 23  1  0  0  0  0
 10 22  2  0  0  0  0
 10  3  1  0  0  0  0
 11  5  2  0  0  0  0
 12  4  1  0  0  0  0
 13 18  1  0  0  0  0
 14  9  1  0  0  0  0
 16  1  2  0  0  0  0
 17  3  1  0  0  0  0
 17 18  1  0  0  0  0
 18 25  1  1  0  0  0
 19 12  1  0  0  0  0
 20 26  1  0  0  0  0
 20  2  2  0  0  0  0
 21  4  1  1  0  0  0
 21 23  1  0  0  0  0
 21 26  1  0  0  0  0
 23 10  1  0  0  0  0
 24 27  2  0  0  0  0
 26 17  2  0  0  0  0
 27 12  1  0  0  0  0
 27 14  1  0  0  0  0
 28 29  1  6  0  0  0
 28 30  1  0  0  0  0
M  END
>  <MODEL>
5

>  <REMARK>
 VINA RESULT:      -2.0      5.504      9.327
  Name = 
  1 active torsions:
  status: ('A' for Active; 'I' for Inactive)
    1  A    between atoms: C_7  and  C_10
                            x       y       z     vdW  Elec       q    Type
                         _______ _______ _______ _____ _____    ______ ____

>  <TORSDO>
F 1

$$$$
=
 OpenBabel11052422023D

 30 33  0  0  1  0  0  0  0  0999 V2000
  161.9050  208.7410  149.6680 C   0  0  0  0  0  0  0  0  0  0  0  0
  161.0410  206.6540  148.7910 C   0  0  0  0  0  3  0  0  0  0  0  0
  161.0640  204.8300  152.6100 O   0  0  0  0  0  0  0  0  0  0  0  0
  159.9100  208.5790  152.3980 C   0  0  0  0  0  2  0  0  0  0  0  0
  162.7830  209.3200  150.6390 N   0  0  0  0  0  0  0  0  0  0  0  0
  160.7200  211.9660  151.6980 C   0  0  1  0  0  3  0  0  0  0  0  0
  161.5050  211.2730  150.7400 O   0  0  0  0  0  0  0  0  0  0  0  0
  163.5700  211.0260  152.1400 C   0  0  0  0  0  1  0  0  0  0  0  0
  161.2990  207.7530  155.0050 C   0  0  2  0  0  3  0  0  0  0  0  0
  161.1630  205.5560  153.7880 C   0  0  0  0  0  0  0  0  0  0  0  0
  162.6130  210.5130  151.1190 C   0  0  0  0  0  0  0  0  0  0  0  0
  160.1760  209.9110  152.9410 N   0  0  0  0  0  0  0  0  0  0  0  0
  160.4640  205.2810  148.9400 C   0  0  0  0  0  2  0  0  0  0  0  0
  161.7990  209.1850  154.7990 C   0  0  0  0  0  2  0  0  0  0  0  0
  160.0840  213.1730  151.0400 C   0  0  0  0  0  1  0  0  0  0  0  0
  161.5930  209.3960  148.6350 O   0  0  0  0  0  0  0  0  0  0  0  0
  161.1080  205.4390  151.3540 C   0  0  0  0  0  0  0  0  0  0  0  0
  161.1130  204.5630  150.1210 C   0  0  1  0  0  3  0  0  0  0  0  0
  159.6170  211.0470  152.2160 C   0  0  0  0  0  2  0  0  0  0  0  0
  161.3720  207.3800  149.8680 C   0  0  0  0  0  0  0  0  0  0  0  0
  161.1490  207.6910  152.4520 C   0  0  1  0  0  3  0  0  0  0  0  0
  161.2410  204.9400  154.8830 O   0  0  0  0  0  0  0  0  0  0  0  0
  161.1960  206.9900  153.7460 N   0  0  0  0  0  0  0  0  0  0  0  0
  160.4540  211.1360  154.9120 O   0  0  0  0  0  0  0  0  0  0  0  0
  160.3820  203.2560  150.3660 C   0  0  0  0  0  1  0  0  0  0  0  0
  161.2220  206.7820  151.2350 C   0  0  0  0  0  0  0  0  0  0  0  0
  160.7610  210.1150  154.2410 C   0  0  0  0  0  0  0  0  0  0  0  0
  160.0250  207.7130  155.8640 C   0  0  2  0  0  3  0  0  0  0  0  0
  160.3280  207.2100  157.2610 C   0  0  0  0  0  1  0  0  0  0  0  0
  159.0230  206.9330  155.2810 O   0  0  0  0  0  1  0  0  0  0  0  0
  1 20  1  0  0  0  0
  1  5  1  0  0  0  0
  2 13  1  0  0  0  0
  2 20  2  0  0  0  0
  3 10  1  0  0  0  0
  4 12  1  0  0  0  0
  5 11  2  0  0  0  0
  6 15  1  6  0  0  0
  6 19  1  0  0  0  0
  7 11  1  0  0  0  0
  7  6  1  0  0  0  0
  9 28  1  6  0  0  0
 10 22  2  0  0  0  0
 11  8  1  0  0  0  0
 12 27  1  0  0  0  0
 13 18  1  0  0  0  0
 14  9  1  0  0  0  0
 16  1  2  0  0  0  0
 17  3  1  0  0  0  0
 18 25  1  1  0  0  0
 18 17  1  0  0  0  0
 19 12  1  0  0  0  0
 20 26  1  0  0  0  0
 21  4  1  6  0  0  0
 21 23  1  0  0  0  0
 23 10  1  0  0  0  0
 23  9  1  0  0  0  0
 26 17  2  0  0  0  0
 26 21  1  0  0  0  0
 27 14  1  0  0  0  0
 27 24  2  0  0  0  0
 28 29  1  1  0  0  0
 30 28  1  0  0  0  0
M  END
>  <MODEL>
6

>  <REMARK>
 VINA RESULT:      -1.8      2.197      6.803
  Name = 
  1 active torsions:
  status: ('A' for Active; 'I' for Inactive)
    1  A    between atoms: C_7  and  C_10
                            x       y       z     vdW  Elec       q    Type
                         _______ _______ _______ _____ _____    ______ ____

>  <TORSDO>
F 1

$$$$
=
 OpenBabel11052422023D

 30 33  0  0  1  0  0  0  0  0999 V2000
  161.3730  202.7270  147.6820 C   0  0  0  0  0  0  0  0  0  0  0  0
  160.0800  201.5370  149.3490 C   0  0  0  0  0  3  0  0  0  0  0  0
  161.1690  204.2590  152.4010 O   0  0  0  0  0  0  0  0  0  0  0  0
  160.3650  205.7400  148.8520 C   0  0  0  0  0  2  0  0  0  0  0  0
  162.5690  203.4820  147.4570 N   0  0  0  0  0  0  0  0  0  0  0  0
  161.2170  206.0070  145.4130 C   0  0  1  0  0  3  0  0  0  0  0  0
  161.5810  204.6660  145.7020 O   0  0  0  0  0  0  0  0  0  0  0  0
  163.9560  205.1160  146.3670 C   0  0  0  0  0  1  0  0  0  0  0  0
  162.4410  207.2800  150.5040 C   0  0  2  0  0  3  0  0  0  0  0  0
  161.7130  205.5080  152.1340 C   0  0  0  0  0  0  0  0  0  0  0  0
  162.6760  204.3670  146.5160 C   0  0  0  0  0  0  0  0  0  0  0  0
  160.9160  206.5810  147.7900 N   0  0  0  0  0  0  0  0  0  0  0  0
  159.4570  201.3930  150.7030 C   0  0  0  0  0  2  0  0  0  0  0  0
  162.9790  207.4190  149.0770 C   0  0  0  0  0  2  0  0  0  0  0  0
  160.5180  206.0550  144.0710 C   0  0  0  0  0  1  0  0  0  0  0  0
  160.8060  202.1490  146.7140 O   0  0  0  0  0  0  0  0  0  0  0  0
  160.8610  203.3500  151.3870 C   0  0  0  0  0  0  0  0  0  0  0  0
  160.3840  201.9670  151.7720 C   0  0  1  0  0  3  0  0  0  0  0  0
  160.2620  206.5200  146.4870 C   0  0  0  0  0  2  0  0  0  0  0  0
  160.8090  202.6180  149.0410 C   0  0  0  0  0  0  0  0  0  0  0  0
  161.4660  205.0680  149.6670 C   0  0  1  0  0  3  0  0  0  0  0  0
  162.0830  206.2330  153.0940 O   0  0  0  0  0  0  0  0  0  0  0  0
  161.8640  205.9490  150.7770 N   0  0  0  0  0  0  0  0  0  0  0  0
  161.9310  208.6350  147.3300 O   0  0  0  0  0  0  0  0  0  0  0  0
  159.6520  201.9830  153.1020 C   0  0  0  0  0  1  0  0  0  0  0  0
  161.0550  203.6640  150.0850 C   0  0  0  0  0  0  0  0  0  0  0  0
  161.9080  207.5950  148.0400 C   0  0  0  0  0  0  0  0  0  0  0  0
  161.5160  208.4480  150.8800 C   0  0  2  0  0  3  0  0  0  0  0  0
  162.2760  209.5200  151.6350 C   0  0  0  0  0  1  0  0  0  0  0  0
  160.4140  208.0260  151.6270 O   0  0  0  0  0  1  0  0  0  0  0  0
  1 20  1  0  0  0  0
  2 13  1  0  0  0  0
  5  1  1  0  0  0  0
  6 15  1  6  0  0  0
  6  7  1  0  0  0  0
  6 19  1  0  0  0  0
  7 11  1  0  0  0  0
  8 11  1  0  0  0  0
  9 23  1  0  0  0  0
  9 28  1  6  0  0  0
 10  3  1  0  0  0  0
 10 22  2  0  0  0  0
 11  5  2  0  0  0  0
 12 27  1  0  0  0  0
 12  4  1  0  0  0  0
 13 18  1  0  0  0  0
 14  9  1  0  0  0  0
 16  1  2  0  0  0  0
 17 18  1  0  0  0  0
 17  3  1  0  0  0  0
 18 25  1  1  0  0  0
 19 12  1  0  0  0  0
 20  2  2  0  0  0  0
 20 26  1  0  0  0  0
 21  4  1  1  0  0  0
 21 26  1  0  0  0  0
 21 23  1  0  0  0  0
 23 10  1  0  0  0  0
 24 27  2  0  0  0  0
 26 17  2  0  0  0  0
 27 14  1  0  0  0  0
 28 30  1  0  0  0  0
 28 29  1  1  0  0  0
M  END
>  <MODEL>
7

>  <REMARK>
 VINA RESULT:      -1.3      4.872      9.333
  Name = 
  1 active torsions:
  status: ('A' for Active; 'I' for Inactive)
    1  A    between atoms: C_7  and  C_10
                            x       y       z     vdW  Elec       q    Type
                         _______ _______ _______ _____ _____    ______ ____

>  <TORSDO>
F 1

$$$$
