=
 OpenBabel11052422133D

 25 28  0  0  1  0  0  0  0  0999 V2000
  161.1540  205.3050  148.6800 C   0  0  0  0  0  0  0  0  0  0  0  0
  160.7570  206.3840  149.6340 C   0  0  2  0  0  3  0  0  0  0  0  0
  161.3650  203.6280  150.4020 C   0  0  0  0  0  3  0  0  0  0  0  0
  161.1040  205.2250  147.3640 C   0  0  0  0  0  0  0  0  0  0  0  0
  161.0610  204.5230  144.6830 C   0  0  0  0  0  3  0  0  0  0  0  0
  161.2420  204.6820  151.3810 N   0  0  0  0  0  0  0  0  0  0  0  0
  161.3070  203.9000  146.9900 C   0  0  0  0  0  0  0  0  0  0  0  0
  161.2940  203.5260  145.6470 C   0  0  0  0  0  3  0  0  0  0  0  0
  161.0730  206.9960  152.0850 C   0  0  0  0  0  0  0  0  0  0  0  0
  160.8790  206.6940  153.5310 C   0  0  0  0  0  1  0  0  0  0  0  0
  161.4280  207.6550  149.3500 N   0  0  0  0  0  0  0  0  0  0  0  0
  160.8370  205.8600  145.0710 C   0  0  0  0  0  3  0  0  0  0  0  0
  161.3520  203.9520  149.1130 C   0  0  0  0  0  0  0  0  0  0  0  0
  161.4570  203.0820  147.9900 N   0  0  0  0  0  0  0  0  0  0  0  0
  161.3770  208.2390  151.7010 C   0  0  0  0  0  3  0  0  0  0  0  0
  160.8510  206.2240  146.4280 C   0  0  0  0  0  3  0  0  0  0  0  0
  161.6490  208.5460  150.2780 C   0  0  0  0  0  0  0  0  0  0  0  0
  161.0170  205.9360  151.0670 C   0  0  0  0  0  0  0  0  0  0  0  0
  162.2460  209.8380  149.9370 C   0  0  0  0  0  3  0  0  0  0  0  0
  161.8950  210.4780  148.8690 N   0  0  0  0  0  0  0  0  0  0  0  0
  162.4970  211.7600  148.5320 C   0  0  0  0  0  2  0  0  0  0  0  0
  161.4280  212.8290  148.3470 C   0  0  0  0  0  2  0  0  0  0  0  0
  160.7490  212.6890  147.0280 C   0  0  0  0  0  0  0  0  0  0  0  0
  161.4720  212.8550  145.8540 O   0  0  0  0  0  0  0  0  0  0  0  0
  159.5170  212.4390  146.9750 O   0  0  0  0  0  1  0  0  0  0  0  0
  1 13  1  0  0  0  0
  2  1  1  6  0  0  0
  2 18  1  0  0  0  0
  3  6  1  0  0  0  0
  4  1  2  0  0  0  0
  5 12  1  0  0  0  0
  5  8  2  0  0  0  0
  7  4  1  0  0  0  0
  7 14  2  0  0  0  0
  8  7  1  0  0  0  0
  9 10  1  0  0  0  0
 11  2  1  0  0  0  0
 11 17  2  0  0  0  0
 12 16  2  0  0  0  0
 13  3  2  0  0  0  0
 14 13  1  0  0  0  0
 15  9  2  0  0  0  0
 16  4  1  0  0  0  0
 17 15  1  0  0  0  0
 18  6  2  0  0  0  0
 18  9  1  0  0  0  0
 19 17  1  0  0  0  0
 20 19  2  0  0  0  0
 21 20  1  0  0  0  0
 22 21  1  0  0  0  0
 23 22  1  0  0  0  0
 24 23  2  0  0  0  0
 25 23  1  0  0  0  0
M  END
>  <MODEL>
1

>  <REMARK>
 VINA RESULT:      -9.0      0.000      0.000
  Name = 
  4 active torsions:
  status: ('A' for Active; 'I' for Inactive)
    1  A    between atoms: C_2  and  C_25
    2  A    between atoms: C_6  and  C_23
    3  A    between atoms: N_15  and  C_21
    4  A    between atoms: C_21  and  C_25
                            x       y       z     vdW  Elec       q    Type
                         _______ _______ _______ _____ _____    ______ ____

>  <TORSDO>
F 4

$$$$
=
 OpenBabel11052422133D

 25 28  0  0  1  0  0  0  0  0999 V2000
  161.3720  205.8020  149.8580 C   0  0  0  0  0  0  0  0  0  0  0  0
  161.9440  206.9990  150.5440 C   0  0  0  0  0  0  0  0  0  0  0  0
  161.2790  206.8740  147.6980 C   0  0  0  0  0  3  0  0  0  0  0  0
  161.2540  204.5410  150.2280 C   0  0  0  0  0  0  0  0  0  0  0  0
  160.9260  201.8000  150.4770 C   0  0  0  0  0  3  0  0  0  0  0  0
  161.5810  208.1240  148.3560 N   0  0  0  0  0  0  0  0  0  0  0  0
  160.9310  203.7760  149.1110 C   0  0  0  0  0  0  0  0  0  0  0  0
  160.7570  202.3970  149.2150 C   0  0  0  0  0  3  0  0  0  0  0  0
  161.9670  209.5320  150.2920 C   0  0  0  0  0  0  0  0  0  0  0  0
  162.3210  210.7530  149.5150 C   0  0  0  0  0  1  0  0  0  0  0  0
  161.3170  207.2500  151.8430 N   0  0  0  0  0  0  0  0  0  0  0  0
  161.2730  202.5790  151.6000 C   0  0  0  0  0  3  0  0  0  0  0  0
  161.1520  205.7790  148.4400 C   0  0  0  0  0  0  0  0  0  0  0  0
  160.8590  204.4550  148.0050 N   0  0  0  0  0  0  0  0  0  0  0  0
  161.6890  209.6310  151.5940 C   0  0  0  0  0  3  0  0  0  0  0  0
  161.4460  203.9670  151.4830 C   0  0  0  0  0  3  0  0  0  0  0  0
  161.2620  208.4430  152.3700 C   0  0  0  0  0  0  0  0  0  0  0  0
  161.8370  208.2200  149.6390 C   0  0  1  0  0  3  0  0  0  0  0  0
  160.7020  208.6380  153.7080 C   0  0  0  0  0  3  0  0  0  0  0  0
  160.6860  209.8060  154.2650 N   0  0  0  0  0  0  0  0  0  0  0  0
  160.1320  209.9920  155.5970 C   0  0  0  0  0  2  0  0  0  0  0  0
  161.0560  210.8490  156.4530 C   0  0  0  0  0  2  0  0  0  0  0  0
  162.3900  210.2040  156.6180 C   0  0  0  0  0  0  0  0  0  0  0  0
  162.4790  208.9070  157.1030 O   0  0  0  0  0  1  0  0  0  0  0  0
  163.4380  210.8400  156.3340 O   0  0  0  0  0  0  0  0  0  0  0  0
  1  4  1  0  0  0  0
  1  2  2  0  0  0  0
  2 11  1  0  0  0  0
  3  6  2  0  0  0  0
  3 13  1  0  0  0  0
  4 16  1  0  0  0  0
  5 12  1  0  0  0  0
  7  8  1  0  0  0  0
  7  4  2  0  0  0  0
  8  5  2  0  0  0  0
  9 15  2  0  0  0  0
 10  9  1  0  0  0  0
 11 17  2  0  0  0  0
 13  1  1  0  0  0  0
 14 13  2  0  0  0  0
 14  7  1  0  0  0  0
 15 17  1  0  0  0  0
 16 12  2  0  0  0  0
 17 19  1  0  0  0  0
 18  6  1  1  0  0  0
 18  9  1  0  0  0  0
 18  2  1  0  0  0  0
 19 20  2  0  0  0  0
 20 21  1  0  0  0  0
 21 22  1  0  0  0  0
 22 23  1  0  0  0  0
 23 24  1  0  0  0  0
 25 23  2  0  0  0  0
M  END
>  <MODEL>
2

>  <REMARK>
 VINA RESULT:      -8.7      3.791      5.641
  Name = 
  4 active torsions:
  status: ('A' for Active; 'I' for Inactive)
    1  A    between atoms: C_2  and  C_25
    2  A    between atoms: C_6  and  C_23
    3  A    between atoms: N_15  and  C_21
    4  A    between atoms: C_21  and  C_25
                            x       y       z     vdW  Elec       q    Type
                         _______ _______ _______ _____ _____    ______ ____

>  <TORSDO>
F 4

$$$$
=
 OpenBabel11052422133D

 25 28  0  0  1  0  0  0  0  0999 V2000
  161.3760  205.8610  149.9560 C   0  0  0  0  0  0  0  0  0  0  0  0
  161.9460  207.0480  150.6600 C   0  0  0  0  0  0  0  0  0  0  0  0
  161.2880  206.9640  147.8120 C   0  0  0  0  0  3  0  0  0  0  0  0
  161.2590  204.5950  150.3090 C   0  0  0  0  0  0  0  0  0  0  0  0
  160.9320  201.8500  150.5180 C   0  0  0  0  0  3  0  0  0  0  0  0
  161.5880  208.2040  148.4880 N   0  0  0  0  0  0  0  0  0  0  0  0
  160.9390  203.8460  149.1800 C   0  0  0  0  0  0  0  0  0  0  0  0
  160.7660  202.4650  149.2640 C   0  0  0  0  0  3  0  0  0  0  0  0
  161.9690  209.5850  150.4440 C   0  0  0  0  0  0  0  0  0  0  0  0
  162.3230  210.8170  149.6860 C   0  0  0  0  0  1  0  0  0  0  0  0
  161.3160  207.2810  151.9620 N   0  0  0  0  0  0  0  0  0  0  0  0
  161.2760  202.6140  151.6530 C   0  0  0  0  0  3  0  0  0  0  0  0
  161.1600  205.8590  148.5380 C   0  0  0  0  0  0  0  0  0  0  0  0
  160.8690  204.5400  148.0830 N   0  0  0  0  0  0  0  0  0  0  0  0
  161.6880  209.6660  151.7480 C   0  0  0  0  0  3  0  0  0  0  0  0
  161.4490  204.0040  151.5560 C   0  0  0  0  0  3  0  0  0  0  0  0
  161.2600  208.4660  152.5050 C   0  0  0  0  0  0  0  0  0  0  0  0
  161.8410  208.2820  149.7730 C   0  0  1  0  0  3  0  0  0  0  0  0
  160.6960  208.6420  153.8450 C   0  0  0  0  0  3  0  0  0  0  0  0
  161.1330  209.5640  154.6400 N   0  0  0  0  0  0  0  0  0  0  0  0
  160.5720  209.7300  155.9730 C   0  0  0  0  0  2  0  0  0  0  0  0
  159.1830  210.3520  155.9020 C   0  0  0  0  0  2  0  0  0  0  0  0
  159.2280  211.6990  155.2650 C   0  0  0  0  0  0  0  0  0  0  0  0
  160.1150  212.6590  155.7330 O   0  0  0  0  0  1  0  0  0  0  0  0
  158.4500  211.9750  154.3160 O   0  0  0  0  0  0  0  0  0  0  0  0
  1  4  1  0  0  0  0
  1  2  2  0  0  0  0
  2 11  1  0  0  0  0
  3  6  2  0  0  0  0
  3 13  1  0  0  0  0
  4 16  1  0  0  0  0
  5 12  1  0  0  0  0
  7  8  1  0  0  0  0
  7  4  2  0  0  0  0
  8  5  2  0  0  0  0
  9 15  2  0  0  0  0
 10  9  1  0  0  0  0
 11 17  2  0  0  0  0
 13  1  1  0  0  0  0
 14 13  2  0  0  0  0
 14  7  1  0  0  0  0
 15 17  1  0  0  0  0
 16 12  2  0  0  0  0
 17 19  1  0  0  0  0
 18  6  1  1  0  0  0
 18  9  1  0  0  0  0
 18  2  1  0  0  0  0
 19 20  2  0  0  0  0
 20 21  1  0  0  0  0
 22 21  1  0  0  0  0
 23 24  1  0  0  0  0
 23 22  1  0  0  0  0
 25 23  2  0  0  0  0
M  END
>  <MODEL>
3

>  <REMARK>
 VINA RESULT:      -8.4      3.267      5.226
  Name = 
  4 active torsions:
  status: ('A' for Active; 'I' for Inactive)
    1  A    between atoms: C_2  and  C_25
    2  A    between atoms: C_6  and  C_23
    3  A    between atoms: N_15  and  C_21
    4  A    between atoms: C_21  and  C_25
                            x       y       z     vdW  Elec       q    Type
                         _______ _______ _______ _____ _____    ______ ____

>  <TORSDO>
F 4

$$$$
=
 OpenBabel11052422133D

 25 28  0  0  1  0  0  0  0  0999 V2000
  161.2080  205.9160  150.0210 C   0  0  0  0  0  0  0  0  0  0  0  0
  160.8250  207.2310  150.6180 C   0  0  2  0  0  3  0  0  0  0  0  0
  161.2940  204.7840  152.1510 C   0  0  0  0  0  3  0  0  0  0  0  0
  161.1970  205.4710  148.7800 C   0  0  0  0  0  0  0  0  0  0  0  0
  161.2120  204.0450  146.4030 C   0  0  0  0  0  3  0  0  0  0  0  0
  161.1830  206.0740  152.7900 N   0  0  0  0  0  0  0  0  0  0  0  0
  161.3580  204.0880  148.8000 C   0  0  0  0  0  0  0  0  0  0  0  0
  161.3720  203.3520  147.6160 C   0  0  0  0  0  3  0  0  0  0  0  0
  161.0870  208.4970  152.8110 C   0  0  0  0  0  0  0  0  0  0  0  0
  160.8340  208.6200  154.2740 C   0  0  0  0  0  1  0  0  0  0  0  0
  161.5560  208.3490  150.0190 N   0  0  0  0  0  0  0  0  0  0  0  0
  161.0300  205.4440  146.3910 C   0  0  0  0  0  3  0  0  0  0  0  0
  161.3350  204.7330  150.8240 C   0  0  0  0  0  0  0  0  0  0  0  0
  161.4410  203.5800  149.9940 N   0  0  0  0  0  0  0  0  0  0  0  0
  161.4550  209.5720  152.1080 C   0  0  0  0  0  3  0  0  0  0  0  0
  161.0160  206.1740  147.5910 C   0  0  0  0  0  3  0  0  0  0  0  0
  161.7840  209.4580  150.6680 C   0  0  0  0  0  0  0  0  0  0  0  0
  161.0200  207.1950  152.1280 C   0  0  0  0  0  0  0  0  0  0  0  0
  162.4450  210.5830  150.0050 C   0  0  0  0  0  3  0  0  0  0  0  0
  161.9610  211.1030  148.9240 N   0  0  0  0  0  0  0  0  0  0  0  0
  162.6260  212.2180  148.2670 C   0  0  0  0  0  2  0  0  0  0  0  0
  161.6070  213.2070  147.7140 C   0  0  0  0  0  2  0  0  0  0  0  0
  161.1620  212.8150  146.3470 C   0  0  0  0  0  0  0  0  0  0  0  0
  159.9280  212.2070  146.1660 O   0  0  0  0  0  1  0  0  0  0  0  0
  161.9120  213.0170  145.3570 O   0  0  0  0  0  0  0  0  0  0  0  0
  1  2  1  0  0  0  0
  1 13  1  0  0  0  0
  2 11  1  6  0  0  0
  2 18  1  0  0  0  0
  3  6  1  0  0  0  0
  4  7  1  0  0  0  0
  4  1  2  0  0  0  0
  5  8  2  0  0  0  0
  7 14  2  0  0  0  0
  8  7  1  0  0  0  0
  9 10  1  0  0  0  0
 11 17  2  0  0  0  0
 12  5  1  0  0  0  0
 12 16  2  0  0  0  0
 13  3  2  0  0  0  0
 14 13  1  0  0  0  0
 15  9  2  0  0  0  0
 16  4  1  0  0  0  0
 17 15  1  0  0  0  0
 18  6  2  0  0  0  0
 18  9  1  0  0  0  0
 19 17  1  0  0  0  0
 20 19  2  0  0  0  0
 21 20  1  0  0  0  0
 22 21  1  0  0  0  0
 23 22  1  0  0  0  0
 24 23  1  0  0  0  0
 25 23  2  0  0  0  0
M  END
>  <MODEL>
4

>  <REMARK>
 VINA RESULT:      -8.1      1.087      1.595
  Name = 
  4 active torsions:
  status: ('A' for Active; 'I' for Inactive)
    1  A    between atoms: C_2  and  C_25
    2  A    between atoms: C_6  and  C_23
    3  A    between atoms: N_15  and  C_21
    4  A    between atoms: C_21  and  C_25
                            x       y       z     vdW  Elec       q    Type
                         _______ _______ _______ _____ _____    ______ ____

>  <TORSDO>
F 4

$$$$
=
 OpenBabel11052422133D

 25 28  0  0  1  0  0  0  0  0999 V2000
  161.2350  208.4440  153.2740 C   0  0  0  0  0  0  0  0  0  0  0  0
  160.7920  207.7440  152.0320 C   0  0  0  0  0  0  0  0  0  0  0  0
  162.3490  210.2200  152.0780 C   0  0  0  0  0  3  0  0  0  0  0  0
  160.8850  208.3100  154.5390 C   0  0  0  0  0  0  0  0  0  0  0  0
  160.3810  208.5150  157.2570 C   0  0  0  0  0  3  0  0  0  0  0  0
  162.1720  209.4530  150.8670 N   0  0  0  0  0  0  0  0  0  0  0  0
  161.3660  209.4030  155.2540 C   0  0  0  0  0  0  0  0  0  0  0  0
  161.1280  209.5240  156.6220 C   0  0  0  0  0  3  0  0  0  0  0  0
  161.5170  207.4910  149.6050 C   0  0  0  0  0  0  0  0  0  0  0  0
  161.7850  208.0830  148.2640 C   0  0  0  0  0  1  0  0  0  0  0  0
  160.9690  206.2930  152.1150 N   0  0  0  0  0  0  0  0  0  0  0  0
  159.8800  207.4200  156.5230 C   0  0  0  0  0  3  0  0  0  0  0  0
  161.9210  209.7040  153.2260 C   0  0  0  0  0  0  0  0  0  0  0  0
  161.9920  210.2800  154.5270 N   0  0  0  0  0  0  0  0  0  0  0  0
  161.3390  206.1720  149.7240 C   0  0  0  0  0  3  0  0  0  0  0  0
  160.1260  207.3110  155.1440 C   0  0  0  0  0  3  0  0  0  0  0  0
  161.1450  205.5520  151.0550 C   0  0  0  0  0  0  0  0  0  0  0  0
  161.5200  208.3160  150.8220 C   0  0  1  0  0  3  0  0  0  0  0  0
  161.2340  204.0960  151.1750 C   0  0  0  0  0  3  0  0  0  0  0  0
  161.1320  203.3300  150.1370 N   0  0  0  0  0  0  0  0  0  0  0  0
  161.2170  201.8830  150.2640 C   0  0  0  0  0  2  0  0  0  0  0  0
  160.2870  201.1970  149.2710 C   0  0  0  0  0  2  0  0  0  0  0  0
  160.9080  201.1160  147.9180 C   0  0  0  0  0  0  0  0  0  0  0  0
  161.5820  199.9660  147.5310 O   0  0  0  0  0  1  0  0  0  0  0  0
  160.8390  202.0960  147.1320 O   0  0  0  0  0  0  0  0  0  0  0  0
  1  4  1  0  0  0  0
  2 11  1  0  0  0  0
  2  1  2  0  0  0  0
  3 13  1  0  0  0  0
  4 16  2  0  0  0  0
  4  7  1  0  0  0  0
  6  3  2  0  0  0  0
  7  8  2  0  0  0  0
  8  5  1  0  0  0  0
  9 15  2  0  0  0  0
 10  9  1  0  0  0  0
 12  5  2  0  0  0  0
 13  1  1  0  0  0  0
 13 14  2  0  0  0  0
 14  7  1  0  0  0  0
 15 17  1  0  0  0  0
 16 12  1  0  0  0  0
 17 19  1  0  0  0  0
 17 11  2  0  0  0  0
 18  9  1  1  0  0  0
 18  6  1  0  0  0  0
 18  2  1  0  0  0  0
 20 21  1  0  0  0  0
 20 19  2  0  0  0  0
 22 21  1  0  0  0  0
 23 22  1  0  0  0  0
 24 23  1  0  0  0  0
 25 23  2  0  0  0  0
M  END
>  <MODEL>
5

>  <REMARK>
 VINA RESULT:      -7.9      4.082      8.413
  Name = 
  4 active torsions:
  status: ('A' for Active; 'I' for Inactive)
    1  A    between atoms: C_2  and  C_25
    2  A    between atoms: C_6  and  C_23
    3  A    between atoms: N_15  and  C_21
    4  A    between atoms: C_21  and  C_25
                            x       y       z     vdW  Elec       q    Type
                         _______ _______ _______ _____ _____    ______ ____

>  <TORSDO>
F 4

$$$$
=
 OpenBabel11052422133D

 25 28  0  0  1  0  0  0  0  0999 V2000
  161.1760  205.0080  148.3010 C   0  0  0  0  0  0  0  0  0  0  0  0
  160.7900  205.9460  149.3970 C   0  0  2  0  0  3  0  0  0  0  0  0
  161.4180  203.1140  149.7780 C   0  0  0  0  0  3  0  0  0  0  0  0
  161.1070  205.1050  146.9870 C   0  0  0  0  0  0  0  0  0  0  0  0
  161.0260  204.7700  144.2370 C   0  0  0  0  0  3  0  0  0  0  0  0
  161.3060  204.0270  150.8920 N   0  0  0  0  0  0  0  0  0  0  0  0
  161.3090  203.8430  146.4350 C   0  0  0  0  0  0  0  0  0  0  0  0
  161.2770  203.6530  145.0540 C   0  0  0  0  0  3  0  0  0  0  0  0
  161.1410  206.2240  151.9030 C   0  0  0  0  0  0  0  0  0  0  0  0
  160.9690  205.7300  153.2980 C   0  0  0  0  0  1  0  0  0  0  0  0
  161.4520  207.2470  149.2770 N   0  0  0  0  0  0  0  0  0  0  0  0
  160.8030  206.0410  144.8040 C   0  0  0  0  0  3  0  0  0  0  0  0
  161.3840  203.6090  148.5450 C   0  0  0  0  0  0  0  0  0  0  0  0
  161.4760  202.8990  147.3130 N   0  0  0  0  0  0  0  0  0  0  0  0
  161.4350  207.5090  151.6860 C   0  0  0  0  0  3  0  0  0  0  0  0
  160.8370  206.2200  146.1970 C   0  0  0  0  0  3  0  0  0  0  0  0
  161.6850  208.0060  150.3130 C   0  0  0  0  0  0  0  0  0  0  0  0
  161.0730  205.3100  150.7520 C   0  0  0  0  0  0  0  0  0  0  0  0
  162.2730  209.3350  150.1400 C   0  0  0  0  0  3  0  0  0  0  0  0
  161.6390  210.2730  149.5140 N   0  0  0  0  0  0  0  0  0  0  0  0
  162.2320  211.5910  149.3410 C   0  0  0  0  0  2  0  0  0  0  0  0
  161.6070  212.3150  148.1560 C   0  0  0  0  0  2  0  0  0  0  0  0
  160.9780  213.5990  148.5790 C   0  0  0  0  0  0  0  0  0  0  0  0
  159.6560  213.8660  148.2500 O   0  0  0  0  0  0  0  0  0  0  0  0
  161.6480  214.4490  149.2200 O   0  0  0  0  0  1  0  0  0  0  0  0
  1 13  1  0  0  0  0
  2  1  1  6  0  0  0
  2 18  1  0  0  0  0
  3  6  1  0  0  0  0
  4  1  2  0  0  0  0
  5 12  1  0  0  0  0
  5  8  2  0  0  0  0
  7  4  1  0  0  0  0
  7 14  2  0  0  0  0
  8  7  1  0  0  0  0
  9 10  1  0  0  0  0
 11  2  1  0  0  0  0
 11 17  2  0  0  0  0
 12 16  2  0  0  0  0
 13  3  2  0  0  0  0
 14 13  1  0  0  0  0
 15  9  2  0  0  0  0
 16  4  1  0  0  0  0
 17 15  1  0  0  0  0
 18  6  2  0  0  0  0
 18  9  1  0  0  0  0
 19 17  1  0  0  0  0
 20 19  2  0  0  0  0
 21 20  1  0  0  0  0
 22 23  1  0  0  0  0
 22 21  1  0  0  0  0
 23 25  1  0  0  0  0
 24 23  2  0  0  0  0
M  END
>  <MODEL>
6

>  <REMARK>
 VINA RESULT:      -7.8      1.043      1.200
  Name = 
  4 active torsions:
  status: ('A' for Active; 'I' for Inactive)
    1  A    between atoms: C_2  and  C_25
    2  A    between atoms: C_6  and  C_23
    3  A    between atoms: N_15  and  C_21
    4  A    between atoms: C_21  and  C_25
                            x       y       z     vdW  Elec       q    Type
                         _______ _______ _______ _____ _____    ______ ____

>  <TORSDO>
F 4

$$$$
=
 OpenBabel11052422133D

 25 28  0  0  0  0  0  0  0  0999 V2000
  160.9470  207.8260  152.7110 C   0  0  0  0  0  0  0  0  0  0  0  0
  161.5320  206.8960  151.7000 C   0  0  0  0  0  0  0  0  0  0  0  0
  160.8610  206.1540  154.4480 C   0  0  0  0  0  3  0  0  0  0  0  0
  160.8180  209.1390  152.7350 C   0  0  0  0  0  0  0  0  0  0  0  0
  160.4630  211.8250  153.3200 C   0  0  0  0  0  3  0  0  0  0  0  0
  161.1770  205.1630  153.4460 N   0  0  0  0  0  0  0  0  0  0  0  0
  160.4850  209.5300  154.0290 C   0  0  0  0  0  0  0  0  0  0  0  0
  160.2970  210.8750  154.3440 C   0  0  0  0  0  3  0  0  0  0  0  0
  161.5800  204.4050  151.1790 C   0  0  0  0  0  0  0  0  0  0  0  0
  161.9450  203.0100  151.5550 C   0  0  0  0  0  1  0  0  0  0  0  0
  160.9110  207.0410  150.3810 N   0  0  0  0  0  2  0  0  0  0  0  0
  160.8190  211.4230  152.0160 C   0  0  0  0  0  3  0  0  0  0  0  0
  160.7240  207.4200  154.0680 C   0  0  0  0  0  0  0  0  0  0  0  0
  160.4170  208.5500  154.8800 N   0  0  0  0  0  0  0  0  0  0  0  0
  161.3060  204.6990  149.9050 C   0  0  0  0  0  3  0  0  0  0  0  0
  161.0070  210.0650  151.7120 C   0  0  0  0  0  3  0  0  0  0  0  0
  160.8690  206.0610  149.5210 C   0  0  0  0  0  0  0  0  0  0  0  0
  161.4360  205.4590  152.1950 C   0  0  0  0  0  0  0  0  0  0  0  0
  160.3130  206.2720  148.1830 C   0  0  0  0  0  3  0  0  0  0  0  0
  160.9960  205.9880  147.1210 N   0  0  0  0  0  0  0  0  0  0  0  0
  160.4390  206.2050  145.7940 C   0  0  0  0  0  2  0  0  0  0  0  0
  161.2520  205.4670  144.7380 C   0  0  0  0  0  2  0  0  0  0  0  0
  161.9330  204.2750  145.3190 C   0  0  0  0  0  0  0  0  0  0  0  0
  163.2830  204.3340  145.6370 O   0  0  0  0  0  1  0  0  0  0  0  0
  161.2920  203.2080  145.5040 O   0  0  0  0  0  0  0  0  0  0  0  0
  1  4  1  0  0  0  0
  1 13  1  0  0  0  0
  2 18  1  0  0  0  0
  2  1  2  0  0  0  0
  4  7  1  0  0  0  0
  5  8  1  0  0  0  0
  6  3  2  0  0  0  0
  7  8  2  0  0  0  0
  7 14  1  0  0  0  0
  9 10  1  0  0  0  0
  9 18  2  0  0  0  0
 11  2  1  0  0  0  0
 12  5  2  0  0  0  0
 13  3  1  0  0  0  0
 13 14  2  0  0  0  0
 15  9  1  0  0  0  0
 16 12  1  0  0  0  0
 16  4  2  0  0  0  0
 17 15  2  0  0  0  0
 17 11  1  0  0  0  0
 18  6  1  0  0  0  0
 19 17  1  0  0  0  0
 20 19  2  0  0  0  0
 21 20  1  0  0  0  0
 22 23  1  0  0  0  0
 22 21  1  0  0  0  0
 23 25  2  0  0  0  0
 23 24  1  0  0  0  0
M  END
>  <MODEL>
7

>  <REMARK>
 VINA RESULT:      -7.7      3.323      6.710
  Name = 
  4 active torsions:
  status: ('A' for Active; 'I' for Inactive)
    1  A    between atoms: C_2  and  C_25
    2  A    between atoms: C_6  and  C_23
    3  A    between atoms: N_15  and  C_21
    4  A    between atoms: C_21  and  C_25
                            x       y       z     vdW  Elec       q    Type
                         _______ _______ _______ _____ _____    ______ ____

>  <TORSDO>
F 4

$$$$
=
 OpenBabel11052422133D

 25 28  0  0  1  0  0  0  0  0999 V2000
  161.4270  204.3910  147.7950 C   0  0  0  0  0  0  0  0  0  0  0  0
  162.0000  205.4000  148.7350 C   0  0  2  0  0  3  0  0  0  0  0  0
  161.2490  205.9520  145.9620 C   0  0  0  0  0  3  0  0  0  0  0  0
  161.3420  203.0760  147.8520 C   0  0  0  0  0  0  0  0  0  0  0  0
  161.0670  200.3490  147.4380 C   0  0  0  0  0  3  0  0  0  0  0  0
  161.5510  207.0120  146.8950 N   0  0  0  0  0  0  0  0  0  0  0  0
  160.9960  202.5960  146.5910 C   0  0  0  0  0  0  0  0  0  0  0  0
  160.8490  201.2290  146.3630 C   0  0  0  0  0  3  0  0  0  0  0  0
  161.9740  207.9190  149.1030 C   0  0  0  0  0  0  0  0  0  0  0  0
  162.2830  209.3000  148.6370 C   0  0  0  0  0  1  0  0  0  0  0  0
  161.4100  205.3150  150.0730 N   0  0  0  0  0  0  0  0  0  0  0  0
  161.4360  200.8420  148.7070 C   0  0  0  0  0  3  0  0  0  0  0  0
  161.1630  204.7070  146.4200 C   0  0  0  0  0  0  0  0  0  0  0  0
  160.8790  203.5210  145.6850 N   0  0  0  0  0  0  0  0  0  0  0  0
  161.7360  207.6940  150.3980 C   0  0  0  0  0  3  0  0  0  0  0  0
  161.5820  202.2210  148.9250 C   0  0  0  0  0  3  0  0  0  0  0  0
  161.3530  206.3440  150.8740 C   0  0  0  0  0  0  0  0  0  0  0  0
  161.8450  206.8010  148.1560 C   0  0  0  0  0  0  0  0  0  0  0  0
  160.8310  206.1970  152.2340 C   0  0  0  0  0  3  0  0  0  0  0  0
  161.0260  207.1100  153.1290 N   0  0  0  0  0  0  0  0  0  0  0  0
  160.5100  206.9560  154.4800 C   0  0  0  0  0  2  0  0  0  0  0  0
  161.3780  207.7060  155.4820 C   0  0  0  0  0  2  0  0  0  0  0  0
  160.9550  209.1300  155.6010 C   0  0  0  0  0  0  0  0  0  0  0  0
  161.8470  210.0810  156.0790 O   0  0  0  0  0  1  0  0  0  0  0  0
  159.7860  209.4700  155.2870 O   0  0  0  0  0  0  0  0  0  0  0  0
  1  4  2  0  0  0  0
  2  1  1  6  0  0  0
  2 11  1  0  0  0  0
  3 13  2  0  0  0  0
  3  6  1  0  0  0  0
  4 16  1  0  0  0  0
  5 12  1  0  0  0  0
  6 18  2  0  0  0  0
  7  4  1  0  0  0  0
  8  7  1  0  0  0  0
  8  5  2  0  0  0  0
  9 15  2  0  0  0  0
 10  9  1  0  0  0  0
 11 17  2  0  0  0  0
 12 16  2  0  0  0  0
 13  1  1  0  0  0  0
 14 13  1  0  0  0  0
 14  7  2  0  0  0  0
 15 17  1  0  0  0  0
 17 19  1  0  0  0  0
 18  2  1  0  0  0  0
 18  9  1  0  0  0  0
 19 20  2  0  0  0  0
 20 21  1  0  0  0  0
 21 22  1  0  0  0  0
 22 23  1  0  0  0  0
 23 24  1  0  0  0  0
 25 23  2  0  0  0  0
M  END
>  <MODEL>
8

>  <REMARK>
 VINA RESULT:      -7.2      3.293      5.301
  Name = 
  4 active torsions:
  status: ('A' for Active; 'I' for Inactive)
    1  A    between atoms: C_2  and  C_25
    2  A    between atoms: C_6  and  C_23
    3  A    between atoms: N_15  and  C_21
    4  A    between atoms: C_21  and  C_25
                            x       y       z     vdW  Elec       q    Type
                         _______ _______ _______ _____ _____    ______ ____

>  <TORSDO>
F 4

$$$$
=
 OpenBabel11052422133D

 25 28  0  0  1  0  0  0  0  0999 V2000
  161.0430  204.2120  148.0190 C   0  0  0  0  0  0  0  0  0  0  0  0
  160.6300  204.7100  149.3650 C   0  0  2  0  0  3  0  0  0  0  0  0
  161.1710  201.9080  148.7240 C   0  0  0  0  0  3  0  0  0  0  0  0
  161.0370  204.7770  146.8260 C   0  0  0  0  0  0  0  0  0  0  0  0
  161.0760  205.4530  144.1390 C   0  0  0  0  0  3  0  0  0  0  0  0
  161.0300  202.3640  150.0860 N   0  0  0  0  0  0  0  0  0  0  0  0
  161.2340  203.7890  145.8650 C   0  0  0  0  0  0  0  0  0  0  0  0
  161.2620  204.1080  144.5080 C   0  0  0  0  0  3  0  0  0  0  0  0
  160.8700  204.0580  151.8140 C   0  0  0  0  0  0  0  0  0  0  0  0
  160.6220  203.1030  152.9310 C   0  0  0  0  0  1  0  0  0  0  0  0
  161.3280  205.9400  149.7440 N   0  0  0  0  0  0  0  0  0  0  0  0
  160.8580  206.4440  145.1180 C   0  0  0  0  0  3  0  0  0  0  0  0
  161.2060  202.8120  147.7510 C   0  0  0  0  0  0  0  0  0  0  0  0
  161.3380  202.5880  146.3500 N   0  0  0  0  0  0  0  0  0  0  0  0
  161.2050  205.3220  152.0840 C   0  0  0  0  0  3  0  0  0  0  0  0
  160.8310  206.1100  146.4810 C   0  0  0  0  0  3  0  0  0  0  0  0
  161.5300  206.2690  150.9910 C   0  0  0  0  0  0  0  0  0  0  0  0
  160.8340  203.6200  150.4100 C   0  0  0  0  0  0  0  0  0  0  0  0
  162.1580  207.5470  151.3290 C   0  0  0  0  0  3  0  0  0  0  0  0
  161.5050  208.6600  151.2340 N   0  0  0  0  0  0  0  0  0  0  0  0
  162.1370  209.9280  151.5660 C   0  0  0  0  0  2  0  0  0  0  0  0
  161.3190  210.6850  152.6050 C   0  0  0  0  0  2  0  0  0  0  0  0
  161.5390  210.1320  153.9720 C   0  0  0  0  0  0  0  0  0  0  0  0
  160.8530  208.9960  154.3790 O   0  0  0  0  0  0  0  0  0  0  0  0
  162.3320  210.7030  154.7640 O   0  0  0  0  0  1  0  0  0  0  0  0
  2  1  1  6  0  0  0
  2 11  1  0  0  0  0
  2 18  1  0  0  0  0
  3  6  1  0  0  0  0
  4  1  2  0  0  0  0
  5  8  2  0  0  0  0
  5 12  1  0  0  0  0
  6 18  2  0  0  0  0
  7 14  2  0  0  0  0
  7  4  1  0  0  0  0
  8  7  1  0  0  0  0
  9 15  2  0  0  0  0
  9 10  1  0  0  0  0
 11 17  2  0  0  0  0
 12 16  2  0  0  0  0
 13  1  1  0  0  0  0
 13  3  2  0  0  0  0
 14 13  1  0  0  0  0
 16  4  1  0  0  0  0
 17 19  1  0  0  0  0
 17 15  1  0  0  0  0
 18  9  1  0  0  0  0
 20 19  2  0  0  0  0
 20 21  1  0  0  0  0
 21 22  1  0  0  0  0
 22 23  1  0  0  0  0
 23 24  2  0  0  0  0
 23 25  1  0  0  0  0
M  END
>  <MODEL>
9

>  <REMARK>
 VINA RESULT:      -7.2      3.190      3.690
  Name = 
  4 active torsions:
  status: ('A' for Active; 'I' for Inactive)
    1  A    between atoms: C_2  and  C_25
    2  A    between atoms: C_6  and  C_23
    3  A    between atoms: N_15  and  C_21
    4  A    between atoms: C_21  and  C_25
                            x       y       z     vdW  Elec       q    Type
                         _______ _______ _______ _____ _____    ______ ____

>  <TORSDO>
F 4

$$$$
