=
 OpenBabel11052423173D

 27 31  0  0  1  0  0  0  0  0999 V2000
  162.4780  206.8240  149.0830 C   0  0  0  0  0  0  0  0  0  0  0  0
  161.1880  210.4340  151.1420 S   0  0  0  0  0  0  0  0  0  0  0  0
  160.1870  209.9410  153.6540 N   0  0  0  0  0  1  0  0  0  0  0  0
  162.6300  208.0980  148.3840 C   0  0  0  0  0  0  0  0  0  0  0  0
  161.0260  208.1150  152.1750 C   0  0  0  0  0  0  0  0  0  0  0  0
  160.7120  206.8370  153.3450 Cl  0  0  0  0  0  0  0  0  0  0  0  0
  161.5840  207.9210  150.8990 C   0  0  0  0  0  0  0  0  0  0  0  0
  163.0240  206.8860  147.7830 C   0  0  2  0  0  3  0  0  0  0  0  0
  160.7550  209.4550  152.4440 C   0  0  0  0  0  0  0  0  0  0  0  0
  161.7450  209.1820  150.1730 C   0  0  0  0  0  0  0  0  0  0  0  0
  161.9630  206.6490  150.3360 C   0  0  0  0  0  0  0  0  0  0  0  0
  162.2860  209.3370  148.8500 C   0  0  0  0  0  3  0  0  0  0  0  0
  160.1740  205.5090  144.9140 N   0  0  0  0  0  0  0  0  0  0  0  0
  162.0220  206.4450  146.7530 C   0  0  0  0  0  0  0  0  0  0  0  0
  162.4450  205.7390  145.6200 C   0  0  0  0  0  3  0  0  0  0  0  0
  161.4980  205.2830  144.7000 C   0  0  0  0  0  3  0  0  0  0  0  0
  159.7360  206.1760  146.0140 C   0  0  0  0  0  3  0  0  0  0  0  0
  160.6500  206.6480  146.9580 C   0  0  0  0  0  3  0  0  0  0  0  0
  161.8100  205.4180  150.9750 O   0  0  0  0  0  0  0  0  0  0  0  0
  160.7100  203.5350  153.0740 O   0  0  0  0  0  1  0  0  0  0  0  0
  161.2380  202.8760  147.4420 C   0  0  0  0  0  1  0  0  0  0  0  0
  161.3990  203.1530  148.9220 C   0  0  1  0  0  3  0  0  0  0  0  0
  160.7830  203.3830  151.6960 C   0  0  0  0  0  0  0  0  0  0  0  0
  160.4420  204.2600  149.3420 C   0  0  0  0  0  2  0  0  0  0  0  0
  161.0680  201.8940  149.7150 C   0  0  0  0  0  2  0  0  0  0  0  0
  161.0250  202.1670  151.1920 C   0  0  0  0  0  3  0  0  0  0  0  0
  160.6510  204.6060  150.8210 C   0  0  2  0  0  3  0  0  0  0  0  0
  1 11  1  0  0  0  0
  2  9  1  0  0  0  0
  4 12  1  0  0  0  0
  4  1  2  0  0  0  0
  5  9  2  0  0  0  0
  5  6  1  0  0  0  0
  7  5  1  0  0  0  0
  8 14  1  6  0  0  0
  8  4  1  0  0  0  0
  8  1  1  0  0  0  0
  9  3  1  0  0  0  0
 10  7  1  0  0  0  0
 10  2  1  0  0  0  0
 11  7  2  0  0  0  0
 11 19  1  0  0  0  0
 12 10  2  0  0  0  0
 13 17  1  0  0  0  0
 14 18  1  0  0  0  0
 15 14  2  0  0  0  0
 16 13  2  0  0  0  0
 16 15  1  0  0  0  0
 17 18  2  0  0  0  0
 22 21  1  6  0  0  0
 22 24  1  0  0  0  0
 22 25  1  0  0  0  0
 23 20  1  0  0  0  0
 24 27  1  0  0  0  0
 25 26  1  0  0  0  0
 26 23  2  0  0  0  0
 27 19  1  6  0  0  0
 27 23  1  0  0  0  0
M  END
>  <MODEL>
1

>  <REMARK>
 VINA RESULT:      -7.3      0.000      0.000
  Name = 
  3 active torsions:
  status: ('A' for Active; 'I' for Inactive)
    1  A    between atoms: O_3  and  C_19
    2  A    between atoms: O_3  and  C_26
    3  A    between atoms: C_9  and  C_15
                            x       y       z     vdW  Elec       q    Type
                         _______ _______ _______ _____ _____    ______ ____

>  <TORSDO>
F 3

$$$$
=
 OpenBabel11052423173D

 27 31  0  0  1  0  0  0  0  0999 V2000
  160.4730  211.0210  152.8870 C   0  0  0  0  0  0  0  0  0  0  0  0
  160.2540  209.6080  156.9960 S   0  0  0  0  0  0  0  0  0  0  0  0
  160.3370  206.8680  157.1990 N   0  0  0  0  0  1  0  0  0  0  0  0
  160.3740  212.0220  153.9470 C   0  0  0  0  0  0  0  0  0  0  0  0
  160.4410  208.0430  155.0000 C   0  0  0  0  0  0  0  0  0  0  0  0
  160.5820  206.5600  154.0600 Cl  0  0  0  0  0  0  0  0  0  0  0  0
  160.4280  209.3420  154.4610 C   0  0  0  0  0  0  0  0  0  0  0  0
  160.4480  212.4000  152.5910 C   0  0  2  0  0  3  0  0  0  0  0  0
  160.3490  208.0380  156.3900 C   0  0  0  0  0  0  0  0  0  0  0  0
  160.3270  210.3670  155.5010 C   0  0  0  0  0  0  0  0  0  0  0  0
  160.5020  209.6670  153.0580 C   0  0  0  0  0  0  0  0  0  0  0  0
  160.2910  211.7880  155.2910 C   0  0  0  0  0  3  0  0  0  0  0  0
  156.6540  213.7260  151.1450 N   0  0  0  0  0  0  0  0  0  0  0  0
  159.1010  212.8210  152.0750 C   0  0  0  0  0  0  0  0  0  0  0  0
  158.0590  213.0910  152.9700 C   0  0  0  0  0  3  0  0  0  0  0  0
  156.8290  213.5380  152.4810 C   0  0  0  0  0  3  0  0  0  0  0  0
  157.6530  213.4870  150.2560 C   0  0  0  0  0  3  0  0  0  0  0  0
  158.8970  213.0390  150.7040 C   0  0  0  0  0  3  0  0  0  0  0  0
  160.5780  208.7290  152.0270 O   0  0  0  0  0  0  0  0  0  0  0  0
  162.0970  210.4340  150.0400 O   0  0  0  0  0  1  0  0  0  0  0  0
  161.0900  204.8290  150.0780 C   0  0  0  0  0  1  0  0  0  0  0  0
  161.0460  206.3420  150.1310 C   0  0  1  0  0  3  0  0  0  0  0  0
  161.9050  209.0590  150.0660 C   0  0  0  0  0  0  0  0  0  0  0  0
  161.9030  206.8380  151.2870 C   0  0  0  0  0  2  0  0  0  0  0  0
  161.6020  206.9130  148.8310 C   0  0  0  0  0  2  0  0  0  0  0  0
  161.7590  208.4060  148.9070 C   0  0  0  0  0  3  0  0  0  0  0  0
  161.8030  208.3640  151.4020 C   0  0  2  0  0  3  0  0  0  0  0  0
  1 11  2  0  0  0  0
  1  4  1  0  0  0  0
  4 12  2  0  0  0  0
  5  9  2  0  0  0  0
  6  5  1  0  0  0  0
  7  5  1  0  0  0  0
  7 10  2  0  0  0  0
  8 14  1  6  0  0  0
  8  1  1  0  0  0  0
  8  4  1  0  0  0  0
  9  2  1  0  0  0  0
  9  3  1  0  0  0  0
 10  2  1  0  0  0  0
 11  7  1  0  0  0  0
 12 10  1  0  0  0  0
 13 16  1  0  0  0  0
 14 15  1  0  0  0  0
 16 15  2  0  0  0  0
 17 18  1  0  0  0  0
 17 13  2  0  0  0  0
 18 14  2  0  0  0  0
 19 11  1  0  0  0  0
 20 23  1  0  0  0  0
 22 21  1  6  0  0  0
 22 24  1  0  0  0  0
 23 27  1  0  0  0  0
 24 27  1  0  0  0  0
 25 26  1  0  0  0  0
 25 22  1  0  0  0  0
 26 23  2  0  0  0  0
 27 19  1  6  0  0  0
M  END
>  <MODEL>
2

>  <REMARK>
 VINA RESULT:      -6.1      3.490      6.634
  Name = 
  3 active torsions:
  status: ('A' for Active; 'I' for Inactive)
    1  A    between atoms: O_3  and  C_19
    2  A    between atoms: O_3  and  C_26
    3  A    between atoms: C_9  and  C_15
                            x       y       z     vdW  Elec       q    Type
                         _______ _______ _______ _____ _____    ______ ____

>  <TORSDO>
F 3

$$$$
=
 OpenBabel11052423173D

 27 31  0  0  1  0  0  0  0  0999 V2000
  161.7750  209.3150  151.1240 C   0  0  0  0  0  0  0  0  0  0  0  0
  160.4600  213.3000  149.9700 S   0  0  0  0  0  0  0  0  0  0  0  0
  158.7420  214.4360  151.7910 N   0  0  0  0  0  1  0  0  0  0  0  0
  162.2840  209.8640  149.8690 C   0  0  0  0  0  0  0  0  0  0  0  0
  159.7060  212.1580  152.1150 C   0  0  0  0  0  0  0  0  0  0  0  0
  158.9110  211.8920  153.6630 Cl  0  0  0  0  0  0  0  0  0  0  0  0
  160.5660  211.2420  151.4820 C   0  0  0  0  0  0  0  0  0  0  0  0
  162.6630  208.5810  150.3110 C   0  0  2  0  0  3  0  0  0  0  0  0
  159.5540  213.3380  151.3910 C   0  0  0  0  0  0  0  0  0  0  0  0
  161.0910  211.7640  150.2190 C   0  0  0  0  0  0  0  0  0  0  0  0
  160.9130  209.9350  151.9830 C   0  0  0  0  0  0  0  0  0  0  0  0
  161.9940  211.0860  149.3300 C   0  0  0  0  0  3  0  0  0  0  0  0
  160.7130  205.4610  148.1410 N   0  0  0  0  0  0  0  0  0  0  0  0
  161.9380  207.5110  149.5430 C   0  0  0  0  0  0  0  0  0  0  0  0
  162.1620  207.3590  148.1690 C   0  0  0  0  0  3  0  0  0  0  0  0
  161.5280  206.3240  147.4780 C   0  0  0  0  0  3  0  0  0  0  0  0
  160.4910  205.5750  149.4770 C   0  0  0  0  0  3  0  0  0  0  0  0
  161.1060  206.5960  150.2040 C   0  0  0  0  0  3  0  0  0  0  0  0
  160.4230  209.3810  153.1670 O   0  0  0  0  0  0  0  0  0  0  0  0
  160.8510  206.4580  153.8240 O   0  0  0  0  0  1  0  0  0  0  0  0
  160.2190  210.9540  157.2600 C   0  0  0  0  0  1  0  0  0  0  0  0
  160.1320  209.8800  156.1970 C   0  0  1  0  0  3  0  0  0  0  0  0
  160.7520  207.5520  154.6710 C   0  0  0  0  0  0  0  0  0  0  0  0
  161.3820  209.9190  155.3290 C   0  0  0  0  0  2  0  0  0  0  0  0
  160.0420  208.5110  156.8620 C   0  0  0  0  0  2  0  0  0  0  0  0
  160.1490  207.4000  155.8560 C   0  0  0  0  0  3  0  0  0  0  0  0
  161.2720  208.8880  154.1980 C   0  0  2  0  0  3  0  0  0  0  0  0
  1 11  1  0  0  0  0
  2 10  1  0  0  0  0
  2  9  1  0  0  0  0
  4  8  1  0  0  0  0
  4  1  2  0  0  0  0
  5  6  1  0  0  0  0
  7 11  2  0  0  0  0
  7  5  1  0  0  0  0
  8 14  1  6  0  0  0
  8  1  1  0  0  0  0
  9  3  1  0  0  0  0
  9  5  2  0  0  0  0
 10  7  1  0  0  0  0
 11 19  1  0  0  0  0
 12  4  1  0  0  0  0
 12 10  2  0  0  0  0
 13 17  1  0  0  0  0
 14 18  1  0  0  0  0
 15 14  2  0  0  0  0
 16 13  2  0  0  0  0
 16 15  1  0  0  0  0
 17 18  2  0  0  0  0
 20 23  1  0  0  0  0
 22 25  1  0  0  0  0
 22 21  1  1  0  0  0
 23 26  2  0  0  0  0
 24 22  1  0  0  0  0
 26 25  1  0  0  0  0
 27 19  1  6  0  0  0
 27 23  1  0  0  0  0
 27 24  1  0  0  0  0
M  END
>  <MODEL>
3

>  <REMARK>
 VINA RESULT:      -5.8      3.053      5.409
  Name = 
  3 active torsions:
  status: ('A' for Active; 'I' for Inactive)
    1  A    between atoms: O_3  and  C_19
    2  A    between atoms: O_3  and  C_26
    3  A    between atoms: C_9  and  C_15
                            x       y       z     vdW  Elec       q    Type
                         _______ _______ _______ _____ _____    ______ ____

>  <TORSDO>
F 3

$$$$
=
 OpenBabel11052423173D

 27 31  0  0  1  0  0  0  0  0999 V2000
  160.6060  209.3640  152.8330 C   0  0  0  0  0  0  0  0  0  0  0  0
  161.2810  212.6280  150.0340 S   0  0  0  0  0  0  0  0  0  0  0  0
  162.4100  211.8020  147.6690 N   0  0  0  0  0  1  0  0  0  0  0  0
  160.2150  210.7100  153.2480 C   0  0  0  0  0  0  0  0  0  0  0  0
  161.8760  210.2100  149.5140 C   0  0  0  0  0  0  0  0  0  0  0  0
  162.4390  208.7910  148.6370 Cl  0  0  0  0  0  0  0  0  0  0  0  0
  161.3330  210.1940  150.8120 C   0  0  0  0  0  0  0  0  0  0  0  0
  160.0290  209.6010  154.0980 C   0  0  2  0  0  3  0  0  0  0  0  0
  161.9110  211.4890  148.9640 C   0  0  0  0  0  0  0  0  0  0  0  0
  160.9340  211.5300  151.2560 C   0  0  0  0  0  0  0  0  0  0  0  0
  161.1730  209.0230  151.6380 C   0  0  0  0  0  0  0  0  0  0  0  0
  160.3440  211.8620  152.5250 C   0  0  0  0  0  3  0  0  0  0  0  0
  162.9020  209.5980  157.2600 N   0  0  0  0  0  0  0  0  0  0  0  0
  161.0700  209.5740  155.1830 C   0  0  0  0  0  0  0  0  0  0  0  0
  161.9430  210.6560  155.3450 C   0  0  0  0  0  3  0  0  0  0  0  0
  162.8660  210.6450  156.3930 C   0  0  0  0  0  3  0  0  0  0  0  0
  162.0540  208.5430  157.1360 C   0  0  0  0  0  3  0  0  0  0  0  0
  161.1170  208.5150  156.1010 C   0  0  0  0  0  3  0  0  0  0  0  0
  161.5570  207.7320  151.2720 O   0  0  0  0  0  0  0  0  0  0  0  0
  161.3970  205.6740  153.4850 O   0  0  0  0  0  1  0  0  0  0  0  0
  161.1420  205.0370  147.8320 C   0  0  0  0  0  1  0  0  0  0  0  0
  161.4630  205.3880  149.2700 C   0  0  1  0  0  3  0  0  0  0  0  0
  161.2790  205.5110  152.1120 C   0  0  0  0  0  0  0  0  0  0  0  0
  160.3170  206.1920  149.8670 C   0  0  0  0  0  2  0  0  0  0  0  0
  161.6360  204.1090  150.0800 C   0  0  0  0  0  2  0  0  0  0  0  0
  161.7650  204.3990  151.5490 C   0  0  0  0  0  3  0  0  0  0  0  0
  160.6640  206.6240  151.2980 C   0  0  2  0  0  3  0  0  0  0  0  0
  1  4  1  0  0  0  0
  1  8  1  0  0  0  0
  2 10  1  0  0  0  0
  3  9  1  0  0  0  0
  4  8  1  0  0  0  0
  5  7  1  0  0  0  0
  6  5  1  0  0  0  0
  7 10  2  0  0  0  0
  7 11  1  0  0  0  0
  8 14  1  1  0  0  0
  9  5  2  0  0  0  0
  9  2  1  0  0  0  0
 10 12  1  0  0  0  0
 11  1  2  0  0  0  0
 12  4  2  0  0  0  0
 14 15  2  0  0  0  0
 14 18  1  0  0  0  0
 15 16  1  0  0  0  0
 16 13  2  0  0  0  0
 17 13  1  0  0  0  0
 18 17  2  0  0  0  0
 19 11  1  0  0  0  0
 22 21  1  6  0  0  0
 22 24  1  0  0  0  0
 22 25  1  0  0  0  0
 23 20  1  0  0  0  0
 24 27  1  0  0  0  0
 25 26  1  0  0  0  0
 26 23  2  0  0  0  0
 27 19  1  6  0  0  0
 27 23  1  0  0  0  0
M  END
>  <MODEL>
4

>  <REMARK>
 VINA RESULT:      -5.6      2.945      6.329
  Name = 
  3 active torsions:
  status: ('A' for Active; 'I' for Inactive)
    1  A    between atoms: O_3  and  C_19
    2  A    between atoms: O_3  and  C_26
    3  A    between atoms: C_9  and  C_15
                            x       y       z     vdW  Elec       q    Type
                         _______ _______ _______ _____ _____    ______ ____

>  <TORSDO>
F 3

$$$$
=
 OpenBabel11052423173D

 27 31  0  0  1  0  0  0  0  0999 V2000
  159.7750  212.5210  151.7420 C   0  0  0  0  0  0  0  0  0  0  0  0
  157.8730  213.6110  155.5010 S   0  0  0  0  0  0  0  0  0  0  0  0
  157.6760  211.5070  157.2580 N   0  0  0  0  0  1  0  0  0  0  0  0
  159.3420  213.9070  151.9090 C   0  0  0  0  0  0  0  0  0  0  0  0
  158.7110  211.2630  155.0010 C   0  0  0  0  0  0  0  0  0  0  0  0
  159.1020  209.5590  155.2150 Cl  0  0  0  0  0  0  0  0  0  0  0  0
  159.0020  212.0190  153.8520 C   0  0  0  0  0  0  0  0  0  0  0  0
  159.9650  213.4760  150.7210 C   0  0  2  0  0  3  0  0  0  0  0  0
  158.0850  212.0140  155.9930 C   0  0  0  0  0  0  0  0  0  0  0  0
  158.5760  213.4130  153.9890 C   0  0  0  0  0  0  0  0  0  0  0  0
  159.6390  211.5190  152.6600 C   0  0  0  0  0  0  0  0  0  0  0  0
  158.7260  214.4480  153.0030 C   0  0  0  0  0  3  0  0  0  0  0  0
  157.0960  213.1110  147.5780 N   0  0  0  0  0  0  0  0  0  0  0  0
  158.9590  213.3000  149.6190 C   0  0  0  0  0  0  0  0  0  0  0  0
  157.5890  213.3600  149.9020 C   0  0  0  0  0  3  0  0  0  0  0  0
  156.6650  213.2540  148.8600 C   0  0  0  0  0  3  0  0  0  0  0  0
  158.4190  213.0660  147.2730 C   0  0  0  0  0  3  0  0  0  0  0  0
  159.3750  213.1680  148.2860 C   0  0  0  0  0  3  0  0  0  0  0  0
  160.0440  210.1960  152.4680 O   0  0  0  0  0  0  0  0  0  0  0  0
  162.0640  210.6230  150.2550 O   0  0  0  0  0  1  0  0  0  0  0  0
  161.1910  206.1220  153.6320 C   0  0  0  0  0  1  0  0  0  0  0  0
  161.1060  207.3100  152.6960 C   0  0  1  0  0  3  0  0  0  0  0  0
  161.8970  209.5410  151.1080 C   0  0  0  0  0  0  0  0  0  0  0  0
  161.5640  208.5660  153.4240 C   0  0  0  0  0  2  0  0  0  0  0  0
  162.0200  207.0800  151.4980 C   0  0  0  0  0  2  0  0  0  0  0  0
  162.1210  208.3080  150.6380 C   0  0  0  0  0  3  0  0  0  0  0  0
  161.4070  209.7910  152.5140 C   0  0  2  0  0  3  0  0  0  0  0  0
  1  4  2  0  0  0  0
  1 11  1  0  0  0  0
  2  9  1  0  0  0  0
  4 12  1  0  0  0  0
  5  6  1  0  0  0  0
  5  9  2  0  0  0  0
  7 10  1  0  0  0  0
  7  5  1  0  0  0  0
  8 14  1  6  0  0  0
  8  1  1  0  0  0  0
  8  4  1  0  0  0  0
  9  3  1  0  0  0  0
 10  2  1  0  0  0  0
 11  7  2  0  0  0  0
 12 10  2  0  0  0  0
 13 16  1  0  0  0  0
 14 15  1  0  0  0  0
 16 15  2  0  0  0  0
 17 13  2  0  0  0  0
 17 18  1  0  0  0  0
 18 14  2  0  0  0  0
 19 11  1  0  0  0  0
 20 23  1  0  0  0  0
 22 24  1  0  0  0  0
 22 21  1  1  0  0  0
 23 27  1  0  0  0  0
 25 22  1  0  0  0  0
 26 23  2  0  0  0  0
 26 25  1  0  0  0  0
 27 19  1  6  0  0  0
 27 24  1  0  0  0  0
M  END
>  <MODEL>
5

>  <REMARK>
 VINA RESULT:      -5.4      4.483      6.778
  Name = 
  3 active torsions:
  status: ('A' for Active; 'I' for Inactive)
    1  A    between atoms: O_3  and  C_19
    2  A    between atoms: O_3  and  C_26
    3  A    between atoms: C_9  and  C_15
                            x       y       z     vdW  Elec       q    Type
                         _______ _______ _______ _____ _____    ______ ____

>  <TORSDO>
F 3

$$$$
=
 OpenBabel11052423173D

 27 31  0  0  1  0  0  0  0  0999 V2000
  161.5080  208.8990  151.8100 C   0  0  0  0  0  0  0  0  0  0  0  0
  160.0720  212.9620  151.2110 S   0  0  0  0  0  0  0  0  0  0  0  0
  158.2010  213.7290  153.0740 N   0  0  0  0  0  1  0  0  0  0  0  0
  162.0620  209.6590  150.6920 C   0  0  0  0  0  0  0  0  0  0  0  0
  159.2530  211.4660  153.0980 C   0  0  0  0  0  0  0  0  0  0  0  0
  158.3840  210.9280  154.5320 Cl  0  0  0  0  0  0  0  0  0  0  0  0
  160.1910  210.6960  152.3860 C   0  0  0  0  0  0  0  0  0  0  0  0
  162.4760  208.3370  150.9510 C   0  0  2  0  0  3  0  0  0  0  0  0
  159.0860  212.7400  152.5600 C   0  0  0  0  0  0  0  0  0  0  0  0
  160.7610  211.4320  151.2570 C   0  0  0  0  0  0  0  0  0  0  0  0
  160.5700  209.3410  152.6980 C   0  0  0  0  0  0  0  0  0  0  0  0
  161.7450  210.9390  150.3320 C   0  0  0  0  0  3  0  0  0  0  0  0
  160.8120  205.5440  148.1800 N   0  0  0  0  0  0  0  0  0  0  0  0
  161.8480  207.3760  149.9800 C   0  0  0  0  0  0  0  0  0  0  0  0
  161.9720  207.5890  148.6020 C   0  0  0  0  0  3  0  0  0  0  0  0
  161.4350  206.6580  147.7100 C   0  0  0  0  0  3  0  0  0  0  0  0
  160.6930  205.3040  149.5120 C   0  0  0  0  0  3  0  0  0  0  0  0
  161.2160  206.2100  150.4370 C   0  0  0  0  0  3  0  0  0  0  0  0
  160.0410  208.5870  153.7480 O   0  0  0  0  0  0  0  0  0  0  0  0
  159.0350  206.7790  155.9560 O   0  0  0  0  0  1  0  0  0  0  0  0
  162.7800  211.0660  156.1190 C   0  0  0  0  0  1  0  0  0  0  0  0
  161.6060  210.1320  155.9100 C   0  0  1  0  0  3  0  0  0  0  0  0
  159.9900  207.7860  155.9990 C   0  0  0  0  0  0  0  0  0  0  0  0
  162.0440  208.9420  155.0670 C   0  0  0  0  0  2  0  0  0  0  0  0
  161.1160  209.6200  157.2590 C   0  0  0  0  0  2  0  0  0  0  0  0
  160.0800  208.5440  157.0980 C   0  0  0  0  0  3  0  0  0  0  0  0
  160.8460  208.0290  154.7800 C   0  0  2  0  0  3  0  0  0  0  0  0
  1 11  1  0  0  0  0
  2 10  1  0  0  0  0
  2  9  1  0  0  0  0
  4  8  1  0  0  0  0
  4  1  2  0  0  0  0
  5  6  1  0  0  0  0
  7 11  2  0  0  0  0
  7  5  1  0  0  0  0
  8 14  1  6  0  0  0
  8  1  1  0  0  0  0
  9  3  1  0  0  0  0
  9  5  2  0  0  0  0
 10  7  1  0  0  0  0
 11 19  1  0  0  0  0
 12  4  1  0  0  0  0
 12 10  2  0  0  0  0
 13 17  1  0  0  0  0
 14 18  1  0  0  0  0
 15 14  2  0  0  0  0
 16 13  2  0  0  0  0
 16 15  1  0  0  0  0
 17 18  2  0  0  0  0
 20 23  1  0  0  0  0
 22 21  1  1  0  0  0
 22 25  1  0  0  0  0
 23 26  2  0  0  0  0
 24 22  1  0  0  0  0
 26 25  1  0  0  0  0
 27 19  1  6  0  0  0
 27 24  1  0  0  0  0
 27 23  1  0  0  0  0
M  END
>  <MODEL>
6

>  <REMARK>
 VINA RESULT:      -5.3      3.057      5.525
  Name = 
  3 active torsions:
  status: ('A' for Active; 'I' for Inactive)
    1  A    between atoms: O_3  and  C_19
    2  A    between atoms: O_3  and  C_26
    3  A    between atoms: C_9  and  C_15
                            x       y       z     vdW  Elec       q    Type
                         _______ _______ _______ _____ _____    ______ ____

>  <TORSDO>
F 3

$$$$
=
 OpenBabel11052423173D

 27 31  0  0  1  0  0  0  0  0999 V2000
  161.6560  210.2720  152.5750 C   0  0  0  0  0  0  0  0  0  0  0  0
  161.0610  206.1600  151.2830 S   0  0  0  0  0  0  0  0  0  0  0  0
  161.5860  205.7830  148.6110 N   0  0  0  0  0  1  0  0  0  0  0  0
  161.2230  209.2990  153.5760 C   0  0  0  0  0  0  0  0  0  0  0  0
  161.8190  208.0100  149.7120 C   0  0  0  0  0  0  0  0  0  0  0  0
  162.3570  208.8300  148.2490 Cl  0  0  0  0  0  0  0  0  0  0  0  0
  161.6630  208.6230  150.9680 C   0  0  0  0  0  0  0  0  0  0  0  0
  161.4370  210.6500  153.9160 C   0  0  2  0  0  3  0  0  0  0  0  0
  161.5190  206.6510  149.7370 C   0  0  0  0  0  0  0  0  0  0  0  0
  161.2280  207.6720  151.9920 C   0  0  0  0  0  0  0  0  0  0  0  0
  161.8930  210.0170  151.2540 C   0  0  0  0  0  0  0  0  0  0  0  0
  160.9790  207.9690  153.3760 C   0  0  0  0  0  3  0  0  0  0  0  0
  157.7730  212.8180  154.2620 N   0  0  0  0  0  0  0  0  0  0  0  0
  160.1320  211.3800  154.0690 C   0  0  0  0  0  0  0  0  0  0  0  0
  160.0290  212.4570  154.9570 C   0  0  0  0  0  3  0  0  0  0  0  0
  158.8280  213.1650  155.0460 C   0  0  0  0  0  3  0  0  0  0  0  0
  157.8500  211.7870  153.3800 C   0  0  0  0  0  3  0  0  0  0  0  0
  159.0330  211.0550  153.2600 C   0  0  0  0  0  3  0  0  0  0  0  0
  162.2860  210.9690  150.3120 O   0  0  0  0  0  0  0  0  0  0  0  0
  163.0700  211.9050  147.5420 O   0  0  0  0  0  1  0  0  0  0  0  0
  159.5020  214.2040  151.3390 C   0  0  0  0  0  1  0  0  0  0  0  0
  160.6480  213.5690  150.5790 C   0  0  1  0  0  3  0  0  0  0  0  0
  162.1570  212.4470  148.4370 C   0  0  0  0  0  0  0  0  0  0  0  0
  160.2170  212.2080  150.0510 C   0  0  0  0  0  2  0  0  0  0  0  0
  161.0280  214.4530  149.3970 C   0  0  0  0  0  2  0  0  0  0  0  0
  162.0270  213.7770  148.5010 C   0  0  0  0  0  3  0  0  0  0  0  0
  161.3930  211.5170  149.3490 C   0  0  2  0  0  3  0  0  0  0  0  0
  1  4  1  0  0  0  0
  1  8  1  0  0  0  0
  2 10  1  0  0  0  0
  3  9  1  0  0  0  0
  4  8  1  0  0  0  0
  5  9  2  0  0  0  0
  5  7  1  0  0  0  0
  6  5  1  0  0  0  0
  7 11  1  0  0  0  0
  7 10  2  0  0  0  0
  8 14  1  6  0  0  0
  9  2  1  0  0  0  0
 10 12  1  0  0  0  0
 11  1  2  0  0  0  0
 12  4  2  0  0  0  0
 13 16  1  0  0  0  0
 14 15  1  0  0  0  0
 15 16  2  0  0  0  0
 17 13  2  0  0  0  0
 18 17  1  0  0  0  0
 18 14  2  0  0  0  0
 19 11  1  0  0  0  0
 20 23  1  0  0  0  0
 22 21  1  6  0  0  0
 23 26  2  0  0  0  0
 23 27  1  0  0  0  0
 24 22  1  0  0  0  0
 25 22  1  0  0  0  0
 26 25  1  0  0  0  0
 27 24  1  0  0  0  0
 27 19  1  1  0  0  0
M  END
>  <MODEL>
7

>  <REMARK>
 VINA RESULT:      -5.0      3.758      8.321
  Name = 
  3 active torsions:
  status: ('A' for Active; 'I' for Inactive)
    1  A    between atoms: O_3  and  C_19
    2  A    between atoms: O_3  and  C_26
    3  A    between atoms: C_9  and  C_15
                            x       y       z     vdW  Elec       q    Type
                         _______ _______ _______ _____ _____    ______ ____

>  <TORSDO>
F 3

$$$$
=
 OpenBabel11052423173D

 27 31  0  0  1  0  0  0  0  0999 V2000
  160.8310  210.4970  154.6110 C   0  0  0  0  0  0  0  0  0  0  0  0
  161.2600  206.3190  153.4740 S   0  0  0  0  0  0  0  0  0  0  0  0
  161.7200  205.9760  150.7860 N   0  0  0  0  0  1  0  0  0  0  0  0
  160.7220  209.4900  155.6640 C   0  0  0  0  0  0  0  0  0  0  0  0
  161.4230  208.2330  151.8070 C   0  0  0  0  0  0  0  0  0  0  0  0
  161.6490  209.0990  150.2910 Cl  0  0  0  0  0  0  0  0  0  0  0  0
  161.1810  208.8380  153.0540 C   0  0  0  0  0  0  0  0  0  0  0  0
  160.5940  210.8630  155.9530 C   0  0  2  0  0  3  0  0  0  0  0  0
  161.4890  206.8440  151.8890 C   0  0  0  0  0  0  0  0  0  0  0  0
  161.0650  207.8520  154.1290 C   0  0  0  0  0  0  0  0  0  0  0  0
  161.0540  210.2550  153.2860 C   0  0  0  0  0  0  0  0  0  0  0  0
  160.8220  208.1340  155.5180 C   0  0  0  0  0  3  0  0  0  0  0  0
  156.5170  212.0250  156.4740 N   0  0  0  0  0  0  0  0  0  0  0  0
  159.1540  211.2360  156.1680 C   0  0  0  0  0  0  0  0  0  0  0  0
  158.8200  212.2650  157.0580 C   0  0  0  0  0  3  0  0  0  0  0  0
  157.4840  212.6420  157.2040 C   0  0  0  0  0  3  0  0  0  0  0  0
  156.8140  211.0360  155.5910 C   0  0  0  0  0  3  0  0  0  0  0  0
  158.1380  210.6290  155.4150 C   0  0  0  0  0  3  0  0  0  0  0  0
  161.1340  211.2350  152.2940 O   0  0  0  0  0  0  0  0  0  0  0  0
  161.2960  212.2750  149.4570 O   0  0  0  0  0  1  0  0  0  0  0  0
  158.0520  213.9620  153.8220 C   0  0  0  0  0  1  0  0  0  0  0  0
  159.1500  213.5230  152.8760 C   0  0  1  0  0  3  0  0  0  0  0  0
  160.4610  212.6600  150.4970 C   0  0  0  0  0  0  0  0  0  0  0  0
  158.8730  212.1070  152.3940 C   0  0  0  0  0  2  0  0  0  0  0  0
  159.1830  214.4530  151.6680 C   0  0  0  0  0  2  0  0  0  0  0  0
  160.1230  213.9500  150.6100 C   0  0  0  0  0  3  0  0  0  0  0  0
  160.0190  211.6200  151.4980 C   0  0  2  0  0  3  0  0  0  0  0  0
  1  4  1  0  0  0  0
  1  8  1  0  0  0  0
  2 10  1  0  0  0  0
  3  9  1  0  0  0  0
  4  8  1  0  0  0  0
  5  9  2  0  0  0  0
  5  7  1  0  0  0  0
  6  5  1  0  0  0  0
  7 11  1  0  0  0  0
  7 10  2  0  0  0  0
  8 14  1  6  0  0  0
  9  2  1  0  0  0  0
 10 12  1  0  0  0  0
 11  1  2  0  0  0  0
 12  4  2  0  0  0  0
 13 16  1  0  0  0  0
 14 15  1  0  0  0  0
 15 16  2  0  0  0  0
 17 13  2  0  0  0  0
 18 17  1  0  0  0  0
 18 14  2  0  0  0  0
 19 11  1  0  0  0  0
 20 23  1  0  0  0  0
 22 21  1  1  0  0  0
 23 26  2  0  0  0  0
 23 27  1  0  0  0  0
 24 22  1  0  0  0  0
 25 22  1  0  0  0  0
 26 25  1  0  0  0  0
 27 19  1  1  0  0  0
 27 24  1  0  0  0  0
M  END
>  <MODEL>
8

>  <REMARK>
 VINA RESULT:      -5.0      4.660      9.116
  Name = 
  3 active torsions:
  status: ('A' for Active; 'I' for Inactive)
    1  A    between atoms: O_3  and  C_19
    2  A    between atoms: O_3  and  C_26
    3  A    between atoms: C_9  and  C_15
                            x       y       z     vdW  Elec       q    Type
                         _______ _______ _______ _____ _____    ______ ____

>  <TORSDO>
F 3

$$$$
=
 OpenBabel11052423173D

 27 31  0  0  1  0  0  0  0  0999 V2000
  161.8790  209.4170  152.1990 C   0  0  0  0  0  0  0  0  0  0  0  0
  161.2610  209.1150  156.4950 S   0  0  0  0  0  0  0  0  0  0  0  0
  160.0800  206.7510  157.2500 N   0  0  0  0  0  1  0  0  0  0  0  0
  162.3130  210.5380  153.0300 C   0  0  0  0  0  0  0  0  0  0  0  0
  160.5930  207.2800  154.8660 C   0  0  0  0  0  0  0  0  0  0  0  0
  159.9800  205.7470  154.2520 Cl  0  0  0  0  0  0  0  0  0  0  0  0
  161.1520  208.3010  154.0760 C   0  0  0  0  0  0  0  0  0  0  0  0
  162.4780  210.5610  151.6300 C   0  0  2  0  0  3  0  0  0  0  0  0
  160.5870  207.5950  156.2230 C   0  0  0  0  0  0  0  0  0  0  0  0
  161.5930  209.4400  154.8820 C   0  0  0  0  0  0  0  0  0  0  0  0
  161.2890  208.2680  152.6410 C   0  0  0  0  0  0  0  0  0  0  0  0
  162.2070  210.6420  154.3890 C   0  0  0  0  0  3  0  0  0  0  0  0
  159.6240  213.1840  149.8360 N   0  0  0  0  0  0  0  0  0  0  0  0
  161.4510  211.4450  150.9810 C   0  0  0  0  0  0  0  0  0  0  0  0
  160.3640  211.9230  151.7240 C   0  0  0  0  0  3  0  0  0  0  0  0
  159.4490  212.7920  151.1260 C   0  0  0  0  0  3  0  0  0  0  0  0
  160.6790  212.7500  149.0970 C   0  0  0  0  0  3  0  0  0  0  0  0
  161.6160  211.8800  149.6580 C   0  0  0  0  0  3  0  0  0  0  0  0
  160.8650  207.2180  151.8240 O   0  0  0  0  0  0  0  0  0  0  0  0
  161.0860  207.7600  148.8550 O   0  0  0  0  0  1  0  0  0  0  0  0
  161.0670  202.8340  151.7120 C   0  0  0  0  0  1  0  0  0  0  0  0
  160.8190  204.2120  151.1350 C   0  0  1  0  0  3  0  0  0  0  0  0
  161.1370  206.5560  149.5440 C   0  0  0  0  0  0  0  0  0  0  0  0
  162.0070  205.1140  151.4380 C   0  0  0  0  0  2  0  0  0  0  0  0
  160.6580  204.1090  149.6220 C   0  0  0  0  0  2  0  0  0  0  0  0
  160.6030  205.4670  148.9790 C   0  0  0  0  0  3  0  0  0  0  0  0
  161.7360  206.5350  150.9290 C   0  0  2  0  0  3  0  0  0  0  0  0
  1 11  2  0  0  0  0
  1  4  1  0  0  0  0
  4 12  2  0  0  0  0
  5  9  2  0  0  0  0
  6  5  1  0  0  0  0
  7  5  1  0  0  0  0
  7 10  2  0  0  0  0
  8 14  1  6  0  0  0
  8  1  1  0  0  0  0
  8  4  1  0  0  0  0
  9  2  1  0  0  0  0
  9  3  1  0  0  0  0
 10  2  1  0  0  0  0
 11  7  1  0  0  0  0
 12 10  1  0  0  0  0
 13 16  1  0  0  0  0
 14 15  1  0  0  0  0
 16 15  2  0  0  0  0
 17 18  1  0  0  0  0
 17 13  2  0  0  0  0
 18 14  2  0  0  0  0
 19 11  1  0  0  0  0
 20 23  1  0  0  0  0
 22 24  1  0  0  0  0
 22 21  1  6  0  0  0
 23 27  1  0  0  0  0
 25 22  1  0  0  0  0
 26 23  2  0  0  0  0
 26 25  1  0  0  0  0
 27 24  1  0  0  0  0
 27 19  1  1  0  0  0
M  END
>  <MODEL>
9

>  <REMARK>
 VINA RESULT:      -5.0      3.117      5.234
  Name = 
  3 active torsions:
  status: ('A' for Active; 'I' for Inactive)
    1  A    between atoms: O_3  and  C_19
    2  A    between atoms: O_3  and  C_26
    3  A    between atoms: C_9  and  C_15
                            x       y       z     vdW  Elec       q    Type
                         _______ _______ _______ _____ _____    ______ ____

>  <TORSDO>
F 3

$$$$
