=
 OpenBabel11062409373D

 34 39  0  0  1  0  0  0  0  0999 V2000
  160.8640  212.2430  150.3560 C   0  0  0  0  0  0  0  0  0  0  0  0
  160.7950  214.3700  147.3100 C   0  0  0  0  0  3  0  0  0  0  0  0
  159.5360  214.4430  149.3300 N   0  0  0  0  0  0  0  0  0  0  0  0
  161.3250  210.2090  151.8110 C   0  0  0  0  0  0  0  0  0  0  0  0
  161.6540  211.1100  150.8840 C   0  0  0  0  0  3  0  0  0  0  0  0
  159.2090  211.1400  152.7560 C   0  0  0  0  0  3  0  0  0  0  0  0
  158.9240  213.4990  153.3170 C   0  0  0  0  0  1  0  0  0  0  0  0
  160.0200  210.1260  152.4810 C   0  0  0  0  0  3  0  0  0  0  0  0
  159.2320  213.9820  150.5410 N   0  0  0  0  0  0  0  0  0  0  0  0
  159.8520  212.8990  151.0910 C   0  0  0  0  0  0  0  0  0  0  0  0
  159.4830  212.5000  152.4200 N   0  0  0  0  0  0  0  0  0  0  0  0
  161.7900  213.7830  146.5230 C   0  0  0  0  0  0  0  0  0  0  0  0
  162.4880  212.6720  147.0210 C   0  0  0  0  0  3  0  0  0  0  0  0
  160.4950  213.8600  148.5770 C   0  0  0  0  0  0  0  0  0  0  0  0
  162.1920  212.1570  148.2860 C   0  0  0  0  0  3  0  0  0  0  0  0
  161.1920  212.7450  149.0790 C   0  0  0  0  0  0  0  0  0  0  0  0
  162.2960  209.1070  152.0750 C   0  0  0  0  0  2  0  0  0  0  0  0
  161.1840  206.7470  149.3220 C   0  0  0  0  0  3  0  0  0  0  0  0
  161.8020  206.6510  152.0570 C   0  0  0  0  0  3  0  0  0  0  0  0
  160.6130  203.1590  150.0430 C   0  0  0  0  0  0  0  0  0  0  0  0
  160.6960  204.3740  149.3490 C   0  0  0  0  0  3  0  0  0  0  0  0
  161.0940  205.5370  150.0140 C   0  0  0  0  0  0  0  0  0  0  0  0
  161.3060  204.2800  152.0850 C   0  0  0  0  0  3  0  0  0  0  0  0
  161.4050  205.4880  151.3920 C   0  0  0  0  0  0  0  0  0  0  0  0
  160.9070  203.1200  151.4140 C   0  0  0  0  0  3  0  0  0  0  0  0
  161.8960  207.8600  151.3580 C   0  0  0  0  0  0  0  0  0  0  0  0
  161.5830  207.9070  149.9940 C   0  0  0  0  0  3  0  0  0  0  0  0
  160.1510  201.9200  149.3430 C   0  0  2  0  0  3  0  0  0  0  0  0
  161.2960  201.0390  149.0180 C   0  0  0  0  0  2  0  0  0  0  0  0
  160.7090  201.8700  148.0490 O   0  0  0  0  0  0  0  0  0  0  0  0
  162.0500  214.3360  145.2590 O   0  0  0  0  0  0  0  0  0  0  0  0
  163.8910  213.8970  143.9040 O   0  0  0  0  0  0  0  0  0  0  0  0
  161.8990  212.7330  143.3610 C   0  0  0  0  0  1  0  0  0  0  0  0
  162.6810  213.6890  144.1860 C   0  0  0  0  0  0  0  0  0  0  0  0
  1  5  1  0  0  0  0
  1 10  1  0  0  0  0
  2 14  1  0  0  0  0
  3  9  1  0  0  0  0
  4 17  1  0  0  0  0
  4  8  1  0  0  0  0
  5  4  2  0  0  0  0
  8  6  2  0  0  0  0
  9 10  2  0  0  0  0
 10 11  1  0  0  0  0
 11  6  1  0  0  0  0
 11  7  1  0  0  0  0
 12 13  1  0  0  0  0
 12  2  2  0  0  0  0
 13 15  2  0  0  0  0
 14 16  1  0  0  0  0
 14  3  2  0  0  0  0
 15 16  1  0  0  0  0
 16  1  2  0  0  0  0
 18 27  2  0  0  0  0
 18 22  1  0  0  0  0
 20 25  1  0  0  0  0
 21 22  1  0  0  0  0
 21 20  2  0  0  0  0
 22 24  2  0  0  0  0
 24 19  1  0  0  0  0
 24 23  1  0  0  0  0
 25 23  2  0  0  0  0
 26 19  2  0  0  0  0
 26 17  1  0  0  0  0
 27 26  1  0  0  0  0
 28 20  1  1  0  0  0
 29 28  1  0  0  0  0
 30 29  1  0  0  0  0
 30 28  1  0  0  0  0
 31 12  1  0  0  0  0
 32 34  2  0  0  0  0
 33 34  1  0  0  0  0
 34 31  1  0  0  0  0
M  END
>  <MODEL>
1

>  <REMARK>
 VINA RESULT:      -9.3      0.000      0.000
  Name = 
  5 active torsions:
  status: ('A' for Active; 'I' for Inactive)
    1  A    between atoms: C_7  and  C_11
    2  A    between atoms: C_8  and  C_18
    3  A    between atoms: C_18  and  C_30
    4  A    between atoms: O_23  and  C_24
    5  A    between atoms: O_23  and  C_25
                            x       y       z     vdW  Elec       q    Type
                         _______ _______ _______ _____ _____    ______ ____

>  <TORSDO>
F 5

$$$$
=
 OpenBabel11062409373D

 34 39  0  0  1  0  0  0  0  0999 V2000
  160.6010  209.8640  153.6300 C   0  0  0  0  0  0  0  0  0  0  0  0
  160.2040  212.8200  151.4130 C   0  0  0  0  0  3  0  0  0  0  0  0
  159.5440  212.4210  153.6660 N   0  0  0  0  0  0  0  0  0  0  0  0
  160.9820  207.4390  154.2930 C   0  0  0  0  0  0  0  0  0  0  0  0
  161.2450  208.5340  153.5780 C   0  0  0  0  0  3  0  0  0  0  0  0
  159.4190  208.2890  156.0450 C   0  0  0  0  0  3  0  0  0  0  0  0
  159.7850  210.3740  157.2610 C   0  0  0  0  0  1  0  0  0  0  0  0
  159.9030  207.3170  155.2820 C   0  0  0  0  0  3  0  0  0  0  0  0
  159.4700  211.6500  154.7490 N   0  0  0  0  0  0  0  0  0  0  0  0
  159.9700  210.3820  154.7820 C   0  0  0  0  0  0  0  0  0  0  0  0
  159.8760  209.6410  156.0090 N   0  0  0  0  0  0  0  0  0  0  0  0
  160.8220  212.3860  150.2370 C   0  0  0  0  0  0  0  0  0  0  0  0
  161.3750  211.0970  150.1920 C   0  0  0  0  0  3  0  0  0  0  0  0
  160.1370  211.9840  152.5320 C   0  0  0  0  0  0  0  0  0  0  0  0
  161.3100  210.2570  151.3060 C   0  0  0  0  0  3  0  0  0  0  0  0
  160.6900  210.6910  152.4910 C   0  0  0  0  0  0  0  0  0  0  0  0
  161.7360  206.1970  153.9520 C   0  0  0  0  0  2  0  0  0  0  0  0
  160.8900  204.1880  150.8480 C   0  0  0  0  0  3  0  0  0  0  0  0
  161.8550  206.7390  151.5100 C   0  0  0  0  0  3  0  0  0  0  0  0
  161.3450  205.6590  147.4800 C   0  0  0  0  0  0  0  0  0  0  0  0
  161.0380  204.7430  148.4940 C   0  0  0  0  0  3  0  0  0  0  0  0
  161.2030  205.0990  149.8360 C   0  0  0  0  0  0  0  0  0  0  0  0
  162.0100  207.2890  149.1550 C   0  0  0  0  0  3  0  0  0  0  0  0
  161.6890  206.3840  150.1680 C   0  0  0  0  0  0  0  0  0  0  0  0
  161.8430  206.9270  147.8150 C   0  0  0  0  0  3  0  0  0  0  0  0
  161.5350  205.8260  152.5200 C   0  0  0  0  0  0  0  0  0  0  0  0
  161.0580  204.5510  152.1890 C   0  0  0  0  0  3  0  0  0  0  0  0
  161.2060  205.2680  146.0420 C   0  0  2  0  0  3  0  0  0  0  0  0
  162.3320  204.4030  145.6190 C   0  0  0  0  0  2  0  0  0  0  0  0
  162.2970  205.7730  145.3060 O   0  0  0  0  0  0  0  0  0  0  0  0
  160.8610  213.2650  149.1430 O   0  0  0  0  0  0  0  0  0  0  0  0
  160.6000  212.4590  146.9750 O   0  0  0  0  0  0  0  0  0  0  0  0
  162.7570  213.2680  147.5310 C   0  0  0  0  0  1  0  0  0  0  0  0
  161.3390  212.9690  147.8580 C   0  0  0  0  0  0  0  0  0  0  0  0
  1 10  1  0  0  0  0
  2 14  1  0  0  0  0
  3  9  1  0  0  0  0
  4  8  1  0  0  0  0
  5  1  1  0  0  0  0
  5  4  2  0  0  0  0
  8  6  2  0  0  0  0
  9 10  2  0  0  0  0
 10 11  1  0  0  0  0
 11  6  1  0  0  0  0
 11  7  1  0  0  0  0
 12  2  2  0  0  0  0
 13 12  1  0  0  0  0
 13 15  2  0  0  0  0
 14  3  2  0  0  0  0
 15 16  1  0  0  0  0
 16 14  1  0  0  0  0
 16  1  2  0  0  0  0
 17  4  1  0  0  0  0
 18 27  1  0  0  0  0
 19 26  1  0  0  0  0
 20 25  1  0  0  0  0
 20 21  2  0  0  0  0
 21 22  1  0  0  0  0
 22 24  1  0  0  0  0
 22 18  2  0  0  0  0
 23 24  1  0  0  0  0
 24 19  2  0  0  0  0
 25 23  2  0  0  0  0
 26 17  1  0  0  0  0
 27 26  2  0  0  0  0
 28 20  1  1  0  0  0
 29 28  1  0  0  0  0
 30 29  1  0  0  0  0
 30 28  1  0  0  0  0
 31 12  1  0  0  0  0
 32 34  2  0  0  0  0
 33 34  1  0  0  0  0
 34 31  1  0  0  0  0
M  END
>  <MODEL>
2

>  <REMARK>
 VINA RESULT:      -9.2      2.432      4.004
  Name = 
  5 active torsions:
  status: ('A' for Active; 'I' for Inactive)
    1  A    between atoms: C_7  and  C_11
    2  A    between atoms: C_8  and  C_18
    3  A    between atoms: C_18  and  C_30
    4  A    between atoms: O_23  and  C_24
    5  A    between atoms: O_23  and  C_25
                            x       y       z     vdW  Elec       q    Type
                         _______ _______ _______ _____ _____    ______ ____

>  <TORSDO>
F 5

$$$$
=
 OpenBabel11062409373D

 34 39  0  0  1  0  0  0  0  0999 V2000
  160.9110  208.7490  152.9080 C   0  0  0  0  0  0  0  0  0  0  0  0
  159.9740  211.6890  154.9800 C   0  0  0  0  0  3  0  0  0  0  0  0
  160.9090  211.5140  152.7960 N   0  0  0  0  0  0  0  0  0  0  0  0
  161.5380  206.3470  152.3570 C   0  0  0  0  0  0  0  0  0  0  0  0
  160.8220  207.2750  152.9940 C   0  0  0  0  0  3  0  0  0  0  0  0
  162.7870  207.6860  150.6590 C   0  0  0  0  0  3  0  0  0  0  0  0
  161.7470  209.4360  149.3110 C   0  0  0  0  0  1  0  0  0  0  0  0
  162.6550  206.6230  151.4430 C   0  0  0  0  0  3  0  0  0  0  0  0
  161.3560  210.8020  151.7640 N   0  0  0  0  0  0  0  0  0  0  0  0
  161.3830  209.4380  151.7700 C   0  0  0  0  0  0  0  0  0  0  0  0
  161.8470  208.7580  150.5940 N   0  0  0  0  0  0  0  0  0  0  0  0
  159.4810  211.0820  156.1390 C   0  0  0  0  0  0  0  0  0  0  0  0
  159.4610  209.6810  156.2210 C   0  0  0  0  0  3  0  0  0  0  0  0
  160.4420  210.9130  153.9140 C   0  0  0  0  0  0  0  0  0  0  0  0
  159.9280  208.9010  155.1600 C   0  0  0  0  0  3  0  0  0  0  0  0
  160.4240  209.5080  153.9930 C   0  0  0  0  0  0  0  0  0  0  0  0
  161.2920  204.9200  152.7190 C   0  0  0  0  0  2  0  0  0  0  0  0
  160.7580  201.9070  150.4790 C   0  0  0  0  0  3  0  0  0  0  0  0
  161.3170  204.6460  150.2290 C   0  0  0  0  0  3  0  0  0  0  0  0
  160.9680  202.2460  146.7960 C   0  0  0  0  0  0  0  0  0  0  0  0
  160.8100  201.6770  148.0670 C   0  0  0  0  0  3  0  0  0  0  0  0
  160.9220  202.4720  149.2110 C   0  0  0  0  0  0  0  0  0  0  0  0
  161.3770  204.4130  147.8180 C   0  0  0  0  0  3  0  0  0  0  0  0
  161.2040  203.8510  149.0850 C   0  0  0  0  0  0  0  0  0  0  0  0
  161.2630  203.6120  146.6780 C   0  0  0  0  0  3  0  0  0  0  0  0
  161.1460  204.0760  151.4960 C   0  0  0  0  0  0  0  0  0  0  0  0
  160.8710  202.7090  151.6200 C   0  0  0  0  0  3  0  0  0  0  0  0
  160.8860  201.3910  145.5710 C   0  0  2  0  0  3  0  0  0  0  0  0
  159.7520  201.8050  144.7130 C   0  0  0  0  0  2  0  0  0  0  0  0
  159.6630  200.6900  145.5630 O   0  0  0  0  0  0  0  0  0  0  0  0
  159.0250  211.9080  157.1780 O   0  0  0  0  0  0  0  0  0  0  0  0
  158.1150  214.0500  157.2000 O   0  0  0  0  0  0  0  0  0  0  0  0
  156.5740  212.2680  156.9340 C   0  0  0  0  0  1  0  0  0  0  0  0
  157.9480  212.8040  157.1130 C   0  0  0  0  0  0  0  0  0  0  0  0
  1  5  1  0  0  0  0
  1 16  1  0  0  0  0
  2 12  1  0  0  0  0
  3 14  1  0  0  0  0
  4 17  1  0  0  0  0
  4  5  2  0  0  0  0
  6  8  2  0  0  0  0
  7 11  1  0  0  0  0
  8  4  1  0  0  0  0
  9 10  1  0  0  0  0
  9  3  2  0  0  0  0
 10  1  2  0  0  0  0
 11  6  1  0  0  0  0
 11 10  1  0  0  0  0
 12 13  2  0  0  0  0
 12 31  1  0  0  0  0
 14 16  1  0  0  0  0
 14  2  2  0  0  0  0
 15 13  1  0  0  0  0
 16 15  2  0  0  0  0
 18 27  1  0  0  0  0
 19 26  1  0  0  0  0
 20 21  2  0  0  0  0
 21 22  1  0  0  0  0
 22 18  2  0  0  0  0
 23 24  1  0  0  0  0
 24 22  1  0  0  0  0
 24 19  2  0  0  0  0
 25 20  1  0  0  0  0
 25 23  2  0  0  0  0
 26 27  2  0  0  0  0
 26 17  1  0  0  0  0
 28 20  1  1  0  0  0
 29 30  1  0  0  0  0
 29 28  1  0  0  0  0
 30 28  1  0  0  0  0
 33 34  1  0  0  0  0
 34 31  1  0  0  0  0
 34 32  2  0  0  0  0
M  END
>  <MODEL>
3

>  <REMARK>
 VINA RESULT:      -9.0      4.414      6.906
  Name = 
  5 active torsions:
  status: ('A' for Active; 'I' for Inactive)
    1  A    between atoms: C_7  and  C_11
    2  A    between atoms: C_8  and  C_18
    3  A    between atoms: C_18  and  C_30
    4  A    between atoms: O_23  and  C_24
    5  A    between atoms: O_23  and  C_25
                            x       y       z     vdW  Elec       q    Type
                         _______ _______ _______ _____ _____    ______ ____

>  <TORSDO>
F 5

$$$$
=
 OpenBabel11062409373D

 34 39  0  0  1  0  0  0  0  0999 V2000
  161.3850  208.4250  152.6550 C   0  0  0  0  0  0  0  0  0  0  0  0
  161.6640  211.2380  150.2430 C   0  0  0  0  0  3  0  0  0  0  0  0
  161.2060  211.1850  152.5790 N   0  0  0  0  0  0  0  0  0  0  0  0
  161.0610  206.0430  153.4840 C   0  0  0  0  0  0  0  0  0  0  0  0
  161.5630  206.9570  152.6510 C   0  0  0  0  0  3  0  0  0  0  0  0
  160.0860  207.4380  155.3100 C   0  0  0  0  0  3  0  0  0  0  0  0
  161.2450  209.3490  156.2930 C   0  0  0  0  0  1  0  0  0  0  0  0
  160.1350  206.3260  154.5880 C   0  0  0  0  0  3  0  0  0  0  0  0
  161.0310  210.5330  153.7270 N   0  0  0  0  0  0  0  0  0  0  0  0
  161.1030  209.1750  153.8180 C   0  0  0  0  0  0  0  0  0  0  0  0
  160.9380  208.5650  155.1070 N   0  0  0  0  0  0  0  0  0  0  0  0
  161.9560  210.5700  149.0500 C   0  0  0  0  0  0  0  0  0  0  0  0
  162.0630  209.1710  149.0600 C   0  0  0  0  0  3  0  0  0  0  0  0
  161.4800  210.5250  151.4310 C   0  0  0  0  0  0  0  0  0  0  0  0
  161.8790  208.4520  150.2440 C   0  0  0  0  0  3  0  0  0  0  0  0
  161.5850  209.1220  151.4450 C   0  0  0  0  0  0  0  0  0  0  0  0
  161.3330  204.6080  153.1740 C   0  0  0  0  0  2  0  0  0  0  0  0
  161.1660  205.2090  149.4330 C   0  0  0  0  0  3  0  0  0  0  0  0
  161.2000  203.0460  151.2210 C   0  0  0  0  0  3  0  0  0  0  0  0
  160.9590  202.3540  147.0820 C   0  0  0  0  0  0  0  0  0  0  0  0
  161.0170  203.6670  147.5710 C   0  0  0  0  0  3  0  0  0  0  0  0
  161.1010  203.9010  148.9460 C   0  0  0  0  0  0  0  0  0  0  0  0
  161.0430  201.5050  149.3580 C   0  0  0  0  0  3  0  0  0  0  0  0
  161.1170  202.8110  149.8460 C   0  0  0  0  0  0  0  0  0  0  0  0
  160.9600  201.2770  147.9810 C   0  0  0  0  0  3  0  0  0  0  0  0
  161.2710  204.3570  151.7040 C   0  0  0  0  0  0  0  0  0  0  0  0
  161.2500  205.4360  150.8110 C   0  0  0  0  0  3  0  0  0  0  0  0
  160.8310  202.1010  145.6130 C   0  0  2  0  0  3  0  0  0  0  0  0
  159.4430  201.7210  145.2620 C   0  0  0  0  0  2  0  0  0  0  0  0
  160.4590  200.7590  145.3940 O   0  0  0  0  0  0  0  0  0  0  0  0
  162.1310  211.3340  147.8860 O   0  0  0  0  0  0  0  0  0  0  0  0
  161.7220  213.6250  147.8790 O   0  0  0  0  0  0  0  0  0  0  0  0
  160.1770  212.2900  146.6770 C   0  0  0  0  0  1  0  0  0  0  0  0
  161.3890  212.4660  147.5180 C   0  0  0  0  0  0  0  0  0  0  0  0
  1 10  1  0  0  0  0
  2 14  1  0  0  0  0
  3  9  1  0  0  0  0
  4  8  1  0  0  0  0
  5  1  1  0  0  0  0
  5  4  2  0  0  0  0
  8  6  2  0  0  0  0
  9 10  2  0  0  0  0
 10 11  1  0  0  0  0
 11  6  1  0  0  0  0
 11  7  1  0  0  0  0
 12 13  1  0  0  0  0
 12  2  2  0  0  0  0
 13 15  2  0  0  0  0
 14 16  1  0  0  0  0
 14  3  2  0  0  0  0
 15 16  1  0  0  0  0
 16  1  2  0  0  0  0
 17  4  1  0  0  0  0
 18 27  1  0  0  0  0
 19 26  1  0  0  0  0
 20 21  2  0  0  0  0
 20 25  1  0  0  0  0
 21 22  1  0  0  0  0
 22 18  2  0  0  0  0
 22 24  1  0  0  0  0
 23 24  1  0  0  0  0
 24 19  2  0  0  0  0
 25 23  2  0  0  0  0
 26 17  1  0  0  0  0
 27 26  2  0  0  0  0
 28 20  1  1  0  0  0
 29 30  1  0  0  0  0
 29 28  1  0  0  0  0
 30 28  1  0  0  0  0
 31 12  1  0  0  0  0
 33 34  1  0  0  0  0
 34 32  2  0  0  0  0
 34 31  1  0  0  0  0
M  END
>  <MODEL>
4

>  <REMARK>
 VINA RESULT:      -8.8      2.281      4.057
  Name = 
  5 active torsions:
  status: ('A' for Active; 'I' for Inactive)
    1  A    between atoms: C_7  and  C_11
    2  A    between atoms: C_8  and  C_18
    3  A    between atoms: C_18  and  C_30
    4  A    between atoms: O_23  and  C_24
    5  A    between atoms: O_23  and  C_25
                            x       y       z     vdW  Elec       q    Type
                         _______ _______ _______ _____ _____    ______ ____

>  <TORSDO>
F 5

$$$$
=
 OpenBabel11062409373D

 34 39  0  0  1  0  0  0  0  0999 V2000
  160.8310  207.6120  152.2140 C   0  0  0  0  0  0  0  0  0  0  0  0
  161.3490  204.6360  150.0490 C   0  0  0  0  0  3  0  0  0  0  0  0
  161.3530  204.9020  152.4150 N   0  0  0  0  0  0  0  0  0  0  0  0
  160.7060  210.0650  152.8730 C   0  0  0  0  0  0  0  0  0  0  0  0
  160.4820  209.0390  152.0490 C   0  0  0  0  0  3  0  0  0  0  0  0
  161.4840  208.9350  154.9590 C   0  0  0  0  0  3  0  0  0  0  0  0
  160.4010  206.9530  155.8870 C   0  0  0  0  0  1  0  0  0  0  0  0
  161.4370  209.9810  154.1440 C   0  0  0  0  0  3  0  0  0  0  0  0
  161.2310  205.6440  153.5140 N   0  0  0  0  0  0  0  0  0  0  0  0
  160.9800  206.9840  153.4700 C   0  0  0  0  0  0  0  0  0  0  0  0
  160.8270  207.6930  154.7090 N   0  0  0  0  0  0  0  0  0  0  0  0
  161.2060  205.1810  148.7690 C   0  0  0  0  0  0  0  0  0  0  0  0
  160.9320  206.5500  148.6360 C   0  0  0  0  0  3  0  0  0  0  0  0
  161.2210  205.4440  151.1830 C   0  0  0  0  0  0  0  0  0  0  0  0
  160.8040  207.3620  149.7660 C   0  0  0  0  0  3  0  0  0  0  0  0
  160.9470  206.8180  151.0540 C   0  0  0  0  0  0  0  0  0  0  0  0
  160.3250  211.4260  152.3950 C   0  0  0  0  0  2  0  0  0  0  0  0
  162.3770  211.0800  149.2250 C   0  0  0  0  0  3  0  0  0  0  0  0
  160.4560  212.8120  150.3120 C   0  0  0  0  0  3  0  0  0  0  0  0
  162.0620  213.5730  146.5040 C   0  0  0  0  0  0  0  0  0  0  0  0
  162.4910  212.4560  147.2340 C   0  0  0  0  0  3  0  0  0  0  0  0
  161.9560  212.1970  148.4990 C   0  0  0  0  0  0  0  0  0  0  0  0
  160.5750  214.1910  148.3240 C   0  0  0  0  0  3  0  0  0  0  0  0
  160.9890  213.0700  149.0460 C   0  0  0  0  0  0  0  0  0  0  0  0
  161.1140  214.4450  147.0590 C   0  0  0  0  0  3  0  0  0  0  0  0
  160.8760  211.6880  151.0320 C   0  0  0  0  0  0  0  0  0  0  0  0
  161.8390  210.8270  150.4910 C   0  0  0  0  0  3  0  0  0  0  0  0
  162.6590  213.8750  145.1650 C   0  0  2  0  0  3  0  0  0  0  0  0
  161.6020  214.0550  144.1440 C   0  0  0  0  0  2  0  0  0  0  0  0
  162.3210  212.8530  144.2540 O   0  0  0  0  0  0  0  0  0  0  0  0
  161.3450  204.3260  147.6640 O   0  0  0  0  0  0  0  0  0  0  0  0
  160.8670  205.0420  145.5020 O   0  0  0  0  0  0  0  0  0  0  0  0
  163.1590  204.7020  146.0020 C   0  0  0  0  0  1  0  0  0  0  0  0
  161.7190  204.7030  146.3660 C   0  0  0  0  0  0  0  0  0  0  0  0
  1 10  1  0  0  0  0
  2 14  1  0  0  0  0
  3  9  1  0  0  0  0
  4  8  1  0  0  0  0
  5  1  1  0  0  0  0
  5  4  2  0  0  0  0
  8  6  2  0  0  0  0
 10  9  2  0  0  0  0
 10 11  1  0  0  0  0
 11  6  1  0  0  0  0
 11  7  1  0  0  0  0
 12  2  2  0  0  0  0
 13 12  1  0  0  0  0
 13 15  2  0  0  0  0
 14  3  2  0  0  0  0
 15 16  1  0  0  0  0
 16 14  1  0  0  0  0
 16  1  2  0  0  0  0
 17  4  1  0  0  0  0
 18 27  1  0  0  0  0
 19 26  1  0  0  0  0
 20 25  1  0  0  0  0
 20 21  2  0  0  0  0
 21 22  1  0  0  0  0
 22 24  1  0  0  0  0
 22 18  2  0  0  0  0
 23 24  1  0  0  0  0
 24 19  2  0  0  0  0
 25 23  2  0  0  0  0
 26 17  1  0  0  0  0
 27 26  2  0  0  0  0
 28 20  1  1  0  0  0
 29 30  1  0  0  0  0
 29 28  1  0  0  0  0
 30 28  1  0  0  0  0
 31 12  1  0  0  0  0
 32 34  2  0  0  0  0
 33 34  1  0  0  0  0
 34 31  1  0  0  0  0
M  END
>  <MODEL>
5

>  <REMARK>
 VINA RESULT:      -8.4      2.697      8.134
  Name = 
  5 active torsions:
  status: ('A' for Active; 'I' for Inactive)
    1  A    between atoms: C_7  and  C_11
    2  A    between atoms: C_8  and  C_18
    3  A    between atoms: C_18  and  C_30
    4  A    between atoms: O_23  and  C_24
    5  A    between atoms: O_23  and  C_25
                            x       y       z     vdW  Elec       q    Type
                         _______ _______ _______ _____ _____    ______ ____

>  <TORSDO>
F 5

$$$$
=
 OpenBabel11062409373D

 34 39  0  0  1  0  0  0  0  0999 V2000
  161.4700  205.2300  149.9000 C   0  0  0  0  0  0  0  0  0  0  0  0
  161.0480  202.5710  147.3390 C   0  0  0  0  0  3  0  0  0  0  0  0
  161.2670  204.9350  147.1570 N   0  0  0  0  0  0  0  0  0  0  0  0
  161.4010  206.3490  152.1830 C   0  0  0  0  0  0  0  0  0  0  0  0
  161.6450  205.3230  151.3660 C   0  0  0  0  0  3  0  0  0  0  0  0
  160.9750  208.2280  150.5950 C   0  0  0  0  0  3  0  0  0  0  0  0
  162.3580  208.6520  148.6280 C   0  0  0  0  0  1  0  0  0  0  0  0
  160.8230  207.6350  151.7730 C   0  0  0  0  0  3  0  0  0  0  0  0
  161.4250  206.1450  147.6900 N   0  0  0  0  0  0  0  0  0  0  0  0
  161.5250  206.3450  149.0350 C   0  0  0  0  0  0  0  0  0  0  0  0
  161.7320  207.6830  149.5140 N   0  0  0  0  0  0  0  0  0  0  0  0
  160.9940  201.4170  148.1260 C   0  0  0  0  0  0  0  0  0  0  0  0
  161.1040  201.5340  149.5200 C   0  0  0  0  0  3  0  0  0  0  0  0
  161.2090  203.8280  147.9310 C   0  0  0  0  0  0  0  0  0  0  0  0
  161.2640  202.7880  150.1160 C   0  0  0  0  0  3  0  0  0  0  0  0
  161.3180  203.9500  149.3280 C   0  0  0  0  0  0  0  0  0  0  0  0
  161.5800  206.1190  153.6470 C   0  0  0  0  0  2  0  0  0  0  0  0
  159.4940  207.9940  156.2000 C   0  0  0  0  0  3  0  0  0  0  0  0
  161.3030  208.5610  154.1310 C   0  0  0  0  0  3  0  0  0  0  0  0
  159.5650  211.6950  156.3270 C   0  0  0  0  0  0  0  0  0  0  0  0
  159.2370  210.3660  156.6250 C   0  0  0  0  0  3  0  0  0  0  0  0
  159.8150  209.3200  155.9000 C   0  0  0  0  0  0  0  0  0  0  0  0
  161.0390  210.9330  154.5520 C   0  0  0  0  0  3  0  0  0  0  0  0
  160.7260  209.6070  154.8570 C   0  0  0  0  0  0  0  0  0  0  0  0
  160.4570  211.9740  155.2810 C   0  0  0  0  0  3  0  0  0  0  0  0
  160.9830  207.2350  154.4400 C   0  0  0  0  0  0  0  0  0  0  0  0
  160.0770  206.9530  155.4700 C   0  0  0  0  0  3  0  0  0  0  0  0
  158.9190  212.8180  157.0760 C   0  0  2  0  0  3  0  0  0  0  0  0
  157.5450  213.0630  156.5790 C   0  0  0  0  0  2  0  0  0  0  0  0
  158.6250  213.8730  156.1890 O   0  0  0  0  0  0  0  0  0  0  0  0
  160.8310  200.1800  147.4820 O   0  0  0  0  0  0  0  0  0  0  0  0
  160.4560  200.7620  145.2600 O   0  0  0  0  0  0  0  0  0  0  0  0
  161.5740  198.7040  145.6200 C   0  0  0  0  0  1  0  0  0  0  0  0
  160.9180  199.9470  146.1010 C   0  0  0  0  0  0  0  0  0  0  0  0
  1  5  1  0  0  0  0
  2 14  2  0  0  0  0
  2 12  1  0  0  0  0
  3  9  2  0  0  0  0
  3 14  1  0  0  0  0
  4 17  1  0  0  0  0
  5  4  2  0  0  0  0
  6  8  2  0  0  0  0
  7 11  1  0  0  0  0
  8  4  1  0  0  0  0
  9 10  1  0  0  0  0
 10 11  1  0  0  0  0
 10  1  2  0  0  0  0
 11  6  1  0  0  0  0
 12 13  2  0  0  0  0
 13 15  1  0  0  0  0
 14 16  1  0  0  0  0
 16  1  1  0  0  0  0
 16 15  2  0  0  0  0
 17 26  1  0  0  0  0
 19 26  2  0  0  0  0
 19 24  1  0  0  0  0
 20 21  1  0  0  0  0
 22 18  1  0  0  0  0
 22 21  2  0  0  0  0
 23 24  2  0  0  0  0
 23 25  1  0  0  0  0
 24 22  1  0  0  0  0
 25 20  2  0  0  0  0
 26 27  1  0  0  0  0
 27 18  2  0  0  0  0
 28 20  1  6  0  0  0
 29 28  1  0  0  0  0
 30 29  1  0  0  0  0
 30 28  1  0  0  0  0
 31 12  1  0  0  0  0
 32 34  2  0  0  0  0
 33 34  1  0  0  0  0
 34 31  1  0  0  0  0
M  END
>  <MODEL>
6

>  <REMARK>
 VINA RESULT:      -8.0      4.754      9.522
  Name = 
  5 active torsions:
  status: ('A' for Active; 'I' for Inactive)
    1  A    between atoms: C_7  and  C_11
    2  A    between atoms: C_8  and  C_18
    3  A    between atoms: C_18  and  C_30
    4  A    between atoms: O_23  and  C_24
    5  A    between atoms: O_23  and  C_25
                            x       y       z     vdW  Elec       q    Type
                         _______ _______ _______ _____ _____    ______ ____

>  <TORSDO>
F 5

$$$$
=
 OpenBabel11062409373D

 34 39  0  0  1  0  0  0  0  0999 V2000
  160.9590  207.3960  151.9960 C   0  0  0  0  0  0  0  0  0  0  0  0
  161.3060  204.1000  150.3160 C   0  0  0  0  0  3  0  0  0  0  0  0
  161.1860  204.7090  152.6150 N   0  0  0  0  0  0  0  0  0  0  0  0
  161.0440  209.9210  152.2940 C   0  0  0  0  0  0  0  0  0  0  0  0
  160.7690  208.8100  151.6070 C   0  0  0  0  0  3  0  0  0  0  0  0
  161.5670  209.0420  154.5720 C   0  0  0  0  0  3  0  0  0  0  0  0
  160.2280  207.3270  155.6800 C   0  0  0  0  0  1  0  0  0  0  0  0
  161.6790  209.9580  153.6180 C   0  0  0  0  0  3  0  0  0  0  0  0
  161.0710  205.6130  153.5860 N   0  0  0  0  0  0  0  0  0  0  0  0
  160.9610  206.9490  153.3360 C   0  0  0  0  0  0  0  0  0  0  0  0
  160.8030  207.8430  154.4480 N   0  0  0  0  0  0  0  0  0  0  0  0
  161.3030  204.4610  148.9660 C   0  0  0  0  0  0  0  0  0  0  0  0
  161.1800  205.8160  148.6210 C   0  0  0  0  0  3  0  0  0  0  0  0
  161.1890  205.0740  151.3130 C   0  0  0  0  0  0  0  0  0  0  0  0
  161.0630  206.7930  149.6130 C   0  0  0  0  0  3  0  0  0  0  0  0
  161.0660  206.4330  150.9720 C   0  0  0  0  0  0  0  0  0  0  0  0
  160.8360  211.2260  151.6020 C   0  0  0  0  0  2  0  0  0  0  0  0
  158.7810  214.1780  152.8050 C   0  0  0  0  0  3  0  0  0  0  0  0
  158.8060  211.3840  153.0610 C   0  0  0  0  0  3  0  0  0  0  0  0
  155.8530  213.6510  155.0120 C   0  0  0  0  0  0  0  0  0  0  0  0
  156.8290  214.2910  154.2370 C   0  0  0  0  0  3  0  0  0  0  0  0
  157.8110  213.5410  153.5830 C   0  0  0  0  0  0  0  0  0  0  0  0
  156.8600  211.4990  154.4990 C   0  0  0  0  0  3  0  0  0  0  0  0
  157.8240  212.1340  153.7140 C   0  0  0  0  0  0  0  0  0  0  0  0
  155.8800  212.2550  155.1500 C   0  0  0  0  0  3  0  0  0  0  0  0
  159.7710  212.0260  152.2780 C   0  0  0  0  0  0  0  0  0  0  0  0
  159.7610  213.4210  152.1540 C   0  0  0  0  0  3  0  0  0  0  0  0
  154.8240  214.4530  155.7430 C   0  0  2  0  0  3  0  0  0  0  0  0
  154.9790  214.3010  157.2080 C   0  0  0  0  0  2  0  0  0  0  0  0
  153.9970  213.5930  156.4940 O   0  0  0  0  0  0  0  0  0  0  0  0
  161.4240  203.4440  148.0060 O   0  0  0  0  0  0  0  0  0  0  0  0
  160.9240  203.0850  145.7610 O   0  0  0  0  0  0  0  0  0  0  0  0
  162.7970  204.4680  146.2000 C   0  0  0  0  0  1  0  0  0  0  0  0
  161.6560  203.6220  146.6340 C   0  0  0  0  0  0  0  0  0  0  0  0
  1 10  1  0  0  0  0
  2 14  1  0  0  0  0
  3  9  1  0  0  0  0
  4  8  1  0  0  0  0
  5  1  1  0  0  0  0
  5  4  2  0  0  0  0
  8  6  2  0  0  0  0
 10  9  2  0  0  0  0
 10 11  1  0  0  0  0
 11  6  1  0  0  0  0
 11  7  1  0  0  0  0
 12  2  2  0  0  0  0
 13 12  1  0  0  0  0
 13 15  2  0  0  0  0
 14  3  2  0  0  0  0
 15 16  1  0  0  0  0
 16 14  1  0  0  0  0
 16  1  2  0  0  0  0
 17 26  1  0  0  0  0
 17  4  1  0  0  0  0
 18 22  1  0  0  0  0
 19 24  1  0  0  0  0
 20 25  1  0  0  0  0
 21 20  2  0  0  0  0
 22 24  2  0  0  0  0
 22 21  1  0  0  0  0
 23 25  2  0  0  0  0
 24 23  1  0  0  0  0
 26 19  2  0  0  0  0
 27 26  1  0  0  0  0
 27 18  2  0  0  0  0
 28 20  1  6  0  0  0
 28 30  1  0  0  0  0
 28 29  1  0  0  0  0
 30 29  1  0  0  0  0
 31 12  1  0  0  0  0
 32 34  2  0  0  0  0
 33 34  1  0  0  0  0
 34 31  1  0  0  0  0
M  END
>  <MODEL>
7

>  <REMARK>
 VINA RESULT:      -8.0      4.568      9.072
  Name = 
  5 active torsions:
  status: ('A' for Active; 'I' for Inactive)
    1  A    between atoms: C_7  and  C_11
    2  A    between atoms: C_8  and  C_18
    3  A    between atoms: C_18  and  C_30
    4  A    between atoms: O_23  and  C_24
    5  A    between atoms: O_23  and  C_25
                            x       y       z     vdW  Elec       q    Type
                         _______ _______ _______ _____ _____    ______ ____

>  <TORSDO>
F 5

$$$$
=
 OpenBabel11062409373D

 34 39  0  0  1  0  0  0  0  0999 V2000
  160.8960  208.8380  153.4770 C   0  0  0  0  0  0  0  0  0  0  0  0
  162.0730  206.7650  150.6260 C   0  0  0  0  0  3  0  0  0  0  0  0
  161.5690  206.2190  152.8890 N   0  0  0  0  0  0  0  0  0  0  0  0
  160.4510  210.9260  154.8590 C   0  0  0  0  0  0  0  0  0  0  0  0
  160.4790  210.2360  153.7160 C   0  0  0  0  0  3  0  0  0  0  0  0
  160.8660  209.1620  156.5760 C   0  0  0  0  0  3  0  0  0  0  0  0
  159.7690  206.9810  156.5420 C   0  0  0  0  0  1  0  0  0  0  0  0
  160.9080  210.4210  156.1600 C   0  0  0  0  0  3  0  0  0  0  0  0
  161.1680  206.5480  154.1150 N   0  0  0  0  0  0  0  0  0  0  0  0
  160.8290  207.8240  154.4580 C   0  0  0  0  0  0  0  0  0  0  0  0
  160.3710  208.0740  155.7960 N   0  0  0  0  0  0  0  0  0  0  0  0
  162.1560  207.7070  149.5970 C   0  0  0  0  0  0  0  0  0  0  0  0
  161.8120  209.0410  149.8630 C   0  0  0  0  0  3  0  0  0  0  0  0
  161.6530  207.1430  151.9050 C   0  0  0  0  0  0  0  0  0  0  0  0
  161.3920  209.4250  151.1390 C   0  0  0  0  0  3  0  0  0  0  0  0
  161.3070  208.4800  152.1760 C   0  0  0  0  0  0  0  0  0  0  0  0
  160.0740  212.3680  154.7820 C   0  0  0  0  0  2  0  0  0  0  0  0
  157.3560  213.0510  152.2260 C   0  0  0  0  0  3  0  0  0  0  0  0
  160.1510  212.8140  152.3180 C   0  0  0  0  0  3  0  0  0  0  0  0
  158.2240  213.6120  148.6690 C   0  0  0  0  0  0  0  0  0  0  0  0
  157.4700  213.4580  149.8400 C   0  0  0  0  0  3  0  0  0  0  0  0
  158.1060  213.1970  151.0560 C   0  0  0  0  0  0  0  0  0  0  0  0
  160.2620  213.2140  149.9310 C   0  0  0  0  0  3  0  0  0  0  0  0
  159.5140  213.0770  151.1020 C   0  0  0  0  0  0  0  0  0  0  0  0
  159.6190  213.4760  148.7180 C   0  0  0  0  0  3  0  0  0  0  0  0
  159.3950  212.6740  153.4880 C   0  0  0  0  0  0  0  0  0  0  0  0
  158.0000  212.7880  153.4400 C   0  0  0  0  0  3  0  0  0  0  0  0
  157.5430  213.8550  147.3590 C   0  0  2  0  0  3  0  0  0  0  0  0
  157.3100  212.5800  146.6420 C   0  0  0  0  0  2  0  0  0  0  0  0
  158.3760  213.4300  146.3050 O   0  0  0  0  0  0  0  0  0  0  0  0
  162.5850  207.2740  148.3330 O   0  0  0  0  0  0  0  0  0  0  0  0
  160.6320  206.5170  147.3170 O   0  0  0  0  0  0  0  0  0  0  0  0
  162.6280  205.4010  146.6940 C   0  0  0  0  0  1  0  0  0  0  0  0
  161.8800  206.4280  147.4630 C   0  0  0  0  0  0  0  0  0  0  0  0
  1  5  1  0  0  0  0
  1 10  1  0  0  0  0
  2 14  1  0  0  0  0
  3  9  1  0  0  0  0
  4  8  1  0  0  0  0
  5  4  2  0  0  0  0
  8  6  2  0  0  0  0
  9 10  2  0  0  0  0
 10 11  1  0  0  0  0
 11  7  1  0  0  0  0
 11  6  1  0  0  0  0
 12 13  1  0  0  0  0
 12  2  2  0  0  0  0
 13 15  2  0  0  0  0
 14 16  1  0  0  0  0
 14  3  2  0  0  0  0
 15 16  1  0  0  0  0
 16  1  2  0  0  0  0
 17  4  1  0  0  0  0
 18 27  1  0  0  0  0
 19 26  1  0  0  0  0
 20 25  1  0  0  0  0
 20 21  2  0  0  0  0
 21 22  1  0  0  0  0
 22 24  1  0  0  0  0
 22 18  2  0  0  0  0
 23 24  1  0  0  0  0
 24 19  2  0  0  0  0
 25 23  2  0  0  0  0
 26 17  1  0  0  0  0
 27 26  2  0  0  0  0
 28 20  1  1  0  0  0
 29 28  1  0  0  0  0
 30 29  1  0  0  0  0
 30 28  1  0  0  0  0
 31 12  1  0  0  0  0
 32 34  2  0  0  0  0
 33 34  1  0  0  0  0
 34 31  1  0  0  0  0
M  END
>  <MODEL>
8

>  <REMARK>
 VINA RESULT:      -7.7      3.725      7.792
  Name = 
  5 active torsions:
  status: ('A' for Active; 'I' for Inactive)
    1  A    between atoms: C_7  and  C_11
    2  A    between atoms: C_8  and  C_18
    3  A    between atoms: C_18  and  C_30
    4  A    between atoms: O_23  and  C_24
    5  A    between atoms: O_23  and  C_25
                            x       y       z     vdW  Elec       q    Type
                         _______ _______ _______ _____ _____    ______ ____

>  <TORSDO>
F 5

$$$$
=
 OpenBabel11062409373D

 34 39  0  0  1  0  0  0  0  0999 V2000
  159.8650  212.5240  151.2700 C   0  0  0  0  0  0  0  0  0  0  0  0
  158.9970  214.4110  148.1880 C   0  0  0  0  0  3  0  0  0  0  0  0
  158.0830  214.4480  150.3870 N   0  0  0  0  0  0  0  0  0  0  0  0
  160.8450  210.6750  152.7150 C   0  0  0  0  0  0  0  0  0  0  0  0
  160.8860  211.5480  151.7060 C   0  0  0  0  0  3  0  0  0  0  0  0
  158.7970  211.3720  153.9620 C   0  0  0  0  0  3  0  0  0  0  0  0
  158.2670  213.7030  154.4590 C   0  0  0  0  0  1  0  0  0  0  0  0
  159.6920  210.4610  153.5990 C   0  0  0  0  0  3  0  0  0  0  0  0
  158.0490  214.0340  151.6520 N   0  0  0  0  0  0  0  0  0  0  0  0
  158.9010  213.0850  152.1360 C   0  0  0  0  0  0  0  0  0  0  0  0
  158.8130  212.7310  153.5250 N   0  0  0  0  0  0  0  0  0  0  0  0
  159.9270  213.9120  147.2710 C   0  0  0  0  0  0  0  0  0  0  0  0
  160.8490  212.9420  147.6930 C   0  0  0  0  0  3  0  0  0  0  0  0
  158.9830  213.9510  149.5090 C   0  0  0  0  0  0  0  0  0  0  0  0
  160.8400  212.4790  149.0110 C   0  0  0  0  0  3  0  0  0  0  0  0
  159.9060  212.9780  149.9350 C   0  0  0  0  0  0  0  0  0  0  0  0
  161.9960  209.7350  152.8580 C   0  0  0  0  0  2  0  0  0  0  0  0
  160.8300  206.1360  153.1280 C   0  0  0  0  0  3  0  0  0  0  0  0
  161.6880  207.9310  151.1480 C   0  0  0  0  0  3  0  0  0  0  0  0
  160.6370  203.9960  150.1110 C   0  0  0  0  0  0  0  0  0  0  0  0
  160.5640  204.4110  151.4480 C   0  0  0  0  0  3  0  0  0  0  0  0
  160.9090  205.7190  151.7970 C   0  0  0  0  0  0  0  0  0  0  0  0
  161.4290  206.2020  149.4710 C   0  0  0  0  0  3  0  0  0  0  0  0
  161.3420  206.6230  150.7990 C   0  0  0  0  0  0  0  0  0  0  0  0
  161.0820  204.8920  149.1280 C   0  0  0  0  0  3  0  0  0  0  0  0
  161.6010  208.3450  152.4820 C   0  0  0  0  0  0  0  0  0  0  0  0
  161.1770  207.4480  153.4700 C   0  0  0  0  0  3  0  0  0  0  0  0
  160.3050  202.5850  149.7400 C   0  0  2  0  0  3  0  0  0  0  0  0
  161.3970  201.6650  150.1330 C   0  0  0  0  0  2  0  0  0  0  0  0
  161.2460  202.1060  148.8070 O   0  0  0  0  0  0  0  0  0  0  0  0
  159.8970  214.4070  145.9580 O   0  0  0  0  0  0  0  0  0  0  0  0
  160.0460  212.4850  144.6550 O   0  0  0  0  0  0  0  0  0  0  0  0
  160.9820  214.4500  143.7190 C   0  0  0  0  0  1  0  0  0  0  0  0
  160.2810  213.7130  144.8010 C   0  0  0  0  0  0  0  0  0  0  0  0
  1  5  1  0  0  0  0
  1 10  1  0  0  0  0
  2 14  1  0  0  0  0
  3  9  1  0  0  0  0
  4 17  1  0  0  0  0
  4  8  1  0  0  0  0
  5  4  2  0  0  0  0
  8  6  2  0  0  0  0
  9 10  2  0  0  0  0
 10 11  1  0  0  0  0
 11  6  1  0  0  0  0
 11  7  1  0  0  0  0
 12 13  1  0  0  0  0
 12  2  2  0  0  0  0
 13 15  2  0  0  0  0
 14 16  1  0  0  0  0
 14  3  2  0  0  0  0
 15 16  1  0  0  0  0
 16  1  2  0  0  0  0
 18 27  1  0  0  0  0
 19 26  1  0  0  0  0
 20 21  2  0  0  0  0
 21 22  1  0  0  0  0
 22 18  2  0  0  0  0
 23 24  1  0  0  0  0
 24 19  2  0  0  0  0
 24 22  1  0  0  0  0
 25 23  2  0  0  0  0
 25 20  1  0  0  0  0
 26 17  1  0  0  0  0
 26 27  2  0  0  0  0
 28 20  1  1  0  0  0
 28 29  1  0  0  0  0
 30 28  1  0  0  0  0
 30 29  1  0  0  0  0
 31 12  1  0  0  0  0
 32 34  2  0  0  0  0
 33 34  1  0  0  0  0
 34 31  1  0  0  0  0
M  END
>  <MODEL>
9

>  <REMARK>
 VINA RESULT:      -7.2      1.430      1.998
  Name = 
  5 active torsions:
  status: ('A' for Active; 'I' for Inactive)
    1  A    between atoms: C_7  and  C_11
    2  A    between atoms: C_8  and  C_18
    3  A    between atoms: C_18  and  C_30
    4  A    between atoms: O_23  and  C_24
    5  A    between atoms: O_23  and  C_25
                            x       y       z     vdW  Elec       q    Type
                         _______ _______ _______ _____ _____    ______ ____

>  <TORSDO>
F 5

$$$$
