=
 OpenBabel11052422523D

 28 31  0  0  1  0  0  0  0  0999 V2000
  161.5870  204.6570  148.3120 C   0  0  1  0  0  3  0  0  0  0  0  0
  160.5940  206.1680  144.6820 O   0  0  0  0  0  0  0  0  0  0  0  0
  161.3480  207.6970  149.6250 N   0  0  0  0  0  0  0  0  0  0  0  0
  160.8140  206.6950  146.9770 C   0  0  1  0  0  3  0  0  0  0  0  0
  160.3860  206.5890  149.4730 C   0  0  0  0  0  2  0  0  0  0  0  0
  162.0860  204.7490  145.8400 C   0  0  0  0  0  2  0  0  0  0  0  0
  161.9500  207.6930  147.2440 C   0  0  0  0  0  2  0  0  0  0  0  0
  161.1130  205.8850  145.7510 C   0  0  0  0  0  0  0  0  0  0  0  0
  162.4620  207.6170  148.6810 C   0  0  0  0  0  2  0  0  0  0  0  0
  161.7270  203.8470  147.0180 C   0  0  0  0  0  2  0  0  0  0  0  0
  160.5230  205.7690  148.1740 C   0  0  2  0  0  3  0  0  0  0  0  0
  161.3520  203.7550  149.4950 C   0  0  0  0  0  0  0  0  0  0  0  0
  161.5990  204.2870  150.7670 C   0  0  0  0  0  3  0  0  0  0  0  0
  160.6630  201.6620  150.5440 C   0  0  0  0  0  0  0  0  0  0  0  0
  161.3820  203.5240  151.9160 C   0  0  0  0  0  3  0  0  0  0  0  0
  160.5930  201.8160  148.0440 C   0  0  0  0  0  1  0  0  0  0  0  0
  160.8850  202.4240  149.3790 C   0  0  0  0  0  0  0  0  0  0  0  0
  160.1960  200.3540  150.4630 O   0  0  0  0  0  1  0  0  0  0  0  0
  160.9130  202.2140  151.8030 C   0  0  0  0  0  3  0  0  0  0  0  0
  161.9270  207.5620  150.9500 C   0  0  0  0  0  2  0  0  0  0  0  0
  160.9170  207.9670  152.0130 C   0  0  0  0  0  2  0  0  0  0  0  0
  161.4310  209.1800  152.7960 C   0  0  2  0  0  3  0  0  0  0  0  0
  161.3420  209.0930  154.2320 N   0  0  0  0  0  0  0  0  0  0  0  0
  160.6940  211.2230  153.5760 C   0  0  0  0  0  1  0  0  0  0  0  0
  160.3500  209.8150  153.4720 N   0  0  0  0  0  0  0  0  0  0  0  0
  160.6770  207.8930  154.7400 C   0  0  0  0  0  2  0  0  0  0  0  0
  160.1170  207.1750  157.0210 C   0  0  0  0  0  2  0  0  0  0  0  0
  161.0140  207.6830  156.1810 C   0  0  0  0  0  3  0  0  0  0  0  0
  1 12  1  1  0  0  0
  2  8  2  0  0  0  0
  3 20  1  0  0  0  0
  4  7  1  1  0  0  0
  4 11  1  0  0  0  0
  5  3  1  0  0  0  0
  6 10  1  0  0  0  0
  7  9  1  0  0  0  0
  8  6  1  0  0  0  0
  8  4  1  0  0  0  0
  9  3  1  0  0  0  0
 10  1  1  0  0  0  0
 11  1  1  0  0  0  0
 11  5  1  1  0  0  0
 12 13  1  0  0  0  0
 13 15  2  0  0  0  0
 14 19  2  0  0  0  0
 16 17  1  0  0  0  0
 17 12  2  0  0  0  0
 17 14  1  0  0  0  0
 18 14  1  0  0  0  0
 19 15  1  0  0  0  0
 20 21  1  0  0  0  0
 22 21  1  6  0  0  0
 22 25  1  0  0  0  0
 22 23  1  0  0  0  0
 23 26  1  0  0  0  0
 25 24  1  0  0  0  0
 25 23  1  0  0  0  0
 26 28  1  0  0  0  0
 28 27  2  0  0  0  0
M  END
>  <MODEL>
1

>  <REMARK>
 VINA RESULT:      -8.2      0.000      0.000
  Name = 
  6 active torsions:
  status: ('A' for Active; 'I' for Inactive)
    1  A    between atoms: C_1  and  C_2
    2  A    between atoms: C_4  and  C_12
    3  A    between atoms: C_4  and  C_13
    4  A    between atoms: C_9  and  N_15
    5  A    between atoms: C_9  and  C_18
    6  A    between atoms: N_10  and  C_13
                            x       y       z     vdW  Elec       q    Type
                         _______ _______ _______ _____ _____    ______ ____

>  <TORSDO>
F 6

$$$$
=
 OpenBabel11052422523D

 28 31  0  0  1  0  0  0  0  0999 V2000
  161.5670  204.6350  148.2950 C   0  0  1  0  0  3  0  0  0  0  0  0
  160.5360  206.1590  144.6810 O   0  0  0  0  0  0  0  0  0  0  0  0
  161.4370  207.6850  149.6000 N   0  0  0  0  0  0  0  0  0  0  0  0
  160.8200  206.6880  146.9680 C   0  0  1  0  0  3  0  0  0  0  0  0
  160.4430  206.6030  149.4730 C   0  0  0  0  0  2  0  0  0  0  0  0
  162.0140  204.7050  145.8120 C   0  0  0  0  0  2  0  0  0  0  0  0
  161.9870  207.6560  147.2070 C   0  0  0  0  0  2  0  0  0  0  0  0
  161.0710  205.8660  145.7390 C   0  0  0  0  0  0  0  0  0  0  0  0
  162.5280  207.5720  148.6320 C   0  0  0  0  0  2  0  0  0  0  0  0
  161.6580  203.8170  147.0020 C   0  0  0  0  0  2  0  0  0  0  0  0
  160.5290  205.7750  148.1750 C   0  0  2  0  0  3  0  0  0  0  0  0
  161.3340  203.7440  149.4870 C   0  0  0  0  0  0  0  0  0  0  0  0
  161.5590  204.2950  150.7540 C   0  0  0  0  0  3  0  0  0  0  0  0
  160.6650  201.6540  150.5540 C   0  0  0  0  0  0  0  0  0  0  0  0
  161.3420  203.5420  151.9100 C   0  0  0  0  0  3  0  0  0  0  0  0
  160.6180  201.7770  148.0520 C   0  0  0  0  0  1  0  0  0  0  0  0
  160.8870  202.4040  149.3820 C   0  0  0  0  0  0  0  0  0  0  0  0
  160.2190  200.3380  150.4840 O   0  0  0  0  0  1  0  0  0  0  0  0
  160.8940  202.2240  151.8090 C   0  0  0  0  0  3  0  0  0  0  0  0
  162.0400  207.5390  150.9130 C   0  0  0  0  0  2  0  0  0  0  0  0
  161.7450  208.7600  151.7710 C   0  0  0  0  0  2  0  0  0  0  0  0
  160.7360  208.4030  152.8680 C   0  0  2  0  0  3  0  0  0  0  0  0
  160.3950  209.4630  153.7850 N   0  0  0  0  0  0  0  0  0  0  0  0
  160.6770  207.5010  154.9910 C   0  0  0  0  0  1  0  0  0  0  0  0
  161.3660  208.4590  154.1440 N   0  0  0  0  0  0  0  0  0  0  0  0
  161.1390  210.7080  153.5970 C   0  0  0  0  0  2  0  0  0  0  0  0
  159.0520  211.6500  152.7090 C   0  0  0  0  0  2  0  0  0  0  0  0
  160.1980  211.8440  153.3540 C   0  0  0  0  0  3  0  0  0  0  0  0
  1 12  1  1  0  0  0
  2  8  2  0  0  0  0
  3 20  1  0  0  0  0
  4  7  1  1  0  0  0
  4 11  1  0  0  0  0
  5  3  1  0  0  0  0
  6 10  1  0  0  0  0
  7  9  1  0  0  0  0
  8  6  1  0  0  0  0
  8  4  1  0  0  0  0
  9  3  1  0  0  0  0
 10  1  1  0  0  0  0
 11  1  1  0  0  0  0
 11  5  1  1  0  0  0
 12 13  1  0  0  0  0
 13 15  2  0  0  0  0
 14 19  2  0  0  0  0
 16 17  1  0  0  0  0
 17 12  2  0  0  0  0
 17 14  1  0  0  0  0
 18 14  1  0  0  0  0
 19 15  1  0  0  0  0
 20 21  1  0  0  0  0
 22 21  1  6  0  0  0
 22 23  1  0  0  0  0
 22 25  1  0  0  0  0
 23 25  1  0  0  0  0
 25 24  1  0  0  0  0
 26 23  1  0  0  0  0
 27 28  2  0  0  0  0
 28 26  1  0  0  0  0
M  END
>  <MODEL>
2

>  <REMARK>
 VINA RESULT:      -8.0      0.583      1.872
  Name = 
  6 active torsions:
  status: ('A' for Active; 'I' for Inactive)
    1  A    between atoms: C_1  and  C_2
    2  A    between atoms: C_4  and  C_12
    3  A    between atoms: C_4  and  C_13
    4  A    between atoms: C_9  and  N_15
    5  A    between atoms: C_9  and  C_18
    6  A    between atoms: N_10  and  C_13
                            x       y       z     vdW  Elec       q    Type
                         _______ _______ _______ _____ _____    ______ ____

>  <TORSDO>
F 6

$$$$
=
 OpenBabel11052422523D

 28 31  0  0  1  0  0  0  0  0999 V2000
  161.7880  206.2770  150.9640 C   0  0  1  0  0  3  0  0  0  0  0  0
  160.5580  202.6260  152.2300 O   0  0  0  0  0  0  0  0  0  0  0  0
  160.5200  205.6440  147.9610 N   0  0  0  0  0  0  0  0  0  0  0  0
  160.4760  204.1500  150.4240 C   0  0  1  0  0  3  0  0  0  0  0  0
  159.9730  206.2930  149.1670 C   0  0  0  0  0  2  0  0  0  0  0  0
  162.3610  204.1510  152.1970 C   0  0  0  0  0  2  0  0  0  0  0  0
  161.2180  203.6320  149.1840 C   0  0  0  0  0  2  0  0  0  0  0  0
  161.0830  203.5760  151.6690 C   0  0  0  0  0  0  0  0  0  0  0  0
  161.6500  204.7620  148.2530 C   0  0  0  0  0  2  0  0  0  0  0  0
  162.2480  205.6700  152.2940 C   0  0  0  0  0  2  0  0  0  0  0  0
  160.4320  205.6890  150.5090 C   0  0  2  0  0  3  0  0  0  0  0  0
  161.7910  207.7820  151.0230 C   0  0  0  0  0  0  0  0  0  0  0  0
  162.2390  208.4680  149.8860 C   0  0  0  0  0  3  0  0  0  0  0  0
  161.3600  209.9270  152.1030 C   0  0  0  0  0  0  0  0  0  0  0  0
  162.2490  209.8640  149.8520 C   0  0  0  0  0  3  0  0  0  0  0  0
  160.8510  207.8320  153.3790 C   0  0  0  0  0  1  0  0  0  0  0  0
  161.3520  208.5190  152.1490 C   0  0  0  0  0  0  0  0  0  0  0  0
  160.9270  210.6780  153.1920 O   0  0  0  0  0  1  0  0  0  0  0  0
  161.8080  210.5910  150.9590 C   0  0  0  0  0  3  0  0  0  0  0  0
  161.0410  206.7090  147.1210 C   0  0  0  0  0  2  0  0  0  0  0  0
  161.9260  206.1350  146.0250 C   0  0  0  0  0  2  0  0  0  0  0  0
  161.1260  205.9800  144.7270 C   0  0  2  0  0  3  0  0  0  0  0  0
  160.8260  204.6290  144.3230 N   0  0  0  0  0  0  0  0  0  0  0  0
  161.4640  205.8390  142.4480 C   0  0  0  0  0  1  0  0  0  0  0  0
  161.9290  205.3480  143.7340 N   0  0  0  0  0  0  0  0  0  0  0  0
  161.4160  203.5870  145.1620 C   0  0  0  0  0  2  0  0  0  0  0  0
  160.7880  201.3880  146.0580 C   0  0  0  0  0  2  0  0  0  0  0  0
  160.4610  202.4490  145.3270 C   0  0  0  0  0  3  0  0  0  0  0  0
  1 12  1  1  0  0  0
  1 10  1  0  0  0  0
  3  9  1  0  0  0  0
  3  5  1  0  0  0  0
  4  7  1  6  0  0  0
  4 11  1  0  0  0  0
  4  8  1  0  0  0  0
  6 10  1  0  0  0  0
  8  6  1  0  0  0  0
  8  2  2  0  0  0  0
  9  7  1  0  0  0  0
 11  5  1  6  0  0  0
 11  1  1  0  0  0  0
 12 17  1  0  0  0  0
 13 12  2  0  0  0  0
 14 17  2  0  0  0  0
 14 18  1  0  0  0  0
 15 13  1  0  0  0  0
 15 19  2  0  0  0  0
 17 16  1  0  0  0  0
 19 14  1  0  0  0  0
 20  3  1  0  0  0  0
 21 20  1  0  0  0  0
 22 21  1  1  0  0  0
 23 22  1  0  0  0  0
 23 26  1  0  0  0  0
 24 25  1  0  0  0  0
 25 23  1  0  0  0  0
 25 22  1  0  0  0  0
 26 28  1  0  0  0  0
 28 27  2  0  0  0  0
M  END
>  <MODEL>
3

>  <REMARK>
 VINA RESULT:      -7.5      2.942      7.641
  Name = 
  6 active torsions:
  status: ('A' for Active; 'I' for Inactive)
    1  A    between atoms: C_1  and  C_2
    2  A    between atoms: C_4  and  C_12
    3  A    between atoms: C_4  and  C_13
    4  A    between atoms: C_9  and  N_15
    5  A    between atoms: C_9  and  C_18
    6  A    between atoms: N_10  and  C_13
                            x       y       z     vdW  Elec       q    Type
                         _______ _______ _______ _____ _____    ______ ____

>  <TORSDO>
F 6

$$$$
=
 OpenBabel11052422523D

 28 31  0  0  1  0  0  0  0  0999 V2000
  161.7670  204.4000  148.1130 C   0  0  1  0  0  3  0  0  0  0  0  0
  162.1290  206.1400  144.4680 O   0  0  0  0  0  0  0  0  0  0  0  0
  160.8580  207.3230  149.4000 N   0  0  0  0  0  0  0  0  0  0  0  0
  161.4310  206.5020  146.6980 C   0  0  1  0  0  3  0  0  0  0  0  0
  160.0970  206.1940  148.8320 C   0  0  0  0  0  2  0  0  0  0  0  0
  163.1570  204.6950  146.0280 C   0  0  0  0  0  2  0  0  0  0  0  0
  162.3160  207.5180  147.4330 C   0  0  0  0  0  2  0  0  0  0  0  0
  162.2220  205.7970  145.6370 C   0  0  0  0  0  0  0  0  0  0  0  0
  162.2490  207.3550  148.9500 C   0  0  0  0  0  2  0  0  0  0  0  0
  162.4380  203.6950  146.9290 C   0  0  0  0  0  2  0  0  0  0  0  0
  160.7660  205.4790  147.6410 C   0  0  2  0  0  3  0  0  0  0  0  0
  161.1590  203.4040  149.0660 C   0  0  0  0  0  0  0  0  0  0  0  0
  160.4130  202.3560  148.5100 C   0  0  0  0  0  3  0  0  0  0  0  0
  160.7430  202.4760  151.2840 C   0  0  0  0  0  0  0  0  0  0  0  0
  159.8380  201.3790  149.3240 C   0  0  0  0  0  3  0  0  0  0  0  0
  162.1220  204.5610  151.1090 C   0  0  0  0  0  1  0  0  0  0  0  0
  161.3220  203.4710  150.4710 C   0  0  0  0  0  0  0  0  0  0  0  0
  160.8930  202.5100  152.6670 O   0  0  0  0  0  1  0  0  0  0  0  0
  160.0050  201.4380  150.7090 C   0  0  0  0  0  3  0  0  0  0  0  0
  160.8990  207.1100  150.8360 C   0  0  0  0  0  2  0  0  0  0  0  0
  161.8320  208.1150  151.4940 C   0  0  0  0  0  2  0  0  0  0  0  0
  161.0250  209.2770  152.0840 C   0  0  2  0  0  3  0  0  0  0  0  0
  161.2630  210.5750  151.5020 N   0  0  0  0  0  0  0  0  0  0  0  0
  161.1310  210.8080  153.8080 C   0  0  0  0  0  1  0  0  0  0  0  0
  161.8990  210.1920  152.7400 N   0  0  0  0  0  0  0  0  0  0  0  0
  162.3200  210.6170  150.4930 C   0  0  0  0  0  2  0  0  0  0  0  0
  162.5180  211.9340  148.4290 C   0  0  0  0  0  2  0  0  0  0  0  0
  161.7820  211.1380  149.1990 C   0  0  0  0  0  3  0  0  0  0  0  0
  1 12  1  6  0  0  0
  2  8  2  0  0  0  0
  3 20  1  0  0  0  0
  4  7  1  1  0  0  0
  4 11  1  0  0  0  0
  5  3  1  0  0  0  0
  6 10  1  0  0  0  0
  7  9  1  0  0  0  0
  8  6  1  0  0  0  0
  8  4  1  0  0  0  0
  9  3  1  0  0  0  0
 10  1  1  0  0  0  0
 11  1  1  0  0  0  0
 11  5  1  1  0  0  0
 12 17  1  0  0  0  0
 13 12  2  0  0  0  0
 13 15  1  0  0  0  0
 14 18  1  0  0  0  0
 15 19  2  0  0  0  0
 17 16  1  0  0  0  0
 17 14  2  0  0  0  0
 19 14  1  0  0  0  0
 20 21  1  0  0  0  0
 22 21  1  6  0  0  0
 22 25  1  0  0  0  0
 23 22  1  0  0  0  0
 23 25  1  0  0  0  0
 25 24  1  0  0  0  0
 26 23  1  0  0  0  0
 27 28  2  0  0  0  0
 28 26  1  0  0  0  0
M  END
>  <MODEL>
4

>  <REMARK>
 VINA RESULT:      -7.4      1.708      3.138
  Name = 
  6 active torsions:
  status: ('A' for Active; 'I' for Inactive)
    1  A    between atoms: C_1  and  C_2
    2  A    between atoms: C_4  and  C_12
    3  A    between atoms: C_4  and  C_13
    4  A    between atoms: C_9  and  N_15
    5  A    between atoms: C_9  and  C_18
    6  A    between atoms: N_10  and  C_13
                            x       y       z     vdW  Elec       q    Type
                         _______ _______ _______ _____ _____    ______ ____

>  <TORSDO>
F 6

$$$$
=
 OpenBabel11052422523D

 28 31  0  0  1  0  0  0  0  0999 V2000
  161.0780  209.1530  152.1760 C   0  0  1  0  0  3  0  0  0  0  0  0
  162.5820  211.4910  149.2230 O   0  0  0  0  0  0  0  0  0  0  0  0
  161.9140  206.4500  150.4380 N   0  0  0  0  0  0  0  0  0  0  0  0
  162.3570  209.2570  149.9650 C   0  0  1  0  0  3  0  0  0  0  0  0
  162.6120  207.2360  151.4730 C   0  0  0  0  0  2  0  0  0  0  0  0
  160.7500  211.1560  150.6760 C   0  0  0  0  0  2  0  0  0  0  0  0
  161.4580  208.4190  149.0440 C   0  0  0  0  0  2  0  0  0  0  0  0
  161.9540  210.7000  149.9110 C   0  0  0  0  0  0  0  0  0  0  0  0
  160.8640  207.2090  149.7600 C   0  0  0  0  0  2  0  0  0  0  0  0
  160.8330  210.6650  152.1190 C   0  0  0  0  0  2  0  0  0  0  0  0
  162.3690  208.7570  151.4230 C   0  0  2  0  0  3  0  0  0  0  0  0
  161.0410  208.6480  153.5950 C   0  0  0  0  0  0  0  0  0  0  0  0
  160.4570  207.3940  153.8150 C   0  0  0  0  0  3  0  0  0  0  0  0
  161.5260  208.8020  155.9810 C   0  0  0  0  0  0  0  0  0  0  0  0
  160.4060  206.8450  155.0980 C   0  0  0  0  0  3  0  0  0  0  0  0
  162.2220  210.7020  154.5040 C   0  0  0  0  0  1  0  0  0  0  0  0
  161.5760  209.3670  154.6910 C   0  0  0  0  0  0  0  0  0  0  0  0
  162.0510  209.4800  157.0770 O   0  0  0  0  0  1  0  0  0  0  0  0
  160.9410  207.5480  156.1780 C   0  0  0  0  0  3  0  0  0  0  0  0
  161.2470  205.3590  151.1290 C   0  0  0  0  0  2  0  0  0  0  0  0
  160.4320  204.5310  150.1490 C   0  0  0  0  0  2  0  0  0  0  0  0
  161.2080  203.2720  149.7460 C   0  0  2  0  0  3  0  0  0  0  0  0
  161.6490  203.2110  148.3740 N   0  0  0  0  0  0  0  0  0  0  0  0
  160.8290  201.1270  148.9850 C   0  0  0  0  0  1  0  0  0  0  0  0
  160.4560  202.5190  148.7990 N   0  0  0  0  0  0  0  0  0  0  0  0
  161.2040  204.3190  147.5300 C   0  0  0  0  0  2  0  0  0  0  0  0
  163.0780  204.7040  145.9900 C   0  0  0  0  0  2  0  0  0  0  0  0
  162.3770  205.1070  147.0460 C   0  0  0  0  0  3  0  0  0  0  0  0
  1 12  1  1  0  0  0
  2  8  2  0  0  0  0
  3 20  1  0  0  0  0
  3  5  1  0  0  0  0
  4  7  1  6  0  0  0
  4 11  1  0  0  0  0
  6 10  1  0  0  0  0
  7  9  1  0  0  0  0
  8  4  1  0  0  0  0
  8  6  1  0  0  0  0
  9  3  1  0  0  0  0
 10  1  1  0  0  0  0
 11  5  1  6  0  0  0
 11  1  1  0  0  0  0
 12 13  2  0  0  0  0
 12 17  1  0  0  0  0
 13 15  1  0  0  0  0
 14 19  1  0  0  0  0
 14 18  1  0  0  0  0
 15 19  2  0  0  0  0
 16 17  1  0  0  0  0
 17 14  2  0  0  0  0
 21 20  1  0  0  0  0
 22 21  1  6  0  0  0
 23 25  1  0  0  0  0
 23 22  1  0  0  0  0
 25 24  1  0  0  0  0
 25 22  1  0  0  0  0
 26 23  1  0  0  0  0
 27 28  2  0  0  0  0
 28 26  1  0  0  0  0
M  END
>  <MODEL>
5

>  <REMARK>
 VINA RESULT:      -7.3      3.204      7.315
  Name = 
  6 active torsions:
  status: ('A' for Active; 'I' for Inactive)
    1  A    between atoms: C_1  and  C_2
    2  A    between atoms: C_4  and  C_12
    3  A    between atoms: C_4  and  C_13
    4  A    between atoms: C_9  and  N_15
    5  A    between atoms: C_9  and  C_18
    6  A    between atoms: N_10  and  C_13
                            x       y       z     vdW  Elec       q    Type
                         _______ _______ _______ _____ _____    ______ ____

>  <TORSDO>
F 6

$$$$
=
 OpenBabel11052422523D

 28 31  0  0  1  0  0  0  0  0999 V2000
  160.9070  205.9150  149.5560 C   0  0  1  0  0  3  0  0  0  0  0  0
  162.0370  205.2020  153.3850 O   0  0  0  0  0  0  0  0  0  0  0  0
  162.2710  208.9380  149.7340 N   0  0  0  0  0  0  0  0  0  0  0  0
  162.2050  206.7410  151.5970 C   0  0  1  0  0  3  0  0  0  0  0  0
  162.7850  207.6270  149.2940 C   0  0  0  0  0  2  0  0  0  0  0  0
  160.2590  205.0540  151.8370 C   0  0  0  0  0  2  0  0  0  0  0  0
  161.5010  208.0720  151.8990 C   0  0  0  0  0  2  0  0  0  0  0  0
  161.5460  205.6230  152.3490 C   0  0  0  0  0  0  0  0  0  0  0  0
  161.1190  208.8260  150.6280 C   0  0  0  0  0  2  0  0  0  0  0  0
  160.3910  204.7140  150.3550 C   0  0  0  0  0  2  0  0  0  0  0  0
  162.2690  206.4130  150.0930 C   0  0  2  0  0  3  0  0  0  0  0  0
  160.9240  205.6200  148.0790 C   0  0  0  0  0  0  0  0  0  0  0  0
  160.5820  206.6650  147.2110 C   0  0  0  0  0  3  0  0  0  0  0  0
  161.3010  204.1830  146.1430 C   0  0  0  0  0  0  0  0  0  0  0  0
  160.5970  206.4790  145.8280 C   0  0  0  0  0  3  0  0  0  0  0  0
  161.6690  203.2190  148.4260 C   0  0  0  0  0  1  0  0  0  0  0  0
  161.2820  204.3610  147.5410 C   0  0  0  0  0  0  0  0  0  0  0  0
  161.6570  202.9600  145.5840 O   0  0  0  0  0  1  0  0  0  0  0  0
  160.9590  205.2400  145.2960 C   0  0  0  0  0  3  0  0  0  0  0  0
  161.7970  209.6160  148.5400 C   0  0  0  0  0  2  0  0  0  0  0  0
  162.3150  211.0450  148.5010 C   0  0  0  0  0  2  0  0  0  0  0  0
  161.1460  212.0280  148.3720 C   0  0  2  0  0  3  0  0  0  0  0  0
  161.2560  213.0100  147.3220 N   0  0  0  0  0  0  0  0  0  0  0  0
  160.4320  214.0490  149.2270 C   0  0  0  0  0  1  0  0  0  0  0  0
  161.5830  213.3470  148.6860 N   0  0  0  0  0  0  0  0  0  0  0  0
  162.5200  212.9930  146.5870 C   0  0  0  0  0  2  0  0  0  0  0  0
  163.2420  213.2370  144.2520 C   0  0  0  0  0  2  0  0  0  0  0  0
  162.3070  213.4390  145.1770 C   0  0  0  0  0  3  0  0  0  0  0  0
  1 12  1  6  0  0  0
  1 11  1  0  0  0  0
  1 10  1  0  0  0  0
  3  9  1  0  0  0  0
  4  7  1  6  0  0  0
  4  8  1  0  0  0  0
  5  3  1  0  0  0  0
  6  8  1  0  0  0  0
  8  2  2  0  0  0  0
  9  7  1  0  0  0  0
 10  6  1  0  0  0  0
 11  5  1  6  0  0  0
 11  4  1  0  0  0  0
 13 12  2  0  0  0  0
 14 17  2  0  0  0  0
 15 13  1  0  0  0  0
 17 12  1  0  0  0  0
 17 16  1  0  0  0  0
 18 14  1  0  0  0  0
 19 15  2  0  0  0  0
 19 14  1  0  0  0  0
 20  3  1  0  0  0  0
 21 20  1  0  0  0  0
 22 21  1  6  0  0  0
 22 25  1  0  0  0  0
 23 22  1  0  0  0  0
 23 25  1  0  0  0  0
 25 24  1  0  0  0  0
 26 23  1  0  0  0  0
 27 28  2  0  0  0  0
 28 26  1  0  0  0  0
M  END
>  <MODEL>
6

>  <REMARK>
 VINA RESULT:      -7.2      3.326      6.240
  Name = 
  6 active torsions:
  status: ('A' for Active; 'I' for Inactive)
    1  A    between atoms: C_1  and  C_2
    2  A    between atoms: C_4  and  C_12
    3  A    between atoms: C_4  and  C_13
    4  A    between atoms: C_9  and  N_15
    5  A    between atoms: C_9  and  C_18
    6  A    between atoms: N_10  and  C_13
                            x       y       z     vdW  Elec       q    Type
                         _______ _______ _______ _____ _____    ______ ____

>  <TORSDO>
F 6

$$$$
=
 OpenBabel11052422523D

 28 31  0  0  1  0  0  0  0  0999 V2000
  161.4360  209.5360  152.3530 C   0  0  1  0  0  3  0  0  0  0  0  0
  160.2690  206.9250  155.2280 O   0  0  0  0  0  0  0  0  0  0  0  0
  161.8120  207.0070  150.2340 N   0  0  0  0  0  0  0  0  0  0  0  0
  160.8300  207.1230  152.9400 C   0  0  1  0  0  3  0  0  0  0  0  0
  160.6830  207.9080  150.5340 C   0  0  0  0  0  2  0  0  0  0  0  0
  161.6540  208.7780  154.7500 C   0  0  0  0  0  2  0  0  0  0  0  0
  162.1270  206.3800  152.5860 C   0  0  0  0  0  2  0  0  0  0  0  0
  160.8600  207.5660  154.3720 C   0  0  0  0  0  0  0  0  0  0  0  0
  162.7840  206.9300  151.3230 C   0  0  0  0  0  2  0  0  0  0  0  0
  161.3020  209.9400  153.8250 C   0  0  0  0  0  2  0  0  0  0  0  0
  160.5430  208.3200  152.0130 C   0  0  2  0  0  3  0  0  0  0  0  0
  161.2070  210.7130  151.4420 C   0  0  0  0  0  0  0  0  0  0  0  0
  162.0050  210.8020  150.2940 C   0  0  0  0  0  3  0  0  0  0  0  0
  160.0600  212.7550  150.7590 C   0  0  0  0  0  0  0  0  0  0  0  0
  161.8370  211.8490  149.3860 C   0  0  0  0  0  3  0  0  0  0  0  0
  159.3410  211.6450  152.8870 C   0  0  0  0  0  1  0  0  0  0  0  0
  160.2260  211.7050  151.6830 C   0  0  0  0  0  0  0  0  0  0  0  0
  159.0980  213.7400  150.9640 O   0  0  0  0  0  1  0  0  0  0  0  0
  160.8640  212.8230  149.6190 C   0  0  0  0  0  3  0  0  0  0  0  0
  162.5130  207.5890  149.1020 C   0  0  0  0  0  2  0  0  0  0  0  0
  162.6490  206.5700  147.9810 C   0  0  0  0  0  2  0  0  0  0  0  0
  161.3020  206.3800  147.2740 C   0  0  2  0  0  3  0  0  0  0  0  0
  160.7430  205.0520  147.3220 N   0  0  0  0  0  0  0  0  0  0  0  0
  160.4560  205.9010  145.1820 C   0  0  0  0  0  1  0  0  0  0  0  0
  161.4590  205.5100  146.1570 N   0  0  0  0  0  0  0  0  0  0  0  0
  161.5920  204.0440  147.9570 C   0  0  0  0  0  2  0  0  0  0  0  0
  160.9900  203.6180  150.3000 C   0  0  0  0  0  2  0  0  0  0  0  0
  160.8290  203.3140  149.0150 C   0  0  0  0  0  3  0  0  0  0  0  0
  1 12  1  6  0  0  0
  1 10  1  0  0  0  0
  3  5  1  0  0  0  0
  3  9  1  0  0  0  0
  4  7  1  6  0  0  0
  4  8  1  0  0  0  0
  8  6  1  0  0  0  0
  8  2  2  0  0  0  0
  9  7  1  0  0  0  0
 10  6  1  0  0  0  0
 11  5  1  6  0  0  0
 11  1  1  0  0  0  0
 11  4  1  0  0  0  0
 12 17  1  0  0  0  0
 13 12  2  0  0  0  0
 14 18  1  0  0  0  0
 14 17  2  0  0  0  0
 15 19  2  0  0  0  0
 15 13  1  0  0  0  0
 17 16  1  0  0  0  0
 19 14  1  0  0  0  0
 20  3  1  0  0  0  0
 21 20  1  0  0  0  0
 22 23  1  0  0  0  0
 22 21  1  1  0  0  0
 23 26  1  0  0  0  0
 24 25  1  0  0  0  0
 25 22  1  0  0  0  0
 25 23  1  0  0  0  0
 26 28  1  0  0  0  0
 28 27  2  0  0  0  0
M  END
>  <MODEL>
7

>  <REMARK>
 VINA RESULT:      -7.0      3.169      8.027
  Name = 
  6 active torsions:
  status: ('A' for Active; 'I' for Inactive)
    1  A    between atoms: C_1  and  C_2
    2  A    between atoms: C_4  and  C_12
    3  A    between atoms: C_4  and  C_13
    4  A    between atoms: C_9  and  N_15
    5  A    between atoms: C_9  and  C_18
    6  A    between atoms: N_10  and  C_13
                            x       y       z     vdW  Elec       q    Type
                         _______ _______ _______ _____ _____    ______ ____

>  <TORSDO>
F 6

$$$$
=
 OpenBabel11052422523D

 28 31  0  0  1  0  0  0  0  0999 V2000
  159.5040  212.7300  153.4700 C   0  0  1  0  0  3  0  0  0  0  0  0
  158.7100  211.4070  157.2200 O   0  0  0  0  0  0  0  0  0  0  0  0
  161.0500  209.8680  152.8050 N   0  0  0  0  0  0  0  0  0  0  0  0
  159.5970  210.7800  155.1190 C   0  0  1  0  0  3  0  0  0  0  0  0
  159.6590  210.3250  152.6270 C   0  0  0  0  0  2  0  0  0  0  0  0
  159.5000  213.2300  155.9430 C   0  0  0  0  0  2  0  0  0  0  0  0
  161.1040  210.4920  155.1790 C   0  0  0  0  0  2  0  0  0  0  0  0
  159.2170  211.7780  156.1720 C   0  0  0  0  0  0  0  0  0  0  0  0
  161.7760  210.6360  153.8160 C   0  0  0  0  0  2  0  0  0  0  0  0
  158.9770  213.6540  154.5730 C   0  0  0  0  0  2  0  0  0  0  0  0
  159.1220  211.2560  153.7320 C   0  0  2  0  0  3  0  0  0  0  0  0
  159.0880  213.2180  152.1070 C   0  0  0  0  0  0  0  0  0  0  0  0
  160.0780  213.2850  151.1190 C   0  0  0  0  0  3  0  0  0  0  0  0
  157.4540  214.0000  150.4730 C   0  0  0  0  0  0  0  0  0  0  0  0
  159.7670  213.7030  149.8230 C   0  0  0  0  0  3  0  0  0  0  0  0
  156.6650  213.5150  152.8010 C   0  0  0  0  0  1  0  0  0  0  0  0
  157.7590  213.5850  151.7840 C   0  0  0  0  0  0  0  0  0  0  0  0
  156.1550  214.3590  150.1230 O   0  0  0  0  0  1  0  0  0  0  0  0
  158.4560  214.0580  149.5010 C   0  0  0  0  0  3  0  0  0  0  0  0
  161.7290  210.1110  151.5440 C   0  0  0  0  0  2  0  0  0  0  0  0
  162.3230  208.8200  151.0040 C   0  0  0  0  0  2  0  0  0  0  0  0
  161.2090  207.8960  150.5000 C   0  0  2  0  0  3  0  0  0  0  0  0
  161.0700  206.6360  151.1880 N   0  0  0  0  0  0  0  0  0  0  0  0
  160.8500  206.2640  148.9080 C   0  0  0  0  0  1  0  0  0  0  0  0
  161.7750  206.7180  149.9320 N   0  0  0  0  0  0  0  0  0  0  0  0
  162.0810  206.3740  152.2110 C   0  0  0  0  0  2  0  0  0  0  0  0
  160.8300  206.8040  154.2810 C   0  0  0  0  0  2  0  0  0  0  0  0
  161.4320  205.9280  153.4810 C   0  0  0  0  0  3  0  0  0  0  0  0
  1 12  1  6  0  0  0
  1 11  1  0  0  0  0
  1 10  1  0  0  0  0
  3  9  1  0  0  0  0
  4  7  1  6  0  0  0
  4  8  1  0  0  0  0
  5  3  1  0  0  0  0
  6  8  1  0  0  0  0
  8  2  2  0  0  0  0
  9  7  1  0  0  0  0
 10  6  1  0  0  0  0
 11  5  1  6  0  0  0
 11  4  1  0  0  0  0
 13 12  2  0  0  0  0
 14 17  2  0  0  0  0
 15 13  1  0  0  0  0
 17 12  1  0  0  0  0
 17 16  1  0  0  0  0
 18 14  1  0  0  0  0
 19 15  2  0  0  0  0
 19 14  1  0  0  0  0
 20  3  1  0  0  0  0
 21 20  1  0  0  0  0
 22 21  1  1  0  0  0
 22 23  1  0  0  0  0
 23 26  1  0  0  0  0
 24 25  1  0  0  0  0
 25 22  1  0  0  0  0
 25 23  1  0  0  0  0
 26 28  1  0  0  0  0
 28 27  2  0  0  0  0
M  END
>  <MODEL>
8

>  <REMARK>
 VINA RESULT:      -6.8      4.199      9.136
  Name = 
  6 active torsions:
  status: ('A' for Active; 'I' for Inactive)
    1  A    between atoms: C_1  and  C_2
    2  A    between atoms: C_4  and  C_12
    3  A    between atoms: C_4  and  C_13
    4  A    between atoms: C_9  and  N_15
    5  A    between atoms: C_9  and  C_18
    6  A    between atoms: N_10  and  C_13
                            x       y       z     vdW  Elec       q    Type
                         _______ _______ _______ _____ _____    ______ ____

>  <TORSDO>
F 6

$$$$
=
 OpenBabel11052422523D

 28 31  0  0  1  0  0  0  0  0999 V2000
  160.8140  205.7740  149.4170 C   0  0  1  0  0  3  0  0  0  0  0  0
  161.8450  204.7560  153.2040 O   0  0  0  0  0  0  0  0  0  0  0  0
  162.3710  208.6830  149.7920 N   0  0  0  0  0  0  0  0  0  0  0  0
  162.1370  206.3870  151.5160 C   0  0  1  0  0  3  0  0  0  0  0  0
  162.8030  207.3700  149.2770 C   0  0  0  0  0  2  0  0  0  0  0  0
  160.0810  204.8200  151.6350 C   0  0  0  0  0  2  0  0  0  0  0  0
  161.5180  207.7400  151.8930 C   0  0  0  0  0  2  0  0  0  0  0  0
  161.3960  205.2710  152.1910 C   0  0  0  0  0  0  0  0  0  0  0  0
  161.2020  208.5940  150.6670 C   0  0  0  0  0  2  0  0  0  0  0  0
  160.2100  204.5630  150.1360 C   0  0  0  0  0  2  0  0  0  0  0  0
  162.1980  206.1470  149.9950 C   0  0  2  0  0  3  0  0  0  0  0  0
  160.8300  205.5690  147.9240 C   0  0  0  0  0  0  0  0  0  0  0  0
  160.4780  206.6620  147.1220 C   0  0  0  0  0  3  0  0  0  0  0  0
  161.2150  204.2550  145.9050 C   0  0  0  0  0  0  0  0  0  0  0  0
  160.4920  206.5600  145.7300 C   0  0  0  0  0  3  0  0  0  0  0  0
  161.5960  203.1580  148.1250 C   0  0  0  0  0  1  0  0  0  0  0  0
  161.1980  204.3470  147.3110 C   0  0  0  0  0  0  0  0  0  0  0  0
  161.5800  203.0710  145.2720 O   0  0  0  0  0  1  0  0  0  0  0  0
  160.8630  205.3580  145.1230 C   0  0  0  0  0  3  0  0  0  0  0  0
  161.9580  209.4630  148.6380 C   0  0  0  0  0  2  0  0  0  0  0  0
  161.3970  210.8060  149.0790 C   0  0  0  0  0  2  0  0  0  0  0  0
  162.2400  211.9470  148.5000 C   0  0  2  0  0  3  0  0  0  0  0  0
  161.6310  213.2540  148.5100 N   0  0  0  0  0  0  0  0  0  0  0  0
  162.7040  212.9510  146.4750 C   0  0  0  0  0  1  0  0  0  0  0  0
  161.6300  212.4480  147.3140 N   0  0  0  0  0  0  0  0  0  0  0  0
  160.2480  213.2890  148.9840 C   0  0  0  0  0  2  0  0  0  0  0  0
  159.7050  213.4430  151.3740 C   0  0  0  0  0  2  0  0  0  0  0  0
  160.1600  214.0370  150.2750 C   0  0  0  0  0  3  0  0  0  0  0  0
  1 12  1  6  0  0  0
  1 11  1  0  0  0  0
  1 10  1  0  0  0  0
  3  9  1  0  0  0  0
  4  7  1  6  0  0  0
  4  8  1  0  0  0  0
  5  3  1  0  0  0  0
  6  8  1  0  0  0  0
  8  2  2  0  0  0  0
  9  7  1  0  0  0  0
 10  6  1  0  0  0  0
 11  5  1  6  0  0  0
 11  4  1  0  0  0  0
 13 12  2  0  0  0  0
 14 17  2  0  0  0  0
 15 13  1  0  0  0  0
 17 12  1  0  0  0  0
 17 16  1  0  0  0  0
 18 14  1  0  0  0  0
 19 15  2  0  0  0  0
 19 14  1  0  0  0  0
 20 21  1  0  0  0  0
 20  3  1  0  0  0  0
 22 23  1  0  0  0  0
 22 21  1  1  0  0  0
 23 26  1  0  0  0  0
 24 25  1  0  0  0  0
 25 22  1  0  0  0  0
 25 23  1  0  0  0  0
 26 28  1  0  0  0  0
 28 27  2  0  0  0  0
M  END
>  <MODEL>
9

>  <REMARK>
 VINA RESULT:      -6.7      2.947      5.536
  Name = 
  6 active torsions:
  status: ('A' for Active; 'I' for Inactive)
    1  A    between atoms: C_1  and  C_2
    2  A    between atoms: C_4  and  C_12
    3  A    between atoms: C_4  and  C_13
    4  A    between atoms: C_9  and  N_15
    5  A    between atoms: C_9  and  C_18
    6  A    between atoms: N_10  and  C_13
                            x       y       z     vdW  Elec       q    Type
                         _______ _______ _______ _____ _____    ______ ____

>  <TORSDO>
F 6

$$$$
