=
 OpenBabel11052422513D

 28 31  0  0  1  0  0  0  0  0999 V2000
  161.6360  203.4160  148.0100 C   0  0  2  0  0  3  0  0  0  0  0  0
  160.7750  200.3290  150.8920 C   0  0  0  0  0  1  0  0  0  0  0  0
  161.3390  205.3920  151.2680 C   0  0  0  0  0  0  0  0  0  0  0  0
  160.7910  202.7810  150.3360 C   0  0  0  0  0  0  0  0  0  0  0  0
  161.5960  205.0390  149.9370 C   0  0  0  0  0  3  0  0  0  0  0  0
  161.1650  201.0280  148.5560 C   0  0  0  0  0  2  0  0  0  0  0  0
  160.4940  203.1470  151.6560 C   0  0  0  0  0  3  0  0  0  0  0  0
  160.4450  201.3870  149.8510 C   0  0  1  0  0  3  0  0  0  0  0  0
  160.7660  204.4350  152.1180 C   0  0  0  0  0  3  0  0  0  0  0  0
  160.9640  202.1290  147.5300 C   0  0  0  0  0  2  0  0  0  0  0  0
  161.3010  203.7580  149.4480 C   0  0  0  0  0  0  0  0  0  0  0  0
  161.0350  207.1780  152.8930 C   0  0  0  0  0  3  0  0  0  0  0  0
  161.5850  208.8320  150.3350 C   0  0  0  0  0  2  0  0  0  0  0  0
  160.4380  209.5550  152.4840 C   0  0  2  0  0  3  0  0  0  0  0  0
  161.6180  206.7700  151.7560 C   0  0  0  0  0  0  0  0  0  0  0  0
  163.2600  207.1440  150.0090 O   0  0  0  0  0  1  0  0  0  0  0  0
  161.3440  209.9670  151.3260 C   0  0  0  0  0  2  0  0  0  0  0  0
  162.4560  207.7590  150.9700 C   0  0  1  0  0  3  0  0  0  0  0  0
  160.0510  210.7910  153.2660 C   0  0  0  0  0  1  0  0  0  0  0  0
  161.1420  208.5760  153.4200 C   0  0  0  0  0  2  0  0  0  0  0  0
  161.3540  204.5460  147.0550 C   0  0  0  0  0  0  0  0  0  0  0  0
  160.5150  205.5310  147.4000 C   0  0  0  0  0  3  0  0  0  0  0  0
  161.7080  205.6610  144.7400 C   0  0  1  0  0  3  0  0  0  0  0  0
  160.2570  206.6690  146.5020 C   0  0  0  0  0  3  0  0  0  0  0  0
  162.9200  203.7370  145.4660 O   0  0  0  0  0  0  0  0  0  0  0  0
  162.0460  204.5990  145.7520 C   0  0  0  0  0  0  0  0  0  0  0  0
  161.1020  205.0800  143.6430 F   0  0  0  0  0  0  0  0  0  0  0  0
  160.8120  206.7400  145.2900 C   0  0  0  0  0  3  0  0  0  0  0  0
  1 21  1  6  0  0  0
  1 11  1  0  0  0  0
  3 15  1  0  0  0  0
  3  9  1  0  0  0  0
  4  7  1  0  0  0  0
  5  3  2  0  0  0  0
  6  8  1  0  0  0  0
  7  9  2  0  0  0  0
  8  4  1  0  0  0  0
  8  2  1  1  0  0  0
 10  1  1  0  0  0  0
 10  6  1  0  0  0  0
 11  5  1  0  0  0  0
 11  4  2  0  0  0  0
 12 20  1  0  0  0  0
 13 18  1  0  0  0  0
 13 17  1  0  0  0  0
 14 19  1  1  0  0  0
 14 20  1  0  0  0  0
 15 12  2  0  0  0  0
 17 14  1  0  0  0  0
 18 16  1  6  0  0  0
 18 15  1  0  0  0  0
 21 22  2  0  0  0  0
 23 27  1  6  0  0  0
 23 28  1  0  0  0  0
 23 26  1  0  0  0  0
 24 22  1  0  0  0  0
 25 26  2  0  0  0  0
 26 21  1  0  0  0  0
 28 24  2  0  0  0  0
M  END
>  <MODEL>
1

>  <REMARK>
 VINA RESULT:      -8.8      0.000      0.000
  Name = 
  2 active torsions:
  status: ('A' for Active; 'I' for Inactive)
    1  A    between atoms: C_1  and  C_2
    2  A    between atoms: C_10  and  C_13
                            x       y       z     vdW  Elec       q    Type
                         _______ _______ _______ _____ _____    ______ ____

>  <TORSDO>
F 2

$$$$
=
 OpenBabel11052422513D

 28 31  0  0  1  0  0  0  0  0999 V2000
  160.6280  210.0170  152.9300 C   0  0  2  0  0  3  0  0  0  0  0  0
  161.2950  207.8870  156.6170 C   0  0  0  0  0  1  0  0  0  0  0  0
  160.8820  206.3900  151.7500 C   0  0  0  0  0  0  0  0  0  0  0  0
  161.3760  207.8750  154.1040 C   0  0  0  0  0  0  0  0  0  0  0  0
  160.6580  207.7720  151.7850 C   0  0  0  0  0  3  0  0  0  0  0  0
  161.0040  210.0130  155.3960 C   0  0  0  0  0  2  0  0  0  0  0  0
  161.6420  206.4990  154.0560 C   0  0  0  0  0  3  0  0  0  0  0  0
  161.6930  208.6530  155.3650 C   0  0  1  0  0  3  0  0  0  0  0  0
  161.3960  205.7650  152.8950 C   0  0  0  0  0  3  0  0  0  0  0  0
  161.2730  210.7590  154.1010 C   0  0  0  0  0  2  0  0  0  0  0  0
  160.9260  208.5310  152.9330 C   0  0  0  0  0  0  0  0  0  0  0  0
  160.3190  204.3110  150.6180 C   0  0  0  0  0  3  0  0  0  0  0  0
  162.0710  205.6700  148.4590 C   0  0  0  0  0  2  0  0  0  0  0  0
  161.5000  203.2090  148.7310 C   0  0  2  0  0  3  0  0  0  0  0  0
  160.6310  205.6100  150.5080 C   0  0  0  0  0  0  0  0  0  0  0  0
  160.8080  207.5980  149.1270 O   0  0  0  0  0  1  0  0  0  0  0  0
  161.7760  204.3500  147.7530 C   0  0  0  0  0  2  0  0  0  0  0  0
  160.8110  206.2030  149.1240 C   0  0  1  0  0  3  0  0  0  0  0  0
  161.4700  201.9050  147.9640 C   0  0  0  0  0  1  0  0  0  0  0  0
  160.1630  203.3960  149.4420 C   0  0  0  0  0  2  0  0  0  0  0  0
  160.9770  210.6840  151.6260 C   0  0  0  0  0  0  0  0  0  0  0  0
  161.9570  210.1960  150.8550 C   0  0  0  0  0  3  0  0  0  0  0  0
  160.5920  212.5980  149.9170 C   0  0  1  0  0  3  0  0  0  0  0  0
  162.2880  210.8040  149.5560 C   0  0  0  0  0  3  0  0  0  0  0  0
  159.2050  212.2500  151.8290 O   0  0  0  0  0  0  0  0  0  0  0  0
  160.2000  211.8530  151.1650 C   0  0  0  0  0  0  0  0  0  0  0  0
  161.0340  213.8630  150.2520 F   0  0  0  0  0  0  0  0  0  0  0  0
  161.6560  211.8940  149.1170 C   0  0  0  0  0  3  0  0  0  0  0  0
  1 21  1  6  0  0  0
  1 11  1  0  0  0  0
  1 10  1  0  0  0  0
  3  5  2  0  0  0  0
  3  9  1  0  0  0  0
  4  8  1  0  0  0  0
  5 11  1  0  0  0  0
  7  4  1  0  0  0  0
  8  6  1  0  0  0  0
  8  2  1  1  0  0  0
  9  7  2  0  0  0  0
 10  6  1  0  0  0  0
 11  4  2  0  0  0  0
 13 18  1  0  0  0  0
 14 19  1  6  0  0  0
 14 20  1  0  0  0  0
 15 12  2  0  0  0  0
 15  3  1  0  0  0  0
 17 13  1  0  0  0  0
 17 14  1  0  0  0  0
 18 16  1  1  0  0  0
 18 15  1  0  0  0  0
 20 12  1  0  0  0  0
 22 21  2  0  0  0  0
 23 27  1  1  0  0  0
 23 26  1  0  0  0  0
 24 22  1  0  0  0  0
 26 21  1  0  0  0  0
 26 25  2  0  0  0  0
 28 24  2  0  0  0  0
 28 23  1  0  0  0  0
M  END
>  <MODEL>
2

>  <REMARK>
 VINA RESULT:      -7.8      2.967      7.257
  Name = 
  2 active torsions:
  status: ('A' for Active; 'I' for Inactive)
    1  A    between atoms: C_1  and  C_2
    2  A    between atoms: C_10  and  C_13
                            x       y       z     vdW  Elec       q    Type
                         _______ _______ _______ _____ _____    ______ ____

>  <TORSDO>
F 2

$$$$
=
 OpenBabel11052422513D

 28 31  0  0  1  0  0  0  0  0999 V2000
  159.7000  210.0900  153.3930 C   0  0  2  0  0  3  0  0  0  0  0  0
  160.2160  207.6180  156.8870 C   0  0  0  0  0  1  0  0  0  0  0  0
  161.4400  207.0000  151.9660 C   0  0  0  0  0  0  0  0  0  0  0  0
  160.8550  208.1000  154.5040 C   0  0  0  0  0  0  0  0  0  0  0  0
  160.7540  208.2150  152.0780 C   0  0  0  0  0  3  0  0  0  0  0  0
  159.4930  209.7420  155.8550 C   0  0  0  0  0  2  0  0  0  0  0  0
  161.5810  206.9050  154.3910 C   0  0  0  0  0  3  0  0  0  0  0  0
  160.5950  208.6880  155.8760 C   0  0  1  0  0  3  0  0  0  0  0  0
  161.8680  206.3600  153.1380 C   0  0  0  0  0  3  0  0  0  0  0  0
  159.7720  210.7620  154.7650 C   0  0  0  0  0  2  0  0  0  0  0  0
  160.4820  208.7920  153.3270 C   0  0  0  0  0  0  0  0  0  0  0  0
  161.9180  207.2630  149.5950 C   0  0  0  0  0  3  0  0  0  0  0  0
  160.5900  204.4670  149.5950 C   0  0  0  0  0  2  0  0  0  0  0  0
  160.8670  206.1000  147.6670 C   0  0  2  0  0  3  0  0  0  0  0  0
  161.7570  206.4260  150.6300 C   0  0  0  0  0  0  0  0  0  0  0  0
  161.9560  204.1890  151.5480 O   0  0  0  0  0  1  0  0  0  0  0  0
  160.8310  204.6340  148.0980 C   0  0  0  0  0  2  0  0  0  0  0  0
  161.8090  204.9330  150.3770 C   0  0  1  0  0  3  0  0  0  0  0  0
  160.8540  206.1660  146.1560 C   0  0  0  0  0  1  0  0  0  0  0  0
  162.1200  206.8010  148.1840 C   0  0  0  0  0  2  0  0  0  0  0  0
  160.0820  211.0620  152.3080 C   0  0  0  0  0  0  0  0  0  0  0  0
  161.1850  210.8630  151.5770 C   0  0  0  0  0  3  0  0  0  0  0  0
  159.6130  213.2540  151.0020 C   0  0  1  0  0  3  0  0  0  0  0  0
  161.5560  211.7750  150.4820 C   0  0  0  0  0  3  0  0  0  0  0  0
  158.1090  212.3460  152.6180 O   0  0  0  0  0  0  0  0  0  0  0  0
  159.2060  212.2140  152.0110 C   0  0  0  0  0  0  0  0  0  0  0  0
  159.8540  214.4530  151.6440 F   0  0  0  0  0  0  0  0  0  0  0  0
  160.8310  212.8620  150.2070 C   0  0  0  0  0  3  0  0  0  0  0  0
  1 21  1  6  0  0  0
  1 10  1  0  0  0  0
  3  5  2  0  0  0  0
  3  9  1  0  0  0  0
  4  8  1  0  0  0  0
  5 11  1  0  0  0  0
  6  8  1  0  0  0  0
  7  4  1  0  0  0  0
  8  2  1  1  0  0  0
  9  7  2  0  0  0  0
 10  6  1  0  0  0  0
 11  1  1  0  0  0  0
 11  4  2  0  0  0  0
 12 15  2  0  0  0  0
 13 18  1  0  0  0  0
 14 19  1  6  0  0  0
 14 17  1  0  0  0  0
 14 20  1  0  0  0  0
 15  3  1  0  0  0  0
 17 13  1  0  0  0  0
 18 15  1  0  0  0  0
 18 16  1  1  0  0  0
 20 12  1  0  0  0  0
 22 21  2  0  0  0  0
 23 27  1  1  0  0  0
 23 26  1  0  0  0  0
 24 22  1  0  0  0  0
 26 21  1  0  0  0  0
 26 25  2  0  0  0  0
 28 24  2  0  0  0  0
 28 23  1  0  0  0  0
M  END
>  <MODEL>
3

>  <REMARK>
 VINA RESULT:      -7.6      3.326      7.597
  Name = 
  2 active torsions:
  status: ('A' for Active; 'I' for Inactive)
    1  A    between atoms: C_1  and  C_2
    2  A    between atoms: C_10  and  C_13
                            x       y       z     vdW  Elec       q    Type
                         _______ _______ _______ _____ _____    ______ ____

>  <TORSDO>
F 2

$$$$
=
 OpenBabel11052422513D

 28 31  0  0  1  0  0  0  0  0999 V2000
  160.0880  210.8800  152.1770 C   0  0  2  0  0  3  0  0  0  0  0  0
  159.7070  209.5550  156.2610 C   0  0  0  0  0  1  0  0  0  0  0  0
  161.3770  207.2860  151.9990 C   0  0  0  0  0  0  0  0  0  0  0  0
  160.7080  209.1840  153.9840 C   0  0  0  0  0  0  0  0  0  0  0  0
  160.9220  208.5620  151.6450 C   0  0  0  0  0  3  0  0  0  0  0  0
  159.5240  211.3390  154.5630 C   0  0  0  0  0  2  0  0  0  0  0  0
  161.2050  207.9210  154.3390 C   0  0  0  0  0  3  0  0  0  0  0  0
  160.3990  210.1970  155.0680 C   0  0  1  0  0  3  0  0  0  0  0  0
  161.5340  206.9830  153.3600 C   0  0  0  0  0  3  0  0  0  0  0  0
  160.1190  211.9230  153.2940 C   0  0  0  0  0  2  0  0  0  0  0  0
  160.6150  209.5270  152.6140 C   0  0  0  0  0  0  0  0  0  0  0  0
  162.0820  206.7340  149.7370 C   0  0  0  0  0  3  0  0  0  0  0  0
  160.4500  204.2030  150.4510 C   0  0  0  0  0  2  0  0  0  0  0  0
  161.0730  205.1030  148.1570 C   0  0  2  0  0  3  0  0  0  0  0  0
  161.7400  206.2900  150.9550 C   0  0  0  0  0  0  0  0  0  0  0  0
  161.6050  204.4580  152.5390 O   0  0  0  0  0  1  0  0  0  0  0  0
  160.8350  203.8610  149.0140 C   0  0  0  0  0  2  0  0  0  0  0  0
  161.6430  204.7950  151.1860 C   0  0  1  0  0  3  0  0  0  0  0  0
  161.1970  204.6820  146.7090 C   0  0  0  0  0  1  0  0  0  0  0  0
  162.3500  205.8290  148.5730 C   0  0  0  0  0  2  0  0  0  0  0  0
  160.7720  211.4070  150.9430 C   0  0  0  0  0  0  0  0  0  0  0  0
  161.8050  210.7460  150.4060 C   0  0  0  0  0  3  0  0  0  0  0  0
  160.9940  213.2340  149.1140 C   0  0  1  0  0  3  0  0  0  0  0  0
  162.4630  211.2170  149.1760 C   0  0  0  0  0  3  0  0  0  0  0  0
  159.2290  213.1970  150.7220 O   0  0  0  0  0  0  0  0  0  0  0  0
  160.2690  212.6320  150.2880 C   0  0  0  0  0  0  0  0  0  0  0  0
  161.5360  214.4510  149.4790 F   0  0  0  0  0  0  0  0  0  0  0  0
  162.0850  212.3470  148.5740 C   0  0  0  0  0  3  0  0  0  0  0  0
  1 21  1  6  0  0  0
  1 11  1  0  0  0  0
  1 10  1  0  0  0  0
  3  9  1  0  0  0  0
  4  7  1  0  0  0  0
  4  8  1  0  0  0  0
  5  3  2  0  0  0  0
  5 11  1  0  0  0  0
  6  8  1  0  0  0  0
  8  2  1  1  0  0  0
  9  7  2  0  0  0  0
 10  6  1  0  0  0  0
 11  4  2  0  0  0  0
 12 15  2  0  0  0  0
 13 18  1  0  0  0  0
 14 19  1  6  0  0  0
 14 20  1  0  0  0  0
 14 17  1  0  0  0  0
 15 18  1  0  0  0  0
 15  3  1  0  0  0  0
 17 13  1  0  0  0  0
 18 16  1  1  0  0  0
 20 12  1  0  0  0  0
 22 21  2  0  0  0  0
 23 27  1  1  0  0  0
 23 26  1  0  0  0  0
 24 22  1  0  0  0  0
 26 25  2  0  0  0  0
 26 21  1  0  0  0  0
 28 23  1  0  0  0  0
 28 24  2  0  0  0  0
M  END
>  <MODEL>
4

>  <REMARK>
 VINA RESULT:      -7.2      3.145      7.510
  Name = 
  2 active torsions:
  status: ('A' for Active; 'I' for Inactive)
    1  A    between atoms: C_1  and  C_2
    2  A    between atoms: C_10  and  C_13
                            x       y       z     vdW  Elec       q    Type
                         _______ _______ _______ _____ _____    ______ ____

>  <TORSDO>
F 2

$$$$
=
 OpenBabel11052422513D

 28 31  0  0  1  0  0  0  0  0999 V2000
  161.5610  210.2050  153.0240 C   0  0  2  0  0  3  0  0  0  0  0  0
  160.4750  212.5100  156.5010 C   0  0  0  0  0  1  0  0  0  0  0  0
  159.2680  212.8850  151.5510 C   0  0  0  0  0  0  0  0  0  0  0  0
  160.0020  211.9170  154.1040 C   0  0  0  0  0  0  0  0  0  0  0  0
  160.1820  211.8320  151.6820 C   0  0  0  0  0  3  0  0  0  0  0  0
  161.6350  210.5790  155.4900 C   0  0  0  0  0  2  0  0  0  0  0  0
  159.0530  212.9420  153.9710 C   0  0  0  0  0  3  0  0  0  0  0  0
  160.3430  211.3880  155.4820 C   0  0  1  0  0  3  0  0  0  0  0  0
  158.6920  213.4220  152.7120 C   0  0  0  0  0  3  0  0  0  0  0  0
  161.5930  209.5270  154.3950 C   0  0  0  0  0  2  0  0  0  0  0  0
  160.5350  211.3180  152.9370 C   0  0  0  0  0  0  0  0  0  0  0  0
  157.6110  213.1990  149.7970 C   0  0  0  0  0  3  0  0  0  0  0  0
  160.2010  213.0680  148.1080 C   0  0  0  0  0  2  0  0  0  0  0  0
  157.8000  212.6660  147.3780 C   0  0  2  0  0  3  0  0  0  0  0  0
  158.8740  213.3880  150.2070 C   0  0  0  0  0  0  0  0  0  0  0  0
  161.0290  214.4530  149.8840 O   0  0  0  0  0  1  0  0  0  0  0  0
  159.1740  213.2100  146.9880 C   0  0  0  0  0  2  0  0  0  0  0  0
  159.8660  214.0160  149.2490 C   0  0  1  0  0  3  0  0  0  0  0  0
  156.9270  212.6130  146.1430 C   0  0  0  0  0  1  0  0  0  0  0  0
  157.1280  213.5510  148.4230 C   0  0  0  0  0  2  0  0  0  0  0  0
  161.4090  209.1790  151.9320 C   0  0  0  0  0  0  0  0  0  0  0  0
  160.7780  208.0230  152.1700 C   0  0  0  0  0  3  0  0  0  0  0  0
  161.8620  208.4260  149.4910 C   0  0  1  0  0  3  0  0  0  0  0  0
  160.5780  207.0230  151.1080 C   0  0  0  0  0  3  0  0  0  0  0  0
  162.4050  210.6010  150.3130 O   0  0  0  0  0  0  0  0  0  0  0  0
  161.9110  209.4710  150.5740 C   0  0  0  0  0  0  0  0  0  0  0  0
  163.1460  208.0390  149.1620 F   0  0  0  0  0  0  0  0  0  0  0  0
  161.0600  207.2110  149.8770 C   0  0  0  0  0  3  0  0  0  0  0  0
  1 21  1  6  0  0  0
  1 10  1  0  0  0  0
  3  5  2  0  0  0  0
  3  9  1  0  0  0  0
  4  8  1  0  0  0  0
  5 11  1  0  0  0  0
  7  4  1  0  0  0  0
  8  6  1  0  0  0  0
  8  2  1  1  0  0  0
  9  7  2  0  0  0  0
 10  6  1  0  0  0  0
 11  1  1  0  0  0  0
 11  4  2  0  0  0  0
 12 15  2  0  0  0  0
 13 18  1  0  0  0  0
 14 19  1  6  0  0  0
 14 20  1  0  0  0  0
 15  3  1  0  0  0  0
 17 14  1  0  0  0  0
 17 13  1  0  0  0  0
 18 16  1  1  0  0  0
 18 15  1  0  0  0  0
 20 12  1  0  0  0  0
 21 22  2  0  0  0  0
 23 27  1  1  0  0  0
 23 28  1  0  0  0  0
 23 26  1  0  0  0  0
 24 22  1  0  0  0  0
 25 26  2  0  0  0  0
 26 21  1  0  0  0  0
 28 24  2  0  0  0  0
M  END
>  <MODEL>
5

>  <REMARK>
 VINA RESULT:      -7.0      4.143      8.132
  Name = 
  2 active torsions:
  status: ('A' for Active; 'I' for Inactive)
    1  A    between atoms: C_1  and  C_2
    2  A    between atoms: C_10  and  C_13
                            x       y       z     vdW  Elec       q    Type
                         _______ _______ _______ _____ _____    ______ ____

>  <TORSDO>
F 2

$$$$
=
 OpenBabel11052422513D

 28 31  0  0  1  0  0  0  0  0999 V2000
  161.4410  204.0780  148.5480 C   0  0  2  0  0  3  0  0  0  0  0  0
  160.7830  202.7920  152.6090 C   0  0  0  0  0  1  0  0  0  0  0  0
  161.5700  207.3710  150.4850 C   0  0  0  0  0  0  0  0  0  0  0  0
  160.8290  204.6830  150.9540 C   0  0  0  0  0  0  0  0  0  0  0  0
  161.6680  206.4140  149.4680 C   0  0  0  0  0  3  0  0  0  0  0  0
  160.9450  202.2760  150.2000 C   0  0  0  0  0  2  0  0  0  0  0  0
  160.6890  205.6510  151.9590 C   0  0  0  0  0  3  0  0  0  0  0  0
  160.3820  203.2600  151.2190 C   0  0  1  0  0  3  0  0  0  0  0  0
  161.0570  206.9770  151.7300 C   0  0  0  0  0  3  0  0  0  0  0  0
  160.6750  202.7780  148.7920 C   0  0  0  0  0  2  0  0  0  0  0  0
  161.2760  205.0830  149.6720 C   0  0  0  0  0  0  0  0  0  0  0  0
  161.6800  209.7000  151.1810 C   0  0  0  0  0  3  0  0  0  0  0  0
  161.5190  210.0380  148.1090 C   0  0  0  0  0  2  0  0  0  0  0  0
  160.9670  211.7230  149.9280 C   0  0  2  0  0  3  0  0  0  0  0  0
  161.9500  208.7880  150.2360 C   0  0  0  0  0  0  0  0  0  0  0  0
  163.0710  208.2070  148.1640 O   0  0  0  0  0  1  0  0  0  0  0  0
  161.5330  211.5050  148.5260 C   0  0  0  0  0  2  0  0  0  0  0  0
  162.5400  209.2530  148.9200 C   0  0  1  0  0  3  0  0  0  0  0  0
  160.7840  213.2080  150.1560 C   0  0  0  0  0  1  0  0  0  0  0  0
  161.9050  211.1700  150.9980 C   0  0  0  0  0  2  0  0  0  0  0  0
  161.0990  204.6470  147.1960 C   0  0  0  0  0  0  0  0  0  0  0  0
  160.7060  205.9210  147.0760 C   0  0  0  0  0  3  0  0  0  0  0  0
  160.8190  204.3220  144.6370 C   0  0  1  0  0  3  0  0  0  0  0  0
  160.4090  206.5120  145.7610 C   0  0  0  0  0  3  0  0  0  0  0  0
  161.7250  202.6480  146.0790 O   0  0  0  0  0  0  0  0  0  0  0  0
  161.2490  203.8110  145.9870 C   0  0  0  0  0  0  0  0  0  0  0  0
  159.7300  203.5970  144.1930 F   0  0  0  0  0  0  0  0  0  0  0  0
  160.4730  205.7870  144.6410 C   0  0  0  0  0  3  0  0  0  0  0  0
  1 21  1  6  0  0  0
  1 10  1  0  0  0  0
  1 11  1  0  0  0  0
  3  9  1  0  0  0  0
  4  8  1  0  0  0  0
  4  7  1  0  0  0  0
  5 11  1  0  0  0  0
  5  3  2  0  0  0  0
  6  8  1  0  0  0  0
  8  2  1  1  0  0  0
  9  7  2  0  0  0  0
 10  6  1  0  0  0  0
 11  4  2  0  0  0  0
 13 17  1  0  0  0  0
 13 18  1  0  0  0  0
 14 19  1  1  0  0  0
 14 20  1  0  0  0  0
 15  3  1  0  0  0  0
 15 12  2  0  0  0  0
 17 14  1  0  0  0  0
 18 16  1  6  0  0  0
 18 15  1  0  0  0  0
 20 12  1  0  0  0  0
 22 21  2  0  0  0  0
 23 27  1  1  0  0  0
 23 28  1  0  0  0  0
 23 26  1  0  0  0  0
 24 22  1  0  0  0  0
 26 25  2  0  0  0  0
 26 21  1  0  0  0  0
 28 24  2  0  0  0  0
M  END
>  <MODEL>
6

>  <REMARK>
 VINA RESULT:      -6.7      1.550      2.280
  Name = 
  2 active torsions:
  status: ('A' for Active; 'I' for Inactive)
    1  A    between atoms: C_1  and  C_2
    2  A    between atoms: C_10  and  C_13
                            x       y       z     vdW  Elec       q    Type
                         _______ _______ _______ _____ _____    ______ ____

>  <TORSDO>
F 2

$$$$
=
 OpenBabel11052422513D

 28 31  0  0  1  0  0  0  0  0999 V2000
  158.4040  212.6050  152.4270 C   0  0  2  0  0  3  0  0  0  0  0  0
  159.5680  212.4040  156.5720 C   0  0  0  0  0  1  0  0  0  0  0  0
  161.1150  209.9100  152.3900 C   0  0  0  0  0  0  0  0  0  0  0  0
  160.1050  211.8520  154.1780 C   0  0  0  0  0  0  0  0  0  0  0  0
  160.0640  210.7540  152.0110 C   0  0  0  0  0  3  0  0  0  0  0  0
  158.2290  213.4350  154.7720 C   0  0  0  0  0  2  0  0  0  0  0  0
  161.1860  211.0370  154.5420 C   0  0  0  0  0  3  0  0  0  0  0  0
  159.6140  212.9150  155.1400 C   0  0  1  0  0  3  0  0  0  0  0  0
  161.6840  210.0760  153.6610 C   0  0  0  0  0  3  0  0  0  0  0  0
  158.2000  213.8370  153.3080 C   0  0  0  0  0  2  0  0  0  0  0  0
  159.5700  211.7440  152.8720 C   0  0  0  0  0  0  0  0  0  0  0  0
  161.8970  209.2610  150.1790 C   0  0  0  0  0  3  0  0  0  0  0  0
  160.7810  206.5590  151.1970 C   0  0  0  0  0  2  0  0  0  0  0  0
  161.2060  207.3090  148.8060 C   0  0  2  0  0  3  0  0  0  0  0  0
  161.6530  208.8940  151.4460 C   0  0  0  0  0  0  0  0  0  0  0  0
  161.8800  207.2500  153.2160 O   0  0  0  0  0  1  0  0  0  0  0  0
  161.2150  206.1430  149.7940 C   0  0  0  0  0  2  0  0  0  0  0  0
  161.8440  207.4410  151.8340 C   0  0  1  0  0  3  0  0  0  0  0  0
  161.3980  206.7650  147.4070 C   0  0  0  0  0  1  0  0  0  0  0  0
  162.3240  208.3030  149.1090 C   0  0  0  0  0  2  0  0  0  0  0  0
  158.4870  213.0010  150.9760 C   0  0  0  0  0  0  0  0  0  0  0  0
  157.4550  212.7770  150.1520 C   0  0  0  0  0  3  0  0  0  0  0  0
  159.8410  214.0050  149.0040 C   0  0  1  0  0  3  0  0  0  0  0  0
  157.4950  213.1950  148.7410 C   0  0  0  0  0  3  0  0  0  0  0  0
  160.6200  214.0030  151.2610 O   0  0  0  0  0  0  0  0  0  0  0  0
  159.6920  213.6890  150.4680 C   0  0  0  0  0  0  0  0  0  0  0  0
  160.8620  213.2450  148.4670 F   0  0  0  0  0  0  0  0  0  0  0  0
  158.5790  213.7700  148.2150 C   0  0  0  0  0  3  0  0  0  0  0  0
  1 21  1  6  0  0  0
  1 11  1  0  0  0  0
  1 10  1  0  0  0  0
  3  9  1  0  0  0  0
  4  7  1  0  0  0  0
  4  8  1  0  0  0  0
  5  3  2  0  0  0  0
  5 11  1  0  0  0  0
  6  8  1  0  0  0  0
  8  2  1  1  0  0  0
  9  7  2  0  0  0  0
 10  6  1  0  0  0  0
 11  4  2  0  0  0  0
 12 15  2  0  0  0  0
 13 18  1  0  0  0  0
 14 19  1  6  0  0  0
 14 20  1  0  0  0  0
 14 17  1  0  0  0  0
 15 18  1  0  0  0  0
 15  3  1  0  0  0  0
 17 13  1  0  0  0  0
 18 16  1  1  0  0  0
 20 12  1  0  0  0  0
 22 21  2  0  0  0  0
 23 27  1  6  0  0  0
 23 26  1  0  0  0  0
 24 22  1  0  0  0  0
 26 21  1  0  0  0  0
 26 25  2  0  0  0  0
 28 24  2  0  0  0  0
 28 23  1  0  0  0  0
M  END
>  <MODEL>
7

>  <REMARK>
 VINA RESULT:      -6.5      3.652      8.540
  Name = 
  2 active torsions:
  status: ('A' for Active; 'I' for Inactive)
    1  A    between atoms: C_1  and  C_2
    2  A    between atoms: C_10  and  C_13
                            x       y       z     vdW  Elec       q    Type
                         _______ _______ _______ _____ _____    ______ ____

>  <TORSDO>
F 2

$$$$
=
 OpenBabel11052422513D

 28 31  0  0  1  0  0  0  0  0999 V2000
  162.0470  209.2310  150.9430 C   0  0  2  0  0  3  0  0  0  0  0  0
  162.0500  204.9600  151.5240 C   0  0  0  0  0  1  0  0  0  0  0  0
  160.6790  208.8820  154.4960 C   0  0  0  0  0  0  0  0  0  0  0  0
  161.2330  207.2130  152.2830 C   0  0  0  0  0  0  0  0  0  0  0  0
  161.1970  209.4160  153.3090 C   0  0  0  0  0  3  0  0  0  0  0  0
  162.4220  206.9230  150.0730 C   0  0  0  0  0  2  0  0  0  0  0  0
  160.6740  206.6860  153.4560 C   0  0  0  0  0  3  0  0  0  0  0  0
  161.4770  206.3020  151.0960 C   0  0  1  0  0  3  0  0  0  0  0  0
  160.4020  207.5090  154.5490 C   0  0  0  0  0  3  0  0  0  0  0  0
  161.9510  208.3220  149.7170 C   0  0  0  0  0  2  0  0  0  0  0  0
  161.4490  208.6090  152.1900 C   0  0  0  0  0  0  0  0  0  0  0  0
  159.1590  210.3140  155.7440 C   0  0  0  0  0  3  0  0  0  0  0  0
  161.8800  211.5750  156.5140 C   0  0  0  0  0  2  0  0  0  0  0  0
  159.5590  212.6070  156.6160 C   0  0  2  0  0  3  0  0  0  0  0  0
  160.3780  209.7620  155.6570 C   0  0  0  0  0  0  0  0  0  0  0  0
  162.5170  209.2680  156.6900 O   0  0  0  0  0  1  0  0  0  0  0  0
  160.9420  212.5180  157.2610 C   0  0  0  0  0  2  0  0  0  0  0  0
  161.4240  210.1340  156.6900 C   0  0  1  0  0  3  0  0  0  0  0  0
  158.7900  213.7390  157.2610 C   0  0  0  0  0  1  0  0  0  0  0  0
  158.7770  211.3090  156.7980 C   0  0  0  0  0  2  0  0  0  0  0  0
  161.4820  210.5930  150.6370 C   0  0  0  0  0  0  0  0  0  0  0  0
  160.6770  211.2060  151.5130 C   0  0  0  0  0  3  0  0  0  0  0  0
  161.2330  212.5970  149.0090 C   0  0  1  0  0  3  0  0  0  0  0  0
  160.1480  212.5550  151.2550 C   0  0  0  0  0  3  0  0  0  0  0  0
  162.7050  210.7610  148.6090 O   0  0  0  0  0  0  0  0  0  0  0  0
  161.8600  211.2820  149.3860 C   0  0  0  0  0  0  0  0  0  0  0  0
  160.4380  212.4280  147.8920 F   0  0  0  0  0  0  0  0  0  0  0  0
  160.4120  213.2010  150.1170 C   0  0  0  0  0  3  0  0  0  0  0  0
  1 21  1  6  0  0  0
  1 11  1  0  0  0  0
  3  9  1  0  0  0  0
  3 15  1  0  0  0  0
  4  7  1  0  0  0  0
  5  3  2  0  0  0  0
  6  8  1  0  0  0  0
  7  9  2  0  0  0  0
  8  2  1  1  0  0  0
  8  4  1  0  0  0  0
 10  6  1  0  0  0  0
 10  1  1  0  0  0  0
 11  4  2  0  0  0  0
 11  5  1  0  0  0  0
 12 20  1  0  0  0  0
 13 18  1  0  0  0  0
 13 17  1  0  0  0  0
 14 20  1  0  0  0  0
 14 17  1  0  0  0  0
 14 19  1  1  0  0  0
 15 12  2  0  0  0  0
 15 18  1  0  0  0  0
 18 16  1  6  0  0  0
 21 22  2  0  0  0  0
 23 27  1  6  0  0  0
 23 26  1  0  0  0  0
 23 28  1  0  0  0  0
 24 22  1  0  0  0  0
 25 26  2  0  0  0  0
 26 21  1  0  0  0  0
 28 24  2  0  0  0  0
M  END
>  <MODEL>
8

>  <REMARK>
 VINA RESULT:      -6.4      3.833      6.252
  Name = 
  2 active torsions:
  status: ('A' for Active; 'I' for Inactive)
    1  A    between atoms: C_1  and  C_2
    2  A    between atoms: C_10  and  C_13
                            x       y       z     vdW  Elec       q    Type
                         _______ _______ _______ _____ _____    ______ ____

>  <TORSDO>
F 2

$$$$
=
 OpenBabel11052422513D

 28 31  0  0  1  0  0  0  0  0999 V2000
  161.0000  207.3680  150.1440 C   0  0  2  0  0  3  0  0  0  0  0  0
  162.4460  210.9690  148.2670 C   0  0  0  0  0  1  0  0  0  0  0  0
  160.4650  209.9900  152.8740 C   0  0  0  0  0  0  0  0  0  0  0  0
  161.7940  209.7840  150.3870 C   0  0  0  0  0  0  0  0  0  0  0  0
  160.4280  208.7980  152.1390 C   0  0  0  0  0  3  0  0  0  0  0  0
  162.0700  208.5290  148.2130 C   0  0  0  0  0  2  0  0  0  0  0  0
  161.8680  210.9630  151.1430 C   0  0  0  0  0  3  0  0  0  0  0  0
  162.5530  209.6870  149.0790 C   0  0  1  0  0  3  0  0  0  0  0  0
  161.2100  211.0660  152.3700 C   0  0  0  0  0  3  0  0  0  0  0  0
  162.0410  207.2490  149.0300 C   0  0  0  0  0  2  0  0  0  0  0  0
  161.1070  208.6670  150.9190 C   0  0  0  0  0  0  0  0  0  0  0  0
  158.5590  210.6600  154.2290 C   0  0  0  0  0  3  0  0  0  0  0  0
  160.8390  210.8910  156.3100 C   0  0  0  0  0  2  0  0  0  0  0  0
  158.5460  211.9870  156.3300 C   0  0  2  0  0  3  0  0  0  0  0  0
  159.7750  210.0950  154.1870 C   0  0  0  0  0  0  0  0  0  0  0  0
  161.5180  208.8240  155.2970 O   0  0  0  0  0  1  0  0  0  0  0  0
  159.6670  211.3660  157.1630 C   0  0  0  0  0  2  0  0  0  0  0  0
  160.4310  209.6780  155.4880 C   0  0  1  0  0  3  0  0  0  0  0  0
  157.5550  212.6510  157.2610 C   0  0  0  0  0  1  0  0  0  0  0  0
  157.8180  210.9300  155.5030 C   0  0  0  0  0  2  0  0  0  0  0  0
  161.0340  206.1500  151.0300 C   0  0  0  0  0  0  0  0  0  0  0  0
  161.2470  206.2750  152.3460 C   0  0  0  0  0  3  0  0  0  0  0  0
  160.9050  203.5730  151.2980 C   0  0  1  0  0  3  0  0  0  0  0  0
  161.2410  205.1050  153.2390 C   0  0  0  0  0  3  0  0  0  0  0  0
  160.4670  204.6990  149.2390 O   0  0  0  0  0  0  0  0  0  0  0  0
  160.7780  204.8140  150.4550 C   0  0  0  0  0  0  0  0  0  0  0  0
  161.9800  202.8230  150.8600 F   0  0  0  0  0  0  0  0  0  0  0  0
  161.0700  203.8680  152.7660 C   0  0  0  0  0  3  0  0  0  0  0  0
  1 11  1  0  0  0  0
  1 21  1  1  0  0  0
  3 15  1  0  0  0  0
  4 11  2  0  0  0  0
  4  7  1  0  0  0  0
  5  3  2  0  0  0  0
  6 10  1  0  0  0  0
  6  8  1  0  0  0  0
  7  9  2  0  0  0  0
  8  2  1  6  0  0  0
  8  4  1  0  0  0  0
  9  3  1  0  0  0  0
 10  1  1  0  0  0  0
 11  5  1  0  0  0  0
 12 20  1  0  0  0  0
 13 17  1  0  0  0  0
 14 17  1  0  0  0  0
 14 19  1  1  0  0  0
 15 12  2  0  0  0  0
 15 18  1  0  0  0  0
 18 16  1  6  0  0  0
 18 13  1  0  0  0  0
 20 14  1  0  0  0  0
 21 22  2  0  0  0  0
 22 24  1  0  0  0  0
 23 27  1  6  0  0  0
 23 28  1  0  0  0  0
 25 26  2  0  0  0  0
 26 21  1  0  0  0  0
 26 23  1  0  0  0  0
 28 24  2  0  0  0  0
M  END
>  <MODEL>
9

>  <REMARK>
 VINA RESULT:      -6.4      2.972      6.249
  Name = 
  2 active torsions:
  status: ('A' for Active; 'I' for Inactive)
    1  A    between atoms: C_1  and  C_2
    2  A    between atoms: C_10  and  C_13
                            x       y       z     vdW  Elec       q    Type
                         _______ _______ _______ _____ _____    ______ ____

>  <TORSDO>
F 2

$$$$
