=
 OpenBabel11062408303D

 32 37  0  0  1  0  0  0  0  0999 V2000
  162.2810  207.3770  151.4690 C   0  0  2  0  0  3  0  0  0  0  0  0
  161.4880  209.7090  151.8530 C   0  0  2  0  0  3  0  0  0  0  0  0
  161.1890  208.2330  152.1430 C   0  0  2  0  0  3  0  0  0  0  0  0
  160.2450  210.5410  152.1570 C   0  0  2  0  0  3  0  0  0  0  0  0
  161.7740  212.9680  148.0280 C   0  0  0  0  0  2  0  0  0  0  0  0
  162.0740  209.9630  150.4350 C   0  0  1  0  0  3  0  0  0  0  0  0
  159.8740  212.9550  149.7830 C   0  0  0  0  0  2  0  0  0  0  0  0
  161.0280  212.4060  150.6300 C   0  0  1  0  0  3  0  0  0  0  0  0
  159.9950  210.8290  155.9300 C   0  0  0  0  0  1  0  0  0  0  0  0
  161.0600  208.0680  153.6640 C   0  0  1  0  0  3  0  0  0  0  0  0
  160.5800  212.0190  152.0340 C   0  0  0  0  0  2  0  0  0  0  0  0
  159.9960  208.9910  154.2770 C   0  0  1  0  0  3  0  0  0  0  0  0
  160.6630  206.6520  154.0400 C   0  0  0  0  0  1  0  0  0  0  0  0
  161.6780  208.8550  149.4540 C   0  0  0  0  0  2  0  0  0  0  0  0
  160.6490  210.3070  154.6690 C   0  0  1  0  0  3  0  0  0  0  0  0
  162.1630  207.4770  149.9240 C   0  0  2  0  0  3  0  0  0  0  0  0
  161.7920  211.3410  149.8700 C   0  0  0  0  0  0  0  0  0  0  0  0
  159.6250  210.2920  153.5470 C   0  0  1  0  0  3  0  0  0  0  0  0
  160.2960  213.2730  148.3300 C   0  0  0  0  0  2  0  0  0  0  0  0
  162.1560  211.6360  148.6120 C   0  0  0  0  0  3  0  0  0  0  0  0
  161.2220  204.6220  147.4290 C   0  0  0  0  0  0  0  0  0  0  0  0
  160.3450  202.0600  149.7150 O   0  0  0  0  0  0  0  0  0  0  0  0
  161.0190  204.8010  145.9610 C   0  0  0  0  0  1  0  0  0  0  0  0
  161.1670  204.1530  150.4560 C   0  0  0  0  0  2  0  0  0  0  0  0
  161.3140  206.3870  149.2410 C   0  0  2  0  0  3  0  0  0  0  0  0
  160.6840  203.5780  147.9920 N   0  0  0  0  0  0  0  0  0  0  0  0
  160.5380  205.5240  150.2500 C   0  0  0  0  0  2  0  0  0  0  0  0
  162.1000  205.5880  148.1890 C   0  0  2  0  0  3  0  0  0  0  0  0
  162.7550  206.4620  147.3140 O   0  0  0  0  0  1  0  0  0  0  0  0
  160.7220  203.2120  149.3810 C   0  0  0  0  0  0  0  0  0  0  0  0
  162.3020  206.0480  151.9070 O   0  0  0  0  0  0  0  0  0  0  0  0
  163.6570  205.7300  152.0150 C   0  0  0  0  0  1  0  0  0  0  0  0
  1 31  1  6  0  0  0
  1  3  1  0  0  0  0
  2  3  1  0  0  0  0
  2  4  1  0  0  0  0
  3 10  1  0  0  0  0
  4 18  1  0  0  0  0
  5 19  1  0  0  0  0
  5 20  1  0  0  0  0
  6  2  1  0  0  0  0
  7  8  1  0  0  0  0
  8 11  1  0  0  0  0
 10 13  1  0  0  0  0
 10 12  1  0  0  0  0
 11  4  1  0  0  0  0
 12 15  1  0  0  0  0
 14 16  1  0  0  0  0
 14  6  1  0  0  0  0
 15  9  1  0  0  0  0
 16  1  1  0  0  0  0
 17  6  1  0  0  0  0
 17  8  1  0  0  0  0
 18 12  1  0  0  0  0
 18 15  1  0  0  0  0
 19  7  1  0  0  0  0
 20 17  2  0  0  0  0
 21 26  2  0  0  0  0
 21 28  1  0  0  0  0
 23 21  1  0  0  0  0
 25 16  1  0  0  0  0
 25 27  1  0  0  0  0
 26 30  1  0  0  0  0
 27 24  1  0  0  0  0
 28 25  1  0  0  0  0
 29 28  1  0  0  0  0
 30 22  2  0  0  0  0
 30 24  1  0  0  0  0
 31 32  1  0  0  0  0
M  END
>  <MODEL>
1

>  <REMARK>
 VINA RESULT:      -6.9      0.000      0.000
  Name = 
  2 active torsions:
  status: ('A' for Active; 'I' for Inactive)
    1  A    between atoms: C_1  and  O_4
    2  A    between atoms: C_16  and  C_27
                            x       y       z     vdW  Elec       q    Type
                         _______ _______ _______ _____ _____    ______ ____

>  <TORSDO>
F 2

$$$$
=
 OpenBabel11062408303D

 32 37  0  0  1  0  0  0  0  0999 V2000
  160.7850  211.0970  153.9730 C   0  0  2  0  0  3  0  0  0  0  0  0
  158.9860  212.7770  153.5770 C   0  0  2  0  0  3  0  0  0  0  0  0
  159.3440  211.5010  154.3480 C   0  0  2  0  0  3  0  0  0  0  0  0
  157.4730  212.9780  153.6160 C   0  0  2  0  0  3  0  0  0  0  0  0
  158.2990  214.4500  148.8800 C   0  0  0  0  0  2  0  0  0  0  0  0
  159.5830  212.8310  152.1420 C   0  0  1  0  0  3  0  0  0  0  0  0
  156.3870  214.0840  150.5830 C   0  0  0  0  0  2  0  0  0  0  0  0
  157.5370  214.4270  151.5370 C   0  0  1  0  0  3  0  0  0  0  0  0
  156.6090  214.2480  157.0820 C   0  0  0  0  0  1  0  0  0  0  0  0
  159.0970  211.7670  155.8400 C   0  0  1  0  0  3  0  0  0  0  0  0
  157.1230  214.3230  153.0000 C   0  0  0  0  0  2  0  0  0  0  0  0
  157.6590  212.2200  156.1360 C   0  0  1  0  0  3  0  0  0  0  0  0
  159.3300  210.5200  156.6750 C   0  0  0  0  0  1  0  0  0  0  0  0
  159.8640  211.4280  151.5950 C   0  0  0  0  0  2  0  0  0  0  0  0
  157.5930  213.7370  156.0520 C   0  0  1  0  0  3  0  0  0  0  0  0
  160.8470  210.6540  152.4850 C   0  0  2  0  0  3  0  0  0  0  0  0
  158.7930  213.6700  151.1580 C   0  0  0  0  0  0  0  0  0  0  0  0
  156.8490  212.9040  155.0240 C   0  0  1  0  0  3  0  0  0  0  0  0
  156.8150  214.1030  149.0980 C   0  0  0  0  0  2  0  0  0  0  0  0
  159.1540  213.7020  149.8650 C   0  0  0  0  0  3  0  0  0  0  0  0
  161.6950  207.0630  151.2050 C   0  0  0  0  0  0  0  0  0  0  0  0
  161.4810  205.2510  154.2440 O   0  0  0  0  0  0  0  0  0  0  0  0
  161.7480  206.6560  149.7700 C   0  0  0  0  0  1  0  0  0  0  0  0
  161.2040  207.6010  154.1810 C   0  0  0  0  0  2  0  0  0  0  0  0
  160.6790  209.1440  152.2240 C   0  0  2  0  0  3  0  0  0  0  0  0
  161.5240  206.1260  152.0930 N   0  0  0  0  0  0  0  0  0  0  0  0
  160.1290  208.3910  153.4470 C   0  0  0  0  0  2  0  0  0  0  0  0
  161.9230  208.5070  151.5850 C   0  0  2  0  0  3  0  0  0  0  0  0
  162.3320  209.2570  150.4770 O   0  0  0  0  0  1  0  0  0  0  0  0
  161.4170  206.2760  153.5190 C   0  0  0  0  0  0  0  0  0  0  0  0
  161.3400  210.1380  154.8270 O   0  0  0  0  0  0  0  0  0  0  0  0
  162.5380  210.7030  155.2650 C   0  0  0  0  0  1  0  0  0  0  0  0
  1  3  1  0  0  0  0
  1 31  1  1  0  0  0
  2  4  1  0  0  0  0
  2  3  1  0  0  0  0
  3 10  1  0  0  0  0
  4 18  1  0  0  0  0
  5 19  1  0  0  0  0
  5 20  1  0  0  0  0
  6  2  1  0  0  0  0
  7  8  1  0  0  0  0
  8 11  1  0  0  0  0
 10 12  1  0  0  0  0
 10 13  1  0  0  0  0
 11  4  1  0  0  0  0
 14  6  1  0  0  0  0
 14 16  1  0  0  0  0
 15 12  1  0  0  0  0
 15  9  1  0  0  0  0
 16  1  1  0  0  0  0
 17  8  1  0  0  0  0
 17  6  1  0  0  0  0
 18 15  1  0  0  0  0
 18 12  1  0  0  0  0
 19  7  1  0  0  0  0
 20 17  2  0  0  0  0
 21 28  1  0  0  0  0
 21 26  2  0  0  0  0
 23 21  1  0  0  0  0
 25 16  1  0  0  0  0
 25 27  1  0  0  0  0
 26 30  1  0  0  0  0
 27 24  1  0  0  0  0
 28 25  1  0  0  0  0
 29 28  1  0  0  0  0
 30 24  1  0  0  0  0
 30 22  2  0  0  0  0
 31 32  1  0  0  0  0
M  END
>  <MODEL>
2

>  <REMARK>
 VINA RESULT:      -6.2      2.687      4.500
  Name = 
  2 active torsions:
  status: ('A' for Active; 'I' for Inactive)
    1  A    between atoms: C_1  and  O_4
    2  A    between atoms: C_16  and  C_27
                            x       y       z     vdW  Elec       q    Type
                         _______ _______ _______ _____ _____    ______ ____

>  <TORSDO>
F 2

$$$$
=
 OpenBabel11062408303D

 32 37  0  0  1  0  0  0  0  0999 V2000
  161.3030  209.7070  152.8230 C   0  0  2  0  0  3  0  0  0  0  0  0
  160.5230  211.8380  151.7920 C   0  0  2  0  0  3  0  0  0  0  0  0
  160.0790  210.6220  152.6140 C   0  0  2  0  0  3  0  0  0  0  0  0
  159.2880  212.5470  151.2400 C   0  0  2  0  0  3  0  0  0  0  0  0
  162.2880  213.0520  147.2370 C   0  0  0  0  0  2  0  0  0  0  0  0
  161.5860  211.5070  150.7060 C   0  0  1  0  0  3  0  0  0  0  0  0
  159.8880  213.5740  148.0490 C   0  0  0  0  0  2  0  0  0  0  0  0
  160.6400  213.6180  149.3840 C   0  0  1  0  0  3  0  0  0  0  0  0
  157.7210  214.4530  154.1190 C   0  0  0  0  0  1  0  0  0  0  0  0
  159.4100  211.1380  153.8960 C   0  0  1  0  0  3  0  0  0  0  0  0
  159.7060  213.8430  150.5660 C   0  0  0  0  0  2  0  0  0  0  0  0
  158.2360  212.0880  153.6150 C   0  0  1  0  0  3  0  0  0  0  0  0
  158.8470  210.0000  154.7290 C   0  0  0  0  0  1  0  0  0  0  0  0
  161.5200  210.0360  150.2820 C   0  0  0  0  0  2  0  0  0  0  0  0
  158.7600  213.5140  153.5450 C   0  0  1  0  0  3  0  0  0  0  0  0
  161.7490  209.0900  151.4700 C   0  0  2  0  0  3  0  0  0  0  0  0
  161.5810  212.4370  149.5100 C   0  0  0  0  0  0  0  0  0  0  0  0
  158.2040  212.8650  152.2900 C   0  0  1  0  0  3  0  0  0  0  0  0
  160.8130  213.2620  146.8500 C   0  0  0  0  0  2  0  0  0  0  0  0
  162.3810  212.1840  148.4620 C   0  0  0  0  0  3  0  0  0  0  0  0
  161.2940  205.6700  149.6360 C   0  0  0  0  0  0  0  0  0  0  0  0
  161.5670  203.4490  152.3850 O   0  0  0  0  0  0  0  0  0  0  0  0
  160.8190  205.5090  148.2310 C   0  0  0  0  0  1  0  0  0  0  0  0
  161.8540  205.7840  152.6470 C   0  0  0  0  0  2  0  0  0  0  0  0
  161.1550  207.7080  151.1310 C   0  0  2  0  0  3  0  0  0  0  0  0
  161.1770  204.6490  150.4350 N   0  0  0  0  0  0  0  0  0  0  0  0
  160.8300  206.8810  152.3860 C   0  0  0  0  0  2  0  0  0  0  0  0
  161.9630  206.9570  150.0610 C   0  0  2  0  0  3  0  0  0  0  0  0
  162.1910  207.7880  148.9590 O   0  0  0  0  0  1  0  0  0  0  0  0
  161.5370  204.5750  151.8250 C   0  0  0  0  0  0  0  0  0  0  0  0
  161.1120  208.7290  153.8060 O   0  0  0  0  0  0  0  0  0  0  0  0
  161.9550  209.1060  154.8520 C   0  0  0  0  0  1  0  0  0  0  0  0
  1 31  1  1  0  0  0
  2  3  1  0  0  0  0
  3  1  1  0  0  0  0
  3 10  1  0  0  0  0
  4  2  1  0  0  0  0
  4 18  1  0  0  0  0
  5 20  1  0  0  0  0
  6  2  1  0  0  0  0
  7  8  1  0  0  0  0
  8 17  1  0  0  0  0
  8 11  1  0  0  0  0
 10 13  1  0  0  0  0
 11  4  1  0  0  0  0
 12 10  1  0  0  0  0
 14  6  1  0  0  0  0
 14 16  1  0  0  0  0
 15 12  1  0  0  0  0
 15  9  1  0  0  0  0
 16  1  1  0  0  0  0
 17  6  1  0  0  0  0
 18 15  1  0  0  0  0
 18 12  1  0  0  0  0
 19  5  1  0  0  0  0
 19  7  1  0  0  0  0
 20 17  2  0  0  0  0
 21 28  1  0  0  0  0
 21 26  2  0  0  0  0
 23 21  1  0  0  0  0
 25 16  1  0  0  0  0
 25 27  1  0  0  0  0
 26 30  1  0  0  0  0
 27 24  1  0  0  0  0
 28 25  1  0  0  0  0
 29 28  1  0  0  0  0
 30 22  2  0  0  0  0
 30 24  1  0  0  0  0
 31 32  1  0  0  0  0
M  END
>  <MODEL>
3

>  <REMARK>
 VINA RESULT:      -6.1      1.779      2.763
  Name = 
  2 active torsions:
  status: ('A' for Active; 'I' for Inactive)
    1  A    between atoms: C_1  and  O_4
    2  A    between atoms: C_16  and  C_27
                            x       y       z     vdW  Elec       q    Type
                         _______ _______ _______ _____ _____    ______ ____

>  <TORSDO>
F 2

$$$$
=
 OpenBabel11062408303D

 32 37  0  0  1  0  0  0  0  0999 V2000
  161.3900  210.9410  154.4040 C   0  0  2  0  0  3  0  0  0  0  0  0
  159.3160  212.2140  153.8650 C   0  0  2  0  0  3  0  0  0  0  0  0
  159.8600  210.9810  154.5970 C   0  0  2  0  0  3  0  0  0  0  0  0
  157.8050  212.0730  153.7010 C   0  0  2  0  0  3  0  0  0  0  0  0
  158.8490  214.1300  149.2340 C   0  0  0  0  0  2  0  0  0  0  0  0
  160.0570  212.5330  152.5350 C   0  0  1  0  0  3  0  0  0  0  0  0
  156.8770  213.1940  150.6220 C   0  0  0  0  0  2  0  0  0  0  0  0
  157.7890  213.6900  151.7490 C   0  0  1  0  0  3  0  0  0  0  0  0
  156.2470  212.7890  157.0830 C   0  0  0  0  0  1  0  0  0  0  0  0
  159.3750  211.0440  156.0520 C   0  0  1  0  0  3  0  0  0  0  0  0
  157.2330  213.3600  153.1290 C   0  0  0  0  0  2  0  0  0  0  0  0
  157.8470  211.1400  156.1680 C   0  0  1  0  0  3  0  0  0  0  0  0
  159.7840  209.8070  156.8310 C   0  0  0  0  0  1  0  0  0  0  0  0
  160.7200  211.2840  151.9460 C   0  0  0  0  0  2  0  0  0  0  0  0
  157.4430  212.6060  156.1730 C   0  0  1  0  0  3  0  0  0  0  0  0
  161.7360  210.6650  152.9160 C   0  0  2  0  0  3  0  0  0  0  0  0
  159.2240  213.2670  151.5050 C   0  0  0  0  0  0  0  0  0  0  0  0
  157.0440  211.7310  154.9980 C   0  0  1  0  0  3  0  0  0  0  0  0
  157.4710  213.4470  149.2160 C   0  0  0  0  0  2  0  0  0  0  0  0
  159.7250  213.4990  150.2810 C   0  0  0  0  0  3  0  0  0  0  0  0
  160.9580  206.8620  152.4860 C   0  0  0  0  0  0  0  0  0  0  0  0
  161.5230  206.5000  149.0060 O   0  0  0  0  0  0  0  0  0  0  0  0
  160.8010  205.8880  153.6060 C   0  0  0  0  0  1  0  0  0  0  0  0
  161.6780  208.6070  150.0730 C   0  0  0  0  0  2  0  0  0  0  0  0
  161.9550  209.1870  152.5380 C   0  0  2  0  0  3  0  0  0  0  0  0
  161.2510  206.3870  151.3090 N   0  0  0  0  0  0  0  0  0  0  0  0
  162.6450  209.0230  151.1730 C   0  0  0  0  0  2  0  0  0  0  0  0
  160.6930  208.3300  152.7240 C   0  0  2  0  0  3  0  0  0  0  0  0
  160.1530  208.5400  153.9970 O   0  0  0  0  0  1  0  0  0  0  0  0
  161.4740  207.1250  150.0960 C   0  0  0  0  0  0  0  0  0  0  0  0
  162.0410  210.0520  155.2660 O   0  0  0  0  0  0  0  0  0  0  0  0
  163.1070  210.7820  155.7940 C   0  0  0  0  0  1  0  0  0  0  0  0
  1  3  1  0  0  0  0
  1 31  1  1  0  0  0
  2  3  1  0  0  0  0
  3 10  1  0  0  0  0
  4  2  1  0  0  0  0
  4 18  1  0  0  0  0
  5 20  1  0  0  0  0
  6  2  1  0  0  0  0
  7  8  1  0  0  0  0
  8 11  1  0  0  0  0
 10 12  1  0  0  0  0
 10 13  1  0  0  0  0
 11  4  1  0  0  0  0
 12 15  1  0  0  0  0
 14  6  1  0  0  0  0
 14 16  1  0  0  0  0
 15  9  1  0  0  0  0
 16  1  1  0  0  0  0
 17  8  1  0  0  0  0
 17  6  1  0  0  0  0
 18 12  1  0  0  0  0
 18 15  1  0  0  0  0
 19  5  1  0  0  0  0
 19  7  1  0  0  0  0
 20 17  2  0  0  0  0
 21 28  1  0  0  0  0
 21 23  1  0  0  0  0
 22 30  2  0  0  0  0
 24 30  1  0  0  0  0
 24 27  1  0  0  0  0
 25 28  1  0  0  0  0
 25 16  1  0  0  0  0
 26 21  2  0  0  0  0
 27 25  1  0  0  0  0
 28 29  1  0  0  0  0
 30 26  1  0  0  0  0
 31 32  1  0  0  0  0
M  END
>  <MODEL>
4

>  <REMARK>
 VINA RESULT:      -5.9      2.431      4.498
  Name = 
  2 active torsions:
  status: ('A' for Active; 'I' for Inactive)
    1  A    between atoms: C_1  and  O_4
    2  A    between atoms: C_16  and  C_27
                            x       y       z     vdW  Elec       q    Type
                         _______ _______ _______ _____ _____    ______ ____

>  <TORSDO>
F 2

$$$$
=
 OpenBabel11062408303D

 32 37  0  0  1  0  0  0  0  0999 V2000
  161.8900  211.4400  149.5710 C   0  0  2  0  0  3  0  0  0  0  0  0
  161.3120  210.3050  151.7150 C   0  0  2  0  0  3  0  0  0  0  0  0
  161.3720  210.1270  150.1930 C   0  0  2  0  0  3  0  0  0  0  0  0
  160.4510  209.1970  152.3160 C   0  0  2  0  0  3  0  0  0  0  0  0
  158.9430  212.9890  155.2530 C   0  0  0  0  0  2  0  0  0  0  0  0
  160.8890  211.7330  152.1630 C   0  0  1  0  0  3  0  0  0  0  0  0
  158.5180  210.4760  154.8110 C   0  0  0  0  0  2  0  0  0  0  0  0
  159.9870  210.5790  154.3890 C   0  0  1  0  0  3  0  0  0  0  0  0
  162.5330  206.0280  152.2800 C   0  0  0  0  0  1  0  0  0  0  0  0
  162.2110  208.8760  149.8970 C   0  0  1  0  0  3  0  0  0  0  0  0
  160.5220  209.2650  153.8330 C   0  0  0  0  0  2  0  0  0  0  0  0
  161.6720  207.6160  150.5930 C   0  0  1  0  0  3  0  0  0  0  0  0
  162.2410  208.5610  148.4120 C   0  0  0  0  0  1  0  0  0  0  0  0
  160.0670  212.4420  151.0820 C   0  0  0  0  0  2  0  0  0  0  0  0
  162.3210  207.4920  151.9620 C   0  0  1  0  0  3  0  0  0  0  0  0
  160.8470  212.5730  149.7660 C   0  0  2  0  0  3  0  0  0  0  0  0
  160.2120  211.7980  153.5170 C   0  0  0  0  0  0  0  0  0  0  0  0
  160.8310  207.7710  151.8700 C   0  0  1  0  0  3  0  0  0  0  0  0
  157.9380  211.8250  155.2980 C   0  0  0  0  0  2  0  0  0  0  0  0
  159.7070  212.9610  153.9580 C   0  0  0  0  0  3  0  0  0  0  0  0
  158.0800  214.2780  147.5990 C   0  0  0  0  0  0  0  0  0  0  0  0
  159.7500  214.4480  144.4770 O   0  0  0  0  0  0  0  0  0  0  0  0
  156.6560  214.4530  148.0110 C   0  0  0  0  0  1  0  0  0  0  0  0
  160.8280  213.6190  146.4150 C   0  0  0  0  0  2  0  0  0  0  0  0
  159.8480  212.7760  148.6100 C   0  0  2  0  0  3  0  0  0  0  0  0
  158.3500  214.3200  146.3260 N   0  0  0  0  0  0  0  0  0  0  0  0
  160.4430  212.4000  147.2430 C   0  0  0  0  0  2  0  0  0  0  0  0
  159.1560  214.1480  148.6510 C   0  0  2  0  0  3  0  0  0  0  0  0
  158.6370  214.3860  149.9280 O   0  0  0  0  0  1  0  0  0  0  0  0
  159.6310  214.1540  145.6940 C   0  0  0  0  0  0  0  0  0  0  0  0
  162.2800  211.3120  148.2340 O   0  0  0  0  0  0  0  0  0  0  0  0
  163.4740  212.0290  148.1420 C   0  0  0  0  0  1  0  0  0  0  0  0
  1 31  1  6  0  0  0
  1 16  1  0  0  0  0
  1  3  1  0  0  0  0
  2  6  1  0  0  0  0
  2  4  1  0  0  0  0
  3  2  1  0  0  0  0
  4 11  1  0  0  0  0
  5 19  1  0  0  0  0
  6 17  1  0  0  0  0
  7 19  1  0  0  0  0
  8  7  1  0  0  0  0
 10  3  1  0  0  0  0
 10 12  1  0  0  0  0
 11  8  1  0  0  0  0
 12 18  1  0  0  0  0
 12 15  1  0  0  0  0
 13 10  1  0  0  0  0
 14  6  1  0  0  0  0
 15  9  1  0  0  0  0
 16 14  1  0  0  0  0
 17 20  2  0  0  0  0
 17  8  1  0  0  0  0
 18 15  1  0  0  0  0
 18  4  1  0  0  0  0
 20  5  1  0  0  0  0
 21 23  1  0  0  0  0
 21 28  1  0  0  0  0
 22 30  2  0  0  0  0
 24 27  1  0  0  0  0
 25 28  1  0  0  0  0
 25 16  1  0  0  0  0
 26 21  2  0  0  0  0
 27 25  1  0  0  0  0
 28 29  1  0  0  0  0
 30 26  1  0  0  0  0
 30 24  1  0  0  0  0
 32 31  1  0  0  0  0
M  END
>  <MODEL>
5

>  <REMARK>
 VINA RESULT:      -4.7      3.495      7.044
  Name = 
  2 active torsions:
  status: ('A' for Active; 'I' for Inactive)
    1  A    between atoms: C_1  and  O_4
    2  A    between atoms: C_16  and  C_27
                            x       y       z     vdW  Elec       q    Type
                         _______ _______ _______ _____ _____    ______ ____

>  <TORSDO>
F 2

$$$$
=
 OpenBabel11062408303D

 32 37  0  0  1  0  0  0  0  0999 V2000
  159.9660  212.4790  155.2180 C   0  0  2  0  0  3  0  0  0  0  0  0
  158.1430  213.3810  153.7760 C   0  0  2  0  0  3  0  0  0  0  0  0
  158.4520  212.4160  154.9270 C   0  0  2  0  0  3  0  0  0  0  0  0
  156.7620  213.0590  153.2100 C   0  0  2  0  0  3  0  0  0  0  0  0
  159.1180  214.0870  148.8890 C   0  0  0  0  0  2  0  0  0  0  0  0
  159.2580  213.4450  152.6940 C   0  0  1  0  0  3  0  0  0  0  0  0
  156.8270  213.3210  149.8150 C   0  0  0  0  0  2  0  0  0  0  0  0
  157.3310  214.1560  150.9970 C   0  0  1  0  0  3  0  0  0  0  0  0
  154.2100  214.4040  155.6710 C   0  0  0  0  0  1  0  0  0  0  0  0
  157.5350  212.7750  156.1040 C   0  0  1  0  0  3  0  0  0  0  0  0
  156.3760  214.1120  152.1830 C   0  0  0  0  0  2  0  0  0  0  0  0
  156.0450  212.7480  155.7290 C   0  0  1  0  0  3  0  0  0  0  0  0
  157.7010  211.8040  157.2590 C   0  0  0  0  0  1  0  0  0  0  0  0
  160.0940  212.1610  152.6690 C   0  0  0  0  0  2  0  0  0  0  0  0
  155.6340  214.1270  155.2380 C   0  0  1  0  0  3  0  0  0  0  0  0
  160.7660  211.8920  154.0240 C   0  0  2  0  0  3  0  0  0  0  0  0
  158.7770  213.8280  151.3090 C   0  0  0  0  0  0  0  0  0  0  0  0
  155.6390  212.9630  154.2630 C   0  0  1  0  0  3  0  0  0  0  0  0
  157.8270  213.2880  148.6350 C   0  0  0  0  0  2  0  0  0  0  0  0
  159.6320  213.8100  150.2740 C   0  0  0  0  0  3  0  0  0  0  0  0
  160.2310  208.0390  154.3780 C   0  0  0  0  0  0  0  0  0  0  0  0
  161.8480  206.9130  151.4320 O   0  0  0  0  0  0  0  0  0  0  0  0
  159.7550  207.3510  155.6140 C   0  0  0  0  0  1  0  0  0  0  0  0
  161.6260  209.2190  151.9180 C   0  0  0  0  0  2  0  0  0  0  0  0
  161.1190  210.3950  154.1190 C   0  0  2  0  0  3  0  0  0  0  0  0
  160.8810  207.3280  153.5020 N   0  0  0  0  0  0  0  0  0  0  0  0
  162.1990  209.9770  153.1070 C   0  0  0  0  0  2  0  0  0  0  0  0
  159.8780  209.4890  154.1410 C   0  0  2  0  0  3  0  0  0  0  0  0
  158.9680  209.9440  155.1020 O   0  0  0  0  0  1  0  0  0  0  0  0
  161.4530  207.7720  152.2600 C   0  0  0  0  0  0  0  0  0  0  0  0
  160.3300  211.8870  156.4320 O   0  0  0  0  0  0  0  0  0  0  0  0
  160.9690  212.9020  157.1460 C   0  0  0  0  0  1  0  0  0  0  0  0
  1 31  1  1  0  0  0
  2  3  1  0  0  0  0
  3  1  1  0  0  0  0
  3 10  1  0  0  0  0
  4  2  1  0  0  0  0
  4 18  1  0  0  0  0
  5 20  1  0  0  0  0
  6  2  1  0  0  0  0
  7  8  1  0  0  0  0
  8 17  1  0  0  0  0
  8 11  1  0  0  0  0
 10 13  1  0  0  0  0
 11  4  1  0  0  0  0
 12 10  1  0  0  0  0
 14  6  1  0  0  0  0
 14 16  1  0  0  0  0
 15  9  1  0  0  0  0
 15 12  1  0  0  0  0
 16 25  1  0  0  0  0
 16  1  1  0  0  0  0
 17  6  1  0  0  0  0
 18 15  1  0  0  0  0
 18 12  1  0  0  0  0
 19  5  1  0  0  0  0
 19  7  1  0  0  0  0
 20 17  2  0  0  0  0
 21 23  1  0  0  0  0
 22 30  2  0  0  0  0
 24 30  1  0  0  0  0
 24 27  1  0  0  0  0
 25 28  1  0  0  0  0
 26 21  2  0  0  0  0
 27 25  1  0  0  0  0
 28 21  1  0  0  0  0
 28 29  1  0  0  0  0
 30 26  1  0  0  0  0
 31 32  1  0  0  0  0
M  END
>  <MODEL>
6

>  <REMARK>
 VINA RESULT:      -4.4      3.483      6.088
  Name = 
  2 active torsions:
  status: ('A' for Active; 'I' for Inactive)
    1  A    between atoms: C_1  and  O_4
    2  A    between atoms: C_16  and  C_27
                            x       y       z     vdW  Elec       q    Type
                         _______ _______ _______ _____ _____    ______ ____

>  <TORSDO>
F 2

$$$$
=
 OpenBabel11062408303D

 32 37  0  0  1  0  0  0  0  0999 V2000
  162.0750  210.4270  149.9170 C   0  0  2  0  0  3  0  0  0  0  0  0
  161.7150  209.0280  151.9490 C   0  0  2  0  0  3  0  0  0  0  0  0
  161.4650  209.1090  150.4380 C   0  0  2  0  0  3  0  0  0  0  0  0
  160.8040  207.9610  152.5510 C   0  0  2  0  0  3  0  0  0  0  0  0
  160.5180  211.3570  156.2470 C   0  0  0  0  0  2  0  0  0  0  0  0
  161.6270  210.4010  152.6740 C   0  0  1  0  0  3  0  0  0  0  0  0
  159.6020  209.0410  155.5490 C   0  0  0  0  0  2  0  0  0  0  0  0
  160.9660  209.0130  154.8510 C   0  0  1  0  0  3  0  0  0  0  0  0
  162.2790  204.5910  151.6320 C   0  0  0  0  0  1  0  0  0  0  0  0
  162.0130  207.8260  149.8000 C   0  0  1  0  0  3  0  0  0  0  0  0
  161.1610  207.7550  154.0140 C   0  0  0  0  0  2  0  0  0  0  0  0
  161.4060  206.5510  150.4040 C   0  0  1  0  0  3  0  0  0  0  0  0
  161.7190  207.7720  148.3110 C   0  0  0  0  0  1  0  0  0  0  0  0
  160.7530  211.3930  151.9000 C   0  0  0  0  0  2  0  0  0  0  0  0
  162.2630  206.1030  151.5780 C   0  0  1  0  0  3  0  0  0  0  0  0
  161.2910  211.6410  150.4840 C   0  0  2  0  0  3  0  0  0  0  0  0
  161.2300  210.3220  154.1340 C   0  0  0  0  0  0  0  0  0  0  0  0
  160.8500  206.5950  151.8360 C   0  0  1  0  0  3  0  0  0  0  0  0
  159.3560  210.3510  156.3330 C   0  0  0  0  0  2  0  0  0  0  0  0
  161.0170  211.4490  154.8320 C   0  0  0  0  0  3  0  0  0  0  0  0
  158.5390  214.0830  149.1700 C   0  0  0  0  0  0  0  0  0  0  0  0
  159.5810  214.4410  145.8010 O   0  0  0  0  0  0  0  0  0  0  0  0
  157.2820  214.4260  149.8970 C   0  0  0  0  0  1  0  0  0  0  0  0
  160.8310  213.1650  147.3550 C   0  0  0  0  0  2  0  0  0  0  0  0
  160.1470  212.1760  149.6000 C   0  0  2  0  0  3  0  0  0  0  0  0
  158.5640  214.2700  147.8820 N   0  0  0  0  0  0  0  0  0  0  0  0
  160.3850  211.9160  148.1030 C   0  0  0  0  0  2  0  0  0  0  0  0
  159.7520  213.6220  149.9440 C   0  0  2  0  0  3  0  0  0  0  0  0
  159.5430  213.7480  151.3220 O   0  0  0  0  0  1  0  0  0  0  0  0
  159.6430  213.9920  146.9740 C   0  0  0  0  0  0  0  0  0  0  0  0
  162.1880  210.4810  148.5240 O   0  0  0  0  0  0  0  0  0  0  0  0
  163.3430  211.2270  148.2880 C   0  0  0  0  0  1  0  0  0  0  0  0
  1 31  1  6  0  0  0
  1  3  1  0  0  0  0
  1 16  1  0  0  0  0
  2  4  1  0  0  0  0
  2  6  1  0  0  0  0
  3  2  1  0  0  0  0
  4 11  1  0  0  0  0
  5 19  1  0  0  0  0
  6 17  1  0  0  0  0
  7 19  1  0  0  0  0
  8  7  1  0  0  0  0
 10 12  1  0  0  0  0
 10  3  1  0  0  0  0
 11  8  1  0  0  0  0
 12 15  1  0  0  0  0
 12 18  1  0  0  0  0
 13 10  1  0  0  0  0
 14  6  1  0  0  0  0
 15  9  1  0  0  0  0
 15 18  1  0  0  0  0
 16 14  1  0  0  0  0
 17 20  2  0  0  0  0
 17  8  1  0  0  0  0
 18  4  1  0  0  0  0
 20  5  1  0  0  0  0
 21 23  1  0  0  0  0
 21 28  1  0  0  0  0
 22 30  2  0  0  0  0
 24 27  1  0  0  0  0
 25 28  1  0  0  0  0
 25 16  1  0  0  0  0
 26 21  2  0  0  0  0
 27 25  1  0  0  0  0
 28 29  1  0  0  0  0
 30 24  1  0  0  0  0
 30 26  1  0  0  0  0
 32 31  1  0  0  0  0
M  END
>  <MODEL>
7

>  <REMARK>
 VINA RESULT:      -4.3      3.182      7.032
  Name = 
  2 active torsions:
  status: ('A' for Active; 'I' for Inactive)
    1  A    between atoms: C_1  and  O_4
    2  A    between atoms: C_16  and  C_27
                            x       y       z     vdW  Elec       q    Type
                         _______ _______ _______ _____ _____    ______ ____

>  <TORSDO>
F 2

$$$$
