=
 OpenBabel11062409443D

 34 39  0  0  0  0  0  0  0  0999 V2000
  161.6660  207.4670  151.1100 C   0  0  0  0  0  0  0  0  0  0  0  0
  162.3140  211.1400  150.3300 C   0  0  0  0  0  3  0  0  0  0  0  0
  162.1540  209.9790  152.4430 O   0  0  0  0  0  0  0  0  0  0  0  0
  160.5320  205.3070  152.6870 C   0  0  0  0  0  2  0  0  0  0  0  0
  160.6040  206.6200  150.5740 N   0  0  0  0  0  2  0  0  0  0  0  0
  160.9910  206.5750  153.3550 C   0  0  0  0  0  0  0  0  0  0  0  0
  161.2630  207.8980  155.3670 C   0  0  0  0  0  3  0  0  0  0  0  0
  160.8970  206.7000  154.7440 C   0  0  0  0  0  3  0  0  0  0  0  0
  160.6960  205.3740  151.2280 N   0  0  0  0  0  0  0  0  0  0  0  0
  161.7850  208.8720  153.2110 C   0  0  0  0  0  0  0  0  0  0  0  0
  161.4590  207.6560  152.5890 C   0  0  0  0  0  0  0  0  0  0  0  0
  161.6990  208.9840  154.6020 C   0  0  0  0  0  3  0  0  0  0  0  0
  162.2460  211.1500  148.9340 C   0  0  0  0  0  0  0  0  0  0  0  0
  161.9610  209.9590  148.2500 C   0  0  0  0  0  3  0  0  0  0  0  0
  162.0880  209.9590  151.0450 C   0  0  0  0  0  0  0  0  0  0  0  0
  161.7430  208.7730  148.9560 C   0  0  0  0  0  2  0  0  0  0  0  0
  161.7860  208.7670  150.3560 C   0  0  0  0  0  0  0  0  0  0  0  0
  161.0680  201.7490  150.3520 C   0  0  0  0  0  3  0  0  0  0  0  0
  160.8460  204.2190  149.0490 C   0  0  0  0  0  3  0  0  0  0  0  0
  161.2240  200.6820  146.8080 C   0  0  0  0  0  0  0  0  0  0  0  0
  161.2090  200.6280  148.2090 C   0  0  0  0  0  3  0  0  0  0  0  0
  161.0830  201.8020  148.9580 C   0  0  0  0  0  0  0  0  0  0  0  0
  160.9860  203.1010  146.9050 C   0  0  0  0  0  3  0  0  0  0  0  0
  160.9710  203.0470  148.3000 C   0  0  0  0  0  0  0  0  0  0  0  0
  161.1120  201.9230  146.1630 C   0  0  0  0  0  3  0  0  0  0  0  0
  160.8320  204.1700  150.4530 C   0  0  0  0  0  0  0  0  0  0  0  0
  160.9420  202.9260  151.0940 C   0  0  0  0  0  3  0  0  0  0  0  0
  161.3560  199.4420  146.0250 C   0  0  0  0  0  0  0  0  0  0  0  0
  160.5340  199.2190  144.9260 O   0  0  0  0  0  0  0  0  0  0  0  0
  162.2110  198.5740  146.3420 O   0  0  0  0  0  1  0  0  0  0  0  0
  162.4790  212.3880  148.2380 N   0  0  0  0  0  2  0  0  0  0  0  0
  161.5920  213.0210  147.3420 N   0  0  0  0  0  0  0  0  0  0  0  0
  162.3100  213.3650  146.1230 C   0  0  0  0  0  1  0  0  0  0  0  0
  161.0930  214.2470  147.9490 C   0  0  0  0  0  1  0  0  0  0  0  0
  1 11  1  0  0  0  0
  2 15  2  0  0  0  0
  3 10  1  0  0  0  0
  4  6  1  0  0  0  0
  5  1  1  0  0  0  0
  5  9  1  0  0  0  0
  6  8  1  0  0  0  0
  8  7  2  0  0  0  0
  9  4  1  0  0  0  0
 10 12  2  0  0  0  0
 11 10  1  0  0  0  0
 11  6  2  0  0  0  0
 12  7  1  0  0  0  0
 13  2  1  0  0  0  0
 14 13  2  0  0  0  0
 14 16  1  0  0  0  0
 15  3  1  0  0  0  0
 16 17  1  0  0  0  0
 17 15  1  0  0  0  0
 17  1  2  0  0  0  0
 18 27  1  0  0  0  0
 19 26  1  0  0  0  0
 20 21  2  0  0  0  0
 21 22  1  0  0  0  0
 22 18  2  0  0  0  0
 23 24  1  0  0  0  0
 24 22  1  0  0  0  0
 24 19  2  0  0  0  0
 25 20  1  0  0  0  0
 25 23  2  0  0  0  0
 26 27  2  0  0  0  0
 26  9  1  0  0  0  0
 28 30  1  0  0  0  0
 28 20  1  0  0  0  0
 29 28  2  0  0  0  0
 31 13  1  0  0  0  0
 32 34  1  0  0  0  0
 32 31  1  0  0  0  0
 33 32  1  0  0  0  0
M  END
>  <MODEL>
1

>  <REMARK>
 VINA RESULT:      -8.4      0.000      0.000
  Name = 
  4 active torsions:
  status: ('A' for Active; 'I' for Inactive)
    1  A    between atoms: N_3  and  N_25
    2  A    between atoms: C_7  and  C_11
    3  A    between atoms: N_18  and  C_30
    4  A    between atoms: C_23  and  N_25
                            x       y       z     vdW  Elec       q    Type
                         _______ _______ _______ _____ _____    ______ ____

>  <TORSDO>
F 4

$$$$
=
 OpenBabel11062409443D

 34 39  0  0  1  0  0  0  0  0999 V2000
  160.4020  211.0680  151.2080 C   0  0  0  0  0  0  0  0  0  0  0  0
  158.9180  213.8340  153.3670 C   0  0  0  0  0  3  0  0  0  0  0  0
  159.9310  213.9130  151.1760 O   0  0  0  0  0  0  0  0  0  0  0  0
  162.3290  210.0020  149.3130 C   0  0  0  0  0  2  0  0  0  0  0  0
  161.3710  210.0520  151.6110 N   0  0  0  0  0  2  0  0  0  0  0  0
  161.8910  211.4380  149.2250 C   0  0  2  0  0  3  0  0  0  0  0  0
  162.0400  213.6070  148.1530 C   0  0  0  0  0  3  0  0  0  0  0  0
  162.3920  212.2540  148.2060 C   0  0  0  0  0  3  0  0  0  0  0  0
  161.7060  209.3160  150.4540 N   0  0  0  0  0  0  0  0  0  0  0  0
  160.7070  213.3500  150.1590 C   0  0  0  0  0  0  0  0  0  0  0  0
  161.0260  211.9820  150.1900 C   0  0  0  0  0  0  0  0  0  0  0  0
  161.2040  214.1550  149.1310 C   0  0  0  0  0  3  0  0  0  0  0  0
  158.5410  213.1290  154.5140 C   0  0  0  0  0  0  0  0  0  0  0  0
  158.7980  211.7520  154.5900 C   0  0  0  0  0  3  0  0  0  0  0  0
  159.5560  213.1810  152.3080 C   0  0  0  0  0  0  0  0  0  0  0  0
  159.4280  211.0900  153.5330 C   0  0  0  0  0  3  0  0  0  0  0  0
  159.8280  211.8010  152.3950 C   0  0  0  0  0  0  0  0  0  0  0  0
  161.2170  205.8010  151.6620 C   0  0  0  0  0  3  0  0  0  0  0  0
  161.5340  207.1710  149.2380 C   0  0  0  0  0  3  0  0  0  0  0  0
  161.0390  202.9970  149.2490 C   0  0  0  0  0  0  0  0  0  0  0  0
  161.0460  203.7060  150.4570 C   0  0  0  0  0  3  0  0  0  0  0  0
  161.2100  205.0950  150.4590 C   0  0  0  0  0  0  0  0  0  0  0  0
  161.3640  205.0790  148.0320 C   0  0  0  0  0  3  0  0  0  0  0  0
  161.3700  205.7850  149.2360 C   0  0  0  0  0  0  0  0  0  0  0  0
  161.1980  203.6900  148.0390 C   0  0  0  0  0  3  0  0  0  0  0  0
  161.5440  207.8870  150.4470 C   0  0  0  0  0  0  0  0  0  0  0  0
  161.3820  207.1890  151.6550 C   0  0  0  0  0  3  0  0  0  0  0  0
  160.8650  201.5350  149.2530 C   0  0  0  0  0  0  0  0  0  0  0  0
  161.2400  200.7820  148.1460 O   0  0  0  0  0  0  0  0  0  0  0  0
  160.3750  200.9530  150.2570 O   0  0  0  0  0  1  0  0  0  0  0  0
  157.8910  213.8400  155.5830 N   0  0  0  0  0  2  0  0  0  0  0  0
  156.5640  213.6530  156.0240 N   0  0  0  0  0  0  0  0  0  0  0  0
  155.6500  214.1720  155.0170 C   0  0  0  0  0  1  0  0  0  0  0  0
  156.3630  214.3940  157.2610 C   0  0  0  0  0  1  0  0  0  0  0  0
  1  5  1  0  0  0  0
  1 17  1  0  0  0  0
  2 13  1  0  0  0  0
  3 15  1  0  0  0  0
  4  9  1  0  0  0  0
  6  8  1  1  0  0  0
  6  4  1  0  0  0  0
  6 11  1  0  0  0  0
  7  8  2  0  0  0  0
  7 12  1  0  0  0  0
  9  5  1  0  0  0  0
 10 11  1  0  0  0  0
 10  3  1  0  0  0  0
 11  1  2  0  0  0  0
 12 10  2  0  0  0  0
 13 14  2  0  0  0  0
 13 31  1  0  0  0  0
 15 17  1  0  0  0  0
 15  2  2  0  0  0  0
 16 14  1  0  0  0  0
 17 16  2  0  0  0  0
 19 26  1  0  0  0  0
 20 28  1  0  0  0  0
 20 21  2  0  0  0  0
 21 22  1  0  0  0  0
 22 18  2  0  0  0  0
 23 25  2  0  0  0  0
 23 24  1  0  0  0  0
 24 19  2  0  0  0  0
 24 22  1  0  0  0  0
 25 20  1  0  0  0  0
 26  9  1  0  0  0  0
 26 27  2  0  0  0  0
 27 18  1  0  0  0  0
 28 30  1  0  0  0  0
 29 28  2  0  0  0  0
 31 32  1  0  0  0  0
 32 34  1  0  0  0  0
 33 32  1  0  0  0  0
M  END
>  <MODEL>
2

>  <REMARK>
 VINA RESULT:      -8.3      3.903      5.941
  Name = 
  4 active torsions:
  status: ('A' for Active; 'I' for Inactive)
    1  A    between atoms: N_3  and  N_25
    2  A    between atoms: C_7  and  C_11
    3  A    between atoms: N_18  and  C_30
    4  A    between atoms: C_23  and  N_25
                            x       y       z     vdW  Elec       q    Type
                         _______ _______ _______ _____ _____    ______ ____

>  <TORSDO>
F 4

$$$$
=
 OpenBabel11062409443D

 34 39  0  0  1  0  0  0  0  0999 V2000
  160.7160  210.5060  151.2000 C   0  0  0  0  0  0  0  0  0  0  0  0
  159.7370  212.1860  154.4750 C   0  0  0  0  0  3  0  0  0  0  0  0
  160.0490  213.1030  152.2630 O   0  0  0  0  0  0  0  0  0  0  0  0
  162.0700  210.4110  148.6310 C   0  0  0  0  0  2  0  0  0  0  0  0
  161.8320  209.5920  150.9700 N   0  0  0  0  0  2  0  0  0  0  0  0
  161.5210  211.7110  149.1530 C   0  0  2  0  0  3  0  0  0  0  0  0
  161.1890  214.0970  148.8870 C   0  0  0  0  0  3  0  0  0  0  0  0
  161.6390  212.8720  148.3840 C   0  0  0  0  0  3  0  0  0  0  0  0
  161.8630  209.3140  149.5870 N   0  0  0  0  0  0  0  0  0  0  0  0
  160.5300  213.0170  150.9530 C   0  0  0  0  0  0  0  0  0  0  0  0
  160.9430  211.7800  150.4320 C   0  0  0  0  0  0  0  0  0  0  0  0
  160.6410  214.1700  150.1720 C   0  0  0  0  0  3  0  0  0  0  0  0
  159.7680  211.1100  155.3680 C   0  0  0  0  0  0  0  0  0  0  0  0
  160.1370  209.8400  154.9010 C   0  0  0  0  0  3  0  0  0  0  0  0
  160.0810  212.0070  153.1320 C   0  0  0  0  0  0  0  0  0  0  0  0
  160.4730  209.6500  153.5580 C   0  0  0  0  0  3  0  0  0  0  0  0
  160.4660  210.7330  152.6690 C   0  0  0  0  0  0  0  0  0  0  0  0
  162.3270  206.2750  147.4430 C   0  0  0  0  0  3  0  0  0  0  0  0
  161.2180  206.9530  149.9250 C   0  0  0  0  0  3  0  0  0  0  0  0
  161.0980  202.9710  148.5810 C   0  0  0  0  0  0  0  0  0  0  0  0
  161.6920  203.9620  147.7890 C   0  0  0  0  0  3  0  0  0  0  0  0
  161.7350  205.2880  148.2320 C   0  0  0  0  0  0  0  0  0  0  0  0
  160.5820  204.6420  150.2730 C   0  0  0  0  0  3  0  0  0  0  0  0
  161.1750  205.6290  149.4830 C   0  0  0  0  0  0  0  0  0  0  0  0
  160.5450  203.3180  149.8230 C   0  0  0  0  0  3  0  0  0  0  0  0
  161.8110  207.9500  149.1330 C   0  0  0  0  0  0  0  0  0  0  0  0
  162.3660  207.5970  147.8920 C   0  0  0  0  0  3  0  0  0  0  0  0
  161.0570  201.5770  148.1100 C   0  0  0  0  0  0  0  0  0  0  0  0
  160.5120  201.2750  146.8670 O   0  0  0  0  0  0  0  0  0  0  0  0
  161.5130  200.6470  148.8260 O   0  0  0  0  0  1  0  0  0  0  0  0
  159.4130  211.3400  156.7440 N   0  0  0  0  0  2  0  0  0  0  0  0
  158.1790  211.8360  157.2140 N   0  0  0  0  0  0  0  0  0  0  0  0
  157.1240  211.4410  156.2930 C   0  0  0  0  0  1  0  0  0  0  0  0
  158.2350  213.2900  157.2610 C   0  0  0  0  0  1  0  0  0  0  0  0
  1 17  1  0  0  0  0
  2 13  1  0  0  0  0
  3 15  1  0  0  0  0
  4  6  1  0  0  0  0
  4  9  1  0  0  0  0
  5  1  1  0  0  0  0
  6  8  1  1  0  0  0
  6 11  1  0  0  0  0
  7 12  1  0  0  0  0
  8  7  2  0  0  0  0
  9  5  1  0  0  0  0
 10  3  1  0  0  0  0
 11 10  1  0  0  0  0
 11  1  2  0  0  0  0
 12 10  2  0  0  0  0
 13 31  1  0  0  0  0
 14 13  2  0  0  0  0
 15  2  2  0  0  0  0
 16 14  1  0  0  0  0
 17 15  1  0  0  0  0
 17 16  2  0  0  0  0
 18 27  2  0  0  0  0
 18 22  1  0  0  0  0
 20 25  1  0  0  0  0
 21 22  1  0  0  0  0
 21 20  2  0  0  0  0
 22 24  2  0  0  0  0
 24 19  1  0  0  0  0
 24 23  1  0  0  0  0
 25 23  2  0  0  0  0
 26  9  1  0  0  0  0
 26 19  2  0  0  0  0
 27 26  1  0  0  0  0
 28 20  1  0  0  0  0
 28 30  1  0  0  0  0
 29 28  2  0  0  0  0
 31 32  1  0  0  0  0
 32 34  1  0  0  0  0
 33 32  1  0  0  0  0
M  END
>  <MODEL>
3

>  <REMARK>
 VINA RESULT:      -8.0      3.214      5.880
  Name = 
  4 active torsions:
  status: ('A' for Active; 'I' for Inactive)
    1  A    between atoms: N_3  and  N_25
    2  A    between atoms: C_7  and  C_11
    3  A    between atoms: N_18  and  C_30
    4  A    between atoms: C_23  and  N_25
                            x       y       z     vdW  Elec       q    Type
                         _______ _______ _______ _____ _____    ______ ____

>  <TORSDO>
F 4

$$$$
=
 OpenBabel11062409443D

 34 39  0  0  1  0  0  0  0  0999 V2000
  161.4700  208.2050  150.6160 C   0  0  0  0  0  0  0  0  0  0  0  0
  161.2990  209.0970  154.3160 C   0  0  0  0  0  3  0  0  0  0  0  0
  161.2430  210.4990  152.3500 O   0  0  0  0  0  0  0  0  0  0  0  0
  162.2790  208.6740  147.8660 C   0  0  0  0  0  2  0  0  0  0  0  0
  162.4400  207.3340  149.9570 N   0  0  0  0  0  2  0  0  0  0  0  0
  161.9540  209.8310  148.7690 C   0  0  2  0  0  3  0  0  0  0  0  0
  161.7740  212.2230  149.1200 C   0  0  0  0  0  3  0  0  0  0  0  0
  162.0130  211.1370  148.2720 C   0  0  0  0  0  3  0  0  0  0  0  0
  162.1750  207.3890  148.5730 N   0  0  0  0  0  0  0  0  0  0  0  0
  161.4480  210.7080  150.9830 C   0  0  0  0  0  0  0  0  0  0  0  0
  161.6460  209.6160  150.1230 C   0  0  0  0  0  0  0  0  0  0  0  0
  161.4980  212.0090  150.4750 C   0  0  0  0  0  3  0  0  0  0  0  0
  161.4160  207.8400  154.9170 C   0  0  0  0  0  0  0  0  0  0  0  0
  161.5790  206.7040  154.1100 C   0  0  0  0  0  3  0  0  0  0  0  0
  161.3550  209.2280  152.9250 C   0  0  0  0  0  0  0  0  0  0  0  0
  161.6270  206.8250  152.7200 C   0  0  0  0  0  3  0  0  0  0  0  0
  161.5350  208.0870  152.1180 C   0  0  0  0  0  0  0  0  0  0  0  0
  161.7820  204.9790  145.7290 C   0  0  0  0  0  3  0  0  0  0  0  0
  161.5870  204.9900  148.5240 C   0  0  0  0  0  3  0  0  0  0  0  0
  160.8720  201.4470  146.3750 C   0  0  0  0  0  0  0  0  0  0  0  0
  161.2080  202.6260  145.6960 C   0  0  0  0  0  3  0  0  0  0  0  0
  161.4470  203.8060  146.4060 C   0  0  0  0  0  0  0  0  0  0  0  0
  161.0130  202.6370  148.4930 C   0  0  0  0  0  3  0  0  0  0  0  0
  161.3490  203.8110  147.8150 C   0  0  0  0  0  0  0  0  0  0  0  0
  160.7770  201.4600  147.7750 C   0  0  0  0  0  3  0  0  0  0  0  0
  161.9220  206.1740  147.8470 C   0  0  0  0  0  0  0  0  0  0  0  0
  162.0190  206.1550  146.4460 C   0  0  0  0  0  3  0  0  0  0  0  0
  160.6230  200.2080  145.6220 C   0  0  0  0  0  0  0  0  0  0  0  0
  159.7340  200.2060  144.5520 O   0  0  0  0  0  0  0  0  0  0  0  0
  161.2080  199.1380  145.9390 O   0  0  0  0  0  1  0  0  0  0  0  0
  161.3590  207.7500  156.3530 N   0  0  0  0  0  2  0  0  0  0  0  0
  160.1990  207.8550  157.1490 N   0  0  0  0  0  0  0  0  0  0  0  0
  159.1120  207.1310  156.5060 C   0  0  0  0  0  1  0  0  0  0  0  0
  159.8220  209.2570  157.2610 C   0  0  0  0  0  1  0  0  0  0  0  0
  1 17  1  0  0  0  0
  2 13  1  0  0  0  0
  3 15  1  0  0  0  0
  4  9  1  0  0  0  0
  5  1  1  0  0  0  0
  6  4  1  1  0  0  0
  6 11  1  0  0  0  0
  7 12  1  0  0  0  0
  8  6  1  0  0  0  0
  8  7  2  0  0  0  0
  9  5  1  0  0  0  0
 10  3  1  0  0  0  0
 11  1  2  0  0  0  0
 11 10  1  0  0  0  0
 12 10  2  0  0  0  0
 13 31  1  0  0  0  0
 14 13  2  0  0  0  0
 15  2  2  0  0  0  0
 16 14  1  0  0  0  0
 17 16  2  0  0  0  0
 17 15  1  0  0  0  0
 18 22  2  0  0  0  0
 18 27  1  0  0  0  0
 20 25  1  0  0  0  0
 21 20  2  0  0  0  0
 21 22  1  0  0  0  0
 22 24  1  0  0  0  0
 24 23  1  0  0  0  0
 24 19  2  0  0  0  0
 25 23  2  0  0  0  0
 26 19  1  0  0  0  0
 26  9  1  0  0  0  0
 27 26  2  0  0  0  0
 28 30  1  0  0  0  0
 28 20  1  0  0  0  0
 29 28  2  0  0  0  0
 31 32  1  0  0  0  0
 32 34  1  0  0  0  0
 33 32  1  0  0  0  0
M  END
>  <MODEL>
4

>  <REMARK>
 VINA RESULT:      -7.5      2.053      5.397
  Name = 
  4 active torsions:
  status: ('A' for Active; 'I' for Inactive)
    1  A    between atoms: N_3  and  N_25
    2  A    between atoms: C_7  and  C_11
    3  A    between atoms: N_18  and  C_30
    4  A    between atoms: C_23  and  N_25
                            x       y       z     vdW  Elec       q    Type
                         _______ _______ _______ _____ _____    ______ ____

>  <TORSDO>
F 4

$$$$
=
 OpenBabel11062409443D

 34 39  0  0  1  0  0  0  0  0999 V2000
  161.0110  205.5120  150.2030 C   0  0  0  0  0  0  0  0  0  0  0  0
  161.6570  204.6490  146.5490 C   0  0  0  0  0  3  0  0  0  0  0  0
  161.0860  203.2410  148.4270 O   0  0  0  0  0  0  0  0  0  0  0  0
  161.1430  204.9920  153.0580 C   0  0  0  0  0  2  0  0  0  0  0  0
  161.8420  206.3330  151.0810 N   0  0  0  0  0  2  0  0  0  0  0  0
  160.9820  203.8560  152.0860 C   0  0  0  0  0  0  0  0  0  0  0  0
  160.7780  201.4780  151.6640 C   0  0  0  0  0  3  0  0  0  0  0  0
  160.8650  202.5460  152.5620 C   0  0  0  0  0  3  0  0  0  0  0  0
  161.2630  206.2830  152.3670 N   0  0  0  0  0  0  0  0  0  0  0  0
  160.9600  203.0150  149.8010 C   0  0  0  0  0  0  0  0  0  0  0  0
  161.0050  204.0930  150.7010 C   0  0  0  0  0  0  0  0  0  0  0  0
  160.8320  201.7110  150.2860 C   0  0  0  0  0  3  0  0  0  0  0  0
  161.9670  205.9010  146.0110 C   0  0  0  0  0  0  0  0  0  0  0  0
  161.9910  207.0240  146.8520 C   0  0  0  0  0  3  0  0  0  0  0  0
  161.3840  204.5080  147.9130 C   0  0  1  0  0  3  0  0  0  0  0  0
  161.7120  206.8940  148.2150 C   0  0  0  0  0  3  0  0  0  0  0  0
  161.4260  205.6350  148.7590 C   0  0  0  0  0  0  0  0  0  0  0  0
  160.3430  208.6960  155.0830 C   0  0  0  0  0  3  0  0  0  0  0  0
  160.7830  208.7070  152.3160 C   0  0  0  0  0  3  0  0  0  0  0  0
  159.7560  212.2680  154.2990 C   0  0  0  0  0  0  0  0  0  0  0  0
  159.8780  211.0730  155.0200 C   0  0  0  0  0  3  0  0  0  0  0  0
  160.2200  209.8860  154.3650 C   0  0  0  0  0  0  0  0  0  0  0  0
  160.3200  211.0820  152.2510 C   0  0  0  0  0  3  0  0  0  0  0  0
  160.4420  209.8920  152.9700 C   0  0  0  0  0  0  0  0  0  0  0  0
  159.9780  212.2660  152.9140 C   0  0  0  0  0  3  0  0  0  0  0  0
  160.9060  207.5050  153.0350 C   0  0  0  0  0  0  0  0  0  0  0  0
  160.6840  207.5140  154.4220 C   0  0  0  0  0  3  0  0  0  0  0  0
  159.3960  213.5150  154.9950 C   0  0  0  0  0  0  0  0  0  0  0  0
  158.5190  214.4170  154.4040 O   0  0  0  0  0  0  0  0  0  0  0  0
  159.8790  213.7770  156.1280 O   0  0  0  0  0  1  0  0  0  0  0  0
  162.2460  206.0010  144.6030 N   0  0  0  0  0  2  0  0  0  0  0  0
  161.6590  205.2270  143.5800 N   0  0  0  0  0  0  0  0  0  0  0  0
  161.5390  206.0380  142.3770 C   0  0  0  0  0  1  0  0  0  0  0  0
  160.3270  204.8150  143.9980 C   0  0  0  0  0  1  0  0  0  0  0  0
  1 11  1  0  0  0  0
  1  5  1  0  0  0  0
  3 10  1  0  0  0  0
  5  9  1  0  0  0  0
  6  8  1  0  0  0  0
  6  4  1  0  0  0  0
  7  8  2  0  0  0  0
  9 26  1  0  0  0  0
  9  4  1  0  0  0  0
 10 12  2  0  0  0  0
 10 11  1  0  0  0  0
 11  6  2  0  0  0  0
 12  7  1  0  0  0  0
 13  2  2  0  0  0  0
 13 14  1  0  0  0  0
 14 16  2  0  0  0  0
 15  2  1  1  0  0  0
 15  3  1  0  0  0  0
 15 17  1  0  0  0  0
 16 17  1  0  0  0  0
 17  1  2  0  0  0  0
 19 24  2  0  0  0  0
 19 26  1  0  0  0  0
 20 28  1  0  0  0  0
 20 21  2  0  0  0  0
 22 21  1  0  0  0  0
 22 18  2  0  0  0  0
 23 25  2  0  0  0  0
 23 24  1  0  0  0  0
 24 22  1  0  0  0  0
 25 20  1  0  0  0  0
 26 27  2  0  0  0  0
 27 18  1  0  0  0  0
 28 30  1  0  0  0  0
 29 28  2  0  0  0  0
 31 13  1  0  0  0  0
 32 34  1  0  0  0  0
 32 31  1  0  0  0  0
 33 32  1  0  0  0  0
M  END
>  <MODEL>
5

>  <REMARK>
 VINA RESULT:      -6.8      3.362      8.760
  Name = 
  4 active torsions:
  status: ('A' for Active; 'I' for Inactive)
    1  A    between atoms: N_3  and  N_25
    2  A    between atoms: C_7  and  C_11
    3  A    between atoms: N_18  and  C_30
    4  A    between atoms: C_23  and  N_25
                            x       y       z     vdW  Elec       q    Type
                         _______ _______ _______ _____ _____    ______ ____

>  <TORSDO>
F 4

$$$$
=
 OpenBabel11062409443D

 34 39  0  0  1  0  0  0  0  0999 V2000
  161.1030  205.8300  150.2110 C   0  0  0  0  0  0  0  0  0  0  0  0
  161.7790  204.6380  146.6570 C   0  0  0  0  0  3  0  0  0  0  0  0
  161.1470  203.4120  148.6390 O   0  0  0  0  0  0  0  0  0  0  0  0
  161.1820  205.5550  153.1020 C   0  0  0  0  0  2  0  0  0  0  0  0
  161.9410  206.7040  151.0290 N   0  0  0  0  0  2  0  0  0  0  0  0
  161.0070  204.3430  152.2290 C   0  0  0  0  0  0  0  0  0  0  0  0
  160.7520  201.9430  152.0110 C   0  0  0  0  0  3  0  0  0  0  0  0
  160.8520  203.0830  152.8150 C   0  0  0  0  0  3  0  0  0  0  0  0
  161.3430  206.7790  152.3040 N   0  0  0  0  0  0  0  0  0  0  0  0
  160.9970  203.3090  150.0250 C   0  0  0  0  0  0  0  0  0  0  0  0
  161.0550  204.4590  150.8290 C   0  0  0  0  0  0  0  0  0  0  0  0
  160.8310  202.0550  150.6190 C   0  0  0  0  0  3  0  0  0  0  0  0
  162.1260  205.8320  146.0170 C   0  0  0  0  0  0  0  0  0  0  0  0
  162.1660  207.0220  146.7580 C   0  0  0  0  0  3  0  0  0  0  0  0
  161.4840  204.6220  148.0230 C   0  0  1  0  0  3  0  0  0  0  0  0
  161.8650  207.0170  148.1220 C   0  0  0  0  0  3  0  0  0  0  0  0
  161.5410  205.8170  148.7680 C   0  0  0  0  0  0  0  0  0  0  0  0
  160.5020  210.4240  152.5400 C   0  0  0  0  0  3  0  0  0  0  0  0
  160.8310  208.2230  154.2430 C   0  0  0  0  0  3  0  0  0  0  0  0
  159.8260  211.9830  155.8310 C   0  0  0  0  0  0  0  0  0  0  0  0
  159.9980  211.8280  154.4500 C   0  0  0  0  0  3  0  0  0  0  0  0
  160.3320  210.5790  153.9170 C   0  0  0  0  0  0  0  0  0  0  0  0
  160.3270  209.6240  156.1530 C   0  0  0  0  0  3  0  0  0  0  0  0
  160.4970  209.4700  154.7760 C   0  0  0  0  0  0  0  0  0  0  0  0
  159.9920  210.8760  156.6780 C   0  0  0  0  0  3  0  0  0  0  0  0
  161.0060  208.0620  152.8580 C   0  0  0  0  0  0  0  0  0  0  0  0
  160.8360  209.1730  152.0150 C   0  0  0  0  0  3  0  0  0  0  0  0
  159.4740  213.3000  156.3870 C   0  0  0  0  0  0  0  0  0  0  0  0
  158.2020  213.8270  156.1860 O   0  0  0  0  0  0  0  0  0  0  0  0
  160.3190  213.9630  157.0460 O   0  0  0  0  0  1  0  0  0  0  0  0
  162.4280  205.8020  144.6100 N   0  0  0  0  0  2  0  0  0  0  0  0
  161.7270  205.0780  143.6220 N   0  0  0  0  0  0  0  0  0  0  0  0
  161.5810  205.9090  142.4360 C   0  0  0  0  0  1  0  0  0  0  0  0
  160.4020  204.7470  144.1240 C   0  0  0  0  0  1  0  0  0  0  0  0
  1 11  1  0  0  0  0
  1  5  1  0  0  0  0
  3 10  1  0  0  0  0
  5  9  1  0  0  0  0
  6  8  1  0  0  0  0
  6  4  1  0  0  0  0
  7  8  2  0  0  0  0
  9 26  1  0  0  0  0
  9  4  1  0  0  0  0
 10 12  2  0  0  0  0
 10 11  1  0  0  0  0
 11  6  2  0  0  0  0
 12  7  1  0  0  0  0
 13  2  2  0  0  0  0
 13 14  1  0  0  0  0
 14 16  2  0  0  0  0
 15  2  1  1  0  0  0
 15  3  1  0  0  0  0
 15 17  1  0  0  0  0
 16 17  1  0  0  0  0
 17  1  2  0  0  0  0
 18 22  1  0  0  0  0
 19 24  1  0  0  0  0
 20 28  1  0  0  0  0
 20 25  1  0  0  0  0
 21 20  2  0  0  0  0
 22 21  1  0  0  0  0
 22 24  2  0  0  0  0
 23 25  2  0  0  0  0
 24 23  1  0  0  0  0
 26 19  2  0  0  0  0
 27 18  2  0  0  0  0
 27 26  1  0  0  0  0
 28 30  1  0  0  0  0
 29 28  2  0  0  0  0
 31 13  1  0  0  0  0
 32 34  1  0  0  0  0
 32 31  1  0  0  0  0
 33 32  1  0  0  0  0
M  END
>  <MODEL>
6

>  <REMARK>
 VINA RESULT:      -6.8      3.456      9.066
  Name = 
  4 active torsions:
  status: ('A' for Active; 'I' for Inactive)
    1  A    between atoms: N_3  and  N_25
    2  A    between atoms: C_7  and  C_11
    3  A    between atoms: N_18  and  C_30
    4  A    between atoms: C_23  and  N_25
                            x       y       z     vdW  Elec       q    Type
                         _______ _______ _______ _____ _____    ______ ____

>  <TORSDO>
F 4

$$$$
=
 OpenBabel11062409443D

 34 39  0  0  1  0  0  0  0  0999 V2000
  160.9790  204.6980  147.9520 C   0  0  0  0  0  0  0  0  0  0  0  0
  160.9990  204.2420  144.1700 C   0  0  0  0  0  3  0  0  0  0  0  0
  160.7600  202.6300  145.9520 O   0  0  0  0  0  0  0  0  0  0  0  0
  161.5930  203.8790  150.6700 C   0  0  0  0  0  2  0  0  0  0  0  0
  161.9430  205.4380  148.7620 N   0  0  0  0  0  2  0  0  0  0  0  0
  161.2740  202.8500  149.6210 C   0  0  0  0  0  0  0  0  0  0  0  0
  161.0110  200.5260  148.9840 C   0  0  0  0  0  3  0  0  0  0  0  0
  161.2440  201.4950  149.9650 C   0  0  0  0  0  3  0  0  0  0  0  0
  161.5900  205.2390  150.1130 N   0  0  0  0  0  0  0  0  0  0  0  0
  160.8690  202.2570  147.2950 C   0  0  0  0  0  0  0  0  0  0  0  0
  161.0620  203.2330  148.2860 C   0  0  0  0  0  0  0  0  0  0  0  0
  160.8300  200.9060  147.6500 C   0  0  0  0  0  3  0  0  0  0  0  0
  161.2090  205.5510  143.7260 C   0  0  0  0  0  0  0  0  0  0  0  0
  161.3710  206.5790  144.6680 C   0  0  0  0  0  3  0  0  0  0  0  0
  160.9630  203.9510  145.5360 C   0  0  1  0  0  3  0  0  0  0  0  0
  161.3280  206.2980  146.0350 C   0  0  0  0  0  3  0  0  0  0  0  0
  161.1420  204.9820  146.4800 C   0  0  0  0  0  0  0  0  0  0  0  0
  161.0050  208.7730  151.2160 C   0  0  0  0  0  3  0  0  0  0  0  0
  161.1930  206.2160  152.3480 C   0  0  0  0  0  3  0  0  0  0  0  0
  160.4610  209.5550  154.7960 C   0  0  0  0  0  0  0  0  0  0  0  0
  160.6130  209.7180  153.4130 C   0  0  0  0  0  3  0  0  0  0  0  0
  160.8560  208.6110  152.5940 C   0  0  0  0  0  0  0  0  0  0  0  0
  160.8000  207.1590  154.5440 C   0  0  0  0  0  3  0  0  0  0  0  0
  160.9500  207.3220  153.1650 C   0  0  0  0  0  0  0  0  0  0  0  0
  160.5560  208.2710  155.3550 C   0  0  0  0  0  3  0  0  0  0  0  0
  161.3470  206.3750  150.9600 C   0  0  0  0  0  0  0  0  0  0  0  0
  161.2480  207.6620  150.4050 C   0  0  0  0  0  3  0  0  0  0  0  0
  160.2050  210.7240  155.6530 C   0  0  0  0  0  0  0  0  0  0  0  0
  158.9140  211.0030  156.0880 O   0  0  0  0  0  1  0  0  0  0  0  0
  161.1490  211.4830  155.9980 O   0  0  0  0  0  0  0  0  0  0  0  0
  161.2460  205.8060  142.3100 N   0  0  0  0  0  2  0  0  0  0  0  0
  162.2080  206.5790  141.6260 N   0  0  0  0  0  0  0  0  0  0  0  0
  161.5810  207.7970  141.1360 C   0  0  0  0  0  1  0  0  0  0  0  0
  162.7060  205.8210  140.4870 C   0  0  0  0  0  1  0  0  0  0  0  0
  1 11  1  0  0  0  0
  1  5  1  0  0  0  0
  3 10  1  0  0  0  0
  5  9  1  0  0  0  0
  6  8  1  0  0  0  0
  6  4  1  0  0  0  0
  7  8  2  0  0  0  0
  9  4  1  0  0  0  0
  9 26  1  0  0  0  0
 10 12  2  0  0  0  0
 10 11  1  0  0  0  0
 11  6  2  0  0  0  0
 12  7  1  0  0  0  0
 13  2  2  0  0  0  0
 13 14  1  0  0  0  0
 14 16  2  0  0  0  0
 15  2  1  6  0  0  0
 15  3  1  0  0  0  0
 15 17  1  0  0  0  0
 16 17  1  0  0  0  0
 17  1  2  0  0  0  0
 18 22  1  0  0  0  0
 19 24  1  0  0  0  0
 20 25  1  0  0  0  0
 20 28  1  0  0  0  0
 21 20  2  0  0  0  0
 22 24  2  0  0  0  0
 22 21  1  0  0  0  0
 23 25  2  0  0  0  0
 24 23  1  0  0  0  0
 26 19  2  0  0  0  0
 27 26  1  0  0  0  0
 27 18  2  0  0  0  0
 28 30  2  0  0  0  0
 28 29  1  0  0  0  0
 31 13  1  0  0  0  0
 32 31  1  0  0  0  0
 33 32  1  0  0  0  0
 34 32  1  0  0  0  0
M  END
>  <MODEL>
7

>  <REMARK>
 VINA RESULT:      -5.5      3.407      8.673
  Name = 
  4 active torsions:
  status: ('A' for Active; 'I' for Inactive)
    1  A    between atoms: N_3  and  N_25
    2  A    between atoms: C_7  and  C_11
    3  A    between atoms: N_18  and  C_30
    4  A    between atoms: C_23  and  N_25
                            x       y       z     vdW  Elec       q    Type
                         _______ _______ _______ _____ _____    ______ ____

>  <TORSDO>
F 4

$$$$
