=
 OpenBabel11062409313D

 34 38  0  0  1  0  0  0  0  0999 V2000
  161.0040  208.4120  151.8710 C   0  0  2  0  0  3  0  0  0  0  0  0
  161.7280  204.5780  151.3190 C   0  0  0  0  0  2  0  0  0  0  0  0
  161.3240  204.0450  148.1110 C   0  0  0  0  0  0  0  0  0  0  0  0
  161.2410  205.9110  153.2890 O   0  0  0  0  0  0  0  0  0  0  0  0
  160.3030  209.4210  154.0690 C   0  0  0  0  0  3  0  0  0  0  0  0
  160.1800  208.0870  156.0870 C   0  0  0  0  0  3  0  0  0  0  0  0
  161.5510  204.6180  146.8640 O   0  0  0  0  0  0  0  0  0  0  0  0
  160.0400  209.3160  155.4370 C   0  0  0  0  0  3  0  0  0  0  0  0
  160.8550  207.0540  154.0020 C   0  0  0  0  0  0  0  0  0  0  0  0
  160.7080  208.2940  153.3440 C   0  0  0  0  0  0  0  0  0  0  0  0
  160.5850  206.9570  155.3700 C   0  0  0  0  0  3  0  0  0  0  0  0
  160.5070  204.2340  150.4780 C   0  0  0  0  0  2  0  0  0  0  0  0
  161.6970  202.8620  148.3220 O   0  0  0  0  0  1  0  0  0  0  0  0
  160.6680  204.7950  149.1410 N   0  0  0  0  0  0  0  0  0  0  0  0
  160.2950  206.1850  148.9020 C   0  0  0  0  0  2  0  0  0  0  0  0
  161.6860  205.9820  151.9340 C   0  0  2  0  0  3  0  0  0  0  0  0
  161.2040  207.1260  149.6800 C   0  0  0  0  0  2  0  0  0  0  0  0
  160.8780  207.0480  151.1690 C   0  0  2  0  0  3  0  0  0  0  0  0
  162.3340  209.1320  151.5960 C   0  0  0  0  0  2  0  0  0  0  0  0
  162.1590  210.6110  151.2720 C   0  0  0  0  0  2  0  0  0  0  0  0
  162.6280  210.8820  149.9220 N   0  0  0  0  0  2  0  0  0  0  0  0
  160.0970  213.2420  148.4940 C   0  0  0  0  0  3  0  0  0  0  0  0
  162.5030  212.0160  147.7640 C   0  0  0  0  0  3  0  0  0  0  0  0
  160.5400  214.4530  144.8960 C   0  0  1  0  0  3  0  0  0  0  0  0
  159.9540  214.4530  146.3140 C   0  0  0  0  0  2  0  0  0  0  0  0
  160.6440  213.4860  147.2310 C   0  0  0  0  0  0  0  0  0  0  0  0
  162.4330  213.0720  145.4990 C   0  0  0  0  0  2  0  0  0  0  0  0
  161.8640  212.8840  146.8730 C   0  0  0  0  0  0  0  0  0  0  0  0
  162.0050  214.3440  144.9090 N   0  0  0  0  0  2  0  0  0  0  0  0
  161.9540  211.7710  149.0260 C   0  0  0  0  0  0  0  0  0  0  0  0
  160.7450  212.3860  149.3860 C   0  0  0  0  0  3  0  0  0  0  0  0
  159.8980  213.4500  143.9830 C   0  0  0  0  0  0  0  0  0  0  0  0
  158.9430  212.5790  144.4890 O   0  0  0  0  0  1  0  0  0  0  0  0
  160.1900  213.4120  142.7590 O   0  0  0  0  0  0  0  0  0  0  0  0
  1 19  1  1  0  0  0
  1 10  1  0  0  0  0
  3 13  1  0  0  0  0
  3 14  1  0  0  0  0
  4  9  1  0  0  0  0
  5  8  1  0  0  0  0
  7  3  2  0  0  0  0
  8  6  2  0  0  0  0
  9 11  2  0  0  0  0
 10  9  1  0  0  0  0
 10  5  2  0  0  0  0
 11  6  1  0  0  0  0
 12  2  1  0  0  0  0
 14 12  1  0  0  0  0
 15 14  1  0  0  0  0
 15 17  1  0  0  0  0
 16  2  1  6  0  0  0
 16  4  1  0  0  0  0
 18 17  1  6  0  0  0
 18  1  1  0  0  0  0
 18 16  1  0  0  0  0
 20 19  1  0  0  0  0
 21 20  1  0  0  0  0
 22 31  1  0  0  0  0
 23 30  1  0  0  0  0
 24 32  1  6  0  0  0
 24 29  1  0  0  0  0
 24 25  1  0  0  0  0
 25 26  1  0  0  0  0
 26 22  2  0  0  0  0
 27 28  1  0  0  0  0
 28 26  1  0  0  0  0
 28 23  2  0  0  0  0
 29 27  1  0  0  0  0
 30 31  2  0  0  0  0
 30 21  1  0  0  0  0
 32 33  1  0  0  0  0
 34 32  2  0  0  0  0
M  END
>  <MODEL>
1

>  <REMARK>
 VINA RESULT:      -8.2      0.000      0.000
  Name = 
  5 active torsions:
  status: ('A' for Active; 'I' for Inactive)
    1  A    between atoms: C_1  and  C_9
    2  A    between atoms: CA_7  and  C_11
    3  A    between atoms: C_8  and  C_9
    4  A    between atoms: C_8  and  N_18
    5  A    between atoms: N_18  and  C_30
                            x       y       z     vdW  Elec       q    Type
                         _______ _______ _______ _____ _____    ______ ____

>  <TORSDO>
F 5

$$$$
=
 OpenBabel11062409313D

 34 38  0  0  1  0  0  0  0  0999 V2000
  161.4300  210.2140  152.8640 C   0  0  2  0  0  3  0  0  0  0  0  0
  159.2360  212.9210  151.0220 C   0  0  0  0  0  2  0  0  0  0  0  0
  160.2510  212.9220  147.9050 C   0  0  0  0  0  0  0  0  0  0  0  0
  159.6910  212.4620  153.3630 O   0  0  0  0  0  0  0  0  0  0  0  0
  161.8520  210.1810  155.3460 C   0  0  0  0  0  3  0  0  0  0  0  0
  160.7760  211.7650  156.8290 C   0  0  0  0  0  3  0  0  0  0  0  0
  160.6730  212.0750  146.8860 O   0  0  0  0  0  0  0  0  0  0  0  0
  161.6370  210.6820  156.6330 C   0  0  0  0  0  3  0  0  0  0  0  0
  160.3320  211.8540  154.4490 C   0  0  0  0  0  0  0  0  0  0  0  0
  161.2060  210.7640  154.2490 C   0  0  0  0  0  0  0  0  0  0  0  0
  160.1270  212.3520  155.7400 C   0  0  0  0  0  3  0  0  0  0  0  0
  160.3520  213.6660  150.3020 C   0  0  0  0  0  2  0  0  0  0  0  0
  159.3380  213.7580  147.6730 O   0  0  0  0  0  1  0  0  0  0  0  0
  160.8510  212.8450  149.2040 N   0  0  0  0  0  0  0  0  0  0  0  0
  161.8640  211.8310  149.4770 C   0  0  0  0  0  2  0  0  0  0  0  0
  159.7330  211.8990  152.0510 C   0  0  2  0  0  3  0  0  0  0  0  0
  161.3010  210.7370  150.3730 C   0  0  0  0  0  2  0  0  0  0  0  0
  161.1170  211.2720  151.7900 C   0  0  2  0  0  3  0  0  0  0  0  0
  160.7100  208.8740  152.6420 C   0  0  0  0  0  2  0  0  0  0  0  0
  161.6540  207.6770  152.6620 C   0  0  0  0  0  2  0  0  0  0  0  0
  160.9150  206.4580  152.3720 N   0  0  0  0  0  2  0  0  0  0  0  0
  161.3280  203.7430  149.8270 C   0  0  0  0  0  3  0  0  0  0  0  0
  160.8700  206.5000  149.9310 C   0  0  0  0  0  3  0  0  0  0  0  0
  161.3100  204.6810  146.1220 C   0  0  1  0  0  3  0  0  0  0  0  0
  161.2470  203.7380  147.3310 C   0  0  0  0  0  2  0  0  0  0  0  0
  161.1970  204.4690  148.6400 C   0  0  0  0  0  0  0  0  0  0  0  0
  160.8770  206.6650  147.4370 C   0  0  0  0  0  2  0  0  0  0  0  0
  160.9470  205.8530  148.6950 C   0  0  0  0  0  0  0  0  0  0  0  0
  160.4420  205.8530  146.2970 N   0  0  0  0  0  2  0  0  0  0  0  0
  161.0020  205.7730  151.1190 C   0  0  0  0  0  0  0  0  0  0  0  0
  161.2350  204.3910  151.0600 C   0  0  0  0  0  3  0  0  0  0  0  0
  162.7090  205.0550  145.7290 C   0  0  0  0  0  0  0  0  0  0  0  0
  163.7830  204.4520  146.3680 O   0  0  0  0  0  1  0  0  0  0  0  0
  162.9190  205.8840  144.8040 O   0  0  0  0  0  0  0  0  0  0  0  0
  1 19  1  6  0  0  0
  1 10  1  0  0  0  0
  3 14  1  0  0  0  0
  4  9  1  0  0  0  0
  5  8  1  0  0  0  0
  7  3  2  0  0  0  0
  8  6  2  0  0  0  0
  9 11  2  0  0  0  0
 10  9  1  0  0  0  0
 10  5  2  0  0  0  0
 11  6  1  0  0  0  0
 12  2  1  0  0  0  0
 13  3  1  0  0  0  0
 14 15  1  0  0  0  0
 14 12  1  0  0  0  0
 15 17  1  0  0  0  0
 16  2  1  6  0  0  0
 16  4  1  0  0  0  0
 18 17  1  6  0  0  0
 18 16  1  0  0  0  0
 18  1  1  0  0  0  0
 19 20  1  0  0  0  0
 21 20  1  0  0  0  0
 22 31  1  0  0  0  0
 23 30  1  0  0  0  0
 24 32  1  1  0  0  0
 24 29  1  0  0  0  0
 24 25  1  0  0  0  0
 25 26  1  0  0  0  0
 26 28  1  0  0  0  0
 26 22  2  0  0  0  0
 27 28  1  0  0  0  0
 28 23  2  0  0  0  0
 29 27  1  0  0  0  0
 30 21  1  0  0  0  0
 31 30  2  0  0  0  0
 32 33  1  0  0  0  0
 34 32  2  0  0  0  0
M  END
>  <MODEL>
2

>  <REMARK>
 VINA RESULT:      -8.1      2.543      7.138
  Name = 
  5 active torsions:
  status: ('A' for Active; 'I' for Inactive)
    1  A    between atoms: C_1  and  C_9
    2  A    between atoms: CA_7  and  C_11
    3  A    between atoms: C_8  and  C_9
    4  A    between atoms: C_8  and  N_18
    5  A    between atoms: N_18  and  C_30
                            x       y       z     vdW  Elec       q    Type
                         _______ _______ _______ _____ _____    ______ ____

>  <TORSDO>
F 5

$$$$
=
 OpenBabel11062409313D

 34 38  0  0  1  0  0  0  0  0999 V2000
  160.4580  211.2030  153.3590 C   0  0  2  0  0  3  0  0  0  0  0  0
  157.0520  212.7320  154.6200 C   0  0  0  0  0  2  0  0  0  0  0  0
  155.7110  214.1980  152.0130 C   0  0  0  0  0  0  0  0  0  0  0  0
  159.0310  211.9150  155.7640 O   0  0  0  0  0  0  0  0  0  0  0  0
  162.4100  210.6640  154.8550 C   0  0  0  0  0  3  0  0  0  0  0  0
  162.2610  210.9080  157.2600 C   0  0  0  0  0  3  0  0  0  0  0  0
  155.5330  214.0530  150.6410 O   0  0  0  0  0  0  0  0  0  0  0  0
  162.9940  210.5650  156.1210 C   0  0  0  0  0  3  0  0  0  0  0  0
  160.3480  211.4500  155.8760 C   0  0  0  0  0  0  0  0  0  0  0  0
  161.0890  211.1090  154.7240 C   0  0  0  0  0  0  0  0  0  0  0  0
  160.9410  211.3530  157.1380 C   0  0  0  0  0  3  0  0  0  0  0  0
  157.1990  214.1300  154.0350 C   0  0  0  0  0  2  0  0  0  0  0  0
  154.7150  214.4450  152.7410 O   0  0  0  0  0  1  0  0  0  0  0  0
  157.0180  214.0700  152.5880 N   0  0  0  0  0  0  0  0  0  0  0  0
  158.1530  213.7230  151.7420 C   0  0  0  0  0  2  0  0  0  0  0  0
  158.3220  211.8800  154.5250 C   0  0  2  0  0  3  0  0  0  0  0  0
  158.5960  212.2900  151.9990 C   0  0  0  0  0  2  0  0  0  0  0  0
  159.2810  212.1950  153.3600 C   0  0  2  0  0  3  0  0  0  0  0  0
  160.1060  209.8230  152.7800 C   0  0  0  0  0  2  0  0  0  0  0  0
  161.3160  209.0790  152.2290 C   0  0  0  0  0  2  0  0  0  0  0  0
  161.1140  207.6430  152.3520 N   0  0  0  0  0  2  0  0  0  0  0  0
  161.4030  204.5250  150.2990 C   0  0  0  0  0  3  0  0  0  0  0  0
  160.9830  207.2680  149.9430 C   0  0  0  0  0  3  0  0  0  0  0  0
  161.2670  204.8160  146.4910 C   0  0  1  0  0  3  0  0  0  0  0  0
  161.2340  204.0950  147.8450 C   0  0  0  0  0  2  0  0  0  0  0  0
  161.2400  205.0400  149.0100 C   0  0  0  0  0  0  0  0  0  0  0  0
  160.9040  207.0030  147.4580 C   0  0  0  0  0  2  0  0  0  0  0  0
  161.0090  206.4170  148.8340 C   0  0  0  0  0  0  0  0  0  0  0  0
  160.4200  206.0160  146.4890 N   0  0  0  0  0  2  0  0  0  0  0  0
  161.1490  206.7530  151.2330 C   0  0  0  0  0  0  0  0  0  0  0  0
  161.3620  205.3770  151.4050 C   0  0  0  0  0  3  0  0  0  0  0  0
  162.6550  205.0920  145.9930 C   0  0  0  0  0  0  0  0  0  0  0  0
  163.7440  204.6070  146.7040 O   0  0  0  0  0  1  0  0  0  0  0  0
  162.8430  205.7280  144.9230 O   0  0  0  0  0  0  0  0  0  0  0  0
  1 19  1  1  0  0  0
  1 18  1  0  0  0  0
  1 10  1  0  0  0  0
  3 14  1  0  0  0  0
  3 13  1  0  0  0  0
  4  9  1  0  0  0  0
  5  8  1  0  0  0  0
  7  3  2  0  0  0  0
  8  6  2  0  0  0  0
  9 11  2  0  0  0  0
 10  5  2  0  0  0  0
 10  9  1  0  0  0  0
 11  6  1  0  0  0  0
 12  2  1  0  0  0  0
 14 12  1  0  0  0  0
 15 17  1  0  0  0  0
 15 14  1  0  0  0  0
 16  2  1  1  0  0  0
 16  4  1  0  0  0  0
 18 17  1  6  0  0  0
 18 16  1  0  0  0  0
 20 21  1  0  0  0  0
 20 19  1  0  0  0  0
 22 31  1  0  0  0  0
 23 30  1  0  0  0  0
 24 32  1  1  0  0  0
 24 25  1  0  0  0  0
 25 26  1  0  0  0  0
 26 22  2  0  0  0  0
 27 28  1  0  0  0  0
 28 26  1  0  0  0  0
 28 23  2  0  0  0  0
 29 24  1  0  0  0  0
 29 27  1  0  0  0  0
 30 31  2  0  0  0  0
 30 21  1  0  0  0  0
 32 33  1  0  0  0  0
 34 32  2  0  0  0  0
M  END
>  <MODEL>
3

>  <REMARK>
 VINA RESULT:      -8.1      4.393      7.815
  Name = 
  5 active torsions:
  status: ('A' for Active; 'I' for Inactive)
    1  A    between atoms: C_1  and  C_9
    2  A    between atoms: CA_7  and  C_11
    3  A    between atoms: C_8  and  C_9
    4  A    between atoms: C_8  and  N_18
    5  A    between atoms: N_18  and  C_30
                            x       y       z     vdW  Elec       q    Type
                         _______ _______ _______ _____ _____    ______ ____

>  <TORSDO>
F 5

$$$$
=
 OpenBabel11062409313D

 34 38  0  0  1  0  0  0  0  0999 V2000
  161.3360  210.3090  152.9010 C   0  0  2  0  0  3  0  0  0  0  0  0
  159.1760  213.0610  151.0870 C   0  0  0  0  0  2  0  0  0  0  0  0
  160.1680  213.0600  147.9640 C   0  0  0  0  0  0  0  0  0  0  0  0
  159.6390  212.5830  153.4230 O   0  0  0  0  0  0  0  0  0  0  0  0
  161.7750  210.2570  155.3800 C   0  0  0  0  0  3  0  0  0  0  0  0
  160.7360  211.8520  156.8790 C   0  0  0  0  0  3  0  0  0  0  0  0
  160.5690  212.2100  146.9380 O   0  0  0  0  0  0  0  0  0  0  0  0
  161.5770  210.7550  156.6710 C   0  0  0  0  0  3  0  0  0  0  0  0
  160.2770  211.9590  154.5020 C   0  0  0  0  0  0  0  0  0  0  0  0
  161.1310  210.8550  154.2910 C   0  0  0  0  0  0  0  0  0  0  0  0
  160.0890  212.4550  155.7960 C   0  0  0  0  0  3  0  0  0  0  0  0
  160.2990  213.7910  150.3630 C   0  0  0  0  0  2  0  0  0  0  0  0
  159.2690  213.9120  147.7420 O   0  0  0  0  0  1  0  0  0  0  0  0
  160.7770  212.9660  149.2580 N   0  0  0  0  0  0  0  0  0  0  0  0
  161.7730  211.9350  149.5190 C   0  0  0  0  0  2  0  0  0  0  0  0
  159.6620  212.0260  152.1080 C   0  0  2  0  0  3  0  0  0  0  0  0
  161.1990  210.8460  150.4140 C   0  0  0  0  0  2  0  0  0  0  0  0
  161.0330  211.3770  151.8350 C   0  0  2  0  0  3  0  0  0  0  0  0
  160.5920  208.9820  152.6780 C   0  0  0  0  0  2  0  0  0  0  0  0
  161.5300  207.7970  152.4770 C   0  0  0  0  0  2  0  0  0  0  0  0
  160.8950  206.8020  151.6270 N   0  0  0  0  0  2  0  0  0  0  0  0
  162.3690  207.2590  148.2150 C   0  0  0  0  0  3  0  0  0  0  0  0
  161.0380  205.3010  149.7060 C   0  0  0  0  0  3  0  0  0  0  0  0
  162.0110  204.4330  145.6670 C   0  0  1  0  0  3  0  0  0  0  0  0
  162.5710  205.7400  146.2430 C   0  0  0  0  0  2  0  0  0  0  0  0
  162.0920  206.0160  147.6370 C   0  0  0  0  0  0  0  0  0  0  0  0
  161.0680  203.7130  147.7750 C   0  0  0  0  0  2  0  0  0  0  0  0
  161.4400  205.0260  148.3950 C   0  0  0  0  0  0  0  0  0  0  0  0
  161.9690  203.3640  146.6740 N   0  0  0  0  0  2  0  0  0  0  0  0
  161.3130  206.5460  150.2820 C   0  0  0  0  0  0  0  0  0  0  0  0
  161.9780  207.5250  149.5280 C   0  0  0  0  0  3  0  0  0  0  0  0
  160.6990  204.6060  144.9590 C   0  0  0  0  0  0  0  0  0  0  0  0
  160.1580  205.8770  144.8240 O   0  0  0  0  0  1  0  0  0  0  0  0
  160.1010  203.6170  144.4570 O   0  0  0  0  0  0  0  0  0  0  0  0
  1 19  1  6  0  0  0
  1 10  1  0  0  0  0
  3 14  1  0  0  0  0
  4  9  1  0  0  0  0
  5  8  1  0  0  0  0
  7  3  2  0  0  0  0
  8  6  2  0  0  0  0
  9 11  2  0  0  0  0
 10  9  1  0  0  0  0
 10  5  2  0  0  0  0
 11  6  1  0  0  0  0
 12  2  1  0  0  0  0
 13  3  1  0  0  0  0
 14 15  1  0  0  0  0
 14 12  1  0  0  0  0
 15 17  1  0  0  0  0
 16  2  1  6  0  0  0
 16  4  1  0  0  0  0
 18 17  1  6  0  0  0
 18 16  1  0  0  0  0
 18  1  1  0  0  0  0
 20 19  1  0  0  0  0
 21 20  1  0  0  0  0
 22 31  1  0  0  0  0
 23 30  1  0  0  0  0
 24 32  1  1  0  0  0
 24 25  1  0  0  0  0
 24 29  1  0  0  0  0
 25 26  1  0  0  0  0
 26 22  2  0  0  0  0
 26 28  1  0  0  0  0
 27 28  1  0  0  0  0
 28 23  2  0  0  0  0
 29 27  1  0  0  0  0
 30 21  1  0  0  0  0
 31 30  2  0  0  0  0
 33 32  1  0  0  0  0
 34 32  2  0  0  0  0
M  END
>  <MODEL>
4

>  <REMARK>
 VINA RESULT:      -8.0      2.669      7.053
  Name = 
  5 active torsions:
  status: ('A' for Active; 'I' for Inactive)
    1  A    between atoms: C_1  and  C_9
    2  A    between atoms: CA_7  and  C_11
    3  A    between atoms: C_8  and  C_9
    4  A    between atoms: C_8  and  N_18
    5  A    between atoms: N_18  and  C_30
                            x       y       z     vdW  Elec       q    Type
                         _______ _______ _______ _____ _____    ______ ____

>  <TORSDO>
F 5

$$$$
=
 OpenBabel11062409313D

 34 38  0  0  1  0  0  0  0  0999 V2000
  161.6700  206.4550  150.0250 C   0  0  2  0  0  3  0  0  0  0  0  0
  160.4480  205.9880  146.3080 C   0  0  0  0  0  2  0  0  0  0  0  0
  160.8550  202.8080  145.6270 C   0  0  0  0  0  0  0  0  0  0  0  0
  161.0620  207.9340  147.6240 O   0  0  0  0  0  0  0  0  0  0  0  0
  162.4460  208.6430  150.9990 C   0  0  0  0  0  3  0  0  0  0  0  0
  162.3380  210.7000  149.7230 C   0  0  0  0  0  3  0  0  0  0  0  0
  160.7380  201.5400  146.1860 O   0  0  0  0  0  1  0  0  0  0  0  0
  162.6590  210.0210  150.9020 C   0  0  0  0  0  3  0  0  0  0  0  0
  161.5810  208.6260  148.7260 C   0  0  0  0  0  0  0  0  0  0  0  0
  161.9110  207.9380  149.9140 C   0  0  0  0  0  0  0  0  0  0  0  0
  161.8030  210.0030  148.6360 C   0  0  0  0  0  3  0  0  0  0  0  0
  161.6320  205.1920  145.7770 C   0  0  0  0  0  2  0  0  0  0  0  0
  160.3200  203.0420  144.5110 O   0  0  0  0  0  0  0  0  0  0  0  0
  161.5810  203.8360  146.3130 N   0  0  0  0  0  0  0  0  0  0  0  0
  162.1440  203.5700  147.6320 C   0  0  0  0  0  2  0  0  0  0  0  0
  160.6640  206.5650  147.7110 C   0  0  2  0  0  3  0  0  0  0  0  0
  161.3510  204.2950  148.7100 C   0  0  0  0  0  2  0  0  0  0  0  0
  161.6270  205.7940  148.6360 C   0  0  2  0  0  3  0  0  0  0  0  0
  160.4560  206.1230  150.9080 C   0  0  0  0  0  2  0  0  0  0  0  0
  160.8090  205.2510  152.1080 C   0  0  0  0  0  2  0  0  0  0  0  0
  161.6340  206.0030  153.0400 N   0  0  0  0  0  2  0  0  0  0  0  0
  159.9320  207.5370  156.0020 C   0  0  0  0  0  3  0  0  0  0  0  0
  161.2060  208.3300  153.6410 C   0  0  0  0  0  3  0  0  0  0  0  0
  159.4960  211.3320  156.1070 C   0  0  1  0  0  3  0  0  0  0  0  0
  159.5120  209.9060  156.6720 C   0  0  0  0  0  2  0  0  0  0  0  0
  160.0370  208.8960  155.6940 C   0  0  0  0  0  0  0  0  0  0  0  0
  160.7550  210.7410  154.1270 C   0  0  0  0  0  2  0  0  0  0  0  0
  160.6950  209.2950  154.5150 C   0  0  0  0  0  0  0  0  0  0  0  0
  160.6920  211.6160  155.3010 N   0  0  0  0  0  2  0  0  0  0  0  0
  161.0990  206.9700  153.9490 C   0  0  0  0  0  0  0  0  0  0  0  0
  160.4560  206.5780  155.1330 C   0  0  0  0  0  3  0  0  0  0  0  0
  158.2250  211.6770  155.3880 C   0  0  0  0  0  0  0  0  0  0  0  0
  158.1340  212.8760  154.6960 O   0  0  0  0  0  0  0  0  0  0  0  0
  157.2520  210.8760  155.3770 O   0  0  0  0  0  1  0  0  0  0  0  0
  1 19  1  6  0  0  0
  3  7  1  0  0  0  0
  3 14  1  0  0  0  0
  4 16  1  0  0  0  0
  4  9  1  0  0  0  0
  6  8  2  0  0  0  0
  8  5  1  0  0  0  0
  9 10  1  0  0  0  0
 10  1  1  0  0  0  0
 10  5  2  0  0  0  0
 11  9  2  0  0  0  0
 11  6  1  0  0  0  0
 12  2  1  0  0  0  0
 12 14  1  0  0  0  0
 13  3  2  0  0  0  0
 14 15  1  0  0  0  0
 15 17  1  0  0  0  0
 16  2  1  6  0  0  0
 16 18  1  0  0  0  0
 18 17  1  1  0  0  0
 18  1  1  0  0  0  0
 19 20  1  0  0  0  0
 20 21  1  0  0  0  0
 21 30  1  0  0  0  0
 23 30  2  0  0  0  0
 23 28  1  0  0  0  0
 24 32  1  6  0  0  0
 24 25  1  0  0  0  0
 26 22  1  0  0  0  0
 26 25  1  0  0  0  0
 27 28  1  0  0  0  0
 27 29  1  0  0  0  0
 28 26  2  0  0  0  0
 29 24  1  0  0  0  0
 30 31  1  0  0  0  0
 31 22  2  0  0  0  0
 33 32  2  0  0  0  0
 34 32  1  0  0  0  0
M  END
>  <MODEL>
5

>  <REMARK>
 VINA RESULT:      -8.0      3.792      7.201
  Name = 
  5 active torsions:
  status: ('A' for Active; 'I' for Inactive)
    1  A    between atoms: C_1  and  C_9
    2  A    between atoms: CA_7  and  C_11
    3  A    between atoms: C_8  and  C_9
    4  A    between atoms: C_8  and  N_18
    5  A    between atoms: N_18  and  C_30
                            x       y       z     vdW  Elec       q    Type
                         _______ _______ _______ _____ _____    ______ ____

>  <TORSDO>
F 5

$$$$
=
 OpenBabel11062409313D

 34 38  0  0  1  0  0  0  0  0999 V2000
  161.2470  207.2590  151.2520 C   0  0  2  0  0  3  0  0  0  0  0  0
  161.5330  203.3550  151.7100 C   0  0  0  0  0  2  0  0  0  0  0  0
  161.0070  202.0670  148.7430 C   0  0  0  0  0  0  0  0  0  0  0  0
  161.2360  205.1940  153.2670 O   0  0  0  0  0  0  0  0  0  0  0  0
  160.7070  208.8690  153.1110 C   0  0  0  0  0  3  0  0  0  0  0  0
  160.4790  208.1190  155.4020 C   0  0  0  0  0  3  0  0  0  0  0  0
  161.2710  202.2720  147.3930 O   0  0  0  0  0  0  0  0  0  0  0  0
  160.4620  209.1480  154.4580 C   0  0  0  0  0  3  0  0  0  0  0  0
  160.9930  206.5170  153.6590 C   0  0  0  0  0  0  0  0  0  0  0  0
  160.9700  207.5560  152.7030 C   0  0  0  0  0  0  0  0  0  0  0  0
  160.7410  206.8050  155.0040 C   0  0  0  0  0  3  0  0  0  0  0  0
  160.2640  202.9460  150.9750 C   0  0  0  0  0  2  0  0  0  0  0  0
  161.2520  200.9430  149.2550 O   0  0  0  0  0  1  0  0  0  0  0  0
  160.4580  203.1240  149.5400 N   0  0  0  0  0  0  0  0  0  0  0  0
  160.2370  204.4390  148.9490 C   0  0  0  0  0  2  0  0  0  0  0  0
  161.6580  204.8650  151.9430 C   0  0  2  0  0  3  0  0  0  0  0  0
  161.2600  205.4400  149.4670 C   0  0  0  0  0  2  0  0  0  0  0  0
  160.9580  205.7830  150.9230 C   0  0  2  0  0  3  0  0  0  0  0  0
  162.6420  207.7300  150.8130 C   0  0  0  0  0  2  0  0  0  0  0  0
  162.5990  208.8510  149.7810 C   0  0  0  0  0  2  0  0  0  0  0  0
  162.3460  210.1230  150.4410 N   0  0  0  0  0  2  0  0  0  0  0  0
  160.1280  213.0920  149.9100 C   0  0  0  0  0  3  0  0  0  0  0  0
  161.8020  211.4050  148.4360 C   0  0  0  0  0  3  0  0  0  0  0  0
  159.6560  214.4200  146.3580 C   0  0  1  0  0  3  0  0  0  0  0  0
  159.5790  214.4530  147.8890 C   0  0  0  0  0  2  0  0  0  0  0  0
  160.2780  213.2930  148.5350 C   0  0  0  0  0  0  0  0  0  0  0  0
  161.2560  212.6050  146.3120 C   0  0  0  0  0  2  0  0  0  0  0  0
  161.1360  212.4550  147.7980 C   0  0  0  0  0  0  0  0  0  0  0  0
  160.9760  213.9790  145.8860 N   0  0  0  0  0  2  0  0  0  0  0  0
  161.6500  211.2030  149.8120 C   0  0  0  0  0  0  0  0  0  0  0  0
  160.8060  212.0500  150.5450 C   0  0  0  0  0  3  0  0  0  0  0  0
  158.5340  213.6560  145.7190 C   0  0  0  0  0  0  0  0  0  0  0  0
  158.4970  213.5230  144.3380 O   0  0  0  0  0  0  0  0  0  0  0  0
  157.6450  213.1070  146.4220 O   0  0  0  0  0  1  0  0  0  0  0  0
  1 19  1  1  0  0  0
  1 10  1  0  0  0  0
  3 13  1  0  0  0  0
  3 14  1  0  0  0  0
  4  9  1  0  0  0  0
  5  8  1  0  0  0  0
  7  3  2  0  0  0  0
  8  6  2  0  0  0  0
  9 11  2  0  0  0  0
 10  5  2  0  0  0  0
 10  9  1  0  0  0  0
 11  6  1  0  0  0  0
 12  2  1  0  0  0  0
 14 12  1  0  0  0  0
 15 17  1  0  0  0  0
 15 14  1  0  0  0  0
 16  2  1  6  0  0  0
 16  4  1  0  0  0  0
 18 17  1  6  0  0  0
 18  1  1  0  0  0  0
 18 16  1  0  0  0  0
 20 21  1  0  0  0  0
 20 19  1  0  0  0  0
 22 31  1  0  0  0  0
 23 30  1  0  0  0  0
 24 32  1  1  0  0  0
 24 25  1  0  0  0  0
 25 26  1  0  0  0  0
 26 22  2  0  0  0  0
 27 28  1  0  0  0  0
 28 23  2  0  0  0  0
 28 26  1  0  0  0  0
 29 27  1  0  0  0  0
 29 24  1  0  0  0  0
 30 21  1  0  0  0  0
 30 31  2  0  0  0  0
 32 34  1  0  0  0  0
 33 32  2  0  0  0  0
M  END
>  <MODEL>
6

>  <REMARK>
 VINA RESULT:      -7.5      1.283      1.644
  Name = 
  5 active torsions:
  status: ('A' for Active; 'I' for Inactive)
    1  A    between atoms: C_1  and  C_9
    2  A    between atoms: CA_7  and  C_11
    3  A    between atoms: C_8  and  C_9
    4  A    between atoms: C_8  and  N_18
    5  A    between atoms: N_18  and  C_30
                            x       y       z     vdW  Elec       q    Type
                         _______ _______ _______ _____ _____    ______ ____

>  <TORSDO>
F 5

$$$$
=
 OpenBabel11062409313D

 34 38  0  0  1  0  0  0  0  0999 V2000
  160.8780  208.3350  152.2460 C   0  0  2  0  0  3  0  0  0  0  0  0
  161.9540  204.6390  151.4030 C   0  0  0  0  0  2  0  0  0  0  0  0
  161.3820  204.2510  148.1990 C   0  0  0  0  0  0  0  0  0  0  0  0
  161.4720  205.7960  153.4820 O   0  0  0  0  0  0  0  0  0  0  0  0
  160.2330  209.1340  154.5450 C   0  0  0  0  0  3  0  0  0  0  0  0
  160.3920  207.6810  156.4760 C   0  0  0  0  0  3  0  0  0  0  0  0
  161.4600  204.9160  146.9800 O   0  0  0  0  0  0  0  0  0  0  0  0
  160.0800  208.9230  155.9180 C   0  0  0  0  0  3  0  0  0  0  0  0
  161.0210  206.8480  154.2900 C   0  0  0  0  0  0  0  0  0  0  0  0
  160.7000  208.1010  153.7240 C   0  0  0  0  0  0  0  0  0  0  0  0
  160.8590  206.6440  155.6630 C   0  0  0  0  0  3  0  0  0  0  0  0
  160.7180  204.2140  150.6210 C   0  0  0  0  0  2  0  0  0  0  0  0
  161.8900  203.1040  148.3090 O   0  0  0  0  0  1  0  0  0  0  0  0
  160.7260  204.8660  149.3150 N   0  0  0  0  0  0  0  0  0  0  0  0
  160.1960  206.2180  149.1920 C   0  0  0  0  0  2  0  0  0  0  0  0
  161.8110  205.9920  152.1080 C   0  0  2  0  0  3  0  0  0  0  0  0
  161.0550  207.2050  149.9680 C   0  0  0  0  0  2  0  0  0  0  0  0
  160.8450  207.0080  151.4670 C   0  0  2  0  0  3  0  0  0  0  0  0
  162.1040  209.2080  151.9340 C   0  0  0  0  0  2  0  0  0  0  0  0
  161.8570  210.6930  152.1680 C   0  0  0  0  0  2  0  0  0  0  0  0
  160.6040  211.0920  151.5440 N   0  0  0  0  0  2  0  0  0  0  0  0
  158.8100  214.1350  152.7860 C   0  0  0  0  0  3  0  0  0  0  0  0
  158.5920  211.3490  152.9030 C   0  0  0  0  0  3  0  0  0  0  0  0
  155.7740  213.6760  155.0620 C   0  0  1  0  0  3  0  0  0  0  0  0
  156.7330  214.4390  154.1390 C   0  0  0  0  0  2  0  0  0  0  0  0
  157.7590  213.5520  153.4990 C   0  0  0  0  0  0  0  0  0  0  0  0
  156.5650  211.5000  154.3590 C   0  0  0  0  0  2  0  0  0  0  0  0
  157.6400  212.1500  153.5410 C   0  0  0  0  0  0  0  0  0  0  0  0
  155.3960  212.3720  154.5000 N   0  0  0  0  0  2  0  0  0  0  0  0
  159.6450  211.9340  152.1920 C   0  0  0  0  0  0  0  0  0  0  0  0
  159.7510  213.3310  152.1390 C   0  0  0  0  0  3  0  0  0  0  0  0
  156.2630  213.5710  156.4770 C   0  0  0  0  0  0  0  0  0  0  0  0
  155.8620  212.4990  157.2610 O   0  0  0  0  0  1  0  0  0  0  0  0
  157.0580  214.4260  156.9500 O   0  0  0  0  0  0  0  0  0  0  0  0
  1 19  1  1  0  0  0
  1 10  1  0  0  0  0
  3 13  1  0  0  0  0
  3 14  1  0  0  0  0
  4  9  1  0  0  0  0
  5  8  1  0  0  0  0
  7  3  2  0  0  0  0
  8  6  2  0  0  0  0
  9 11  2  0  0  0  0
 10  9  1  0  0  0  0
 10  5  2  0  0  0  0
 11  6  1  0  0  0  0
 12  2  1  0  0  0  0
 14 12  1  0  0  0  0
 15 14  1  0  0  0  0
 15 17  1  0  0  0  0
 16  2  1  6  0  0  0
 16  4  1  0  0  0  0
 18 17  1  6  0  0  0
 18 16  1  0  0  0  0
 18  1  1  0  0  0  0
 19 20  1  0  0  0  0
 21 20  1  0  0  0  0
 21 30  1  0  0  0  0
 22 26  1  0  0  0  0
 23 28  1  0  0  0  0
 24 32  1  1  0  0  0
 25 24  1  0  0  0  0
 26 28  2  0  0  0  0
 26 25  1  0  0  0  0
 27 29  1  0  0  0  0
 28 27  1  0  0  0  0
 29 24  1  0  0  0  0
 30 23  2  0  0  0  0
 31 30  1  0  0  0  0
 31 22  2  0  0  0  0
 32 34  2  0  0  0  0
 32 33  1  0  0  0  0
M  END
>  <MODEL>
7

>  <REMARK>
 VINA RESULT:      -7.3      4.019      5.981
  Name = 
  5 active torsions:
  status: ('A' for Active; 'I' for Inactive)
    1  A    between atoms: C_1  and  C_9
    2  A    between atoms: CA_7  and  C_11
    3  A    between atoms: C_8  and  C_9
    4  A    between atoms: C_8  and  N_18
    5  A    between atoms: N_18  and  C_30
                            x       y       z     vdW  Elec       q    Type
                         _______ _______ _______ _____ _____    ______ ____

>  <TORSDO>
F 5

$$$$
=
 OpenBabel11062409313D

 34 38  0  0  1  0  0  0  0  0999 V2000
  160.6360  211.4460  152.6600 C   0  0  2  0  0  3  0  0  0  0  0  0
  157.8350  213.3270  150.6220 C   0  0  0  0  0  2  0  0  0  0  0  0
  159.1020  213.8600  147.6470 C   0  0  0  0  0  0  0  0  0  0  0  0
  158.1770  212.9190  152.9920 O   0  0  0  0  0  0  0  0  0  0  0  0
  160.7840  211.4180  155.1730 C   0  0  0  0  0  3  0  0  0  0  0  0
  159.0730  212.4410  156.5490 C   0  0  0  0  0  3  0  0  0  0  0  0
  159.8980  213.2730  146.6690 O   0  0  0  0  0  0  0  0  0  0  0  0
  160.2750  211.7370  156.4350 C   0  0  0  0  0  3  0  0  0  0  0  0
  158.8750  212.5090  154.1350 C   0  0  0  0  0  0  0  0  0  0  0  0
  160.0920  211.8030  154.0190 C   0  0  0  0  0  0  0  0  0  0  0  0
  158.3750  212.8290  155.4010 C   0  0  0  0  0  3  0  0  0  0  0  0
  158.6860  214.4530  150.0520 C   0  0  0  0  0  2  0  0  0  0  0  0
  157.9830  214.3400  147.3240 O   0  0  0  0  0  1  0  0  0  0  0  0
  159.5530  213.9210  149.0050 N   0  0  0  0  0  0  0  0  0  0  0  0
  160.8230  213.3070  149.3770 C   0  0  0  0  0  2  0  0  0  0  0  0
  158.5500  212.4830  151.6840 C   0  0  2  0  0  3  0  0  0  0  0  0
  160.5910  212.0360  150.1810 C   0  0  0  0  0  2  0  0  0  0  0  0
  160.0850  212.3900  151.5760 C   0  0  2  0  0  3  0  0  0  0  0  0
  160.4600  209.9550  152.3310 C   0  0  0  0  0  2  0  0  0  0  0  0
  161.7760  209.1870  152.3130 C   0  0  0  0  0  2  0  0  0  0  0  0
  161.5220  207.7650  152.4850 N   0  0  0  0  0  2  0  0  0  0  0  0
  161.2610  204.6020  150.4980 C   0  0  0  0  0  3  0  0  0  0  0  0
  161.2840  207.3680  150.0870 C   0  0  0  0  0  3  0  0  0  0  0  0
  161.0960  204.8360  146.6870 C   0  0  1  0  0  3  0  0  0  0  0  0
  160.9750  204.1560  148.0570 C   0  0  0  0  0  2  0  0  0  0  0  0
  161.1570  205.1110  149.2000 C   0  0  0  0  0  0  0  0  0  0  0  0
  161.1130  207.0710  147.6110 C   0  0  0  0  0  2  0  0  0  0  0  0
  161.1500  206.5030  148.9970 C   0  0  0  0  0  0  0  0  0  0  0  0
  160.4560  206.1570  146.6720 N   0  0  0  0  0  2  0  0  0  0  0  0
  161.3900  206.8580  151.3850 C   0  0  0  0  0  0  0  0  0  0  0  0
  161.3810  205.4700  151.5850 C   0  0  0  0  0  3  0  0  0  0  0  0
  162.5010  204.8720  146.1600 C   0  0  0  0  0  0  0  0  0  0  0  0
  163.5640  204.7220  147.0390 O   0  0  0  0  0  1  0  0  0  0  0  0
  162.7250  205.0050  144.9280 O   0  0  0  0  0  0  0  0  0  0  0  0
  1 19  1  6  0  0  0
  1 10  1  0  0  0  0
  3 14  1  0  0  0  0
  4  9  1  0  0  0  0
  5  8  1  0  0  0  0
  7  3  2  0  0  0  0
  8  6  2  0  0  0  0
  9 11  2  0  0  0  0
 10  9  1  0  0  0  0
 10  5  2  0  0  0  0
 11  6  1  0  0  0  0
 12  2  1  0  0  0  0
 13  3  1  0  0  0  0
 14 15  1  0  0  0  0
 14 12  1  0  0  0  0
 15 17  1  0  0  0  0
 16  2  1  6  0  0  0
 16  4  1  0  0  0  0
 18 17  1  6  0  0  0
 18 16  1  0  0  0  0
 18  1  1  0  0  0  0
 20 19  1  0  0  0  0
 20 21  1  0  0  0  0
 22 31  1  0  0  0  0
 23 30  1  0  0  0  0
 24 32  1  1  0  0  0
 24 25  1  0  0  0  0
 25 26  1  0  0  0  0
 26 22  2  0  0  0  0
 27 28  1  0  0  0  0
 28 26  1  0  0  0  0
 28 23  2  0  0  0  0
 29 24  1  0  0  0  0
 29 27  1  0  0  0  0
 30 31  2  0  0  0  0
 30 21  1  0  0  0  0
 32 33  1  0  0  0  0
 34 32  2  0  0  0  0
M  END
>  <MODEL>
8

>  <REMARK>
 VINA RESULT:      -7.3      2.713      7.416
  Name = 
  5 active torsions:
  status: ('A' for Active; 'I' for Inactive)
    1  A    between atoms: C_1  and  C_9
    2  A    between atoms: CA_7  and  C_11
    3  A    between atoms: C_8  and  C_9
    4  A    between atoms: C_8  and  N_18
    5  A    between atoms: N_18  and  C_30
                            x       y       z     vdW  Elec       q    Type
                         _______ _______ _______ _____ _____    ______ ____

>  <TORSDO>
F 5

$$$$
=
 OpenBabel11062409313D

 34 38  0  0  1  0  0  0  0  0999 V2000
  161.2300  207.3490  150.0550 C   0  0  2  0  0  3  0  0  0  0  0  0
  161.9560  204.0510  148.0240 C   0  0  0  0  0  2  0  0  0  0  0  0
  161.2240  204.7430  144.9050 C   0  0  0  0  0  0  0  0  0  0  0  0
  161.6570  204.5150  150.3890 O   0  0  0  0  0  0  0  0  0  0  0  0
  160.7480  207.4160  152.5250 C   0  0  0  0  0  3  0  0  0  0  0  0
  160.8610  205.4160  153.8870 C   0  0  0  0  0  3  0  0  0  0  0  0
  161.3100  205.7550  143.9540 O   0  0  0  0  0  0  0  0  0  0  0  0
  160.6330  206.7890  153.7690 C   0  0  0  0  0  3  0  0  0  0  0  0
  161.3300  205.2830  151.5140 C   0  0  0  0  0  0  0  0  0  0  0  0
  161.0930  206.6690  151.3930 C   0  0  0  0  0  0  0  0  0  0  0  0
  161.2070  204.6630  152.7610 C   0  0  0  0  0  3  0  0  0  0  0  0
  160.6580  203.9810  147.2300 C   0  0  0  0  0  2  0  0  0  0  0  0
  161.6380  203.5900  144.6160 O   0  0  0  0  0  1  0  0  0  0  0  0
  160.6680  205.0130  146.1980 N   0  0  0  0  0  0  0  0  0  0  0  0
  160.2500  206.3670  146.5410 C   0  0  0  0  0  2  0  0  0  0  0  0
  161.9560  205.1150  149.1270 C   0  0  2  0  0  3  0  0  0  0  0  0
  161.2200  206.9950  147.5310 C   0  0  0  0  0  2  0  0  0  0  0  0
  161.0540  206.3450  148.9020 C   0  0  2  0  0  3  0  0  0  0  0  0
  162.5120  208.1910  149.9540 C   0  0  0  0  0  2  0  0  0  0  0  0
  162.2860  209.6650  150.2710 C   0  0  0  0  0  2  0  0  0  0  0  0
  162.7010  209.9480  151.6360 N   0  0  0  0  0  2  0  0  0  0  0  0
  161.1980  210.9320  154.9210 C   0  0  0  0  0  3  0  0  0  0  0  0
  160.7080  211.2460  152.1850 C   0  0  0  0  0  3  0  0  0  0  0  0
  157.8930  212.8510  154.9270 C   0  0  1  0  0  3  0  0  0  0  0  0
  159.1900  212.2900  155.5230 C   0  0  0  0  0  2  0  0  0  0  0  0
  160.0770  211.6500  154.4960 C   0  0  0  0  0  0  0  0  0  0  0  0
  158.6080  212.5260  152.6390 C   0  0  0  0  0  2  0  0  0  0  0  0
  159.8420  211.8240  153.1190 C   0  0  0  0  0  0  0  0  0  0  0  0
  158.1220  213.4940  153.6260 N   0  0  0  0  0  2  0  0  0  0  0  0
  161.8280  210.5260  152.6120 C   0  0  0  0  0  0  0  0  0  0  0  0
  162.0680  210.3690  153.9850 C   0  0  0  0  0  3  0  0  0  0  0  0
  156.7740  211.8530  154.8850 C   0  0  0  0  0  0  0  0  0  0  0  0
  155.5810  212.1890  154.2610 O   0  0  0  0  0  0  0  0  0  0  0  0
  156.9150  210.7030  155.3800 O   0  0  0  0  0  1  0  0  0  0  0  0
  1 19  1  1  0  0  0
  1 10  1  0  0  0  0
  3 14  1  0  0  0  0
  4  9  1  0  0  0  0
  5  8  1  0  0  0  0
  7  3  2  0  0  0  0
  8  6  2  0  0  0  0
  9 11  2  0  0  0  0
 10  9  1  0  0  0  0
 10  5  2  0  0  0  0
 11  6  1  0  0  0  0
 12  2  1  0  0  0  0
 13  3  1  0  0  0  0
 14 15  1  0  0  0  0
 14 12  1  0  0  0  0
 15 17  1  0  0  0  0
 16  2  1  6  0  0  0
 16  4  1  0  0  0  0
 18 17  1  6  0  0  0
 18 16  1  0  0  0  0
 18  1  1  0  0  0  0
 19 20  1  0  0  0  0
 20 21  1  0  0  0  0
 21 30  1  0  0  0  0
 23 30  2  0  0  0  0
 23 28  1  0  0  0  0
 24 32  1  6  0  0  0
 24 25  1  0  0  0  0
 26 22  1  0  0  0  0
 26 25  1  0  0  0  0
 27 28  1  0  0  0  0
 27 29  1  0  0  0  0
 28 26  2  0  0  0  0
 29 24  1  0  0  0  0
 30 31  1  0  0  0  0
 31 22  2  0  0  0  0
 32 34  1  0  0  0  0
 33 32  2  0  0  0  0
M  END
>  <MODEL>
9

>  <REMARK>
 VINA RESULT:      -7.1      3.943      5.837
  Name = 
  5 active torsions:
  status: ('A' for Active; 'I' for Inactive)
    1  A    between atoms: C_1  and  C_9
    2  A    between atoms: CA_7  and  C_11
    3  A    between atoms: C_8  and  C_9
    4  A    between atoms: C_8  and  N_18
    5  A    between atoms: N_18  and  C_30
                            x       y       z     vdW  Elec       q    Type
                         _______ _______ _______ _____ _____    ______ ____

>  <TORSDO>
F 5

$$$$
