=
 OpenBabel11062409383D

 34 39  0  0  0  0  0  0  0  0999 V2000
  160.7720  209.5140  152.8530 C   0  0  0  0  0  0  0  0  0  0  0  0
  160.4310  212.8390  151.1300 C   0  0  0  0  0  3  0  0  0  0  0  0
  159.6160  212.2130  153.4780 S   0  0  0  0  0  0  0  0  0  0  0  0
  161.1320  207.2340  153.7390 C   0  0  0  0  0  0  0  0  0  0  0  0
  161.2650  208.1930  152.7050 C   0  0  0  0  0  3  0  0  0  0  0  0
  160.0110  208.8670  155.0810 C   0  0  0  0  0  0  0  0  0  0  0  0
  159.3500  209.5010  156.1200 C   0  0  0  0  0  3  0  0  0  0  0  0
  160.4900  207.5680  154.9490 C   0  0  0  0  0  3  0  0  0  0  0  0
  159.6090  210.8850  154.4940 C   0  0  0  0  0  0  0  0  0  0  0  0
  160.1500  209.7780  154.0850 C   0  0  0  0  0  0  0  0  0  0  0  0
  159.0970  210.7840  155.7400 N   0  0  0  0  0  0  0  0  0  0  0  0
  160.9840  212.9440  149.7770 C   0  0  0  0  0  3  0  0  0  0  0  0
  161.6040  212.0330  149.0330 C   0  0  0  0  0  0  0  0  0  0  0  0
  161.8700  210.6550  149.4540 C   0  0  0  0  0  3  0  0  0  0  0  0
  160.3840  211.8300  152.0000 C   0  0  0  0  0  0  0  0  0  0  0  0
  161.5780  210.0380  150.5930 C   0  0  0  0  0  3  0  0  0  0  0  0
  160.8950  210.5040  151.8200 C   0  0  0  0  0  0  0  0  0  0  0  0
  162.0600  212.4300  147.6840 C   0  0  0  0  0  0  0  0  0  0  0  0
  163.2870  212.5760  147.4380 O   0  0  0  0  0  0  0  0  0  0  0  0
  161.1140  212.6550  146.6410 N   0  0  0  0  0  1  0  0  0  0  0  0
  161.6390  205.8470  153.5310 C   0  0  0  0  0  2  0  0  0  0  0  0
  160.9900  203.7220  150.4590 C   0  0  0  0  0  3  0  0  0  0  0  0
  161.7250  206.3570  151.0810 C   0  0  0  0  0  3  0  0  0  0  0  0
  161.3490  205.1670  147.0650 C   0  0  0  0  0  0  0  0  0  0  0  0
  161.1060  204.2480  148.0960 C   0  0  0  0  0  3  0  0  0  0  0  0
  161.2300  204.6380  149.4320 C   0  0  0  0  0  0  0  0  0  0  0  0
  161.8440  206.8810  148.7180 C   0  0  0  0  0  3  0  0  0  0  0  0
  161.6010  205.9660  149.7450 C   0  0  0  0  0  0  0  0  0  0  0  0
  161.7170  206.4820  147.3840 C   0  0  0  0  0  3  0  0  0  0  0  0
  161.4800  205.4360  152.1050 C   0  0  0  0  0  0  0  0  0  0  0  0
  161.1170  204.1200  151.7940 C   0  0  0  0  0  3  0  0  0  0  0  0
  161.2160  204.7480  145.6600 C   0  0  0  0  0  0  0  0  0  0  0  0
  161.3140  203.5320  145.3450 O   0  0  0  0  0  1  0  0  0  0  0  0
  160.9810  205.6910  144.6670 O   0  0  0  0  0  0  0  0  0  0  0  0
  1 10  1  0  0  0  0
  2 15  2  0  0  0  0
  3  9  1  0  0  0  0
  4  8  1  0  0  0  0
  5  1  1  0  0  0  0
  5  4  2  0  0  0  0
  6  7  1  0  0  0  0
  8  6  2  0  0  0  0
  9 11  1  0  0  0  0
 10  9  2  0  0  0  0
 10  6  1  0  0  0  0
 11  7  2  0  0  0  0
 12  2  1  0  0  0  0
 13 14  1  0  0  0  0
 13 12  2  0  0  0  0
 14 16  2  0  0  0  0
 15  3  1  0  0  0  0
 16 17  1  0  0  0  0
 17 15  1  0  0  0  0
 17  1  2  0  0  0  0
 18 13  1  0  0  0  0
 19 18  2  0  0  0  0
 20 18  1  0  0  0  0
 21  4  1  0  0  0  0
 22 31  1  0  0  0  0
 23 30  1  0  0  0  0
 24 29  1  0  0  0  0
 24 25  2  0  0  0  0
 25 26  1  0  0  0  0
 26 28  1  0  0  0  0
 26 22  2  0  0  0  0
 27 28  1  0  0  0  0
 28 23  2  0  0  0  0
 29 27  2  0  0  0  0
 30 21  1  0  0  0  0
 31 30  2  0  0  0  0
 32 24  1  0  0  0  0
 33 32  1  0  0  0  0
 34 32  2  0  0  0  0
M  END
>  <MODEL>
1

>  <REMARK>
 VINA RESULT:     -10.6      0.000      0.000
  Name = 
  4 active torsions:
  status: ('A' for Active; 'I' for Inactive)
    1  A    between atoms: C_3  and  C_25
    2  A    between atoms: C_7  and  C_11
    3  A    between atoms: C_8  and  C_18
    4  A    between atoms: C_18  and  C_30
                            x       y       z     vdW  Elec       q    Type
                         _______ _______ _______ _____ _____    ______ ____

>  <TORSDO>
F 4

$$$$
=
 OpenBabel11062409383D

 34 39  0  0  0  0  0  0  0  0999 V2000
  160.2630  210.6080  153.0240 C   0  0  0  0  0  0  0  0  0  0  0  0
  160.0350  213.4700  150.5960 C   0  0  0  0  0  3  0  0  0  0  0  0
  158.8480  213.2510  152.8570 S   0  0  0  0  0  0  0  0  0  0  0  0
  160.5970  208.5990  154.4250 C   0  0  0  0  0  0  0  0  0  0  0  0
  160.8560  209.3400  153.2460 C   0  0  0  0  0  3  0  0  0  0  0  0
  159.1530  210.3500  155.1840 C   0  0  0  0  0  0  0  0  0  0  0  0
  158.2780  211.1110  155.9390 C   0  0  0  0  0  3  0  0  0  0  0  0
  159.7280  209.1040  155.4140 C   0  0  0  0  0  3  0  0  0  0  0  0
  158.7410  212.1600  154.1190 C   0  0  0  0  0  0  0  0  0  0  0  0
  159.4140  211.0520  154.0510 C   0  0  0  0  0  0  0  0  0  0  0  0
  158.0190  212.2610  155.2570 N   0  0  0  0  0  0  0  0  0  0  0  0
  160.8150  213.3550  149.3610 C   0  0  0  0  0  3  0  0  0  0  0  0
  161.6150  212.3790  148.9410 C   0  0  0  0  0  0  0  0  0  0  0  0
  161.8850  211.1460  149.6860 C   0  0  0  0  0  3  0  0  0  0  0  0
  159.8930  212.6570  151.6420 C   0  0  0  0  0  0  0  0  0  0  0  0
  161.4310  210.7450  150.8680 C   0  0  0  0  0  3  0  0  0  0  0  0
  160.5090  211.3780  151.8370 C   0  0  0  0  0  0  0  0  0  0  0  0
  162.2810  212.5400  147.6320 C   0  0  0  0  0  0  0  0  0  0  0  0
  163.5030  212.2600  147.4940 O   0  0  0  0  0  0  0  0  0  0  0  0
  161.5510  213.0180  146.5050 N   0  0  0  0  0  1  0  0  0  0  0  0
  161.2190  207.2550  154.6060 C   0  0  0  0  0  2  0  0  0  0  0  0
  161.1870  204.3640  152.1540 C   0  0  0  0  0  3  0  0  0  0  0  0
  161.2280  207.1690  152.1040 C   0  0  0  0  0  3  0  0  0  0  0  0
  161.2480  204.9980  148.5020 C   0  0  0  0  0  0  0  0  0  0  0  0
  161.2190  204.3220  149.7310 C   0  0  0  0  0  3  0  0  0  0  0  0
  161.2130  205.0380  150.9300 C   0  0  0  0  0  0  0  0  0  0  0  0
  161.2630  207.1250  149.6810 C   0  0  0  0  0  3  0  0  0  0  0  0
  161.2340  206.4520  150.9040 C   0  0  0  0  0  0  0  0  0  0  0  0
  161.2690  206.4000  148.4860 C   0  0  0  0  0  3  0  0  0  0  0  0
  161.1980  206.4890  153.3260 C   0  0  0  0  0  0  0  0  0  0  0  0
  161.1820  205.0890  153.3500 C   0  0  0  0  0  3  0  0  0  0  0  0
  161.2540  204.2350  147.2430 C   0  0  0  0  0  0  0  0  0  0  0  0
  161.2390  202.9760  147.2600 O   0  0  0  0  0  1  0  0  0  0  0  0
  161.2770  204.8990  146.0220 O   0  0  0  0  0  0  0  0  0  0  0  0
  1  5  1  0  0  0  0
  1 10  1  0  0  0  0
  2 15  2  0  0  0  0
  3  9  1  0  0  0  0
  4 21  1  0  0  0  0
  4  8  1  0  0  0  0
  5  4  2  0  0  0  0
  6  8  2  0  0  0  0
  6  7  1  0  0  0  0
  9 11  1  0  0  0  0
 10  9  2  0  0  0  0
 10  6  1  0  0  0  0
 11  7  2  0  0  0  0
 12  2  1  0  0  0  0
 13 12  2  0  0  0  0
 13 14  1  0  0  0  0
 14 16  2  0  0  0  0
 15 17  1  0  0  0  0
 15  3  1  0  0  0  0
 16 17  1  0  0  0  0
 17  1  2  0  0  0  0
 18 13  1  0  0  0  0
 19 18  2  0  0  0  0
 20 18  1  0  0  0  0
 22 31  1  0  0  0  0
 23 30  1  0  0  0  0
 24 25  2  0  0  0  0
 25 26  1  0  0  0  0
 26 22  2  0  0  0  0
 27 28  1  0  0  0  0
 28 26  1  0  0  0  0
 28 23  2  0  0  0  0
 29 24  1  0  0  0  0
 29 27  2  0  0  0  0
 30 31  2  0  0  0  0
 30 21  1  0  0  0  0
 32 33  1  0  0  0  0
 32 24  1  0  0  0  0
 34 32  2  0  0  0  0
M  END
>  <MODEL>
2

>  <REMARK>
 VINA RESULT:     -10.2      1.017      1.398
  Name = 
  4 active torsions:
  status: ('A' for Active; 'I' for Inactive)
    1  A    between atoms: C_3  and  C_25
    2  A    between atoms: C_7  and  C_11
    3  A    between atoms: C_8  and  C_18
    4  A    between atoms: C_18  and  C_30
                            x       y       z     vdW  Elec       q    Type
                         _______ _______ _______ _____ _____    ______ ____

>  <TORSDO>
F 4

$$$$
=
 OpenBabel11062409383D

 34 39  0  0  0  0  0  0  0  0999 V2000
  161.5130  207.3810  150.8000 C   0  0  0  0  0  0  0  0  0  0  0  0
  161.4270  204.9600  147.9230 C   0  0  0  0  0  3  0  0  0  0  0  0
  161.8700  207.4820  147.8200 S   0  0  0  0  0  0  0  0  0  0  0  0
  161.5080  208.7380  152.8660 C   0  0  0  0  0  0  0  0  0  0  0  0
  161.3690  207.4920  152.2060 C   0  0  0  0  0  3  0  0  0  0  0  0
  161.9250  209.7870  150.7560 C   0  0  0  0  0  0  0  0  0  0  0  0
  162.1950  210.7220  149.7710 C   0  0  0  0  0  3  0  0  0  0  0  0
  161.7860  209.9120  152.1340 C   0  0  0  0  0  3  0  0  0  0  0  0
  161.9730  208.7840  148.8650 C   0  0  0  0  0  0  0  0  0  0  0  0
  161.7950  208.5850  150.1360 C   0  0  0  0  0  0  0  0  0  0  0  0
  162.2240  210.0790  148.5710 N   0  0  0  0  0  0  0  0  0  0  0  0
  161.1500  203.5580  148.2450 C   0  0  0  0  0  3  0  0  0  0  0  0
  160.9150  202.9790  149.4190 C   0  0  0  0  0  0  0  0  0  0  0  0
  160.8880  203.6840  150.7030 C   0  0  0  0  0  3  0  0  0  0  0  0
  161.5260  206.0490  148.6850 C   0  0  0  0  0  0  0  0  0  0  0  0
  161.0770  204.9690  150.9770 C   0  0  0  0  0  3  0  0  0  0  0  0
  161.3770  206.1290  150.1080 C   0  0  0  0  0  0  0  0  0  0  0  0
  160.6640  201.5230  149.4390 C   0  0  0  0  0  0  0  0  0  0  0  0
  159.9700  201.0030  150.3540 O   0  0  0  0  0  0  0  0  0  0  0  0
  161.2060  200.6850  148.4210 N   0  0  0  0  0  1  0  0  0  0  0  0
  161.3200  208.8180  154.3430 C   0  0  0  0  0  2  0  0  0  0  0  0
  158.5640  210.5570  156.2790 C   0  0  0  0  0  3  0  0  0  0  0  0
  159.6930  210.6130  153.7110 C   0  0  0  0  0  3  0  0  0  0  0  0
  156.4800  213.1570  154.6550 C   0  0  0  0  0  0  0  0  0  0  0  0
  156.9900  212.2800  155.6230 C   0  0  0  0  0  3  0  0  0  0  0  0
  158.0570  211.4330  155.3150 C   0  0  0  0  0  0  0  0  0  0  0  0
  158.1170  212.3330  153.0560 C   0  0  0  0  0  3  0  0  0  0  0  0
  158.6260  211.4610  154.0210 C   0  0  0  0  0  0  0  0  0  0  0  0
  157.0490  213.1780  153.3730 C   0  0  0  0  0  3  0  0  0  0  0  0
  160.1980  209.7420  154.6820 C   0  0  0  0  0  0  0  0  0  0  0  0
  159.6310  209.7110  155.9620 C   0  0  0  0  0  3  0  0  0  0  0  0
  155.3560  214.0470  154.9880 C   0  0  0  0  0  0  0  0  0  0  0  0
  154.5750  214.4530  154.0860 O   0  0  0  0  0  0  0  0  0  0  0  0
  155.1440  214.4460  156.3020 O   0  0  0  0  0  1  0  0  0  0  0  0
  1  5  1  0  0  0  0
  2 12  1  0  0  0  0
  2 15  2  0  0  0  0
  3 15  1  0  0  0  0
  3  9  1  0  0  0  0
  4 21  1  0  0  0  0
  5  4  2  0  0  0  0
  6  8  2  0  0  0  0
  7  6  1  0  0  0  0
  8  4  1  0  0  0  0
  9 10  2  0  0  0  0
 10  6  1  0  0  0  0
 10  1  1  0  0  0  0
 11  9  1  0  0  0  0
 11  7  2  0  0  0  0
 12 13  2  0  0  0  0
 13 18  1  0  0  0  0
 13 14  1  0  0  0  0
 14 16  2  0  0  0  0
 15 17  1  0  0  0  0
 17  1  2  0  0  0  0
 17 16  1  0  0  0  0
 18 19  2  0  0  0  0
 20 18  1  0  0  0  0
 21 30  1  0  0  0  0
 23 28  2  0  0  0  0
 23 30  1  0  0  0  0
 24 32  1  0  0  0  0
 24 25  2  0  0  0  0
 26 25  1  0  0  0  0
 26 22  2  0  0  0  0
 27 29  2  0  0  0  0
 27 28  1  0  0  0  0
 28 26  1  0  0  0  0
 29 24  1  0  0  0  0
 30 31  2  0  0  0  0
 31 22  1  0  0  0  0
 32 34  1  0  0  0  0
 33 32  2  0  0  0  0
M  END
>  <MODEL>
3

>  <REMARK>
 VINA RESULT:     -10.0      4.294      8.734
  Name = 
  4 active torsions:
  status: ('A' for Active; 'I' for Inactive)
    1  A    between atoms: C_3  and  C_25
    2  A    between atoms: C_7  and  C_11
    3  A    between atoms: C_8  and  C_18
    4  A    between atoms: C_18  and  C_30
                            x       y       z     vdW  Elec       q    Type
                         _______ _______ _______ _____ _____    ______ ____

>  <TORSDO>
F 4

$$$$
=
 OpenBabel11062409383D

 34 39  0  0  0  0  0  0  0  0999 V2000
  161.4490  205.5360  149.4000 C   0  0  0  0  0  0  0  0  0  0  0  0
  161.4310  204.2150  145.8800 C   0  0  0  0  0  3  0  0  0  0  0  0
  161.7850  206.6400  146.6280 S   0  0  0  0  0  0  0  0  0  0  0  0
  161.4080  206.1240  151.8010 C   0  0  0  0  0  0  0  0  0  0  0  0
  161.3090  205.1660  150.7620 C   0  0  0  0  0  3  0  0  0  0  0  0
  161.7770  207.8310  150.1650 C   0  0  0  0  0  0  0  0  0  0  0  0
  162.0090  209.0510  149.5520 C   0  0  0  0  0  3  0  0  0  0  0  0
  161.6410  207.4830  151.5050 C   0  0  0  0  0  3  0  0  0  0  0  0
  161.8490  207.5200  148.0490 C   0  0  0  0  0  0  0  0  0  0  0  0
  161.6850  206.9020  149.1790 C   0  0  0  0  0  0  0  0  0  0  0  0
  162.0530  208.8460  148.2060 N   0  0  0  0  0  0  0  0  0  0  0  0
  161.2040  202.7770  145.7120 C   0  0  0  0  0  3  0  0  0  0  0  0
  160.9970  201.8310  146.6240 C   0  0  0  0  0  0  0  0  0  0  0  0
  160.9520  202.0650  148.0700 C   0  0  0  0  0  3  0  0  0  0  0  0
  161.4970  204.9890  146.9620 C   0  0  0  0  0  0  0  0  0  0  0  0
  161.0980  203.1900  148.7590 C   0  0  0  0  0  3  0  0  0  0  0  0
  161.3520  204.5840  148.3290 C   0  0  0  0  0  0  0  0  0  0  0  0
  160.7960  200.4440  146.1540 C   0  0  0  0  0  0  0  0  0  0  0  0
  161.2770  199.4720  146.7970 O   0  0  0  0  0  0  0  0  0  0  0  0
  160.0560  200.1870  144.9640 N   0  0  0  0  0  1  0  0  0  0  0  0
  161.2260  205.6990  153.2190 C   0  0  0  0  0  2  0  0  0  0  0  0
  160.0790  207.7530  156.1920 C   0  0  0  0  0  3  0  0  0  0  0  0
  160.9790  208.1660  153.5660 C   0  0  0  0  0  3  0  0  0  0  0  0
  159.9310  211.4500  155.9760 C   0  0  0  0  0  0  0  0  0  0  0  0
  159.8330  210.1460  156.4830 C   0  0  0  0  0  3  0  0  0  0  0  0
  160.1800  209.0520  155.6870 C   0  0  0  0  0  0  0  0  0  0  0  0
  160.7300  210.5580  153.8580 C   0  0  0  0  0  3  0  0  0  0  0  0
  160.6330  209.2600  154.3640 C   0  0  0  0  0  0  0  0  0  0  0  0
  160.3810  211.6480  154.6620 C   0  0  0  0  0  3  0  0  0  0  0  0
  160.8810  206.8680  154.0790 C   0  0  0  0  0  0  0  0  0  0  0  0
  160.4280  206.6620  155.3880 C   0  0  0  0  0  3  0  0  0  0  0  0
  159.5640  212.5970  156.8210 C   0  0  0  0  0  0  0  0  0  0  0  0
  160.4320  213.4480  157.1530 O   0  0  0  0  0  0  0  0  0  0  0  0
  158.2550  212.7540  157.2590 O   0  0  0  0  0  1  0  0  0  0  0  0
  1  5  1  0  0  0  0
  2 15  2  0  0  0  0
  3 15  1  0  0  0  0
  3  9  1  0  0  0  0
  4 21  1  0  0  0  0
  5  4  2  0  0  0  0
  6  8  2  0  0  0  0
  7  6  1  0  0  0  0
  8  4  1  0  0  0  0
  9 11  1  0  0  0  0
  9 10  2  0  0  0  0
 10  1  1  0  0  0  0
 10  6  1  0  0  0  0
 11  7  2  0  0  0  0
 12  2  1  0  0  0  0
 12 13  2  0  0  0  0
 13 14  1  0  0  0  0
 14 16  2  0  0  0  0
 15 17  1  0  0  0  0
 17 16  1  0  0  0  0
 17  1  2  0  0  0  0
 18 13  1  0  0  0  0
 18 19  2  0  0  0  0
 20 18  1  0  0  0  0
 21 30  1  0  0  0  0
 23 30  2  0  0  0  0
 23 28  1  0  0  0  0
 24 25  1  0  0  0  0
 24 32  1  0  0  0  0
 26 22  1  0  0  0  0
 26 25  2  0  0  0  0
 27 28  2  0  0  0  0
 27 29  1  0  0  0  0
 28 26  1  0  0  0  0
 29 24  2  0  0  0  0
 30 31  1  0  0  0  0
 31 22  2  0  0  0  0
 32 33  2  0  0  0  0
 32 34  1  0  0  0  0
M  END
>  <MODEL>
4

>  <REMARK>
 VINA RESULT:      -9.8      4.096      8.778
  Name = 
  4 active torsions:
  status: ('A' for Active; 'I' for Inactive)
    1  A    between atoms: C_3  and  C_25
    2  A    between atoms: C_7  and  C_11
    3  A    between atoms: C_8  and  C_18
    4  A    between atoms: C_18  and  C_30
                            x       y       z     vdW  Elec       q    Type
                         _______ _______ _______ _____ _____    ______ ____

>  <TORSDO>
F 4

$$$$
=
 OpenBabel11062409383D

 34 39  0  0  0  0  0  0  0  0999 V2000
  160.9300  208.9330  152.1740 C   0  0  0  0  0  0  0  0  0  0  0  0
  159.9870  212.4610  153.0690 C   0  0  0  0  0  3  0  0  0  0  0  0
  161.0490  211.6420  150.8850 S   0  0  0  0  0  0  0  0  0  0  0  0
  161.4490  206.5370  151.8550 C   0  0  0  0  0  0  0  0  0  0  0  0
  160.9440  207.5970  152.6480 C   0  0  0  0  0  3  0  0  0  0  0  0
  161.9450  208.1020  150.1140 C   0  0  0  0  0  0  0  0  0  0  0  0
  162.3650  208.6700  148.9240 C   0  0  0  0  0  3  0  0  0  0  0  0
  161.9650  206.7870  150.5660 C   0  0  0  0  0  3  0  0  0  0  0  0
  161.5690  210.2070  150.2010 C   0  0  0  0  0  0  0  0  0  0  0  0
  161.4530  209.1080  150.8820 C   0  0  0  0  0  0  0  0  0  0  0  0
  162.1230  210.0090  148.9850 N   0  0  0  0  0  0  0  0  0  0  0  0
  159.3900  212.6730  154.3900 C   0  0  0  0  0  3  0  0  0  0  0  0
  159.1190  211.8000  155.3570 C   0  0  0  0  0  0  0  0  0  0  0  0
  159.3840  210.3610  155.2770 C   0  0  0  0  0  3  0  0  0  0  0  0
  160.4240  211.3640  152.4510 C   0  0  0  0  0  0  0  0  0  0  0  0
  159.9160  209.6430  154.2950 C   0  0  0  0  0  3  0  0  0  0  0  0
  160.4230  210.0240  152.9580 C   0  0  0  0  0  0  0  0  0  0  0  0
  158.5070  212.3100  156.6010 C   0  0  0  0  0  0  0  0  0  0  0  0
  159.0610  213.2310  157.2600 O   0  0  0  0  0  0  0  0  0  0  0  0
  157.2780  211.7640  157.0760 N   0  0  0  0  0  1  0  0  0  0  0  0
  161.4730  205.1500  152.4030 C   0  0  0  0  0  2  0  0  0  0  0  0
  160.8290  201.8670  150.6190 C   0  0  0  0  0  3  0  0  0  0  0  0
  161.3770  204.5420  149.9760 C   0  0  0  0  0  3  0  0  0  0  0  0
  160.8720  201.7000  146.9170 C   0  0  0  0  0  0  0  0  0  0  0  0
  160.7660  201.3130  148.2610 C   0  0  0  0  0  3  0  0  0  0  0  0
  160.9320  202.2530  149.2800 C   0  0  0  0  0  0  0  0  0  0  0  0
  161.3160  203.9860  147.6180 C   0  0  0  0  0  3  0  0  0  0  0  0
  161.2090  203.6010  148.9560 C   0  0  0  0  0  0  0  0  0  0  0  0
  161.1480  203.0390  146.6030 C   0  0  0  0  0  3  0  0  0  0  0  0
  161.2670  204.1500  151.3140 C   0  0  0  0  0  0  0  0  0  0  0  0
  160.9980  202.8140  151.6350 C   0  0  0  0  0  3  0  0  0  0  0  0
  160.6950  200.7030  145.8490 C   0  0  0  0  0  0  0  0  0  0  0  0
  160.0830  201.0060  144.7890 O   0  0  0  0  0  0  0  0  0  0  0  0
  161.2030  199.4190  145.9970 O   0  0  0  0  0  1  0  0  0  0  0  0
  1  5  1  0  0  0  0
  1 17  2  0  0  0  0
  2 12  1  0  0  0  0
  3 15  1  0  0  0  0
  4 21  1  0  0  0  0
  4  5  2  0  0  0  0
  6  8  2  0  0  0  0
  6 10  1  0  0  0  0
  7 11  2  0  0  0  0
  7  6  1  0  0  0  0
  8  4  1  0  0  0  0
  9 10  2  0  0  0  0
  9  3  1  0  0  0  0
 10  1  1  0  0  0  0
 11  9  1  0  0  0  0
 12 13  2  0  0  0  0
 13 18  1  0  0  0  0
 14 13  1  0  0  0  0
 15 17  1  0  0  0  0
 15  2  2  0  0  0  0
 16 14  2  0  0  0  0
 17 16  1  0  0  0  0
 18 20  1  0  0  0  0
 18 19  2  0  0  0  0
 22 31  1  0  0  0  0
 23 30  1  0  0  0  0
 24 25  2  0  0  0  0
 25 26  1  0  0  0  0
 26 22  2  0  0  0  0
 27 28  1  0  0  0  0
 28 26  1  0  0  0  0
 28 23  2  0  0  0  0
 29 24  1  0  0  0  0
 29 27  2  0  0  0  0
 30 31  2  0  0  0  0
 30 21  1  0  0  0  0
 32 34  1  0  0  0  0
 32 24  1  0  0  0  0
 33 32  2  0  0  0  0
M  END
>  <MODEL>
5

>  <REMARK>
 VINA RESULT:      -9.8      2.679      4.905
  Name = 
  4 active torsions:
  status: ('A' for Active; 'I' for Inactive)
    1  A    between atoms: C_3  and  C_25
    2  A    between atoms: C_7  and  C_11
    3  A    between atoms: C_8  and  C_18
    4  A    between atoms: C_18  and  C_30
                            x       y       z     vdW  Elec       q    Type
                         _______ _______ _______ _____ _____    ______ ____

>  <TORSDO>
F 4

$$$$
=
 OpenBabel11062409383D

 34 39  0  0  0  0  0  0  0  0999 V2000
  161.2960  207.1780  150.8810 C   0  0  0  0  0  0  0  0  0  0  0  0
  161.1640  203.7880  149.2580 C   0  0  0  0  0  3  0  0  0  0  0  0
  161.0960  204.3150  151.7650 S   0  0  0  0  0  0  0  0  0  0  0  0
  161.4010  209.5170  151.6720 C   0  0  0  0  0  0  0  0  0  0  0  0
  161.3890  208.5680  150.6210 C   0  0  0  0  0  3  0  0  0  0  0  0
  161.2380  207.7330  153.2580 C   0  0  0  0  0  0  0  0  0  0  0  0
  161.1520  207.0110  154.4370 C   0  0  0  0  0  3  0  0  0  0  0  0
  161.3300  209.1000  153.0180 C   0  0  0  0  0  3  0  0  0  0  0  0
  161.1340  205.6520  152.7700 C   0  0  0  0  0  0  0  0  0  0  0  0
  161.2220  206.8330  152.2410 C   0  0  0  0  0  0  0  0  0  0  0  0
  161.0860  205.6890  154.1200 N   0  0  0  0  0  0  0  0  0  0  0  0
  161.2210  203.7510  147.7950 C   0  0  0  0  0  3  0  0  0  0  0  0
  161.3140  204.7460  146.9160 C   0  0  0  0  0  0  0  0  0  0  0  0
  161.3840  206.1650  147.2710 C   0  0  0  0  0  3  0  0  0  0  0  0
  161.1880  204.7970  150.1280 C   0  0  0  0  0  0  0  0  0  0  0  0
  161.3700  206.7500  148.4630 C   0  0  0  0  0  3  0  0  0  0  0  0
  161.2820  206.1960  149.8320 C   0  0  0  0  0  0  0  0  0  0  0  0
  161.3510  204.4030  145.4790 C   0  0  0  0  0  0  0  0  0  0  0  0
  160.9540  203.2760  145.0770 O   0  0  0  0  0  0  0  0  0  0  0  0
  161.8390  205.3440  144.5260 N   0  0  0  0  0  1  0  0  0  0  0  0
  161.5310  210.9690  151.3560 C   0  0  0  0  0  2  0  0  0  0  0  0
  158.8890  213.6700  151.6650 C   0  0  0  0  0  3  0  0  0  0  0  0
  159.5180  211.1960  152.8280 C   0  0  0  0  0  3  0  0  0  0  0  0
  156.1510  213.3460  154.1430 C   0  0  0  0  0  0  0  0  0  0  0  0
  156.9610  213.8640  153.1210 C   0  0  0  0  0  3  0  0  0  0  0  0
  158.0800  213.1530  152.6810 C   0  0  0  0  0  0  0  0  0  0  0  0
  157.5920  211.3920  154.2850 C   0  0  0  0  0  3  0  0  0  0  0  0
  158.3970  211.9060  153.2670 C   0  0  0  0  0  0  0  0  0  0  0  0
  156.4730  212.1090  154.7200 C   0  0  0  0  0  3  0  0  0  0  0  0
  160.3200  211.7160  151.8070 C   0  0  0  0  0  0  0  0  0  0  0  0
  160.0080  212.9530  151.2300 C   0  0  0  0  0  3  0  0  0  0  0  0
  154.9740  214.1010  154.6010 C   0  0  0  0  0  0  0  0  0  0  0  0
  154.8650  214.4420  155.8100 O   0  0  0  0  0  1  0  0  0  0  0  0
  153.9700  214.4460  153.7050 O   0  0  0  0  0  0  0  0  0  0  0  0
  1 10  1  0  0  0  0
  2 15  2  0  0  0  0
  3  9  1  0  0  0  0
  4  8  1  0  0  0  0
  5  1  1  0  0  0  0
  5  4  2  0  0  0  0
  6  7  1  0  0  0  0
  8  6  2  0  0  0  0
  9 11  1  0  0  0  0
 10  9  2  0  0  0  0
 10  6  1  0  0  0  0
 11  7  2  0  0  0  0
 12  2  1  0  0  0  0
 13 14  1  0  0  0  0
 13 12  2  0  0  0  0
 14 16  2  0  0  0  0
 15  3  1  0  0  0  0
 16 17  1  0  0  0  0
 17 15  1  0  0  0  0
 17  1  2  0  0  0  0
 18 13  1  0  0  0  0
 19 18  2  0  0  0  0
 20 18  1  0  0  0  0
 21  4  1  0  0  0  0
 21 30  1  0  0  0  0
 22 26  1  0  0  0  0
 23 28  1  0  0  0  0
 24 32  1  0  0  0  0
 24 29  1  0  0  0  0
 25 24  2  0  0  0  0
 26 25  1  0  0  0  0
 26 28  2  0  0  0  0
 27 29  2  0  0  0  0
 28 27  1  0  0  0  0
 30 23  2  0  0  0  0
 31 22  2  0  0  0  0
 31 30  1  0  0  0  0
 32 33  1  0  0  0  0
 34 32  2  0  0  0  0
M  END
>  <MODEL>
6

>  <REMARK>
 VINA RESULT:      -9.7      4.002      8.320
  Name = 
  4 active torsions:
  status: ('A' for Active; 'I' for Inactive)
    1  A    between atoms: C_3  and  C_25
    2  A    between atoms: C_7  and  C_11
    3  A    between atoms: C_8  and  C_18
    4  A    between atoms: C_18  and  C_30
                            x       y       z     vdW  Elec       q    Type
                         _______ _______ _______ _____ _____    ______ ____

>  <TORSDO>
F 4

$$$$
=
 OpenBabel11062409383D

 34 39  0  0  0  0  0  0  0  0999 V2000
  160.8820  208.4270  152.5250 C   0  0  0  0  0  0  0  0  0  0  0  0
  159.6910  210.1250  155.6620 C   0  0  0  0  0  3  0  0  0  0  0  0
  160.3740  207.6710  155.3860 S   0  0  0  0  0  0  0  0  0  0  0  0
  161.6290  207.5740  150.3290 C   0  0  0  0  0  0  0  0  0  0  0  0
  161.1630  208.6290  151.1510 C   0  0  0  0  0  3  0  0  0  0  0  0
  161.5390  206.0970  152.2100 C   0  0  0  0  0  0  0  0  0  0  0  0
  161.6210  204.9770  153.0200 C   0  0  0  0  0  3  0  0  0  0  0  0
  161.8190  206.2800  150.8600 C   0  0  0  0  0  3  0  0  0  0  0  0
  160.9240  206.6470  154.1840 C   0  0  0  0  0  0  0  0  0  0  0  0
  161.0980  207.1180  152.9880 C   0  0  0  0  0  0  0  0  0  0  0  0
  161.2280  205.3330  154.2750 N   0  0  0  0  0  0  0  0  0  0  0  0
  159.3570  211.5480  155.5600 C   0  0  0  0  0  3  0  0  0  0  0  0
  159.4060  212.3660  154.5110 C   0  0  0  0  0  0  0  0  0  0  0  0
  159.8310  211.9690  153.1660 C   0  0  0  0  0  3  0  0  0  0  0  0
  160.1310  209.2440  154.7640 C   0  0  0  0  0  0  0  0  0  0  0  0
  160.2390  210.7910  152.7110 C   0  0  0  0  0  3  0  0  0  0  0  0
  160.4080  209.4810  153.3790 C   0  0  0  0  0  0  0  0  0  0  0  0
  159.0040  213.7740  154.7080 C   0  0  0  0  0  0  0  0  0  0  0  0
  158.4160  214.4090  153.7920 O   0  0  0  0  0  0  0  0  0  0  0  0
  159.2780  214.4360  155.9410 N   0  0  0  0  0  1  0  0  0  0  0  0
  161.8850  207.8210  148.8810 C   0  0  0  0  0  2  0  0  0  0  0  0
  161.7580  205.4040  145.9630 C   0  0  0  0  0  3  0  0  0  0  0  0
  161.3660  205.3760  148.7420 C   0  0  0  0  0  3  0  0  0  0  0  0
  160.8630  201.8480  146.5080 C   0  0  0  0  0  0  0  0  0  0  0  0
  161.2280  203.0410  145.8660 C   0  0  0  0  0  3  0  0  0  0  0  0
  161.3970  204.2150  146.6040 C   0  0  0  0  0  0  0  0  0  0  0  0
  160.8340  203.0140  148.6420 C   0  0  0  0  0  3  0  0  0  0  0  0
  161.1990  204.2010  148.0030 C   0  0  0  0  0  0  0  0  0  0  0  0
  160.6680  201.8430  147.8970 C   0  0  0  0  0  3  0  0  0  0  0  0
  161.7330  206.5620  148.0960 C   0  0  0  0  0  0  0  0  0  0  0  0
  161.9240  206.5760  146.7090 C   0  0  0  0  0  3  0  0  0  0  0  0
  160.6880  200.6150  145.7240 C   0  0  0  0  0  0  0  0  0  0  0  0
  160.0070  200.6250  144.6640 O   0  0  0  0  0  0  0  0  0  0  0  0
  161.2730  199.4280  146.1460 O   0  0  0  0  0  1  0  0  0  0  0  0
  1 10  1  0  0  0  0
  1 17  2  0  0  0  0
  4  8  1  0  0  0  0
  4  5  2  0  0  0  0
  5  1  1  0  0  0  0
  6 10  1  0  0  0  0
  6  7  1  0  0  0  0
  7 11  2  0  0  0  0
  8  6  2  0  0  0  0
  9 11  1  0  0  0  0
  9  3  1  0  0  0  0
 10  9  2  0  0  0  0
 12  2  1  0  0  0  0
 13 18  1  0  0  0  0
 13 12  2  0  0  0  0
 14 13  1  0  0  0  0
 15  3  1  0  0  0  0
 15  2  2  0  0  0  0
 16 14  2  0  0  0  0
 16 17  1  0  0  0  0
 17 15  1  0  0  0  0
 18 20  1  0  0  0  0
 19 18  2  0  0  0  0
 21  4  1  0  0  0  0
 22 26  2  0  0  0  0
 22 31  1  0  0  0  0
 24 29  1  0  0  0  0
 25 24  2  0  0  0  0
 25 26  1  0  0  0  0
 26 28  1  0  0  0  0
 28 27  1  0  0  0  0
 28 23  2  0  0  0  0
 29 27  2  0  0  0  0
 30 23  1  0  0  0  0
 30 21  1  0  0  0  0
 31 30  2  0  0  0  0
 32 34  1  0  0  0  0
 32 24  1  0  0  0  0
 33 32  2  0  0  0  0
M  END
>  <MODEL>
7

>  <REMARK>
 VINA RESULT:      -9.6      3.097      4.830
  Name = 
  4 active torsions:
  status: ('A' for Active; 'I' for Inactive)
    1  A    between atoms: C_3  and  C_25
    2  A    between atoms: C_7  and  C_11
    3  A    between atoms: C_8  and  C_18
    4  A    between atoms: C_18  and  C_30
                            x       y       z     vdW  Elec       q    Type
                         _______ _______ _______ _____ _____    ______ ____

>  <TORSDO>
F 4

$$$$
=
 OpenBabel11062409383D

 34 39  0  0  0  0  0  0  0  0999 V2000
  160.0130  210.7950  152.3820 C   0  0  0  0  0  0  0  0  0  0  0  0
  158.0350  213.9930  152.3900 C   0  0  0  0  0  3  0  0  0  0  0  0
  159.8420  213.2870  150.7160 S   0  0  0  0  0  0  0  0  0  0  0  0
  161.1600  208.6190  152.6210 C   0  0  0  0  0  0  0  0  0  0  0  0
  160.2100  209.5700  153.0680 C   0  0  0  0  0  3  0  0  0  0  0  0
  161.7430  210.0780  150.8160 C   0  0  0  0  0  0  0  0  0  0  0  0
  162.3370  210.6180  149.6880 C   0  0  0  0  0  3  0  0  0  0  0  0
  161.9480  208.8720  151.4790 C   0  0  0  0  0  3  0  0  0  0  0  0
  160.8640  211.9930  150.4420 C   0  0  0  0  0  0  0  0  0  0  0  0
  160.8250  210.9790  151.2510 C   0  0  0  0  0  0  0  0  0  0  0  0
  161.7740  211.8360  149.4550 N   0  0  0  0  0  0  0  0  0  0  0  0
  157.0520  214.1630  153.4640 C   0  0  0  0  0  3  0  0  0  0  0  0
  156.7330  213.3500  154.4680 C   0  0  0  0  0  0  0  0  0  0  0  0
  157.3470  212.0420  154.7070 C   0  0  0  0  0  3  0  0  0  0  0  0
  158.8810  213.0050  152.1000 C   0  0  0  0  0  0  0  0  0  0  0  0
  158.2940  211.4050  154.0280 C   0  0  0  0  0  3  0  0  0  0  0  0
  159.0560  211.7760  152.8140 C   0  0  0  0  0  0  0  0  0  0  0  0
  155.6870  213.7920  155.4130 C   0  0  0  0  0  0  0  0  0  0  0  0
  154.6930  214.4530  155.0090 O   0  0  0  0  0  0  0  0  0  0  0  0
  155.7880  213.4760  156.8000 N   0  0  0  0  0  1  0  0  0  0  0  0
  161.3580  207.3550  153.3880 C   0  0  0  0  0  2  0  0  0  0  0  0
  160.9830  203.7730  152.2060 C   0  0  0  0  0  3  0  0  0  0  0  0
  161.3110  206.3320  151.1040 C   0  0  0  0  0  3  0  0  0  0  0  0
  161.0380  202.9740  148.5870 C   0  0  0  0  0  0  0  0  0  0  0  0
  160.9650  202.8170  149.9790 C   0  0  0  0  0  3  0  0  0  0  0  0
  161.0540  203.9300  150.8190 C   0  0  0  0  0  0  0  0  0  0  0  0
  161.2950  205.3750  148.8780 C   0  0  0  0  0  3  0  0  0  0  0  0
  161.2200  205.2190  150.2630 C   0  0  0  0  0  0  0  0  0  0  0  0
  161.2030  204.2560  148.0440 C   0  0  0  0  0  3  0  0  0  0  0  0
  161.2340  206.1690  152.4910 C   0  0  0  0  0  0  0  0  0  0  0  0
  161.0750  204.8910  153.0400 C   0  0  0  0  0  3  0  0  0  0  0  0
  160.9430  201.7970  147.7080 C   0  0  0  0  0  0  0  0  0  0  0  0
  161.2190  200.6480  148.1480 O   0  0  0  0  0  1  0  0  0  0  0  0
  160.5450  201.9410  146.3850 O   0  0  0  0  0  0  0  0  0  0  0  0
  1 17  2  0  0  0  0
  1  5  1  0  0  0  0
  2 12  1  0  0  0  0
  3 15  1  0  0  0  0
  4  5  2  0  0  0  0
  4 21  1  0  0  0  0
  6 10  1  0  0  0  0
  6  8  2  0  0  0  0
  7  6  1  0  0  0  0
  8  4  1  0  0  0  0
  9  3  1  0  0  0  0
  9 10  2  0  0  0  0
 10  1  1  0  0  0  0
 11  7  2  0  0  0  0
 11  9  1  0  0  0  0
 12 13  2  0  0  0  0
 13 14  1  0  0  0  0
 13 18  1  0  0  0  0
 15  2  2  0  0  0  0
 15 17  1  0  0  0  0
 16 14  2  0  0  0  0
 17 16  1  0  0  0  0
 18 20  1  0  0  0  0
 19 18  2  0  0  0  0
 22 31  1  0  0  0  0
 23 30  1  0  0  0  0
 24 25  2  0  0  0  0
 25 26  1  0  0  0  0
 26 22  2  0  0  0  0
 27 28  1  0  0  0  0
 28 26  1  0  0  0  0
 28 23  2  0  0  0  0
 29 24  1  0  0  0  0
 29 27  2  0  0  0  0
 30 31  2  0  0  0  0
 30 21  1  0  0  0  0
 32 33  1  0  0  0  0
 32 24  1  0  0  0  0
 34 32  2  0  0  0  0
M  END
>  <MODEL>
8

>  <REMARK>
 VINA RESULT:      -9.6      2.936      4.885
  Name = 
  4 active torsions:
  status: ('A' for Active; 'I' for Inactive)
    1  A    between atoms: C_3  and  C_25
    2  A    between atoms: C_7  and  C_11
    3  A    between atoms: C_8  and  C_18
    4  A    between atoms: C_18  and  C_30
                            x       y       z     vdW  Elec       q    Type
                         _______ _______ _______ _____ _____    ______ ____

>  <TORSDO>
F 4

$$$$
=
 OpenBabel11062409383D

 34 39  0  0  0  0  0  0  0  0999 V2000
  159.9240  211.9160  152.0430 C   0  0  0  0  0  0  0  0  0  0  0  0
  159.3320  214.4520  149.3310 C   0  0  0  0  0  3  0  0  0  0  0  0
  158.1190  214.2700  151.5810 S   0  0  0  0  0  0  0  0  0  0  0  0
  160.5220  210.1330  153.6480 C   0  0  0  0  0  0  0  0  0  0  0  0
  160.7010  210.7860  152.4030 C   0  0  0  0  0  3  0  0  0  0  0  0
  158.7970  211.6970  154.1980 C   0  0  0  0  0  0  0  0  0  0  0  0
  157.7880  212.3800  154.8560 C   0  0  0  0  0  3  0  0  0  0  0  0
  159.5510  210.5880  154.5640 C   0  0  0  0  0  3  0  0  0  0  0  0
  158.1420  213.3050  152.9460 C   0  0  0  0  0  0  0  0  0  0  0  0
  158.9820  212.3170  153.0040 C   0  0  0  0  0  0  0  0  0  0  0  0
  157.3750  213.4010  154.0550 N   0  0  0  0  0  0  0  0  0  0  0  0
  160.1620  214.3420  148.1280 C   0  0  0  0  0  3  0  0  0  0  0  0
  161.1180  213.4690  147.8240 C   0  0  0  0  0  0  0  0  0  0  0  0
  161.5530  212.3750  148.6960 C   0  0  0  0  0  3  0  0  0  0  0  0
  159.2840  213.7330  150.4520 C   0  0  0  0  0  0  0  0  0  0  0  0
  161.1280  212.0240  149.9040 C   0  0  0  0  0  3  0  0  0  0  0  0
  160.0870  212.5950  150.7880 C   0  0  0  0  0  0  0  0  0  0  0  0
  161.7950  213.6050  146.5180 C   0  0  0  0  0  0  0  0  0  0  0  0
  162.9120  214.1830  146.4300 O   0  0  0  0  0  0  0  0  0  0  0  0
  161.1910  213.0850  145.3360 N   0  0  0  0  0  1  0  0  0  0  0  0
  161.3390  208.9300  153.9760 C   0  0  0  0  0  2  0  0  0  0  0  0
  161.0550  207.3980  150.5190 C   0  0  0  0  0  3  0  0  0  0  0  0
  161.2290  206.5550  153.1900 C   0  0  0  0  0  3  0  0  0  0  0  0
  160.9060  203.7180  150.1020 C   0  0  0  0  0  0  0  0  0  0  0  0
  160.9280  205.0880  149.7990 C   0  0  0  0  0  3  0  0  0  0  0  0
  161.0360  206.0340  150.8210 C   0  0  0  0  0  0  0  0  0  0  0  0
  161.0990  204.2450  152.4680 C   0  0  0  0  0  3  0  0  0  0  0  0
  161.1230  205.6090  152.1670 C   0  0  0  0  0  0  0  0  0  0  0  0
  160.9930  203.3050  151.4390 C   0  0  0  0  0  3  0  0  0  0  0  0
  161.2530  207.9190  152.8810 C   0  0  0  0  0  0  0  0  0  0  0  0
  161.1610  208.3390  151.5490 C   0  0  0  0  0  3  0  0  0  0  0  0
  160.7930  202.7270  149.0190 C   0  0  0  0  0  0  0  0  0  0  0  0
  160.1370  201.6660  149.1920 O   0  0  0  0  0  1  0  0  0  0  0  0
  161.4090  202.9550  147.7950 O   0  0  0  0  0  0  0  0  0  0  0  0
  1  5  1  0  0  0  0
  1 10  1  0  0  0  0
  2 15  2  0  0  0  0
  3  9  1  0  0  0  0
  4 21  1  0  0  0  0
  4  8  1  0  0  0  0
  5  4  2  0  0  0  0
  6  8  2  0  0  0  0
  6  7  1  0  0  0  0
  9 10  2  0  0  0  0
  9 11  1  0  0  0  0
 10  6  1  0  0  0  0
 11  7  2  0  0  0  0
 12  2  1  0  0  0  0
 13 12  2  0  0  0  0
 13 14  1  0  0  0  0
 14 16  2  0  0  0  0
 15 17  1  0  0  0  0
 15  3  1  0  0  0  0
 16 17  1  0  0  0  0
 17  1  2  0  0  0  0
 18 13  1  0  0  0  0
 19 18  2  0  0  0  0
 20 18  1  0  0  0  0
 22 26  2  0  0  0  0
 22 31  1  0  0  0  0
 24 29  1  0  0  0  0
 25 24  2  0  0  0  0
 25 26  1  0  0  0  0
 26 28  1  0  0  0  0
 28 27  1  0  0  0  0
 28 23  2  0  0  0  0
 29 27  2  0  0  0  0
 30 23  1  0  0  0  0
 30 21  1  0  0  0  0
 31 30  2  0  0  0  0
 32 33  1  0  0  0  0
 32 24  1  0  0  0  0
 34 32  2  0  0  0  0
M  END
>  <MODEL>
9

>  <REMARK>
 VINA RESULT:      -9.4      1.860      3.084
  Name = 
  4 active torsions:
  status: ('A' for Active; 'I' for Inactive)
    1  A    between atoms: C_3  and  C_25
    2  A    between atoms: C_7  and  C_11
    3  A    between atoms: C_8  and  C_18
    4  A    between atoms: C_18  and  C_30
                            x       y       z     vdW  Elec       q    Type
                         _______ _______ _______ _____ _____    ______ ____

>  <TORSDO>
F 4

$$$$
