=
 OpenBabel11052422313D

 31 35  0  0  1  0  0  0  0  0999 V2000
  161.1270  207.6800  154.1190 C   0  0  0  0  0  0  0  0  0  0  0  0
  161.3150  207.1110  150.4010 C   0  0  0  0  0  0  0  0  0  0  0  0
  161.2230  205.7030  150.1850 C   0  0  0  0  0  0  0  0  0  0  0  0
  161.7510  212.2370  149.2820 O   0  0  0  0  0  0  0  0  0  0  0  0
  161.7840  211.5830  148.2040 C   0  0  0  0  0  0  0  0  0  0  0  0
  161.3450  203.3000  150.9830 C   0  0  1  0  0  3  0  0  0  0  0  0
  161.2740  207.7410  151.6810 C   0  0  0  0  0  0  0  0  0  0  0  0
  161.2110  209.0710  154.1730 C   0  0  0  0  0  3  0  0  0  0  0  0
  160.9420  204.7310  151.3100 C   0  0  0  0  0  2  0  0  0  0  0  0
  161.5440  209.3320  149.3950 C   0  0  0  0  0  0  0  0  0  0  0  0
  161.0120  206.9640  155.2630 F   0  0  0  0  0  0  0  0  0  0  0  0
  161.4350  206.0760  147.8290 N   0  0  0  0  0  0  0  0  0  0  0  0
  160.8700  202.3800  152.0870 C   0  0  0  0  0  1  0  0  0  0  0  0
  161.4950  209.8930  150.6290 N   0  0  0  0  0  0  0  0  0  0  0  0
  161.4590  207.9400  149.2590 C   0  0  0  0  0  0  0  0  0  0  0  0
  161.6840  210.1520  148.2260 N   0  0  0  0  0  2  0  0  0  0  0  0
  161.1590  207.0250  152.8860 C   0  0  0  0  0  3  0  0  0  0  0  0
  160.6980  202.8980  149.6720 C   0  0  0  0  0  2  0  0  0  0  0  0
  161.3660  209.1540  151.7560 C   0  0  0  0  0  0  0  0  0  0  0  0
  161.3320  209.8050  152.9930 C   0  0  0  0  0  3  0  0  0  0  0  0
  161.5140  207.3890  148.0200 N   0  0  0  0  0  0  0  0  0  0  0  0
  161.2780  205.2130  148.8590 C   0  0  0  0  0  0  0  0  0  0  0  0
  161.2830  203.7400  148.5480 C   0  0  0  0  0  2  0  0  0  0  0  0
  162.2940  213.6210  144.4590 C   0  0  0  0  0  0  0  0  0  0  0  0
  163.2060  212.6840  146.4910 C   0  0  0  0  0  3  0  0  0  0  0  0
  159.5290  212.1970  146.4260 O   0  0  0  0  0  1  0  0  0  0  0  0
  162.5240  214.4520  142.9360 Cl  0  0  0  0  0  0  0  0  0  0  0  0
  163.3910  213.3470  145.2760 C   0  0  0  0  0  3  0  0  0  0  0  0
  160.8210  212.5660  146.0700 C   0  0  0  0  0  0  0  0  0  0  0  0
  161.9250  212.2850  146.9060 C   0  0  0  0  0  0  0  0  0  0  0  0
  161.0140  213.2320  144.8550 C   0  0  0  0  0  3  0  0  0  0  0  0
  1  8  1  0  0  0  0
  1 11  1  0  0  0  0
  2  7  1  0  0  0  0
  3  2  1  0  0  0  0
  3  9  1  0  0  0  0
  5 16  1  0  0  0  0
  5  4  2  0  0  0  0
  6  9  1  0  0  0  0
  6 13  1  1  0  0  0
  7 19  2  0  0  0  0
  7 17  1  0  0  0  0
 10 14  2  0  0  0  0
 12 21  2  0  0  0  0
 12 22  1  0  0  0  0
 14 19  1  0  0  0  0
 15 10  1  0  0  0  0
 15  2  2  0  0  0  0
 16 10  1  0  0  0  0
 17  1  2  0  0  0  0
 18  6  1  0  0  0  0
 19 20  1  0  0  0  0
 20  8  2  0  0  0  0
 21 15  1  0  0  0  0
 22  3  2  0  0  0  0
 23 22  1  0  0  0  0
 23 18  1  0  0  0  0
 24 31  2  0  0  0  0
 24 28  1  0  0  0  0
 25 30  1  0  0  0  0
 27 24  1  0  0  0  0
 28 25  2  0  0  0  0
 29 26  1  0  0  0  0
 29 30  2  0  0  0  0
 30  5  1  0  0  0  0
 31 29  1  0  0  0  0
M  END
>  <MODEL>
1

>  <REMARK>
 VINA RESULT:      -9.4      0.000      0.000
  Name = 
  1 active torsions:
  status: ('A' for Active; 'I' for Inactive)
    1  A    between atoms: C_9  and  C_22
                            x       y       z     vdW  Elec       q    Type
                         _______ _______ _______ _____ _____    ______ ____

>  <TORSDO>
F 1

$$$$
=
 OpenBabel11052422313D

 31 35  0  0  1  0  0  0  0  0999 V2000
  161.1310  201.7010  150.3630 C   0  0  0  0  0  0  0  0  0  0  0  0
  161.1610  205.4030  149.6750 C   0  0  0  0  0  0  0  0  0  0  0  0
  161.2470  205.5690  148.2600 C   0  0  0  0  0  0  0  0  0  0  0  0
  160.8310  206.7100  154.7640 O   0  0  0  0  0  0  0  0  0  0  0  0
  160.8850  207.7670  154.0780 C   0  0  0  0  0  0  0  0  0  0  0  0
  161.7420  204.7050  145.9280 C   0  0  1  0  0  3  0  0  0  0  0  0
  161.1160  204.1440  150.3450 C   0  0  0  0  0  0  0  0  0  0  0  0
  161.0300  201.6970  151.7540 C   0  0  0  0  0  3  0  0  0  0  0  0
  161.1710  204.3970  147.3050 C   0  0  0  0  0  2  0  0  0  0  0  0
  161.0250  206.4930  151.8650 C   0  0  0  0  0  0  0  0  0  0  0  0
  161.1860  200.5300  149.6840 F   0  0  0  0  0  0  0  0  0  0  0  0
  161.2580  207.9440  148.5630 N   0  0  0  0  0  0  0  0  0  0  0  0
  161.4660  203.5430  144.9980 C   0  0  0  0  0  1  0  0  0  0  0  0
  160.9780  205.2760  152.4630 N   0  0  0  0  0  0  0  0  0  0  0  0
  161.1200  206.5780  150.4690 C   0  0  0  0  0  0  0  0  0  0  0  0
  160.9800  207.6930  152.6490 N   0  0  0  0  0  2  0  0  0  0  0  0
  161.1750  202.9120  149.6690 C   0  0  0  0  0  3  0  0  0  0  0  0
  161.0740  205.9570  145.3910 C   0  0  0  0  0  2  0  0  0  0  0  0
  161.0210  204.1200  151.7600 C   0  0  0  0  0  0  0  0  0  0  0  0
  160.9770  202.9040  152.4490 C   0  0  0  0  0  3  0  0  0  0  0  0
  161.1720  207.8000  149.8810 N   0  0  0  0  0  0  0  0  0  0  0  0
  161.2840  206.8790  147.7280 C   0  0  0  0  0  0  0  0  0  0  0  0
  161.4690  207.1440  146.2580 C   0  0  0  0  0  2  0  0  0  0  0  0
  160.7290  211.6470  155.9120 C   0  0  0  0  0  0  0  0  0  0  0  0
  160.2230  210.1600  154.0750 C   0  0  0  0  0  3  0  0  0  0  0  0
  162.0520  208.3080  156.7180 O   0  0  0  0  0  1  0  0  0  0  0  0
  160.6540  213.2360  156.6420 Cl  0  0  0  0  0  0  0  0  0  0  0  0
  160.1620  211.4280  154.6560 C   0  0  0  0  0  3  0  0  0  0  0  0
  161.4190  209.3240  156.0120 C   0  0  0  0  0  0  0  0  0  0  0  0
  160.8490  209.0930  154.7390 C   0  0  0  0  0  0  0  0  0  0  0  0
  161.3550  210.5980  156.5860 C   0  0  0  0  0  3  0  0  0  0  0  0
  1  8  1  0  0  0  0
  2  7  1  0  0  0  0
  2 15  1  0  0  0  0
  3  2  2  0  0  0  0
  5 30  1  0  0  0  0
  5  4  2  0  0  0  0
  6 13  1  6  0  0  0
  6  9  1  0  0  0  0
  7 19  2  0  0  0  0
  8 20  2  0  0  0  0
  9  3  1  0  0  0  0
 10 14  2  0  0  0  0
 10 16  1  0  0  0  0
 11  1  1  0  0  0  0
 12 21  1  0  0  0  0
 15 10  1  0  0  0  0
 16  5  1  0  0  0  0
 17  7  1  0  0  0  0
 17  1  2  0  0  0  0
 18  6  1  0  0  0  0
 18 23  1  0  0  0  0
 19 20  1  0  0  0  0
 19 14  1  0  0  0  0
 21 15  2  0  0  0  0
 22  3  1  0  0  0  0
 22 12  2  0  0  0  0
 23 22  1  0  0  0  0
 24 31  1  0  0  0  0
 24 27  1  0  0  0  0
 25 28  1  0  0  0  0
 25 30  2  0  0  0  0
 28 24  2  0  0  0  0
 29 31  2  0  0  0  0
 29 26  1  0  0  0  0
 30 29  1  0  0  0  0
M  END
>  <MODEL>
2

>  <REMARK>
 VINA RESULT:      -9.3      4.805      7.179
  Name = 
  1 active torsions:
  status: ('A' for Active; 'I' for Inactive)
    1  A    between atoms: C_9  and  C_22
                            x       y       z     vdW  Elec       q    Type
                         _______ _______ _______ _____ _____    ______ ____

>  <TORSDO>
F 1

$$$$
=
 OpenBabel11052422313D

 31 35  0  0  1  0  0  0  0  0999 V2000
  161.1490  201.5950  150.2640 C   0  0  0  0  0  0  0  0  0  0  0  0
  161.1290  205.3030  149.6060 C   0  0  0  0  0  0  0  0  0  0  0  0
  161.1640  205.4810  148.1900 C   0  0  0  0  0  0  0  0  0  0  0  0
  160.9710  206.5670  154.7140 O   0  0  0  0  0  0  0  0  0  0  0  0
  160.9920  207.6290  154.0350 C   0  0  0  0  0  0  0  0  0  0  0  0
  161.5810  204.6390  145.8350 C   0  0  1  0  0  3  0  0  0  0  0  0
  161.1170  204.0380  150.2660 C   0  0  0  0  0  0  0  0  0  0  0  0
  161.0980  201.5800  151.6570 C   0  0  0  0  0  3  0  0  0  0  0  0
  161.0620  204.3160  147.2290 C   0  0  0  0  0  2  0  0  0  0  0  0
  161.0630  206.3740  151.8080 C   0  0  0  0  0  0  0  0  0  0  0  0
  161.1880  200.4300  149.5740 F   0  0  0  0  0  0  0  0  0  0  0  0
  161.1690  207.8540  148.5120 N   0  0  0  0  0  0  0  0  0  0  0  0
  161.2800  203.4830  144.9060 C   0  0  0  0  0  1  0  0  0  0  0  0
  161.0460  205.1520  152.3980 N   0  0  0  0  0  0  0  0  0  0  0  0
  161.1080  206.4710  150.4110 C   0  0  0  0  0  0  0  0  0  0  0  0
  161.0380  207.5680  152.6030 N   0  0  0  0  0  2  0  0  0  0  0  0
  161.1600  202.8120  149.5780 C   0  0  0  0  0  3  0  0  0  0  0  0
  160.8860  205.8900  145.3330 C   0  0  0  0  0  2  0  0  0  0  0  0
  161.0720  204.0030  151.6830 C   0  0  0  0  0  0  0  0  0  0  0  0
  161.0610  202.7810  152.3640 C   0  0  0  0  0  3  0  0  0  0  0  0
  161.1300  207.6990  149.8310 N   0  0  0  0  0  0  0  0  0  0  0  0
  161.1730  206.7950  147.6680 C   0  0  0  0  0  0  0  0  0  0  0  0
  161.3030  207.0730  146.1940 C   0  0  0  0  0  2  0  0  0  0  0  0
  160.9650  211.4110  156.0700 C   0  0  0  0  0  0  0  0  0  0  0  0
  161.3990  209.0340  156.0420 C   0  0  0  0  0  3  0  0  0  0  0  0
  160.0990  210.1070  152.7380 O   0  0  0  0  0  1  0  0  0  0  0  0
  160.9620  212.9420  156.9170 Cl  0  0  0  0  0  0  0  0  0  0  0  0
  161.3970  210.2550  156.7200 C   0  0  0  0  0  3  0  0  0  0  0  0
  160.5350  210.1270  154.0580 C   0  0  0  0  0  0  0  0  0  0  0  0
  160.9700  208.9500  154.7080 C   0  0  0  0  0  0  0  0  0  0  0  0
  160.5350  211.3460  154.7440 C   0  0  0  0  0  3  0  0  0  0  0  0
  1  8  1  0  0  0  0
  2  7  1  0  0  0  0
  2 15  1  0  0  0  0
  3  2  2  0  0  0  0
  5 30  1  0  0  0  0
  5  4  2  0  0  0  0
  6 13  1  6  0  0  0
  6  9  1  0  0  0  0
  7 19  2  0  0  0  0
  8 20  2  0  0  0  0
  9  3  1  0  0  0  0
 10 14  2  0  0  0  0
 10 16  1  0  0  0  0
 11  1  1  0  0  0  0
 12 21  1  0  0  0  0
 15 10  1  0  0  0  0
 16  5  1  0  0  0  0
 17  1  2  0  0  0  0
 17  7  1  0  0  0  0
 18  6  1  0  0  0  0
 18 23  1  0  0  0  0
 19 20  1  0  0  0  0
 19 14  1  0  0  0  0
 21 15  2  0  0  0  0
 22  3  1  0  0  0  0
 22 12  2  0  0  0  0
 23 22  1  0  0  0  0
 24 28  1  0  0  0  0
 24 27  1  0  0  0  0
 25 28  2  0  0  0  0
 26 29  1  0  0  0  0
 29 30  2  0  0  0  0
 29 31  1  0  0  0  0
 30 25  1  0  0  0  0
 31 24  2  0  0  0  0
M  END
>  <MODEL>
3

>  <REMARK>
 VINA RESULT:      -9.0      4.524      7.043
  Name = 
  1 active torsions:
  status: ('A' for Active; 'I' for Inactive)
    1  A    between atoms: C_9  and  C_22
                            x       y       z     vdW  Elec       q    Type
                         _______ _______ _______ _____ _____    ______ ____

>  <TORSDO>
F 1

$$$$
=
 OpenBabel11052422313D

 31 35  0  0  1  0  0  0  0  0999 V2000
  161.8540  210.8100  150.0790 C   0  0  0  0  0  0  0  0  0  0  0  0
  161.2900  207.3120  151.3550 C   0  0  0  0  0  0  0  0  0  0  0  0
  161.1320  207.4000  152.7710 C   0  0  0  0  0  0  0  0  0  0  0  0
  161.5870  205.1390  146.5700 O   0  0  0  0  0  0  0  0  0  0  0  0
  161.3940  204.2260  147.4170 C   0  0  0  0  0  0  0  0  0  0  0  0
  161.3670  208.6210  154.9820 C   0  0  1  0  0  3  0  0  0  0  0  0
  161.5160  208.4260  150.4920 C   0  0  0  0  0  0  0  0  0  0  0  0
  161.9720  210.5700  148.7110 C   0  0  0  0  0  3  0  0  0  0  0  0
  161.0630  208.7280  153.4940 C   0  0  0  0  0  2  0  0  0  0  0  0
  161.3540  205.8620  149.3830 C   0  0  0  0  0  0  0  0  0  0  0  0
  161.9560  212.0740  150.5570 F   0  0  0  0  0  0  0  0  0  0  0  0
  160.8780  205.0210  152.8660 N   0  0  0  0  0  0  0  0  0  0  0  0
  161.1050  209.9540  155.6460 C   0  0  0  0  0  1  0  0  0  0  0  0
  161.5610  206.9470  148.5960 N   0  0  0  0  0  0  0  0  0  0  0  0
  161.2190  206.0230  150.7680 C   0  0  0  0  0  0  0  0  0  0  0  0
  161.2740  204.5490  148.8100 N   0  0  0  0  0  2  0  0  0  0  0  0
  161.6290  209.7480  150.9580 C   0  0  0  0  0  3  0  0  0  0  0  0
  160.4660  207.5630  155.5890 C   0  0  0  0  0  2  0  0  0  0  0  0
  161.6450  208.2010  149.0980 C   0  0  0  0  0  0  0  0  0  0  0  0
  161.8690  209.2680  148.2230 C   0  0  0  0  0  3  0  0  0  0  0  0
  161.0170  204.9300  151.5480 N   0  0  0  0  0  0  0  0  0  0  0  0
  160.9130  206.2120  153.5080 C   0  0  0  0  0  0  0  0  0  0  0  0
  160.8310  206.2030  155.0100 C   0  0  0  0  0  2  0  0  0  0  0  0
  161.1180  200.1000  146.2580 C   0  0  0  0  0  0  0  0  0  0  0  0
  161.6510  201.8010  147.8890 C   0  0  0  0  0  3  0  0  0  0  0  0
  160.4560  203.3970  144.7610 O   0  0  0  0  0  1  0  0  0  0  0  0
  161.0130  198.4120  145.8060 Cl  0  0  0  0  0  0  0  0  0  0  0  0
  161.5680  200.4550  147.5300 C   0  0  0  0  0  3  0  0  0  0  0  0
  160.8310  202.4420  145.6990 C   0  0  0  0  0  0  0  0  0  0  0  0
  161.2860  202.8120  146.9850 C   0  0  0  0  0  0  0  0  0  0  0  0
  160.7510  201.0910  145.3470 C   0  0  0  0  0  3  0  0  0  0  0  0
  1 11  1  0  0  0  0
  1 17  1  0  0  0  0
  2  3  1  0  0  0  0
  3  9  1  0  0  0  0
  3 22  2  0  0  0  0
  4  5  2  0  0  0  0
  5 16  1  0  0  0  0
  6 18  1  0  0  0  0
  6 13  1  1  0  0  0
  7 17  2  0  0  0  0
  7  2  1  0  0  0  0
  8  1  2  0  0  0  0
  9  6  1  0  0  0  0
 10 15  1  0  0  0  0
 12 22  1  0  0  0  0
 14 19  1  0  0  0  0
 14 10  2  0  0  0  0
 15  2  2  0  0  0  0
 15 21  1  0  0  0  0
 16 10  1  0  0  0  0
 19  7  1  0  0  0  0
 20  8  1  0  0  0  0
 20 19  2  0  0  0  0
 21 12  2  0  0  0  0
 22 23  1  0  0  0  0
 23 18  1  0  0  0  0
 24 28  1  0  0  0  0
 26 29  1  0  0  0  0
 27 24  1  0  0  0  0
 28 25  2  0  0  0  0
 29 30  2  0  0  0  0
 30  5  1  0  0  0  0
 30 25  1  0  0  0  0
 31 29  1  0  0  0  0
 31 24  2  0  0  0  0
M  END
>  <MODEL>
4

>  <REMARK>
 VINA RESULT:      -8.3      4.387      7.666
  Name = 
  1 active torsions:
  status: ('A' for Active; 'I' for Inactive)
    1  A    between atoms: C_9  and  C_22
                            x       y       z     vdW  Elec       q    Type
                         _______ _______ _______ _____ _____    ______ ____

>  <TORSDO>
F 1

$$$$
=
 OpenBabel11052422313D

 31 35  0  0  1  0  0  0  0  0999 V2000
  161.6530  205.5070  146.0300 C   0  0  0  0  0  0  0  0  0  0  0  0
  161.2030  204.9540  149.7280 C   0  0  0  0  0  0  0  0  0  0  0  0
  161.1240  203.5450  149.9380 C   0  0  0  0  0  0  0  0  0  0  0  0
  161.2830  210.0940  150.8650 O   0  0  0  0  0  0  0  0  0  0  0  0
  161.1190  209.4460  151.9340 C   0  0  0  0  0  0  0  0  0  0  0  0
  160.7780  201.1720  149.1140 C   0  0  1  0  0  3  0  0  0  0  0  0
  161.3830  205.5780  148.4570 C   0  0  0  0  0  0  0  0  0  0  0  0
  161.7280  206.8980  145.9840 C   0  0  0  0  0  3  0  0  0  0  0  0
  161.3550  202.5500  148.8210 C   0  0  0  0  0  2  0  0  0  0  0  0
  161.1700  207.1850  150.7390 C   0  0  0  0  0  0  0  0  0  0  0  0
  161.7480  204.7850  144.8880 F   0  0  0  0  0  0  0  0  0  0  0  0
  160.8300  203.9340  152.2820 N   0  0  0  0  0  0  0  0  0  0  0  0
  161.2050  200.2070  148.0290 C   0  0  0  0  0  1  0  0  0  0  0  0
  161.3480  207.7390  149.5140 N   0  0  0  0  0  0  0  0  0  0  0  0
  161.0920  205.7920  150.8670 C   0  0  0  0  0  0  0  0  0  0  0  0
  161.0600  208.0130  151.9060 N   0  0  0  0  0  2  0  0  0  0  0  0
  161.4810  204.8570  147.2540 C   0  0  0  0  0  3  0  0  0  0  0  0
  161.3040  200.6970  150.4540 C   0  0  0  0  0  2  0  0  0  0  0  0
  161.4540  206.9930  148.3900 C   0  0  0  0  0  0  0  0  0  0  0  0
  161.6270  207.6390  147.1610 C   0  0  0  0  0  3  0  0  0  0  0  0
  160.9090  205.2480  152.0980 N   0  0  0  0  0  0  0  0  0  0  0  0
  160.9450  203.0600  151.2540 C   0  0  0  0  0  0  0  0  0  0  0  0
  160.7570  201.5970  151.5530 C   0  0  0  0  0  2  0  0  0  0  0  0
  160.8310  211.4660  155.7130 C   0  0  0  0  0  0  0  0  0  0  0  0
  162.0290  210.0490  154.1650 C   0  0  0  0  0  3  0  0  0  0  0  0
  158.7940  211.0810  152.6710 O   0  0  0  0  0  1  0  0  0  0  0  0
  160.7330  212.2810  157.2580 Cl  0  0  0  0  0  0  0  0  0  0  0  0
  161.9530  210.6980  155.3980 C   0  0  0  0  0  3  0  0  0  0  0  0
  159.8560  210.9370  153.5560 C   0  0  0  0  0  0  0  0  0  0  0  0
  160.9880  210.1560  153.2290 C   0  0  0  0  0  0  0  0  0  0  0  0
  159.7870  211.5840  154.7940 C   0  0  0  0  0  3  0  0  0  0  0  0
  1 17  1  0  0  0  0
  2  3  2  0  0  0  0
  2 15  1  0  0  0  0
  3 22  1  0  0  0  0
  4  5  2  0  0  0  0
  5 30  1  0  0  0  0
  6 13  1  6  0  0  0
  6 18  1  0  0  0  0
  7  2  1  0  0  0  0
  8  1  2  0  0  0  0
  8 20  1  0  0  0  0
  9  6  1  0  0  0  0
  9  3  1  0  0  0  0
 10 15  1  0  0  0  0
 10 16  1  0  0  0  0
 11  1  1  0  0  0  0
 14 10  2  0  0  0  0
 15 21  2  0  0  0  0
 16  5  1  0  0  0  0
 17  7  2  0  0  0  0
 18 23  1  0  0  0  0
 19  7  1  0  0  0  0
 19 14  1  0  0  0  0
 20 19  2  0  0  0  0
 21 12  1  0  0  0  0
 22 23  1  0  0  0  0
 22 12  2  0  0  0  0
 24 27  1  0  0  0  0
 25 28  2  0  0  0  0
 26 29  1  0  0  0  0
 28 24  1  0  0  0  0
 29 31  1  0  0  0  0
 30 29  2  0  0  0  0
 30 25  1  0  0  0  0
 31 24  2  0  0  0  0
M  END
>  <MODEL>
5

>  <REMARK>
 VINA RESULT:      -8.0      4.480      6.544
  Name = 
  1 active torsions:
  status: ('A' for Active; 'I' for Inactive)
    1  A    between atoms: C_9  and  C_22
                            x       y       z     vdW  Elec       q    Type
                         _______ _______ _______ _____ _____    ______ ____

>  <TORSDO>
F 1

$$$$
=
 OpenBabel11052422313D

 31 35  0  0  1  0  0  0  0  0999 V2000
  161.8130  205.3250  145.7140 C   0  0  0  0  0  0  0  0  0  0  0  0
  161.2090  204.5050  149.3390 C   0  0  0  0  0  0  0  0  0  0  0  0
  161.1010  203.0850  149.4380 C   0  0  0  0  0  0  0  0  0  0  0  0
  161.3230  209.5420  150.8640 O   0  0  0  0  0  0  0  0  0  0  0  0
  161.1070  208.8190  151.8740 C   0  0  0  0  0  0  0  0  0  0  0  0
  160.7520  200.7870  148.4240 C   0  0  1  0  0  3  0  0  0  0  0  0
  161.4480  205.2190  148.1270 C   0  0  0  0  0  0  0  0  0  0  0  0
  161.9110  206.7150  145.7760 C   0  0  0  0  0  3  0  0  0  0  0  0
  161.3610  202.1730  148.2590 C   0  0  0  0  0  2  0  0  0  0  0  0
  161.1700  206.6530  150.5140 C   0  0  0  0  0  0  0  0  0  0  0  0
  161.9420  204.6890  144.5240 F   0  0  0  0  0  0  0  0  0  0  0  0
  160.7210  203.3020  151.7920 N   0  0  0  0  0  0  0  0  0  0  0  0
  161.2070  199.8990  147.2870 C   0  0  0  0  0  1  0  0  0  0  0  0
  161.4050  207.2950  149.3420 N   0  0  0  0  0  0  0  0  0  0  0  0
  161.0660  205.2560  150.5330 C   0  0  0  0  0  0  0  0  0  0  0  0
  161.0270  207.3930  151.7350 N   0  0  0  0  0  2  0  0  0  0  0  0
  161.5830  204.5880  146.8770 C   0  0  0  0  0  3  0  0  0  0  0  0
  161.2170  200.2040  149.7440 C   0  0  0  0  0  2  0  0  0  0  0  0
  161.5440  206.6330  148.1700 C   0  0  0  0  0  0  0  0  0  0  0  0
  161.7750  207.3660  147.0010 C   0  0  0  0  0  3  0  0  0  0  0  0
  160.8270  204.6240  151.7110 N   0  0  0  0  0  0  0  0  0  0  0  0
  160.8620  202.5060  150.7070 C   0  0  0  0  0  0  0  0  0  0  0  0
  160.6420  201.0280  150.8860 C   0  0  0  0  0  2  0  0  0  0  0  0
  160.6010  210.6860  155.7080 C   0  0  0  0  0  0  0  0  0  0  0  0
  160.7390  210.8190  153.2990 C   0  0  0  0  0  3  0  0  0  0  0  0
  161.1550  207.2970  154.3840 O   0  0  0  0  0  1  0  0  0  0  0  0
  160.3930  211.4670  157.2600 Cl  0  0  0  0  0  0  0  0  0  0  0  0
  160.5720  211.4430  154.5370 C   0  0  0  0  0  3  0  0  0  0  0  0
  160.9630  208.6730  154.4050 C   0  0  0  0  0  0  0  0  0  0  0  0
  160.9360  209.4320  153.2130 C   0  0  0  0  0  0  0  0  0  0  0  0
  160.7960  209.3060  155.6410 C   0  0  0  0  0  3  0  0  0  0  0  0
  1  8  2  0  0  0  0
  1 17  1  0  0  0  0
  2  3  2  0  0  0  0
  2 15  1  0  0  0  0
  3 22  1  0  0  0  0
  4  5  2  0  0  0  0
  5 30  1  0  0  0  0
  6 13  1  6  0  0  0
  6 18  1  0  0  0  0
  7 19  1  0  0  0  0
  7  2  1  0  0  0  0
  8 20  1  0  0  0  0
  9  6  1  0  0  0  0
  9  3  1  0  0  0  0
 10 15  1  0  0  0  0
 10 16  1  0  0  0  0
 11  1  1  0  0  0  0
 14 10  2  0  0  0  0
 15 21  2  0  0  0  0
 16  5  1  0  0  0  0
 17  7  2  0  0  0  0
 18 23  1  0  0  0  0
 19 14  1  0  0  0  0
 20 19  2  0  0  0  0
 21 12  1  0  0  0  0
 22 23  1  0  0  0  0
 22 12  2  0  0  0  0
 24 27  1  0  0  0  0
 25 28  1  0  0  0  0
 26 29  1  0  0  0  0
 28 24  2  0  0  0  0
 29 31  2  0  0  0  0
 30 25  2  0  0  0  0
 30 29  1  0  0  0  0
 31 24  1  0  0  0  0
M  END
>  <MODEL>
6

>  <REMARK>
 VINA RESULT:      -7.8      4.599      6.936
  Name = 
  1 active torsions:
  status: ('A' for Active; 'I' for Inactive)
    1  A    between atoms: C_9  and  C_22
                            x       y       z     vdW  Elec       q    Type
                         _______ _______ _______ _____ _____    ______ ____

>  <TORSDO>
F 1

$$$$
=
 OpenBabel11052422313D

 31 35  0  0  1  0  0  0  0  0999 V2000
  161.0700  205.2070  144.6810 C   0  0  0  0  0  0  0  0  0  0  0  0
  161.1290  203.7830  148.1670 C   0  0  0  0  0  0  0  0  0  0  0  0
  161.1640  202.3620  148.0420 C   0  0  0  0  0  0  0  0  0  0  0  0
  161.0400  208.5110  150.4800 O   0  0  0  0  0  0  0  0  0  0  0  0
  161.0530  207.6240  151.3760 C   0  0  0  0  0  0  0  0  0  0  0  0
  160.8610  200.2200  146.7190 C   0  0  1  0  0  3  0  0  0  0  0  0
  161.1070  204.6950  147.0700 C   0  0  0  0  0  0  0  0  0  0  0  0
  161.0530  206.5730  144.9600 C   0  0  0  0  0  3  0  0  0  0  0  0
  161.3110  201.6740  146.7020 C   0  0  0  0  0  2  0  0  0  0  0  0
  161.0890  205.7100  149.6780 C   0  0  0  0  0  0  0  0  0  0  0  0
  161.0630  204.7770  143.3960 F   0  0  0  0  0  0  0  0  0  0  0  0
  161.1480  202.1750  150.4290 N   0  0  0  0  0  0  0  0  0  0  0  0
  161.2050  199.5710  145.3960 C   0  0  0  0  0  1  0  0  0  0  0  0
  161.0760  206.5450  148.6090 N   0  0  0  0  0  0  0  0  0  0  0  0
  161.1130  204.3240  149.4780 C   0  0  0  0  0  0  0  0  0  0  0  0
  161.0780  206.2360  151.0130 N   0  0  0  0  0  2  0  0  0  0  0  0
  161.0960  204.2800  145.7260 C   0  0  0  0  0  3  0  0  0  0  0  0
  161.5820  199.4990  147.8420 C   0  0  0  0  0  2  0  0  0  0  0  0
  161.0830  206.0890  147.3340 C   0  0  0  0  0  0  0  0  0  0  0  0
  161.0580  207.0110  146.2830 C   0  0  0  0  0  3  0  0  0  0  0  0
  161.1220  203.4980  150.5560 N   0  0  0  0  0  0  0  0  0  0  0  0
  161.1840  201.5740  149.2170 C   0  0  0  0  0  0  0  0  0  0  0  0
  161.1260  200.0710  149.1770 C   0  0  0  0  0  2  0  0  0  0  0  0
  161.0520  208.6260  155.5510 C   0  0  0  0  0  0  0  0  0  0  0  0
  161.3160  207.0160  153.7690 C   0  0  0  0  0  3  0  0  0  0  0  0
  160.5010  210.3410  152.3420 O   0  0  0  0  0  1  0  0  0  0  0  0
  161.0570  209.0130  157.2580 Cl  0  0  0  0  0  0  0  0  0  0  0  0
  161.3200  207.3230  155.1310 C   0  0  0  0  0  3  0  0  0  0  0  0
  160.7760  209.3200  153.2450 C   0  0  0  0  0  0  0  0  0  0  0  0
  161.0450  208.0030  152.8080 C   0  0  0  0  0  0  0  0  0  0  0  0
  160.7810  209.6200  154.6110 C   0  0  0  0  0  3  0  0  0  0  0  0
  1  8  2  0  0  0  0
  1 17  1  0  0  0  0
  2 15  1  0  0  0  0
  3  2  2  0  0  0  0
  3 22  1  0  0  0  0
  4  5  2  0  0  0  0
  5 30  1  0  0  0  0
  6 13  1  6  0  0  0
  6 18  1  0  0  0  0
  7 19  1  0  0  0  0
  7  2  1  0  0  0  0
  8 20  1  0  0  0  0
  9  6  1  0  0  0  0
  9  3  1  0  0  0  0
 10 16  1  0  0  0  0
 11  1  1  0  0  0  0
 12 21  1  0  0  0  0
 14 10  2  0  0  0  0
 15 10  1  0  0  0  0
 15 21  2  0  0  0  0
 16  5  1  0  0  0  0
 17  7  2  0  0  0  0
 18 23  1  0  0  0  0
 19 14  1  0  0  0  0
 20 19  2  0  0  0  0
 22 12  2  0  0  0  0
 23 22  1  0  0  0  0
 24 27  1  0  0  0  0
 25 28  2  0  0  0  0
 26 29  1  0  0  0  0
 28 24  1  0  0  0  0
 29 31  1  0  0  0  0
 30 29  2  0  0  0  0
 30 25  1  0  0  0  0
 31 24  2  0  0  0  0
M  END
>  <MODEL>
7

>  <REMARK>
 VINA RESULT:      -6.6      4.933      7.443
  Name = 
  1 active torsions:
  status: ('A' for Active; 'I' for Inactive)
    1  A    between atoms: C_9  and  C_22
                            x       y       z     vdW  Elec       q    Type
                         _______ _______ _______ _____ _____    ______ ____

>  <TORSDO>
F 1

$$$$
