=
 OpenBabel11052421593D

 30 30  0  0  1  0  0  0  0  0999 V2000
  162.3290  207.0780  151.6180 C   0  0  0  0  0  2  0  0  0  0  0  0
  162.3780  208.3140  150.7340 C   0  0  0  0  0  2  0  0  0  0  0  0
  161.5340  208.1050  149.4890 C   0  0  0  0  0  2  0  0  0  0  0  0
  162.1840  207.2330  148.6110 O   0  0  0  0  0  0  0  0  0  0  0  0
  161.1700  206.4130  148.1100 C   0  0  0  0  0  2  0  0  0  0  0  0
  161.7290  205.3430  147.1660 C   0  0  2  0  0  3  0  0  0  0  0  0
  161.0590  205.3790  145.8280 C   0  0  0  0  0  3  0  0  0  0  0  0
  160.3410  206.3180  145.5220 O   0  0  0  0  0  0  0  0  0  0  0  0
  161.7160  203.9260  147.7510 C   0  0  2  0  0  3  0  0  0  0  0  0
  161.3900  202.9790  146.7770 O   0  0  0  0  0  1  0  0  0  0  0  0
  160.7550  203.8250  148.9310 C   0  0  0  0  0  2  0  0  0  0  0  0
  161.3070  202.9140  150.0250 C   0  0  2  0  0  3  0  0  0  0  0  0
  160.6250  201.5470  150.0540 C   0  0  0  0  0  2  0  0  0  0  0  0
  159.5410  201.5080  149.1730 O   0  0  0  0  0  1  0  0  0  0  0  0
  161.2430  203.5890  151.3620 C   0  0  0  0  0  3  0  0  0  0  0  0
  160.7200  203.0430  152.3210 O   0  0  0  0  0  0  0  0  0  0  0  0
  160.9890  206.9930  152.3280 C   0  0  0  0  0  2  0  0  0  0  0  0
  161.1530  206.4230  153.7250 C   0  0  0  0  0  2  0  0  0  0  0  0
  160.4020  207.3000  154.7090 C   0  0  0  0  0  2  0  0  0  0  0  0
  161.3330  207.8200  155.7970 C   0  0  0  0  0  2  0  0  0  0  0  0
  160.7930  209.0870  156.4590 C   0  0  0  0  0  2  0  0  0  0  0  0
  159.7970  209.8230  155.5730 C   0  0  0  0  0  2  0  0  0  0  0  0
  160.1060  211.3070  155.5130 C   0  0  2  0  0  3  0  0  0  0  0  0
  159.2240  211.9500  154.5190 C   0  0  2  0  0  3  0  0  0  0  0  0
  160.5620  211.6370  154.2240 O   0  0  0  0  0  0  0  0  0  0  0  0
  159.1090  213.4320  154.8140 C   0  0  0  0  0  2  0  0  0  0  0  0
  157.4170  213.8380  155.3390 S   0  0  0  0  0  0  0  0  0  0  0  0
  155.3090  213.0870  153.9540 O   0  0  0  0  0  1  0  0  0  0  0  0
  156.6840  213.2410  153.7860 C   0  0  1  0  0  3  0  0  0  0  0  0
  156.9970  214.4450  152.4650 S   0  0  0  0  0  1  0  0  0  0  0  0
  1 17  1  0  0  0  0
  2  1  1  0  0  0  0
  3  2  1  0  0  0  0
  4  3  1  0  0  0  0
  5  4  1  0  0  0  0
  6  7  1  6  0  0  0
  6  9  1  0  0  0  0
  6  5  1  0  0  0  0
  8  7  2  0  0  0  0
  9 10  1  6  0  0  0
  9 11  1  0  0  0  0
 12 11  1  6  0  0  0
 12 13  1  0  0  0  0
 12 15  1  0  0  0  0
 14 13  1  0  0  0  0
 15 16  2  0  0  0  0
 17 18  1  0  0  0  0
 18 19  1  0  0  0  0
 19 20  1  0  0  0  0
 20 21  1  0  0  0  0
 22 21  1  0  0  0  0
 23 22  1  6  0  0  0
 24 26  1  1  0  0  0
 24 23  1  0  0  0  0
 25 24  1  0  0  0  0
 25 23  1  0  0  0  0
 26 27  1  0  0  0  0
 29 30  1  6  0  0  0
 29 28  1  0  0  0  0
 29 27  1  0  0  0  0
M  END
>  <MODEL>
1

>  <REMARK>
 VINA RESULT:      -5.4      0.000      0.000
  Name = 
  21 active torsions:
  status: ('A' for Active; 'I' for Inactive)
    1  A    between atoms: C_1  and  C_4
    2  A    between atoms: C_1  and  C_8
    3  A    between atoms: C_2  and  C_18
    4  A    between atoms: C_3  and  C_11
    5  A    between atoms: C_3  and  C_19
    6  A    between atoms: C_3  and  C_25
    7  A    between atoms: C_4  and  C_13
    8  A    between atoms: C_5  and  S_9
    9  A    between atoms: C_5  and  C_12
   10  A    between atoms: C_7  and  C_16
   11  A    between atoms: C_7  and  C_26
   12  A    between atoms: S_9  and  C_17
   13  A    between atoms: O_10  and  C_15
   14  A    between atoms: O_10  and  C_25
   15  A    between atoms: C_13  and  C_27
   16  A    between atoms: C_15  and  C_26
   17  A    between atoms: C_16  and  C_30
   18  A    between atoms: C_18  and  C_20
   19  A    between atoms: C_18  and  C_22
   20  A    between atoms: C_19  and  C_20
   21  A    between atoms: C_27  and  C_30
                            x       y       z     vdW  Elec       q    Type
                         _______ _______ _______ _____ _____    ______ ____

>  <TORSDO>
F 21

$$$$
=
 OpenBabel11052421593D

 30 30  0  0  1  0  0  0  0  0999 V2000
  162.2450  207.2800  151.5530 C   0  0  0  0  0  2  0  0  0  0  0  0
  162.2880  208.6450  150.8870 C   0  0  0  0  0  2  0  0  0  0  0  0
  161.9460  208.5240  149.4120 C   0  0  0  0  0  2  0  0  0  0  0  0
  162.1730  207.2170  148.9730 O   0  0  0  0  0  0  0  0  0  0  0  0
  161.0660  206.9130  148.1750 C   0  0  0  0  0  2  0  0  0  0  0  0
  161.4650  206.0640  146.9640 C   0  0  2  0  0  3  0  0  0  0  0  0
  160.3770  206.0170  145.9370 C   0  0  0  0  0  3  0  0  0  0  0  0
  160.6280  206.2300  144.7620 O   0  0  0  0  0  0  0  0  0  0  0  0
  161.9450  204.6520  147.3240 C   0  0  2  0  0  3  0  0  0  0  0  0
  162.3590  203.9530  146.1860 O   0  0  0  0  0  1  0  0  0  0  0  0
  160.8620  203.8720  148.0610 C   0  0  0  0  0  2  0  0  0  0  0  0
  161.4470  203.0520  149.2080 C   0  0  2  0  0  3  0  0  0  0  0  0
  160.8280  201.6590  149.3140 C   0  0  0  0  0  2  0  0  0  0  0  0
  159.4590  201.6960  149.0360 O   0  0  0  0  0  1  0  0  0  0  0  0
  161.3430  203.7990  150.5040 C   0  0  0  0  0  3  0  0  0  0  0  0
  160.2620  203.9920  151.0370 O   0  0  0  0  0  0  0  0  0  0  0  0
  160.9980  207.1530  152.4110 C   0  0  0  0  0  2  0  0  0  0  0  0
  161.3220  206.5050  153.7440 C   0  0  0  0  0  2  0  0  0  0  0  0
  160.5660  207.2280  154.8430 C   0  0  0  0  0  2  0  0  0  0  0  0
  161.5050  208.0910  155.6760 C   0  0  0  0  0  2  0  0  0  0  0  0
  161.0110  209.5320  155.7940 C   0  0  0  0  0  2  0  0  0  0  0  0
  159.8910  209.8410  154.8090 C   0  0  0  0  0  2  0  0  0  0  0  0
  160.3480  210.8220  153.7460 C   0  0  2  0  0  3  0  0  0  0  0  0
  159.1670  211.4360  153.1080 C   0  0  2  0  0  3  0  0  0  0  0  0
  159.8840  210.3970  152.4880 O   0  0  0  0  0  0  0  0  0  0  0  0
  159.5520  212.7580  152.4740 C   0  0  0  0  0  2  0  0  0  0  0  0
  158.2020  213.3640  151.4190 S   0  0  0  0  0  0  0  0  0  0  0  0
  160.4340  213.0240  150.0670 O   0  0  0  0  0  1  0  0  0  0  0  0
  159.3340  213.8800  150.0940 C   0  0  1  0  0  3  0  0  0  0  0  0
  158.4740  213.8050  148.4980 S   0  0  0  0  0  1  0  0  0  0  0  0
  1 17  1  0  0  0  0
  2  1  1  0  0  0  0
  3  2  1  0  0  0  0
  4  3  1  0  0  0  0
  5  4  1  0  0  0  0
  6  7  1  6  0  0  0
  6  9  1  0  0  0  0
  6  5  1  0  0  0  0
  8  7  2  0  0  0  0
  9 10  1  6  0  0  0
  9 11  1  0  0  0  0
 12 11  1  6  0  0  0
 12 13  1  0  0  0  0
 12 15  1  0  0  0  0
 14 13  1  0  0  0  0
 15 16  2  0  0  0  0
 17 18  1  0  0  0  0
 18 19  1  0  0  0  0
 19 20  1  0  0  0  0
 20 21  1  0  0  0  0
 22 21  1  0  0  0  0
 23 22  1  1  0  0  0
 24 26  1  6  0  0  0
 24 23  1  0  0  0  0
 25 24  1  0  0  0  0
 25 23  1  0  0  0  0
 27 26  1  0  0  0  0
 28 29  1  0  0  0  0
 29 30  1  6  0  0  0
 29 27  1  0  0  0  0
M  END
>  <MODEL>
2

>  <REMARK>
 VINA RESULT:      -5.4      1.740      2.058
  Name = 
  21 active torsions:
  status: ('A' for Active; 'I' for Inactive)
    1  A    between atoms: C_1  and  C_4
    2  A    between atoms: C_1  and  C_8
    3  A    between atoms: C_2  and  C_18
    4  A    between atoms: C_3  and  C_11
    5  A    between atoms: C_3  and  C_19
    6  A    between atoms: C_3  and  C_25
    7  A    between atoms: C_4  and  C_13
    8  A    between atoms: C_5  and  S_9
    9  A    between atoms: C_5  and  C_12
   10  A    between atoms: C_7  and  C_16
   11  A    between atoms: C_7  and  C_26
   12  A    between atoms: S_9  and  C_17
   13  A    between atoms: O_10  and  C_15
   14  A    between atoms: O_10  and  C_25
   15  A    between atoms: C_13  and  C_27
   16  A    between atoms: C_15  and  C_26
   17  A    between atoms: C_16  and  C_30
   18  A    between atoms: C_18  and  C_20
   19  A    between atoms: C_18  and  C_22
   20  A    between atoms: C_19  and  C_20
   21  A    between atoms: C_27  and  C_30
                            x       y       z     vdW  Elec       q    Type
                         _______ _______ _______ _____ _____    ______ ____

>  <TORSDO>
F 21

$$$$
=
 OpenBabel11052421593D

 30 30  0  0  1  0  0  0  0  0999 V2000
  161.1550  205.8880  151.8590 C   0  0  0  0  0  2  0  0  0  0  0  0
  161.8670  206.2690  153.1470 C   0  0  0  0  0  2  0  0  0  0  0  0
  160.8570  206.5310  154.2510 C   0  0  0  0  0  2  0  0  0  0  0  0
  161.2740  207.6100  155.0350 O   0  0  0  0  0  0  0  0  0  0  0  0
  160.6930  208.7300  154.4340 C   0  0  0  0  0  2  0  0  0  0  0  0
  161.7570  209.7020  153.9130 C   0  0  2  0  0  3  0  0  0  0  0  0
  162.0850  210.7570  154.9220 C   0  0  0  0  0  3  0  0  0  0  0  0
  162.7110  210.4740  155.9310 O   0  0  0  0  0  0  0  0  0  0  0  0
  161.4200  210.3260  152.5530 C   0  0  2  0  0  3  0  0  0  0  0  0
  160.0720  210.1420  152.2320 O   0  0  0  0  0  1  0  0  0  0  0  0
  162.3090  209.7620  151.4510 C   0  0  0  0  0  2  0  0  0  0  0  0
  161.6870  209.9640  150.0720 C   0  0  2  0  0  3  0  0  0  0  0  0
  162.0810  208.8690  149.0800 C   0  0  0  0  0  2  0  0  0  0  0  0
  162.5720  207.7430  149.7450 O   0  0  0  0  0  1  0  0  0  0  0  0
  162.0050  211.3280  149.5390 C   0  0  0  0  0  3  0  0  0  0  0  0
  162.5740  211.4720  148.4680 O   0  0  0  0  0  0  0  0  0  0  0  0
  161.7800  204.6390  151.2630 C   0  0  0  0  0  2  0  0  0  0  0  0
  160.8710  203.4390  151.4470 C   0  0  0  0  0  2  0  0  0  0  0  0
  160.6120  202.8010  150.0950 C   0  0  0  0  0  2  0  0  0  0  0  0
  161.1010  201.3590  150.0690 C   0  0  0  0  0  2  0  0  0  0  0  0
  161.2700  200.8330  148.6440 C   0  0  0  0  0  2  0  0  0  0  0  0
  160.3450  201.5330  147.6570 C   0  0  0  0  0  2  0  0  0  0  0  0
  161.1150  202.0580  146.4600 C   0  0  2  0  0  3  0  0  0  0  0  0
  160.2660  203.0060  145.7110 C   0  0  2  0  0  3  0  0  0  0  0  0
  160.4530  201.6810  145.2780 O   0  0  0  0  0  0  0  0  0  0  0  0
  161.1350  203.9310  144.8820 C   0  0  0  0  0  2  0  0  0  0  0  0
  160.5670  205.6490  145.0600 S   0  0  0  0  0  0  0  0  0  0  0  0
  161.1090  205.7140  147.6340 O   0  0  0  0  0  1  0  0  0  0  0  0
  161.7250  205.9970  146.4160 C   0  0  1  0  0  3  0  0  0  0  0  0
  163.2030  204.9600  146.2340 S   0  0  0  0  0  1  0  0  0  0  0  0
  1  2  1  0  0  0  0
  2  3  1  0  0  0  0
  3  4  1  0  0  0  0
  5  4  1  0  0  0  0
  6  5  1  1  0  0  0
  6  7  1  0  0  0  0
  7  8  2  0  0  0  0
  9 10  1  6  0  0  0
  9  6  1  0  0  0  0
 11  9  1  0  0  0  0
 12 13  1  6  0  0  0
 12 11  1  0  0  0  0
 13 14  1  0  0  0  0
 15 12  1  0  0  0  0
 16 15  2  0  0  0  0
 17 18  1  0  0  0  0
 17  1  1  0  0  0  0
 19 18  1  0  0  0  0
 20 19  1  0  0  0  0
 21 20  1  0  0  0  0
 22 21  1  0  0  0  0
 23 22  1  1  0  0  0
 24 26  1  6  0  0  0
 24 23  1  0  0  0  0
 25 24  1  0  0  0  0
 25 23  1  0  0  0  0
 26 27  1  0  0  0  0
 27 29  1  0  0  0  0
 29 30  1  6  0  0  0
 29 28  1  0  0  0  0
M  END
>  <MODEL>
3

>  <REMARK>
 VINA RESULT:      -5.3      4.171      9.385
  Name = 
  21 active torsions:
  status: ('A' for Active; 'I' for Inactive)
    1  A    between atoms: C_1  and  C_4
    2  A    between atoms: C_1  and  C_8
    3  A    between atoms: C_2  and  C_18
    4  A    between atoms: C_3  and  C_11
    5  A    between atoms: C_3  and  C_19
    6  A    between atoms: C_3  and  C_25
    7  A    between atoms: C_4  and  C_13
    8  A    between atoms: C_5  and  S_9
    9  A    between atoms: C_5  and  C_12
   10  A    between atoms: C_7  and  C_16
   11  A    between atoms: C_7  and  C_26
   12  A    between atoms: S_9  and  C_17
   13  A    between atoms: O_10  and  C_15
   14  A    between atoms: O_10  and  C_25
   15  A    between atoms: C_13  and  C_27
   16  A    between atoms: C_15  and  C_26
   17  A    between atoms: C_16  and  C_30
   18  A    between atoms: C_18  and  C_20
   19  A    between atoms: C_18  and  C_22
   20  A    between atoms: C_19  and  C_20
   21  A    between atoms: C_27  and  C_30
                            x       y       z     vdW  Elec       q    Type
                         _______ _______ _______ _____ _____    ______ ____

>  <TORSDO>
F 21

$$$$
=
 OpenBabel11052421593D

 30 30  0  0  1  0  0  0  0  0999 V2000
  161.2390  207.3420  150.1340 C   0  0  0  0  0  2  0  0  0  0  0  0
  161.7960  207.8600  151.4500 C   0  0  0  0  0  2  0  0  0  0  0  0
  162.0450  209.3560  151.3660 C   0  0  0  0  0  2  0  0  0  0  0  0
  161.5660  209.9870  152.5160 O   0  0  0  0  0  0  0  0  0  0  0  0
  161.3860  208.9520  153.4390 C   0  0  0  0  0  2  0  0  0  0  0  0
  161.0090  209.4940  154.8220 C   0  0  2  0  0  3  0  0  0  0  0  0
  160.2040  208.5050  155.6040 C   0  0  0  0  0  3  0  0  0  0  0  0
  160.0630  207.3620  155.1970 O   0  0  0  0  0  0  0  0  0  0  0  0
  160.3180  210.8630  154.7880 C   0  0  2  0  0  3  0  0  0  0  0  0
  160.9450  211.7680  155.6500 O   0  0  0  0  0  1  0  0  0  0  0  0
  158.8370  210.7430  155.1290 C   0  0  0  0  0  2  0  0  0  0  0  0
  157.9690  211.5020  154.1280 C   0  0  2  0  0  3  0  0  0  0  0  0
  158.6790  211.7460  152.7970 C   0  0  0  0  0  2  0  0  0  0  0  0
  158.0770  212.7910  152.0920 O   0  0  0  0  0  1  0  0  0  0  0  0
  157.4640  212.7810  154.7240 C   0  0  0  0  0  3  0  0  0  0  0  0
  156.3230  212.8710  155.1530 O   0  0  0  0  0  0  0  0  0  0  0  0
  160.8000  205.8960  150.2830 C   0  0  0  0  0  2  0  0  0  0  0  0
  161.1180  205.3740  151.6710 C   0  0  0  0  0  2  0  0  0  0  0  0
  161.3820  203.8830  151.5910 C   0  0  0  0  0  2  0  0  0  0  0  0
  160.8590  203.3040  150.2830 C   0  0  0  0  0  2  0  0  0  0  0  0
  160.7630  201.7790  150.3240 C   0  0  0  0  0  2  0  0  0  0  0  0
  160.3720  201.1880  148.9760 C   0  0  0  0  0  2  0  0  0  0  0  0
  161.3220  201.6410  147.8820 C   0  0  2  0  0  3  0  0  0  0  0  0
  160.5550  201.8990  146.6470 C   0  0  2  0  0  3  0  0  0  0  0  0
  161.2900  200.7140  146.8240 O   0  0  0  0  0  0  0  0  0  0  0  0
  161.3310  202.8400  145.7460 C   0  0  0  0  0  2  0  0  0  0  0  0
  160.1880  203.7880  144.6980 S   0  0  0  0  0  0  0  0  0  0  0  0
  160.3140  206.3970  145.0200 O   0  0  0  0  0  1  0  0  0  0  0  0
  161.1690  205.3120  144.8330 C   0  0  1  0  0  3  0  0  0  0  0  0
  162.2960  205.1850  146.2490 S   0  0  0  0  0  1  0  0  0  0  0  0
  1 17  1  0  0  0  0
  1  2  1  0  0  0  0
  3  2  1  0  0  0  0
  3  4  1  0  0  0  0
  4  5  1  0  0  0  0
  6  5  1  6  0  0  0
  6  7  1  0  0  0  0
  8  7  2  0  0  0  0
  9  6  1  0  0  0  0
  9 11  1  0  0  0  0
  9 10  1  1  0  0  0
 12 13  1  6  0  0  0
 12 15  1  0  0  0  0
 12 11  1  0  0  0  0
 14 13  1  0  0  0  0
 15 16  2  0  0  0  0
 17 18  1  0  0  0  0
 19 18  1  0  0  0  0
 20 21  1  0  0  0  0
 20 19  1  0  0  0  0
 22 21  1  0  0  0  0
 23 22  1  1  0  0  0
 24 26  1  6  0  0  0
 24 25  1  0  0  0  0
 24 23  1  0  0  0  0
 25 23  1  0  0  0  0
 27 29  1  0  0  0  0
 27 26  1  0  0  0  0
 29 28  1  1  0  0  0
 29 30  1  0  0  0  0
M  END
>  <MODEL>
4

>  <REMARK>
 VINA RESULT:      -5.2      3.842      9.921
  Name = 
  21 active torsions:
  status: ('A' for Active; 'I' for Inactive)
    1  A    between atoms: C_1  and  C_4
    2  A    between atoms: C_1  and  C_8
    3  A    between atoms: C_2  and  C_18
    4  A    between atoms: C_3  and  C_11
    5  A    between atoms: C_3  and  C_19
    6  A    between atoms: C_3  and  C_25
    7  A    between atoms: C_4  and  C_13
    8  A    between atoms: C_5  and  S_9
    9  A    between atoms: C_5  and  C_12
   10  A    between atoms: C_7  and  C_16
   11  A    between atoms: C_7  and  C_26
   12  A    between atoms: S_9  and  C_17
   13  A    between atoms: O_10  and  C_15
   14  A    between atoms: O_10  and  C_25
   15  A    between atoms: C_13  and  C_27
   16  A    between atoms: C_15  and  C_26
   17  A    between atoms: C_16  and  C_30
   18  A    between atoms: C_18  and  C_20
   19  A    between atoms: C_18  and  C_22
   20  A    between atoms: C_19  and  C_20
   21  A    between atoms: C_27  and  C_30
                            x       y       z     vdW  Elec       q    Type
                         _______ _______ _______ _____ _____    ______ ____

>  <TORSDO>
F 21

$$$$
=
 OpenBabel11052421593D

 30 30  0  0  1  0  0  0  0  0999 V2000
  161.1950  207.4480  149.7810 C   0  0  0  0  0  2  0  0  0  0  0  0
  161.1700  208.1150  151.1460 C   0  0  0  0  0  2  0  0  0  0  0  0
  162.1650  209.2620  151.1920 C   0  0  0  0  0  2  0  0  0  0  0  0
  161.5800  210.3800  151.7900 O   0  0  0  0  0  0  0  0  0  0  0  0
  160.5730  209.8580  152.6080 C   0  0  0  0  0  2  0  0  0  0  0  0
  159.5540  210.9340  152.9980 C   0  0  2  0  0  3  0  0  0  0  0  0
  159.5680  212.0840  152.0390 C   0  0  0  0  0  3  0  0  0  0  0  0
  159.4240  213.2270  152.4430 O   0  0  0  0  0  0  0  0  0  0  0  0
  159.6860  211.4220  154.4460 C   0  0  2  0  0  3  0  0  0  0  0  0
  161.0170  211.3930  154.8710 O   0  0  0  0  0  1  0  0  0  0  0  0
  158.8100  210.6030  155.3860 C   0  0  0  0  0  2  0  0  0  0  0  0
  157.5960  211.4010  155.8570 C   0  0  2  0  0  3  0  0  0  0  0  0
  156.4490  211.3820  154.8480 C   0  0  0  0  0  2  0  0  0  0  0  0
  155.5730  210.3240  155.1050 O   0  0  0  0  0  1  0  0  0  0  0  0
  157.9880  212.8030  156.2160 C   0  0  0  0  0  3  0  0  0  0  0  0
  157.5900  213.7570  155.5650 O   0  0  0  0  0  0  0  0  0  0  0  0
  161.1510  205.9380  149.9330 C   0  0  0  0  0  2  0  0  0  0  0  0
  161.4530  205.5290  151.3630 C   0  0  0  0  0  2  0  0  0  0  0  0
  160.9160  204.1310  151.6020 C   0  0  0  0  0  2  0  0  0  0  0  0
  160.4740  203.4840  150.2960 C   0  0  0  0  0  2  0  0  0  0  0  0
  160.7180  201.9750  150.2890 C   0  0  0  0  0  2  0  0  0  0  0  0
  160.3560  201.3370  148.9540 C   0  0  0  0  0  2  0  0  0  0  0  0
  161.3290  201.7500  147.8660 C   0  0  2  0  0  3  0  0  0  0  0  0
  160.5850  202.0080  146.6170 C   0  0  2  0  0  3  0  0  0  0  0  0
  161.2890  200.8080  146.8220 O   0  0  0  0  0  0  0  0  0  0  0  0
  161.3940  202.9150  145.7120 C   0  0  0  0  0  2  0  0  0  0  0  0
  160.2970  204.0790  144.8490 S   0  0  0  0  0  0  0  0  0  0  0  0
  160.5630  206.3970  146.0670 O   0  0  0  0  0  1  0  0  0  0  0  0
  161.3140  205.5200  145.2860 C   0  0  1  0  0  3  0  0  0  0  0  0
  162.7680  204.9740  146.2250 S   0  0  0  0  0  1  0  0  0  0  0  0
  1 17  1  0  0  0  0
  1  2  1  0  0  0  0
  2  3  1  0  0  0  0
  3  4  1  0  0  0  0
  4  5  1  0  0  0  0
  5  6  1  0  0  0  0
  6  7  1  6  0  0  0
  6  9  1  0  0  0  0
  7  8  2  0  0  0  0
  9 10  1  1  0  0  0
  9 11  1  0  0  0  0
 11 12  1  0  0  0  0
 12 13  1  6  0  0  0
 12 15  1  0  0  0  0
 13 14  1  0  0  0  0
 16 15  2  0  0  0  0
 17 18  1  0  0  0  0
 18 19  1  0  0  0  0
 20 19  1  0  0  0  0
 21 20  1  0  0  0  0
 22 21  1  0  0  0  0
 23 22  1  1  0  0  0
 24 26  1  6  0  0  0
 24 25  1  0  0  0  0
 24 23  1  0  0  0  0
 25 23  1  0  0  0  0
 27 29  1  0  0  0  0
 27 26  1  0  0  0  0
 29 28  1  1  0  0  0
 29 30  1  0  0  0  0
M  END
>  <MODEL>
5

>  <REMARK>
 VINA RESULT:      -5.2      4.062      9.876
  Name = 
  21 active torsions:
  status: ('A' for Active; 'I' for Inactive)
    1  A    between atoms: C_1  and  C_4
    2  A    between atoms: C_1  and  C_8
    3  A    between atoms: C_2  and  C_18
    4  A    between atoms: C_3  and  C_11
    5  A    between atoms: C_3  and  C_19
    6  A    between atoms: C_3  and  C_25
    7  A    between atoms: C_4  and  C_13
    8  A    between atoms: C_5  and  S_9
    9  A    between atoms: C_5  and  C_12
   10  A    between atoms: C_7  and  C_16
   11  A    between atoms: C_7  and  C_26
   12  A    between atoms: S_9  and  C_17
   13  A    between atoms: O_10  and  C_15
   14  A    between atoms: O_10  and  C_25
   15  A    between atoms: C_13  and  C_27
   16  A    between atoms: C_15  and  C_26
   17  A    between atoms: C_16  and  C_30
   18  A    between atoms: C_18  and  C_20
   19  A    between atoms: C_18  and  C_22
   20  A    between atoms: C_19  and  C_20
   21  A    between atoms: C_27  and  C_30
                            x       y       z     vdW  Elec       q    Type
                         _______ _______ _______ _____ _____    ______ ____

>  <TORSDO>
F 21

$$$$
=
 OpenBabel11052421593D

 30 30  0  0  1  0  0  0  0  0999 V2000
  161.5450  203.6740  151.4950 C   0  0  0  0  0  2  0  0  0  0  0  0
  160.7620  202.4400  151.0770 C   0  0  0  0  0  2  0  0  0  0  0  0
  160.6410  202.3790  149.5640 C   0  0  0  0  0  2  0  0  0  0  0  0
  160.4930  201.0540  149.1480 O   0  0  0  0  0  0  0  0  0  0  0  0
  161.4290  200.8980  148.1220 C   0  0  0  0  0  2  0  0  0  0  0  0
  160.7490  200.5480  146.7930 C   0  0  2  0  0  3  0  0  0  0  0  0
  161.5430  199.5490  146.0110 C   0  0  0  0  0  3  0  0  0  0  0  0
  161.0520  198.4730  145.7060 O   0  0  0  0  0  0  0  0  0  0  0  0
  160.3980  201.7680  145.9330 C   0  0  2  0  0  3  0  0  0  0  0  0
  159.9240  201.3810  144.6760 O   0  0  0  0  0  1  0  0  0  0  0  0
  161.5930  202.7020  145.7850 C   0  0  0  0  0  2  0  0  0  0  0  0
  161.1900  204.1620  145.9800 C   0  0  2  0  0  3  0  0  0  0  0  0
  160.7200  204.8230  144.6850 C   0  0  0  0  0  2  0  0  0  0  0  0
  160.4920  206.1880  144.8720 O   0  0  0  0  0  1  0  0  0  0  0  0
  162.2990  204.9390  146.6220 C   0  0  0  0  0  3  0  0  0  0  0  0
  163.4590  204.7960  146.2670 O   0  0  0  0  0  0  0  0  0  0  0  0
  161.1930  204.8480  150.5990 C   0  0  0  0  0  2  0  0  0  0  0  0
  161.1510  206.1410  151.3930 C   0  0  0  0  0  2  0  0  0  0  0  0
  161.5810  205.8600  152.8200 C   0  0  0  0  0  2  0  0  0  0  0  0
  160.8800  206.7950  153.7960 C   0  0  0  0  0  2  0  0  0  0  0  0
  160.9850  208.2590  153.3700 C   0  0  0  0  0  2  0  0  0  0  0  0
  161.1260  209.1980  154.5600 C   0  0  0  0  0  2  0  0  0  0  0  0
  160.0420  210.2600  154.5530 C   0  0  2  0  0  3  0  0  0  0  0  0
  160.4460  211.3760  155.4310 C   0  0  2  0  0  3  0  0  0  0  0  0
  159.5220  210.4030  155.8530 O   0  0  0  0  0  0  0  0  0  0  0  0
  159.7020  212.6360  155.0380 C   0  0  0  0  0  2  0  0  0  0  0  0
  158.2550  212.8710  156.1120 S   0  0  0  0  0  0  0  0  0  0  0  0
  155.9950  213.8100  155.1450 O   0  0  0  0  0  1  0  0  0  0  0  0
  157.1280  213.1250  154.7090 C   0  0  1  0  0  3  0  0  0  0  0  0
  157.9640  214.1010  153.4280 S   0  0  0  0  0  1  0  0  0  0  0  0
  2  1  1  0  0  0  0
  3  2  1  0  0  0  0
  4  3  1  0  0  0  0
  5  4  1  0  0  0  0
  6  7  1  6  0  0  0
  6  5  1  0  0  0  0
  8  7  2  0  0  0  0
  9 10  1  6  0  0  0
  9  6  1  0  0  0  0
 11  9  1  0  0  0  0
 11 12  1  0  0  0  0
 12 13  1  6  0  0  0
 12 15  1  0  0  0  0
 13 14  1  0  0  0  0
 16 15  2  0  0  0  0
 17 18  1  0  0  0  0
 17  1  1  0  0  0  0
 18 19  1  0  0  0  0
 19 20  1  0  0  0  0
 21 20  1  0  0  0  0
 21 22  1  0  0  0  0
 23 22  1  1  0  0  0
 23 24  1  0  0  0  0
 23 25  1  0  0  0  0
 24 26  1  6  0  0  0
 24 25  1  0  0  0  0
 26 27  1  0  0  0  0
 29 30  1  6  0  0  0
 29 28  1  0  0  0  0
 29 27  1  0  0  0  0
M  END
>  <MODEL>
6

>  <REMARK>
 VINA RESULT:      -5.1      2.050      4.223
  Name = 
  21 active torsions:
  status: ('A' for Active; 'I' for Inactive)
    1  A    between atoms: C_1  and  C_4
    2  A    between atoms: C_1  and  C_8
    3  A    between atoms: C_2  and  C_18
    4  A    between atoms: C_3  and  C_11
    5  A    between atoms: C_3  and  C_19
    6  A    between atoms: C_3  and  C_25
    7  A    between atoms: C_4  and  C_13
    8  A    between atoms: C_5  and  S_9
    9  A    between atoms: C_5  and  C_12
   10  A    between atoms: C_7  and  C_16
   11  A    between atoms: C_7  and  C_26
   12  A    between atoms: S_9  and  C_17
   13  A    between atoms: O_10  and  C_15
   14  A    between atoms: O_10  and  C_25
   15  A    between atoms: C_13  and  C_27
   16  A    between atoms: C_15  and  C_26
   17  A    between atoms: C_16  and  C_30
   18  A    between atoms: C_18  and  C_20
   19  A    between atoms: C_18  and  C_22
   20  A    between atoms: C_19  and  C_20
   21  A    between atoms: C_27  and  C_30
                            x       y       z     vdW  Elec       q    Type
                         _______ _______ _______ _____ _____    ______ ____

>  <TORSDO>
F 21

$$$$
=
 OpenBabel11052421593D

 30 30  0  0  1  0  0  0  0  0999 V2000
  160.5340  203.1860  151.3700 C   0  0  0  0  0  2  0  0  0  0  0  0
  160.9990  201.9320  150.6490 C   0  0  0  0  0  2  0  0  0  0  0  0
  160.0550  201.6000  149.5060 C   0  0  0  0  0  2  0  0  0  0  0  0
  160.7050  200.7940  148.5670 O   0  0  0  0  0  0  0  0  0  0  0  0
  161.6270  201.6440  147.9490 C   0  0  0  0  0  2  0  0  0  0  0  0
  160.9430  202.5710  146.9380 C   0  0  2  0  0  3  0  0  0  0  0  0
  160.8200  201.9280  145.5920 C   0  0  0  0  0  3  0  0  0  0  0  0
  159.7220  201.6290  145.1490 O   0  0  0  0  0  0  0  0  0  0  0  0
  161.5880  203.9580  146.8290 C   0  0  2  0  0  3  0  0  0  0  0  0
  162.9700  203.8610  146.6440 O   0  0  0  0  0  1  0  0  0  0  0  0
  161.2750  204.8100  148.0540 C   0  0  0  0  0  2  0  0  0  0  0  0
  160.7550  206.1890  147.6580 C   0  0  2  0  0  3  0  0  0  0  0  0
  160.9160  206.4750  146.1650 C   0  0  0  0  0  2  0  0  0  0  0  0
  159.7270  206.2270  145.4750 O   0  0  0  0  0  1  0  0  0  0  0  0
  161.3910  207.2590  148.4940 C   0  0  0  0  0  3  0  0  0  0  0  0
  162.4150  207.8170  148.1330 O   0  0  0  0  0  0  0  0  0  0  0  0
  161.6990  204.1410  151.5650 C   0  0  0  0  0  2  0  0  0  0  0  0
  161.2050  205.5580  151.7900 C   0  0  0  0  0  2  0  0  0  0  0  0
  161.1430  205.8300  153.2810 C   0  0  0  0  0  2  0  0  0  0  0  0
  161.7460  207.1880  153.6150 C   0  0  0  0  0  2  0  0  0  0  0  0
  160.8270  208.3410  153.2100 C   0  0  0  0  0  2  0  0  0  0  0  0
  160.5430  209.2870  154.3700 C   0  0  0  0  0  2  0  0  0  0  0  0
  160.6630  210.7370  153.9380 C   0  0  2  0  0  3  0  0  0  0  0  0
  159.3330  211.2400  153.5410 C   0  0  2  0  0  3  0  0  0  0  0  0
  160.2910  210.8530  152.5870 O   0  0  0  0  0  0  0  0  0  0  0  0
  159.3050  212.7520  153.6380 C   0  0  0  0  0  2  0  0  0  0  0  0
  158.0810  213.4310  152.4790 S   0  0  0  0  0  0  0  0  0  0  0  0
  156.1280  212.8800  154.1550 O   0  0  0  0  0  1  0  0  0  0  0  0
  156.9560  213.9470  153.8100 C   0  0  1  0  0  3  0  0  0  0  0  0
  157.9240  214.4500  155.2600 S   0  0  0  0  0  1  0  0  0  0  0  0
  1 17  1  0  0  0  0
  2  1  1  0  0  0  0
  3  2  1  0  0  0  0
  4  3  1  0  0  0  0
  5  4  1  0  0  0  0
  6  7  1  6  0  0  0
  6  5  1  0  0  0  0
  8  7  2  0  0  0  0
  9 10  1  1  0  0  0
  9  6  1  0  0  0  0
  9 11  1  0  0  0  0
 12 13  1  6  0  0  0
 12 11  1  0  0  0  0
 12 15  1  0  0  0  0
 14 13  1  0  0  0  0
 16 15  2  0  0  0  0
 17 18  1  0  0  0  0
 18 19  1  0  0  0  0
 19 20  1  0  0  0  0
 21 20  1  0  0  0  0
 21 22  1  0  0  0  0
 23 22  1  1  0  0  0
 24 26  1  6  0  0  0
 24 23  1  0  0  0  0
 25 24  1  0  0  0  0
 25 23  1  0  0  0  0
 27 26  1  0  0  0  0
 27 29  1  0  0  0  0
 29 28  1  1  0  0  0
 29 30  1  0  0  0  0
M  END
>  <MODEL>
7

>  <REMARK>
 VINA RESULT:      -5.1      1.613      3.848
  Name = 
  21 active torsions:
  status: ('A' for Active; 'I' for Inactive)
    1  A    between atoms: C_1  and  C_4
    2  A    between atoms: C_1  and  C_8
    3  A    between atoms: C_2  and  C_18
    4  A    between atoms: C_3  and  C_11
    5  A    between atoms: C_3  and  C_19
    6  A    between atoms: C_3  and  C_25
    7  A    between atoms: C_4  and  C_13
    8  A    between atoms: C_5  and  S_9
    9  A    between atoms: C_5  and  C_12
   10  A    between atoms: C_7  and  C_16
   11  A    between atoms: C_7  and  C_26
   12  A    between atoms: S_9  and  C_17
   13  A    between atoms: O_10  and  C_15
   14  A    between atoms: O_10  and  C_25
   15  A    between atoms: C_13  and  C_27
   16  A    between atoms: C_15  and  C_26
   17  A    between atoms: C_16  and  C_30
   18  A    between atoms: C_18  and  C_20
   19  A    between atoms: C_18  and  C_22
   20  A    between atoms: C_19  and  C_20
   21  A    between atoms: C_27  and  C_30
                            x       y       z     vdW  Elec       q    Type
                         _______ _______ _______ _____ _____    ______ ____

>  <TORSDO>
F 21

$$$$
=
 OpenBabel11052421593D

 30 30  0  0  1  0  0  0  0  0999 V2000
  161.3050  206.9800  152.1350 C   0  0  0  0  0  2  0  0  0  0  0  0
  161.4990  206.2030  153.4270 C   0  0  0  0  0  2  0  0  0  0  0  0
  160.6710  206.8160  154.5420 C   0  0  0  0  0  2  0  0  0  0  0  0
  161.4500  207.7090  155.2820 O   0  0  0  0  0  0  0  0  0  0  0  0
  160.5330  208.6100  155.8310 C   0  0  0  0  0  2  0  0  0  0  0  0
  160.3790  209.8570  154.9540 C   0  0  2  0  0  3  0  0  0  0  0  0
  161.6820  210.2700  154.3450 C   0  0  0  0  0  3  0  0  0  0  0  0
  161.7660  210.4710  153.1430 O   0  0  0  0  0  0  0  0  0  0  0  0
  159.7040  211.0380  155.6630 C   0  0  2  0  0  3  0  0  0  0  0  0
  159.9110  210.9850  157.0440 O   0  0  0  0  0  1  0  0  0  0  0  0
  158.2130  211.0890  155.3510 C   0  0  0  0  0  2  0  0  0  0  0  0
  157.8150  212.4300  154.7400 C   0  0  2  0  0  3  0  0  0  0  0  0
  156.3160  212.5290  154.4570 C   0  0  0  0  0  2  0  0  0  0  0  0
  155.6070  211.5530  155.1610 O   0  0  0  0  0  1  0  0  0  0  0  0
  158.6250  212.7170  153.5110 C   0  0  0  0  0  3  0  0  0  0  0  0
  158.5620  211.9930  152.5290 O   0  0  0  0  0  0  0  0  0  0  0  0
  161.0240  206.0280  150.9860 C   0  0  0  0  0  2  0  0  0  0  0  0
  161.1960  204.5860  151.4250 C   0  0  0  0  0  2  0  0  0  0  0  0
  160.9550  203.6740  150.2370 C   0  0  0  0  0  2  0  0  0  0  0  0
  160.9300  202.2130  150.6650 C   0  0  0  0  0  2  0  0  0  0  0  0
  161.2900  201.2690  149.5180 C   0  0  0  0  0  2  0  0  0  0  0  0
  160.3710  201.4440  148.3160 C   0  0  0  0  0  2  0  0  0  0  0  0
  161.1660  201.6950  147.0480 C   0  0  2  0  0  3  0  0  0  0  0  0
  160.4080  202.6090  146.1700 C   0  0  2  0  0  3  0  0  0  0  0  0
  160.4390  201.2220  145.9410 O   0  0  0  0  0  0  0  0  0  0  0  0
  161.3520  203.2980  145.2050 C   0  0  0  0  0  2  0  0  0  0  0  0
  161.1820  205.1020  145.3430 S   0  0  0  0  0  0  0  0  0  0  0  0
  163.5020  204.8790  146.5650 O   0  0  0  0  0  1  0  0  0  0  0  0
  162.1750  205.1810  146.8640 C   0  0  1  0  0  3  0  0  0  0  0  0
  162.0810  206.8520  147.5630 S   0  0  0  0  0  1  0  0  0  0  0  0
  1  2  1  0  0  0  0
  2  3  1  0  0  0  0
  3  4  1  0  0  0  0
  4  5  1  0  0  0  0
  6  7  1  1  0  0  0
  6  9  1  0  0  0  0
  6  5  1  0  0  0  0
  8  7  2  0  0  0  0
  9 10  1  1  0  0  0
 11  9  1  0  0  0  0
 12 15  1  6  0  0  0
 12 11  1  0  0  0  0
 13 12  1  0  0  0  0
 13 14  1  0  0  0  0
 16 15  2  0  0  0  0
 17 18  1  0  0  0  0
 17  1  1  0  0  0  0
 19 20  1  0  0  0  0
 19 18  1  0  0  0  0
 21 20  1  0  0  0  0
 22 21  1  0  0  0  0
 23 22  1  1  0  0  0
 24 26  1  6  0  0  0
 24 23  1  0  0  0  0
 25 24  1  0  0  0  0
 25 23  1  0  0  0  0
 26 27  1  0  0  0  0
 27 29  1  0  0  0  0
 29 28  1  6  0  0  0
 29 30  1  0  0  0  0
M  END
>  <MODEL>
8

>  <REMARK>
 VINA RESULT:      -5.0      3.455     10.132
  Name = 
  21 active torsions:
  status: ('A' for Active; 'I' for Inactive)
    1  A    between atoms: C_1  and  C_4
    2  A    between atoms: C_1  and  C_8
    3  A    between atoms: C_2  and  C_18
    4  A    between atoms: C_3  and  C_11
    5  A    between atoms: C_3  and  C_19
    6  A    between atoms: C_3  and  C_25
    7  A    between atoms: C_4  and  C_13
    8  A    between atoms: C_5  and  S_9
    9  A    between atoms: C_5  and  C_12
   10  A    between atoms: C_7  and  C_16
   11  A    between atoms: C_7  and  C_26
   12  A    between atoms: S_9  and  C_17
   13  A    between atoms: O_10  and  C_15
   14  A    between atoms: O_10  and  C_25
   15  A    between atoms: C_13  and  C_27
   16  A    between atoms: C_15  and  C_26
   17  A    between atoms: C_16  and  C_30
   18  A    between atoms: C_18  and  C_20
   19  A    between atoms: C_18  and  C_22
   20  A    between atoms: C_19  and  C_20
   21  A    between atoms: C_27  and  C_30
                            x       y       z     vdW  Elec       q    Type
                         _______ _______ _______ _____ _____    ______ ____

>  <TORSDO>
F 21

$$$$
=
 OpenBabel11052421593D

 30 30  0  0  1  0  0  0  0  0999 V2000
  160.1520  210.3070  152.7550 C   0  0  0  0  0  2  0  0  0  0  0  0
  161.6660  210.3340  152.8860 C   0  0  0  0  0  2  0  0  0  0  0  0
  162.3170  209.9390  151.5720 C   0  0  0  0  0  2  0  0  0  0  0  0
  161.4910  209.0520  150.8760 O   0  0  0  0  0  0  0  0  0  0  0  0
  162.3720  208.2130  150.1880 C   0  0  0  0  0  2  0  0  0  0  0  0
  162.1860  208.3290  148.6720 C   0  0  2  0  0  3  0  0  0  0  0  0
  161.6130  209.6560  148.2830 C   0  0  0  0  0  3  0  0  0  0  0  0
  162.2750  210.6750  148.4080 O   0  0  0  0  0  0  0  0  0  0  0  0
  161.3820  207.1790  148.0520 C   0  0  2  0  0  3  0  0  0  0  0  0
  160.4630  206.6540  148.9660 O   0  0  0  0  0  1  0  0  0  0  0  0
  162.3010  206.0800  147.5320 C   0  0  0  0  0  2  0  0  0  0  0  0
  162.2120  205.9490  146.0140 C   0  0  2  0  0  3  0  0  0  0  0  0
  160.7800  206.0670  145.4930 C   0  0  0  0  0  2  0  0  0  0  0  0
  160.7080  205.7290  144.1400 O   0  0  0  0  0  1  0  0  0  0  0  0
  162.8610  204.6790  145.5510 C   0  0  0  0  0  3  0  0  0  0  0  0
  163.9680  204.3530  145.9490 O   0  0  0  0  0  0  0  0  0  0  0  0
  159.5200  211.2460  153.7680 C   0  0  0  0  0  2  0  0  0  0  0  0
  160.1030  211.0220  155.1500 C   0  0  0  0  0  2  0  0  0  0  0  0
  159.6600  209.6630  155.6610 C   0  0  0  0  0  2  0  0  0  0  0  0
  160.8040  208.9450  156.3650 C   0  0  0  0  0  2  0  0  0  0  0  0
  161.5420  207.9850  155.4330 C   0  0  0  0  0  2  0  0  0  0  0  0
  160.6380  206.8730  154.9150 C   0  0  0  0  0  2  0  0  0  0  0  0
  160.8680  206.6240  153.4360 C   0  0  2  0  0  3  0  0  0  0  0  0
  161.1800  205.1960  153.2250 C   0  0  2  0  0  3  0  0  0  0  0  0
  162.1870  206.1770  153.2380 O   0  0  0  0  0  0  0  0  0  0  0  0
  160.8760  204.8080  151.7920 C   0  0  0  0  0  2  0  0  0  0  0  0
  161.0760  203.0150  151.5730 S   0  0  0  0  0  0  0  0  0  0  0  0
  161.4940  203.3970  149.0030 O   0  0  0  0  0  1  0  0  0  0  0  0
  160.4550  203.0530  149.8650 C   0  0  1  0  0  3  0  0  0  0  0  0
  159.8190  201.4140  149.4140 S   0  0  0  0  0  1  0  0  0  0  0  0
  1  2  1  0  0  0  0
  1 17  1  0  0  0  0
  3  2  1  0  0  0  0
  4  3  1  0  0  0  0
  5  4  1  0  0  0  0
  6  7  1  1  0  0  0
  6  5  1  0  0  0  0
  7  8  2  0  0  0  0
  9  6  1  0  0  0  0
  9 10  1  1  0  0  0
 11  9  1  0  0  0  0
 12 13  1  1  0  0  0
 12 11  1  0  0  0  0
 14 13  1  0  0  0  0
 15 16  2  0  0  0  0
 15 12  1  0  0  0  0
 17 18  1  0  0  0  0
 18 19  1  0  0  0  0
 19 20  1  0  0  0  0
 21 20  1  0  0  0  0
 22 21  1  0  0  0  0
 23 22  1  1  0  0  0
 24 26  1  6  0  0  0
 24 25  1  0  0  0  0
 24 23  1  0  0  0  0
 25 23  1  0  0  0  0
 27 26  1  0  0  0  0
 29 28  1  6  0  0  0
 29 27  1  0  0  0  0
 30 29  1  0  0  0  0
M  END
>  <MODEL>
9

>  <REMARK>
 VINA RESULT:      -4.9      3.855      6.452
  Name = 
  21 active torsions:
  status: ('A' for Active; 'I' for Inactive)
    1  A    between atoms: C_1  and  C_4
    2  A    between atoms: C_1  and  C_8
    3  A    between atoms: C_2  and  C_18
    4  A    between atoms: C_3  and  C_11
    5  A    between atoms: C_3  and  C_19
    6  A    between atoms: C_3  and  C_25
    7  A    between atoms: C_4  and  C_13
    8  A    between atoms: C_5  and  S_9
    9  A    between atoms: C_5  and  C_12
   10  A    between atoms: C_7  and  C_16
   11  A    between atoms: C_7  and  C_26
   12  A    between atoms: S_9  and  C_17
   13  A    between atoms: O_10  and  C_15
   14  A    between atoms: O_10  and  C_25
   15  A    between atoms: C_13  and  C_27
   16  A    between atoms: C_15  and  C_26
   17  A    between atoms: C_16  and  C_30
   18  A    between atoms: C_18  and  C_20
   19  A    between atoms: C_18  and  C_22
   20  A    between atoms: C_19  and  C_20
   21  A    between atoms: C_27  and  C_30
                            x       y       z     vdW  Elec       q    Type
                         _______ _______ _______ _____ _____    ______ ____

>  <TORSDO>
F 21

$$$$
