=
 OpenBabel11052422503D

 28 31  0  0  1  0  0  0  0  0999 V2000
  161.0650  208.6500  152.9060 C   0  0  1  0  0  3  0  0  0  0  0  0
  160.2600  207.1400  156.1480 C   0  0  0  0  0  2  0  0  0  0  0  0
  160.9500  208.1760  154.3250 C   0  0  0  0  0  0  0  0  0  0  0  0
  161.3940  208.0670  156.4380 C   0  0  0  0  0  3  0  0  0  0  0  0
  160.0700  207.3180  154.7180 N   0  0  0  0  0  0  0  0  0  0  0  0
  161.7830  208.6630  155.3640 N   0  0  0  0  0  0  0  0  0  0  0  0
  161.7240  209.9960  152.8130 C   0  0  0  0  0  0  0  0  0  0  0  0
  161.0140  211.1940  153.1510 N   0  0  0  0  0  2  0  0  0  0  0  0
  162.8870  210.0940  152.3370 O   0  0  0  0  0  0  0  0  0  0  0  0
  159.7630  211.2630  153.8470 C   0  0  0  0  0  0  0  0  0  0  0  0
  158.2670  211.6820  155.5150 N   0  0  0  0  0  0  0  0  0  0  0  0
  158.2120  211.3130  152.9710 S   0  0  0  0  0  0  0  0  0  0  0  0
  160.7540  211.7700  156.0730 C   0  0  0  0  0  1  0  0  0  0  0  0
  159.6220  211.5130  155.1330 C   0  0  0  0  0  0  0  0  0  0  0  0
  157.8560  211.9280  156.8870 C   0  0  0  0  0  1  0  0  0  0  0  0
  157.3150  211.6020  154.4860 N   0  0  0  0  0  2  0  0  0  0  0  0
  161.7890  207.6330  152.0190 C   0  0  0  0  0  2  0  0  0  0  0  0
  160.5180  204.9860  151.2450 C   0  0  0  0  0  3  0  0  0  0  0  0
  161.4030  205.4580  149.0350 C   0  0  0  0  0  0  0  0  0  0  0  0
  161.0740  207.3790  150.6860 C   0  0  2  0  0  3  0  0  0  0  0  0
  160.8430  203.1850  149.6620 C   0  0  0  0  0  0  0  0  0  0  0  0
  161.0300  205.9080  150.3210 C   0  0  0  0  0  0  0  0  0  0  0  0
  161.2940  207.7900  148.1930 C   0  0  0  0  0  2  0  0  0  0  0  0
  161.3270  204.0990  148.7220 C   0  0  0  0  0  3  0  0  0  0  0  0
  161.9130  206.4120  148.0000 C   0  0  0  0  0  2  0  0  0  0  0  0
  160.7620  201.7420  149.3230 C   0  0  0  0  0  1  0  0  0  0  0  0
  160.4280  203.6310  150.9180 C   0  0  0  0  0  3  0  0  0  0  0  0
  161.6360  208.2940  149.5870 C   0  0  0  0  0  2  0  0  0  0  0  0
  1 17  1  6  0  0  0
  1  3  1  0  0  0  0
  2  4  1  0  0  0  0
  3  5  2  0  0  0  0
  3  6  1  0  0  0  0
  5  2  1  0  0  0  0
  6  4  2  0  0  0  0
  7  1  1  0  0  0  0
  7  8  1  0  0  0  0
  8 10  1  0  0  0  0
  9  7  2  0  0  0  0
 10 14  2  0  0  0  0
 11 15  1  0  0  0  0
 12 10  1  0  0  0  0
 12 16  1  0  0  0  0
 14 11  1  0  0  0  0
 14 13  1  0  0  0  0
 16 11  1  0  0  0  0
 19 22  1  0  0  0  0
 20 17  1  1  0  0  0
 21 27  2  0  0  0  0
 22 20  1  0  0  0  0
 22 18  2  0  0  0  0
 23 28  1  0  0  0  0
 24 19  2  0  0  0  0
 24 21  1  0  0  0  0
 25 23  1  0  0  0  0
 25 19  1  0  0  0  0
 26 21  1  0  0  0  0
 27 18  1  0  0  0  0
 28 20  1  0  0  0  0
M  END
>  <MODEL>
1

>  <REMARK>
 VINA RESULT:      -8.0      0.000      0.000
  Name = 
  5 active torsions:
  status: ('A' for Active; 'I' for Inactive)
    1  A    between atoms: C_1  and  C_27
    2  A    between atoms: N_2  and  C_3
    3  A    between atoms: C_10  and  C_17
    4  A    between atoms: C_16  and  C_27
    5  A    between atoms: C_17  and  C_27
                            x       y       z     vdW  Elec       q    Type
                         _______ _______ _______ _____ _____    ______ ____

>  <TORSDO>
F 5

$$$$
=
 OpenBabel11052422503D

 28 31  0  0  1  0  0  0  0  0999 V2000
  161.0810  208.8870  153.7520 C   0  0  1  0  0  3  0  0  0  0  0  0
  160.0210  207.0690  156.7540 C   0  0  0  0  0  2  0  0  0  0  0  0
  160.8820  208.2370  155.0900 C   0  0  0  0  0  0  0  0  0  0  0  0
  161.2850  207.7530  157.1580 C   0  0  0  0  0  3  0  0  0  0  0  0
  159.8740  207.4800  155.3680 N   0  0  0  0  0  0  0  0  0  0  0  0
  161.7730  208.4300  156.1750 N   0  0  0  0  0  0  0  0  0  0  0  0
  161.7760  210.2140  153.8700 C   0  0  0  0  0  0  0  0  0  0  0  0
  161.0650  211.3890  154.2790 N   0  0  0  0  0  2  0  0  0  0  0  0
  162.9780  210.3270  153.5090 O   0  0  0  0  0  0  0  0  0  0  0  0
  159.7590  211.4200  154.8680 C   0  0  0  0  0  0  0  0  0  0  0  0
  157.4900  211.2890  155.0410 N   0  0  0  0  0  0  0  0  0  0  0  0
  159.5190  211.1520  156.6140 S   0  0  0  0  0  0  0  0  0  0  0  0
  158.5210  211.3860  152.7100 C   0  0  0  0  0  1  0  0  0  0  0  0
  158.6240  211.4210  154.2000 C   0  0  0  0  0  0  0  0  0  0  0  0
  156.1260  211.3030  154.5400 C   0  0  0  0  0  1  0  0  0  0  0  0
  157.7460  211.1380  156.4130 N   0  0  0  0  0  2  0  0  0  0  0  0
  161.8270  207.9730  152.7760 C   0  0  0  0  0  2  0  0  0  0  0  0
  160.5520  205.5430  151.4770 C   0  0  0  0  0  3  0  0  0  0  0  0
  161.6290  206.3330  149.4510 C   0  0  0  0  0  0  0  0  0  0  0  0
  161.2180  207.9710  151.3680 C   0  0  2  0  0  3  0  0  0  0  0  0
  160.9570  204.0140  149.6460 C   0  0  0  0  0  0  0  0  0  0  0  0
  161.1640  206.5820  150.7610 C   0  0  0  0  0  0  0  0  0  0  0  0
  161.6550  208.7740  149.0040 C   0  0  0  0  0  2  0  0  0  0  0  0
  161.5420  205.0480  148.9110 C   0  0  0  0  0  3  0  0  0  0  0  0
  162.2500  207.4230  148.6320 C   0  0  0  0  0  2  0  0  0  0  0  0
  160.8640  202.6500  149.0660 C   0  0  0  0  0  1  0  0  0  0  0  0
  160.4510  204.2640  150.9230 C   0  0  0  0  0  3  0  0  0  0  0  0
  161.8940  209.0290  150.4840 C   0  0  0  0  0  2  0  0  0  0  0  0
  1 17  1  6  0  0  0
  1  7  1  0  0  0  0
  1  3  1  0  0  0  0
  2  4  1  0  0  0  0
  3  5  2  0  0  0  0
  3  6  1  0  0  0  0
  5  2  1  0  0  0  0
  6  4  2  0  0  0  0
  7  8  1  0  0  0  0
  8 10  1  0  0  0  0
  9  7  2  0  0  0  0
 10 12  1  0  0  0  0
 11 16  1  0  0  0  0
 13 14  1  0  0  0  0
 14 10  2  0  0  0  0
 14 11  1  0  0  0  0
 15 11  1  0  0  0  0
 16 12  1  0  0  0  0
 19 22  1  0  0  0  0
 20 17  1  1  0  0  0
 21 27  2  0  0  0  0
 22 20  1  0  0  0  0
 22 18  2  0  0  0  0
 23 28  1  0  0  0  0
 24 19  2  0  0  0  0
 24 21  1  0  0  0  0
 25 23  1  0  0  0  0
 25 19  1  0  0  0  0
 26 21  1  0  0  0  0
 27 18  1  0  0  0  0
 28 20  1  0  0  0  0
M  END
>  <MODEL>
2

>  <REMARK>
 VINA RESULT:      -7.4      1.286      1.549
  Name = 
  5 active torsions:
  status: ('A' for Active; 'I' for Inactive)
    1  A    between atoms: C_1  and  C_27
    2  A    between atoms: N_2  and  C_3
    3  A    between atoms: C_10  and  C_17
    4  A    between atoms: C_16  and  C_27
    5  A    between atoms: C_17  and  C_27
                            x       y       z     vdW  Elec       q    Type
                         _______ _______ _______ _____ _____    ______ ____

>  <TORSDO>
F 5

$$$$
=
 OpenBabel11052422503D

 28 31  0  0  1  0  0  0  0  0999 V2000
  160.9890  206.9100  151.9550 C   0  0  1  0  0  3  0  0  0  0  0  0
  160.3740  206.9410  155.5690 C   0  0  0  0  0  2  0  0  0  0  0  0
  160.7730  207.1950  153.4130 C   0  0  0  0  0  0  0  0  0  0  0  0
  160.5170  208.3820  155.2010 C   0  0  0  0  0  3  0  0  0  0  0  0
  160.5610  206.2740  154.2920 N   0  0  0  0  0  0  0  0  0  0  0  0
  160.7490  208.5100  153.9400 N   0  0  0  0  0  0  0  0  0  0  0  0
  162.4480  206.8250  151.6090 C   0  0  0  0  0  0  0  0  0  0  0  0
  163.0080  207.6160  150.5540 N   0  0  0  0  0  2  0  0  0  0  0  0
  163.1800  205.9730  152.1820 O   0  0  0  0  0  0  0  0  0  0  0  0
  162.3750  208.7300  149.9120 C   0  0  0  0  0  0  0  0  0  0  0  0
  161.6890  210.8710  149.5350 N   0  0  0  0  0  0  0  0  0  0  0  0
  162.0240  208.7230  148.1650 S   0  0  0  0  0  0  0  0  0  0  0  0
  162.6260  210.2900  151.8350 C   0  0  0  0  0  1  0  0  0  0  0  0
  162.1930  209.9170  150.4550 C   0  0  0  0  0  0  0  0  0  0  0  0
  161.3710  212.2390  149.9080 C   0  0  0  0  0  1  0  0  0  0  0  0
  161.5080  210.4290  148.2150 N   0  0  0  0  0  2  0  0  0  0  0  0
  160.2530  205.6460  151.5020 C   0  0  0  0  0  2  0  0  0  0  0  0
  161.3840  205.1090  148.7370 C   0  0  0  0  0  3  0  0  0  0  0  0
  161.0260  202.7720  149.2830 C   0  0  0  0  0  0  0  0  0  0  0  0
  161.1980  204.4840  151.1710 C   0  0  2  0  0  3  0  0  0  0  0  0
  161.2140  203.4650  146.9700 C   0  0  0  0  0  0  0  0  0  0  0  0
  161.1690  204.1140  149.7010 C   0  0  0  0  0  0  0  0  0  0  0  0
  161.5380  202.0070  151.5880 C   0  0  0  0  0  2  0  0  0  0  0  0
  161.0280  202.4600  147.9220 C   0  0  0  0  0  3  0  0  0  0  0  0
  160.8380  201.6680  150.2790 C   0  0  0  0  0  2  0  0  0  0  0  0
  161.2190  203.1270  145.5230 C   0  0  0  0  0  1  0  0  0  0  0  0
  161.4040  204.7870  147.3780 C   0  0  0  0  0  3  0  0  0  0  0  0
  160.9690  203.3080  152.1320 C   0  0  0  0  0  2  0  0  0  0  0  0
  1 17  1  1  0  0  0
  1  3  1  0  0  0  0
  3  6  1  0  0  0  0
  3  5  2  0  0  0  0
  4  2  1  0  0  0  0
  5  2  1  0  0  0  0
  6  4  2  0  0  0  0
  7  1  1  0  0  0  0
  7  9  2  0  0  0  0
  8  7  1  0  0  0  0
 10 14  2  0  0  0  0
 10  8  1  0  0  0  0
 11 15  1  0  0  0  0
 11 14  1  0  0  0  0
 12 16  1  0  0  0  0
 12 10  1  0  0  0  0
 14 13  1  0  0  0  0
 16 11  1  0  0  0  0
 18 22  1  0  0  0  0
 19 22  2  0  0  0  0
 19 25  1  0  0  0  0
 20 17  1  6  0  0  0
 20 28  1  0  0  0  0
 21 27  1  0  0  0  0
 21 24  2  0  0  0  0
 22 20  1  0  0  0  0
 23 28  1  0  0  0  0
 24 19  1  0  0  0  0
 25 23  1  0  0  0  0
 26 21  1  0  0  0  0
 27 18  2  0  0  0  0
M  END
>  <MODEL>
3

>  <REMARK>
 VINA RESULT:      -6.8      2.648      4.401
  Name = 
  5 active torsions:
  status: ('A' for Active; 'I' for Inactive)
    1  A    between atoms: C_1  and  C_27
    2  A    between atoms: N_2  and  C_3
    3  A    between atoms: C_10  and  C_17
    4  A    between atoms: C_16  and  C_27
    5  A    between atoms: C_17  and  C_27
                            x       y       z     vdW  Elec       q    Type
                         _______ _______ _______ _____ _____    ______ ____

>  <TORSDO>
F 5

$$$$
=
 OpenBabel11052422503D

 28 31  0  0  1  0  0  0  0  0999 V2000
  161.8200  207.8860  153.5020 C   0  0  1  0  0  3  0  0  0  0  0  0
  161.3480  211.0970  151.7960 C   0  0  0  0  0  2  0  0  0  0  0  0
  161.3590  209.1480  152.8320 C   0  0  0  0  0  0  0  0  0  0  0  0
  159.9650  210.6460  152.1330 C   0  0  0  0  0  3  0  0  0  0  0  0
  162.1650  210.0150  152.3190 N   0  0  0  0  0  0  0  0  0  0  0  0
  159.9910  209.5070  152.7370 N   0  0  0  0  0  0  0  0  0  0  0  0
  160.7860  207.3380  154.4420 C   0  0  0  0  0  0  0  0  0  0  0  0
  160.5280  207.9620  155.7060 N   0  0  0  0  0  2  0  0  0  0  0  0
  160.2010  206.2560  154.1700 O   0  0  0  0  0  0  0  0  0  0  0  0
  160.9740  209.2630  156.1080 C   0  0  0  0  0  0  0  0  0  0  0  0
  160.8860  211.4550  156.7290 N   0  0  0  0  0  0  0  0  0  0  0  0
  162.5430  209.5000  156.9200 S   0  0  0  0  0  0  0  0  0  0  0  0
  158.7860  210.3910  155.7480 C   0  0  0  0  0  1  0  0  0  0  0  0
  160.2280  210.3490  156.1340 C   0  0  0  0  0  0  0  0  0  0  0  0
  160.2810  212.7720  156.8370 C   0  0  0  0  0  1  0  0  0  0  0  0
  162.1780  211.2190  157.2240 N   0  0  0  0  0  2  0  0  0  0  0  0
  162.2450  206.8210  152.4870 C   0  0  0  0  0  2  0  0  0  0  0  0
  160.9170  204.1410  151.9660 C   0  0  0  0  0  3  0  0  0  0  0  0
  161.1300  204.7380  149.6230 C   0  0  0  0  0  0  0  0  0  0  0  0
  161.1970  206.5790  151.3930 C   0  0  2  0  0  3  0  0  0  0  0  0
  160.8600  202.4190  150.2670 C   0  0  0  0  0  0  0  0  0  0  0  0
  161.1130  205.1210  150.9830 C   0  0  0  0  0  0  0  0  0  0  0  0
  160.6950  207.0900  148.9610 C   0  0  0  0  0  2  0  0  0  0  0  0
  161.0240  203.3890  149.2770 C   0  0  0  0  0  3  0  0  0  0  0  0
  161.2910  205.7560  148.5360 C   0  0  0  0  0  2  0  0  0  0  0  0
  160.7460  200.9860  149.8930 C   0  0  0  0  0  1  0  0  0  0  0  0
  160.7950  202.7960  151.6100 C   0  0  0  0  0  3  0  0  0  0  0  0
  161.3920  207.5620  150.2290 C   0  0  0  0  0  2  0  0  0  0  0  0
  1 17  1  6  0  0  0
  1  7  1  0  0  0  0
  2  4  1  0  0  0  0
  2  5  1  0  0  0  0
  3  1  1  0  0  0  0
  4  6  2  0  0  0  0
  5  3  2  0  0  0  0
  6  3  1  0  0  0  0
  7  8  1  0  0  0  0
  8 10  1  0  0  0  0
  9  7  2  0  0  0  0
 10 14  2  0  0  0  0
 10 12  1  0  0  0  0
 11 15  1  0  0  0  0
 11 16  1  0  0  0  0
 12 16  1  0  0  0  0
 13 14  1  0  0  0  0
 14 11  1  0  0  0  0
 19 22  1  0  0  0  0
 20 17  1  1  0  0  0
 21 27  2  0  0  0  0
 22 20  1  0  0  0  0
 22 18  2  0  0  0  0
 23 28  1  0  0  0  0
 24 19  2  0  0  0  0
 24 21  1  0  0  0  0
 25 23  1  0  0  0  0
 25 19  1  0  0  0  0
 26 21  1  0  0  0  0
 27 18  1  0  0  0  0
 28 20  1  0  0  0  0
M  END
>  <MODEL>
4

>  <REMARK>
 VINA RESULT:      -6.7      2.089      3.080
  Name = 
  5 active torsions:
  status: ('A' for Active; 'I' for Inactive)
    1  A    between atoms: C_1  and  C_27
    2  A    between atoms: N_2  and  C_3
    3  A    between atoms: C_10  and  C_17
    4  A    between atoms: C_16  and  C_27
    5  A    between atoms: C_17  and  C_27
                            x       y       z     vdW  Elec       q    Type
                         _______ _______ _______ _____ _____    ______ ____

>  <TORSDO>
F 5

$$$$
=
 OpenBabel11052422503D

 28 31  0  0  1  0  0  0  0  0999 V2000
  161.1660  206.6860  151.7870 C   0  0  1  0  0  3  0  0  0  0  0  0
  160.4920  206.9380  155.3810 C   0  0  0  0  0  2  0  0  0  0  0  0
  160.8380  207.0540  153.2040 C   0  0  0  0  0  0  0  0  0  0  0  0
  160.1770  208.2960  154.8450 C   0  0  0  0  0  3  0  0  0  0  0  0
  160.9110  206.2220  154.1890 N   0  0  0  0  0  0  0  0  0  0  0  0
  160.3840  208.3440  153.5740 N   0  0  0  0  0  0  0  0  0  0  0  0
  162.6260  206.8630  151.4840 C   0  0  0  0  0  0  0  0  0  0  0  0
  163.0870  207.9430  150.6630 N   0  0  0  0  0  2  0  0  0  0  0  0
  163.4570  205.9970  151.8690 O   0  0  0  0  0  0  0  0  0  0  0  0
  162.3220  209.0910  150.2760 C   0  0  0  0  0  0  0  0  0  0  0  0
  161.3790  211.1640  150.3800 N   0  0  0  0  0  0  0  0  0  0  0  0
  161.9710  209.4430  148.5650 S   0  0  0  0  0  0  0  0  0  0  0  0
  162.3850  210.1860  152.5100 C   0  0  0  0  0  1  0  0  0  0  0  0
  161.9980  210.0910  151.0700 C   0  0  0  0  0  0  0  0  0  0  0  0
  160.8980  212.3620  151.0460 C   0  0  0  0  0  1  0  0  0  0  0  0
  161.2510  211.0190  148.9890 N   0  0  0  0  0  2  0  0  0  0  0  0
  160.7130  205.2630  151.4440 C   0  0  0  0  0  2  0  0  0  0  0  0
  160.3140  202.6070  150.0290 C   0  0  0  0  0  3  0  0  0  0  0  0
  161.1880  203.7630  148.0820 C   0  0  0  0  0  0  0  0  0  0  0  0
  160.2010  205.1240  150.0050 C   0  0  2  0  0  3  0  0  0  0  0  0
  161.2570  201.3440  148.1930 C   0  0  0  0  0  0  0  0  0  0  0  0
  160.6070  203.8090  149.3690 C   0  0  0  0  0  0  0  0  0  0  0  0
  160.4780  206.1080  147.6850 C   0  0  0  0  0  2  0  0  0  0  0  0
  161.5270  202.5340  147.5120 C   0  0  0  0  0  3  0  0  0  0  0  0
  161.4780  205.0200  147.3200 C   0  0  0  0  0  2  0  0  0  0  0  0
  161.6180  200.0390  147.5820 C   0  0  0  0  0  1  0  0  0  0  0  0
  160.6400  201.3810  149.4450 C   0  0  0  0  0  3  0  0  0  0  0  0
  160.5570  206.3710  149.1810 C   0  0  0  0  0  2  0  0  0  0  0  0
  1 17  1  1  0  0  0
  1  3  1  0  0  0  0
  3  6  1  0  0  0  0
  3  5  2  0  0  0  0
  4  2  1  0  0  0  0
  5  2  1  0  0  0  0
  6  4  2  0  0  0  0
  7  1  1  0  0  0  0
  7  9  2  0  0  0  0
  8  7  1  0  0  0  0
 10  8  1  0  0  0  0
 10 14  2  0  0  0  0
 11 15  1  0  0  0  0
 11 14  1  0  0  0  0
 12 16  1  0  0  0  0
 12 10  1  0  0  0  0
 14 13  1  0  0  0  0
 16 11  1  0  0  0  0
 19 22  1  0  0  0  0
 20 17  1  1  0  0  0
 21 27  2  0  0  0  0
 22 20  1  0  0  0  0
 22 18  2  0  0  0  0
 23 28  1  0  0  0  0
 24 19  2  0  0  0  0
 24 21  1  0  0  0  0
 25 23  1  0  0  0  0
 25 19  1  0  0  0  0
 26 21  1  0  0  0  0
 27 18  1  0  0  0  0
 28 20  1  0  0  0  0
M  END
>  <MODEL>
5

>  <REMARK>
 VINA RESULT:      -5.7      2.617      3.608
  Name = 
  5 active torsions:
  status: ('A' for Active; 'I' for Inactive)
    1  A    between atoms: C_1  and  C_27
    2  A    between atoms: N_2  and  C_3
    3  A    between atoms: C_10  and  C_17
    4  A    between atoms: C_16  and  C_27
    5  A    between atoms: C_17  and  C_27
                            x       y       z     vdW  Elec       q    Type
                         _______ _______ _______ _____ _____    ______ ____

>  <TORSDO>
F 5

$$$$
=
 OpenBabel11052422503D

 28 31  0  0  1  0  0  0  0  0999 V2000
  161.4960  209.3460  150.8410 C   0  0  1  0  0  3  0  0  0  0  0  0
  160.3070  208.2910  154.1450 C   0  0  0  0  0  2  0  0  0  0  0  0
  160.8860  209.1600  152.2000 C   0  0  0  0  0  0  0  0  0  0  0  0
  159.6650  209.6210  153.9240 C   0  0  0  0  0  3  0  0  0  0  0  0
  161.0790  208.1110  152.9270 N   0  0  0  0  0  0  0  0  0  0  0  0
  160.0140  210.1120  152.7840 N   0  0  0  0  0  0  0  0  0  0  0  0
  162.5260  210.4380  150.8330 C   0  0  0  0  0  0  0  0  0  0  0  0
  162.4120  211.5580  149.9460 N   0  0  0  0  0  2  0  0  0  0  0  0
  163.5630  210.3280  151.5400 O   0  0  0  0  0  0  0  0  0  0  0  0
  161.2450  211.9230  149.1980 C   0  0  0  0  0  0  0  0  0  0  0  0
  159.2910  212.9680  148.6640 N   0  0  0  0  0  0  0  0  0  0  0  0
  161.1770  211.7350  147.4280 S   0  0  0  0  0  0  0  0  0  0  0  0
  160.1320  213.1330  151.0670 C   0  0  0  0  0  1  0  0  0  0  0  0
  160.2270  212.6150  149.6690 C   0  0  0  0  0  0  0  0  0  0  0  0
  158.0660  213.6980  148.9450 C   0  0  0  0  0  1  0  0  0  0  0  0
  159.6060  212.5760  147.3530 N   0  0  0  0  0  2  0  0  0  0  0  0
  162.0870  208.0430  150.2950 C   0  0  0  0  0  2  0  0  0  0  0  0
  160.8210  205.3580  150.9340 C   0  0  0  0  0  3  0  0  0  0  0  0
  161.2190  204.8600  148.5920 C   0  0  0  0  0  0  0  0  0  0  0  0
  161.1320  207.2970  149.3540 C   0  0  2  0  0  3  0  0  0  0  0  0
  160.9110  203.0590  150.1830 C   0  0  0  0  0  0  0  0  0  0  0  0
  161.0900  205.8060  149.6330 C   0  0  0  0  0  0  0  0  0  0  0  0
  160.8260  206.6530  146.9210 C   0  0  0  0  0  2  0  0  0  0  0  0
  161.1490  203.4950  148.8770 C   0  0  0  0  0  3  0  0  0  0  0  0
  161.4620  205.2940  147.1790 C   0  0  0  0  0  2  0  0  0  0  0  0
  160.8360  201.6060  150.4800 C   0  0  0  0  0  1  0  0  0  0  0  0
  160.7350  203.9910  151.2080 C   0  0  0  0  0  3  0  0  0  0  0  0
  161.4150  207.6660  147.8900 C   0  0  0  0  0  2  0  0  0  0  0  0
  1 17  1  1  0  0  0
  1  3  1  0  0  0  0
  3  6  1  0  0  0  0
  3  5  2  0  0  0  0
  4  2  1  0  0  0  0
  5  2  1  0  0  0  0
  6  4  2  0  0  0  0
  7  1  1  0  0  0  0
  7  9  2  0  0  0  0
  8  7  1  0  0  0  0
 10 14  2  0  0  0  0
 10  8  1  0  0  0  0
 11 15  1  0  0  0  0
 11 14  1  0  0  0  0
 12 10  1  0  0  0  0
 14 13  1  0  0  0  0
 16 12  1  0  0  0  0
 16 11  1  0  0  0  0
 18 27  1  0  0  0  0
 19 24  2  0  0  0  0
 19 22  1  0  0  0  0
 20 22  1  0  0  0  0
 20 17  1  1  0  0  0
 21 26  1  0  0  0  0
 21 27  2  0  0  0  0
 22 18  2  0  0  0  0
 23 25  1  0  0  0  0
 23 28  1  0  0  0  0
 24 21  1  0  0  0  0
 25 19  1  0  0  0  0
 28 20  1  0  0  0  0
M  END
>  <MODEL>
6

>  <REMARK>
 VINA RESULT:      -5.6      2.820      3.662
  Name = 
  5 active torsions:
  status: ('A' for Active; 'I' for Inactive)
    1  A    between atoms: C_1  and  C_27
    2  A    between atoms: N_2  and  C_3
    3  A    between atoms: C_10  and  C_17
    4  A    between atoms: C_16  and  C_27
    5  A    between atoms: C_17  and  C_27
                            x       y       z     vdW  Elec       q    Type
                         _______ _______ _______ _____ _____    ______ ____

>  <TORSDO>
F 5

$$$$
=
 OpenBabel11052422503D

 28 31  0  0  1  0  0  0  0  0999 V2000
  161.0870  210.4260  152.1220 C   0  0  1  0  0  3  0  0  0  0  0  0
  162.6460  211.1330  148.8810 C   0  0  0  0  0  2  0  0  0  0  0  0
  161.5300  210.9080  150.7710 C   0  0  0  0  0  0  0  0  0  0  0  0
  161.5650  212.1560  149.0060 C   0  0  0  0  0  3  0  0  0  0  0  0
  162.5100  210.3820  150.1170 N   0  0  0  0  0  0  0  0  0  0  0  0
  160.9250  212.0090  150.1150 N   0  0  0  0  0  0  0  0  0  0  0  0
  160.2260  211.4360  152.8250 C   0  0  0  0  0  0  0  0  0  0  0  0
  159.9830  211.3510  154.2350 N   0  0  0  0  0  2  0  0  0  0  0  0
  159.6210  212.3180  152.1570 O   0  0  0  0  0  0  0  0  0  0  0  0
  160.6980  210.5270  155.1630 C   0  0  0  0  0  0  0  0  0  0  0  0
  161.1970  208.7430  156.4920 N   0  0  0  0  0  0  0  0  0  0  0  0
  162.4560  210.6990  155.3980 S   0  0  0  0  0  0  0  0  0  0  0  0
  158.8370  208.9190  155.5400 C   0  0  0  0  0  1  0  0  0  0  0  0
  160.2160  209.4520  155.7530 C   0  0  0  0  0  0  0  0  0  0  0  0
  160.8980  207.5470  157.2610 C   0  0  0  0  0  1  0  0  0  0  0  0
  162.5030  209.2570  156.4470 N   0  0  0  0  0  2  0  0  0  0  0  0
  160.3760  209.0720  152.0430 C   0  0  0  0  0  2  0  0  0  0  0  0
  161.3750  207.5340  149.6240 C   0  0  0  0  0  3  0  0  0  0  0  0
  161.1200  205.5770  151.0380 C   0  0  0  0  0  0  0  0  0  0  0  0
  161.3380  207.8810  152.1200 C   0  0  2  0  0  3  0  0  0  0  0  0
  161.1640  205.3390  148.6270 C   0  0  0  0  0  0  0  0  0  0  0  0
  161.2430  206.9780  150.9050 C   0  0  0  0  0  0  0  0  0  0  0  0
  161.7780  205.7520  153.4240 C   0  0  0  0  0  2  0  0  0  0  0  0
  161.0610  204.7710  149.8990 C   0  0  0  0  0  3  0  0  0  0  0  0
  161.0210  204.9340  152.3870 C   0  0  0  0  0  2  0  0  0  0  0  0
  161.1020  204.4770  147.4200 C   0  0  0  0  0  1  0  0  0  0  0  0
  161.3330  206.7190  148.4910 C   0  0  0  0  0  3  0  0  0  0  0  0
  161.1980  207.1570  153.4680 C   0  0  0  0  0  2  0  0  0  0  0  0
  1 17  1  6  0  0  0
  1  7  1  0  0  0  0
  2  4  1  0  0  0  0
  2  5  1  0  0  0  0
  3  1  1  0  0  0  0
  4  6  2  0  0  0  0
  5  3  2  0  0  0  0
  6  3  1  0  0  0  0
  7  8  1  0  0  0  0
  8 10  1  0  0  0  0
  9  7  2  0  0  0  0
 10 12  1  0  0  0  0
 10 14  2  0  0  0  0
 11 15  1  0  0  0  0
 12 16  1  0  0  0  0
 13 14  1  0  0  0  0
 14 11  1  0  0  0  0
 16 11  1  0  0  0  0
 18 22  1  0  0  0  0
 19 25  1  0  0  0  0
 20 17  1  6  0  0  0
 20 28  1  0  0  0  0
 21 24  2  0  0  0  0
 22 19  2  0  0  0  0
 22 20  1  0  0  0  0
 23 28  1  0  0  0  0
 24 19  1  0  0  0  0
 25 23  1  0  0  0  0
 26 21  1  0  0  0  0
 27 21  1  0  0  0  0
 27 18  2  0  0  0  0
M  END
>  <MODEL>
7

>  <REMARK>
 VINA RESULT:      -5.6      2.146      4.326
  Name = 
  5 active torsions:
  status: ('A' for Active; 'I' for Inactive)
    1  A    between atoms: C_1  and  C_27
    2  A    between atoms: N_2  and  C_3
    3  A    between atoms: C_10  and  C_17
    4  A    between atoms: C_16  and  C_27
    5  A    between atoms: C_17  and  C_27
                            x       y       z     vdW  Elec       q    Type
                         _______ _______ _______ _____ _____    ______ ____

>  <TORSDO>
F 5

$$$$
=
 OpenBabel11052422503D

 28 31  0  0  1  0  0  0  0  0999 V2000
  159.8930  210.5400  154.4140 C   0  0  1  0  0  3  0  0  0  0  0  0
  163.0710  210.4230  156.2370 C   0  0  0  0  0  2  0  0  0  0  0  0
  161.0420  210.3950  155.3680 C   0  0  0  0  0  0  0  0  0  0  0  0
  162.0750  209.8390  157.1840 C   0  0  0  0  0  3  0  0  0  0  0  0
  162.2520  210.7410  155.0800 N   0  0  0  0  0  0  0  0  0  0  0  0
  160.8970  209.8300  156.6600 N   0  0  0  0  0  0  0  0  0  0  0  0
  160.0860  211.6930  153.4720 C   0  0  0  0  0  0  0  0  0  0  0  0
  159.3950  212.9340  153.6660 N   0  0  0  0  0  2  0  0  0  0  0  0
  160.7870  211.5460  152.4350 O   0  0  0  0  0  0  0  0  0  0  0  0
  158.6940  213.3290  154.8520 C   0  0  0  0  0  0  0  0  0  0  0  0
  157.0350  213.4590  156.4100 N   0  0  0  0  0  0  0  0  0  0  0  0
  159.5620  213.9180  156.2930 S   0  0  0  0  0  0  0  0  0  0  0  0
  156.4970  212.3910  154.1570 C   0  0  0  0  0  1  0  0  0  0  0  0
  157.4180  213.1030  155.0920 C   0  0  0  0  0  0  0  0  0  0  0  0
  155.6720  213.3390  156.8980 C   0  0  0  0  0  1  0  0  0  0  0  0
  158.0540  213.9420  157.2470 N   0  0  0  0  0  2  0  0  0  0  0  0
  159.6270  209.2470  153.6360 C   0  0  0  0  0  2  0  0  0  0  0  0
  161.4930  209.0590  151.2490 C   0  0  0  0  0  3  0  0  0  0  0  0
  161.5130  206.6800  151.7300 C   0  0  0  0  0  0  0  0  0  0  0  0
  160.8480  208.3220  153.5710 C   0  0  2  0  0  3  0  0  0  0  0  0
  162.1160  207.4800  149.5240 C   0  0  0  0  0  0  0  0  0  0  0  0
  161.2620  208.0070  152.1460 C   0  0  0  0  0  0  0  0  0  0  0  0
  161.5910  205.9570  154.1030 C   0  0  0  0  0  2  0  0  0  0  0  0
  161.9170  206.4250  150.4180 C   0  0  0  0  0  3  0  0  0  0  0  0
  161.3230  205.5270  152.6670 C   0  0  0  0  0  2  0  0  0  0  0  0
  162.5480  207.2030  148.1310 C   0  0  0  0  0  1  0  0  0  0  0  0
  161.9150  208.7970  149.9430 C   0  0  0  0  0  3  0  0  0  0  0  0
  160.6430  207.0900  154.4650 C   0  0  0  0  0  2  0  0  0  0  0  0
  1 17  1  6  0  0  0
  1  3  1  0  0  0  0
  2  4  1  0  0  0  0
  3  6  1  0  0  0  0
  5  3  2  0  0  0  0
  5  2  1  0  0  0  0
  6  4  2  0  0  0  0
  7  8  1  0  0  0  0
  7  1  1  0  0  0  0
  8 10  1  0  0  0  0
  9  7  2  0  0  0  0
 10 14  2  0  0  0  0
 10 12  1  0  0  0  0
 11 15  1  0  0  0  0
 11 16  1  0  0  0  0
 12 16  1  0  0  0  0
 13 14  1  0  0  0  0
 14 11  1  0  0  0  0
 18 22  1  0  0  0  0
 19 22  2  0  0  0  0
 19 25  1  0  0  0  0
 20 17  1  6  0  0  0
 20 28  1  0  0  0  0
 21 27  1  0  0  0  0
 21 24  2  0  0  0  0
 22 20  1  0  0  0  0
 23 28  1  0  0  0  0
 24 19  1  0  0  0  0
 25 23  1  0  0  0  0
 26 21  1  0  0  0  0
 27 18  2  0  0  0  0
M  END
>  <MODEL>
8

>  <REMARK>
 VINA RESULT:      -5.6      2.275      3.733
  Name = 
  5 active torsions:
  status: ('A' for Active; 'I' for Inactive)
    1  A    between atoms: C_1  and  C_27
    2  A    between atoms: N_2  and  C_3
    3  A    between atoms: C_10  and  C_17
    4  A    between atoms: C_16  and  C_27
    5  A    between atoms: C_17  and  C_27
                            x       y       z     vdW  Elec       q    Type
                         _______ _______ _______ _____ _____    ______ ____

>  <TORSDO>
F 5

$$$$
=
 OpenBabel11052422503D

 28 31  0  0  1  0  0  0  0  0999 V2000
  160.7740  210.3350  152.1950 C   0  0  1  0  0  3  0  0  0  0  0  0
  162.1740  210.8430  155.5440 C   0  0  0  0  0  2  0  0  0  0  0  0
  161.0940  210.6290  153.6310 C   0  0  0  0  0  0  0  0  0  0  0  0
  160.7270  211.1830  155.6880 C   0  0  0  0  0  3  0  0  0  0  0  0
  162.2730  210.4910  154.1380 N   0  0  0  0  0  0  0  0  0  0  0  0
  160.1130  211.0530  154.5630 N   0  0  0  0  0  0  0  0  0  0  0  0
  161.9710  210.5070  151.3050 C   0  0  0  0  0  0  0  0  0  0  0  0
  161.9410  211.4010  150.1850 N   0  0  0  0  0  2  0  0  0  0  0  0
  162.9890  209.7850  151.4770 O   0  0  0  0  0  0  0  0  0  0  0  0
  160.9450  212.4010  149.9340 C   0  0  0  0  0  0  0  0  0  0  0  0
  159.4340  213.6720  148.7950 N   0  0  0  0  0  0  0  0  0  0  0  0
  159.9060  213.0290  151.2380 S   0  0  0  0  0  0  0  0  0  0  0  0
  161.0640  212.2400  147.4530 C   0  0  0  0  0  1  0  0  0  0  0  0
  160.5420  212.7890  148.7410 C   0  0  0  0  0  0  0  0  0  0  0  0
  158.8360  214.2650  147.6110 C   0  0  0  0  0  1  0  0  0  0  0  0
  158.9230  213.9530  150.0720 N   0  0  0  0  0  2  0  0  0  0  0  0
  160.1650  208.9410  152.0170 C   0  0  0  0  0  2  0  0  0  0  0  0
  161.3150  207.3060  149.7320 C   0  0  0  0  0  3  0  0  0  0  0  0
  161.1220  205.4340  151.2650 C   0  0  0  0  0  0  0  0  0  0  0  0
  161.1870  207.8110  152.1980 C   0  0  2  0  0  3  0  0  0  0  0  0
  161.2490  205.0420  148.8780 C   0  0  0  0  0  0  0  0  0  0  0  0
  161.1740  206.8280  151.0430 C   0  0  0  0  0  0  0  0  0  0  0  0
  161.6990  205.7980  153.6510 C   0  0  0  0  0  2  0  0  0  0  0  0
  161.1380  204.5530  150.1810 C   0  0  0  0  0  3  0  0  0  0  0  0
  161.0160  204.8750  152.6510 C   0  0  0  0  0  2  0  0  0  0  0  0
  161.2680  204.1010  147.7290 C   0  0  0  0  0  1  0  0  0  0  0  0
  161.3500  206.4170  148.6550 C   0  0  0  0  0  3  0  0  0  0  0  0
  161.0450  207.1690  153.5860 C   0  0  0  0  0  2  0  0  0  0  0  0
  1 17  1  1  0  0  0
  1  3  1  0  0  0  0
  2  4  1  0  0  0  0
  3  5  2  0  0  0  0
  3  6  1  0  0  0  0
  5  2  1  0  0  0  0
  6  4  2  0  0  0  0
  7  9  2  0  0  0  0
  7  1  1  0  0  0  0
  8  7  1  0  0  0  0
 10  8  1  0  0  0  0
 10 12  1  0  0  0  0
 11 16  1  0  0  0  0
 13 14  1  0  0  0  0
 14 11  1  0  0  0  0
 14 10  2  0  0  0  0
 15 11  1  0  0  0  0
 16 12  1  0  0  0  0
 18 22  1  0  0  0  0
 19 25  1  0  0  0  0
 20 17  1  6  0  0  0
 20 28  1  0  0  0  0
 21 24  2  0  0  0  0
 22 19  2  0  0  0  0
 22 20  1  0  0  0  0
 24 19  1  0  0  0  0
 25 23  1  0  0  0  0
 26 21  1  0  0  0  0
 27 21  1  0  0  0  0
 27 18  2  0  0  0  0
 28 23  1  0  0  0  0
M  END
>  <MODEL>
9

>  <REMARK>
 VINA RESULT:      -5.6      2.710      4.301
  Name = 
  5 active torsions:
  status: ('A' for Active; 'I' for Inactive)
    1  A    between atoms: C_1  and  C_27
    2  A    between atoms: N_2  and  C_3
    3  A    between atoms: C_10  and  C_17
    4  A    between atoms: C_16  and  C_27
    5  A    between atoms: C_17  and  C_27
                            x       y       z     vdW  Elec       q    Type
                         _______ _______ _______ _____ _____    ______ ____

>  <TORSDO>
F 5

$$$$
