=
 OpenBabel11052422173D

 25 27  0  0  1  0  0  0  0  0999 V2000
  161.3800  208.7890  153.4470 C   0  0  0  0  0  0  0  0  0  0  0  0
  161.3570  207.9960  152.3120 C   0  0  0  0  0  0  0  0  0  0  0  0
  161.0930  207.7790  154.7640 S   0  0  0  0  0  0  0  0  0  0  0  0
  160.9610  206.3180  153.9270 C   0  0  0  0  0  3  0  0  0  0  0  0
  161.0880  205.7070  151.5300 C   0  0  0  0  0  0  0  0  0  0  0  0
  160.8710  204.3580  151.7780 O   0  0  0  0  0  1  0  0  0  0  0  0
  161.5290  208.4490  151.0020 C   0  0  0  0  0  3  0  0  0  0  0  0
  161.2620  206.1600  150.2150 C   0  0  0  0  0  3  0  0  0  0  0  0
  161.4750  207.5230  149.9500 C   0  0  0  0  0  0  0  0  0  0  0  0
  161.1330  206.6330  152.5790 C   0  0  0  0  0  0  0  0  0  0  0  0
  161.5230  210.2800  153.4870 C   0  0  2  0  0  3  0  0  0  0  0  0
  162.1880  210.6820  154.6460 O   0  0  0  0  0  1  0  0  0  0  0  0
  160.1890  210.9530  153.3880 C   0  0  0  0  0  0  0  0  0  0  0  0
  157.9410  212.7190  153.3900 C   0  0  0  0  0  2  0  0  0  0  0  0
  159.9110  211.6490  152.2720 C   0  0  0  0  0  3  0  0  0  0  0  0
  158.5980  212.3560  152.0630 C   0  0  0  0  0  2  0  0  0  0  0  0
  157.8570  211.4680  154.2520 C   0  0  0  0  0  2  0  0  0  0  0  0
  159.2630  210.9710  154.5870 C   0  0  0  0  0  2  0  0  0  0  0  0
  161.6810  207.9820  148.5510 C   0  0  0  0  0  2  0  0  0  0  0  0
  162.3360  206.9350  147.7830 N   0  0  0  0  0  2  0  0  0  0  0  0
  161.6710  206.2450  146.7240 C   0  0  0  0  0  0  0  0  0  0  0  0
  160.4800  206.5320  146.4260 O   0  0  0  0  0  0  0  0  0  0  0  0
  162.3810  205.1980  145.9810 C   0  0  0  0  0  0  0  0  0  0  0  0
  161.8170  204.6530  144.8350 O   0  0  0  0  0  0  0  0  0  0  0  0
  163.5040  204.7890  146.3780 O   0  0  0  0  0  1  0  0  0  0  0  0
  1 11  1  0  0  0  0
  1  3  1  0  0  0  0
  2 10  1  0  0  0  0
  2  1  2  0  0  0  0
  4  3  1  0  0  0  0
  5  6  1  0  0  0  0
  5 10  1  0  0  0  0
  7  2  1  0  0  0  0
  8  5  2  0  0  0  0
  9  8  1  0  0  0  0
  9  7  2  0  0  0  0
 10  4  2  0  0  0  0
 11 12  1  1  0  0  0
 13 11  1  0  0  0  0
 13 18  1  0  0  0  0
 14 17  1  0  0  0  0
 15 13  2  0  0  0  0
 16 15  1  0  0  0  0
 16 14  1  0  0  0  0
 17 18  1  0  0  0  0
 19  9  1  0  0  0  0
 20 19  1  0  0  0  0
 21 20  1  0  0  0  0
 22 21  2  0  0  0  0
 23 25  1  0  0  0  0
 23 21  1  0  0  0  0
 24 23  2  0  0  0  0
M  END
>  <MODEL>
1

>  <REMARK>
 VINA RESULT:      -7.8      0.000      0.000
  Name = 
  5 active torsions:
  status: ('A' for Active; 'I' for Inactive)
    1  A    between atoms: C_1  and  C_18
    2  A    between atoms: C_2  and  C_21
    3  A    between atoms: C_5  and  C_18
    4  A    between atoms: C_6  and  N_15
    5  A    between atoms: C_6  and  C_23
                            x       y       z     vdW  Elec       q    Type
                         _______ _______ _______ _____ _____    ______ ____

>  <TORSDO>
F 5

$$$$
=
 OpenBabel11052422173D

 25 27  0  0  1  0  0  0  0  0999 V2000
  161.2350  208.0860  152.7400 C   0  0  0  0  0  0  0  0  0  0  0  0
  161.2090  207.2100  151.6670 C   0  0  0  0  0  0  0  0  0  0  0  0
  161.1610  207.1550  154.1410 S   0  0  0  0  0  0  0  0  0  0  0  0
  161.1210  205.6280  153.4200 C   0  0  0  0  0  3  0  0  0  0  0  0
  161.1270  204.8520  151.0690 C   0  0  0  0  0  0  0  0  0  0  0  0
  161.0760  203.5100  151.4250 O   0  0  0  0  0  1  0  0  0  0  0  0
  161.2300  207.5750  150.3200 C   0  0  0  0  0  3  0  0  0  0  0  0
  161.1490  205.2180  149.7160 C   0  0  0  0  0  3  0  0  0  0  0  0
  161.1930  206.5710  149.3420 C   0  0  0  0  0  0  0  0  0  0  0  0
  161.1540  205.8550  152.0450 C   0  0  0  0  0  0  0  0  0  0  0  0
  161.2200  209.5810  152.6660 C   0  0  2  0  0  3  0  0  0  0  0  0
  162.4260  210.0640  152.1560 O   0  0  0  0  0  1  0  0  0  0  0  0
  160.9390  210.1860  154.0070 C   0  0  0  0  0  0  0  0  0  0  0  0
  160.4100  211.8550  156.2660 C   0  0  0  0  0  2  0  0  0  0  0  0
  159.6630  210.4600  154.3250 C   0  0  0  0  0  3  0  0  0  0  0  0
  159.2670  211.0590  155.6490 C   0  0  0  0  0  2  0  0  0  0  0  0
  161.6500  210.9740  156.3140 C   0  0  0  0  0  2  0  0  0  0  0  0
  162.0890  210.6160  154.8960 C   0  0  0  0  0  2  0  0  0  0  0  0
  161.2400  206.9400  147.9020 C   0  0  0  0  0  2  0  0  0  0  0  0
  160.7830  205.8210  147.0940 N   0  0  0  0  0  2  0  0  0  0  0  0
  161.5900  205.2560  146.0590 C   0  0  0  0  0  0  0  0  0  0  0  0
  162.7360  205.7230  145.8190 O   0  0  0  0  0  0  0  0  0  0  0  0
  161.0790  204.1260  145.2750 C   0  0  0  0  0  0  0  0  0  0  0  0
  161.3560  202.8230  145.6680 O   0  0  0  0  0  1  0  0  0  0  0  0
  160.3870  204.3310  144.2430 O   0  0  0  0  0  0  0  0  0  0  0  0
  1  3  1  0  0  0  0
  2 10  1  0  0  0  0
  2  1  2  0  0  0  0
  4  3  1  0  0  0  0
  5  6  1  0  0  0  0
  5 10  1  0  0  0  0
  7  2  1  0  0  0  0
  8  5  2  0  0  0  0
  9  8  1  0  0  0  0
  9  7  2  0  0  0  0
 10  4  2  0  0  0  0
 11 12  1  1  0  0  0
 11  1  1  0  0  0  0
 11 13  1  0  0  0  0
 13 15  2  0  0  0  0
 13 18  1  0  0  0  0
 14 17  1  0  0  0  0
 15 16  1  0  0  0  0
 16 14  1  0  0  0  0
 18 17  1  0  0  0  0
 19  9  1  0  0  0  0
 20 19  1  0  0  0  0
 21 20  1  0  0  0  0
 22 21  2  0  0  0  0
 23 24  1  0  0  0  0
 23 21  1  0  0  0  0
 25 23  2  0  0  0  0
M  END
>  <MODEL>
2

>  <REMARK>
 VINA RESULT:      -7.7      1.591      2.172
  Name = 
  5 active torsions:
  status: ('A' for Active; 'I' for Inactive)
    1  A    between atoms: C_1  and  C_18
    2  A    between atoms: C_2  and  C_21
    3  A    between atoms: C_5  and  C_18
    4  A    between atoms: C_6  and  N_15
    5  A    between atoms: C_6  and  C_23
                            x       y       z     vdW  Elec       q    Type
                         _______ _______ _______ _____ _____    ______ ____

>  <TORSDO>
F 5

$$$$
=
 OpenBabel11052422173D

 25 27  0  0  1  0  0  0  0  0999 V2000
  161.3410  208.3380  153.1080 C   0  0  0  0  0  0  0  0  0  0  0  0
  161.2560  207.5120  152.0000 C   0  0  0  0  0  0  0  0  0  0  0  0
  161.7090  209.8830  152.5470 S   0  0  0  0  0  0  0  0  0  0  0  0
  161.7390  209.5420  150.8930 C   0  0  0  0  0  3  0  0  0  0  0  0
  161.4080  207.4750  149.5720 C   0  0  0  0  0  0  0  0  0  0  0  0
  161.6110  208.1190  148.3580 O   0  0  0  0  0  1  0  0  0  0  0  0
  160.9900  206.1410  152.0290 C   0  0  0  0  0  3  0  0  0  0  0  0
  161.1390  206.0990  149.5990 C   0  0  0  0  0  3  0  0  0  0  0  0
  160.9390  205.4330  150.8190 C   0  0  0  0  0  0  0  0  0  0  0  0
  161.4680  208.1790  150.7790 C   0  0  0  0  0  0  0  0  0  0  0  0
  161.2370  207.9170  154.5420 C   0  0  2  0  0  3  0  0  0  0  0  0
  160.2310  206.9640  154.7060 O   0  0  0  0  0  1  0  0  0  0  0  0
  160.9950  209.0940  155.4350 C   0  0  0  0  0  0  0  0  0  0  0  0
  160.6060  211.6560  156.6400 C   0  0  0  0  0  2  0  0  0  0  0  0
  159.7510  209.5980  155.4980 C   0  0  0  0  0  3  0  0  0  0  0  0
  159.3940  210.7720  156.3710 C   0  0  0  0  0  2  0  0  0  0  0  0
  161.7350  210.7890  157.1760 C   0  0  0  0  0  2  0  0  0  0  0  0
  162.1640  209.7780  156.1140 C   0  0  0  0  0  2  0  0  0  0  0  0
  160.6330  203.9780  150.8270 C   0  0  0  0  0  2  0  0  0  0  0  0
  160.9040  203.4120  149.5160 N   0  0  0  0  0  2  0  0  0  0  0  0
  160.7710  202.0140  149.2530 C   0  0  0  0  0  0  0  0  0  0  0  0
  160.4090  201.2260  150.1680 O   0  0  0  0  0  0  0  0  0  0  0  0
  161.0560  201.4980  147.9100 C   0  0  0  0  0  0  0  0  0  0  0  0
  161.4690  200.1830  147.7430 O   0  0  0  0  0  1  0  0  0  0  0  0
  160.9290  202.2430  146.9030 O   0  0  0  0  0  0  0  0  0  0  0  0
  1 11  1  0  0  0  0
  2  7  1  0  0  0  0
  2  1  2  0  0  0  0
  3  1  1  0  0  0  0
  4  3  1  0  0  0  0
  5  8  2  0  0  0  0
  5 10  1  0  0  0  0
  6  5  1  0  0  0  0
  8  9  1  0  0  0  0
  9 19  1  0  0  0  0
  9  7  2  0  0  0  0
 10  4  2  0  0  0  0
 10  2  1  0  0  0  0
 11 12  1  6  0  0  0
 11 13  1  0  0  0  0
 13 15  2  0  0  0  0
 13 18  1  0  0  0  0
 14 17  1  0  0  0  0
 15 16  1  0  0  0  0
 16 14  1  0  0  0  0
 18 17  1  0  0  0  0
 20 19  1  0  0  0  0
 21 20  1  0  0  0  0
 21 22  2  0  0  0  0
 23 21  1  0  0  0  0
 24 23  1  0  0  0  0
 25 23  2  0  0  0  0
M  END
>  <MODEL>
3

>  <REMARK>
 VINA RESULT:      -7.3      2.723      3.870
  Name = 
  5 active torsions:
  status: ('A' for Active; 'I' for Inactive)
    1  A    between atoms: C_1  and  C_18
    2  A    between atoms: C_2  and  C_21
    3  A    between atoms: C_5  and  C_18
    4  A    between atoms: C_6  and  N_15
    5  A    between atoms: C_6  and  C_23
                            x       y       z     vdW  Elec       q    Type
                         _______ _______ _______ _____ _____    ______ ____

>  <TORSDO>
F 5

$$$$
=
 OpenBabel11052422173D

 25 27  0  0  1  0  0  0  0  0999 V2000
  161.1750  205.2340  150.2090 C   0  0  0  0  0  0  0  0  0  0  0  0
  161.1220  203.9980  149.5840 C   0  0  0  0  0  0  0  0  0  0  0  0
  161.1120  204.9530  151.8680 S   0  0  0  0  0  0  0  0  0  0  0  0
  161.0430  203.2650  151.8290 C   0  0  0  0  0  3  0  0  0  0  0  0
  161.0030  201.6020  149.9950 C   0  0  0  0  0  0  0  0  0  0  0  0
  160.9420  200.5210  150.8650 O   0  0  0  0  0  1  0  0  0  0  0  0
  161.1260  203.7860  148.2040 C   0  0  0  0  0  3  0  0  0  0  0  0
  161.0090  201.3880  148.6090 C   0  0  0  0  0  3  0  0  0  0  0  0
  161.0630  202.4730  147.7180 C   0  0  0  0  0  0  0  0  0  0  0  0
  161.0570  202.9140  150.4790 C   0  0  0  0  0  0  0  0  0  0  0  0
  161.1760  206.5710  149.5350 C   0  0  2  0  0  3  0  0  0  0  0  0
  162.1770  206.6350  148.5650 O   0  0  0  0  0  1  0  0  0  0  0  0
  161.3400  207.6780  150.5310 C   0  0  0  0  0  0  0  0  0  0  0  0
  161.1410  209.9890  152.2000 C   0  0  0  0  0  2  0  0  0  0  0  0
  160.6980  207.5740  151.7070 C   0  0  0  0  0  3  0  0  0  0  0  0
  160.8010  208.6230  152.7830 C   0  0  0  0  0  2  0  0  0  0  0  0
  162.3790  209.8550  151.3260 C   0  0  0  0  0  2  0  0  0  0  0  0
  162.0810  208.9400  150.1390 C   0  0  0  0  0  2  0  0  0  0  0  0
  161.0920  202.2250  146.2520 C   0  0  0  0  0  2  0  0  0  0  0  0
  160.6700  203.4230  145.5430 N   0  0  0  0  0  2  0  0  0  0  0  0
  161.6080  204.3950  145.0770 C   0  0  0  0  0  0  0  0  0  0  0  0
  162.8420  204.2340  145.2730 O   0  0  0  0  0  0  0  0  0  0  0  0
  161.1260  205.5850  144.3670 C   0  0  0  0  0  0  0  0  0  0  0  0
  161.5110  205.8150  143.0520 O   0  0  0  0  0  0  0  0  0  0  0  0
  160.3630  206.4040  144.9440 O   0  0  0  0  0  1  0  0  0  0  0  0
  1  3  1  0  0  0  0
  2  1  2  0  0  0  0
  2 10  1  0  0  0  0
  4  3  1  0  0  0  0
  5 10  1  0  0  0  0
  5  6  1  0  0  0  0
  7  2  1  0  0  0  0
  8  5  2  0  0  0  0
  9  7  2  0  0  0  0
  9  8  1  0  0  0  0
 10  4  2  0  0  0  0
 11 12  1  6  0  0  0
 11  1  1  0  0  0  0
 11 13  1  0  0  0  0
 13 15  2  0  0  0  0
 14 16  1  0  0  0  0
 15 16  1  0  0  0  0
 17 14  1  0  0  0  0
 18 13  1  0  0  0  0
 18 17  1  0  0  0  0
 19  9  1  0  0  0  0
 20 19  1  0  0  0  0
 21 22  2  0  0  0  0
 21 20  1  0  0  0  0
 23 25  1  0  0  0  0
 23 21  1  0  0  0  0
 24 23  2  0  0  0  0
M  END
>  <MODEL>
4

>  <REMARK>
 VINA RESULT:      -7.2      2.859      4.642
  Name = 
  5 active torsions:
  status: ('A' for Active; 'I' for Inactive)
    1  A    between atoms: C_1  and  C_18
    2  A    between atoms: C_2  and  C_21
    3  A    between atoms: C_5  and  C_18
    4  A    between atoms: C_6  and  N_15
    5  A    between atoms: C_6  and  C_23
                            x       y       z     vdW  Elec       q    Type
                         _______ _______ _______ _____ _____    ______ ____

>  <TORSDO>
F 5

$$$$
=
 OpenBabel11052422173D

 25 27  0  0  1  0  0  0  0  0999 V2000
  161.1470  205.7480  150.2110 C   0  0  0  0  0  0  0  0  0  0  0  0
  161.2290  206.8590  151.0360 C   0  0  0  0  0  0  0  0  0  0  0  0
  161.5040  206.2640  148.6490 S   0  0  0  0  0  0  0  0  0  0  0  0
  161.7960  207.8930  148.9890 C   0  0  0  0  0  3  0  0  0  0  0  0
  161.7230  209.2410  151.0640 C   0  0  0  0  0  0  0  0  0  0  0  0
  162.0860  210.4140  150.4140 O   0  0  0  0  0  1  0  0  0  0  0  0
  160.9820  206.8690  152.4100 C   0  0  0  0  0  3  0  0  0  0  0  0
  161.4770  209.2530  152.4450 C   0  0  0  0  0  3  0  0  0  0  0  0
  161.1010  208.0760  153.1140 C   0  0  0  0  0  0  0  0  0  0  0  0
  161.5950  208.0380  150.3610 C   0  0  0  0  0  0  0  0  0  0  0  0
  160.7130  204.3730  150.6140 C   0  0  2  0  0  3  0  0  0  0  0  0
  161.3790  203.9620  151.7700 O   0  0  0  0  0  1  0  0  0  0  0  0
  160.9330  203.3900  149.5050 C   0  0  0  0  0  0  0  0  0  0  0  0
  160.7800  201.6220  147.2650 C   0  0  0  0  0  2  0  0  0  0  0  0
  161.2230  203.8670  148.2820 C   0  0  0  0  0  3  0  0  0  0  0  0
  161.4730  202.9700  147.1000 C   0  0  0  0  0  2  0  0  0  0  0  0
  161.1800  201.0270  148.6070 C   0  0  0  0  0  2  0  0  0  0  0  0
  160.6730  201.9160  149.7420 C   0  0  0  0  0  2  0  0  0  0  0  0
  160.8670  208.1020  154.5820 C   0  0  0  0  0  2  0  0  0  0  0  0
  161.2520  209.3980  155.1180 N   0  0  0  0  0  2  0  0  0  0  0  0
  162.0080  209.5230  156.3230 C   0  0  0  0  0  0  0  0  0  0  0  0
  162.3660  208.4960  156.9600 O   0  0  0  0  0  0  0  0  0  0  0  0
  162.3700  210.8560  156.8170 C   0  0  0  0  0  0  0  0  0  0  0  0
  163.6920  211.1490  157.1270 O   0  0  0  0  0  1  0  0  0  0  0  0
  161.4860  211.7410  156.9620 O   0  0  0  0  0  0  0  0  0  0  0  0
  1 11  1  0  0  0  0
  1  2  2  0  0  0  0
  2  7  1  0  0  0  0
  3  4  1  0  0  0  0
  3  1  1  0  0  0  0
  4 10  2  0  0  0  0
  5  8  2  0  0  0  0
  6  5  1  0  0  0  0
  7  9  2  0  0  0  0
  8  9  1  0  0  0  0
  9 19  1  0  0  0  0
 10  2  1  0  0  0  0
 10  5  1  0  0  0  0
 11 12  1  1  0  0  0
 13 18  1  0  0  0  0
 13 11  1  0  0  0  0
 14 17  1  0  0  0  0
 15 13  2  0  0  0  0
 16 14  1  0  0  0  0
 16 15  1  0  0  0  0
 17 18  1  0  0  0  0
 19 20  1  0  0  0  0
 20 21  1  0  0  0  0
 21 23  1  0  0  0  0
 21 22  2  0  0  0  0
 23 25  2  0  0  0  0
 23 24  1  0  0  0  0
M  END
>  <MODEL>
5

>  <REMARK>
 VINA RESULT:      -7.1      3.674      8.505
  Name = 
  5 active torsions:
  status: ('A' for Active; 'I' for Inactive)
    1  A    between atoms: C_1  and  C_18
    2  A    between atoms: C_2  and  C_21
    3  A    between atoms: C_5  and  C_18
    4  A    between atoms: C_6  and  N_15
    5  A    between atoms: C_6  and  C_23
                            x       y       z     vdW  Elec       q    Type
                         _______ _______ _______ _____ _____    ______ ____

>  <TORSDO>
F 5

$$$$
=
 OpenBabel11052422173D

 25 27  0  0  1  0  0  0  0  0999 V2000
  161.5780  206.2950  149.3380 C   0  0  0  0  0  0  0  0  0  0  0  0
  161.5230  206.8330  150.6140 C   0  0  0  0  0  0  0  0  0  0  0  0
  161.2690  204.6460  149.4820 S   0  0  0  0  0  0  0  0  0  0  0  0
  161.0350  204.5850  151.1530 C   0  0  0  0  0  3  0  0  0  0  0  0
  161.1210  206.2850  152.9510 C   0  0  0  0  0  0  0  0  0  0  0  0
  160.8150  205.3670  153.9480 O   0  0  0  0  0  1  0  0  0  0  0  0
  161.7450  208.1720  150.9400 C   0  0  0  0  0  3  0  0  0  0  0  0
  161.3410  207.6300  153.2800 C   0  0  0  0  0  3  0  0  0  0  0  0
  161.6580  208.5680  152.2830 C   0  0  0  0  0  0  0  0  0  0  0  0
  161.2150  205.8890  151.6120 C   0  0  0  0  0  0  0  0  0  0  0  0
  161.9500  207.0230  148.0830 C   0  0  2  0  0  3  0  0  0  0  0  0
  161.2050  208.1950  147.9510 O   0  0  0  0  0  1  0  0  0  0  0  0
  161.7720  206.1490  146.8790 C   0  0  0  0  0  0  0  0  0  0  0  0
  161.1070  204.1460  144.9520 C   0  0  0  0  0  2  0  0  0  0  0  0
  160.6570  206.3020  146.1430 C   0  0  0  0  0  3  0  0  0  0  0  0
  160.3820  205.4850  144.9090 C   0  0  0  0  0  2  0  0  0  0  0  0
  162.5820  204.3970  145.2300 C   0  0  0  0  0  2  0  0  0  0  0  0
  162.7520  205.0260  146.6110 C   0  0  0  0  0  2  0  0  0  0  0  0
  161.8660  209.9940  152.6480 C   0  0  0  0  0  2  0  0  0  0  0  0
  160.6520  210.7500  152.3870 N   0  0  0  0  0  2  0  0  0  0  0  0
  159.7040  211.0370  153.4170 C   0  0  0  0  0  0  0  0  0  0  0  0
  159.9030  210.6350  154.5950 O   0  0  0  0  0  0  0  0  0  0  0  0
  158.4960  211.8040  153.0980 C   0  0  0  0  0  0  0  0  0  0  0  0
  157.4170  211.8020  153.9740 O   0  0  0  0  0  1  0  0  0  0  0  0
  158.4290  212.4690  152.0300 O   0  0  0  0  0  0  0  0  0  0  0  0
  1  3  1  0  0  0  0
  1  2  2  0  0  0  0
  2  7  1  0  0  0  0
  2 10  1  0  0  0  0
  3  4  1  0  0  0  0
  4 10  2  0  0  0  0
  5  8  2  0  0  0  0
  5  6  1  0  0  0  0
  7  9  2  0  0  0  0
  9 19  1  0  0  0  0
  9  8  1  0  0  0  0
 10  5  1  0  0  0  0
 11 12  1  6  0  0  0
 11  1  1  0  0  0  0
 13 11  1  0  0  0  0
 14 17  1  0  0  0  0
 15 13  2  0  0  0  0
 16 14  1  0  0  0  0
 16 15  1  0  0  0  0
 17 18  1  0  0  0  0
 18 13  1  0  0  0  0
 20 19  1  0  0  0  0
 20 21  1  0  0  0  0
 21 22  2  0  0  0  0
 23 21  1  0  0  0  0
 23 24  1  0  0  0  0
 25 23  2  0  0  0  0
M  END
>  <MODEL>
6

>  <REMARK>
 VINA RESULT:      -7.1      2.548      7.607
  Name = 
  5 active torsions:
  status: ('A' for Active; 'I' for Inactive)
    1  A    between atoms: C_1  and  C_18
    2  A    between atoms: C_2  and  C_21
    3  A    between atoms: C_5  and  C_18
    4  A    between atoms: C_6  and  N_15
    5  A    between atoms: C_6  and  C_23
                            x       y       z     vdW  Elec       q    Type
                         _______ _______ _______ _____ _____    ______ ____

>  <TORSDO>
F 5

$$$$
=
 OpenBabel11052422173D

 25 27  0  0  1  0  0  0  0  0999 V2000
  161.6870  207.0190  151.7540 C   0  0  0  0  0  0  0  0  0  0  0  0
  161.5030  206.2380  150.6240 C   0  0  0  0  0  0  0  0  0  0  0  0
  161.9730  208.5930  151.2260 S   0  0  0  0  0  0  0  0  0  0  0  0
  161.8430  208.3220  149.5640 C   0  0  0  0  0  3  0  0  0  0  0  0
  161.4110  206.3050  148.1930 C   0  0  0  0  0  0  0  0  0  0  0  0
  161.4820  207.0030  146.9950 O   0  0  0  0  0  1  0  0  0  0  0  0
  161.2610  204.8630  150.6200 C   0  0  0  0  0  3  0  0  0  0  0  0
  161.1670  204.9250  148.1870 C   0  0  0  0  0  3  0  0  0  0  0  0
  161.1000  204.2050  149.3920 C   0  0  0  0  0  0  0  0  0  0  0  0
  161.5810  206.9600  149.4190 C   0  0  0  0  0  0  0  0  0  0  0  0
  161.7330  206.5360  153.1700 C   0  0  2  0  0  3  0  0  0  0  0  0
  161.2380  205.2350  153.2660 O   0  0  0  0  0  1  0  0  0  0  0  0
  160.9750  207.4530  154.0790 C   0  0  0  0  0  0  0  0  0  0  0  0
  160.0690  209.3490  156.0170 C   0  0  0  0  0  2  0  0  0  0  0  0
  160.8360  208.7390  153.7130 C   0  0  0  0  0  3  0  0  0  0  0  0
  160.0850  209.7440  154.5450 C   0  0  0  0  0  2  0  0  0  0  0  0
  159.5590  207.9210  156.1360 C   0  0  0  0  0  2  0  0  0  0  0  0
  160.5260  206.9630  155.4410 C   0  0  0  0  0  2  0  0  0  0  0  0
  160.8170  202.7450  149.3670 C   0  0  0  0  0  2  0  0  0  0  0  0
  160.6320  202.3040  147.9940 N   0  0  0  0  0  2  0  0  0  0  0  0
  161.0430  201.0080  147.5540 C   0  0  0  0  0  0  0  0  0  0  0  0
  161.5830  200.2040  148.3600 O   0  0  0  0  0  0  0  0  0  0  0  0
  160.8300  200.6150  146.1570 C   0  0  0  0  0  0  0  0  0  0  0  0
  160.2130  201.4910  145.2730 O   0  0  0  0  0  0  0  0  0  0  0  0
  161.2060  199.4840  145.7510 O   0  0  0  0  0  1  0  0  0  0  0  0
  1 11  1  0  0  0  0
  2  1  2  0  0  0  0
  3  1  1  0  0  0  0
  4  3  1  0  0  0  0
  5 10  1  0  0  0  0
  6  5  1  0  0  0  0
  7  2  1  0  0  0  0
  8  5  2  0  0  0  0
  8  9  1  0  0  0  0
  9  7  2  0  0  0  0
 10  4  2  0  0  0  0
 10  2  1  0  0  0  0
 11 12  1  6  0  0  0
 11 13  1  0  0  0  0
 13 18  1  0  0  0  0
 14 17  1  0  0  0  0
 15 13  2  0  0  0  0
 15 16  1  0  0  0  0
 16 14  1  0  0  0  0
 18 17  1  0  0  0  0
 19  9  1  0  0  0  0
 20 19  1  0  0  0  0
 21 20  1  0  0  0  0
 21 22  2  0  0  0  0
 23 21  1  0  0  0  0
 24 23  2  0  0  0  0
 25 23  1  0  0  0  0
M  END
>  <MODEL>
7

>  <REMARK>
 VINA RESULT:      -7.1      2.883      4.362
  Name = 
  5 active torsions:
  status: ('A' for Active; 'I' for Inactive)
    1  A    between atoms: C_1  and  C_18
    2  A    between atoms: C_2  and  C_21
    3  A    between atoms: C_5  and  C_18
    4  A    between atoms: C_6  and  N_15
    5  A    between atoms: C_6  and  C_23
                            x       y       z     vdW  Elec       q    Type
                         _______ _______ _______ _____ _____    ______ ____

>  <TORSDO>
F 5

$$$$
=
 OpenBabel11052422173D

 25 27  0  0  1  0  0  0  0  0999 V2000
  161.2290  205.8660  149.8170 C   0  0  0  0  0  0  0  0  0  0  0  0
  161.4240  207.1690  150.2450 C   0  0  0  0  0  0  0  0  0  0  0  0
  161.3820  205.8680  148.1400 S   0  0  0  0  0  0  0  0  0  0  0  0
  161.7230  207.5080  147.9260 C   0  0  0  0  0  3  0  0  0  0  0  0
  161.9280  209.4240  149.4810 C   0  0  0  0  0  0  0  0  0  0  0  0
  162.2090  210.3270  148.4630 O   0  0  0  0  0  1  0  0  0  0  0  0
  161.3580  207.6070  151.5700 C   0  0  0  0  0  3  0  0  0  0  0  0
  161.8650  209.8640  150.8110 C   0  0  0  0  0  3  0  0  0  0  0  0
  161.5750  208.9640  151.8490 C   0  0  0  0  0  0  0  0  0  0  0  0
  161.7040  208.0720  149.2020 C   0  0  0  0  0  0  0  0  0  0  0  0
  160.8450  204.6980  150.6720 C   0  0  2  0  0  3  0  0  0  0  0  0
  161.6820  204.6040  151.7850 O   0  0  0  0  0  1  0  0  0  0  0  0
  160.8710  203.4230  149.8880 C   0  0  0  0  0  0  0  0  0  0  0  0
  161.5010  200.9880  148.5290 C   0  0  0  0  0  2  0  0  0  0  0  0
  160.7730  202.2620  150.5590 C   0  0  0  0  0  3  0  0  0  0  0  0
  160.7780  200.9230  149.8700 C   0  0  0  0  0  2  0  0  0  0  0  0
  160.9060  202.1210  147.7070 C   0  0  0  0  0  2  0  0  0  0  0  0
  161.1620  203.4580  148.4010 C   0  0  0  0  0  2  0  0  0  0  0  0
  161.5340  209.4440  153.2560 C   0  0  0  0  0  2  0  0  0  0  0  0
  161.1050  208.3650  154.1310 N   0  0  0  0  0  2  0  0  0  0  0  0
  160.4050  208.6140  155.3510 C   0  0  0  0  0  0  0  0  0  0  0  0
  160.1390  209.7950  155.7030 O   0  0  0  0  0  0  0  0  0  0  0  0
  159.9940  207.4870  156.1960 C   0  0  0  0  0  0  0  0  0  0  0  0
  160.7910  207.0870  157.2600 O   0  0  0  0  0  1  0  0  0  0  0  0
  158.9180  206.8760  155.9600 O   0  0  0  0  0  0  0  0  0  0  0  0
  1  2  2  0  0  0  0
  1 11  1  0  0  0  0
  2  7  1  0  0  0  0
  3  1  1  0  0  0  0
  4  3  1  0  0  0  0
  4 10  2  0  0  0  0
  5  8  2  0  0  0  0
  6  5  1  0  0  0  0
  7  9  2  0  0  0  0
  8  9  1  0  0  0  0
  9 19  1  0  0  0  0
 10  5  1  0  0  0  0
 10  2  1  0  0  0  0
 11 12  1  1  0  0  0
 13 15  2  0  0  0  0
 13 11  1  0  0  0  0
 14 16  1  0  0  0  0
 16 15  1  0  0  0  0
 17 18  1  0  0  0  0
 17 14  1  0  0  0  0
 18 13  1  0  0  0  0
 19 20  1  0  0  0  0
 20 21  1  0  0  0  0
 21 22  2  0  0  0  0
 21 23  1  0  0  0  0
 23 24  1  0  0  0  0
 25 23  2  0  0  0  0
M  END
>  <MODEL>
8

>  <REMARK>
 VINA RESULT:      -7.0      3.484      8.132
  Name = 
  5 active torsions:
  status: ('A' for Active; 'I' for Inactive)
    1  A    between atoms: C_1  and  C_18
    2  A    between atoms: C_2  and  C_21
    3  A    between atoms: C_5  and  C_18
    4  A    between atoms: C_6  and  N_15
    5  A    between atoms: C_6  and  C_23
                            x       y       z     vdW  Elec       q    Type
                         _______ _______ _______ _____ _____    ______ ____

>  <TORSDO>
F 5

$$$$
=
 OpenBabel11052422173D

 25 27  0  0  1  0  0  0  0  0999 V2000
  161.1450  205.6080  150.9180 C   0  0  0  0  0  0  0  0  0  0  0  0
  161.1520  206.7660  151.6770 C   0  0  0  0  0  0  0  0  0  0  0  0
  161.1860  204.3110  151.9920 S   0  0  0  0  0  0  0  0  0  0  0  0
  161.1870  205.1890  153.4360 C   0  0  0  0  0  3  0  0  0  0  0  0
  161.1710  207.6090  153.9600 C   0  0  0  0  0  0  0  0  0  0  0  0
  161.1820  207.3950  155.3330 O   0  0  0  0  0  1  0  0  0  0  0  0
  161.1480  208.0680  151.1710 C   0  0  0  0  0  3  0  0  0  0  0  0
  161.1650  208.9160  153.4540 C   0  0  0  0  0  3  0  0  0  0  0  0
  161.1610  209.1460  152.0680 C   0  0  0  0  0  0  0  0  0  0  0  0
  161.1670  206.5330  153.0650 C   0  0  0  0  0  0  0  0  0  0  0  0
  161.2020  205.5240  149.4240 C   0  0  2  0  0  3  0  0  0  0  0  0
  160.2490  206.3620  148.8440 O   0  0  0  0  0  1  0  0  0  0  0  0
  161.0160  204.1140  148.9540 C   0  0  0  0  0  0  0  0  0  0  0  0
  161.1650  201.3230  148.3590 C   0  0  0  0  0  2  0  0  0  0  0  0
  160.4180  203.2420  149.7830 C   0  0  0  0  0  3  0  0  0  0  0  0
  160.1710  201.8050  149.4090 C   0  0  0  0  0  2  0  0  0  0  0  0
  161.1490  202.2940  147.1880 C   0  0  0  0  0  2  0  0  0  0  0  0
  161.6350  203.6680  147.6450 C   0  0  0  0  0  2  0  0  0  0  0  0
  161.1320  210.5390  151.5490 C   0  0  0  0  0  2  0  0  0  0  0  0
  160.2190  211.3410  152.3480 N   0  0  0  0  0  2  0  0  0  0  0  0
  159.7070  212.5920  151.8840 C   0  0  0  0  0  0  0  0  0  0  0  0
  160.0410  213.0360  150.7530 O   0  0  0  0  0  0  0  0  0  0  0  0
  158.7890  213.3590  152.7320 C   0  0  0  0  0  0  0  0  0  0  0  0
  157.6480  213.9320  152.1840 O   0  0  0  0  0  0  0  0  0  0  0  0
  159.0280  213.5030  153.9600 O   0  0  0  0  0  1  0  0  0  0  0  0
  1  2  2  0  0  0  0
  1  3  1  0  0  0  0
  2 10  1  0  0  0  0
  3  4  1  0  0  0  0
  5  6  1  0  0  0  0
  7  2  1  0  0  0  0
  7  9  2  0  0  0  0
  8  5  2  0  0  0  0
  9  8  1  0  0  0  0
 10  4  2  0  0  0  0
 10  5  1  0  0  0  0
 11 12  1  6  0  0  0
 11  1  1  0  0  0  0
 13 11  1  0  0  0  0
 13 15  2  0  0  0  0
 14 16  1  0  0  0  0
 16 15  1  0  0  0  0
 17 18  1  0  0  0  0
 17 14  1  0  0  0  0
 18 13  1  0  0  0  0
 19  9  1  0  0  0  0
 19 20  1  0  0  0  0
 21 20  1  0  0  0  0
 21 23  1  0  0  0  0
 22 21  2  0  0  0  0
 23 25  1  0  0  0  0
 24 23  2  0  0  0  0
M  END
>  <MODEL>
9

>  <REMARK>
 VINA RESULT:      -6.9      3.175      7.756
  Name = 
  5 active torsions:
  status: ('A' for Active; 'I' for Inactive)
    1  A    between atoms: C_1  and  C_18
    2  A    between atoms: C_2  and  C_21
    3  A    between atoms: C_5  and  C_18
    4  A    between atoms: C_6  and  N_15
    5  A    between atoms: C_6  and  C_23
                            x       y       z     vdW  Elec       q    Type
                         _______ _______ _______ _____ _____    ______ ____

>  <TORSDO>
F 5

$$$$
