=
 OpenBabel11062409373D

 34 38  0  0  0  0  0  0  0  0999 V2000
  161.2120  206.4630  150.4340 C   0  0  0  0  0  0  0  0  0  0  0  0
  161.5480  203.7020  147.9170 C   0  0  0  0  0  3  0  0  0  0  0  0
  160.5200  203.5990  150.0990 C   0  0  0  0  0  2  0  0  0  0  0  0
  161.5570  208.4280  151.8500 C   0  0  0  0  0  0  0  0  0  0  0  0
  161.4390  207.8420  150.5840 C   0  0  0  0  0  3  0  0  0  0  0  0
  161.2450  206.2440  152.8650 C   0  0  0  0  0  0  0  0  0  0  0  0
  161.1820  205.4840  154.0290 O   0  0  0  0  0  1  0  0  0  0  0  0
  161.4610  207.6200  152.9810 C   0  0  0  0  0  3  0  0  0  0  0  0
  160.8840  204.1840  151.4310 C   0  0  0  0  0  0  0  0  0  0  0  0
  161.1230  205.6460  151.5870 C   0  0  0  0  0  0  0  0  0  0  0  0
  160.9170  203.4170  152.4270 O   0  0  0  0  0  0  0  0  0  0  0  0
  162.1970  204.3380  146.7340 C   0  0  0  0  0  2  0  0  0  0  0  0
  161.2350  205.2270  146.0120 C   0  0  0  0  0  0  0  0  0  0  0  0
  160.7180  206.3130  146.6040 C   0  0  0  0  0  3  0  0  0  0  0  0
  161.0890  204.3860  148.9680 C   0  0  0  0  0  0  0  0  0  0  0  0
  160.8980  206.6890  148.0220 C   0  0  0  0  0  3  0  0  0  0  0  0
  161.1140  205.8700  149.0730 C   0  0  0  0  0  0  0  0  0  0  0  0
  160.9360  204.9520  144.5940 C   0  0  0  0  0  0  0  0  0  0  0  0
  160.0700  203.9140  144.2540 O   0  0  0  0  0  1  0  0  0  0  0  0
  161.4910  205.6170  143.6760 O   0  0  0  0  0  0  0  0  0  0  0  0
  161.8360  209.7890  152.0280 O   0  0  0  0  0  0  0  0  0  0  0  0
  159.2660  212.4650  152.4250 C   0  0  0  0  0  2  0  0  0  0  0  0
  160.8480  210.6520  153.9790 C   0  0  0  0  0  3  0  0  0  0  0  0
  157.4150  212.2820  155.6940 N   0  0  0  0  0  0  0  0  0  0  0  0
  156.1140  212.6280  156.1920 C   0  0  0  0  0  0  0  0  0  0  0  0
  157.7560  212.5960  154.3350 C   0  0  0  0  0  3  0  0  0  0  0  0
  155.6830  212.1030  157.2520 O   0  0  0  0  0  1  0  0  0  0  0  0
  158.9470  212.2490  153.8420 C   0  0  0  0  0  0  0  0  0  0  0  0
  155.3310  213.5630  155.5250 O   0  0  0  0  0  0  0  0  0  0  0  0
  159.4800  211.0760  156.0110 C   0  0  0  0  0  3  0  0  0  0  0  0
  160.0130  211.6510  154.7300 C   0  0  0  0  0  0  0  0  0  0  0  0
  158.2700  211.4190  156.4620 C   0  0  0  0  0  3  0  0  0  0  0  0
  161.0070  210.7340  152.6490 C   0  0  0  0  0  0  0  0  0  0  0  0
  160.2560  211.7570  151.8690 C   0  0  0  0  0  3  0  0  0  0  0  0
  1  5  2  0  0  0  0
  1 10  1  0  0  0  0
  2 15  2  0  0  0  0
  3  9  1  0  0  0  0
  4 21  1  0  0  0  0
  4  8  2  0  0  0  0
  5  4  1  0  0  0  0
  6  8  1  0  0  0  0
  6  7  1  0  0  0  0
  9 10  1  0  0  0  0
  9 11  2  0  0  0  0
 10  6  2  0  0  0  0
 12  2  1  0  0  0  0
 13 14  2  0  0  0  0
 13 12  1  0  0  0  0
 14 16  1  0  0  0  0
 15 17  1  0  0  0  0
 15  3  1  0  0  0  0
 16 17  2  0  0  0  0
 17  1  1  0  0  0  0
 18 13  1  0  0  0  0
 19 18  1  0  0  0  0
 20 18  2  0  0  0  0
 21 33  1  0  0  0  0
 22 28  1  0  0  0  0
 23 31  2  0  0  0  0
 24 25  1  0  0  0  0
 24 32  1  0  0  0  0
 25 27  1  0  0  0  0
 26 24  1  0  0  0  0
 28 26  2  0  0  0  0
 28 31  1  0  0  0  0
 29 25  2  0  0  0  0
 30 32  2  0  0  0  0
 31 30  1  0  0  0  0
 33 23  1  0  0  0  0
 34 22  1  0  0  0  0
 34 33  2  0  0  0  0
M  END
>  <MODEL>
1

>  <REMARK>
 VINA RESULT:     -11.5      0.000      0.000
  Name = 
  3 active torsions:
  status: ('A' for Active; 'I' for Inactive)
    1  A    between atoms: C_3  and  C_25
    2  A    between atoms: C_8  and  O_18
    3  A    between atoms: O_18  and  C_30
                            x       y       z     vdW  Elec       q    Type
                         _______ _______ _______ _____ _____    ______ ____

>  <TORSDO>
F 3

$$$$
=
 OpenBabel11062409373D

 34 38  0  0  0  0  0  0  0  0999 V2000
  161.4360  207.0330  150.0630 C   0  0  0  0  0  0  0  0  0  0  0  0
  161.6010  203.8570  148.0730 C   0  0  0  0  0  3  0  0  0  0  0  0
  160.6520  204.1810  150.2700 C   0  0  0  0  0  2  0  0  0  0  0  0
  161.8870  209.2060  151.0910 C   0  0  0  0  0  0  0  0  0  0  0  0
  161.7060  208.4080  149.9560 C   0  0  0  0  0  3  0  0  0  0  0  0
  161.5520  207.2500  152.4910 C   0  0  0  0  0  0  0  0  0  0  0  0
  161.5120  206.7130  153.7740 O   0  0  0  0  0  1  0  0  0  0  0  0
  161.8100  208.6170  152.3520 C   0  0  0  0  0  3  0  0  0  0  0  0
  161.0820  204.9810  151.4630 C   0  0  0  0  0  0  0  0  0  0  0  0
  161.3670  206.4390  151.3460 C   0  0  0  0  0  0  0  0  0  0  0  0
  161.1310  204.4030  152.5790 O   0  0  0  0  0  0  0  0  0  0  0  0
  162.2230  204.2490  146.7750 C   0  0  0  0  0  2  0  0  0  0  0  0
  161.2600  205.0270  145.9360 C   0  0  0  0  0  0  0  0  0  0  0  0
  160.7950  206.2190  146.3390 C   0  0  0  0  0  3  0  0  0  0  0  0
  161.2010  204.7330  148.9990 C   0  0  0  0  0  0  0  0  0  0  0  0
  161.0380  206.8350  147.6610 C   0  0  0  0  0  3  0  0  0  0  0  0
  161.2710  206.2100  148.8340 C   0  0  0  0  0  0  0  0  0  0  0  0
  160.9010  204.5130  144.6010 C   0  0  0  0  0  0  0  0  0  0  0  0
  160.1860  203.3240  144.4820 O   0  0  0  0  0  1  0  0  0  0  0  0
  161.2730  205.1150  143.5560 O   0  0  0  0  0  0  0  0  0  0  0  0
  162.2100  210.5670  151.0130 O   0  0  0  0  0  0  0  0  0  0  0  0
  161.7200  212.1470  147.6680 C   0  0  0  0  0  2  0  0  0  0  0  0
  160.7570  212.2970  150.3620 C   0  0  0  0  0  3  0  0  0  0  0  0
  158.3980  213.8740  147.3060 N   0  0  0  0  0  0  0  0  0  0  0  0
  157.4760  214.1790  146.2500 C   0  0  0  0  0  0  0  0  0  0  0  0
  159.6420  213.2300  146.9920 C   0  0  0  0  0  3  0  0  0  0  0  0
  156.2760  214.4520  146.5180 O   0  0  0  0  0  1  0  0  0  0  0  0
  160.4970  212.9040  147.9650 C   0  0  0  0  0  0  0  0  0  0  0  0
  157.9030  214.2020  144.9280 O   0  0  0  0  0  0  0  0  0  0  0  0
  158.8210  213.6980  149.6750 C   0  0  0  0  0  3  0  0  0  0  0  0
  160.2490  213.3290  149.3930 C   0  0  0  0  0  0  0  0  0  0  0  0
  157.9810  213.9870  148.6770 C   0  0  0  0  0  3  0  0  0  0  0  0
  161.7650  211.4730  150.0390 C   0  0  0  0  0  0  0  0  0  0  0  0
  162.3270  211.4850  148.6590 C   0  0  0  0  0  3  0  0  0  0  0  0
  1 10  1  0  0  0  0
  2 15  2  0  0  0  0
  3  9  1  0  0  0  0
  4  8  2  0  0  0  0
  5  1  2  0  0  0  0
  5  4  1  0  0  0  0
  6  7  1  0  0  0  0
  8  6  1  0  0  0  0
  9 11  2  0  0  0  0
 10  9  1  0  0  0  0
 10  6  2  0  0  0  0
 12  2  1  0  0  0  0
 13 14  2  0  0  0  0
 13 12  1  0  0  0  0
 14 16  1  0  0  0  0
 15  3  1  0  0  0  0
 16 17  2  0  0  0  0
 17 15  1  0  0  0  0
 17  1  1  0  0  0  0
 18 13  1  0  0  0  0
 19 18  1  0  0  0  0
 20 18  2  0  0  0  0
 21  4  1  0  0  0  0
 22 28  1  0  0  0  0
 22 34  1  0  0  0  0
 24 32  1  0  0  0  0
 25 27  1  0  0  0  0
 25 24  1  0  0  0  0
 26 24  1  0  0  0  0
 26 28  2  0  0  0  0
 28 31  1  0  0  0  0
 29 25  2  0  0  0  0
 31 30  1  0  0  0  0
 31 23  2  0  0  0  0
 32 30  2  0  0  0  0
 33 23  1  0  0  0  0
 33 21  1  0  0  0  0
 34 33  2  0  0  0  0
M  END
>  <MODEL>
2

>  <REMARK>
 VINA RESULT:     -10.7      3.554      4.663
  Name = 
  3 active torsions:
  status: ('A' for Active; 'I' for Inactive)
    1  A    between atoms: C_3  and  C_25
    2  A    between atoms: C_8  and  O_18
    3  A    between atoms: O_18  and  C_30
                            x       y       z     vdW  Elec       q    Type
                         _______ _______ _______ _____ _____    ______ ____

>  <TORSDO>
F 3

$$$$
=
 OpenBabel11062409373D

 34 38  0  0  0  0  0  0  0  0999 V2000
  160.7160  209.0740  153.8630 C   0  0  0  0  0  0  0  0  0  0  0  0
  158.8290  212.2930  153.4670 C   0  0  0  0  0  3  0  0  0  0  0  0
  159.8250  211.3960  155.4760 C   0  0  0  0  0  2  0  0  0  0  0  0
  161.5290  206.7730  153.6940 C   0  0  0  0  0  0  0  0  0  0  0  0
  161.2350  208.0090  153.1070 C   0  0  0  0  0  3  0  0  0  0  0  0
  160.7620  207.6330  155.8320 C   0  0  0  0  0  0  0  0  0  0  0  0
  160.5170  207.3900  157.1800 O   0  0  0  0  0  1  0  0  0  0  0  0
  161.2870  206.5960  155.0550 C   0  0  0  0  0  3  0  0  0  0  0  0
  159.9120  210.0120  156.0470 C   0  0  0  0  0  0  0  0  0  0  0  0
  160.4640  208.8850  155.2430 C   0  0  0  0  0  0  0  0  0  0  0  0
  159.5690  209.8410  157.2440 O   0  0  0  0  0  0  0  0  0  0  0  0
  158.5070  212.3720  152.0130 C   0  0  0  0  0  2  0  0  0  0  0  0
  159.7290  212.6910  151.2130 C   0  0  0  0  0  0  0  0  0  0  0  0
  160.7710  211.8490  151.1720 C   0  0  0  0  0  3  0  0  0  0  0  0
  159.6510  211.3820  153.9960 C   0  0  0  0  0  0  0  0  0  0  0  0
  160.9160  210.6200  151.9820 C   0  0  0  0  0  3  0  0  0  0  0  0
  160.3940  210.3670  153.2010 C   0  0  0  0  0  0  0  0  0  0  0  0
  159.7370  213.9080  150.3780 C   0  0  0  0  0  0  0  0  0  0  0  0
  158.5370  214.4390  149.9100 O   0  0  0  0  0  0  0  0  0  0  0  0
  160.8240  214.4530  150.0420 O   0  0  0  0  0  1  0  0  0  0  0  0
  161.9980  205.6790  152.9560 O   0  0  0  0  0  0  0  0  0  0  0  0
  160.9190  205.4560  149.3900 C   0  0  0  0  0  2  0  0  0  0  0  0
  161.1500  203.8470  151.7490 C   0  0  0  0  0  3  0  0  0  0  0  0
  160.9250  201.9430  148.0460 N   0  0  0  0  0  0  0  0  0  0  0  0
  161.1090  201.2980  146.7780 C   0  0  0  0  0  0  0  0  0  0  0  0
  160.9340  203.3770  148.1160 C   0  0  0  0  0  3  0  0  0  0  0  0
  161.4110  200.0760  146.7290 O   0  0  0  0  0  1  0  0  0  0  0  0
  160.8010  203.9950  149.2920 C   0  0  0  0  0  0  0  0  0  0  0  0
  160.9320  202.0060  145.5960 O   0  0  0  0  0  0  0  0  0  0  0  0
  160.8170  201.7540  150.4490 C   0  0  0  0  0  3  0  0  0  0  0  0
  160.4970  203.2180  150.5510 C   0  0  0  0  0  0  0  0  0  0  0  0
  160.9760  201.1710  149.2570 C   0  0  0  0  0  3  0  0  0  0  0  0
  161.4270  205.1600  151.7850 C   0  0  0  0  0  0  0  0  0  0  0  0
  161.1980  206.0040  150.5790 C   0  0  0  0  0  3  0  0  0  0  0  0
  1 10  1  0  0  0  0
  2 15  2  0  0  0  0
  3  9  1  0  0  0  0
  4  8  2  0  0  0  0
  5  4  1  0  0  0  0
  5  1  2  0  0  0  0
  6  7  1  0  0  0  0
  8  6  1  0  0  0  0
  9 11  2  0  0  0  0
 10  6  2  0  0  0  0
 10  9  1  0  0  0  0
 12  2  1  0  0  0  0
 13 12  1  0  0  0  0
 14 13  2  0  0  0  0
 14 16  1  0  0  0  0
 15  3  1  0  0  0  0
 16 17  2  0  0  0  0
 17  1  1  0  0  0  0
 17 15  1  0  0  0  0
 18 13  1  0  0  0  0
 19 18  2  0  0  0  0
 20 18  1  0  0  0  0
 21  4  1  0  0  0  0
 22 34  1  0  0  0  0
 23 33  1  0  0  0  0
 24 26  1  0  0  0  0
 24 32  1  0  0  0  0
 25 24  1  0  0  0  0
 26 28  2  0  0  0  0
 27 25  1  0  0  0  0
 28 22  1  0  0  0  0
 28 31  1  0  0  0  0
 29 25  2  0  0  0  0
 30 31  1  0  0  0  0
 31 23  2  0  0  0  0
 32 30  2  0  0  0  0
 33 21  1  0  0  0  0
 34 33  2  0  0  0  0
M  END
>  <MODEL>
3

>  <REMARK>
 VINA RESULT:     -10.0      3.264      9.308
  Name = 
  3 active torsions:
  status: ('A' for Active; 'I' for Inactive)
    1  A    between atoms: C_3  and  C_25
    2  A    between atoms: C_8  and  O_18
    3  A    between atoms: O_18  and  C_30
                            x       y       z     vdW  Elec       q    Type
                         _______ _______ _______ _____ _____    ______ ____

>  <TORSDO>
F 3

$$$$
=
 OpenBabel11062409373D

 34 38  0  0  0  0  0  0  0  0999 V2000
  161.3000  206.0520  150.5140 C   0  0  0  0  0  0  0  0  0  0  0  0
  161.4900  203.4810  147.7870 C   0  0  0  0  0  3  0  0  0  0  0  0
  160.4740  203.2570  149.9660 C   0  0  0  0  0  2  0  0  0  0  0  0
  161.7460  207.8830  152.0730 C   0  0  0  0  0  0  0  0  0  0  0  0
  161.5910  207.4030  150.7670 C   0  0  0  0  0  3  0  0  0  0  0  0
  161.3400  205.6430  152.9200 C   0  0  0  0  0  0  0  0  0  0  0  0
  161.2520  204.7980  154.0220 O   0  0  0  0  0  1  0  0  0  0  0  0
  161.6200  206.9950  153.1390 C   0  0  0  0  0  3  0  0  0  0  0  0
  160.8740  203.7190  151.3350 C   0  0  0  0  0  0  0  0  0  0  0  0
  161.1820  205.1530  151.6010 C   0  0  0  0  0  0  0  0  0  0  0  0
  160.8800  202.8760  152.2690 O   0  0  0  0  0  0  0  0  0  0  0  0
  162.1580  204.1770  146.6490 C   0  0  0  0  0  2  0  0  0  0  0  0
  161.2330  205.1630  146.0090 C   0  0  0  0  0  0  0  0  0  0  0  0
  160.7710  206.2220  146.6880 C   0  0  0  0  0  3  0  0  0  0  0  0
  161.0700  204.1020  148.8930 C   0  0  0  0  0  0  0  0  0  0  0  0
  160.9790  206.4780  148.1300 C   0  0  0  0  0  3  0  0  0  0  0  0
  161.1650  205.5710  149.1120 C   0  0  0  0  0  0  0  0  0  0  0  0
  160.9110  205.0120  144.5770 C   0  0  0  0  0  0  0  0  0  0  0  0
  161.2150  206.0360  143.6840 O   0  0  0  0  0  0  0  0  0  0  0  0
  160.3200  203.9800  144.1540 O   0  0  0  0  0  1  0  0  0  0  0  0
  162.0880  209.2120  152.3520 O   0  0  0  0  0  0  0  0  0  0  0  0
  161.5530  211.5410  149.4860 C   0  0  0  0  0  2  0  0  0  0  0  0
  160.7630  211.1490  152.2120 C   0  0  0  0  0  3  0  0  0  0  0  0
  158.3870  213.5510  149.7690 N   0  0  0  0  0  0  0  0  0  0  0  0
  157.4370  214.1570  148.8790 C   0  0  0  0  0  0  0  0  0  0  0  0
  159.5460  212.9030  149.2270 C   0  0  0  0  0  3  0  0  0  0  0  0
  156.2840  214.4520  149.2930 O   0  0  0  0  0  1  0  0  0  0  0  0
  160.4220  212.3010  150.0350 C   0  0  0  0  0  0  0  0  0  0  0  0
  157.7870  214.4460  147.5660 O   0  0  0  0  0  0  0  0  0  0  0  0
  158.9270  212.8120  152.0010 C   0  0  0  0  0  3  0  0  0  0  0  0
  160.2970  212.4090  151.5360 C   0  0  0  0  0  0  0  0  0  0  0  0
  158.0600  213.3830  151.1590 C   0  0  0  0  0  3  0  0  0  0  0  0
  161.6730  210.3460  151.6390 C   0  0  0  0  0  0  0  0  0  0  0  0
  162.1530  210.6270  150.2580 C   0  0  0  0  0  3  0  0  0  0  0  0
  1  5  2  0  0  0  0
  1 10  1  0  0  0  0
  2 15  2  0  0  0  0
  3  9  1  0  0  0  0
  4 21  1  0  0  0  0
  4  8  2  0  0  0  0
  5  4  1  0  0  0  0
  6  8  1  0  0  0  0
  6  7  1  0  0  0  0
  9 10  1  0  0  0  0
  9 11  2  0  0  0  0
 10  6  2  0  0  0  0
 12  2  1  0  0  0  0
 13 12  1  0  0  0  0
 13 14  2  0  0  0  0
 14 16  1  0  0  0  0
 15 17  1  0  0  0  0
 15  3  1  0  0  0  0
 16 17  2  0  0  0  0
 17  1  1  0  0  0  0
 18 13  1  0  0  0  0
 19 18  2  0  0  0  0
 20 18  1  0  0  0  0
 22 28  1  0  0  0  0
 22 34  1  0  0  0  0
 24 32  1  0  0  0  0
 25 27  1  0  0  0  0
 25 24  1  0  0  0  0
 26 24  1  0  0  0  0
 26 28  2  0  0  0  0
 28 31  1  0  0  0  0
 29 25  2  0  0  0  0
 31 30  1  0  0  0  0
 31 23  2  0  0  0  0
 32 30  2  0  0  0  0
 33 23  1  0  0  0  0
 33 21  1  0  0  0  0
 34 33  2  0  0  0  0
M  END
>  <MODEL>
4

>  <REMARK>
 VINA RESULT:      -9.6      2.646      3.363
  Name = 
  3 active torsions:
  status: ('A' for Active; 'I' for Inactive)
    1  A    between atoms: C_3  and  C_25
    2  A    between atoms: C_8  and  O_18
    3  A    between atoms: O_18  and  C_30
                            x       y       z     vdW  Elec       q    Type
                         _______ _______ _______ _____ _____    ______ ____

>  <TORSDO>
F 3

$$$$
=
 OpenBabel11062409373D

 34 38  0  0  0  0  0  0  0  0999 V2000
  161.1340  209.7600  152.0900 C   0  0  0  0  0  0  0  0  0  0  0  0
  159.9580  213.0380  150.6910 C   0  0  0  0  0  3  0  0  0  0  0  0
  160.3830  212.4810  153.0020 C   0  0  0  0  0  2  0  0  0  0  0  0
  161.5410  207.3910  152.5410 C   0  0  0  0  0  0  0  0  0  0  0  0
  161.5880  208.4950  151.6820 C   0  0  0  0  0  3  0  0  0  0  0  0
  160.5510  208.7970  154.2560 C   0  0  0  0  0  0  0  0  0  0  0  0
  160.0180  208.8940  155.5380 O   0  0  0  0  0  1  0  0  0  0  0  0
  161.0200  207.5530  153.8230 C   0  0  0  0  0  3  0  0  0  0  0  0
  160.1140  211.2580  153.8270 C   0  0  0  0  0  0  0  0  0  0  0  0
  160.5970  209.9170  153.3910 C   0  0  0  0  0  0  0  0  0  0  0  0
  159.5260  211.4030  154.9290 O   0  0  0  0  0  0  0  0  0  0  0  0
  159.9350  212.8370  149.2130 C   0  0  0  0  0  2  0  0  0  0  0  0
  161.3220  212.8030  148.6570 C   0  0  0  0  0  0  0  0  0  0  0  0
  162.1860  211.8400  149.0060 C   0  0  0  0  0  3  0  0  0  0  0  0
  160.4910  212.1630  151.5490 C   0  0  0  0  0  0  0  0  0  0  0  0
  161.9560  210.8120  150.0440 C   0  0  0  0  0  3  0  0  0  0  0  0
  161.1770  210.9070  151.1430 C   0  0  0  0  0  0  0  0  0  0  0  0
  161.7030  213.7930  147.6310 C   0  0  0  0  0  0  0  0  0  0  0  0
  162.9280  214.4510  147.7190 O   0  0  0  0  0  1  0  0  0  0  0  0
  160.9110  214.0880  146.6940 O   0  0  0  0  0  0  0  0  0  0  0  0
  161.9370  206.1080  152.1430 O   0  0  0  0  0  0  0  0  0  0  0  0
  160.8340  205.1680  148.7040 C   0  0  0  0  0  2  0  0  0  0  0  0
  161.1730  204.0430  151.3170 C   0  0  0  0  0  3  0  0  0  0  0  0
  161.0080  201.4700  148.0400 N   0  0  0  0  0  0  0  0  0  0  0  0
  161.2120  200.6080  146.9110 C   0  0  0  0  0  0  0  0  0  0  0  0
  160.9430  202.8900  147.8410 C   0  0  0  0  0  3  0  0  0  0  0  0
  161.5760  199.4150  147.0850 O   0  0  0  0  0  1  0  0  0  0  0  0
  160.7910  203.7110  148.8820 C   0  0  0  0  0  0  0  0  0  0  0  0
  160.9860  201.0730  145.6210 O   0  0  0  0  0  0  0  0  0  0  0  0
  160.9360  201.7300  150.4380 C   0  0  0  0  0  3  0  0  0  0  0  0
  160.5400  203.1690  150.2700 C   0  0  0  0  0  0  0  0  0  0  0  0
  161.1120  200.9420  149.3730 C   0  0  0  0  0  3  0  0  0  0  0  0
  161.3820  205.3510  151.1010 C   0  0  0  0  0  0  0  0  0  0  0  0
  161.0970  205.9420  149.7640 C   0  0  0  0  0  3  0  0  0  0  0  0
  1 10  1  0  0  0  0
  2 15  2  0  0  0  0
  3  9  1  0  0  0  0
  4  8  2  0  0  0  0
  5  1  2  0  0  0  0
  5  4  1  0  0  0  0
  6  7  1  0  0  0  0
  8  6  1  0  0  0  0
  9 11  2  0  0  0  0
 10  9  1  0  0  0  0
 10  6  2  0  0  0  0
 12  2  1  0  0  0  0
 13 14  2  0  0  0  0
 13 12  1  0  0  0  0
 14 16  1  0  0  0  0
 15  3  1  0  0  0  0
 16 17  2  0  0  0  0
 17 15  1  0  0  0  0
 17  1  1  0  0  0  0
 18 19  1  0  0  0  0
 18 13  1  0  0  0  0
 20 18  2  0  0  0  0
 21  4  1  0  0  0  0
 22 28  1  0  0  0  0
 22 34  1  0  0  0  0
 24 32  1  0  0  0  0
 25 27  1  0  0  0  0
 25 24  1  0  0  0  0
 26 24  1  0  0  0  0
 26 28  2  0  0  0  0
 28 31  1  0  0  0  0
 29 25  2  0  0  0  0
 31 30  1  0  0  0  0
 31 23  2  0  0  0  0
 32 30  2  0  0  0  0
 33 23  1  0  0  0  0
 33 21  1  0  0  0  0
 34 33  2  0  0  0  0
M  END
>  <MODEL>
5

>  <REMARK>
 VINA RESULT:      -9.2      3.679      9.149
  Name = 
  3 active torsions:
  status: ('A' for Active; 'I' for Inactive)
    1  A    between atoms: C_3  and  C_25
    2  A    between atoms: C_8  and  O_18
    3  A    between atoms: O_18  and  C_30
                            x       y       z     vdW  Elec       q    Type
                         _______ _______ _______ _____ _____    ______ ____

>  <TORSDO>
F 3

$$$$
=
 OpenBabel11062409373D

 34 38  0  0  1  0  0  0  0  0999 V2000
  160.7240  209.0970  153.3790 C   0  0  0  0  0  0  0  0  0  0  0  0
  159.9200  212.6190  152.3630 C   0  0  0  0  0  3  0  0  0  0  0  0
  160.6300  211.8280  154.5310 C   0  0  0  0  0  2  0  0  0  0  0  0
  160.7800  206.6660  153.6430 C   0  0  0  0  0  0  0  0  0  0  0  0
  160.8710  207.8080  152.8390 C   0  0  0  0  0  3  0  0  0  0  0  0
  160.3620  208.0840  155.5700 C   0  0  0  0  0  0  0  0  0  0  0  0
  160.0810  208.1710  156.9300 O   0  0  0  0  0  1  0  0  0  0  0  0
  160.5230  206.8160  155.0040 C   0  0  0  0  0  3  0  0  0  0  0  0
  160.2960  210.6080  155.3360 C   0  0  0  0  0  0  0  0  0  0  0  0
  160.4540  209.2430  154.7610 C   0  0  0  0  0  0  0  0  0  0  0  0
  159.9410  210.7650  156.5330 O   0  0  0  0  0  0  0  0  0  0  0  0
  159.6080  212.5360  150.9060 C   0  0  0  0  0  2  0  0  0  0  0  0
  160.8520  212.3160  150.1060 C   0  0  0  0  0  0  0  0  0  0  0  0
  161.5800  211.1990  150.2500 C   0  0  0  0  0  3  0  0  0  0  0  0
  160.4300  211.6070  153.0710 C   0  0  0  0  0  0  0  0  0  0  0  0
  161.3540  210.1490  151.2660 C   0  0  0  0  0  3  0  0  0  0  0  0
  160.8050  210.2880  152.4910 C   0  0  0  0  0  0  0  0  0  0  0  0
  161.2190  213.3030  149.0730 C   0  0  0  0  0  0  0  0  0  0  0  0
  162.3290  213.0810  148.2610 O   0  0  0  0  0  0  0  0  0  0  0  0
  160.5650  214.3740  148.9430 O   0  0  0  0  0  1  0  0  0  0  0  0
  160.8700  205.3680  153.1230 O   0  0  0  0  0  0  0  0  0  0  0  0
  161.2430  203.3260  150.0220 C   0  0  0  0  0  3  0  0  0  0  0  0
  161.5790  206.0070  150.9740 C   0  0  0  0  0  3  0  0  0  0  0  0
  161.1970  205.3780  146.8700 N   0  0  0  0  0  0  0  0  0  0  0  0
  160.8090  205.2000  145.5000 C   0  0  0  0  0  0  0  0  0  0  0  0
  161.1110  204.2690  147.7770 C   0  0  0  0  0  3  0  0  0  0  0  0
  160.5820  206.2030  144.7730 O   0  0  0  0  0  0  0  0  0  0  0  0
  161.4320  204.4230  149.0630 C   0  0  0  0  0  0  0  0  0  0  0  0
  160.7070  203.9250  144.9570 O   0  0  0  0  0  1  0  0  0  0  0  0
  161.7830  206.8880  148.6580 C   0  0  0  0  0  3  0  0  0  0  0  0
  162.0250  205.7180  149.5680 C   0  0  1  0  0  3  0  0  0  0  0  0
  161.4320  206.7000  147.3820 C   0  0  0  0  0  3  0  0  0  0  0  0
  161.2330  205.0200  151.8140 C   0  0  0  0  0  0  0  0  0  0  0  0
  161.1670  203.6140  151.3270 C   0  0  0  0  0  3  0  0  0  0  0  0
  1 10  1  0  0  0  0
  2 15  2  0  0  0  0
  3  9  1  0  0  0  0
  4  8  2  0  0  0  0
  5  1  2  0  0  0  0
  5  4  1  0  0  0  0
  6  7  1  0  0  0  0
  8  6  1  0  0  0  0
  9 11  2  0  0  0  0
 10  9  1  0  0  0  0
 10  6  2  0  0  0  0
 12  2  1  0  0  0  0
 13 14  2  0  0  0  0
 13 12  1  0  0  0  0
 14 16  1  0  0  0  0
 15  3  1  0  0  0  0
 16 17  2  0  0  0  0
 17 15  1  0  0  0  0
 17  1  1  0  0  0  0
 18 13  1  0  0  0  0
 19 18  2  0  0  0  0
 20 18  1  0  0  0  0
 21  4  1  0  0  0  0
 22 34  2  0  0  0  0
 23 33  2  0  0  0  0
 24 32  1  0  0  0  0
 24 26  1  0  0  0  0
 25 24  1  0  0  0  0
 26 28  2  0  0  0  0
 27 25  2  0  0  0  0
 28 31  1  0  0  0  0
 28 22  1  0  0  0  0
 29 25  1  0  0  0  0
 31 30  1  6  0  0  0
 31 23  1  0  0  0  0
 32 30  2  0  0  0  0
 33 21  1  0  0  0  0
 34 33  1  0  0  0  0
M  END
>  <MODEL>
6

>  <REMARK>
 VINA RESULT:      -8.7      2.936      8.611
  Name = 
  3 active torsions:
  status: ('A' for Active; 'I' for Inactive)
    1  A    between atoms: C_3  and  C_25
    2  A    between atoms: C_8  and  O_18
    3  A    between atoms: O_18  and  C_30
                            x       y       z     vdW  Elec       q    Type
                         _______ _______ _______ _____ _____    ______ ____

>  <TORSDO>
F 3

$$$$
