=
 OpenBabel11062409033D

 37 44  0  0  1  0  0  0  0  0999 V2000
  160.8390  206.9920  154.6800 O   0  0  0  0  0  0  0  0  0  0  0  0
  160.4260  203.8960  150.1350 C   0  0  0  0  0  3  0  0  0  0  0  0
  161.9260  208.0650  150.2980 N   0  0  0  0  0  0  0  0  0  0  0  0
  162.7330  210.6970  152.7920 C   0  0  0  0  0  2  0  0  0  0  0  0
  160.7010  206.2110  149.3260 C   0  0  0  0  0  0  0  0  0  0  0  0
  162.2680  208.5060  151.6520 C   0  0  1  0  0  3  0  0  0  0  0  0
  161.2280  206.8270  150.3880 C   0  0  0  0  0  0  0  0  0  0  0  0
  161.7280  209.9170  151.9670 C   0  0  1  0  0  0  0  0  0  0  0  0
  160.9100  206.7830  147.9620 C   0  0  0  0  0  2  0  0  0  0  0  0
  161.1970  206.3970  151.7810 C   0  0  0  0  0  0  0  0  0  0  0  0
  161.5650  204.8240  153.5170 O   0  0  0  0  0  1  0  0  0  0  0  0
  161.7540  209.7830  148.5440 C   0  0  0  0  0  2  0  0  0  0  0  0
  162.6480  207.3100  147.7680 S   0  0  0  0  0  0  0  0  0  0  0  0
  161.2200  205.1110  152.2030 C   0  0  0  0  0  0  0  0  0  0  0  0
  161.4060  210.2990  153.4180 C   0  0  1  0  0  3  0  0  0  0  0  0
  162.5380  208.5930  149.0730 C   0  0  2  0  0  3  0  0  0  0  0  0
  161.6930  207.5010  152.5530 N   0  0  0  0  0  0  0  0  0  0  0  0
  159.7650  205.0650  149.4910 C   0  0  0  0  0  2  0  0  0  0  0  0
  161.0170  210.7290  150.8670 C   0  0  2  0  0  3  0  0  0  0  0  0
  161.0220  203.9340  151.3270 C   0  0  0  0  0  3  0  0  0  0  0  0
  161.5750  209.1880  154.3530 N   0  0  0  0  0  0  0  0  0  0  0  0
  161.3560  207.8400  153.9050 C   0  0  0  0  0  0  0  0  0  0  0  0
  162.1140  211.2710  149.5190 S   0  0  0  0  0  0  0  0  0  0  0  0
  159.1370  211.3980  152.3390 C   0  0  0  0  0  3  0  0  0  0  0  0
  160.0060  211.7600  151.3030 C   0  0  0  0  0  0  0  0  0  0  0  0
  159.9190  213.0610  150.7530 C   0  0  0  0  0  0  0  0  0  0  0  0
  160.8140  213.5260  149.6540 C   0  0  0  0  0  1  0  0  0  0  0  0
  158.1020  213.5820  152.2740 C   0  0  0  0  0  3  0  0  0  0  0  0
  158.9650  213.9590  151.2430 C   0  0  0  0  0  3  0  0  0  0  0  0
  158.1880  212.3020  152.8220 C   0  0  0  0  0  3  0  0  0  0  0  0
  161.6980  209.5290  155.7730 C   0  0  1  0  0  3  0  0  0  0  0  0
  162.1180  211.4710  157.2610 C   0  0  0  0  0  2  0  0  0  0  0  0
  164.4850  211.4950  157.0960 O   0  0  0  0  0  1  0  0  0  0  0  0
  162.5220  210.7940  155.9680 C   0  0  1  0  0  3  0  0  0  0  0  0
  163.3850  210.6460  157.2050 C   0  0  2  0  0  3  0  0  0  0  0  0
  160.3280  209.6730  156.4250 C   0  0  0  0  0  2  0  0  0  0  0  0
  160.0050  208.4420  157.2500 C   0  0  0  0  0  1  0  0  0  0  0  0
  2 20  2  0  0  0  0
  3  7  1  0  0  0  0
  5 18  1  0  0  0  0
  5  7  2  0  0  0  0
  6  3  1  6  0  0  0
  6  8  1  0  0  0  0
  6 17  1  0  0  0  0
  7 10  1  0  0  0  0
  8  4  1  6  0  0  0
  8 15  1  0  0  0  0
  9  5  1  0  0  0  0
 10 14  2  0  0  0  0
 10 17  1  0  0  0  0
 12 23  1  0  0  0  0
 13  9  1  0  0  0  0
 13 16  1  0  0  0  0
 14 11  1  0  0  0  0
 15  4  1  1  0  0  0
 15 21  1  0  0  0  0
 16 12  1  6  0  0  0
 16  3  1  0  0  0  0
 17 22  1  0  0  0  0
 18  2  1  0  0  0  0
 19 25  1  1  0  0  0
 19  8  1  0  0  0  0
 20 14  1  0  0  0  0
 21 31  1  0  0  0  0
 22 21  1  0  0  0  0
 22  1  2  0  0  0  0
 23 19  1  0  0  0  0
 24 30  1  0  0  0  0
 25 24  2  0  0  0  0
 26 29  2  0  0  0  0
 26 25  1  0  0  0  0
 27 26  1  0  0  0  0
 28 30  2  0  0  0  0
 29 28  1  0  0  0  0
 31 36  1  6  0  0  0
 34 31  1  1  0  0  0
 34 35  1  0  0  0  0
 34 32  1  0  0  0  0
 35 33  1  6  0  0  0
 35 32  1  0  0  0  0
 36 37  1  0  0  0  0
M  END
>  <MODEL>
1

>  <REMARK>
 VINA RESULT:      -5.0      0.000      0.000
  Name = 
  4 active torsions:
  status: ('A' for Active; 'I' for Inactive)
    1  A    between atoms: C_6  and  C_31
    2  A    between atoms: C_11  and  C_26
    3  A    between atoms: C_17  and  C_26
    4  A    between atoms: C_26  and  N_33
                            x       y       z     vdW  Elec       q    Type
                         _______ _______ _______ _____ _____    ______ ____

>  <TORSDO>
F 4

$$$$
=
 OpenBabel11062409033D

 37 44  0  0  1  0  0  0  0  0999 V2000
  160.3180  207.3670  154.8890 O   0  0  0  0  0  0  0  0  0  0  0  0
  160.4540  204.0130  150.5150 C   0  0  0  0  0  3  0  0  0  0  0  0
  161.8860  208.2080  150.6030 N   0  0  0  0  0  0  0  0  0  0  0  0
  162.3790  210.9890  153.0150 C   0  0  0  0  0  2  0  0  0  0  0  0
  160.7970  206.2820  149.6090 C   0  0  0  0  0  0  0  0  0  0  0  0
  162.0680  208.7310  151.9600 C   0  0  1  0  0  3  0  0  0  0  0  0
  161.1940  206.9660  150.6860 C   0  0  0  0  0  0  0  0  0  0  0  0
  161.4820  210.1490  152.1290 C   0  0  1  0  0  0  0  0  0  0  0  0
  161.1540  206.7800  148.2470 C   0  0  0  0  0  2  0  0  0  0  0  0
  161.0090  206.6150  152.0890 C   0  0  0  0  0  0  0  0  0  0  0  0
  161.1930  205.1490  153.9440 O   0  0  0  0  0  1  0  0  0  0  0  0
  161.8980  209.8210  148.7440 C   0  0  0  0  0  2  0  0  0  0  0  0
  162.8980  207.3230  148.2190 S   0  0  0  0  0  0  0  0  0  0  0  0
  160.9960  205.3550  152.5850 C   0  0  0  0  0  0  0  0  0  0  0  0
  160.9930  210.6070  153.5100 C   0  0  1  0  0  3  0  0  0  0  0  0
  162.6280  208.6760  149.4260 C   0  0  2  0  0  3  0  0  0  0  0  0
  161.4030  207.7690  152.8460 N   0  0  0  0  0  0  0  0  0  0  0  0
  159.8590  205.1330  149.7340 C   0  0  0  0  0  2  0  0  0  0  0  0
  160.8920  210.8850  150.9100 C   0  0  2  0  0  3  0  0  0  0  0  0
  160.9100  204.1280  151.7630 C   0  0  0  0  0  3  0  0  0  0  0  0
  161.0660  209.5530  154.5210 N   0  0  0  0  0  0  0  0  0  0  0  0
  160.9120  208.1790  154.1300 C   0  0  0  0  0  0  0  0  0  0  0  0
  162.1310  211.3670  149.6660 S   0  0  0  0  0  0  0  0  0  0  0  0
  158.9490  211.6790  152.2300 C   0  0  0  0  0  3  0  0  0  0  0  0
  159.8290  211.9230  151.1690 C   0  0  0  0  0  0  0  0  0  0  0  0
  159.7030  213.1230  150.4300 C   0  0  0  0  0  0  0  0  0  0  0  0
  160.6050  213.4610  149.2920 C   0  0  0  0  0  1  0  0  0  0  0  0
  157.8270  213.7810  151.8210 C   0  0  0  0  0  3  0  0  0  0  0  0
  158.7000  214.0400  150.7630 C   0  0  0  0  0  3  0  0  0  0  0  0
  157.9520  212.6010  152.5550 C   0  0  0  0  0  3  0  0  0  0  0  0
  161.0230  209.9760  155.9230 C   0  0  1  0  0  3  0  0  0  0  0  0
  159.3500  211.2330  157.2580 C   0  0  0  0  0  2  0  0  0  0  0  0
  157.4640  210.8210  155.8770 O   0  0  0  0  0  1  0  0  0  0  0  0
  159.5990  209.9710  156.4590 C   0  0  1  0  0  3  0  0  0  0  0  0
  158.8250  211.1200  155.8430 C   0  0  2  0  0  3  0  0  0  0  0  0
  161.9270  209.1060  156.7890 C   0  0  0  0  0  2  0  0  0  0  0  0
  163.1370  209.8960  157.2480 C   0  0  0  0  0  1  0  0  0  0  0  0
  2 20  2  0  0  0  0
  3  7  1  0  0  0  0
  5 18  1  0  0  0  0
  5  7  2  0  0  0  0
  6  3  1  6  0  0  0
  6  8  1  0  0  0  0
  6 17  1  0  0  0  0
  7 10  1  0  0  0  0
  8  4  1  1  0  0  0
  8 15  1  0  0  0  0
  9  5  1  0  0  0  0
 10 14  2  0  0  0  0
 10 17  1  0  0  0  0
 12 23  1  0  0  0  0
 13  9  1  0  0  0  0
 13 16  1  0  0  0  0
 14 11  1  0  0  0  0
 15  4  1  1  0  0  0
 15 21  1  0  0  0  0
 16 12  1  6  0  0  0
 16  3  1  0  0  0  0
 17 22  1  0  0  0  0
 18  2  1  0  0  0  0
 19 25  1  1  0  0  0
 19  8  1  0  0  0  0
 20 14  1  0  0  0  0
 21 31  1  0  0  0  0
 22 21  1  0  0  0  0
 22  1  2  0  0  0  0
 23 19  1  0  0  0  0
 24 30  1  0  0  0  0
 25 24  2  0  0  0  0
 26 29  2  0  0  0  0
 26 25  1  0  0  0  0
 27 26  1  0  0  0  0
 28 30  2  0  0  0  0
 29 28  1  0  0  0  0
 31 36  1  1  0  0  0
 34 31  1  6  0  0  0
 34 32  1  0  0  0  0
 35 33  1  1  0  0  0
 35 34  1  0  0  0  0
 35 32  1  0  0  0  0
 36 37  1  0  0  0  0
M  END
>  <MODEL>
2

>  <REMARK>
 VINA RESULT:      -4.4      1.238      1.747
  Name = 
  4 active torsions:
  status: ('A' for Active; 'I' for Inactive)
    1  A    between atoms: C_6  and  C_31
    2  A    between atoms: C_11  and  C_26
    3  A    between atoms: C_17  and  C_26
    4  A    between atoms: C_26  and  N_33
                            x       y       z     vdW  Elec       q    Type
                         _______ _______ _______ _____ _____    ______ ____

>  <TORSDO>
F 4

$$$$
=
 OpenBabel11062409033D

 37 44  0  0  1  0  0  0  0  0999 V2000
  159.3110  212.9290  149.7400 O   0  0  0  0  0  0  0  0  0  0  0  0
  156.3390  213.1700  154.3780 C   0  0  0  0  0  3  0  0  0  0  0  0
  160.0970  210.8810  153.8300 N   0  0  0  0  0  0  0  0  0  0  0  0
  162.7510  210.3480  151.2860 C   0  0  0  0  0  2  0  0  0  0  0  0
  157.8500  211.2410  154.6700 C   0  0  0  0  0  0  0  0  0  0  0  0
  160.8530  211.2840  152.6410 C   0  0  1  0  0  3  0  0  0  0  0  0
  158.8100  211.4870  153.7720 C   0  0  0  0  0  0  0  0  0  0  0  0
  161.3620  210.0750  151.8280 C   0  0  1  0  0  0  0  0  0  0  0  0
  158.1420  210.3580  155.8380 C   0  0  0  0  0  2  0  0  0  0  0  0
  158.7470  212.3680  152.6120 C   0  0  0  0  0  0  0  0  0  0  0  0
  158.3400  214.4530  151.5600 O   0  0  0  0  0  1  0  0  0  0  0  0
  160.7410  208.7800  154.9390 C   0  0  0  0  0  2  0  0  0  0  0  0
  159.7730  210.7800  156.5450 S   0  0  0  0  0  0  0  0  0  0  0  0
  158.0380  213.5190  152.5410 C   0  0  0  0  0  0  0  0  0  0  0  0
  161.5870  210.2180  150.3160 C   0  0  1  0  0  3  0  0  0  0  0  0
  160.6940  210.2970  155.0360 C   0  0  2  0  0  3  0  0  0  0  0  0
  159.9360  212.1120  151.8500 N   0  0  0  0  0  0  0  0  0  0  0  0
  156.4490  211.6860  154.4350 C   0  0  0  0  0  2  0  0  0  0  0  0
  161.1370  208.6450  152.3580 C   0  0  2  0  0  3  0  0  0  0  0  0
  157.0150  213.9400  153.5250 C   0  0  0  0  0  3  0  0  0  0  0  0
  161.1820  211.5260  149.8000 N   0  0  0  0  0  0  0  0  0  0  0  0
  160.1070  212.2400  150.4320 C   0  0  0  0  0  0  0  0  0  0  0  0
  162.0960  208.2510  153.8540 S   0  0  0  0  0  0  0  0  0  0  0  0
  160.9910  207.8970  149.9980 C   0  0  0  0  0  3  0  0  0  0  0  0
  161.0680  207.5280  151.3460 C   0  0  0  0  0  0  0  0  0  0  0  0
  161.1140  206.1550  151.6850 C   0  0  0  0  0  0  0  0  0  0  0  0
  161.2040  205.6810  153.0950 C   0  0  0  0  0  1  0  0  0  0  0  0
  160.9910  205.5730  149.3320 C   0  0  0  0  0  3  0  0  0  0  0  0
  161.0720  205.1900  150.6720 C   0  0  0  0  0  3  0  0  0  0  0  0
  160.9510  206.9260  148.9950 C   0  0  0  0  0  3  0  0  0  0  0  0
  161.7190  211.9170  148.4940 C   0  0  1  0  0  3  0  0  0  0  0  0
  161.2970  213.1160  146.3610 C   0  0  0  0  0  2  0  0  0  0  0  0
  159.0590  212.4010  146.0290 O   0  0  0  0  0  1  0  0  0  0  0  0
  160.7060  212.7310  147.7010 C   0  0  1  0  0  3  0  0  0  0  0  0
  160.3140  211.9680  146.4510 C   0  0  2  0  0  3  0  0  0  0  0  0
  163.0270  212.6850  148.6440 C   0  0  0  0  0  2  0  0  0  0  0  0
  164.1400  211.9800  147.8920 C   0  0  0  0  0  1  0  0  0  0  0  0
  1 22  2  0  0  0  0
  2 18  1  0  0  0  0
  3 16  1  0  0  0  0
  5  9  1  0  0  0  0
  6 17  1  6  0  0  0
  6  3  1  0  0  0  0
  7  3  1  0  0  0  0
  7  5  2  0  0  0  0
  8  4  1  1  0  0  0
  8 19  1  0  0  0  0
  8  6  1  0  0  0  0
  9 13  1  0  0  0  0
 10  7  1  0  0  0  0
 11 14  1  0  0  0  0
 14 10  2  0  0  0  0
 14 20  1  0  0  0  0
 15  4  1  1  0  0  0
 15  8  1  0  0  0  0
 16 12  1  6  0  0  0
 16 13  1  0  0  0  0
 17 10  1  0  0  0  0
 18  5  1  0  0  0  0
 19 25  1  6  0  0  0
 19 23  1  0  0  0  0
 20  2  2  0  0  0  0
 21 15  1  0  0  0  0
 21 22  1  0  0  0  0
 22 17  1  0  0  0  0
 23 12  1  0  0  0  0
 24 25  1  0  0  0  0
 25 26  2  0  0  0  0
 26 27  1  0  0  0  0
 28 29  2  0  0  0  0
 29 26  1  0  0  0  0
 30 28  1  0  0  0  0
 30 24  2  0  0  0  0
 31 36  1  1  0  0  0
 31 21  1  0  0  0  0
 32 35  1  0  0  0  0
 32 34  1  0  0  0  0
 34 31  1  1  0  0  0
 35 33  1  6  0  0  0
 35 34  1  0  0  0  0
 37 36  1  0  0  0  0
M  END
>  <MODEL>
3

>  <REMARK>
 VINA RESULT:      -4.2      3.508      7.801
  Name = 
  4 active torsions:
  status: ('A' for Active; 'I' for Inactive)
    1  A    between atoms: C_6  and  C_31
    2  A    between atoms: C_11  and  C_26
    3  A    between atoms: C_17  and  C_26
    4  A    between atoms: C_26  and  N_33
                            x       y       z     vdW  Elec       q    Type
                         _______ _______ _______ _____ _____    ______ ____

>  <TORSDO>
F 4

$$$$
=
 OpenBabel11062409033D

 37 44  0  0  1  0  0  0  0  0999 V2000
  159.2120  209.7970  154.4850 O   0  0  0  0  0  0  0  0  0  0  0  0
  162.0740  206.9640  150.7190 C   0  0  0  0  0  3  0  0  0  0  0  0
  161.2510  211.3190  150.6040 N   0  0  0  0  0  0  0  0  0  0  0  0
  159.7050  213.9720  152.6940 C   0  0  0  0  0  2  0  0  0  0  0  0
  161.5180  209.1100  149.6380 C   0  0  0  0  0  0  0  0  0  0  0  0
  160.7980  211.8580  151.8890 C   0  0  1  0  0  3  0  0  0  0  0  0
  161.2410  209.8970  150.6820 C   0  0  0  0  0  0  0  0  0  0  0  0
  159.5860  212.8020  151.7380 C   0  0  1  0  0  0  0  0  0  0  0  0
  161.9370  209.7240  148.3420 C   0  0  0  0  0  2  0  0  0  0  0  0
  160.8850  209.4950  152.0380 C   0  0  0  0  0  0  0  0  0  0  0  0
  161.2520  208.3030  154.0550 O   0  0  0  0  0  1  0  0  0  0  0  0
  160.9800  212.7350  148.6090 C   0  0  0  0  0  2  0  0  0  0  0  0
  163.1480  211.0570  148.6490 S   0  0  0  0  0  0  0  0  0  0  0  0
  161.3450  208.3910  152.6730 C   0  0  0  0  0  0  0  0  0  0  0  0
  158.5950  212.9540  152.9000 C   0  0  1  0  0  3  0  0  0  0  0  0
  161.9600  212.0960  149.5810 C   0  0  2  0  0  3  0  0  0  0  0  0
  160.4670  210.6900  152.7130 N   0  0  0  0  0  0  0  0  0  0  0  0
  161.2460  207.6470  149.6870 C   0  0  0  0  0  2  0  0  0  0  0  0
  159.0600  213.1560  150.3340 C   0  0  2  0  0  3  0  0  0  0  0  0
  162.0740  207.2840  152.0140 C   0  0  0  0  0  3  0  0  0  0  0  0
  158.8930  212.0690  154.0260 N   0  0  0  0  0  0  0  0  0  0  0  0
  159.5220  210.7990  153.7870 C   0  0  0  0  0  0  0  0  0  0  0  0
  160.1960  214.1910  149.3580 S   0  0  0  0  0  0  0  0  0  0  0  0
  156.9830  214.0530  151.3480 C   0  0  0  0  0  3  0  0  0  0  0  0
  157.6050  213.5330  150.2080 C   0  0  0  0  0  0  0  0  0  0  0  0
  156.8630  213.4210  149.0070 C   0  0  0  0  0  0  0  0  0  0  0  0
  157.4550  212.8850  147.7480 C   0  0  0  0  0  1  0  0  0  0  0  0
  154.9160  214.3370  150.1270 C   0  0  0  0  0  3  0  0  0  0  0  0
  155.5240  213.8230  148.9810 C   0  0  0  0  0  3  0  0  0  0  0  0
  155.6450  214.4520  151.3110 C   0  0  0  0  0  3  0  0  0  0  0  0
  158.2880  212.4100  155.3160 C   0  0  1  0  0  3  0  0  0  0  0  0
  156.1620  211.9700  156.5220 C   0  0  0  0  0  2  0  0  0  0  0  0
  155.2950  210.3230  155.0500 O   0  0  0  0  0  1  0  0  0  0  0  0
  157.3140  211.3330  155.7720 C   0  0  1  0  0  3  0  0  0  0  0  0
  155.9790  211.5370  155.0830 C   0  0  2  0  0  3  0  0  0  0  0  0
  159.3540  212.6570  156.3770 C   0  0  0  0  0  2  0  0  0  0  0  0
  159.7050  214.1310  156.4390 C   0  0  0  0  0  1  0  0  0  0  0  0
  2 20  2  0  0  0  0
  3  7  1  0  0  0  0
  5 18  1  0  0  0  0
  5  7  2  0  0  0  0
  6  3  1  6  0  0  0
  6 17  1  0  0  0  0
  7 10  1  0  0  0  0
  8  6  1  0  0  0  0
  8  4  1  1  0  0  0
  8 15  1  0  0  0  0
  9 13  1  0  0  0  0
  9  5  1  0  0  0  0
 10 14  2  0  0  0  0
 10 17  1  0  0  0  0
 12 23  1  0  0  0  0
 13 16  1  0  0  0  0
 14 11  1  0  0  0  0
 15  4  1  1  0  0  0
 15 21  1  0  0  0  0
 16 12  1  6  0  0  0
 16  3  1  0  0  0  0
 17 22  1  0  0  0  0
 18  2  1  0  0  0  0
 19 25  1  1  0  0  0
 19  8  1  0  0  0  0
 20 14  1  0  0  0  0
 21 31  1  0  0  0  0
 22 21  1  0  0  0  0
 22  1  2  0  0  0  0
 23 19  1  0  0  0  0
 25 24  2  0  0  0  0
 26 25  1  0  0  0  0
 27 26  1  0  0  0  0
 28 30  2  0  0  0  0
 29 26  2  0  0  0  0
 29 28  1  0  0  0  0
 30 24  1  0  0  0  0
 31 36  1  1  0  0  0
 34 31  1  6  0  0  0
 34 32  1  0  0  0  0
 35 33  1  1  0  0  0
 35 34  1  0  0  0  0
 35 32  1  0  0  0  0
 36 37  1  0  0  0  0
M  END
>  <MODEL>
4

>  <REMARK>
 VINA RESULT:      -3.8      2.669      4.196
  Name = 
  4 active torsions:
  status: ('A' for Active; 'I' for Inactive)
    1  A    between atoms: C_6  and  C_31
    2  A    between atoms: C_11  and  C_26
    3  A    between atoms: C_17  and  C_26
    4  A    between atoms: C_26  and  N_33
                            x       y       z     vdW  Elec       q    Type
                         _______ _______ _______ _____ _____    ______ ____

>  <TORSDO>
F 4

$$$$
=
 OpenBabel11062409033D

 37 44  0  0  1  0  0  0  0  0999 V2000
  157.1710  213.3770  150.4100 O   0  0  0  0  0  0  0  0  0  0  0  0
  155.6470  212.4650  155.6300 C   0  0  0  0  0  3  0  0  0  0  0  0
  159.7380  211.9490  154.0030 N   0  0  0  0  0  0  0  0  0  0  0  0
  161.6360  212.5150  150.8600 C   0  0  0  0  0  2  0  0  0  0  0  0
  157.8360  211.3560  155.3860 C   0  0  0  0  0  0  0  0  0  0  0  0
  159.9330  212.6030  152.7060 C   0  0  1  0  0  3  0  0  0  0  0  0
  158.3470  211.9590  154.3080 C   0  0  0  0  0  0  0  0  0  0  0  0
  160.6700  211.6980  151.6950 C   0  0  1  0  0  0  0  0  0  0  0  0
  158.7510  210.7050  156.3710 C   0  0  0  0  0  2  0  0  0  0  0  0
  157.6360  212.7030  153.2760 C   0  0  0  0  0  0  0  0  0  0  0  0
  156.1550  214.3990  152.5320 O   0  0  0  0  0  1  0  0  0  0  0  0
  161.4470  210.3400  154.7420 C   0  0  0  0  0  2  0  0  0  0  0  0
  160.1850  211.7890  156.6980 S   0  0  0  0  0  0  0  0  0  0  0  0
  156.5240  213.4490  153.4740 C   0  0  0  0  0  0  0  0  0  0  0  0
  160.4240  211.8850  150.1910 C   0  0  1  0  0  3  0  0  0  0  0  0
  160.8080  211.6990  154.9760 C   0  0  2  0  0  3  0  0  0  0  0  0
  158.5890  212.9500  152.2320 N   0  0  0  0  0  0  0  0  0  0  0  0
  156.3670  211.1660  155.5330 C   0  0  0  0  0  2  0  0  0  0  0  0
  161.1950  210.3200  152.1400 C   0  0  2  0  0  3  0  0  0  0  0  0
  155.7050  213.4270  154.7080 C   0  0  0  0  0  3  0  0  0  0  0  0
  159.4010  212.8890  149.9000 N   0  0  0  0  0  0  0  0  0  0  0  0
  158.3270  213.1030  150.8300 C   0  0  0  0  0  0  0  0  0  0  0  0
  162.5770  210.4010  153.3230 S   0  0  0  0  0  0  0  0  0  0  0  0
  161.7530  209.6680  149.8140 C   0  0  0  0  0  3  0  0  0  0  0  0
  161.3380  209.2520  151.0840 C   0  0  0  0  0  0  0  0  0  0  0  0
  161.1120  207.8750  151.3200 C   0  0  0  0  0  0  0  0  0  0  0  0
  160.6760  207.3520  152.6470 C   0  0  0  0  0  1  0  0  0  0  0  0
  161.7070  207.3850  149.0200 C   0  0  0  0  0  3  0  0  0  0  0  0
  161.2970  206.9550  150.2830 C   0  0  0  0  0  3  0  0  0  0  0  0
  161.9360  208.7410  148.7850 C   0  0  0  0  0  3  0  0  0  0  0  0
  159.3790  213.4370  148.5410 C   0  0  1  0  0  3  0  0  0  0  0  0
  160.7300  213.9620  146.5260 C   0  0  0  0  0  2  0  0  0  0  0  0
  162.8420  214.1360  147.5930 O   0  0  0  0  0  1  0  0  0  0  0  0
  160.6900  213.1690  147.8160 C   0  0  1  0  0  3  0  0  0  0  0  0
  161.4930  214.4530  147.7370 C   0  0  2  0  0  3  0  0  0  0  0  0
  158.2010  212.8870  147.7440 C   0  0  0  0  0  2  0  0  0  0  0  0
  157.3840  214.0240  147.1610 C   0  0  0  0  0  1  0  0  0  0  0  0
  1 22  2  0  0  0  0
  3  7  1  0  0  0  0
  3 16  1  0  0  0  0
  5 18  1  0  0  0  0
  5  9  1  0  0  0  0
  6 17  1  6  0  0  0
  6  3  1  0  0  0  0
  7  5  2  0  0  0  0
  8  4  1  1  0  0  0
  8 19  1  0  0  0  0
  8  6  1  0  0  0  0
  9 13  1  0  0  0  0
 10 14  2  0  0  0  0
 10  7  1  0  0  0  0
 11 14  1  0  0  0  0
 14 20  1  0  0  0  0
 15  4  1  6  0  0  0
 15  8  1  0  0  0  0
 16 12  1  6  0  0  0
 16 13  1  0  0  0  0
 17 10  1  0  0  0  0
 18  2  1  0  0  0  0
 19 25  1  6  0  0  0
 19 23  1  0  0  0  0
 20  2  2  0  0  0  0
 21 15  1  0  0  0  0
 21 22  1  0  0  0  0
 22 17  1  0  0  0  0
 23 12  1  0  0  0  0
 24 25  1  0  0  0  0
 25 26  2  0  0  0  0
 26 27  1  0  0  0  0
 28 29  2  0  0  0  0
 29 26  1  0  0  0  0
 30 28  1  0  0  0  0
 30 24  2  0  0  0  0
 31 36  1  6  0  0  0
 31 21  1  0  0  0  0
 32 35  1  0  0  0  0
 32 34  1  0  0  0  0
 34 31  1  1  0  0  0
 35 33  1  6  0  0  0
 35 34  1  0  0  0  0
 37 36  1  0  0  0  0
M  END
>  <MODEL>
5

>  <REMARK>
 VINA RESULT:      -3.7      3.766      7.855
  Name = 
  4 active torsions:
  status: ('A' for Active; 'I' for Inactive)
    1  A    between atoms: C_6  and  C_31
    2  A    between atoms: C_11  and  C_26
    3  A    between atoms: C_17  and  C_26
    4  A    between atoms: C_26  and  N_33
                            x       y       z     vdW  Elec       q    Type
                         _______ _______ _______ _____ _____    ______ ____

>  <TORSDO>
F 4

$$$$
=
 OpenBabel11062409033D

 37 44  0  0  1  0  0  0  0  0999 V2000
  159.4290  214.3410  152.0630 O   0  0  0  0  0  0  0  0  0  0  0  0
  162.0940  212.8630  147.4680 C   0  0  0  0  0  3  0  0  0  0  0  0
  160.9080  210.1400  150.7600 N   0  0  0  0  0  0  0  0  0  0  0  0
  158.9920  210.1990  153.9420 C   0  0  0  0  0  2  0  0  0  0  0  0
  162.3880  210.9750  149.0290 C   0  0  0  0  0  0  0  0  0  0  0  0
  159.9090  210.7200  151.6620 C   0  0  1  0  0  3  0  0  0  0  0  0
  161.3980  211.1690  149.9070 C   0  0  0  0  0  0  0  0  0  0  0  0
  160.2510  210.4860  153.1480 C   0  0  1  0  0  0  0  0  0  0  0  0
  162.9670  209.6090  148.8610 C   0  0  0  0  0  2  0  0  0  0  0  0
  160.6590  212.3990  150.1670 C   0  0  0  0  0  0  0  0  0  0  0  0
  159.3550  214.2630  149.5000 O   0  0  0  0  0  1  0  0  0  0  0  0
  162.0630  208.0940  151.4950 C   0  0  0  0  0  2  0  0  0  0  0  0
  161.6270  208.3680  148.8020 S   0  0  0  0  0  0  0  0  0  0  0  0
  160.3620  213.3440  149.2440 C   0  0  0  0  0  0  0  0  0  0  0  0
  159.7590  211.4850  154.2050 C   0  0  1  0  0  3  0  0  0  0  0  0
  161.0700  208.7020  150.5160 C   0  0  2  0  0  3  0  0  0  0  0  0
  159.8710  212.1510  151.3410 N   0  0  0  0  0  0  0  0  0  0  0  0
  163.0430  212.1250  148.3470 C   0  0  0  0  0  2  0  0  0  0  0  0
  161.4740  209.6290  153.5280 C   0  0  2  0  0  3  0  0  0  0  0  0
  160.9530  213.4110  147.8880 C   0  0  0  0  0  3  0  0  0  0  0  0
  159.0700  212.6380  153.6260 N   0  0  0  0  0  0  0  0  0  0  0  0
  159.4420  213.1080  152.3200 C   0  0  0  0  0  0  0  0  0  0  0  0
  161.2940  207.8630  153.1230 S   0  0  0  0  0  0  0  0  0  0  0  0
  163.1620  210.8500  154.8740 C   0  0  0  0  0  3  0  0  0  0  0  0
  162.1320  209.9010  154.8580 C   0  0  0  0  0  0  0  0  0  0  0  0
  161.7430  209.2840  156.0710 C   0  0  0  0  0  0  0  0  0  0  0  0
  160.6510  208.2720  156.1390 C   0  0  0  0  0  1  0  0  0  0  0  0
  163.4240  210.5680  157.2600 C   0  0  0  0  0  3  0  0  0  0  0  0
  162.3960  209.6230  157.2610 C   0  0  0  0  0  3  0  0  0  0  0  0
  163.8070  211.1810  156.0670 C   0  0  0  0  0  3  0  0  0  0  0  0
  158.2180  213.4210  154.5250 C   0  0  1  0  0  3  0  0  0  0  0  0
  155.9180  213.7580  155.3980 C   0  0  0  0  0  2  0  0  0  0  0  0
  154.8200  214.0260  153.3110 O   0  0  0  0  0  1  0  0  0  0  0  0
  156.7470  213.0860  154.3220 C   0  0  1  0  0  3  0  0  0  0  0  0
  155.9810  214.3560  154.0080 C   0  0  2  0  0  3  0  0  0  0  0  0
  158.6200  213.2180  155.9810 C   0  0  0  0  0  2  0  0  0  0  0  0
  159.3770  214.4290  156.4920 C   0  0  0  0  0  1  0  0  0  0  0  0
  1 22  2  0  0  0  0
  2 20  2  0  0  0  0
  2 18  1  0  0  0  0
  5  7  2  0  0  0  0
  6  3  1  6  0  0  0
  6  8  1  0  0  0  0
  7 10  1  0  0  0  0
  7  3  1  0  0  0  0
  8 19  1  0  0  0  0
  8  4  1  1  0  0  0
  8 15  1  0  0  0  0
  9  5  1  0  0  0  0
 10 17  1  0  0  0  0
 12 23  1  0  0  0  0
 13  9  1  0  0  0  0
 13 16  1  0  0  0  0
 14 11  1  0  0  0  0
 14 10  2  0  0  0  0
 15  4  1  1  0  0  0
 16  3  1  0  0  0  0
 16 12  1  1  0  0  0
 17  6  1  0  0  0  0
 17 22  1  0  0  0  0
 18  5  1  0  0  0  0
 19 25  1  1  0  0  0
 20 14  1  0  0  0  0
 21 15  1  0  0  0  0
 21 31  1  0  0  0  0
 22 21  1  0  0  0  0
 23 19  1  0  0  0  0
 24 30  1  0  0  0  0
 25 24  2  0  0  0  0
 25 26  1  0  0  0  0
 26 27  1  0  0  0  0
 26 29  2  0  0  0  0
 28 29  1  0  0  0  0
 30 28  2  0  0  0  0
 31 36  1  1  0  0  0
 34 31  1  1  0  0  0
 34 32  1  0  0  0  0
 35 33  1  6  0  0  0
 35 34  1  0  0  0  0
 35 32  1  0  0  0  0
 36 37  1  0  0  0  0
M  END
>  <MODEL>
6

>  <REMARK>
 VINA RESULT:      -3.1      3.325      6.297
  Name = 
  4 active torsions:
  status: ('A' for Active; 'I' for Inactive)
    1  A    between atoms: C_6  and  C_31
    2  A    between atoms: C_11  and  C_26
    3  A    between atoms: C_17  and  C_26
    4  A    between atoms: C_26  and  N_33
                            x       y       z     vdW  Elec       q    Type
                         _______ _______ _______ _____ _____    ______ ____

>  <TORSDO>
F 4

$$$$
=
 OpenBabel11062409033D

 37 44  0  0  1  0  0  0  0  0999 V2000
  159.7580  212.2230  150.0950 O   0  0  0  0  0  0  0  0  0  0  0  0
  156.0930  213.7930  153.9040 C   0  0  0  0  0  3  0  0  0  0  0  0
  159.8820  211.6330  154.6970 N   0  0  0  0  0  0  0  0  0  0  0  0
  162.9030  210.4420  152.8910 C   0  0  0  0  0  2  0  0  0  0  0  0
  157.5330  212.1350  155.0270 C   0  0  0  0  0  0  0  0  0  0  0  0
  160.8180  211.6700  153.5690 C   0  0  1  0  0  3  0  0  0  0  0  0
  158.6220  212.1260  154.2540 C   0  0  0  0  0  0  0  0  0  0  0  0
  161.4450  210.2900  153.2780 C   0  0  1  0  0  0  0  0  0  0  0  0
  157.6340  211.6870  156.4490 C   0  0  0  0  0  2  0  0  0  0  0  0
  158.7460  212.5850  152.8750 C   0  0  0  0  0  0  0  0  0  0  0  0
  158.5170  214.2010  151.1560 O   0  0  0  0  0  1  0  0  0  0  0  0
  160.3370  210.0320  156.5100 C   0  0  0  0  0  2  0  0  0  0  0  0
  159.1340  212.3920  157.2180 S   0  0  0  0  0  0  0  0  0  0  0  0
  158.0610  213.6170  152.3290 C   0  0  0  0  0  0  0  0  0  0  0  0
  161.9060  209.9530  151.8530 C   0  0  1  0  0  3  0  0  0  0  0  0
  160.2800  211.4950  156.1020 C   0  0  2  0  0  3  0  0  0  0  0  0
  160.0400  212.1560  152.4250 N   0  0  0  0  0  0  0  0  0  0  0  0
  156.1870  212.4120  154.4540 C   0  0  0  0  0  2  0  0  0  0  0  0
  161.1350  209.0970  154.2020 C   0  0  2  0  0  3  0  0  0  0  0  0
  156.8970  214.2810  152.9580 C   0  0  0  0  0  3  0  0  0  0  0  0
  161.5920  211.0050  150.8860 N   0  0  0  0  0  0  0  0  0  0  0  0
  160.4330  211.8310  151.0840 C   0  0  0  0  0  0  0  0  0  0  0  0
  161.8450  209.2490  155.8710 S   0  0  0  0  0  0  0  0  0  0  0  0
  161.9580  207.5750  152.4250 C   0  0  0  0  0  3  0  0  0  0  0  0
  161.2230  207.7130  153.6080 C   0  0  0  0  0  0  0  0  0  0  0  0
  160.6420  206.5640  154.1970 C   0  0  0  0  0  0  0  0  0  0  0  0
  159.8520  206.6260  155.4600 C   0  0  0  0  0  1  0  0  0  0  0  0
  161.5340  205.1950  152.4030 C   0  0  0  0  0  3  0  0  0  0  0  0
  160.8020  205.3160  153.5860 C   0  0  0  0  0  3  0  0  0  0  0  0
  162.1120  206.3250  151.8230 C   0  0  0  0  0  3  0  0  0  0  0  0
  162.3290  210.9830  149.6210 C   0  0  1  0  0  3  0  0  0  0  0  0
  162.8400  208.9450  148.2970 C   0  0  0  0  0  2  0  0  0  0  0  0
  160.8320  207.7610  148.7460 O   0  0  0  0  0  1  0  0  0  0  0  0
  161.7600  209.9410  148.6680 C   0  0  1  0  0  3  0  0  0  0  0  0
  161.7970  208.5780  149.3320 C   0  0  2  0  0  3  0  0  0  0  0  0
  162.3420  212.3590  148.9660 C   0  0  0  0  0  2  0  0  0  0  0  0
  162.3870  212.2240  147.4560 C   0  0  0  0  0  1  0  0  0  0  0  0
  1 22  2  0  0  0  0
  2 18  1  0  0  0  0
  3 16  1  0  0  0  0
  5  9  1  0  0  0  0
  6 17  1  6  0  0  0
  6  3  1  0  0  0  0
  7  3  1  0  0  0  0
  7  5  2  0  0  0  0
  8  4  1  1  0  0  0
  8  6  1  0  0  0  0
  8 19  1  0  0  0  0
  9 13  1  0  0  0  0
 10  7  1  0  0  0  0
 11 14  1  0  0  0  0
 14 10  2  0  0  0  0
 14 20  1  0  0  0  0
 15  4  1  1  0  0  0
 15  8  1  0  0  0  0
 16 12  1  1  0  0  0
 16 13  1  0  0  0  0
 17 10  1  0  0  0  0
 18  5  1  0  0  0  0
 19 25  1  6  0  0  0
 19 23  1  0  0  0  0
 20  2  2  0  0  0  0
 21 22  1  0  0  0  0
 21 15  1  0  0  0  0
 22 17  1  0  0  0  0
 23 12  1  0  0  0  0
 24 25  1  0  0  0  0
 25 26  2  0  0  0  0
 26 27  1  0  0  0  0
 28 29  2  0  0  0  0
 29 26  1  0  0  0  0
 30 28  1  0  0  0  0
 30 24  2  0  0  0  0
 31 36  1  6  0  0  0
 31 21  1  0  0  0  0
 32 34  1  0  0  0  0
 32 35  1  0  0  0  0
 34 35  1  0  0  0  0
 34 31  1  1  0  0  0
 35 33  1  6  0  0  0
 37 36  1  0  0  0  0
M  END
>  <MODEL>
7

>  <REMARK>
 VINA RESULT:      -3.0      3.164      7.764
  Name = 
  4 active torsions:
  status: ('A' for Active; 'I' for Inactive)
    1  A    between atoms: C_6  and  C_31
    2  A    between atoms: C_11  and  C_26
    3  A    between atoms: C_17  and  C_26
    4  A    between atoms: C_26  and  N_33
                            x       y       z     vdW  Elec       q    Type
                         _______ _______ _______ _____ _____    ______ ____

>  <TORSDO>
F 4

$$$$
=
 OpenBabel11062409033D

 37 44  0  0  1  0  0  0  0  0999 V2000
  159.8310  208.8120  153.5990 O   0  0  0  0  0  0  0  0  0  0  0  0
  162.5390  207.2470  149.0580 C   0  0  0  0  0  3  0  0  0  0  0  0
  161.5270  211.4210  150.1560 N   0  0  0  0  0  0  0  0  0  0  0  0
  160.0210  213.3330  152.9620 C   0  0  0  0  0  2  0  0  0  0  0  0
  161.8180  209.5660  148.6220 C   0  0  0  0  0  0  0  0  0  0  0  0
  161.1430  211.5750  151.5620 C   0  0  1  0  0  3  0  0  0  0  0  0
  161.5830  210.0310  149.8520 C   0  0  0  0  0  0  0  0  0  0  0  0
  159.8850  212.4510  151.7370 C   0  0  1  0  0  0  0  0  0  0  0  0
  162.1190  210.5230  147.5160 C   0  0  0  0  0  2  0  0  0  0  0  0
  161.3400  209.2660  151.0690 C   0  0  0  0  0  0  0  0  0  0  0  0
  161.8970  207.6080  152.6700 O   0  0  0  0  0  1  0  0  0  0  0  0
  161.0570  213.2950  148.6300 C   0  0  0  0  0  2  0  0  0  0  0  0
  163.2920  211.7980  148.0980 S   0  0  0  0  0  0  0  0  0  0  0  0
  161.8900  208.0630  151.3590 C   0  0  0  0  0  0  0  0  0  0  0  0
  158.9720  212.2330  152.9520 C   0  0  1  0  0  3  0  0  0  0  0  0
  162.1290  212.4820  149.3390 C   0  0  2  0  0  3  0  0  0  0  0  0
  160.9200  210.2130  152.0610 N   0  0  0  0  0  0  0  0  0  0  0  0
  161.6130  208.1280  148.2940 C   0  0  0  0  0  2  0  0  0  0  0  0
  159.2470  213.1310  150.5100 C   0  0  2  0  0  3  0  0  0  0  0  0
  162.6170  207.2140  150.3890 C   0  0  0  0  0  3  0  0  0  0  0  0
  159.3860  211.1010  153.7820 N   0  0  0  0  0  0  0  0  0  0  0  0
  160.0490  209.9790  153.1770 C   0  0  0  0  0  0  0  0  0  0  0  0
  160.2670  214.4530  149.7830 S   0  0  0  0  0  0  0  0  0  0  0  0
  157.2710  213.9020  151.7950 C   0  0  0  0  0  3  0  0  0  0  0  0
  157.7720  213.4410  150.5720 C   0  0  0  0  0  0  0  0  0  0  0  0
  156.8960  213.3260  149.4660 C   0  0  0  0  0  0  0  0  0  0  0  0
  157.3540  212.8510  148.1280 C   0  0  0  0  0  1  0  0  0  0  0  0
  155.0600  214.1170  150.8400 C   0  0  0  0  0  3  0  0  0  0  0  0
  155.5470  213.6640  149.6130 C   0  0  0  0  0  3  0  0  0  0  0  0
  155.9220  214.2370  151.9310 C   0  0  0  0  0  3  0  0  0  0  0  0
  158.8590  211.0540  155.1480 C   0  0  1  0  0  3  0  0  0  0  0  0
  160.0400  210.5020  157.2610 C   0  0  0  0  0  2  0  0  0  0  0  0
  162.2010  211.2460  156.6220 O   0  0  0  0  0  1  0  0  0  0  0  0
  159.8950  211.5290  156.1570 C   0  0  1  0  0  3  0  0  0  0  0  0
  161.0730  210.5750  156.1560 C   0  0  2  0  0  3  0  0  0  0  0  0
  157.5760  211.8670  155.2710 C   0  0  0  0  0  2  0  0  0  0  0  0
  156.4810  211.0310  155.9060 C   0  0  0  0  0  1  0  0  0  0  0  0
  2 20  2  0  0  0  0
  5  7  2  0  0  0  0
  6  3  1  6  0  0  0
  6  8  1  0  0  0  0
  6 17  1  0  0  0  0
  7  3  1  0  0  0  0
  7 10  1  0  0  0  0
  8 15  1  0  0  0  0
  8  4  1  1  0  0  0
  9 13  1  0  0  0  0
  9  5  1  0  0  0  0
 10 14  2  0  0  0  0
 10 17  1  0  0  0  0
 12 23  1  0  0  0  0
 13 16  1  0  0  0  0
 14 11  1  0  0  0  0
 15  4  1  1  0  0  0
 15 21  1  0  0  0  0
 16 12  1  6  0  0  0
 16  3  1  0  0  0  0
 17 22  1  0  0  0  0
 18  5  1  0  0  0  0
 18  2  1  0  0  0  0
 19 25  1  1  0  0  0
 19  8  1  0  0  0  0
 20 14  1  0  0  0  0
 21 31  1  0  0  0  0
 22  1  2  0  0  0  0
 22 21  1  0  0  0  0
 23 19  1  0  0  0  0
 24 30  1  0  0  0  0
 25 24  2  0  0  0  0
 26 29  2  0  0  0  0
 26 25  1  0  0  0  0
 27 26  1  0  0  0  0
 28 30  2  0  0  0  0
 29 28  1  0  0  0  0
 31 36  1  6  0  0  0
 34 31  1  6  0  0  0
 34 32  1  0  0  0  0
 35 34  1  0  0  0  0
 35 33  1  1  0  0  0
 35 32  1  0  0  0  0
 36 37  1  0  0  0  0
M  END
>  <MODEL>
8

>  <REMARK>
 VINA RESULT:      -2.9      2.183      3.364
  Name = 
  4 active torsions:
  status: ('A' for Active; 'I' for Inactive)
    1  A    between atoms: C_6  and  C_31
    2  A    between atoms: C_11  and  C_26
    3  A    between atoms: C_17  and  C_26
    4  A    between atoms: C_26  and  N_33
                            x       y       z     vdW  Elec       q    Type
                         _______ _______ _______ _____ _____    ______ ____

>  <TORSDO>
F 4

$$$$
=
 OpenBabel11062409033D

 37 44  0  0  1  0  0  0  0  0999 V2000
  159.0630  213.3080  149.4280 O   0  0  0  0  0  0  0  0  0  0  0  0
  156.8390  212.5920  154.4230 C   0  0  0  0  0  3  0  0  0  0  0  0
  160.6110  210.7590  152.9840 N   0  0  0  0  0  0  0  0  0  0  0  0
  162.8670  210.8500  150.0340 C   0  0  0  0  0  2  0  0  0  0  0  0
  158.5030  210.7860  154.1830 C   0  0  0  0  0  0  0  0  0  0  0  0
  161.1450  211.3990  151.7790 C   0  0  1  0  0  3  0  0  0  0  0  0
  159.2930  211.2480  153.2090 C   0  0  0  0  0  0  0  0  0  0  0  0
  161.6010  210.3750  150.7190 C   0  0  1  0  0  0  0  0  0  0  0  0
  159.0320  209.7700  155.1420 C   0  0  0  0  0  2  0  0  0  0  0  0
  158.9910  212.2810  152.2250 C   0  0  0  0  0  0  0  0  0  0  0  0
  158.2870  214.4530  151.5880 O   0  0  0  0  0  1  0  0  0  0  0  0
  161.5590  208.5840  153.6390 C   0  0  0  0  0  2  0  0  0  0  0  0
  160.7210  210.2280  155.6660 S   0  0  0  0  0  0  0  0  0  0  0  0
  158.2040  213.3610  152.4400 C   0  0  0  0  0  0  0  0  0  0  0  0
  161.5780  210.7600  149.2330 C   0  0  1  0  0  3  0  0  0  0  0  0
  161.4260  210.0590  153.9830 C   0  0  2  0  0  3  0  0  0  0  0  0
  160.0620  212.2490  151.2700 N   0  0  0  0  0  0  0  0  0  0  0  0
  157.0560  211.1320  154.2260 C   0  0  0  0  0  2  0  0  0  0  0  0
  161.5580  208.8680  151.0400 C   0  0  2  0  0  3  0  0  0  0  0  0
  157.3210  213.5380  153.6150 C   0  0  0  0  0  3  0  0  0  0  0  0
  161.0110  212.0870  148.9950 N   0  0  0  0  0  0  0  0  0  0  0  0
  160.0020  212.6000  149.8800 C   0  0  0  0  0  0  0  0  0  0  0  0
  162.7620  208.3450  152.3010 S   0  0  0  0  0  0  0  0  0  0  0  0
  161.8230  208.3660  148.6260 C   0  0  0  0  0  3  0  0  0  0  0  0
  161.4080  207.9110  149.8830 C   0  0  0  0  0  0  0  0  0  0  0  0
  160.9120  206.5920  150.0120 C   0  0  0  0  0  0  0  0  0  0  0  0
  160.4580  206.0310  151.3160 C   0  0  0  0  0  1  0  0  0  0  0  0
  161.2490  206.2360  147.6350 C   0  0  0  0  0  3  0  0  0  0  0  0
  160.8360  205.7680  148.8840 C   0  0  0  0  0  3  0  0  0  0  0  0
  161.7430  207.5350  147.5070 C   0  0  0  0  0  3  0  0  0  0  0  0
  161.3100  212.7140  147.7050 C   0  0  1  0  0  3  0  0  0  0  0  0
  159.8510  213.8740  146.0650 C   0  0  0  0  0  2  0  0  0  0  0  0
  159.8100  212.1710  144.4130 O   0  0  0  0  0  1  0  0  0  0  0  0
  160.1560  212.5460  146.7270 C   0  0  1  0  0  3  0  0  0  0  0  0
  160.6450  212.8230  145.3190 C   0  0  2  0  0  3  0  0  0  0  0  0
  161.6600  214.1870  147.8770 C   0  0  0  0  0  2  0  0  0  0  0  0
  163.1360  214.3460  148.1870 C   0  0  0  0  0  1  0  0  0  0  0  0
  1 22  2  0  0  0  0
  3  7  1  0  0  0  0
  3 16  1  0  0  0  0
  5 18  1  0  0  0  0
  5  9  1  0  0  0  0
  6 17  1  6  0  0  0
  6  3  1  0  0  0  0
  7  5  2  0  0  0  0
  8  4  1  1  0  0  0
  8 19  1  0  0  0  0
  8  6  1  0  0  0  0
  9 13  1  0  0  0  0
 10 14  2  0  0  0  0
 10  7  1  0  0  0  0
 11 14  1  0  0  0  0
 14 20  1  0  0  0  0
 15  4  1  1  0  0  0
 15  8  1  0  0  0  0
 16 12  1  6  0  0  0
 16 13  1  0  0  0  0
 17 10  1  0  0  0  0
 18  2  1  0  0  0  0
 19 25  1  6  0  0  0
 19 23  1  0  0  0  0
 20  2  2  0  0  0  0
 21 15  1  0  0  0  0
 21 22  1  0  0  0  0
 22 17  1  0  0  0  0
 23 12  1  0  0  0  0
 24 25  1  0  0  0  0
 25 26  2  0  0  0  0
 26 27  1  0  0  0  0
 28 29  2  0  0  0  0
 29 26  1  0  0  0  0
 30 28  1  0  0  0  0
 30 24  2  0  0  0  0
 31 36  1  1  0  0  0
 31 21  1  0  0  0  0
 32 34  1  0  0  0  0
 34 31  1  1  0  0  0
 35 33  1  6  0  0  0
 35 32  1  0  0  0  0
 35 34  1  0  0  0  0
 36 37  1  0  0  0  0
M  END
>  <MODEL>
9

>  <REMARK>
 VINA RESULT:      -2.7      3.586      7.838
  Name = 
  4 active torsions:
  status: ('A' for Active; 'I' for Inactive)
    1  A    between atoms: C_6  and  C_31
    2  A    between atoms: C_11  and  C_26
    3  A    between atoms: C_17  and  C_26
    4  A    between atoms: C_26  and  N_33
                            x       y       z     vdW  Elec       q    Type
                         _______ _______ _______ _____ _____    ______ ____

>  <TORSDO>
F 4

$$$$
