=
 OpenBabel11062409463D

 34 39  0  0  1  0  0  0  0  0999 V2000
  161.0480  210.3870  152.5960 N   0  0  0  0  0  0  0  0  0  0  0  0
  160.0160  213.1650  150.5600 C   0  0  0  0  0  3  0  0  0  0  0  0
  159.2160  211.8450  152.4370 N   0  0  0  0  0  0  0  0  0  0  0  0
  161.2540  211.1430  155.2880 C   0  0  0  0  0  1  0  0  0  0  0  0
  159.8700  211.2710  154.6660 C   0  0  2  0  0  0  0  0  0  0  0  0
  158.9530  210.5820  155.4620 O   0  0  0  0  0  1  0  0  0  0  0  0
  158.7490  212.9290  153.2770 C   0  0  0  0  0  2  0  0  0  0  0  0
  159.7650  210.7440  153.2230 C   0  0  2  0  0  3  0  0  0  0  0  0
  159.4650  212.7410  154.6050 C   0  0  0  0  0  2  0  0  0  0  0  0
  161.1120  213.5580  149.6230 C   0  0  0  0  0  2  0  0  0  0  0  0
  161.4710  212.4960  148.6270 C   0  0  0  0  0  0  0  0  0  0  0  0
  161.9050  211.2840  148.9910 C   0  0  0  0  0  3  0  0  0  0  0  0
  160.0910  212.0840  151.3380 C   0  0  0  0  0  0  0  0  0  0  0  0
  161.9370  210.7290  150.3570 C   0  0  0  0  0  3  0  0  0  0  0  0
  161.1670  211.1200  151.3800 C   0  0  0  0  0  0  0  0  0  0  0  0
  161.4590  212.8450  147.1690 C   0  0  1  0  0  3  0  0  0  0  0  0
  160.1780  212.4610  146.5290 C   0  0  0  0  0  2  0  0  0  0  0  0
  160.4430  213.7880  146.9090 O   0  0  0  0  0  0  0  0  0  0  0  0
  161.7240  209.1170  152.8430 C   0  0  0  0  0  2  0  0  0  0  0  0
  160.7730  207.9600  152.5690 C   0  0  0  0  0  2  0  0  0  0  0  0
  161.5140  206.6320  152.6290 C   0  0  0  0  0  2  0  0  0  0  0  0
  160.9520  203.5100  150.5490 C   0  0  0  0  0  3  0  0  0  0  0  0
  161.1270  206.3550  150.2190 C   0  0  0  0  0  3  0  0  0  0  0  0
  161.3740  203.8830  146.8290 N   0  0  0  0  0  0  0  0  0  0  0  0
  161.2230  203.2940  148.1330 C   0  0  0  0  0  3  0  0  0  0  0  0
  161.0030  204.0740  149.1920 C   0  0  0  0  0  0  0  0  0  0  0  0
  161.3530  206.1060  147.7430 C   0  0  0  0  0  3  0  0  0  0  0  0
  160.7510  205.5540  149.0050 C   0  0  2  0  0  3  0  0  0  0  0  0
  161.5920  205.2980  146.7070 C   0  0  0  0  0  3  0  0  0  0  0  0
  161.2060  205.7900  151.4330 C   0  0  0  0  0  0  0  0  0  0  0  0
  161.0370  204.3280  151.6030 C   0  0  0  0  0  3  0  0  0  0  0  0
  161.5790  203.0810  145.7570 O   0  0  0  0  0  0  0  0  0  0  0  0
  159.8530  201.6420  144.9620 C   0  0  0  0  0  1  0  0  0  0  0  0
  160.8840  201.9000  146.0420 C   0  0  0  0  0  2  0  0  0  0  0  0
  1 19  1  0  0  0  0
  1  8  1  0  0  0  0
  2 13  2  0  0  0  0
  3  7  1  0  0  0  0
  5  4  1  1  0  0  0
  5  6  1  0  0  0  0
  7  9  1  0  0  0  0
  8  3  1  6  0  0  0
  8  5  1  0  0  0  0
  9  5  1  0  0  0  0
 10  2  1  0  0  0  0
 11 12  2  0  0  0  0
 11 10  1  0  0  0  0
 12 14  1  0  0  0  0
 13 15  1  0  0  0  0
 13  3  1  0  0  0  0
 14 15  2  0  0  0  0
 15  1  1  0  0  0  0
 16 11  1  1  0  0  0
 17 18  1  0  0  0  0
 17 16  1  0  0  0  0
 18 16  1  0  0  0  0
 20 21  1  0  0  0  0
 20 19  1  0  0  0  0
 22 31  2  0  0  0  0
 23 30  2  0  0  0  0
 24 25  1  0  0  0  0
 25 26  2  0  0  0  0
 26 22  1  0  0  0  0
 28 27  1  6  0  0  0
 28 26  1  0  0  0  0
 28 23  1  0  0  0  0
 29 24  1  0  0  0  0
 29 27  2  0  0  0  0
 30 31  1  0  0  0  0
 30 21  1  0  0  0  0
 32 34  1  0  0  0  0
 32 24  1  0  0  0  0
 33 34  1  0  0  0  0
M  END
>  <MODEL>
1

>  <REMARK>
 VINA RESULT:      -8.9      0.000      0.000
  Name = 
  7 active torsions:
  status: ('A' for Active; 'I' for Inactive)
    1  A    between atoms: N_1  and  C_9
    2  A    between atoms: C_3  and  C_25
    3  A    between atoms: N_7  and  O_11
    4  A    between atoms: C_8  and  C_9
    5  A    between atoms: C_8  and  C_18
    6  A    between atoms: O_11  and  C_21
    7  A    between atoms: C_18  and  C_30
                            x       y       z     vdW  Elec       q    Type
                         _______ _______ _______ _____ _____    ______ ____

>  <TORSDO>
F 7

$$$$
=
 OpenBabel11062409463D

 34 39  0  0  1  0  0  0  0  0999 V2000
  160.5610  210.9400  153.9620 N   0  0  0  0  0  0  0  0  0  0  0  0
  157.5510  212.8870  153.6970 C   0  0  0  0  0  3  0  0  0  0  0  0
  158.3920  210.9240  154.8570 N   0  0  0  0  0  0  0  0  0  0  0  0
  161.5140  210.9240  156.5980 C   0  0  0  0  0  1  0  0  0  0  0  0
  160.1310  210.3240  156.3880 C   0  0  2  0  0  0  0  0  0  0  0  0
  160.1100  209.0380  156.9320 O   0  0  0  0  0  1  0  0  0  0  0  0
  157.8740  211.2180  156.1780 C   0  0  0  0  0  2  0  0  0  0  0  0
  159.6830  210.2440  154.9170 C   0  0  2  0  0  3  0  0  0  0  0  0
  159.0830  211.1760  157.0980 C   0  0  0  0  0  2  0  0  0  0  0  0
  157.7890  214.1010  152.8600 C   0  0  0  0  0  2  0  0  0  0  0  0
  158.1470  213.7980  151.4350 C   0  0  0  0  0  0  0  0  0  0  0  0
  159.2220  213.0750  151.1020 C   0  0  0  0  0  3  0  0  0  0  0  0
  158.4680  211.9300  153.8500 C   0  0  0  0  0  0  0  0  0  0  0  0
  160.1050  212.3270  152.0160 C   0  0  0  0  0  3  0  0  0  0  0  0
  159.7710  211.8730  153.2300 C   0  0  0  0  0  0  0  0  0  0  0  0
  157.3400  214.4290  150.3410 C   0  0  1  0  0  3  0  0  0  0  0  0
  156.7170  213.4060  149.4670 C   0  0  0  0  0  2  0  0  0  0  0  0
  155.9840  214.0610  150.4720 O   0  0  0  0  0  0  0  0  0  0  0  0
  161.7980  210.3540  153.4530 C   0  0  0  0  0  2  0  0  0  0  0  0
  161.5210  208.9710  152.8800 C   0  0  0  0  0  2  0  0  0  0  0  0
  161.9260  208.9070  151.4140 C   0  0  0  0  0  2  0  0  0  0  0  0
  160.9450  205.2560  151.1160 C   0  0  0  0  0  3  0  0  0  0  0  0
  161.3420  207.5560  149.4480 C   0  0  0  0  0  3  0  0  0  0  0  0
  161.1250  203.7520  147.6730 N   0  0  0  0  0  0  0  0  0  0  0  0
  161.0190  203.8810  149.1010 C   0  0  0  0  0  3  0  0  0  0  0  0
  160.9450  205.0920  149.6560 C   0  0  0  0  0  0  0  0  0  0  0  0
  161.3650  206.1280  147.3970 C   0  0  0  0  0  3  0  0  0  0  0  0
  160.8110  206.3180  148.7810 C   0  0  2  0  0  3  0  0  0  0  0  0
  161.4560  204.9020  146.8760 C   0  0  0  0  0  3  0  0  0  0  0  0
  161.4590  207.6350  150.7810 C   0  0  0  0  0  0  0  0  0  0  0  0
  161.1770  206.4630  151.6410 C   0  0  0  0  0  3  0  0  0  0  0  0
  161.1810  202.5170  147.1180 O   0  0  0  0  0  0  0  0  0  0  0  0
  161.4960  200.2390  147.7430 C   0  0  0  0  0  1  0  0  0  0  0  0
  161.0900  201.6270  148.1940 C   0  0  0  0  0  2  0  0  0  0  0  0
  2 13  2  0  0  0  0
  3  8  1  0  0  0  0
  3  7  1  0  0  0  0
  5  4  1  1  0  0  0
  5  6  1  0  0  0  0
  5  9  1  0  0  0  0
  7  9  1  0  0  0  0
  8  1  1  6  0  0  0
  8  5  1  0  0  0  0
 10  2  1  0  0  0  0
 11 10  1  0  0  0  0
 12 11  2  0  0  0  0
 12 14  1  0  0  0  0
 13  3  1  0  0  0  0
 14 15  2  0  0  0  0
 15 13  1  0  0  0  0
 15  1  1  0  0  0  0
 16 18  1  0  0  0  0
 16 11  1  1  0  0  0
 17 16  1  0  0  0  0
 17 18  1  0  0  0  0
 19  1  1  0  0  0  0
 20 19  1  0  0  0  0
 21 20  1  0  0  0  0
 22 31  2  0  0  0  0
 23 30  2  0  0  0  0
 24 25  1  0  0  0  0
 25 26  2  0  0  0  0
 26 22  1  0  0  0  0
 28 27  1  6  0  0  0
 28 23  1  0  0  0  0
 28 26  1  0  0  0  0
 29 27  2  0  0  0  0
 29 24  1  0  0  0  0
 30 21  1  0  0  0  0
 30 31  1  0  0  0  0
 32 24  1  0  0  0  0
 32 34  1  0  0  0  0
 33 34  1  0  0  0  0
M  END
>  <MODEL>
2

>  <REMARK>
 VINA RESULT:      -8.3      2.200      2.840
  Name = 
  7 active torsions:
  status: ('A' for Active; 'I' for Inactive)
    1  A    between atoms: N_1  and  C_9
    2  A    between atoms: C_3  and  C_25
    3  A    between atoms: N_7  and  O_11
    4  A    between atoms: C_8  and  C_9
    5  A    between atoms: C_8  and  C_18
    6  A    between atoms: O_11  and  C_21
    7  A    between atoms: C_18  and  C_30
                            x       y       z     vdW  Elec       q    Type
                         _______ _______ _______ _____ _____    ______ ____

>  <TORSDO>
F 7

$$$$
=
 OpenBabel11062409463D

 34 39  0  0  1  0  0  0  0  0999 V2000
  161.1010  208.2610  151.6470 N   0  0  0  0  0  0  0  0  0  0  0  0
  160.8000  211.8410  151.7950 C   0  0  0  0  0  3  0  0  0  0  0  0
  162.1620  210.1380  150.7210 N   0  0  0  0  0  0  0  0  0  0  0  0
  160.7330  207.3330  149.0270 C   0  0  0  0  0  1  0  0  0  0  0  0
  161.9090  208.2760  149.2390 C   0  0  2  0  0  0  0  0  0  0  0  0
  163.0660  207.6710  148.7430 O   0  0  0  0  0  1  0  0  0  0  0  0
  162.1810  210.6930  149.3820 C   0  0  0  0  0  2  0  0  0  0  0  0
  162.1530  208.6780  150.7050 C   0  0  2  0  0  3  0  0  0  0  0  0
  161.6710  209.5800  148.4820 C   0  0  0  0  0  2  0  0  0  0  0  0
  159.5960  212.2280  152.5900 C   0  0  0  0  0  2  0  0  0  0  0  0
  159.6570  211.8130  154.0300 C   0  0  0  0  0  0  0  0  0  0  0  0
  159.7780  210.5350  154.4060 C   0  0  0  0  0  3  0  0  0  0  0  0
  161.2140  210.5760  151.6900 C   0  0  0  0  0  0  0  0  0  0  0  0
  160.0440  209.3760  153.5330 C   0  0  0  0  0  3  0  0  0  0  0  0
  160.6330  209.4190  152.3320 C   0  0  0  0  0  0  0  0  0  0  0  0
  159.4550  212.8550  155.0870 C   0  0  1  0  0  3  0  0  0  0  0  0
  158.0500  213.3290  155.1220 C   0  0  0  0  0  2  0  0  0  0  0  0
  158.5340  212.3910  156.0500 O   0  0  0  0  0  0  0  0  0  0  0  0
  161.0200  206.9100  152.1950 C   0  0  0  0  0  2  0  0  0  0  0  0
  162.3370  206.1800  151.9740 C   0  0  0  0  0  2  0  0  0  0  0  0
  162.2160  204.7200  152.3880 C   0  0  0  0  0  2  0  0  0  0  0  0
  160.7940  201.6830  150.6160 C   0  0  0  0  0  3  0  0  0  0  0  0
  161.5570  204.3890  150.0450 C   0  0  0  0  0  3  0  0  0  0  0  0
  160.9410  201.7210  146.8570 N   0  0  0  0  0  0  0  0  0  0  0  0
  160.7860  201.2630  148.2110 C   0  0  0  0  0  3  0  0  0  0  0  0
  160.8410  202.1360  149.2190 C   0  0  0  0  0  0  0  0  0  0  0  0
  161.4930  203.9440  147.5870 C   0  0  0  0  0  3  0  0  0  0  0  0
  160.9040  203.6200  148.9320 C   0  0  2  0  0  3  0  0  0  0  0  0
  161.4510  203.0400  146.6050 C   0  0  0  0  0  3  0  0  0  0  0  0
  161.6210  203.8960  151.2910 C   0  0  0  0  0  0  0  0  0  0  0  0
  161.1530  202.5240  151.5910 C   0  0  0  0  0  3  0  0  0  0  0  0
  160.8660  200.8290  145.8400 O   0  0  0  0  0  0  0  0  0  0  0  0
  161.2950  198.5440  145.3120 C   0  0  0  0  0  1  0  0  0  0  0  0
  161.2920  199.6120  146.3870 C   0  0  0  0  0  2  0  0  0  0  0  0
  1 19  1  0  0  0  0
  1 15  1  0  0  0  0
  2 10  1  0  0  0  0
  3 13  1  0  0  0  0
  5  4  1  6  0  0  0
  5  8  1  0  0  0  0
  6  5  1  0  0  0  0
  7  3  1  0  0  0  0
  8  3  1  6  0  0  0
  8  1  1  0  0  0  0
  9  5  1  0  0  0  0
  9  7  1  0  0  0  0
 10 11  1  0  0  0  0
 11 12  2  0  0  0  0
 13  2  2  0  0  0  0
 13 15  1  0  0  0  0
 14 12  1  0  0  0  0
 15 14  2  0  0  0  0
 16 11  1  6  0  0  0
 16 17  1  0  0  0  0
 16 18  1  0  0  0  0
 17 18  1  0  0  0  0
 20 19  1  0  0  0  0
 20 21  1  0  0  0  0
 22 31  2  0  0  0  0
 23 30  2  0  0  0  0
 24 25  1  0  0  0  0
 25 26  2  0  0  0  0
 26 22  1  0  0  0  0
 28 27  1  6  0  0  0
 28 26  1  0  0  0  0
 28 23  1  0  0  0  0
 29 24  1  0  0  0  0
 29 27  2  0  0  0  0
 30 31  1  0  0  0  0
 30 21  1  0  0  0  0
 32 34  1  0  0  0  0
 32 24  1  0  0  0  0
 33 34  1  0  0  0  0
M  END
>  <MODEL>
3

>  <REMARK>
 VINA RESULT:      -8.0      2.173      4.570
  Name = 
  7 active torsions:
  status: ('A' for Active; 'I' for Inactive)
    1  A    between atoms: N_1  and  C_9
    2  A    between atoms: C_3  and  C_25
    3  A    between atoms: N_7  and  O_11
    4  A    between atoms: C_8  and  C_9
    5  A    between atoms: C_8  and  C_18
    6  A    between atoms: O_11  and  C_21
    7  A    between atoms: C_18  and  C_30
                            x       y       z     vdW  Elec       q    Type
                         _______ _______ _______ _____ _____    ______ ____

>  <TORSDO>
F 7

$$$$
=
 OpenBabel11062409463D

 34 39  0  0  1  0  0  0  0  0999 V2000
  160.6590  210.8770  152.8030 N   0  0  0  0  0  0  0  0  0  0  0  0
  159.6730  213.6150  150.6920 C   0  0  0  0  0  3  0  0  0  0  0  0
  158.8080  212.2940  152.5400 N   0  0  0  0  0  0  0  0  0  0  0  0
  160.7170  211.6590  155.4950 C   0  0  0  0  0  1  0  0  0  0  0  0
  159.3630  211.7530  154.8040 C   0  0  2  0  0  0  0  0  0  0  0  0
  158.4220  211.0520  155.5600 O   0  0  0  0  0  1  0  0  0  0  0  0
  158.2780  213.3760  153.3460 C   0  0  0  0  0  2  0  0  0  0  0  0
  159.3390  211.2120  153.3630 C   0  0  2  0  0  3  0  0  0  0  0  0
  158.9310  213.2140  154.7090 C   0  0  0  0  0  2  0  0  0  0  0  0
  160.8050  214.0230  149.8070 C   0  0  0  0  0  2  0  0  0  0  0  0
  161.2350  212.9600  148.8390 C   0  0  0  0  0  0  0  0  0  0  0  0
  161.6750  211.7610  149.2360 C   0  0  0  0  0  3  0  0  0  0  0  0
  159.7310  212.5420  151.4830 C   0  0  0  0  0  0  0  0  0  0  0  0
  161.6500  211.2180  150.6070 C   0  0  0  0  0  3  0  0  0  0  0  0
  160.8230  211.6010  151.5870 C   0  0  0  0  0  0  0  0  0  0  0  0
  161.2870  213.2960  147.3800 C   0  0  1  0  0  3  0  0  0  0  0  0
  160.3920  212.4190  146.5880 C   0  0  0  0  0  2  0  0  0  0  0  0
  160.0180  213.7270  146.9400 O   0  0  0  0  0  0  0  0  0  0  0  0
  161.3470  209.6230  153.0950 C   0  0  0  0  0  2  0  0  0  0  0  0
  160.5120  208.4460  152.6100 C   0  0  0  0  0  2  0  0  0  0  0  0
  161.1260  207.1300  153.0680 C   0  0  0  0  0  2  0  0  0  0  0  0
  161.2240  205.9050  149.4800 C   0  0  0  0  0  3  0  0  0  0  0  0
  161.4130  204.8700  152.1490 C   0  0  0  0  0  3  0  0  0  0  0  0
  160.7610  202.2070  148.9630 N   0  0  0  0  0  0  0  0  0  0  0  0
  160.8670  203.6180  148.7050 C   0  0  0  0  0  3  0  0  0  0  0  0
  161.2130  204.4500  149.6880 C   0  0  0  0  0  0  0  0  0  0  0  0
  161.0940  202.5340  151.3220 C   0  0  0  0  0  3  0  0  0  0  0  0
  161.6500  203.8980  151.0270 C   0  0  2  0  0  3  0  0  0  0  0  0
  160.7270  201.7310  150.3190 C   0  0  0  0  0  3  0  0  0  0  0  0
  161.2920  206.1860  151.9200 C   0  0  0  0  0  0  0  0  0  0  0  0
  161.2730  206.7190  150.5390 C   0  0  0  0  0  3  0  0  0  0  0  0
  160.4260  201.3680  147.9530 O   0  0  0  0  0  0  0  0  0  0  0  0
  160.2910  201.6330  145.5880 C   0  0  0  0  0  1  0  0  0  0  0  0
  161.1250  201.8410  146.8360 C   0  0  0  0  0  2  0  0  0  0  0  0
  1 19  1  0  0  0  0
  1  8  1  0  0  0  0
  2 13  2  0  0  0  0
  3  7  1  0  0  0  0
  5  4  1  1  0  0  0
  5  6  1  0  0  0  0
  7  9  1  0  0  0  0
  8  3  1  6  0  0  0
  8  5  1  0  0  0  0
  9  5  1  0  0  0  0
 10  2  1  0  0  0  0
 11 12  2  0  0  0  0
 11 10  1  0  0  0  0
 12 14  1  0  0  0  0
 13 15  1  0  0  0  0
 13  3  1  0  0  0  0
 14 15  2  0  0  0  0
 15  1  1  0  0  0  0
 16 11  1  1  0  0  0
 17 18  1  0  0  0  0
 17 16  1  0  0  0  0
 18 16  1  0  0  0  0
 20 21  1  0  0  0  0
 20 19  1  0  0  0  0
 22 26  1  0  0  0  0
 22 31  2  0  0  0  0
 24 29  1  0  0  0  0
 25 24  1  0  0  0  0
 25 26  2  0  0  0  0
 26 28  1  0  0  0  0
 28 27  1  1  0  0  0
 28 23  1  0  0  0  0
 29 27  2  0  0  0  0
 30 23  2  0  0  0  0
 30 21  1  0  0  0  0
 31 30  1  0  0  0  0
 32 24  1  0  0  0  0
 33 34  1  0  0  0  0
 34 32  1  0  0  0  0
M  END
>  <MODEL>
4

>  <REMARK>
 VINA RESULT:      -7.9      1.090      1.776
  Name = 
  7 active torsions:
  status: ('A' for Active; 'I' for Inactive)
    1  A    between atoms: N_1  and  C_9
    2  A    between atoms: C_3  and  C_25
    3  A    between atoms: N_7  and  O_11
    4  A    between atoms: C_8  and  C_9
    5  A    between atoms: C_8  and  C_18
    6  A    between atoms: O_11  and  C_21
    7  A    between atoms: C_18  and  C_30
                            x       y       z     vdW  Elec       q    Type
                         _______ _______ _______ _____ _____    ______ ____

>  <TORSDO>
F 7

$$$$
=
 OpenBabel11062409463D

 34 39  0  0  1  0  0  0  0  0999 V2000
  161.3010  205.0090  150.1450 N   0  0  0  0  0  0  0  0  0  0  0  0
  161.1550  204.6340  146.5720 C   0  0  0  0  0  3  0  0  0  0  0  0
  160.6940  206.2990  148.2810 N   0  0  0  0  0  0  0  0  0  0  0  0
  163.0380  207.0900  150.8620 C   0  0  0  0  0  1  0  0  0  0  0  0
  161.8360  207.4890  150.0150 C   0  0  2  0  0  0  0  0  0  0  0  0
  161.1560  208.5240  150.6580 O   0  0  0  0  0  1  0  0  0  0  0  0
  161.3090  207.4430  147.6370 C   0  0  0  0  0  2  0  0  0  0  0  0
  160.8440  206.3460  149.7330 C   0  0  2  0  0  3  0  0  0  0  0  0
  162.3060  207.9810  148.6490 C   0  0  0  0  0  2  0  0  0  0  0  0
  161.7440  203.3230  146.1630 C   0  0  0  0  0  2  0  0  0  0  0  0
  160.9950  202.1310  146.6800 C   0  0  0  0  0  0  0  0  0  0  0  0
  160.8170  201.9040  147.9870 C   0  0  0  0  0  3  0  0  0  0  0  0
  160.9700  204.9690  147.8500 C   0  0  0  0  0  0  0  0  0  0  0  0
  161.1410  202.8200  149.0960 C   0  0  0  0  0  3  0  0  0  0  0  0
  161.2460  204.1510  149.0090 C   0  0  0  0  0  0  0  0  0  0  0  0
  160.5330  201.0930  145.7020 C   0  0  1  0  0  3  0  0  0  0  0  0
  159.1010  201.2680  145.3600 C   0  0  0  0  0  2  0  0  0  0  0  0
  160.1230  201.7120  144.5030 O   0  0  0  0  0  0  0  0  0  0  0  0
  161.2150  204.5330  151.5220 C   0  0  0  0  0  2  0  0  0  0  0  0
  160.5330  205.5790  152.3920 C   0  0  0  0  0  2  0  0  0  0  0  0
  161.2990  205.7760  153.6930 C   0  0  0  0  0  2  0  0  0  0  0  0
  159.7900  208.1140  156.2700 C   0  0  0  0  0  3  0  0  0  0  0  0
  161.0640  208.2210  153.7020 C   0  0  0  0  0  3  0  0  0  0  0  0
  158.9900  211.5990  155.1000 N   0  0  0  0  0  0  0  0  0  0  0  0
  159.0350  210.4060  155.9020 C   0  0  0  0  0  3  0  0  0  0  0  0
  159.8070  209.3840  155.5300 C   0  0  0  0  0  0  0  0  0  0  0  0
  160.3190  210.5830  153.3730 C   0  0  0  0  0  3  0  0  0  0  0  0
  160.7530  209.5360  154.3600 C   0  0  2  0  0  3  0  0  0  0  0  0
  159.5220  211.5800  153.7650 C   0  0  0  0  0  3  0  0  0  0  0  0
  160.9140  207.0600  154.3560 C   0  0  0  0  0  0  0  0  0  0  0  0
  160.3250  207.0220  155.7140 C   0  0  0  0  0  3  0  0  0  0  0  0
  158.2170  212.6380  155.4960 O   0  0  0  0  0  0  0  0  0  0  0  0
  155.9920  212.2450  154.7370 C   0  0  0  0  0  1  0  0  0  0  0  0
  156.9920  212.0670  155.8610 C   0  0  0  0  0  2  0  0  0  0  0  0
  1 19  1  0  0  0  0
  2 13  2  0  0  0  0
  5  6  1  0  0  0  0
  5  4  1  1  0  0  0
  7  3  1  0  0  0  0
  7  9  1  0  0  0  0
  8  3  1  6  0  0  0
  8  5  1  0  0  0  0
  8  1  1  0  0  0  0
  9  5  1  0  0  0  0
 10  2  1  0  0  0  0
 10 11  1  0  0  0  0
 11 12  2  0  0  0  0
 12 14  1  0  0  0  0
 13  3  1  0  0  0  0
 13 15  1  0  0  0  0
 15 14  2  0  0  0  0
 15  1  1  0  0  0  0
 16 11  1  1  0  0  0
 17 16  1  0  0  0  0
 18 17  1  0  0  0  0
 18 16  1  0  0  0  0
 19 20  1  0  0  0  0
 20 21  1  0  0  0  0
 21 30  1  0  0  0  0
 23 30  2  0  0  0  0
 23 28  1  0  0  0  0
 24 32  1  0  0  0  0
 24 25  1  0  0  0  0
 26 25  2  0  0  0  0
 26 22  1  0  0  0  0
 27 29  2  0  0  0  0
 28 27  1  6  0  0  0
 28 26  1  0  0  0  0
 29 24  1  0  0  0  0
 30 31  1  0  0  0  0
 31 22  2  0  0  0  0
 32 34  1  0  0  0  0
 33 34  1  0  0  0  0
M  END
>  <MODEL>
5

>  <REMARK>
 VINA RESULT:      -7.7      2.713      8.841
  Name = 
  7 active torsions:
  status: ('A' for Active; 'I' for Inactive)
    1  A    between atoms: N_1  and  C_9
    2  A    between atoms: C_3  and  C_25
    3  A    between atoms: N_7  and  O_11
    4  A    between atoms: C_8  and  C_9
    5  A    between atoms: C_8  and  C_18
    6  A    between atoms: O_11  and  C_21
    7  A    between atoms: C_18  and  C_30
                            x       y       z     vdW  Elec       q    Type
                         _______ _______ _______ _____ _____    ______ ____

>  <TORSDO>
F 7

$$$$
=
 OpenBabel11062409463D

 34 39  0  0  1  0  0  0  0  0999 V2000
  161.9550  209.4820  150.5270 N   0  0  0  0  0  0  0  0  0  0  0  0
  161.2580  205.9550  150.5020 C   0  0  0  0  0  3  0  0  0  0  0  0
  162.0230  207.6820  152.0310 N   0  0  0  0  0  0  0  0  0  0  0  0
  160.3280  210.8090  152.3850 C   0  0  0  0  0  1  0  0  0  0  0  0
  161.2660  209.7550  152.9560 C   0  0  2  0  0  0  0  0  0  0  0  0
  162.0230  210.3320  153.9780 O   0  0  0  0  0  1  0  0  0  0  0  0
  161.2090  207.3290  153.1760 C   0  0  0  0  0  2  0  0  0  0  0  0
  162.2240  209.1250  151.9290 C   0  0  2  0  0  3  0  0  0  0  0  0
  160.4550  208.5990  153.5350 C   0  0  0  0  0  2  0  0  0  0  0  0
  160.6630  205.5520  149.1920 C   0  0  0  0  0  2  0  0  0  0  0  0
  161.5790  205.7460  148.0210 C   0  0  0  0  0  0  0  0  0  0  0  0
  162.0790  206.9420  147.6870 C   0  0  0  0  0  3  0  0  0  0  0  0
  161.7260  207.1840  150.7290 C   0  0  0  0  0  0  0  0  0  0  0  0
  161.9800  208.1900  148.4650 C   0  0  0  0  0  3  0  0  0  0  0  0
  161.7830  208.2770  149.7860 C   0  0  0  0  0  0  0  0  0  0  0  0
  161.8500  204.5790  147.1190 C   0  0  1  0  0  3  0  0  0  0  0  0
  161.3960  204.8460  145.7340 C   0  0  0  0  0  2  0  0  0  0  0  0
  162.7490  204.9580  146.1000 O   0  0  0  0  0  0  0  0  0  0  0  0
  162.3960  210.7400  149.9320 C   0  0  0  0  0  2  0  0  0  0  0  0
  161.2220  211.4360  149.2570 C   0  0  0  0  0  2  0  0  0  0  0  0
  161.6710  212.7420  148.6160 C   0  0  0  0  0  2  0  0  0  0  0  0
  159.4000  212.3760  145.6010 C   0  0  0  0  0  3  0  0  0  0  0  0
  162.0880  213.1570  146.2310 C   0  0  0  0  0  3  0  0  0  0  0  0
  161.0840  212.3160  142.2370 N   0  0  0  0  0  0  0  0  0  0  0  0
  160.0860  212.1910  143.2660 C   0  0  0  0  0  3  0  0  0  0  0  0
  160.3600  212.5910  144.5090 C   0  0  0  0  0  0  0  0  0  0  0  0
  162.7500  213.0070  143.8260 C   0  0  0  0  0  3  0  0  0  0  0  0
  161.6510  213.3210  144.8020 C   0  0  2  0  0  3  0  0  0  0  0  0
  162.4500  212.5790  142.5970 C   0  0  0  0  0  3  0  0  0  0  0  0
  161.2150  212.8280  147.1950 C   0  0  0  0  0  0  0  0  0  0  0  0
  159.8080  212.5020  146.8680 C   0  0  0  0  0  3  0  0  0  0  0  0
  160.7900  211.9230  140.9740 O   0  0  0  0  0  0  0  0  0  0  0  0
  161.5960  209.8970  140.0110 C   0  0  0  0  0  1  0  0  0  0  0  0
  161.9460  211.2830  140.5110 C   0  0  0  0  0  2  0  0  0  0  0  0
  2 13  2  0  0  0  0
  3  7  1  0  0  0  0
  5  4  1  6  0  0  0
  5  9  1  0  0  0  0
  5  6  1  0  0  0  0
  7  9  1  0  0  0  0
  8  1  1  6  0  0  0
  8  3  1  0  0  0  0
  8  5  1  0  0  0  0
 10  2  1  0  0  0  0
 11 10  1  0  0  0  0
 12 11  2  0  0  0  0
 12 14  1  0  0  0  0
 13  3  1  0  0  0  0
 14 15  2  0  0  0  0
 15  1  1  0  0  0  0
 15 13  1  0  0  0  0
 16 11  1  1  0  0  0
 17 18  1  0  0  0  0
 17 16  1  0  0  0  0
 18 16  1  0  0  0  0
 19  1  1  0  0  0  0
 20 19  1  0  0  0  0
 21 20  1  0  0  0  0
 22 31  2  0  0  0  0
 23 30  2  0  0  0  0
 24 29  1  0  0  0  0
 24 25  1  0  0  0  0
 25 26  2  0  0  0  0
 26 28  1  0  0  0  0
 26 22  1  0  0  0  0
 28 27  1  6  0  0  0
 28 23  1  0  0  0  0
 29 27  2  0  0  0  0
 30 21  1  0  0  0  0
 31 30  1  0  0  0  0
 32 24  1  0  0  0  0
 33 34  1  0  0  0  0
 34 32  1  0  0  0  0
M  END
>  <MODEL>
6

>  <REMARK>
 VINA RESULT:      -7.6      3.126      7.296
  Name = 
  7 active torsions:
  status: ('A' for Active; 'I' for Inactive)
    1  A    between atoms: N_1  and  C_9
    2  A    between atoms: C_3  and  C_25
    3  A    between atoms: N_7  and  O_11
    4  A    between atoms: C_8  and  C_9
    5  A    between atoms: C_8  and  C_18
    6  A    between atoms: O_11  and  C_21
    7  A    between atoms: C_18  and  C_30
                            x       y       z     vdW  Elec       q    Type
                         _______ _______ _______ _____ _____    ______ ____

>  <TORSDO>
F 7

$$$$
=
 OpenBabel11062409463D

 34 39  0  0  1  0  0  0  0  0999 V2000
  159.4490  211.3700  154.4730 N   0  0  0  0  0  0  0  0  0  0  0  0
  158.3100  213.6430  151.9310 C   0  0  0  0  0  3  0  0  0  0  0  0
  157.4410  212.3980  153.8290 N   0  0  0  0  0  0  0  0  0  0  0  0
  159.0300  212.4390  157.0310 C   0  0  0  0  0  1  0  0  0  0  0  0
  157.7800  212.2150  156.1910 C   0  0  2  0  0  0  0  0  0  0  0  0
  156.8760  211.4440  156.9250 O   0  0  0  0  0  1  0  0  0  0  0  0
  156.6410  213.4500  154.4260 C   0  0  0  0  0  2  0  0  0  0  0  0
  158.0320  211.5240  154.8390 C   0  0  2  0  0  3  0  0  0  0  0  0
  157.1310  213.5560  155.8610 C   0  0  0  0  0  2  0  0  0  0  0  0
  159.4650  214.1460  151.1280 C   0  0  0  0  0  2  0  0  0  0  0  0
  160.1840  213.0790  150.3590 C   0  0  0  0  0  0  0  0  0  0  0  0
  160.7590  212.0270  150.9540 C   0  0  0  0  0  3  0  0  0  0  0  0
  158.4400  212.6900  152.8560 C   0  0  0  0  0  0  0  0  0  0  0  0
  160.6470  211.6410  152.3730 C   0  0  0  0  0  3  0  0  0  0  0  0
  159.6490  211.9760  153.1990 C   0  0  0  0  0  0  0  0  0  0  0  0
  160.3690  213.2570  148.8830 C   0  0  1  0  0  3  0  0  0  0  0  0
  161.6870  213.8600  148.5690 C   0  0  0  0  0  2  0  0  0  0  0  0
  161.4590  212.4800  148.4370 O   0  0  0  0  0  0  0  0  0  0  0  0
  160.2900  210.2980  154.9990 C   0  0  0  0  0  2  0  0  0  0  0  0
  159.7250  208.9460  154.5880 C   0  0  0  0  0  2  0  0  0  0  0  0
  160.7730  207.8540  154.7590 C   0  0  0  0  0  2  0  0  0  0  0  0
  161.3370  207.5250  151.0230 C   0  0  0  0  0  3  0  0  0  0  0  0
  161.2210  205.8790  153.3700 C   0  0  0  0  0  3  0  0  0  0  0  0
  161.0250  204.0630  149.5840 N   0  0  0  0  0  0  0  0  0  0  0  0
  161.1290  205.4940  149.6850 C   0  0  0  0  0  3  0  0  0  0  0  0
  161.3340  206.0630  150.8750 C   0  0  0  0  0  0  0  0  0  0  0  0
  161.0590  203.8120  151.9750 C   0  0  0  0  0  3  0  0  0  0  0  0
  161.6160  205.2030  152.0860 C   0  0  2  0  0  3  0  0  0  0  0  0
  160.8350  203.2770  150.7720 C   0  0  0  0  0  3  0  0  0  0  0  0
  161.0990  207.2120  153.4490 C   0  0  0  0  0  0  0  0  0  0  0  0
  161.2380  208.0610  152.2440 C   0  0  0  0  0  3  0  0  0  0  0  0
  160.8350  203.4940  148.3690 O   0  0  0  0  0  0  0  0  0  0  0  0
  161.3830  204.2540  146.1770 C   0  0  0  0  0  1  0  0  0  0  0  0
  161.8890  203.9620  147.5760 C   0  0  0  0  0  2  0  0  0  0  0  0
  1  8  1  0  0  0  0
  1 19  1  0  0  0  0
  2 13  2  0  0  0  0
  3  7  1  0  0  0  0
  5  6  1  0  0  0  0
  5  4  1  1  0  0  0
  7  9  1  0  0  0  0
  8  3  1  6  0  0  0
  8  5  1  0  0  0  0
  9  5  1  0  0  0  0
 10  2  1  0  0  0  0
 11 12  2  0  0  0  0
 11 10  1  0  0  0  0
 12 14  1  0  0  0  0
 13 15  1  0  0  0  0
 13  3  1  0  0  0  0
 14 15  2  0  0  0  0
 15  1  1  0  0  0  0
 16 11  1  1  0  0  0
 17 16  1  0  0  0  0
 18 17  1  0  0  0  0
 18 16  1  0  0  0  0
 20 21  1  0  0  0  0
 20 19  1  0  0  0  0
 22 31  2  0  0  0  0
 23 30  2  0  0  0  0
 24 25  1  0  0  0  0
 24 29  1  0  0  0  0
 25 26  2  0  0  0  0
 26 22  1  0  0  0  0
 26 28  1  0  0  0  0
 28 27  1  6  0  0  0
 28 23  1  0  0  0  0
 29 27  2  0  0  0  0
 30 21  1  0  0  0  0
 31 30  1  0  0  0  0
 32 24  1  0  0  0  0
 33 34  1  0  0  0  0
 34 32  1  0  0  0  0
M  END
>  <MODEL>
7

>  <REMARK>
 VINA RESULT:      -7.5      1.720      2.892
  Name = 
  7 active torsions:
  status: ('A' for Active; 'I' for Inactive)
    1  A    between atoms: N_1  and  C_9
    2  A    between atoms: C_3  and  C_25
    3  A    between atoms: N_7  and  O_11
    4  A    between atoms: C_8  and  C_9
    5  A    between atoms: C_8  and  C_18
    6  A    between atoms: O_11  and  C_21
    7  A    between atoms: C_18  and  C_30
                            x       y       z     vdW  Elec       q    Type
                         _______ _______ _______ _____ _____    ______ ____

>  <TORSDO>
F 7

$$$$
=
 OpenBabel11062409463D

 34 39  0  0  1  0  0  0  0  0999 V2000
  161.3780  208.3290  151.4440 N   0  0  0  0  0  0  0  0  0  0  0  0
  160.4910  209.3100  154.7870 C   0  0  0  0  0  3  0  0  0  0  0  0
  160.3950  207.3590  153.3400 N   0  0  0  0  0  0  0  0  0  0  0  0
  163.2250  206.2190  151.4780 C   0  0  0  0  0  1  0  0  0  0  0  0
  161.8740  205.9300  152.1160 C   0  0  2  0  0  0  0  0  0  0  0  0
  161.3410  204.7750  151.5400 O   0  0  0  0  0  1  0  0  0  0  0  0
  160.8620  206.3680  154.2890 C   0  0  0  0  0  2  0  0  0  0  0  0
  160.8440  207.0670  151.9820 C   0  0  2  0  0  3  0  0  0  0  0  0
  162.0480  205.6990  153.6150 C   0  0  0  0  0  2  0  0  0  0  0  0
  160.9810  210.6930  155.0700 C   0  0  0  0  0  2  0  0  0  0  0  0
  160.3580  211.7490  154.2080 C   0  0  0  0  0  0  0  0  0  0  0  0
  160.4560  211.7400  152.8730 C   0  0  0  0  0  3  0  0  0  0  0  0
  160.5760  208.7520  153.5770 C   0  0  0  0  0  0  0  0  0  0  0  0
  161.0040  210.6590  152.0330 C   0  0  0  0  0  3  0  0  0  0  0  0
  161.0880  209.3680  152.3740 C   0  0  0  0  0  0  0  0  0  0  0  0
  159.7020  212.9230  154.8700 C   0  0  1  0  0  3  0  0  0  0  0  0
  158.3540  212.5760  155.3800 C   0  0  0  0  0  2  0  0  0  0  0  0
  159.4700  212.6380  156.2320 O   0  0  0  0  0  0  0  0  0  0  0  0
  161.5810  208.5560  150.0160 C   0  0  0  0  0  2  0  0  0  0  0  0
  160.9300  207.4380  149.2140 C   0  0  0  0  0  2  0  0  0  0  0  0
  161.2700  207.5730  147.7350 C   0  0  0  0  0  2  0  0  0  0  0  0
  161.1910  204.9440  145.0020 C   0  0  0  0  0  3  0  0  0  0  0  0
  161.5430  205.1340  147.8430 C   0  0  0  0  0  3  0  0  0  0  0  0
  160.7610  201.3790  146.1230 N   0  0  0  0  0  0  0  0  0  0  0  0
  160.8290  202.5470  145.2870 C   0  0  0  0  0  3  0  0  0  0  0  0
  161.2160  203.7140  145.8060 C   0  0  0  0  0  0  0  0  0  0  0  0
  161.2170  202.6700  148.1000 C   0  0  0  0  0  3  0  0  0  0  0  0
  161.7340  203.7770  147.2250 C   0  0  2  0  0  3  0  0  0  0  0  0
  160.8080  201.5220  147.5520 C   0  0  0  0  0  3  0  0  0  0  0  0
  161.3880  206.2300  147.0870 C   0  0  0  0  0  0  0  0  0  0  0  0
  161.2850  206.1300  145.6130 C   0  0  0  0  0  3  0  0  0  0  0  0
  160.3850  200.1950  145.5830 O   0  0  0  0  0  0  0  0  0  0  0  0
  161.2090  197.9860  145.2320 C   0  0  0  0  0  1  0  0  0  0  0  0
  161.3370  199.2700  146.0260 C   0  0  0  0  0  2  0  0  0  0  0  0
  1 15  1  0  0  0  0
  2 10  1  0  0  0  0
  3 13  1  0  0  0  0
  3  7  1  0  0  0  0
  5  4  1  6  0  0  0
  5  9  1  0  0  0  0
  6  5  1  0  0  0  0
  8  1  1  1  0  0  0
  8  5  1  0  0  0  0
  8  3  1  0  0  0  0
  9  7  1  0  0  0  0
 11 10  1  0  0  0  0
 12 11  2  0  0  0  0
 13  2  2  0  0  0  0
 14 15  2  0  0  0  0
 14 12  1  0  0  0  0
 15 13  1  0  0  0  0
 16 11  1  6  0  0  0
 16 17  1  0  0  0  0
 16 18  1  0  0  0  0
 17 18  1  0  0  0  0
 19  1  1  0  0  0  0
 20 19  1  0  0  0  0
 21 20  1  0  0  0  0
 22 31  2  0  0  0  0
 22 26  1  0  0  0  0
 24 29  1  0  0  0  0
 25 26  2  0  0  0  0
 25 24  1  0  0  0  0
 26 28  1  0  0  0  0
 28 23  1  1  0  0  0
 28 27  1  0  0  0  0
 29 27  2  0  0  0  0
 30 21  1  0  0  0  0
 30 23  2  0  0  0  0
 31 30  1  0  0  0  0
 32 34  1  0  0  0  0
 32 24  1  0  0  0  0
 33 34  1  0  0  0  0
M  END
>  <MODEL>
8

>  <REMARK>
 VINA RESULT:      -7.4      2.834      5.153
  Name = 
  7 active torsions:
  status: ('A' for Active; 'I' for Inactive)
    1  A    between atoms: N_1  and  C_9
    2  A    between atoms: C_3  and  C_25
    3  A    between atoms: N_7  and  O_11
    4  A    between atoms: C_8  and  C_9
    5  A    between atoms: C_8  and  C_18
    6  A    between atoms: O_11  and  C_21
    7  A    between atoms: C_18  and  C_30
                            x       y       z     vdW  Elec       q    Type
                         _______ _______ _______ _____ _____    ______ ____

>  <TORSDO>
F 7

$$$$
=
 OpenBabel11062409463D

 34 39  0  0  1  0  0  0  0  0999 V2000
  161.1460  211.3270  150.7790 N   0  0  0  0  0  0  0  0  0  0  0  0
  158.7590  214.0060  150.5580 C   0  0  0  0  0  3  0  0  0  0  0  0
  160.9390  213.3880  149.6780 N   0  0  0  0  0  0  0  0  0  0  0  0
  161.5880  210.1710  148.2630 C   0  0  0  0  0  1  0  0  0  0  0  0
  161.9510  211.6440  148.3910 C   0  0  2  0  0  0  0  0  0  0  0  0
  163.2710  211.8200  147.9710 O   0  0  0  0  0  1  0  0  0  0  0  0
  160.7160  213.7420  148.2900 C   0  0  0  0  0  2  0  0  0  0  0  0
  161.8040  212.2200  149.8110 C   0  0  2  0  0  3  0  0  0  0  0  0
  161.0360  212.4810  147.5030 C   0  0  0  0  0  2  0  0  0  0  0  0
  157.5100  213.6510  151.2970 C   0  0  0  0  0  2  0  0  0  0  0  0
  157.7060  213.4650  152.7720 C   0  0  0  0  0  0  0  0  0  0  0  0
  158.5400  212.5490  153.2780 C   0  0  0  0  0  3  0  0  0  0  0  0
  159.8520  213.2410  150.5880 C   0  0  0  0  0  0  0  0  0  0  0  0
  159.5040  211.7210  152.5300 C   0  0  0  0  0  3  0  0  0  0  0  0
  160.0330  212.0190  151.3370 C   0  0  0  0  0  0  0  0  0  0  0  0
  156.8490  214.2530  153.7160 C   0  0  1  0  0  3  0  0  0  0  0  0
  155.6740  213.4680  154.1670 C   0  0  0  0  0  2  0  0  0  0  0  0
  156.8130  213.6190  154.9760 O   0  0  0  0  0  0  0  0  0  0  0  0
  161.8500  210.2440  151.4610 C   0  0  0  0  0  2  0  0  0  0  0  0
  160.9230  209.0480  151.6310 C   0  0  0  0  0  2  0  0  0  0  0  0
  161.7270  207.7770  151.8650 C   0  0  0  0  0  2  0  0  0  0  0  0
  161.2580  204.3370  150.3390 C   0  0  0  0  0  3  0  0  0  0  0  0
  161.2020  207.0990  149.5640 C   0  0  0  0  0  3  0  0  0  0  0  0
  161.4010  204.1400  146.5840 N   0  0  0  0  0  0  0  0  0  0  0  0
  161.3810  203.7580  147.9700 C   0  0  0  0  0  3  0  0  0  0  0  0
  161.1760  204.6810  148.9120 C   0  0  0  0  0  0  0  0  0  0  0  0
  161.2800  206.4750  147.1450 C   0  0  0  0  0  3  0  0  0  0  0  0
  160.8050  206.0930  148.5190 C   0  0  2  0  0  3  0  0  0  0  0  0
  161.5070  205.5290  146.2300 C   0  0  0  0  0  3  0  0  0  0  0  0
  161.4020  206.7380  150.8400 C   0  0  0  0  0  0  0  0  0  0  0  0
  161.3520  205.3150  151.2450 C   0  0  0  0  0  3  0  0  0  0  0  0
  161.5930  203.1930  145.6350 O   0  0  0  0  0  0  0  0  0  0  0  0
  159.9050  201.6640  144.9320 C   0  0  0  0  0  1  0  0  0  0  0  0
  160.8300  202.0960  146.0520 C   0  0  0  0  0  2  0  0  0  0  0  0
  1 15  1  0  0  0  0
  1 19  1  0  0  0  0
  2 13  2  0  0  0  0
  2 10  1  0  0  0  0
  3 13  1  0  0  0  0
  5  4  1  6  0  0  0
  5  8  1  0  0  0  0
  6  5  1  0  0  0  0
  7  3  1  0  0  0  0
  8  3  1  6  0  0  0
  8  1  1  0  0  0  0
  9  7  1  0  0  0  0
  9  5  1  0  0  0  0
 10 11  1  0  0  0  0
 11 12  2  0  0  0  0
 13 15  1  0  0  0  0
 14 12  1  0  0  0  0
 15 14  2  0  0  0  0
 16 11  1  6  0  0  0
 16 17  1  0  0  0  0
 16 18  1  0  0  0  0
 17 18  1  0  0  0  0
 19 20  1  0  0  0  0
 20 21  1  0  0  0  0
 22 31  2  0  0  0  0
 23 30  2  0  0  0  0
 24 25  1  0  0  0  0
 25 26  2  0  0  0  0
 26 22  1  0  0  0  0
 28 27  1  6  0  0  0
 28 26  1  0  0  0  0
 28 23  1  0  0  0  0
 29 24  1  0  0  0  0
 29 27  2  0  0  0  0
 30 31  1  0  0  0  0
 30 21  1  0  0  0  0
 32 34  1  0  0  0  0
 32 24  1  0  0  0  0
 33 34  1  0  0  0  0
M  END
>  <MODEL>
9

>  <REMARK>
 VINA RESULT:      -7.3      1.608      4.281
  Name = 
  7 active torsions:
  status: ('A' for Active; 'I' for Inactive)
    1  A    between atoms: N_1  and  C_9
    2  A    between atoms: C_3  and  C_25
    3  A    between atoms: N_7  and  O_11
    4  A    between atoms: C_8  and  C_9
    5  A    between atoms: C_8  and  C_18
    6  A    between atoms: O_11  and  C_21
    7  A    between atoms: C_18  and  C_30
                            x       y       z     vdW  Elec       q    Type
                         _______ _______ _______ _____ _____    ______ ____

>  <TORSDO>
F 7

$$$$
