=
 OpenBabel11062408403D

 55 61  0  0  1  0  0  0  0  0999 V2000
  162.0260  205.7620  154.0600 C   0  0  0  0  0  2  0  0  0  0  0  0
  161.6550  208.4750  149.0730 C   0  0  0  0  0  3  0  0  0  0  0  0
  163.6870  211.4010  150.1660 C   0  0  0  0  0  1  0  0  0  0  0  0
  161.0570  205.8280  147.7850 C   0  0  0  0  0  2  0  0  0  0  0  0
  158.9620  207.0550  146.8960 C   0  0  0  0  0  2  0  0  0  0  0  0
  160.5850  211.5230  150.8800 C   0  0  0  0  0  3  0  0  0  0  0  0
  160.4060  204.9930  143.1170 O   0  0  0  0  0  0  0  0  0  0  0  0
  162.7100  205.8860  143.7080 C   0  0  2  0  0  3  0  0  0  0  0  0
  163.1230  204.7020  144.5980 C   0  0  0  0  0  2  0  0  0  0  0  0
  159.2910  212.0340  150.9100 C   0  0  0  0  0  3  0  0  0  0  0  0
  160.0030  209.9120  152.5800 C   0  0  0  0  0  0  0  0  0  0  0  0
  158.7100  210.4550  152.6400 C   0  0  0  0  0  3  0  0  0  0  0  0
  162.4360  208.4880  152.0290 O   0  0  0  0  0  0  0  0  0  0  0  0
  160.2050  205.4010  145.4940 C   0  0  0  0  0  0  0  0  0  0  0  0
  159.0580  206.0140  145.8030 C   0  0  0  0  0  3  0  0  0  0  0  0
  158.3480  211.4980  151.7860 C   0  0  0  0  0  3  0  0  0  0  0  0
  161.9820  203.3430  151.2190 C   0  0  0  0  0  2  0  0  0  0  0  0
  160.1950  204.3860  144.3890 C   0  0  0  0  0  2  0  0  0  0  0  0
  160.9420  210.4250  151.6860 C   0  0  0  0  0  0  0  0  0  0  0  0
  160.2120  205.0750  150.7950 C   0  0  2  0  0  3  0  0  0  0  0  0
  162.3580  207.2390  154.1250 C   0  0  2  0  0  3  0  0  0  0  0  0
  161.6300  205.5360  142.7100 C   0  0  0  0  0  0  0  0  0  0  0  0
  158.7980  205.3010  151.2840 C   0  0  0  0  0  2  0  0  0  0  0  0
  160.7910  209.5980  154.9190 C   0  0  2  0  0  3  0  0  0  0  0  0
  162.0390  207.7710  155.5140 C   0  0  0  0  0  2  0  0  0  0  0  0
  160.7270  208.2010  148.0570 O   0  0  0  0  0  0  0  0  0  0  0  0
  160.4370  208.9060  153.5830 C   0  0  2  0  0  3  0  0  0  0  0  0
  162.2220  209.6660  149.1660 C   0  0  0  0  0  3  0  0  0  0  0  0
  163.0940  210.0130  150.3340 C   0  0  2  0  0  3  0  0  0  0  0  0
  162.2090  203.7030  152.6830 C   0  0  0  0  0  2  0  0  0  0  0  0
  161.4460  205.7240  146.3040 C   0  0  2  0  0  3  0  0  0  0  0  0
  160.0240  206.9590  148.0160 C   0  0  2  0  0  0  0  0  0  0  0  0
  162.6250  205.1610  152.8020 C   0  0  0  0  0  2  0  0  0  0  0  0
  162.3600  209.8670  151.6920 C   0  0  2  0  0  3  0  0  0  0  0  0
  161.5760  208.0150  153.0510 C   0  0  1  0  0  3  0  0  0  0  0  0
  161.8160  205.7310  141.4810 O   0  0  0  0  0  0  0  0  0  0  0  0
  159.2630  206.7920  149.3480 C   0  0  0  0  0  2  0  0  0  0  0  0
  162.0280  209.1750  155.4760 O   0  0  0  0  0  0  0  0  0  0  0  0
  162.7020  204.8220  146.0810 C   0  0  1  0  0  0  0  0  0  0  0  0
  159.0980  205.3490  149.8040 C   0  0  1  0  0  3  0  0  0  0  0  0
  160.5350  203.5850  150.8050 C   0  0  0  0  0  2  0  0  0  0  0  0
  162.4330  203.4220  146.6110 C   0  0  0  0  0  0  0  0  0  0  0  0
  161.9790  202.4190  145.7630 O   0  0  0  0  0  0  0  0  0  0  0  0
  162.5570  203.1630  147.8430 O   0  0  0  0  0  1  0  0  0  0  0  0
  163.4150  207.1050  141.8930 C   0  0  0  0  0  1  0  0  0  0  0  0
  163.7860  206.6260  143.1600 O   0  0  0  0  0  0  0  0  0  0  0  0
  163.8950  205.4090  146.8620 C   0  0  0  0  0  2  0  0  0  0  0  0
  163.4730  206.3570  147.9700 C   0  0  0  0  0  1  0  0  0  0  0  0
  159.7350  209.4270  155.8350 O   0  0  0  0  0  0  0  0  0  0  0  0
  159.8590  210.4500  156.7860 C   0  0  0  0  0  2  0  0  0  0  0  0
  159.4180  212.5950  155.5950 C   0  0  0  0  0  1  0  0  0  0  0  0
  158.8230  211.5270  156.4950 C   0  0  1  0  0  3  0  0  0  0  0  0
  157.6110  210.8930  155.8190 C   0  0  0  0  0  2  0  0  0  0  0  0
  156.3950  211.7960  155.9010 C   0  0  0  0  0  2  0  0  0  0  0  0
  155.9680  212.1280  154.6150 O   0  0  0  0  0  1  0  0  0  0  0  0
  2 28  2  0  0  0  0
  4 32  1  0  0  0  0
  6 10  2  0  0  0  0
  6 19  1  0  0  0  0
  7 18  1  0  0  0  0
  8 46  1  6  0  0  0
  8  9  1  0  0  0  0
  9 39  1  0  0  0  0
 10 16  1  0  0  0  0
 11 12  1  0  0  0  0
 14 15  2  0  0  0  0
 14 31  1  0  0  0  0
 15  5  1  0  0  0  0
 16 12  2  0  0  0  0
 17 30  1  0  0  0  0
 18 14  1  0  0  0  0
 19 11  2  0  0  0  0
 20 41  1  6  0  0  0
 20 23  1  0  0  0  0
 21  1  1  1  0  0  0
 21 25  1  0  0  0  0
 22  7  1  0  0  0  0
 22  8  1  0  0  0  0
 24 38  1  0  0  0  0
 24 49  1  1  0  0  0
 26  2  1  0  0  0  0
 27 11  1  6  0  0  0
 27 24  1  0  0  0  0
 28 29  1  0  0  0  0
 29  3  1  6  0  0  0
 29 34  1  0  0  0  0
 30 33  1  0  0  0  0
 31  4  1  1  0  0  0
 32  5  1  6  0  0  0
 32 26  1  0  0  0  0
 32 37  1  0  0  0  0
 33  1  1  0  0  0  0
 34 19  1  6  0  0  0
 34 13  1  0  0  0  0
 35 13  1  1  0  0  0
 35 27  1  0  0  0  0
 35 21  1  0  0  0  0
 36 22  2  0  0  0  0
 38 25  1  0  0  0  0
 39 31  1  0  0  0  0
 39 42  1  0  0  0  0
 39 47  1  1  0  0  0
 40 37  1  1  0  0  0
 40 20  1  0  0  0  0
 40 23  1  0  0  0  0
 41 17  1  0  0  0  0
 42 44  1  0  0  0  0
 43 42  2  0  0  0  0
 45 46  1  0  0  0  0
 47 48  1  0  0  0  0
 49 50  1  0  0  0  0
 52 51  1  6  0  0  0
 52 50  1  0  0  0  0
 53 54  1  0  0  0  0
 53 52  1  0  0  0  0
 55 54  1  0  0  0  0
M  END
>  <MODEL>
1

>  <REMARK>
 VINA RESULT:      32.9      0.000      0.000
  Name = 
  8 active torsions:
  status: ('A' for Active; 'I' for Inactive)
    1  A    between atoms: C_1  and  C_53
    2  A    between atoms: C_6  and  C_53
    3  A    between atoms: C_12  and  O_38
    4  A    between atoms: O_13  and  C_33
    5  A    between atoms: O_13  and  C_48
    6  A    between atoms: C_18  and  C_39
    7  A    between atoms: C_32  and  C_39
    8  A    between atoms: C_32  and  C_48
                            x       y       z     vdW  Elec       q    Type
                         _______ _______ _______ _____ _____    ______ ____

>  <TORSDO>
F 8

$$$$
