=
 OpenBabel11062408443D

 55 59  0  0  1  0  0  0  0  0999 V2000
  161.9700  208.1130  147.1610 C   0  0  0  0  0  2  0  0  0  0  0  0
  161.1890  206.2570  153.3900 C   0  0  0  0  0  2  0  0  0  0  0  0
  162.4270  203.8900  152.4460 O   0  0  0  0  0  0  0  0  0  0  0  0
  160.9460  208.5810  154.1020 N   0  0  0  0  0  0  0  0  0  0  0  0
  161.7130  200.9890  149.2340 C   0  0  0  0  0  2  0  0  0  0  0  0
  161.3800  199.8830  148.2730 C   0  0  0  0  0  3  0  0  0  0  0  0
  161.3230  202.6310  147.4040 C   0  0  2  0  0  3  0  0  0  0  0  0
  161.0040  201.4990  146.5360 N   0  0  0  0  0  2  0  0  0  0  0  0
  160.6640  203.2950  150.9620 C   0  0  0  0  0  2  0  0  0  0  0  0
  161.0770  200.1460  147.0010 C   0  0  0  0  0  3  0  0  0  0  0  0
  160.8170  210.2990  147.6110 C   0  0  0  0  0  2  0  0  0  0  0  0
  160.9920  202.2890  148.8610 C   0  0  2  0  0  3  0  0  0  0  0  0
  162.4420  210.2740  149.9200 C   0  0  0  0  0  0  0  0  0  0  0  0
  162.2470  206.8300  147.6520 O   0  0  0  0  0  0  0  0  0  0  0  0
  162.0160  209.0810  149.4670 C   0  0  0  0  0  3  0  0  0  0  0  0
  161.5670  204.7300  146.7110 C   0  0  2  0  0  3  0  0  0  0  0  0
  160.2230  207.3900  153.6820 C   0  0  0  0  0  2  0  0  0  0  0  0
  160.6020  203.7540  146.9840 O   0  0  0  0  0  0  0  0  0  0  0  0
  160.5790  205.3180  152.4640 N   0  0  0  0  0  2  0  0  0  0  0  0
  161.2820  204.1680  151.9970 C   0  0  0  0  0  0  0  0  0  0  0  0
  161.9090  211.2620  147.7510 N   0  0  0  0  0  2  0  0  0  0  0  0
  161.7370  209.2420  153.1490 C   0  0  0  0  0  0  0  0  0  0  0  0
  161.2150  208.9390  148.1960 C   0  0  2  0  0  3  0  0  0  0  0  0
  161.4420  203.3640  149.7340 N   0  0  0  0  0  2  0  0  0  0  0  0
  161.1300  206.0550  147.3260 C   0  0  0  0  0  2  0  0  0  0  0  0
  162.4060  209.7770  152.3010 C   0  0  0  0  0  0  0  0  0  0  0  0
  163.1930  210.3700  151.2140 C   0  0  0  0  0  2  0  0  0  0  0  0
  162.0890  211.5340  149.1770 C   0  0  0  0  0  2  0  0  0  0  0  0
  162.8810  205.8310  144.8700 C   0  0  0  0  0  3  0  0  0  0  0  0
  161.9410  206.0460  142.6270 C   0  0  0  0  0  0  0  0  0  0  0  0
  160.5060  205.1290  144.4200 C   0  0  0  0  0  2  0  0  0  0  0  0
  160.8070  205.4240  142.9750 C   0  0  0  0  0  3  0  0  0  0  0  0
  162.9580  206.3640  143.6480 C   0  0  0  0  0  3  0  0  0  0  0  0
  161.7980  204.8370  145.2000 C   0  0  2  0  0  3  0  0  0  0  0  0
  162.2440  206.4720  140.9300 S   0  0  2  0  0  0  0  0  0  0  0  0
  163.6820  206.9750  140.9240 O   0  0  0  0  0  0  0  0  0  0  0  0
  161.2520  207.9480  140.6480 C   0  0  0  0  0  1  0  0  0  0  0  0
  160.5150  209.2640  155.2500 N   0  0  0  0  0  2  0  0  0  0  0  0
  162.4700  211.0420  155.5320 O   0  0  0  0  0  0  0  0  0  0  0  0
  161.0190  210.9250  155.1580 S   0  0  0  0  0  0  0  0  0  0  0  0
  160.8450  211.3780  153.7350 O   0  0  0  0  0  0  0  0  0  0  0  0
  160.0170  211.9490  156.2430 C   0  0  1  0  0  3  0  0  0  0  0  0
  160.8660  212.6870  157.2610 C   0  0  0  0  0  1  0  0  0  0  0  0
  159.0250  214.2620  156.2110 C   0  0  0  0  0  1  0  0  0  0  0  0
  159.0360  212.8990  155.5300 C   0  0  2  0  0  3  0  0  0  0  0  0
  155.8180  213.9170  155.7090 C   0  0  0  0  0  0  0  0  0  0  0  0
  157.5960  210.9670  155.3460 O   0  0  0  0  0  1  0  0  0  0  0  0
  154.8310  214.4450  156.6870 C   0  0  0  0  0  1  0  0  0  0  0  0
  157.2710  212.6290  153.6920 C   0  0  1  0  0  3  0  0  0  0  0  0
  155.8620  214.4530  154.4180 O   0  0  0  0  0  0  0  0  0  0  0  0
  157.6190  212.3520  155.1730 C   0  0  2  0  0  0  0  0  0  0  0  0
  156.8820  214.0910  153.4930 C   0  0  0  0  0  2  0  0  0  0  0  0
  156.6030  212.9410  156.0550 N   0  0  0  0  0  0  0  0  0  0  0  0
  158.3300  212.2890  152.8440 O   0  0  0  0  0  0  0  0  0  0  0  0
  158.0990  213.0140  151.6740 C   0  0  0  0  0  1  0  0  0  0  0  0
  1 14  1  0  0  0  0
  2 17  1  0  0  0  0
  4 38  1  0  0  0  0
  6  5  1  0  0  0  0
  7  8  1  6  0  0  0
  7 12  1  0  0  0  0
  8 10  1  0  0  0  0
  9 20  1  0  0  0  0
 10  6  2  0  0  0  0
 11 21  1  0  0  0  0
 11 23  1  0  0  0  0
 12  5  1  1  0  0  0
 12 24  1  0  0  0  0
 13 27  1  0  0  0  0
 15 13  2  0  0  0  0
 16 18  1  0  0  0  0
 16 25  1  6  0  0  0
 17  4  1  0  0  0  0
 18  7  1  0  0  0  0
 19  2  1  0  0  0  0
 20  3  2  0  0  0  0
 20 19  1  0  0  0  0
 21 28  1  0  0  0  0
 22  4  1  0  0  0  0
 23  1  1  6  0  0  0
 23 15  1  0  0  0  0
 24  9  1  0  0  0  0
 25 14  1  0  0  0  0
 26 22  3  0  0  0  0
 27 26  1  0  0  0  0
 28 13  1  0  0  0  0
 29 34  1  0  0  0  0
 30 32  2  0  0  0  0
 30 33  1  0  0  0  0
 32 31  1  0  0  0  0
 33 29  2  0  0  0  0
 34 31  1  6  0  0  0
 34 16  1  0  0  0  0
 35 37  1  1  0  0  0
 35 30  1  0  0  0  0
 36 35  2  0  0  0  0
 40 38  1  0  0  0  0
 40 39  2  0  0  0  0
 40 42  1  0  0  0  0
 41 40  2  0  0  0  0
 42 43  1  6  0  0  0
 45 44  1  1  0  0  0
 45 42  1  0  0  0  0
 46 53  2  0  0  0  0
 46 48  1  0  0  0  0
 49 54  1  6  0  0  0
 49 51  1  0  0  0  0
 50 46  1  0  0  0  0
 51 47  1  1  0  0  0
 51 45  1  0  0  0  0
 51 53  1  0  0  0  0
 52 49  1  0  0  0  0
 52 50  1  0  0  0  0
 55 54  1  0  0  0  0
M  END
>  <MODEL>
1

>  <REMARK>
 VINA RESULT:       3.3      0.000      0.000
  Name = 
  8 active torsions:
  status: ('A' for Active; 'I' for Inactive)
    1  A    between atoms: C_6  and  C_14
    2  A    between atoms: C_6  and  S_20
    3  A    between atoms: N_8  and  N_22
    4  A    between atoms: S_10  and  C_32
    5  A    between atoms: O_11  and  C_29
    6  A    between atoms: C_14  and  C_38
    7  A    between atoms: S_20  and  N_22
    8  A    between atoms: C_33  and  C_52
                            x       y       z     vdW  Elec       q    Type
                         _______ _______ _______ _____ _____    ______ ____

>  <TORSDO>
F 8

$$$$
=
 OpenBabel11062408443D

 55 59  0  0  1  0  0  0  0  0999 V2000
  161.9390  208.0140  147.1900 C   0  0  0  0  0  2  0  0  0  0  0  0
  161.1800  205.9780  153.3640 C   0  0  0  0  0  2  0  0  0  0  0  0
  162.4450  203.6520  152.3560 O   0  0  0  0  0  0  0  0  0  0  0  0
  160.9110  208.2790  154.1400 N   0  0  0  0  0  0  0  0  0  0  0  0
  161.7640  200.8330  149.0640 C   0  0  0  0  0  2  0  0  0  0  0  0
  161.4430  199.7500  148.0730 C   0  0  0  0  0  3  0  0  0  0  0  0
  161.3550  202.5200  147.2800 C   0  0  2  0  0  3  0  0  0  0  0  0
  161.0480  201.4100  146.3810 N   0  0  0  0  0  2  0  0  0  0  0  0
  160.6880  203.0780  150.8560 C   0  0  0  0  0  2  0  0  0  0  0  0
  161.1370  200.0440  146.8080 C   0  0  0  0  0  3  0  0  0  0  0  0
  160.7620  210.1740  147.7000 C   0  0  0  0  0  2  0  0  0  0  0  0
  161.0280  202.1340  148.7270 C   0  0  2  0  0  3  0  0  0  0  0  0
  162.3880  210.1030  150.0070 C   0  0  0  0  0  0  0  0  0  0  0  0
  162.2310  206.7210  147.6450 O   0  0  0  0  0  0  0  0  0  0  0  0
  161.9750  208.9190  149.5210 C   0  0  0  0  0  3  0  0  0  0  0  0
  161.5760  204.6410  146.6460 C   0  0  2  0  0  3  0  0  0  0  0  0
  160.2010  207.0910  153.6870 C   0  0  0  0  0  2  0  0  0  0  0  0
  160.6210  203.6460  146.8910 O   0  0  0  0  0  0  0  0  0  0  0  0
  160.5810  205.0580  152.4130 N   0  0  0  0  0  2  0  0  0  0  0  0
  161.2970  203.9290  151.9140 C   0  0  0  0  0  0  0  0  0  0  0  0
  161.8430  211.1440  147.8660 N   0  0  0  0  0  2  0  0  0  0  0  0
  161.6940  208.9740  153.2060 C   0  0  0  0  0  0  0  0  0  0  0  0
  161.1760  208.8030  148.2470 C   0  0  2  0  0  3  0  0  0  0  0  0
  161.4650  203.1900  149.6300 N   0  0  0  0  0  2  0  0  0  0  0  0
  161.1230  205.9420  147.2970 C   0  0  0  0  0  2  0  0  0  0  0  0
  162.3570  209.5400  152.3740 C   0  0  0  0  0  0  0  0  0  0  0  0
  163.1370  210.1720  151.3040 C   0  0  0  0  0  2  0  0  0  0  0  0
  162.0200  211.3790  149.2990 C   0  0  0  0  0  2  0  0  0  0  0  0
  162.8380  205.8460  144.8340 C   0  0  0  0  0  3  0  0  0  0  0  0
  161.8940  206.0620  142.5930 C   0  0  0  0  0  0  0  0  0  0  0  0
  160.5030  205.0360  144.3600 C   0  0  0  0  0  2  0  0  0  0  0  0
  160.7920  205.3770  142.9230 C   0  0  0  0  0  3  0  0  0  0  0  0
  162.8910  206.4090  143.6240 C   0  0  0  0  0  3  0  0  0  0  0  0
  161.8050  204.7920  145.1380 C   0  0  2  0  0  3  0  0  0  0  0  0
  162.1810  206.5400  140.9070 S   0  0  2  0  0  0  0  0  0  0  0  0
  163.6350  206.9910  140.8900 O   0  0  0  0  0  0  0  0  0  0  0  0
  161.2370  208.0590  140.6990 C   0  0  0  0  0  1  0  0  0  0  0  0
  160.4720  208.9250  155.3060 N   0  0  0  0  0  2  0  0  0  0  0  0
  161.1830  211.4810  155.1650 O   0  0  0  0  0  0  0  0  0  0  0  0
  160.0190  210.5590  154.9270 S   0  0  0  0  0  0  0  0  0  0  0  0
  159.6520  210.6060  153.4700 O   0  0  0  0  0  0  0  0  0  0  0  0
  158.6120  211.0710  155.9200 C   0  0  1  0  0  3  0  0  0  0  0  0
  159.0480  211.6910  157.2340 C   0  0  0  0  0  1  0  0  0  0  0  0
  156.8570  211.1540  154.1180 C   0  0  0  0  0  1  0  0  0  0  0  0
  157.5810  211.9550  155.1930 C   0  0  2  0  0  3  0  0  0  0  0  0
  158.4720  213.5210  152.3320 C   0  0  0  0  0  0  0  0  0  0  0  0
  158.7700  213.9840  155.7520 O   0  0  0  0  0  1  0  0  0  0  0  0
  159.4190  213.3890  151.1950 C   0  0  0  0  0  1  0  0  0  0  0  0
  156.8130  214.2860  154.4550 C   0  0  1  0  0  3  0  0  0  0  0  0
  157.1570  213.9340  152.0890 O   0  0  0  0  0  0  0  0  0  0  0  0
  158.0320  213.3770  154.7340 C   0  0  2  0  0  0  0  0  0  0  0  0
  156.1710  213.9330  153.1170 C   0  0  0  0  0  2  0  0  0  0  0  0
  158.8850  213.2860  153.5420 N   0  0  0  0  0  0  0  0  0  0  0  0
  155.8680  214.2060  155.4820 O   0  0  0  0  0  0  0  0  0  0  0  0
  154.6420  214.4510  154.8620 C   0  0  0  0  0  1  0  0  0  0  0  0
  1 14  1  0  0  0  0
  2 17  1  0  0  0  0
  4 38  1  0  0  0  0
  6  5  1  0  0  0  0
  7  8  1  6  0  0  0
  7 12  1  0  0  0  0
  8 10  1  0  0  0  0
  9 20  1  0  0  0  0
 10  6  2  0  0  0  0
 11 21  1  0  0  0  0
 11 23  1  0  0  0  0
 12  5  1  1  0  0  0
 12 24  1  0  0  0  0
 13 27  1  0  0  0  0
 15 13  2  0  0  0  0
 16 18  1  0  0  0  0
 16 25  1  6  0  0  0
 17  4  1  0  0  0  0
 18  7  1  0  0  0  0
 19  2  1  0  0  0  0
 20  3  2  0  0  0  0
 20 19  1  0  0  0  0
 21 28  1  0  0  0  0
 22  4  1  0  0  0  0
 23  1  1  6  0  0  0
 23 15  1  0  0  0  0
 24  9  1  0  0  0  0
 25 14  1  0  0  0  0
 26 22  3  0  0  0  0
 27 26  1  0  0  0  0
 28 13  1  0  0  0  0
 29 34  1  0  0  0  0
 30 32  2  0  0  0  0
 30 33  1  0  0  0  0
 32 31  1  0  0  0  0
 33 29  2  0  0  0  0
 34 31  1  6  0  0  0
 34 16  1  0  0  0  0
 35 37  1  1  0  0  0
 35 30  1  0  0  0  0
 36 35  2  0  0  0  0
 40 39  2  0  0  0  0
 40 38  1  0  0  0  0
 40 42  1  0  0  0  0
 41 40  2  0  0  0  0
 42 43  1  1  0  0  0
 45 44  1  6  0  0  0
 45 42  1  0  0  0  0
 46 53  2  0  0  0  0
 48 46  1  0  0  0  0
 49 51  1  0  0  0  0
 49 54  1  1  0  0  0
 50 46  1  0  0  0  0
 50 52  1  0  0  0  0
 51 45  1  0  0  0  0
 51 47  1  1  0  0  0
 52 49  1  0  0  0  0
 53 51  1  0  0  0  0
 55 54  1  0  0  0  0
M  END
>  <MODEL>
2

>  <REMARK>
 VINA RESULT:       3.8      0.989      1.823
  Name = 
  8 active torsions:
  status: ('A' for Active; 'I' for Inactive)
    1  A    between atoms: C_6  and  C_14
    2  A    between atoms: C_6  and  S_20
    3  A    between atoms: N_8  and  N_22
    4  A    between atoms: S_10  and  C_32
    5  A    between atoms: O_11  and  C_29
    6  A    between atoms: C_14  and  C_38
    7  A    between atoms: S_20  and  N_22
    8  A    between atoms: C_33  and  C_52
                            x       y       z     vdW  Elec       q    Type
                         _______ _______ _______ _____ _____    ______ ____

>  <TORSDO>
F 8

$$$$
