=
 OpenBabel11052422093D

 25 27  0  0  1  0  0  0  0  0999 V2000
  162.1860  206.3020  148.3540 C   0  0  2  0  0  3  0  0  0  0  0  0
  161.3920  205.6790  149.3960 N   0  0  1  0  0  0  0  0  0  0  0  0
  162.1970  208.6710  151.1810 O   0  0  0  0  0  1  0  0  0  0  0  0
  161.4680  207.8710  150.3020 C   0  0  1  0  0  3  0  0  0  0  0  0
  160.9950  205.7880  151.7410 C   0  0  0  0  0  0  0  0  0  0  0  0
  160.5560  206.4710  152.7030 O   0  0  0  0  0  0  0  0  0  0  0  0
  161.7690  204.3600  149.5820 O   0  0  0  0  0  0  0  0  0  0  0  0
  162.0810  208.1150  148.6000 S   0  0  0  0  0  0  0  0  0  0  0  0
  160.8910  204.3570  151.7520 N   0  0  0  0  0  0  0  0  0  0  0  0
  161.3050  203.6770  150.7190 C   0  0  0  0  0  0  0  0  0  0  0  0
  161.7310  206.4160  150.5960 C   0  0  1  0  0  3  0  0  0  0  0  0
  161.7040  205.9000  146.9900 C   0  0  0  0  0  0  0  0  0  0  0  0
  160.7060  205.2410  144.4520 C   0  0  0  0  0  3  0  0  0  0  0  0
  162.4560  205.0770  146.1230 C   0  0  0  0  0  0  0  0  0  0  0  0
  161.9510  204.7540  144.8590 C   0  0  0  0  0  3  0  0  0  0  0  0
  159.9600  206.0520  145.3090 C   0  0  0  0  0  3  0  0  0  0  0  0
  163.7290  204.5680  146.5090 N   0  0  0  0  0  1  0  0  0  0  0  0
  160.4580  206.3800  146.5720 C   0  0  0  0  0  3  0  0  0  0  0  0
  161.2620  202.1830  150.7270 C   0  0  0  0  0  2  0  0  0  0  0  0
  160.6510  201.5980  149.4490 C   0  0  1  0  0  3  0  0  0  0  0  0
  159.1350  201.6610  149.4900 C   0  0  0  0  0  1  0  0  0  0  0  0
  161.1680  202.2700  148.1800 C   0  0  0  0  0  2  0  0  0  0  0  0
  161.4740  200.0420  147.1010 O   0  0  0  0  0  1  0  0  0  0  0  0
  160.5460  201.7800  145.9300 O   0  0  0  0  0  0  0  0  0  0  0  0
  161.0500  201.3600  147.0040 C   0  0  0  0  0  0  0  0  0  0  0  0
  1 12  1  6  0  0  0
  1  8  1  0  0  0  0
  1  2  1  0  0  0  0
  2  7  1  1  0  0  0
  2 11  1  0  0  0  0
  4 11  1  0  0  0  0
  4  3  1  1  0  0  0
  5  9  1  0  0  0  0
  5  6  2  0  0  0  0
  7 10  1  0  0  0  0
  8  4  1  0  0  0  0
 10 19  1  0  0  0  0
 10  9  2  0  0  0  0
 11  5  1  1  0  0  0
 13 15  2  0  0  0  0
 13 16  1  0  0  0  0
 14 17  1  0  0  0  0
 14 12  2  0  0  0  0
 15 14  1  0  0  0  0
 16 18  2  0  0  0  0
 18 12  1  0  0  0  0
 20 21  1  1  0  0  0
 20 19  1  0  0  0  0
 22 20  1  0  0  0  0
 24 25  2  0  0  0  0
 25 23  1  0  0  0  0
 25 22  1  0  0  0  0
M  END
>  <MODEL>
1

>  <REMARK>
 VINA RESULT:      -7.8      0.000      0.000
  Name = 
  5 active torsions:
  status: ('A' for Active; 'I' for Inactive)
    1  A    between atoms: C_1  and  C_5
    2  A    between atoms: C_2  and  C_15
    3  A    between atoms: C_2  and  C_21
    4  A    between atoms: C_6  and  C_15
    5  A    between atoms: C_6  and  C_23
                            x       y       z     vdW  Elec       q    Type
                         _______ _______ _______ _____ _____    ______ ____

>  <TORSDO>
F 5

$$$$
=
 OpenBabel11052422093D

 25 27  0  0  1  0  0  0  0  0999 V2000
  160.7660  208.6120  151.7170 C   0  0  2  0  0  3  0  0  0  0  0  0
  161.3040  207.5070  150.9480 N   0  0  1  0  0  0  0  0  0  0  0  0
  162.0870  210.0970  148.6110 O   0  0  0  0  0  1  0  0  0  0  0  0
  162.2950  209.2790  149.7210 C   0  0  1  0  0  3  0  0  0  0  0  0
  161.9430  206.9300  148.7280 C   0  0  0  0  0  0  0  0  0  0  0  0
  162.7340  207.1440  147.7710 O   0  0  0  0  0  0  0  0  0  0  0  0
  160.4050  206.4550  150.8970 O   0  0  0  0  0  0  0  0  0  0  0  0
  161.6840  210.1180  151.2230 S   0  0  0  0  0  0  0  0  0  0  0  0
  161.4050  205.6190  148.9540 N   0  0  0  0  0  0  0  0  0  0  0  0
  160.6320  205.4130  149.9830 C   0  0  0  0  0  0  0  0  0  0  0  0
  161.4480  208.0370  149.6080 C   0  0  1  0  0  3  0  0  0  0  0  0
  160.8800  208.3540  153.1920 C   0  0  0  0  0  0  0  0  0  0  0  0
  161.1520  207.7540  155.9190 C   0  0  0  0  0  3  0  0  0  0  0  0
  160.6580  209.3540  154.1650 C   0  0  0  0  0  0  0  0  0  0  0  0
  160.7970  209.0460  155.5220 C   0  0  0  0  0  3  0  0  0  0  0  0
  161.3690  206.7640  154.9600 C   0  0  0  0  0  3  0  0  0  0  0  0
  160.2980  210.6800  153.7910 N   0  0  0  0  0  1  0  0  0  0  0  0
  161.2340  207.0640  153.6020 C   0  0  0  0  0  3  0  0  0  0  0  0
  160.0120  204.0720  150.2100 C   0  0  0  0  0  2  0  0  0  0  0  0
  161.0490  202.9520  150.3500 C   0  0  1  0  0  3  0  0  0  0  0  0
  161.4890  202.7920  151.7940 C   0  0  0  0  0  1  0  0  0  0  0  0
  160.5600  201.6150  149.8010 C   0  0  0  0  0  2  0  0  0  0  0  0
  161.1270  202.4190  147.5090 O   0  0  0  0  0  0  0  0  0  0  0  0
  161.5000  200.2350  148.0970 O   0  0  0  0  0  1  0  0  0  0  0  0
  161.0810  201.3760  148.4250 C   0  0  0  0  0  0  0  0  0  0  0  0
  1 12  1  1  0  0  0
  2  7  1  6  0  0  0
  2  1  1  0  0  0  0
  4  3  1  6  0  0  0
  4  8  1  0  0  0  0
  5  9  1  0  0  0  0
  6  5  2  0  0  0  0
  8  1  1  0  0  0  0
  9 10  2  0  0  0  0
 10 19  1  0  0  0  0
 10  7  1  0  0  0  0
 11  5  1  6  0  0  0
 11  4  1  0  0  0  0
 11  2  1  0  0  0  0
 12 18  2  0  0  0  0
 12 14  1  0  0  0  0
 14 15  2  0  0  0  0
 15 13  1  0  0  0  0
 16 13  2  0  0  0  0
 17 14  1  0  0  0  0
 18 16  1  0  0  0  0
 19 20  1  0  0  0  0
 20 21  1  1  0  0  0
 22 20  1  0  0  0  0
 23 25  2  0  0  0  0
 24 25  1  0  0  0  0
 25 22  1  0  0  0  0
M  END
>  <MODEL>
2

>  <REMARK>
 VINA RESULT:      -6.8      2.787      5.671
  Name = 
  5 active torsions:
  status: ('A' for Active; 'I' for Inactive)
    1  A    between atoms: C_1  and  C_5
    2  A    between atoms: C_2  and  C_15
    3  A    between atoms: C_2  and  C_21
    4  A    between atoms: C_6  and  C_15
    5  A    between atoms: C_6  and  C_23
                            x       y       z     vdW  Elec       q    Type
                         _______ _______ _______ _____ _____    ______ ____

>  <TORSDO>
F 5

$$$$
=
 OpenBabel11052422093D

 25 27  0  0  1  0  0  0  0  0999 V2000
  160.6470  205.2290  150.3420 C   0  0  2  0  0  3  0  0  0  0  0  0
  161.2910  205.8880  149.2230 N   0  0  1  0  0  0  0  0  0  0  0  0
  161.6940  208.5380  151.5880 O   0  0  0  0  0  1  0  0  0  0  0  0
  162.0290  207.3510  150.9380 C   0  0  1  0  0  3  0  0  0  0  0  0
  161.9330  208.0510  148.4630 C   0  0  0  0  0  0  0  0  0  0  0  0
  162.6660  209.0580  148.6500 O   0  0  0  0  0  0  0  0  0  0  0  0
  160.5240  205.7800  148.0760 O   0  0  0  0  0  0  0  0  0  0  0  0
  161.3640  205.9320  151.8740 S   0  0  0  0  0  0  0  0  0  0  0  0
  161.5620  207.6530  147.1340 N   0  0  0  0  0  0  0  0  0  0  0  0
  160.8490  206.5760  146.9650 C   0  0  0  0  0  0  0  0  0  0  0  0
  161.3340  207.2850  149.6020 C   0  0  1  0  0  3  0  0  0  0  0  0
  160.8320  203.7410  150.2760 C   0  0  0  0  0  0  0  0  0  0  0  0
  161.2050  200.9720  150.0240 C   0  0  0  0  0  3  0  0  0  0  0  0
  160.9230  202.9280  151.4290 C   0  0  0  0  0  0  0  0  0  0  0  0
  161.1100  201.5490  151.2930 C   0  0  0  0  0  3  0  0  0  0  0  0
  161.1130  201.7720  148.8840 C   0  0  0  0  0  3  0  0  0  0  0  0
  160.8320  203.4880  152.7350 N   0  0  0  0  0  1  0  0  0  0  0  0
  160.9270  203.1510  149.0120 C   0  0  0  0  0  3  0  0  0  0  0  0
  160.3990  206.1710  145.5980 C   0  0  0  0  0  2  0  0  0  0  0  0
  161.2510  205.0450  145.0010 C   0  0  1  0  0  3  0  0  0  0  0  0
  162.7060  205.4630  144.8850 C   0  0  0  0  0  1  0  0  0  0  0  0
  161.1440  203.7380  145.7820 C   0  0  0  0  0  2  0  0  0  0  0  0
  159.3540  203.1820  144.1360 O   0  0  0  0  0  0  0  0  0  0  0  0
  160.4550  201.5150  145.2600 O   0  0  0  0  0  1  0  0  0  0  0  0
  160.2990  202.7460  145.0560 C   0  0  0  0  0  0  0  0  0  0  0  0
  1 12  1  6  0  0  0
  1  8  1  0  0  0  0
  2  7  1  6  0  0  0
  2 11  1  0  0  0  0
  2  1  1  0  0  0  0
  4  3  1  1  0  0  0
  4  8  1  0  0  0  0
  5  6  2  0  0  0  0
  9  5  1  0  0  0  0
 10  9  2  0  0  0  0
 10  7  1  0  0  0  0
 11  5  1  6  0  0  0
 11  4  1  0  0  0  0
 12 14  1  0  0  0  0
 13 15  1  0  0  0  0
 14 17  1  0  0  0  0
 15 14  2  0  0  0  0
 16 18  1  0  0  0  0
 16 13  2  0  0  0  0
 18 12  2  0  0  0  0
 19 10  1  0  0  0  0
 20 21  1  1  0  0  0
 20 19  1  0  0  0  0
 20 22  1  0  0  0  0
 23 25  2  0  0  0  0
 25 24  1  0  0  0  0
 25 22  1  0  0  0  0
M  END
>  <MODEL>
3

>  <REMARK>
 VINA RESULT:      -6.5      1.736      4.666
  Name = 
  5 active torsions:
  status: ('A' for Active; 'I' for Inactive)
    1  A    between atoms: C_1  and  C_5
    2  A    between atoms: C_2  and  C_15
    3  A    between atoms: C_2  and  C_21
    4  A    between atoms: C_6  and  C_15
    5  A    between atoms: C_6  and  C_23
                            x       y       z     vdW  Elec       q    Type
                         _______ _______ _______ _____ _____    ______ ____

>  <TORSDO>
F 5

$$$$
=
 OpenBabel11052422093D

 25 27  0  0  1  0  0  0  0  0999 V2000
  161.5320  209.3430  152.7060 C   0  0  2  0  0  3  0  0  0  0  0  0
  161.3140  209.2810  151.2740 N   0  0  1  0  0  0  0  0  0  0  0  0
  162.0410  205.8150  151.7640 O   0  0  0  0  0  1  0  0  0  0  0  0
  161.2360  206.9520  151.7240 C   0  0  1  0  0  3  0  0  0  0  0  0
  161.7630  207.8980  149.3880 C   0  0  0  0  0  0  0  0  0  0  0  0
  161.5600  206.7920  148.8210 O   0  0  0  0  0  0  0  0  0  0  0  0
  162.0040  210.2880  150.6230 O   0  0  0  0  0  0  0  0  0  0  0  0
  161.1360  207.6900  153.3900 S   0  0  0  0  0  0  0  0  0  0  0  0
  161.9790  209.0880  148.6150 N   0  0  0  0  0  0  0  0  0  0  0  0
  162.1320  210.2290  149.2250 C   0  0  0  0  0  0  0  0  0  0  0  0
  161.8910  208.0130  150.8770 C   0  0  1  0  0  3  0  0  0  0  0  0
  160.6940  210.4180  153.3360 C   0  0  0  0  0  0  0  0  0  0  0  0
  159.0290  212.3940  154.4310 C   0  0  0  0  0  3  0  0  0  0  0  0
  161.0550  211.0650  154.5390 C   0  0  0  0  0  0  0  0  0  0  0  0
  160.2180  212.0480  155.0780 C   0  0  0  0  0  3  0  0  0  0  0  0
  158.6720  211.7580  153.2400 C   0  0  0  0  0  3  0  0  0  0  0  0
  162.2590  210.7330  155.2230 N   0  0  0  0  0  1  0  0  0  0  0  0
  159.5020  210.7740  152.6970 C   0  0  0  0  0  3  0  0  0  0  0  0
  162.4160  211.4740  148.4480 C   0  0  0  0  0  2  0  0  0  0  0  0
  161.1530  212.2880  148.1460 C   0  0  1  0  0  3  0  0  0  0  0  0
  160.9870  213.4270  149.1350 C   0  0  0  0  0  1  0  0  0  0  0  0
  161.1170  212.8260  146.7180 C   0  0  0  0  0  2  0  0  0  0  0  0
  158.6360  212.5770  146.6810 O   0  0  0  0  0  1  0  0  0  0  0  0
  159.8860  212.0030  144.8480 O   0  0  0  0  0  0  0  0  0  0  0  0
  159.8530  212.4370  146.0290 C   0  0  0  0  0  0  0  0  0  0  0  0
  1 12  1  1  0  0  0
  1  8  1  0  0  0  0
  2  7  1  6  0  0  0
  2  1  1  0  0  0  0
  4  3  1  1  0  0  0
  4  8  1  0  0  0  0
  6  5  2  0  0  0  0
  9 10  2  0  0  0  0
  9  5  1  0  0  0  0
 10  7  1  0  0  0  0
 11  5  1  6  0  0  0
 11  2  1  0  0  0  0
 11  4  1  0  0  0  0
 12 14  1  0  0  0  0
 13 15  1  0  0  0  0
 14 15  2  0  0  0  0
 14 17  1  0  0  0  0
 16 13  2  0  0  0  0
 18 16  1  0  0  0  0
 18 12  2  0  0  0  0
 19 10  1  0  0  0  0
 20 19  1  0  0  0  0
 20 21  1  1  0  0  0
 22 20  1  0  0  0  0
 24 25  2  0  0  0  0
 25 23  1  0  0  0  0
 25 22  1  0  0  0  0
M  END
>  <MODEL>
4

>  <REMARK>
 VINA RESULT:      -6.5      4.782      8.584
  Name = 
  5 active torsions:
  status: ('A' for Active; 'I' for Inactive)
    1  A    between atoms: C_1  and  C_5
    2  A    between atoms: C_2  and  C_15
    3  A    between atoms: C_2  and  C_21
    4  A    between atoms: C_6  and  C_15
    5  A    between atoms: C_6  and  C_23
                            x       y       z     vdW  Elec       q    Type
                         _______ _______ _______ _____ _____    ______ ____

>  <TORSDO>
F 5

$$$$
=
 OpenBabel11052422093D

 25 27  0  0  1  0  0  0  0  0999 V2000
  162.0750  206.0080  149.6790 C   0  0  2  0  0  3  0  0  0  0  0  0
  161.3630  206.7920  150.6700 N   0  0  1  0  0  0  0  0  0  0  0  0
  162.3670  209.5170  148.5850 O   0  0  0  0  0  1  0  0  0  0  0  0
  161.5520  208.4640  148.9960 C   0  0  1  0  0  3  0  0  0  0  0  0
  161.1690  209.0220  151.4800 C   0  0  0  0  0  0  0  0  0  0  0  0
  160.8240  210.2070  151.2290 O   0  0  0  0  0  0  0  0  0  0  0  0
  161.7320  206.4230  151.9520 O   0  0  0  0  0  0  0  0  0  0  0  0
  162.0220  206.9420  148.1040 S   0  0  0  0  0  0  0  0  0  0  0  0
  161.0420  208.4890  152.8070 N   0  0  0  0  0  0  0  0  0  0  0  0
  161.3550  207.2430  153.0280 C   0  0  0  0  0  0  0  0  0  0  0  0
  161.8150  208.1500  150.4470 C   0  0  1  0  0  3  0  0  0  0  0  0
  161.4720  204.6410  149.5320 C   0  0  0  0  0  0  0  0  0  0  0  0
  160.2870  202.1020  149.3770 C   0  0  0  0  0  3  0  0  0  0  0  0
  161.4860  203.9240  148.3150 C   0  0  0  0  0  0  0  0  0  0  0  0
  160.8920  202.6600  148.2470 C   0  0  0  0  0  3  0  0  0  0  0  0
  160.2760  202.8080  150.5820 C   0  0  0  0  0  3  0  0  0  0  0  0
  162.0910  204.4670  147.1460 N   0  0  0  0  0  1  0  0  0  0  0  0
  160.8660  204.0720  150.6570 C   0  0  0  0  0  3  0  0  0  0  0  0
  161.2880  206.6780  154.4110 C   0  0  0  0  0  2  0  0  0  0  0  0
  160.7230  207.6710  155.4330 C   0  0  1  0  0  3  0  0  0  0  0  0
  159.5530  207.0710  156.1900 C   0  0  0  0  0  1  0  0  0  0  0  0
  161.7760  208.1780  156.4150 C   0  0  0  0  0  2  0  0  0  0  0  0
  161.0450  210.4270  155.6220 O   0  0  0  0  0  0  0  0  0  0  0  0
  163.0540  210.1720  156.6960 O   0  0  0  0  0  1  0  0  0  0  0  0
  162.0040  209.6430  156.2490 C   0  0  0  0  0  0  0  0  0  0  0  0
  1 12  1  6  0  0  0
  1  2  1  0  0  0  0
  2  7  1  1  0  0  0
  4  3  1  6  0  0  0
  4 11  1  0  0  0  0
  5  9  1  0  0  0  0
  6  5  2  0  0  0  0
  7 10  1  0  0  0  0
  8  4  1  0  0  0  0
  8  1  1  0  0  0  0
  9 10  2  0  0  0  0
 10 19  1  0  0  0  0
 11  2  1  0  0  0  0
 11  5  1  1  0  0  0
 12 18  1  0  0  0  0
 13 16  1  0  0  0  0
 14 12  2  0  0  0  0
 15 14  1  0  0  0  0
 15 13  2  0  0  0  0
 16 18  2  0  0  0  0
 17 14  1  0  0  0  0
 19 20  1  0  0  0  0
 20 21  1  1  0  0  0
 20 22  1  0  0  0  0
 23 25  2  0  0  0  0
 25 22  1  0  0  0  0
 25 24  1  0  0  0  0
M  END
>  <MODEL>
5

>  <REMARK>
 VINA RESULT:      -6.5      3.083      6.432
  Name = 
  5 active torsions:
  status: ('A' for Active; 'I' for Inactive)
    1  A    between atoms: C_1  and  C_5
    2  A    between atoms: C_2  and  C_15
    3  A    between atoms: C_2  and  C_21
    4  A    between atoms: C_6  and  C_15
    5  A    between atoms: C_6  and  C_23
                            x       y       z     vdW  Elec       q    Type
                         _______ _______ _______ _____ _____    ______ ____

>  <TORSDO>
F 5

$$$$
=
 OpenBabel11052422093D

 25 27  0  0  1  0  0  0  0  0999 V2000
  161.9050  206.1560  151.4650 C   0  0  2  0  0  3  0  0  0  0  0  0
  161.1960  205.5610  150.3490 N   0  0  1  0  0  0  0  0  0  0  0  0
  161.3570  202.6270  152.3860 O   0  0  0  0  0  1  0  0  0  0  0  0
  160.8260  203.8340  151.9340 C   0  0  1  0  0  3  0  0  0  0  0  0
  160.6860  203.4400  149.3940 C   0  0  0  0  0  0  0  0  0  0  0  0
  160.0870  202.3410  149.5300 O   0  0  0  0  0  0  0  0  0  0  0  0
  161.8020  205.8880  149.1470 O   0  0  0  0  0  0  0  0  0  0  0  0
  161.4560  205.2030  152.9650 S   0  0  0  0  0  0  0  0  0  0  0  0
  160.8480  204.0290  148.0940 N   0  0  0  0  0  0  0  0  0  0  0  0
  161.4240  205.1930  147.9860 C   0  0  0  0  0  0  0  0  0  0  0  0
  161.3410  204.1340  150.5490 C   0  0  1  0  0  3  0  0  0  0  0  0
  161.5640  207.6110  151.6110 C   0  0  0  0  0  0  0  0  0  0  0  0
  160.8890  210.3050  152.0110 C   0  0  0  0  0  3  0  0  0  0  0  0
  161.9600  208.5890  150.6720 C   0  0  0  0  0  0  0  0  0  0  0  0
  161.6190  209.9300  150.8800 C   0  0  0  0  0  3  0  0  0  0  0  0
  160.4940  209.3390  152.9380 C   0  0  0  0  0  3  0  0  0  0  0  0
  162.7070  208.2380  149.5120 N   0  0  0  0  0  1  0  0  0  0  0  0
  160.8320  207.9980  152.7380 C   0  0  0  0  0  3  0  0  0  0  0  0
  161.6580  205.8020  146.6420 C   0  0  0  0  0  2  0  0  0  0  0  0
  161.0920  204.9530  145.4970 C   0  0  1  0  0  3  0  0  0  0  0  0
  161.2030  205.6810  144.1700 C   0  0  0  0  0  1  0  0  0  0  0  0
  161.7480  203.5780  145.3950 C   0  0  0  0  0  2  0  0  0  0  0  0
  160.8310  201.3640  146.0850 O   0  0  0  0  0  1  0  0  0  0  0  0
  159.7460  202.6280  144.5110 O   0  0  0  0  0  0  0  0  0  0  0  0
  160.7220  202.5000  145.2950 C   0  0  0  0  0  0  0  0  0  0  0  0
  1 12  1  1  0  0  0
  1  8  1  0  0  0  0
  2  7  1  6  0  0  0
  2 11  1  0  0  0  0
  2  1  1  0  0  0  0
  4  3  1  1  0  0  0
  4  8  1  0  0  0  0
  5  6  2  0  0  0  0
  9  5  1  0  0  0  0
 10  9  2  0  0  0  0
 10  7  1  0  0  0  0
 11  5  1  6  0  0  0
 11  4  1  0  0  0  0
 12 18  1  0  0  0  0
 13 16  1  0  0  0  0
 14 15  1  0  0  0  0
 14 12  2  0  0  0  0
 15 13  2  0  0  0  0
 17 14  1  0  0  0  0
 18 16  2  0  0  0  0
 19 10  1  0  0  0  0
 20 21  1  6  0  0  0
 20 19  1  0  0  0  0
 22 20  1  0  0  0  0
 24 25  2  0  0  0  0
 25 22  1  0  0  0  0
 25 23  1  0  0  0  0
M  END
>  <MODEL>
6

>  <REMARK>
 VINA RESULT:      -6.4      2.125      5.020
  Name = 
  5 active torsions:
  status: ('A' for Active; 'I' for Inactive)
    1  A    between atoms: C_1  and  C_5
    2  A    between atoms: C_2  and  C_15
    3  A    between atoms: C_2  and  C_21
    4  A    between atoms: C_6  and  C_15
    5  A    between atoms: C_6  and  C_23
                            x       y       z     vdW  Elec       q    Type
                         _______ _______ _______ _____ _____    ______ ____

>  <TORSDO>
F 5

$$$$
=
 OpenBabel11052422093D

 25 27  0  0  1  0  0  0  0  0999 V2000
  161.4040  208.6210  152.2420 C   0  0  2  0  0  3  0  0  0  0  0  0
  160.8430  207.6380  151.3350 N   0  0  1  0  0  0  0  0  0  0  0  0
  161.5740  205.3960  154.0230 O   0  0  0  0  0  1  0  0  0  0  0  0
  160.8140  206.3220  153.3100 C   0  0  1  0  0  3  0  0  0  0  0  0
  160.7850  205.2890  150.9520 C   0  0  0  0  0  0  0  0  0  0  0  0
  160.4200  204.1610  151.3790 O   0  0  0  0  0  0  0  0  0  0  0  0
  161.3830  207.7700  150.0680 O   0  0  0  0  0  0  0  0  0  0  0  0
  161.1410  208.0010  153.9470 S   0  0  0  0  0  0  0  0  0  0  0  0
  160.8380  205.5550  149.5430 N   0  0  0  0  0  0  0  0  0  0  0  0
  161.1670  206.7470  149.1290 C   0  0  0  0  0  0  0  0  0  0  0  0
  161.2730  206.3640  151.8740 C   0  0  1  0  0  3  0  0  0  0  0  0
  160.7730  209.9680  152.0400 C   0  0  0  0  0  0  0  0  0  0  0  0
  159.5240  212.4670  151.7750 C   0  0  0  0  0  3  0  0  0  0  0  0
  161.2540  210.9070  151.1000 C   0  0  0  0  0  0  0  0  0  0  0  0
  160.6260  212.1500  150.9750 C   0  0  0  0  0  3  0  0  0  0  0  0
  159.0460  211.5400  152.7020 C   0  0  0  0  0  3  0  0  0  0  0  0
  162.3760  210.6140  150.2730 N   0  0  0  0  0  1  0  0  0  0  0  0
  159.6690  210.2960  152.8340 C   0  0  0  0  0  3  0  0  0  0  0  0
  161.2870  207.0370  147.6670 C   0  0  0  0  0  2  0  0  0  0  0  0
  160.8720  205.8500  146.7900 C   0  0  1  0  0  3  0  0  0  0  0  0
  160.3320  206.3220  145.4520 C   0  0  0  0  0  1  0  0  0  0  0  0
  162.0010  204.8460  146.5730 C   0  0  0  0  0  2  0  0  0  0  0  0
  161.1350  202.7660  145.5020 O   0  0  0  0  0  0  0  0  0  0  0  0
  161.4200  202.8690  147.7740 O   0  0  0  0  0  1  0  0  0  0  0  0
  161.4970  203.4450  146.6580 C   0  0  0  0  0  0  0  0  0  0  0  0
  1 12  1  1  0  0  0
  1  8  1  0  0  0  0
  2  7  1  6  0  0  0
  2 11  1  0  0  0  0
  2  1  1  0  0  0  0
  4  8  1  0  0  0  0
  4  3  1  1  0  0  0
  5  6  2  0  0  0  0
  9  5  1  0  0  0  0
 10  9  2  0  0  0  0
 10  7  1  0  0  0  0
 11  5  1  6  0  0  0
 11  4  1  0  0  0  0
 12 18  1  0  0  0  0
 13 16  1  0  0  0  0
 14 12  2  0  0  0  0
 15 14  1  0  0  0  0
 15 13  2  0  0  0  0
 16 18  2  0  0  0  0
 17 14  1  0  0  0  0
 19 10  1  0  0  0  0
 20 21  1  6  0  0  0
 20 19  1  0  0  0  0
 22 25  1  0  0  0  0
 22 20  1  0  0  0  0
 23 25  2  0  0  0  0
 25 24  1  0  0  0  0
M  END
>  <MODEL>
7

>  <REMARK>
 VINA RESULT:      -6.2      2.860      5.495
  Name = 
  5 active torsions:
  status: ('A' for Active; 'I' for Inactive)
    1  A    between atoms: C_1  and  C_5
    2  A    between atoms: C_2  and  C_15
    3  A    between atoms: C_2  and  C_21
    4  A    between atoms: C_6  and  C_15
    5  A    between atoms: C_6  and  C_23
                            x       y       z     vdW  Elec       q    Type
                         _______ _______ _______ _____ _____    ______ ____

>  <TORSDO>
F 5

$$$$
=
 OpenBabel11052422093D

 25 27  0  0  1  0  0  0  0  0999 V2000
  160.9590  206.5760  149.7550 C   0  0  2  0  0  3  0  0  0  0  0  0
  161.7620  207.7750  149.8890 N   0  0  1  0  0  0  0  0  0  0  0  0
  161.0860  207.3030  153.3680 O   0  0  0  0  0  1  0  0  0  0  0  0
  161.7700  207.1140  152.1680 C   0  0  1  0  0  3  0  0  0  0  0  0
  162.2230  209.5370  151.4240 C   0  0  0  0  0  0  0  0  0  0  0  0
  162.7060  209.8600  152.5410 O   0  0  0  0  0  0  0  0  0  0  0  0
  161.3550  208.7460  148.9910 O   0  0  0  0  0  0  0  0  0  0  0  0
  161.1190  205.6350  151.3190 S   0  0  0  0  0  0  0  0  0  0  0  0
  162.2880  210.4390  150.3090 N   0  0  0  0  0  0  0  0  0  0  0  0
  161.8300  210.0590  149.1500 C   0  0  0  0  0  0  0  0  0  0  0  0
  161.4750  208.2530  151.2260 C   0  0  1  0  0  3  0  0  0  0  0  0
  161.3930  205.7600  148.5720 C   0  0  0  0  0  0  0  0  0  0  0  0
  162.2750  204.3420  146.3170 C   0  0  0  0  0  3  0  0  0  0  0  0
  161.2060  204.3620  148.4940 C   0  0  0  0  0  0  0  0  0  0  0  0
  161.6500  203.6630  147.3660 C   0  0  0  0  0  3  0  0  0  0  0  0
  162.4580  205.7240  146.3910 C   0  0  0  0  0  3  0  0  0  0  0  0
  160.5750  203.6420  149.5480 N   0  0  0  0  0  1  0  0  0  0  0  0
  162.0190  206.4290  147.5150 C   0  0  0  0  0  3  0  0  0  0  0  0
  161.8320  210.9990  147.9880 C   0  0  0  0  0  2  0  0  0  0  0  0
  161.8470  212.4720  148.4130 C   0  0  1  0  0  3  0  0  0  0  0  0
  163.0810  213.1810  147.8850 C   0  0  0  0  0  1  0  0  0  0  0  0
  160.5900  213.2270  147.9920 C   0  0  0  0  0  2  0  0  0  0  0  0
  160.0850  213.1610  150.4340 O   0  0  0  0  0  1  0  0  0  0  0  0
  158.4490  213.7100  148.9250 O   0  0  0  0  0  0  0  0  0  0  0  0
  159.6430  213.3740  149.1340 C   0  0  0  0  0  0  0  0  0  0  0  0
  1 12  1  6  0  0  0
  1  2  1  0  0  0  0
  1  8  1  0  0  0  0
  2  7  1  6  0  0  0
  2 11  1  0  0  0  0
  4  3  1  1  0  0  0
  5  6  2  0  0  0  0
  7 10  1  0  0  0  0
  8  4  1  0  0  0  0
  9  5  1  0  0  0  0
 10  9  2  0  0  0  0
 11  5  1  1  0  0  0
 11  4  1  0  0  0  0
 13 16  2  0  0  0  0
 13 15  1  0  0  0  0
 14 12  1  0  0  0  0
 14 17  1  0  0  0  0
 15 14  2  0  0  0  0
 16 18  1  0  0  0  0
 18 12  2  0  0  0  0
 19 20  1  0  0  0  0
 19 10  1  0  0  0  0
 20 21  1  6  0  0  0
 22 20  1  0  0  0  0
 22 25  1  0  0  0  0
 24 25  2  0  0  0  0
 25 23  1  0  0  0  0
M  END
>  <MODEL>
8

>  <REMARK>
 VINA RESULT:      -6.1      3.469      6.927
  Name = 
  5 active torsions:
  status: ('A' for Active; 'I' for Inactive)
    1  A    between atoms: C_1  and  C_5
    2  A    between atoms: C_2  and  C_15
    3  A    between atoms: C_2  and  C_21
    4  A    between atoms: C_6  and  C_15
    5  A    between atoms: C_6  and  C_23
                            x       y       z     vdW  Elec       q    Type
                         _______ _______ _______ _____ _____    ______ ____

>  <TORSDO>
F 5

$$$$
=
 OpenBabel11052422093D

 25 27  0  0  1  0  0  0  0  0999 V2000
  160.0510  209.6130  153.6770 C   0  0  2  0  0  3  0  0  0  0  0  0
  161.0630  209.5000  152.6450 N   0  0  1  0  0  0  0  0  0  0  0  0
  159.7550  212.6730  151.6420 O   0  0  0  0  0  1  0  0  0  0  0  0
  160.5650  211.8040  152.3720 C   0  0  1  0  0  3  0  0  0  0  0  0
  161.6420  210.3870  150.5120 C   0  0  0  0  0  0  0  0  0  0  0  0
  162.0000  211.4000  149.8550 O   0  0  0  0  0  0  0  0  0  0  0  0
  161.0230  208.2520  152.0470 O   0  0  0  0  0  0  0  0  0  0  0  0
  159.7540  211.3990  153.9560 S   0  0  0  0  0  0  0  0  0  0  0  0
  162.0780  209.0740  150.1270 N   0  0  0  0  0  0  0  0  0  0  0  0
  161.7390  208.0480  150.8560 C   0  0  0  0  0  0  0  0  0  0  0  0
  160.6760  210.4830  151.6540 C   0  0  1  0  0  3  0  0  0  0  0  0
  160.4830  208.9200  154.9380 C   0  0  0  0  0  0  0  0  0  0  0  0
  161.2100  207.5240  157.2610 C   0  0  0  0  0  3  0  0  0  0  0  0
  161.5660  209.3690  155.7270 C   0  0  0  0  0  0  0  0  0  0  0  0
  161.9220  208.6650  156.8820 C   0  0  0  0  0  3  0  0  0  0  0  0
  160.1370  207.0810  156.4840 C   0  0  0  0  0  3  0  0  0  0  0  0
  162.3120  210.5270  155.3660 N   0  0  0  0  0  1  0  0  0  0  0  0
  159.7770  207.7770  155.3280 C   0  0  0  0  0  3  0  0  0  0  0  0
  162.1290  206.6640  150.4460 C   0  0  0  0  0  2  0  0  0  0  0  0
  160.9290  205.8070  150.0280 C   0  0  1  0  0  3  0  0  0  0  0  0
  160.4370  206.1910  148.6440 C   0  0  0  0  0  1  0  0  0  0  0  0
  161.2180  204.3090  150.0830 C   0  0  0  0  0  2  0  0  0  0  0  0
  160.8020  204.6550  152.5180 O   0  0  0  0  0  1  0  0  0  0  0  0
  161.4550  202.6030  151.7320 O   0  0  0  0  0  0  0  0  0  0  0  0
  161.1750  203.8040  151.4850 C   0  0  0  0  0  0  0  0  0  0  0  0
  1  8  1  0  0  0  0
  1 12  1  1  0  0  0
  2  7  1  6  0  0  0
  2  1  1  0  0  0  0
  4  3  1  6  0  0  0
  4  8  1  0  0  0  0
  6  5  2  0  0  0  0
  9  5  1  0  0  0  0
  9 10  2  0  0  0  0
 10  7  1  0  0  0  0
 11  5  1  6  0  0  0
 11  4  1  0  0  0  0
 11  2  1  0  0  0  0
 12 18  2  0  0  0  0
 12 14  1  0  0  0  0
 14 15  2  0  0  0  0
 15 13  1  0  0  0  0
 16 13  2  0  0  0  0
 17 14  1  0  0  0  0
 18 16  1  0  0  0  0
 19 10  1  0  0  0  0
 20 21  1  6  0  0  0
 20 22  1  0  0  0  0
 20 19  1  0  0  0  0
 22 25  1  0  0  0  0
 25 24  2  0  0  0  0
 25 23  1  0  0  0  0
M  END
>  <MODEL>
9

>  <REMARK>
 VINA RESULT:      -6.1      4.008      7.261
  Name = 
  5 active torsions:
  status: ('A' for Active; 'I' for Inactive)
    1  A    between atoms: C_1  and  C_5
    2  A    between atoms: C_2  and  C_15
    3  A    between atoms: C_2  and  C_21
    4  A    between atoms: C_6  and  C_15
    5  A    between atoms: C_6  and  C_23
                            x       y       z     vdW  Elec       q    Type
                         _______ _______ _______ _____ _____    ______ ____

>  <TORSDO>
F 5

$$$$
