=
 OpenBabel11062409303D

 34 38  0  0  1  0  0  0  0  0999 V2000
  160.1770  209.6170  153.8730 C   0  0  1  0  0  3  0  0  0  0  0  0
  158.9330  212.7180  155.9660 C   0  0  0  0  0  2  0  0  0  0  0  0
  156.5810  213.8120  154.0300 C   0  0  0  0  0  0  0  0  0  0  0  0
  159.2510  210.3240  156.6180 C   0  0  0  0  0  2  0  0  0  0  0  0
  162.4680  207.7480  155.7520 F   0  0  0  0  0  0  0  0  0  0  0  0
  161.1290  207.7960  155.4110 C   0  0  2  0  0  0  0  0  0  0  0  0
  156.1590  214.4530  155.1880 O   0  0  0  0  0  1  0  0  0  0  0  0
  160.8040  206.8110  154.2880 C   0  0  0  0  0  1  0  0  0  0  0  0
  159.5410  209.0040  155.9740 C   0  0  1  0  0  3  0  0  0  0  0  0
  160.7090  209.1730  155.1550 N   0  0  2  0  0  0  0  0  0  0  0  0
  160.0610  207.5190  156.8760 S   0  0  0  0  0  0  0  0  0  0  0  0
  158.9510  213.7890  154.8740 C   0  0  0  0  0  2  0  0  0  0  0  0
  155.7330  213.5080  153.1490 O   0  0  0  0  0  0  0  0  0  0  0  0
  157.9680  213.5030  153.8380 N   0  0  0  0  0  0  0  0  0  0  0  0
  158.4250  212.7930  152.6520 C   0  0  0  0  0  2  0  0  0  0  0  0
  158.8500  211.2710  155.4620 C   0  0  2  0  0  3  0  0  0  0  0  0
  158.5720  211.3040  152.9430 C   0  0  0  0  0  2  0  0  0  0  0  0
  159.5640  211.0350  154.0740 C   0  0  2  0  0  3  0  0  0  0  0  0
  161.2020  208.9470  151.7190 C   0  0  0  0  0  3  0  0  0  0  0  0
  161.2650  209.6730  152.8360 C   0  0  0  0  0  3  0  0  0  0  0  0
  162.3230  208.9860  150.7280 C   0  0  1  0  0  3  0  0  0  0  0  0
  162.4750  207.7020  149.9020 C   0  0  2  0  0  3  0  0  0  0  0  0
  161.7580  208.9050  149.3250 C   0  0  0  0  0  2  0  0  0  0  0  0
  161.5030  206.6770  150.2680 N   0  0  0  0  0  2  0  0  0  0  0  0
  160.7300  204.2170  151.8730 C   0  0  0  0  0  1  0  0  0  0  0  0
  161.1190  202.8890  148.3650 C   0  0  0  0  0  0  0  0  0  0  0  0
  160.8920  202.9870  149.7430 C   0  0  0  0  0  3  0  0  0  0  0  0
  161.0060  204.2110  150.4090 C   0  0  0  0  0  0  0  0  0  0  0  0
  161.5800  205.2700  148.3040 C   0  0  0  0  0  3  0  0  0  0  0  0
  161.3580  205.3750  149.6800 C   0  0  0  0  0  0  0  0  0  0  0  0
  161.4630  204.0430  147.6490 C   0  0  0  0  0  3  0  0  0  0  0  0
  160.9970  201.6200  147.7030 N   0  0  0  0  0  0  0  0  0  0  0  0
  160.5940  201.5260  146.3080 C   0  0  0  0  0  1  0  0  0  0  0  0
  161.2570  200.4740  148.3770 O   0  0  0  0  0  1  0  0  0  0  0  0
  1 20  1  6  0  0  0
  1 18  1  0  0  0  0
  1 10  1  0  0  0  0
  3  7  1  0  0  0  0
  6  8  1  6  0  0  0
  6  5  1  0  0  0  0
  6 11  1  0  0  0  0
  9  4  1  1  0  0  0
  9 11  1  0  0  0  0
 10  6  1  0  0  0  0
 10  9  1  0  0  0  0
 12  2  1  0  0  0  0
 13  3  2  0  0  0  0
 14  3  1  0  0  0  0
 14 12  1  0  0  0  0
 15 17  1  0  0  0  0
 15 14  1  0  0  0  0
 16  2  1  0  0  0  0
 16  4  1  0  0  0  0
 17 18  1  0  0  0  0
 18 16  1  0  0  0  0
 19 20  2  0  0  0  0
 21 19  1  0  0  0  0
 22 24  1  0  0  0  0
 22 21  1  0  0  0  0
 23 22  1  0  0  0  0
 23 21  1  0  0  0  0
 26 27  1  0  0  0  0
 27 28  2  0  0  0  0
 28 25  1  0  0  0  0
 29 30  2  0  0  0  0
 30 24  1  0  0  0  0
 30 28  1  0  0  0  0
 31 29  1  0  0  0  0
 31 26  2  0  0  0  0
 32 26  1  0  0  0  0
 32 34  1  0  0  0  0
 33 32  1  0  0  0  0
M  END
>  <MODEL>
1

>  <REMARK>
 VINA RESULT:      -9.0      0.000      0.000
  Name = 
  5 active torsions:
  status: ('A' for Active; 'I' for Inactive)
    1  A    between atoms: C_1  and  C_9
    2  A    between atoms: N_6  and  C_28
    3  A    between atoms: N_6  and  C_30
    4  A    between atoms: C_7  and  N_11
    5  A    between atoms: C_8  and  C_18
                            x       y       z     vdW  Elec       q    Type
                         _______ _______ _______ _____ _____    ______ ____

>  <TORSDO>
F 5

$$$$
=
 OpenBabel11062409303D

 34 38  0  0  1  0  0  0  0  0999 V2000
  160.2680  209.6020  153.8580 C   0  0  1  0  0  3  0  0  0  0  0  0
  159.0230  212.6360  156.0460 C   0  0  0  0  0  2  0  0  0  0  0  0
  156.7430  213.8520  154.0960 C   0  0  0  0  0  0  0  0  0  0  0  0
  159.2820  210.2120  156.6050 C   0  0  0  0  0  2  0  0  0  0  0  0
  162.4750  207.6140  155.7160 F   0  0  0  0  0  0  0  0  0  0  0  0
  161.1470  207.7010  155.3430 C   0  0  2  0  0  0  0  0  0  0  0  0
  156.3020  214.4530  155.2690 O   0  0  0  0  0  1  0  0  0  0  0  0
  160.8340  206.7700  154.1720 C   0  0  0  0  0  1  0  0  0  0  0  0
  159.5660  208.9140  155.9150 C   0  0  1  0  0  3  0  0  0  0  0  0
  160.7580  209.0960  155.1340 N   0  0  2  0  0  0  0  0  0  0  0  0
  160.0360  207.3840  156.7670 S   0  0  0  0  0  0  0  0  0  0  0  0
  159.0880  213.7510  155.0000 C   0  0  0  0  0  2  0  0  0  0  0  0
  155.9130  213.6010  153.1820 O   0  0  0  0  0  0  0  0  0  0  0  0
  158.1280  213.5260  153.9280 N   0  0  0  0  0  0  0  0  0  0  0  0
  158.6050  212.8570  152.7260 C   0  0  0  0  0  2  0  0  0  0  0  0
  158.9280  211.2130  155.4790 C   0  0  2  0  0  3  0  0  0  0  0  0
  158.7180  211.3550  152.9580 C   0  0  0  0  0  2  0  0  0  0  0  0
  159.6750  211.0210  154.1010 C   0  0  2  0  0  3  0  0  0  0  0  0
  161.2340  209.2260  151.6070 C   0  0  0  0  0  3  0  0  0  0  0  0
  161.3830  209.6800  152.8520 C   0  0  0  0  0  3  0  0  0  0  0  0
  162.3780  209.2730  150.6430 C   0  0  1  0  0  3  0  0  0  0  0  0
  162.2910  208.2350  149.5170 C   0  0  2  0  0  3  0  0  0  0  0  0
  161.8660  209.6690  149.2740 C   0  0  0  0  0  2  0  0  0  0  0  0
  161.1110  207.3830  149.6250 N   0  0  0  0  0  2  0  0  0  0  0  0
  161.5360  205.9860  146.9620 C   0  0  0  0  0  1  0  0  0  0  0  0
  160.9310  203.1370  149.3580 C   0  0  0  0  0  0  0  0  0  0  0  0
  161.1810  203.8850  148.2000 C   0  0  0  0  0  3  0  0  0  0  0  0
  161.2500  205.2810  148.2420 C   0  0  0  0  0  0  0  0  0  0  0  0
  160.8170  205.2020  150.6270 C   0  0  0  0  0  3  0  0  0  0  0  0
  161.0620  205.9550  149.4760 C   0  0  0  0  0  0  0  0  0  0  0  0
  160.7510  203.8090  150.5740 C   0  0  0  0  0  3  0  0  0  0  0  0
  160.8650  201.7050  149.2890 N   0  0  0  0  0  0  0  0  0  0  0  0
  161.1890  200.9870  148.0650 C   0  0  0  0  0  1  0  0  0  0  0  0
  160.4940  200.9880  150.3770 O   0  0  0  0  0  1  0  0  0  0  0  0
  1 20  1  6  0  0  0
  1 18  1  0  0  0  0
  1 10  1  0  0  0  0
  3  7  1  0  0  0  0
  6  8  1  6  0  0  0
  6  5  1  0  0  0  0
  6 11  1  0  0  0  0
  9  4  1  1  0  0  0
  9 11  1  0  0  0  0
 10  6  1  0  0  0  0
 10  9  1  0  0  0  0
 12  2  1  0  0  0  0
 13  3  2  0  0  0  0
 14  3  1  0  0  0  0
 14 12  1  0  0  0  0
 15 17  1  0  0  0  0
 15 14  1  0  0  0  0
 16  2  1  0  0  0  0
 16  4  1  0  0  0  0
 17 18  1  0  0  0  0
 18 16  1  0  0  0  0
 19 20  2  0  0  0  0
 21 19  1  0  0  0  0
 22 24  1  0  0  0  0
 22 21  1  0  0  0  0
 23 22  1  0  0  0  0
 23 21  1  0  0  0  0
 25 28  1  0  0  0  0
 26 31  1  0  0  0  0
 27 28  1  0  0  0  0
 27 26  2  0  0  0  0
 28 30  2  0  0  0  0
 30 24  1  0  0  0  0
 30 29  1  0  0  0  0
 31 29  2  0  0  0  0
 32 26  1  0  0  0  0
 32 34  1  0  0  0  0
 33 32  1  0  0  0  0
M  END
>  <MODEL>
2

>  <REMARK>
 VINA RESULT:      -8.8      0.740      1.410
  Name = 
  5 active torsions:
  status: ('A' for Active; 'I' for Inactive)
    1  A    between atoms: C_1  and  C_9
    2  A    between atoms: N_6  and  C_28
    3  A    between atoms: N_6  and  C_30
    4  A    between atoms: C_7  and  N_11
    5  A    between atoms: C_8  and  C_18
                            x       y       z     vdW  Elec       q    Type
                         _______ _______ _______ _____ _____    ______ ____

>  <TORSDO>
F 5

$$$$
=
 OpenBabel11062409303D

 34 38  0  0  1  0  0  0  0  0999 V2000
  160.8810  210.3730  153.3420 C   0  0  1  0  0  3  0  0  0  0  0  0
  157.3060  212.0350  153.3800 C   0  0  0  0  0  2  0  0  0  0  0  0
  157.3210  213.3600  156.3340 C   0  0  0  0  0  0  0  0  0  0  0  0
  159.1740  212.2090  151.7270 C   0  0  0  0  0  2  0  0  0  0  0  0
  161.5970  209.1530  150.1370 F   0  0  0  0  0  0  0  0  0  0  0  0
  161.8080  210.2500  150.9510 C   0  0  2  0  0  0  0  0  0  0  0  0
  156.2920  214.1320  155.8070 O   0  0  0  0  0  0  0  0  0  0  0  0
  163.1940  210.2100  151.5930 C   0  0  0  0  0  1  0  0  0  0  0  0
  160.6130  211.8160  151.5970 C   0  0  1  0  0  3  0  0  0  0  0  0
  160.7030  210.4140  151.8960 N   0  0  2  0  0  0  0  0  0  0  0  0
  161.5370  211.8160  150.0370 S   0  0  0  0  0  0  0  0  0  0  0  0
  156.7900  211.5050  154.7200 C   0  0  0  0  0  2  0  0  0  0  0  0
  158.0340  213.8310  157.2590 O   0  0  0  0  0  1  0  0  0  0  0  0
  157.5630  212.0400  155.8320 N   0  0  0  0  0  0  0  0  0  0  0  0
  158.6630  211.2300  156.3400 C   0  0  0  0  0  2  0  0  0  0  0  0
  158.8330  212.0500  153.2270 C   0  0  2  0  0  3  0  0  0  0  0  0
  159.8770  211.3410  155.4250 C   0  0  0  0  0  2  0  0  0  0  0  0
  159.5650  210.8850  154.0000 C   0  0  2  0  0  3  0  0  0  0  0  0
  160.7830  207.9090  153.0970 C   0  0  0  0  0  3  0  0  0  0  0  0
  161.1710  208.9720  153.8040 C   0  0  0  0  0  3  0  0  0  0  0  0
  161.0440  206.5260  153.6070 C   0  0  1  0  0  3  0  0  0  0  0  0
  161.0830  205.4520  152.5120 C   0  0  2  0  0  3  0  0  0  0  0  0
  162.3690  206.0320  153.0650 C   0  0  0  0  0  2  0  0  0  0  0  0
  160.8300  205.9930  151.1810 N   0  0  0  0  0  2  0  0  0  0  0  0
  160.8310  202.9680  150.9080 C   0  0  0  0  0  1  0  0  0  0  0  0
  161.4320  204.1670  147.3830 C   0  0  0  0  0  0  0  0  0  0  0  0
  161.2410  203.3560  148.5080 C   0  0  0  0  0  3  0  0  0  0  0  0
  161.0390  203.9130  149.7750 C   0  0  0  0  0  0  0  0  0  0  0  0
  161.2150  206.1260  148.7980 C   0  0  0  0  0  3  0  0  0  0  0  0
  161.0270  205.3230  149.9260 C   0  0  0  0  0  0  0  0  0  0  0  0
  161.4150  205.5590  147.5380 C   0  0  0  0  0  3  0  0  0  0  0  0
  161.6380  203.5710  146.0930 N   0  0  0  0  0  0  0  0  0  0  0  0
  160.8240  202.4550  145.6320 C   0  0  0  0  0  1  0  0  0  0  0  0
  162.6070  204.0430  145.2730 O   0  0  0  0  0  1  0  0  0  0  0  0
  1 20  1  1  0  0  0
  1 18  1  0  0  0  0
  2 12  1  0  0  0  0
  3 13  1  0  0  0  0
  4 16  1  0  0  0  0
  5  6  1  0  0  0  0
  6  8  1  1  0  0  0
  6 10  1  0  0  0  0
  7  3  2  0  0  0  0
  9  4  1  6  0  0  0
  9 10  1  0  0  0  0
 10  1  1  0  0  0  0
 11  6  1  0  0  0  0
 11  9  1  0  0  0  0
 12 14  1  0  0  0  0
 14  3  1  0  0  0  0
 14 15  1  0  0  0  0
 16  2  1  0  0  0  0
 16 18  1  0  0  0  0
 17 15  1  0  0  0  0
 18 17  1  0  0  0  0
 19 21  1  0  0  0  0
 19 20  2  0  0  0  0
 22 23  1  0  0  0  0
 22 21  1  0  0  0  0
 23 21  1  0  0  0  0
 24 22  1  0  0  0  0
 26 31  2  0  0  0  0
 26 27  1  0  0  0  0
 27 28  2  0  0  0  0
 28 30  1  0  0  0  0
 28 25  1  0  0  0  0
 29 30  2  0  0  0  0
 30 24  1  0  0  0  0
 31 29  1  0  0  0  0
 32 26  1  0  0  0  0
 33 32  1  0  0  0  0
 34 32  1  0  0  0  0
M  END
>  <MODEL>
3

>  <REMARK>
 VINA RESULT:      -6.9      2.482      3.466
  Name = 
  5 active torsions:
  status: ('A' for Active; 'I' for Inactive)
    1  A    between atoms: C_1  and  C_9
    2  A    between atoms: N_6  and  C_28
    3  A    between atoms: N_6  and  C_30
    4  A    between atoms: C_7  and  N_11
    5  A    between atoms: C_8  and  C_18
                            x       y       z     vdW  Elec       q    Type
                         _______ _______ _______ _____ _____    ______ ____

>  <TORSDO>
F 5

$$$$
=
 OpenBabel11062409303D

 34 38  0  0  1  0  0  0  0  0999 V2000
  160.9300  207.8690  152.0510 C   0  0  1  0  0  3  0  0  0  0  0  0
  161.7760  209.4680  155.5540 C   0  0  0  0  0  2  0  0  0  0  0  0
  159.6540  211.9120  155.5970 C   0  0  0  0  0  0  0  0  0  0  0  0
  161.2290  207.1110  154.9190 C   0  0  0  0  0  2  0  0  0  0  0  0
  162.6550  204.8430  151.6700 F   0  0  0  0  0  0  0  0  0  0  0  0
  161.4270  205.3500  152.0490 C   0  0  2  0  0  0  0  0  0  0  0  0
  159.8990  211.8750  156.9640 O   0  0  0  0  0  1  0  0  0  0  0  0
  160.4060  205.2460  150.9170 C   0  0  0  0  0  1  0  0  0  0  0  0
  160.7350  206.3430  153.7330 C   0  0  1  0  0  3  0  0  0  0  0  0
  161.5720  206.6900  152.6190 N   0  0  2  0  0  0  0  0  0  0  0  0
  160.8180  204.5380  153.5770 S   0  0  0  0  0  0  0  0  0  0  0  0
  161.9260  210.9320  155.1390 C   0  0  0  0  0  2  0  0  0  0  0  0
  158.5420  212.3320  155.1800 O   0  0  0  0  0  0  0  0  0  0  0  0
  160.6600  211.4800  154.6710 N   0  0  0  0  0  0  0  0  0  0  0  0
  160.4090  211.4700  153.2360 C   0  0  0  0  0  2  0  0  0  0  0  0
  160.9480  208.5980  154.5980 C   0  0  2  0  0  3  0  0  0  0  0  0
  159.9920  210.0780  152.7760 C   0  0  0  0  0  2  0  0  0  0  0  0
  161.0590  209.0280  153.0830 C   0  0  2  0  0  3  0  0  0  0  0  0
  162.2560  207.3770  150.0170 C   0  0  0  0  0  3  0  0  0  0  0  0
  161.5860  208.2620  150.7570 C   0  0  0  0  0  3  0  0  0  0  0  0
  162.9410  207.8080  148.7580 C   0  0  1  0  0  3  0  0  0  0  0  0
  162.4060  207.1300  147.4890 C   0  0  2  0  0  3  0  0  0  0  0  0
  161.9490  208.5250  147.8660 C   0  0  0  0  0  2  0  0  0  0  0  0
  161.3430  206.1710  147.7680 N   0  0  0  0  0  2  0  0  0  0  0  0
  161.1750  205.5290  144.8040 C   0  0  0  0  0  1  0  0  0  0  0  0
  161.0340  202.1360  146.4450 C   0  0  0  0  0  0  0  0  0  0  0  0
  161.0500  203.1670  145.4970 C   0  0  0  0  0  3  0  0  0  0  0  0
  161.1510  204.5060  145.8870 C   0  0  0  0  0  0  0  0  0  0  0  0
  161.2250  203.7960  148.2050 C   0  0  0  0  0  3  0  0  0  0  0  0
  161.2380  204.8300  147.2650 C   0  0  0  0  0  0  0  0  0  0  0  0
  161.1240  202.4620  147.8050 C   0  0  0  0  0  3  0  0  0  0  0  0
  160.9290  200.7680  146.0210 N   0  0  0  0  0  0  0  0  0  0  0  0
  161.5800  199.6930  146.7540 C   0  0  0  0  0  1  0  0  0  0  0  0
  160.2130  200.4530  144.9160 O   0  0  0  0  0  1  0  0  0  0  0  0
  1 20  1  6  0  0  0
  1 10  1  0  0  0  0
  1 18  1  0  0  0  0
  3  7  1  0  0  0  0
  5  6  1  0  0  0  0
  6  8  1  6  0  0  0
  6 10  1  0  0  0  0
  6 11  1  0  0  0  0
  9  4  1  1  0  0  0
 10  9  1  0  0  0  0
 11  9  1  0  0  0  0
 12  2  1  0  0  0  0
 13  3  2  0  0  0  0
 14 12  1  0  0  0  0
 14  3  1  0  0  0  0
 15 14  1  0  0  0  0
 16  4  1  0  0  0  0
 16  2  1  0  0  0  0
 17 18  1  0  0  0  0
 17 15  1  0  0  0  0
 18 16  1  0  0  0  0
 19 20  2  0  0  0  0
 21 19  1  0  0  0  0
 22 24  1  0  0  0  0
 22 23  1  0  0  0  0
 22 21  1  0  0  0  0
 23 21  1  0  0  0  0
 25 28  1  0  0  0  0
 26 31  1  0  0  0  0
 27 28  1  0  0  0  0
 27 26  2  0  0  0  0
 28 30  2  0  0  0  0
 30 24  1  0  0  0  0
 30 29  1  0  0  0  0
 31 29  2  0  0  0  0
 32 26  1  0  0  0  0
 32 33  1  0  0  0  0
 34 32  1  0  0  0  0
M  END
>  <MODEL>
4

>  <REMARK>
 VINA RESULT:      -6.7      2.237      3.507
  Name = 
  5 active torsions:
  status: ('A' for Active; 'I' for Inactive)
    1  A    between atoms: C_1  and  C_9
    2  A    between atoms: N_6  and  C_28
    3  A    between atoms: N_6  and  C_30
    4  A    between atoms: C_7  and  N_11
    5  A    between atoms: C_8  and  C_18
                            x       y       z     vdW  Elec       q    Type
                         _______ _______ _______ _____ _____    ______ ____

>  <TORSDO>
F 5

$$$$
=
 OpenBabel11062409303D

 34 38  0  0  1  0  0  0  0  0999 V2000
  160.3000  211.5190  151.2990 C   0  0  1  0  0  3  0  0  0  0  0  0
  161.6530  214.4530  149.0410 C   0  0  0  0  0  2  0  0  0  0  0  0
  161.4740  213.0620  146.1240 C   0  0  0  0  0  0  0  0  0  0  0  0
  159.8340  214.4140  150.7570 C   0  0  0  0  0  2  0  0  0  0  0  0
  159.8390  212.6520  154.5820 F   0  0  0  0  0  0  0  0  0  0  0  0
  159.1500  212.4370  153.4030 C   0  0  2  0  0  0  0  0  0  0  0  0
  161.5310  214.3780  145.6810 O   0  0  0  0  0  1  0  0  0  0  0  0
  158.3780  211.1190  153.4410 C   0  0  0  0  0  1  0  0  0  0  0  0
  159.0730  213.4200  151.5790 C   0  0  1  0  0  3  0  0  0  0  0  0
  160.0370  212.5920  152.2500 N   0  0  2  0  0  0  0  0  0  0  0  0
  158.0480  213.8490  153.0120 S   0  0  0  0  0  0  0  0  0  0  0  0
  162.7000  213.6910  148.2280 C   0  0  0  0  0  2  0  0  0  0  0  0
  160.8910  212.1970  145.4170 O   0  0  0  0  0  0  0  0  0  0  0  0
  162.0780  212.6920  147.3700 N   0  0  0  0  0  0  0  0  0  0  0  0
  161.9940  211.3280  147.8730 C   0  0  0  0  0  2  0  0  0  0  0  0
  160.5480  213.5870  149.6620 C   0  0  2  0  0  3  0  0  0  0  0  0
  160.8530  211.1970  148.8750 C   0  0  0  0  0  2  0  0  0  0  0  0
  161.0250  212.1370  150.0670 C   0  0  2  0  0  3  0  0  0  0  0  0
  160.8400  209.1650  151.8520 C   0  0  0  0  0  3  0  0  0  0  0  0
  161.1640  210.4570  151.9210 C   0  0  0  0  0  3  0  0  0  0  0  0
  161.6940  208.1350  152.5220 C   0  0  1  0  0  3  0  0  0  0  0  0
  161.5670  206.7280  151.9230 C   0  0  2  0  0  3  0  0  0  0  0  0
  162.7290  207.6220  151.5420 C   0  0  0  0  0  2  0  0  0  0  0  0
  160.6090  206.6680  150.8240 N   0  0  0  0  0  2  0  0  0  0  0  0
  160.9160  203.6770  150.3920 C   0  0  0  0  0  1  0  0  0  0  0  0
  161.2270  205.1010  146.9140 C   0  0  0  0  0  0  0  0  0  0  0  0
  161.1740  204.2210  148.0020 C   0  0  0  0  0  3  0  0  0  0  0  0
  160.9720  204.6920  149.3030 C   0  0  0  0  0  0  0  0  0  0  0  0
  160.8700  206.9550  148.4380 C   0  0  0  0  0  3  0  0  0  0  0  0
  160.8190  206.0840  149.5290 C   0  0  0  0  0  0  0  0  0  0  0  0
  161.0710  206.4750  147.1430 C   0  0  0  0  0  3  0  0  0  0  0  0
  161.4360  204.5940  145.5870 N   0  0  0  0  0  0  0  0  0  0  0  0
  161.2880  205.4450  144.4160 C   0  0  0  0  0  1  0  0  0  0  0  0
  161.7790  203.2970  145.4010 O   0  0  0  0  0  1  0  0  0  0  0  0
  1 20  1  1  0  0  0
  1 10  1  0  0  0  0
  2 16  1  0  0  0  0
  3 14  1  0  0  0  0
  6  8  1  6  0  0  0
  6  5  1  0  0  0  0
  7  3  1  0  0  0  0
  9  4  1  1  0  0  0
  9 10  1  0  0  0  0
  9 11  1  0  0  0  0
 10  6  1  0  0  0  0
 11  6  1  0  0  0  0
 12  2  1  0  0  0  0
 13  3  2  0  0  0  0
 14 15  1  0  0  0  0
 14 12  1  0  0  0  0
 15 17  1  0  0  0  0
 16 18  1  0  0  0  0
 16  4  1  0  0  0  0
 17 18  1  0  0  0  0
 18  1  1  0  0  0  0
 19 20  2  0  0  0  0
 19 21  1  0  0  0  0
 22 21  1  0  0  0  0
 23 22  1  0  0  0  0
 23 21  1  0  0  0  0
 24 22  1  0  0  0  0
 26 31  2  0  0  0  0
 26 27  1  0  0  0  0
 27 28  2  0  0  0  0
 28 30  1  0  0  0  0
 28 25  1  0  0  0  0
 29 30  2  0  0  0  0
 30 24  1  0  0  0  0
 31 29  1  0  0  0  0
 32 26  1  0  0  0  0
 33 32  1  0  0  0  0
 34 32  1  0  0  0  0
M  END
>  <MODEL>
5

>  <REMARK>
 VINA RESULT:      -6.5      3.925      5.300
  Name = 
  5 active torsions:
  status: ('A' for Active; 'I' for Inactive)
    1  A    between atoms: C_1  and  C_9
    2  A    between atoms: N_6  and  C_28
    3  A    between atoms: N_6  and  C_30
    4  A    between atoms: C_7  and  N_11
    5  A    between atoms: C_8  and  C_18
                            x       y       z     vdW  Elec       q    Type
                         _______ _______ _______ _____ _____    ______ ____

>  <TORSDO>
F 5

$$$$
=
 OpenBabel11062409303D

 34 38  0  0  1  0  0  0  0  0999 V2000
  161.5200  208.0930  152.9070 C   0  0  1  0  0  3  0  0  0  0  0  0
  159.3170  211.2480  153.7670 C   0  0  0  0  0  2  0  0  0  0  0  0
  160.6900  212.1650  156.5510 C   0  0  0  0  0  0  0  0  0  0  0  0
  160.5690  210.6430  151.6880 C   0  0  0  0  0  2  0  0  0  0  0  0
  160.7510  206.9400  149.6890 F   0  0  0  0  0  0  0  0  0  0  0  0
  161.6560  207.7350  150.3680 C   0  0  2  0  0  0  0  0  0  0  0  0
  160.0660  213.3730  156.2640 O   0  0  0  0  0  0  0  0  0  0  0  0
  162.9610  206.9880  150.6400 C   0  0  0  0  0  1  0  0  0  0  0  0
  161.5610  209.6240  151.2180 C   0  0  1  0  0  3  0  0  0  0  0  0
  161.0350  208.3290  151.5520 N   0  0  2  0  0  0  0  0  0  0  0  0
  161.9560  209.3090  149.4760 S   0  0  0  0  0  0  0  0  0  0  0  0
  158.9570  210.9230  155.2170 C   0  0  0  0  0  2  0  0  0  0  0  0
  161.7440  212.1630  157.2420 O   0  0  0  0  0  1  0  0  0  0  0  0
  160.1370  210.9330  156.0700 N   0  0  0  0  0  0  0  0  0  0  0  0
  160.7980  209.6600  156.3220 C   0  0  0  0  0  2  0  0  0  0  0  0
  160.5730  210.5470  153.2310 C   0  0  2  0  0  3  0  0  0  0  0  0
  161.6500  209.2520  155.1260 C   0  0  0  0  0  2  0  0  0  0  0  0
  160.8190  209.1150  153.8510 C   0  0  2  0  0  3  0  0  0  0  0  0
  161.1090  205.6880  152.4740 C   0  0  0  0  0  3  0  0  0  0  0  0
  161.2040  206.6910  153.3480 C   0  0  0  0  0  3  0  0  0  0  0  0
  160.7450  204.3120  152.9380 C   0  0  1  0  0  3  0  0  0  0  0  0
  160.6180  203.2830  151.8070 C   0  0  2  0  0  3  0  0  0  0  0  0
  161.8840  203.3620  152.6350 C   0  0  0  0  0  2  0  0  0  0  0  0
  160.8540  203.8610  150.4880 N   0  0  0  0  0  2  0  0  0  0  0  0
  161.7680  205.1420  147.8910 C   0  0  0  0  0  1  0  0  0  0  0  0
  160.7130  201.6780  146.8360 C   0  0  0  0  0  0  0  0  0  0  0  0
  161.1790  202.9990  146.8250 C   0  0  0  0  0  3  0  0  0  0  0  0
  161.2430  203.7530  148.0010 C   0  0  0  0  0  0  0  0  0  0  0  0
  160.3680  201.8540  149.2310 C   0  0  0  0  0  3  0  0  0  0  0  0
  160.8290  203.1730  149.2280 C   0  0  0  0  0  0  0  0  0  0  0  0
  160.3090  201.1110  148.0510 C   0  0  0  0  0  3  0  0  0  0  0  0
  160.6560  200.9250  145.6150 N   0  0  0  0  0  0  0  0  0  0  0  0
  161.2070  199.5810  145.5250 C   0  0  0  0  0  1  0  0  0  0  0  0
  160.0820  201.4610  144.5120 O   0  0  0  0  0  1  0  0  0  0  0  0
  1 20  1  1  0  0  0
  1 18  1  0  0  0  0
  2 12  1  0  0  0  0
  3 13  1  0  0  0  0
  4 16  1  0  0  0  0
  5  6  1  0  0  0  0
  6  8  1  1  0  0  0
  6 10  1  0  0  0  0
  7  3  2  0  0  0  0
  9 10  1  0  0  0  0
  9  4  1  6  0  0  0
 10  1  1  0  0  0  0
 11  6  1  0  0  0  0
 11  9  1  0  0  0  0
 12 14  1  0  0  0  0
 14 15  1  0  0  0  0
 14  3  1  0  0  0  0
 16  2  1  0  0  0  0
 16 18  1  0  0  0  0
 17 15  1  0  0  0  0
 18 17  1  0  0  0  0
 19 21  1  0  0  0  0
 19 20  2  0  0  0  0
 22 23  1  0  0  0  0
 22 21  1  0  0  0  0
 23 21  1  0  0  0  0
 24 22  1  0  0  0  0
 25 28  1  0  0  0  0
 26 31  1  0  0  0  0
 27 26  2  0  0  0  0
 27 28  1  0  0  0  0
 28 30  2  0  0  0  0
 30 29  1  0  0  0  0
 30 24  1  0  0  0  0
 31 29  2  0  0  0  0
 32 26  1  0  0  0  0
 33 32  1  0  0  0  0
 34 32  1  0  0  0  0
M  END
>  <MODEL>
6

>  <REMARK>
 VINA RESULT:      -6.2      2.720      4.298
  Name = 
  5 active torsions:
  status: ('A' for Active; 'I' for Inactive)
    1  A    between atoms: C_1  and  C_9
    2  A    between atoms: N_6  and  C_28
    3  A    between atoms: N_6  and  C_30
    4  A    between atoms: C_7  and  N_11
    5  A    between atoms: C_8  and  C_18
                            x       y       z     vdW  Elec       q    Type
                         _______ _______ _______ _____ _____    ______ ____

>  <TORSDO>
F 5

$$$$
=
 OpenBabel11062409303D

 34 38  0  0  1  0  0  0  0  0999 V2000
  161.2540  208.0780  152.4240 C   0  0  1  0  0  3  0  0  0  0  0  0
  159.4540  211.4360  153.4370 C   0  0  0  0  0  2  0  0  0  0  0  0
  160.5580  211.7900  156.4590 C   0  0  0  0  0  0  0  0  0  0  0  0
  160.8700  210.8720  151.4550 C   0  0  0  0  0  2  0  0  0  0  0  0
  160.7650  207.4410  149.0140 F   0  0  0  0  0  0  0  0  0  0  0  0
  161.6780  207.9920  149.8940 C   0  0  2  0  0  0  0  0  0  0  0  0
  160.1670  213.1100  156.2660 O   0  0  0  0  0  0  0  0  0  0  0  0
  162.8080  207.0140  150.2120 C   0  0  0  0  0  1  0  0  0  0  0  0
  161.7520  209.7630  150.9710 C   0  0  1  0  0  3  0  0  0  0  0  0
  160.9990  208.5430  151.0670 N   0  0  2  0  0  0  0  0  0  0  0  0
  162.3290  209.5860  149.2610 S   0  0  0  0  0  0  0  0  0  0  0  0
  158.8550  211.0120  154.7800 C   0  0  0  0  0  2  0  0  0  0  0  0
  161.4960  211.5360  157.2610 O   0  0  0  0  0  1  0  0  0  0  0  0
  159.8980  210.7300  155.7570 N   0  0  0  0  0  0  0  0  0  0  0  0
  160.3200  209.3450  155.9120 C   0  0  0  0  0  2  0  0  0  0  0  0
  160.6510  210.6010  152.9620 C   0  0  2  0  0  3  0  0  0  0  0  0
  161.2550  208.9400  154.7790 C   0  0  0  0  0  2  0  0  0  0  0  0
  160.5940  209.0880  153.4090 C   0  0  2  0  0  3  0  0  0  0  0  0
  161.1130  205.6510  151.9460 C   0  0  0  0  0  3  0  0  0  0  0  0
  160.6760  206.7060  152.6350 C   0  0  0  0  0  3  0  0  0  0  0  0
  160.4840  204.3070  152.1430 C   0  0  1  0  0  3  0  0  0  0  0  0
  160.8100  203.2940  151.0370 C   0  0  2  0  0  3  0  0  0  0  0  0
  161.5670  203.2690  152.3500 C   0  0  0  0  0  2  0  0  0  0  0  0
  161.6580  203.8560  149.9900 N   0  0  0  0  0  2  0  0  0  0  0  0
  161.2510  201.3620  148.3060 C   0  0  0  0  0  1  0  0  0  0  0  0
  160.8230  204.1720  145.8280 C   0  0  0  0  0  0  0  0  0  0  0  0
  160.9160  202.9020  146.4120 C   0  0  0  0  0  3  0  0  0  0  0  0
  161.1870  202.7520  147.7750 C   0  0  0  0  0  0  0  0  0  0  0  0
  161.2760  205.1660  147.9940 C   0  0  0  0  0  3  0  0  0  0  0  0
  161.3740  203.9020  148.5840 C   0  0  0  0  0  0  0  0  0  0  0  0
  161.0050  205.3040  146.6320 C   0  0  0  0  0  3  0  0  0  0  0  0
  160.5440  204.3000  144.4250 N   0  0  0  0  0  0  0  0  0  0  0  0
  161.2060  205.3060  143.6080 C   0  0  0  0  0  1  0  0  0  0  0  0
  159.6480  203.4770  143.8320 O   0  0  0  0  0  1  0  0  0  0  0  0
  1 20  1  6  0  0  0
  1 18  1  0  0  0  0
  2 12  1  0  0  0  0
  3 13  1  0  0  0  0
  4 16  1  0  0  0  0
  5  6  1  0  0  0  0
  6  8  1  1  0  0  0
  6 10  1  0  0  0  0
  7  3  2  0  0  0  0
  9 10  1  0  0  0  0
  9  4  1  6  0  0  0
 10  1  1  0  0  0  0
 11  6  1  0  0  0  0
 11  9  1  0  0  0  0
 12 14  1  0  0  0  0
 14 15  1  0  0  0  0
 14  3  1  0  0  0  0
 16 18  1  0  0  0  0
 16  2  1  0  0  0  0
 17 15  1  0  0  0  0
 18 17  1  0  0  0  0
 19 21  1  0  0  0  0
 19 20  2  0  0  0  0
 21 23  1  0  0  0  0
 22 21  1  0  0  0  0
 22 23  1  0  0  0  0
 24 22  1  0  0  0  0
 26 27  2  0  0  0  0
 26 31  1  0  0  0  0
 27 28  1  0  0  0  0
 28 25  1  0  0  0  0
 28 30  2  0  0  0  0
 29 30  1  0  0  0  0
 30 24  1  0  0  0  0
 31 29  2  0  0  0  0
 32 26  1  0  0  0  0
 33 32  1  0  0  0  0
 34 32  1  0  0  0  0
M  END
>  <MODEL>
7

>  <REMARK>
 VINA RESULT:      -6.2      2.957      4.491
  Name = 
  5 active torsions:
  status: ('A' for Active; 'I' for Inactive)
    1  A    between atoms: C_1  and  C_9
    2  A    between atoms: N_6  and  C_28
    3  A    between atoms: N_6  and  C_30
    4  A    between atoms: C_7  and  N_11
    5  A    between atoms: C_8  and  C_18
                            x       y       z     vdW  Elec       q    Type
                         _______ _______ _______ _____ _____    ______ ____

>  <TORSDO>
F 5

$$$$
