=
 OpenBabel11052421473D

 30 32  0  0  1  0  0  0  0  0999 V2000
  160.1360  210.8840  154.0530 C   0  0  1  0  0  3  0  0  0  0  0  0
  160.4320  210.6750  156.6100 C   0  0  2  0  0  3  0  0  0  0  0  0
  158.7960  210.3160  154.1060 N   0  0  0  0  0  2  0  0  0  0  0  0
  156.9290  211.7640  157.0400 C   0  0  0  0  0  3  0  0  0  0  0  0
  158.0070  211.4220  156.2140 C   0  0  0  0  0  0  0  0  0  0  0  0
  156.4500  210.3370  154.6950 C   0  0  0  0  0  3  0  0  0  0  0  0
  157.7610  210.7060  155.0150 C   0  0  0  0  0  0  0  0  0  0  0  0
  159.3790  211.7950  156.7050 C   0  0  2  0  0  3  0  0  0  0  0  0
  155.6240  211.4030  156.6990 C   0  0  0  0  0  3  0  0  0  0  0  0
  155.3850  210.6860  155.5280 C   0  0  0  0  0  3  0  0  0  0  0  0
  161.0160  210.4020  155.2160 C   0  0  2  0  0  3  0  0  0  0  0  0
  160.7150  211.5000  151.6330 C   0  0  0  0  0  0  0  0  0  0  0  0
  161.3150  211.1550  150.4180 C   0  0  0  0  0  3  0  0  0  0  0  0
  159.9260  213.0670  151.7490 Cl  0  0  0  0  0  0  0  0  0  0  0  0
  161.4040  209.3630  152.5570 C   0  0  0  0  0  3  0  0  0  0  0  0
  162.6220  207.8330  151.1960 F   0  0  0  0  0  0  0  0  0  0  0  0
  160.7590  210.5940  152.7170 C   0  0  0  0  0  0  0  0  0  0  0  0
  161.9560  209.9240  150.2690 C   0  0  0  0  0  3  0  0  0  0  0  0
  162.0000  209.0280  151.3380 C   0  0  0  0  0  0  0  0  0  0  0  0
  162.3310  210.9990  155.1230 N   0  0  0  0  0  0  0  0  0  0  0  0
  163.0330  210.0310  157.2610 C   0  0  0  0  0  1  0  0  0  0  0  0
  163.2400  210.8510  156.0240 C   0  0  0  0  0  3  0  0  0  0  0  0
  160.6340  214.0480  157.2540 O   0  0  0  0  0  0  0  0  0  0  0  0
  159.9470  213.3940  156.0630 S   0  0  2  0  0  0  0  0  0  0  0  0
  158.4480  214.3780  155.8320 C   0  0  0  0  0  2  0  0  0  0  0  0
  157.9730  214.3060  154.3930 C   0  0  0  0  0  1  0  0  0  0  0  0
  159.9740  209.3730  157.2600 C   0  0  0  0  0  2  0  0  0  0  0  0
  161.2430  207.3470  157.2340 O   0  0  0  0  0  1  0  0  0  0  0  0
  160.4290  208.1690  156.4530 C   0  0  1  0  0  3  0  0  0  0  0  0
  159.2150  207.3840  156.0040 C   0  0  0  0  0  1  0  0  0  0  0  0
  1 17  1  6  0  0  0
  1  3  1  0  0  0  0
  1 11  1  0  0  0  0
  2  8  1  0  0  0  0
  2 27  1  6  0  0  0
  3  7  1  0  0  0  0
  5  8  1  0  0  0  0
  5  4  2  0  0  0  0
  6  7  2  0  0  0  0
  6 10  1  0  0  0  0
  7  5  1  0  0  0  0
  8 24  1  6  0  0  0
  9  4  1  0  0  0  0
 10  9  2  0  0  0  0
 11 20  1  1  0  0  0
 11  2  1  0  0  0  0
 12 14  1  0  0  0  0
 12 17  1  0  0  0  0
 13 12  2  0  0  0  0
 15 17  2  0  0  0  0
 16 19  1  0  0  0  0
 18 13  1  0  0  0  0
 18 19  2  0  0  0  0
 19 15  1  0  0  0  0
 20 22  2  0  0  0  0
 22 21  1  0  0  0  0
 24 23  2  1  0  0  0
 25 24  1  0  0  0  0
 26 25  1  0  0  0  0
 29 30  1  1  0  0  0
 29 28  1  0  0  0  0
 29 27  1  0  0  0  0
M  END
>  <MODEL>
1

>  <REMARK>
 VINA RESULT:      -3.3      0.000      0.000
  Name = 
  6 active torsions:
  status: ('A' for Active; 'I' for Inactive)
    1  A    between atoms: C_1  and  C_22
    2  A    between atoms: C_4  and  C_25
    3  A    between atoms: C_7  and  S_30
    4  A    between atoms: N_10  and  C_23
    5  A    between atoms: C_11  and  C_25
    6  A    between atoms: C_13  and  S_30
                            x       y       z     vdW  Elec       q    Type
                         _______ _______ _______ _____ _____    ______ ____

>  <TORSDO>
F 6

$$$$
=
 OpenBabel11052421473D

 30 32  0  0  1  0  0  0  0  0999 V2000
  159.8570  209.9790  154.0670 C   0  0  1  0  0  3  0  0  0  0  0  0
  160.1790  212.2330  155.2860 C   0  0  2  0  0  3  0  0  0  0  0  0
  158.4930  209.8460  154.5570 N   0  0  0  0  0  2  0  0  0  0  0  0
  156.7380  213.1710  154.3240 C   0  0  0  0  0  3  0  0  0  0  0  0
  157.7870  212.2430  154.3510 C   0  0  0  0  0  0  0  0  0  0  0  0
  156.1590  210.4690  154.6820 C   0  0  0  0  0  3  0  0  0  0  0  0
  157.4900  210.8670  154.5210 C   0  0  0  0  0  0  0  0  0  0  0  0
  159.1820  212.7980  154.2550 C   0  0  2  0  0  3  0  0  0  0  0  0
  155.4130  212.7570  154.4690 C   0  0  0  0  0  3  0  0  0  0  0  0
  155.1240  211.4060  154.6530 C   0  0  0  0  0  3  0  0  0  0  0  0
  160.7290  210.8280  155.0040 C   0  0  2  0  0  3  0  0  0  0  0  0
  160.6460  207.6710  154.8550 C   0  0  0  0  0  0  0  0  0  0  0  0
  161.2050  206.4260  154.5520 C   0  0  0  0  0  3  0  0  0  0  0  0
  160.2120  207.9950  156.5290 Cl  0  0  0  0  0  0  0  0  0  0  0  0
  160.8150  208.2950  152.5150 C   0  0  0  0  0  3  0  0  0  0  0  0
  161.7250  206.7470  150.9490 F   0  0  0  0  0  0  0  0  0  0  0  0
  160.4470  208.6190  153.8260 C   0  0  0  0  0  0  0  0  0  0  0  0
  161.5680  206.1140  153.2400 C   0  0  0  0  0  3  0  0  0  0  0  0
  161.3730  207.0490  152.2220 C   0  0  0  0  0  0  0  0  0  0  0  0
  162.0700  210.9360  154.4700 N   0  0  0  0  0  0  0  0  0  0  0  0
  163.0830  210.3300  156.6170 C   0  0  0  0  0  1  0  0  0  0  0  0
  163.1300  210.7250  155.1720 C   0  0  0  0  0  3  0  0  0  0  0  0
  159.9070  214.3060  152.2180 O   0  0  0  0  0  0  0  0  0  0  0  0
  159.8160  212.8240  152.5560 S   0  0  2  0  0  0  0  0  0  0  0  0
  158.4570  212.2260  151.5270 C   0  0  0  0  0  2  0  0  0  0  0  0
  158.0710  213.2610  150.4880 C   0  0  0  0  0  1  0  0  0  0  0  0
  159.6680  212.3290  156.7200 C   0  0  0  0  0  2  0  0  0  0  0  0
  160.7420  214.4530  156.4990 O   0  0  0  0  0  1  0  0  0  0  0  0
  159.8150  213.7400  157.2610 C   0  0  1  0  0  3  0  0  0  0  0  0
  158.4740  214.4400  157.1960 C   0  0  0  0  0  1  0  0  0  0  0  0
  1 17  1  1  0  0  0
  1  3  1  0  0  0  0
  1 11  1  0  0  0  0
  2 27  1  1  0  0  0
  4  5  2  0  0  0  0
  4  9  1  0  0  0  0
  5  7  1  0  0  0  0
  7  3  1  0  0  0  0
  7  6  2  0  0  0  0
  8 24  1  6  0  0  0
  8  5  1  0  0  0  0
  8  2  1  0  0  0  0
  9 10  2  0  0  0  0
 10  6  1  0  0  0  0
 11 20  1  6  0  0  0
 11  2  1  0  0  0  0
 12 14  1  0  0  0  0
 13 12  1  0  0  0  0
 15 17  1  0  0  0  0
 16 19  1  0  0  0  0
 17 12  2  0  0  0  0
 18 13  2  0  0  0  0
 19 15  2  0  0  0  0
 19 18  1  0  0  0  0
 20 22  2  0  0  0  0
 22 21  1  0  0  0  0
 24 23  2  6  0  0  0
 25 24  1  0  0  0  0
 26 25  1  0  0  0  0
 27 29  1  0  0  0  0
 28 29  1  0  0  0  0
 29 30  1  6  0  0  0
M  END
>  <MODEL>
2

>  <REMARK>
 VINA RESULT:      -3.1      2.521      3.696
  Name = 
  6 active torsions:
  status: ('A' for Active; 'I' for Inactive)
    1  A    between atoms: C_1  and  C_22
    2  A    between atoms: C_4  and  C_25
    3  A    between atoms: C_7  and  S_30
    4  A    between atoms: N_10  and  C_23
    5  A    between atoms: C_11  and  C_25
    6  A    between atoms: C_13  and  S_30
                            x       y       z     vdW  Elec       q    Type
                         _______ _______ _______ _____ _____    ______ ____

>  <TORSDO>
F 6

$$$$
=
 OpenBabel11052421473D

 30 32  0  0  1  0  0  0  0  0999 V2000
  160.5430  209.6140  153.5300 C   0  0  1  0  0  3  0  0  0  0  0  0
  159.1710  210.3410  155.5930 C   0  0  2  0  0  3  0  0  0  0  0  0
  159.7070  210.3970  152.6300 N   0  0  0  0  0  2  0  0  0  0  0  0
  158.9740  213.7490  154.1840 C   0  0  0  0  0  3  0  0  0  0  0  0
  159.3750  212.4100  154.0870 C   0  0  0  0  0  0  0  0  0  0  0  0
  158.8390  212.4610  151.7160 C   0  0  0  0  0  3  0  0  0  0  0  0
  159.3170  211.7590  152.8280 C   0  0  0  0  0  0  0  0  0  0  0  0
  159.7870  211.7340  155.3660 C   0  0  2  0  0  3  0  0  0  0  0  0
  158.5160  214.4410  153.0620 C   0  0  0  0  0  3  0  0  0  0  0  0
  158.4430  213.7960  151.8290 C   0  0  0  0  0  3  0  0  0  0  0  0
  159.7860  209.1830  154.7950 C   0  0  2  0  0  3  0  0  0  0  0  0
  161.9310  208.5790  151.6390 C   0  0  0  0  0  0  0  0  0  0  0  0
  162.4330  207.4380  151.0060 C   0  0  0  0  0  3  0  0  0  0  0  0
  162.3350  210.1480  150.9560 Cl  0  0  0  0  0  0  0  0  0  0  0  0
  160.8430  207.1630  153.2840 C   0  0  0  0  0  3  0  0  0  0  0  0
  161.0680  204.7960  153.1290 F   0  0  0  0  0  0  0  0  0  0  0  0
  161.1260  208.4420  152.7930 C   0  0  0  0  0  0  0  0  0  0  0  0
  162.1440  206.1660  151.5050 C   0  0  0  0  0  3  0  0  0  0  0  0
  161.3490  206.0290  152.6440 C   0  0  0  0  0  0  0  0  0  0  0  0
  160.6600  208.4170  155.6570 N   0  0  0  0  0  0  0  0  0  0  0  0
  158.9070  206.7790  156.1500 C   0  0  0  0  0  1  0  0  0  0  0  0
  160.2870  207.3490  156.2740 C   0  0  0  0  0  3  0  0  0  0  0  0
  162.1510  210.8040  154.6600 O   0  0  0  0  0  0  0  0  0  0  0  0
  161.5770  211.8040  155.6550 S   0  0  2  0  0  0  0  0  0  0  0  0
  161.8340  211.0150  157.2610 C   0  0  0  0  0  2  0  0  0  0  0  0
  163.1020  210.1840  157.2560 C   0  0  0  0  0  1  0  0  0  0  0  0
  157.6520  210.3330  155.4570 C   0  0  0  0  0  2  0  0  0  0  0  0
  155.9840  211.9810  154.9910 O   0  0  0  0  0  1  0  0  0  0  0  0
  157.0620  211.6840  155.8250 C   0  0  1  0  0  3  0  0  0  0  0  0
  156.5850  211.6440  157.2610 C   0  0  0  0  0  1  0  0  0  0  0  0
  1 17  1  6  0  0  0
  1 11  1  0  0  0  0
  2 27  1  6  0  0  0
  3  7  1  0  0  0  0
  3  1  1  0  0  0  0
  5  4  1  0  0  0  0
  5  8  1  0  0  0  0
  6 10  2  0  0  0  0
  6  7  1  0  0  0  0
  7  5  2  0  0  0  0
  8  2  1  0  0  0  0
  8 24  1  6  0  0  0
  9  4  2  0  0  0  0
 10  9  1  0  0  0  0
 11  2  1  0  0  0  0
 11 20  1  1  0  0  0
 12 17  1  0  0  0  0
 13 18  1  0  0  0  0
 13 12  2  0  0  0  0
 14 12  1  0  0  0  0
 17 15  2  0  0  0  0
 18 19  2  0  0  0  0
 19 16  1  0  0  0  0
 19 15  1  0  0  0  0
 20 22  2  0  0  0  0
 21 22  1  0  0  0  0
 24 23  2  6  0  0  0
 24 25  1  0  0  0  0
 26 25  1  0  0  0  0
 27 29  1  0  0  0  0
 28 29  1  0  0  0  0
 29 30  1  1  0  0  0
M  END
>  <MODEL>
3

>  <REMARK>
 VINA RESULT:      -2.7      2.332      4.066
  Name = 
  6 active torsions:
  status: ('A' for Active; 'I' for Inactive)
    1  A    between atoms: C_1  and  C_22
    2  A    between atoms: C_4  and  C_25
    3  A    between atoms: C_7  and  S_30
    4  A    between atoms: N_10  and  C_23
    5  A    between atoms: C_11  and  C_25
    6  A    between atoms: C_13  and  S_30
                            x       y       z     vdW  Elec       q    Type
                         _______ _______ _______ _____ _____    ______ ____

>  <TORSDO>
F 6

$$$$
=
 OpenBabel11052421473D

 30 32  0  0  1  0  0  0  0  0999 V2000
  159.8210  211.6480  153.2080 C   0  0  1  0  0  3  0  0  0  0  0  0
  160.2550  209.7130  154.8620 C   0  0  2  0  0  3  0  0  0  0  0  0
  158.3820  211.5800  153.4200 N   0  0  0  0  0  2  0  0  0  0  0  0
  157.6690  211.1240  157.0910 C   0  0  0  0  0  3  0  0  0  0  0  0
  158.3910  211.1490  155.8900 C   0  0  0  0  0  0  0  0  0  0  0  0
  156.3660  211.8330  154.7320 C   0  0  0  0  0  3  0  0  0  0  0  0
  157.7290  211.5220  154.6930 C   0  0  0  0  0  0  0  0  0  0  0  0
  159.8280  210.7100  155.9570 C   0  0  2  0  0  3  0  0  0  0  0  0
  156.3130  211.4540  157.1170 C   0  0  0  0  0  3  0  0  0  0  0  0
  155.6600  211.8040  155.9370 C   0  0  0  0  0  3  0  0  0  0  0  0
  160.5090  210.2990  153.4660 C   0  0  2  0  0  3  0  0  0  0  0  0
  159.6050  213.4050  151.3540 C   0  0  0  0  0  0  0  0  0  0  0  0
  159.9130  213.8240  150.0550 C   0  0  0  0  0  3  0  0  0  0  0  0
  158.5930  214.4520  152.3400 Cl  0  0  0  0  0  0  0  0  0  0  0  0
  160.9080  211.3890  150.9910 C   0  0  0  0  0  3  0  0  0  0  0  0
  161.9850  211.0480  148.8940 F   0  0  0  0  0  0  0  0  0  0  0  0
  160.1080  212.1730  151.8300 C   0  0  0  0  0  0  0  0  0  0  0  0
  160.7120  213.0330  149.2280 C   0  0  0  0  0  3  0  0  0  0  0  0
  161.2100  211.8160  149.6960 C   0  0  0  0  0  0  0  0  0  0  0  0
  161.9340  210.4210  153.2490 N   0  0  0  0  0  0  0  0  0  0  0  0
  161.9940  208.4180  151.8400 C   0  0  0  0  0  1  0  0  0  0  0  0
  162.6150  209.5920  152.5350 C   0  0  0  0  0  3  0  0  0  0  0  0
  162.0140  211.5600  157.1600 O   0  0  0  0  0  0  0  0  0  0  0  0
  160.9790  212.0940  156.1810 S   0  0  2  0  0  0  0  0  0  0  0  0
  160.0670  213.3250  157.1400 C   0  0  0  0  0  2  0  0  0  0  0  0
  159.5400  214.4270  156.2410 C   0  0  0  0  0  1  0  0  0  0  0  0
  159.3350  208.5000  154.7720 C   0  0  0  0  0  2  0  0  0  0  0  0
  161.3160  207.1650  154.8480 O   0  0  0  0  0  1  0  0  0  0  0  0
  160.0100  207.2580  155.3290 C   0  0  1  0  0  3  0  0  0  0  0  0
  160.0410  207.3450  156.8400 C   0  0  0  0  0  1  0  0  0  0  0  0
  1 17  1  6  0  0  0
  1  3  1  0  0  0  0
  1 11  1  0  0  0  0
  2 27  1  6  0  0  0
  2  8  1  0  0  0  0
  3  7  1  0  0  0  0
  4  9  1  0  0  0  0
  5  8  1  0  0  0  0
  5  4  2  0  0  0  0
  6 10  1  0  0  0  0
  7  6  2  0  0  0  0
  7  5  1  0  0  0  0
  8 24  1  6  0  0  0
 10  9  2  0  0  0  0
 11 20  1  1  0  0  0
 11  2  1  0  0  0  0
 12 17  1  0  0  0  0
 12 14  1  0  0  0  0
 13 12  2  0  0  0  0
 15 17  2  0  0  0  0
 16 19  1  0  0  0  0
 18 19  2  0  0  0  0
 18 13  1  0  0  0  0
 19 15  1  0  0  0  0
 21 22  1  0  0  0  0
 22 20  2  0  0  0  0
 24 25  1  0  0  0  0
 24 23  2  1  0  0  0
 26 25  1  0  0  0  0
 27 29  1  0  0  0  0
 28 29  1  0  0  0  0
 29 30  1  1  0  0  0
M  END
>  <MODEL>
4

>  <REMARK>
 VINA RESULT:      -2.5      1.808      2.434
  Name = 
  6 active torsions:
  status: ('A' for Active; 'I' for Inactive)
    1  A    between atoms: C_1  and  C_22
    2  A    between atoms: C_4  and  C_25
    3  A    between atoms: C_7  and  S_30
    4  A    between atoms: N_10  and  C_23
    5  A    between atoms: C_11  and  C_25
    6  A    between atoms: C_13  and  S_30
                            x       y       z     vdW  Elec       q    Type
                         _______ _______ _______ _____ _____    ______ ____

>  <TORSDO>
F 6

$$$$
=
 OpenBabel11052421473D

 30 32  0  0  1  0  0  0  0  0999 V2000
  159.3830  210.4870  153.8680 C   0  0  1  0  0  3  0  0  0  0  0  0
  161.6360  209.7250  154.8760 C   0  0  2  0  0  3  0  0  0  0  0  0
  160.0100  210.8640  152.6090 N   0  0  0  0  0  2  0  0  0  0  0  0
  162.5180  208.2350  151.6130 C   0  0  0  0  0  3  0  0  0  0  0  0
  161.6390  208.9660  152.4230 C   0  0  0  0  0  0  0  0  0  0  0  0
  161.1440  210.4010  150.5230 C   0  0  0  0  0  3  0  0  0  0  0  0
  160.9310  210.0610  151.8640 C   0  0  0  0  0  0  0  0  0  0  0  0
  161.5580  208.5610  153.8690 C   0  0  2  0  0  3  0  0  0  0  0  0
  162.7070  208.5760  150.2730 C   0  0  0  0  0  3  0  0  0  0  0  0
  162.0240  209.6630  149.7290 C   0  0  0  0  0  3  0  0  0  0  0  0
  160.3620  210.5640  155.0490 C   0  0  2  0  0  3  0  0  0  0  0  0
  158.0620  212.6770  153.7020 C   0  0  0  0  0  0  0  0  0  0  0  0
  156.8860  213.3910  153.9540 C   0  0  0  0  0  3  0  0  0  0  0  0
  159.3810  213.5150  152.8940 Cl  0  0  0  0  0  0  0  0  0  0  0  0
  157.0690  210.7170  154.7350 C   0  0  0  0  0  3  0  0  0  0  0  0
  154.8530  210.8420  155.6010 F   0  0  0  0  0  0  0  0  0  0  0  0
  158.1560  211.3230  154.0960 C   0  0  0  0  0  0  0  0  0  0  0  0
  155.8080  212.7760  154.5910 C   0  0  0  0  0  3  0  0  0  0  0  0
  155.8990  211.4400  154.9820 C   0  0  0  0  0  0  0  0  0  0  0  0
  159.6940  210.1740  156.2730 N   0  0  0  0  0  0  0  0  0  0  0  0
  159.9250  212.4150  157.2340 C   0  0  0  0  0  1  0  0  0  0  0  0
  159.4960  210.9800  157.2580 C   0  0  0  0  0  3  0  0  0  0  0  0
  160.0510  207.4310  155.7130 O   0  0  0  0  0  0  0  0  0  0  0  0
  160.2120  207.3910  154.2000 S   0  0  2  0  0  0  0  0  0  0  0  0
  160.9090  205.7550  153.8800 C   0  0  0  0  0  2  0  0  0  0  0  0
  160.8190  205.4090  152.4060 C   0  0  0  0  0  1  0  0  0  0  0  0
  162.8430  210.6290  154.6460 C   0  0  0  0  0  2  0  0  0  0  0  0
  163.2610  210.1640  156.9530 O   0  0  0  0  0  1  0  0  0  0  0  0
  163.4050  211.1370  155.9620 C   0  0  1  0  0  3  0  0  0  0  0  0
  164.8750  211.4530  155.7870 C   0  0  0  0  0  1  0  0  0  0  0  0
  1 17  1  1  0  0  0
  1 11  1  0  0  0  0
  2 27  1  6  0  0  0
  2 11  1  0  0  0  0
  3  1  1  0  0  0  0
  4  5  1  0  0  0  0
  5  8  1  0  0  0  0
  6  7  1  0  0  0  0
  7  5  2  0  0  0  0
  7  3  1  0  0  0  0
  8 24  1  6  0  0  0
  8  2  1  0  0  0  0
  9  4  2  0  0  0  0
 10  9  1  0  0  0  0
 10  6  2  0  0  0  0
 11 20  1  1  0  0  0
 12 13  2  0  0  0  0
 12 17  1  0  0  0  0
 13 18  1  0  0  0  0
 14 12  1  0  0  0  0
 15 19  1  0  0  0  0
 17 15  2  0  0  0  0
 18 19  2  0  0  0  0
 19 16  1  0  0  0  0
 20 22  2  0  0  0  0
 21 22  1  0  0  0  0
 24 23  2  1  0  0  0
 25 24  1  0  0  0  0
 26 25  1  0  0  0  0
 27 29  1  0  0  0  0
 29 30  1  6  0  0  0
 29 28  1  0  0  0  0
M  END
>  <MODEL>
5

>  <REMARK>
 VINA RESULT:      -1.7      2.730      5.976
  Name = 
  6 active torsions:
  status: ('A' for Active; 'I' for Inactive)
    1  A    between atoms: C_1  and  C_22
    2  A    between atoms: C_4  and  C_25
    3  A    between atoms: C_7  and  S_30
    4  A    between atoms: N_10  and  C_23
    5  A    between atoms: C_11  and  C_25
    6  A    between atoms: C_13  and  S_30
                            x       y       z     vdW  Elec       q    Type
                         _______ _______ _______ _____ _____    ______ ____

>  <TORSDO>
F 6

$$$$
=
 OpenBabel11052421473D

 30 32  0  0  1  0  0  0  0  0999 V2000
  159.7390  211.0670  153.1970 C   0  0  1  0  0  3  0  0  0  0  0  0
  161.1410  210.4060  155.2630 C   0  0  2  0  0  3  0  0  0  0  0  0
  160.6800  210.4300  152.2860 N   0  0  0  0  0  2  0  0  0  0  0  0
  161.7630  207.1140  153.7090 C   0  0  0  0  0  3  0  0  0  0  0  0
  161.2120  208.4010  153.6610 C   0  0  0  0  0  0  0  0  0  0  0  0
  161.8030  208.5250  151.3060 C   0  0  0  0  0  3  0  0  0  0  0  0
  161.2220  209.1130  152.4340 C   0  0  0  0  0  0  0  0  0  0  0  0
  160.6960  208.9630  154.9570 C   0  0  2  0  0  3  0  0  0  0  0  0
  162.3240  206.5330  152.5700 C   0  0  0  0  0  3  0  0  0  0  0  0
  162.3480  207.2410  151.3690 C   0  0  0  0  0  3  0  0  0  0  0  0
  160.4120  211.5220  154.5000 C   0  0  2  0  0  3  0  0  0  0  0  0
  157.7620  212.6670  152.8770 C   0  0  0  0  0  0  0  0  0  0  0  0
  157.1750  213.7230  152.1720 C   0  0  0  0  0  3  0  0  0  0  0  0
  156.8640  211.9690  154.2180 Cl  0  0  0  0  0  0  0  0  0  0  0  0
  159.7000  212.7990  151.4200 C   0  0  0  0  0  3  0  0  0  0  0  0
  159.7540  214.4270  149.6810 F   0  0  0  0  0  0  0  0  0  0  0  0
  159.0410  212.1980  152.4980 C   0  0  0  0  0  0  0  0  0  0  0  0
  157.8430  214.3150  151.0990 C   0  0  0  0  0  3  0  0  0  0  0  0
  159.1050  213.8530  150.7230 C   0  0  0  0  0  0  0  0  0  0  0  0
  159.4360  212.1400  155.3720 N   0  0  0  0  0  0  0  0  0  0  0  0
  161.1640  212.9080  156.9300 C   0  0  0  0  0  1  0  0  0  0  0  0
  159.7490  212.7560  156.4600 C   0  0  0  0  0  3  0  0  0  0  0  0
  158.5010  209.7460  156.1910 O   0  0  0  0  0  0  0  0  0  0  0  0
  158.9210  208.6740  155.1940 S   0  0  2  0  0  0  0  0  0  0  0  0
  158.8060  207.1360  156.1340 C   0  0  0  0  0  2  0  0  0  0  0  0
  160.1840  206.5610  156.3970 C   0  0  0  0  0  1  0  0  0  0  0  0
  162.6510  210.5950  155.1690 C   0  0  0  0  0  2  0  0  0  0  0  0
  163.3290  209.6550  157.2600 O   0  0  0  0  0  1  0  0  0  0  0  0
  163.2580  210.8470  156.5390 C   0  0  1  0  0  3  0  0  0  0  0  0
  164.6530  211.4100  156.3690 C   0  0  0  0  0  1  0  0  0  0  0  0
  1 17  1  6  0  0  0
  1 11  1  0  0  0  0
  2 27  1  6  0  0  0
  3  7  1  0  0  0  0
  3  1  1  0  0  0  0
  5  4  1  0  0  0  0
  5  8  1  0  0  0  0
  6 10  2  0  0  0  0
  6  7  1  0  0  0  0
  7  5  2  0  0  0  0
  8 24  1  6  0  0  0
  8  2  1  0  0  0  0
  9  4  2  0  0  0  0
 10  9  1  0  0  0  0
 11  2  1  0  0  0  0
 11 20  1  1  0  0  0
 12 14  1  0  0  0  0
 13 12  2  0  0  0  0
 15 17  2  0  0  0  0
 16 19  1  0  0  0  0
 17 12  1  0  0  0  0
 18 13  1  0  0  0  0
 19 18  2  0  0  0  0
 19 15  1  0  0  0  0
 20 22  2  0  0  0  0
 22 21  1  0  0  0  0
 24 25  1  0  0  0  0
 24 23  2  1  0  0  0
 25 26  1  0  0  0  0
 27 29  1  0  0  0  0
 29 30  1  6  0  0  0
 29 28  1  0  0  0  0
M  END
>  <MODEL>
6

>  <REMARK>
 VINA RESULT:      -0.9      2.884      5.247
  Name = 
  6 active torsions:
  status: ('A' for Active; 'I' for Inactive)
    1  A    between atoms: C_1  and  C_22
    2  A    between atoms: C_4  and  C_25
    3  A    between atoms: C_7  and  S_30
    4  A    between atoms: N_10  and  C_23
    5  A    between atoms: C_11  and  C_25
    6  A    between atoms: C_13  and  S_30
                            x       y       z     vdW  Elec       q    Type
                         _______ _______ _______ _____ _____    ______ ____

>  <TORSDO>
F 6

$$$$
=
 OpenBabel11052421473D

 30 32  0  0  1  0  0  0  0  0999 V2000
  160.9380  209.4370  152.3380 C   0  0  1  0  0  3  0  0  0  0  0  0
  160.6500  209.1190  154.8850 C   0  0  2  0  0  3  0  0  0  0  0  0
  159.7110  210.2150  152.2400 N   0  0  0  0  0  2  0  0  0  0  0  0
  159.5120  212.6250  155.1280 C   0  0  0  0  0  3  0  0  0  0  0  0
  159.9340  211.5290  154.3640 C   0  0  0  0  0  0  0  0  0  0  0  0
  158.3360  212.1640  152.6440 C   0  0  0  0  0  3  0  0  0  0  0  0
  159.3430  211.3030  153.0940 C   0  0  0  0  0  0  0  0  0  0  0  0
  160.9600  210.6250  154.9890 C   0  0  2  0  0  3  0  0  0  0  0  0
  158.5180  213.4840  154.6580 C   0  0  0  0  0  3  0  0  0  0  0  0
  157.9260  213.2510  153.4180 C   0  0  0  0  0  3  0  0  0  0  0  0
  160.9120  208.4600  153.5230 C   0  0  2  0  0  3  0  0  0  0  0  0
  161.8120  209.3710  149.9290 C   0  0  0  0  0  0  0  0  0  0  0  0
  162.0210  208.6520  148.7470 C   0  0  0  0  0  3  0  0  0  0  0  0
  162.3300  211.0510  149.9760 Cl  0  0  0  0  0  0  0  0  0  0  0  0
  160.8150  207.3960  150.9300 C   0  0  0  0  0  3  0  0  0  0  0  0
  160.6480  205.3900  149.6560 F   0  0  0  0  0  0  0  0  0  0  0  0
  161.2020  208.7370  151.0360 C   0  0  0  0  0  0  0  0  0  0  0  0
  161.6300  207.3150  148.6540 C   0  0  0  0  0  3  0  0  0  0  0  0
  161.0270  206.6870  149.7450 C   0  0  0  0  0  0  0  0  0  0  0  0
  162.1530  207.7180  153.5810 N   0  0  0  0  0  0  0  0  0  0  0  0
  160.9890  205.5650  153.5050 C   0  0  0  0  0  1  0  0  0  0  0  0
  162.2090  206.4310  153.5800 C   0  0  0  0  0  3  0  0  0  0  0  0
  163.0620  209.9730  153.5380 O   0  0  0  0  0  0  0  0  0  0  0  0
  162.6590  211.0590  154.5260 S   0  0  2  0  0  0  0  0  0  0  0  0
  163.6600  210.7090  155.9890 C   0  0  0  0  0  2  0  0  0  0  0  0
  162.9090  211.0740  157.2550 C   0  0  0  0  0  1  0  0  0  0  0  0
  159.2540  208.7640  155.3880 C   0  0  0  0  0  2  0  0  0  0  0  0
  158.9780  206.4780  156.0290 O   0  0  0  0  0  1  0  0  0  0  0  0
  159.3200  207.7420  156.5100 C   0  0  1  0  0  3  0  0  0  0  0  0
  160.7290  207.7000  157.0620 C   0  0  0  0  0  1  0  0  0  0  0  0
  1 17  1  6  0  0  0
  1 11  1  0  0  0  0
  2  8  1  0  0  0  0
  2 27  1  6  0  0  0
  3  1  1  0  0  0  0
  3  7  1  0  0  0  0
  5  8  1  0  0  0  0
  5  4  2  0  0  0  0
  6  7  2  0  0  0  0
  6 10  1  0  0  0  0
  7  5  1  0  0  0  0
  8 24  1  6  0  0  0
  9  4  1  0  0  0  0
 10  9  2  0  0  0  0
 11 20  1  1  0  0  0
 11  2  1  0  0  0  0
 12 14  1  0  0  0  0
 12 17  1  0  0  0  0
 13 12  2  0  0  0  0
 15 17  2  0  0  0  0
 16 19  1  0  0  0  0
 18 13  1  0  0  0  0
 18 19  2  0  0  0  0
 19 15  1  0  0  0  0
 21 22  1  0  0  0  0
 22 20  2  0  0  0  0
 24 23  2  6  0  0  0
 24 25  1  0  0  0  0
 25 26  1  0  0  0  0
 27 29  1  0  0  0  0
 28 29  1  0  0  0  0
 29 30  1  6  0  0  0
M  END
>  <MODEL>
7

>  <REMARK>
 VINA RESULT:      -0.9      2.550      3.670
  Name = 
  6 active torsions:
  status: ('A' for Active; 'I' for Inactive)
    1  A    between atoms: C_1  and  C_22
    2  A    between atoms: C_4  and  C_25
    3  A    between atoms: C_7  and  S_30
    4  A    between atoms: N_10  and  C_23
    5  A    between atoms: C_11  and  C_25
    6  A    between atoms: C_13  and  S_30
                            x       y       z     vdW  Elec       q    Type
                         _______ _______ _______ _____ _____    ______ ____

>  <TORSDO>
F 6

$$$$
