=
 OpenBabel11052422423D

 31 35  0  0  1  0  0  0  0  0999 V2000
  161.5800  202.1780  148.5180 C   0  0  0  0  0  2  0  0  0  0  0  0
  160.6540  204.6610  151.0870 O   0  0  0  0  0  0  0  0  0  0  0  0
  161.0600  204.3010  149.7890 C   0  0  1  0  0  3  0  0  0  0  0  0
  162.0150  204.1130  147.0260 C   0  0  0  0  0  2  0  0  0  0  0  0
  160.8880  207.0700  150.3750 C   0  0  1  0  0  3  0  0  0  0  0  0
  161.3370  202.7580  147.1340 C   0  0  0  0  0  2  0  0  0  0  0  0
  161.1930  206.2430  152.8530 C   0  0  1  0  0  3  0  0  0  0  0  0
  160.0090  206.5850  149.2130 C   0  0  0  0  0  2  0  0  0  0  0  0
  161.2030  205.9240  151.3590 C   0  0  1  0  0  0  0  0  0  0  0  0
  160.7000  202.8370  149.5710 C   0  0  0  0  0  2  0  0  0  0  0  0
  160.3490  205.1680  148.7230 C   0  0  1  0  0  3  0  0  0  0  0  0
  161.0670  205.2600  147.3690 C   0  0  0  0  0  2  0  0  0  0  0  0
  162.5030  205.9160  152.1420 C   0  0  0  0  0  2  0  0  0  0  0  0
  162.0890  207.7770  149.9170 N   0  0  0  0  0  0  0  0  0  0  0  0
  161.6770  211.8540  148.7960 C   0  0  0  0  0  0  0  0  0  0  0  0
  161.5810  209.5010  148.2540 C   0  0  0  0  0  3  0  0  0  0  0  0
  162.5850  209.8940  152.1800 Cl  0  0  0  0  0  0  0  0  0  0  0  0
  161.4920  213.5280  148.3200 Cl  0  0  0  0  0  0  0  0  0  0  0  0
  161.4380  210.8360  147.8720 C   0  0  0  0  0  3  0  0  0  0  0  0
  162.1970  210.2040  150.4950 C   0  0  0  0  0  0  0  0  0  0  0  0
  161.9700  209.1660  149.5610 C   0  0  0  0  0  0  0  0  0  0  0  0
  162.0470  211.5380  150.1030 C   0  0  0  0  0  3  0  0  0  0  0  0
  163.3850  207.1010  149.8930 C   0  0  0  0  0  2  0  0  0  0  0  0
  163.7770  206.7600  148.4670 C   0  0  0  0  0  1  0  0  0  0  0  0
  161.1250  207.7370  153.1560 C   0  0  0  0  0  2  0  0  0  0  0  0
  160.7730  207.9770  154.5830 C   0  0  0  0  0  0  0  0  0  0  0  0
  160.1020  207.1170  156.7480 C   0  0  0  0  0  3  0  0  0  0  0  0
  160.4420  206.8970  155.4090 C   0  0  0  0  0  3  0  0  0  0  0  0
  160.0920  208.4180  157.2610 C   0  0  0  0  0  3  0  0  0  0  0  0
  160.4190  209.4990  156.4360 C   0  0  0  0  0  3  0  0  0  0  0  0
  160.7580  209.2780  155.0980 C   0  0  0  0  0  3  0  0  0  0  0  0
  1 10  1  0  0  0  0
  2  9  1  0  0  0  0
  3 10  1  6  0  0  0
  3  2  1  0  0  0  0
  4  6  1  0  0  0  0
  4 12  1  0  0  0  0
  5 14  1  6  0  0  0
  5  9  1  0  0  0  0
  6  1  1  0  0  0  0
  7 25  1  6  0  0  0
  8  5  1  0  0  0  0
  9 13  1  6  0  0  0
  9  7  1  0  0  0  0
 11 12  1  6  0  0  0
 11  8  1  0  0  0  0
 11  3  1  0  0  0  0
 13  7  1  0  0  0  0
 15 22  1  0  0  0  0
 16 21  2  0  0  0  0
 18 15  1  0  0  0  0
 19 16  1  0  0  0  0
 19 15  2  0  0  0  0
 20 17  1  0  0  0  0
 21 14  1  0  0  0  0
 21 20  1  0  0  0  0
 22 20  2  0  0  0  0
 23 14  1  0  0  0  0
 24 23  1  0  0  0  0
 25 26  1  0  0  0  0
 26 31  2  0  0  0  0
 26 28  1  0  0  0  0
 27 29  1  0  0  0  0
 28 27  2  0  0  0  0
 30 29  2  0  0  0  0
 31 30  1  0  0  0  0
M  END
>  <MODEL>
1

>  <REMARK>
 VINA RESULT:      -4.6      0.000      0.000
  Name = 
  5 active torsions:
  status: ('A' for Active; 'I' for Inactive)
    1  A    between atoms: C_5  and  C_30
    2  A    between atoms: C_7  and  N_9
    3  A    between atoms: N_9  and  C_15
    4  A    between atoms: N_9  and  C_22
    5  A    between atoms: C_17  and  C_30
                            x       y       z     vdW  Elec       q    Type
                         _______ _______ _______ _____ _____    ______ ____

>  <TORSDO>
F 5

$$$$
=
 OpenBabel11052422423D

 31 35  0  0  1  0  0  0  0  0999 V2000
  162.2500  209.9440  156.6210 C   0  0  0  0  0  2  0  0  0  0  0  0
  161.4750  210.7900  153.1120 O   0  0  0  0  0  0  0  0  0  0  0  0
  161.5940  209.8810  154.1790 C   0  0  1  0  0  3  0  0  0  0  0  0
  161.7940  207.5870  155.9900 C   0  0  0  0  0  2  0  0  0  0  0  0
  160.9260  208.8190  151.6360 C   0  0  1  0  0  3  0  0  0  0  0  0
  161.5150  208.6740  157.0150 C   0  0  0  0  0  2  0  0  0  0  0  0
  162.0710  211.0230  150.7660 C   0  0  1  0  0  3  0  0  0  0  0  0
  159.9120  208.5420  152.7550 C   0  0  0  0  0  2  0  0  0  0  0  0
  161.7580  210.0850  151.9320 C   0  0  1  0  0  0  0  0  0  0  0  0
  161.5520  210.6720  155.4800 C   0  0  0  0  0  2  0  0  0  0  0  0
  160.4380  208.8530  154.1660 C   0  0  1  0  0  3  0  0  0  0  0  0
  160.7250  207.5360  154.9000 C   0  0  0  0  0  2  0  0  0  0  0  0
  163.1820  210.2090  151.4220 C   0  0  0  0  0  2  0  0  0  0  0  0
  161.7550  207.6510  151.3230 N   0  0  0  0  0  0  0  0  0  0  0  0
  161.4650  205.9230  147.4530 C   0  0  0  0  0  0  0  0  0  0  0  0
  162.3040  207.6350  148.9370 C   0  0  0  0  0  3  0  0  0  0  0  0
  160.0770  205.0080  151.1080 Cl  0  0  0  0  0  0  0  0  0  0  0  0
  161.3640  205.2190  145.8540 Cl  0  0  0  0  0  0  0  0  0  0  0  0
  162.2210  207.0760  147.6610 C   0  0  0  0  0  3  0  0  0  0  0  0
  160.8740  205.8750  149.8050 C   0  0  0  0  0  0  0  0  0  0  0  0
  161.6280  207.0520  150.0210 C   0  0  0  0  0  0  0  0  0  0  0  0
  160.8010  205.3210  148.5220 C   0  0  0  0  0  3  0  0  0  0  0  0
  162.7360  207.1560  152.2880 C   0  0  0  0  0  2  0  0  0  0  0  0
  162.6130  205.6510  152.4420 C   0  0  0  0  0  1  0  0  0  0  0  0
  161.7290  210.4300  149.4010 C   0  0  0  0  0  2  0  0  0  0  0  0
  161.8510  211.4580  148.3290 C   0  0  0  0  0  0  0  0  0  0  0  0
  163.1740  213.1150  147.1570 C   0  0  0  0  0  3  0  0  0  0  0  0
  163.0580  212.1440  148.1560 C   0  0  0  0  0  3  0  0  0  0  0  0
  162.0840  213.4020  146.3300 C   0  0  0  0  0  3  0  0  0  0  0  0
  160.8760  212.7190  146.5040 C   0  0  0  0  0  3  0  0  0  0  0  0
  160.7590  211.7480  147.5030 C   0  0  0  0  0  3  0  0  0  0  0  0
  1  6  1  0  0  0  0
  2  3  1  0  0  0  0
  3 10  1  1  0  0  0
  4  6  1  0  0  0  0
  5 14  1  1  0  0  0
  5  9  1  0  0  0  0
  5  8  1  0  0  0  0
  7 25  1  6  0  0  0
  7 13  1  0  0  0  0
  7  9  1  0  0  0  0
  9 13  1  1  0  0  0
  9  2  1  0  0  0  0
 10  1  1  0  0  0  0
 11  8  1  6  0  0  0
 11  3  1  0  0  0  0
 11 12  1  0  0  0  0
 12  4  1  0  0  0  0
 14 23  1  0  0  0  0
 15 19  2  0  0  0  0
 15 22  1  0  0  0  0
 16 21  2  0  0  0  0
 18 15  1  0  0  0  0
 19 16  1  0  0  0  0
 20 21  1  0  0  0  0
 20 17  1  0  0  0  0
 21 14  1  0  0  0  0
 22 20  2  0  0  0  0
 23 24  1  0  0  0  0
 26 25  1  0  0  0  0
 27 28  2  0  0  0  0
 28 26  1  0  0  0  0
 29 30  2  0  0  0  0
 29 27  1  0  0  0  0
 30 31  1  0  0  0  0
 31 26  2  0  0  0  0
M  END
>  <MODEL>
2

>  <REMARK>
 VINA RESULT:      -4.2      2.644      7.209
  Name = 
  5 active torsions:
  status: ('A' for Active; 'I' for Inactive)
    1  A    between atoms: C_5  and  C_30
    2  A    between atoms: C_7  and  N_9
    3  A    between atoms: N_9  and  C_15
    4  A    between atoms: N_9  and  C_22
    5  A    between atoms: C_17  and  C_30
                            x       y       z     vdW  Elec       q    Type
                         _______ _______ _______ _____ _____    ______ ____

>  <TORSDO>
F 5

$$$$
=
 OpenBabel11052422423D

 31 35  0  0  1  0  0  0  0  0999 V2000
  161.8280  201.3200  150.5380 C   0  0  0  0  0  2  0  0  0  0  0  0
  161.0200  204.7160  151.7360 O   0  0  0  0  0  0  0  0  0  0  0  0
  161.2240  203.7690  150.7170 C   0  0  1  0  0  3  0  0  0  0  0  0
  161.6550  202.2560  148.2460 C   0  0  0  0  0  2  0  0  0  0  0  0
  160.7240  206.4450  149.9230 C   0  0  1  0  0  3  0  0  0  0  0  0
  161.2360  201.1120  149.1530 C   0  0  0  0  0  2  0  0  0  0  0  0
  161.6230  206.9950  152.3330 C   0  0  1  0  0  3  0  0  0  0  0  0
  159.7300  205.4020  149.3920 C   0  0  0  0  0  2  0  0  0  0  0  0
  161.4000  205.9670  151.2250 C   0  0  1  0  0  0  0  0  0  0  0  0
  161.0700  202.3810  151.3240 C   0  0  0  0  0  2  0  0  0  0  0  0
  160.1940  203.9480  149.5760 C   0  0  1  0  0  3  0  0  0  0  0  0
  160.6180  203.3770  148.2160 C   0  0  0  0  0  2  0  0  0  0  0  0
  162.8090  206.4130  151.5710 C   0  0  0  0  0  2  0  0  0  0  0  0
  161.6860  206.8770  148.9030 N   0  0  0  0  0  0  0  0  0  0  0  0
  161.1300  205.5310  144.9130 C   0  0  0  0  0  0  0  0  0  0  0  0
  160.3460  206.7270  146.8610 C   0  0  0  0  0  3  0  0  0  0  0  0
  164.0590  205.2540  147.6450 Cl  0  0  0  0  0  0  0  0  0  0  0  0
  160.8880  204.9940  143.2650 Cl  0  0  0  0  0  0  0  0  0  0  0  0
  160.1500  206.2950  145.5480 C   0  0  0  0  0  3  0  0  0  0  0  0
  162.5130  205.6340  146.9020 C   0  0  0  0  0  0  0  0  0  0  0  0
  161.5190  206.3970  147.5580 C   0  0  0  0  0  0  0  0  0  0  0  0
  162.3090  205.2090  145.5850 C   0  0  0  0  0  3  0  0  0  0  0  0
  162.7450  207.8290  149.2380 C   0  0  0  0  0  2  0  0  0  0  0  0
  162.3850  209.2160  148.7400 C   0  0  0  0  0  1  0  0  0  0  0  0
  161.3740  208.4340  151.8870 C   0  0  0  0  0  2  0  0  0  0  0  0
  160.7190  209.2220  152.9680 C   0  0  0  0  0  0  0  0  0  0  0  0
  160.1540  209.5000  155.3080 C   0  0  0  0  0  3  0  0  0  0  0  0
  160.7750  208.7690  154.2910 C   0  0  0  0  0  3  0  0  0  0  0  0
  159.4750  210.6830  155.0030 C   0  0  0  0  0  3  0  0  0  0  0  0
  159.4140  211.1360  153.6820 C   0  0  0  0  0  3  0  0  0  0  0  0
  160.0350  210.4040  152.6640 C   0  0  0  0  0  3  0  0  0  0  0  0
  1 10  1  0  0  0  0
  3 10  1  1  0  0  0
  3  2  1  0  0  0  0
  4  6  1  0  0  0  0
  5 14  1  6  0  0  0
  5  9  1  0  0  0  0
  6  1  1  0  0  0  0
  7 25  1  6  0  0  0
  8 11  1  0  0  0  0
  8  5  1  0  0  0  0
  9 13  1  6  0  0  0
  9  2  1  0  0  0  0
  9  7  1  0  0  0  0
 11 12  1  6  0  0  0
 11  3  1  0  0  0  0
 12  4  1  0  0  0  0
 13  7  1  0  0  0  0
 14 23  1  0  0  0  0
 15 19  2  0  0  0  0
 15 22  1  0  0  0  0
 16 21  2  0  0  0  0
 18 15  1  0  0  0  0
 19 16  1  0  0  0  0
 20 21  1  0  0  0  0
 20 17  1  0  0  0  0
 21 14  1  0  0  0  0
 22 20  2  0  0  0  0
 24 23  1  0  0  0  0
 25 26  1  0  0  0  0
 26 28  1  0  0  0  0
 28 27  2  0  0  0  0
 29 27  1  0  0  0  0
 30 29  2  0  0  0  0
 31 26  2  0  0  0  0
 31 30  1  0  0  0  0
M  END
>  <MODEL>
3

>  <REMARK>
 VINA RESULT:      -4.1      2.608      3.750
  Name = 
  5 active torsions:
  status: ('A' for Active; 'I' for Inactive)
    1  A    between atoms: C_5  and  C_30
    2  A    between atoms: C_7  and  N_9
    3  A    between atoms: N_9  and  C_15
    4  A    between atoms: N_9  and  C_22
    5  A    between atoms: C_17  and  C_30
                            x       y       z     vdW  Elec       q    Type
                         _______ _______ _______ _____ _____    ______ ____

>  <TORSDO>
F 5

$$$$
=
 OpenBabel11052422423D

 31 35  0  0  1  0  0  0  0  0999 V2000
  161.5210  201.3200  150.0260 C   0  0  0  0  0  2  0  0  0  0  0  0
  160.6770  204.2850  152.0570 O   0  0  0  0  0  0  0  0  0  0  0  0
  161.0270  203.6610  150.8460 C   0  0  1  0  0  3  0  0  0  0  0  0
  161.8540  202.8990  148.1400 C   0  0  0  0  0  2  0  0  0  0  0  0
  160.8390  206.4910  150.8420 C   0  0  1  0  0  3  0  0  0  0  0  0
  161.2030  201.5940  148.5650 C   0  0  0  0  0  2  0  0  0  0  0  0
  161.2740  206.2080  153.4210 C   0  0  1  0  0  3  0  0  0  0  0  0
  159.9140  205.7660  149.8540 C   0  0  0  0  0  2  0  0  0  0  0  0
  161.2190  205.5800  152.0290 C   0  0  1  0  0  0  0  0  0  0  0  0
  160.6810  202.1820  150.9600 C   0  0  0  0  0  2  0  0  0  0  0  0
  160.2530  204.2790  149.6570 C   0  0  1  0  0  3  0  0  0  0  0  0
  160.9050  204.0880  148.2800 C   0  0  0  0  0  2  0  0  0  0  0  0
  162.5530  205.7450  152.7310 C   0  0  0  0  0  2  0  0  0  0  0  0
  162.0050  207.0920  150.1860 N   0  0  0  0  0  0  0  0  0  0  0  0
  161.9010  211.2250  149.2100 C   0  0  0  0  0  0  0  0  0  0  0  0
  162.3130  209.4440  150.7900 C   0  0  0  0  0  3  0  0  0  0  0  0
  161.1950  207.7990  147.2380 Cl  0  0  0  0  0  0  0  0  0  0  0  0
  161.8740  212.9310  148.8220 Cl  0  0  0  0  0  0  0  0  0  0  0  0
  162.2880  210.8050  150.4830 C   0  0  0  0  0  3  0  0  0  0  0  0
  161.5700  208.9180  148.5400 C   0  0  0  0  0  0  0  0  0  0  0  0
  161.9480  208.4850  149.8320 C   0  0  0  0  0  0  0  0  0  0  0  0
  161.5510  210.2840  148.2410 C   0  0  0  0  0  3  0  0  0  0  0  0
  163.2190  206.3070  149.9670 C   0  0  0  0  0  2  0  0  0  0  0  0
  163.5860  206.3020  148.4940 C   0  0  0  0  0  1  0  0  0  0  0  0
  161.1970  207.7320  153.4050 C   0  0  0  0  0  2  0  0  0  0  0  0
  160.8140  208.2610  154.7440 C   0  0  0  0  0  0  0  0  0  0  0  0
  160.5070  210.1390  156.2440 C   0  0  0  0  0  3  0  0  0  0  0  0
  160.8560  209.6380  154.9870 C   0  0  0  0  0  3  0  0  0  0  0  0
  160.1150  209.2630  157.2610 C   0  0  0  0  0  3  0  0  0  0  0  0
  160.0750  207.8860  157.0220 C   0  0  0  0  0  3  0  0  0  0  0  0
  160.4260  207.3850  155.7630 C   0  0  0  0  0  3  0  0  0  0  0  0
  1 10  1  0  0  0  0
  3 10  1  1  0  0  0
  3  2  1  0  0  0  0
  4 12  1  0  0  0  0
  4  6  1  0  0  0  0
  5 14  1  6  0  0  0
  5  9  1  0  0  0  0
  6  1  1  0  0  0  0
  7 25  1  6  0  0  0
  8  5  1  0  0  0  0
  9  2  1  0  0  0  0
  9 13  1  6  0  0  0
  9  7  1  0  0  0  0
 11 12  1  6  0  0  0
 11  8  1  0  0  0  0
 11  3  1  0  0  0  0
 13  7  1  0  0  0  0
 15 19  1  0  0  0  0
 17 20  1  0  0  0  0
 18 15  1  0  0  0  0
 19 16  2  0  0  0  0
 20 21  2  0  0  0  0
 21 14  1  0  0  0  0
 21 16  1  0  0  0  0
 22 20  1  0  0  0  0
 22 15  2  0  0  0  0
 23 14  1  0  0  0  0
 24 23  1  0  0  0  0
 25 26  1  0  0  0  0
 26 28  2  0  0  0  0
 26 31  1  0  0  0  0
 27 29  2  0  0  0  0
 28 27  1  0  0  0  0
 30 29  1  0  0  0  0
 31 30  2  0  0  0  0
M  END
>  <MODEL>
4

>  <REMARK>
 VINA RESULT:      -4.1      1.304      1.851
  Name = 
  5 active torsions:
  status: ('A' for Active; 'I' for Inactive)
    1  A    between atoms: C_5  and  C_30
    2  A    between atoms: C_7  and  N_9
    3  A    between atoms: N_9  and  C_15
    4  A    between atoms: N_9  and  C_22
    5  A    between atoms: C_17  and  C_30
                            x       y       z     vdW  Elec       q    Type
                         _______ _______ _______ _____ _____    ______ ____

>  <TORSDO>
F 5

$$$$
=
 OpenBabel11052422423D

 31 35  0  0  1  0  0  0  0  0999 V2000
  160.0420  206.9580  154.4590 C   0  0  0  0  0  2  0  0  0  0  0  0
  161.3670  204.7160  151.8440 O   0  0  0  0  0  0  0  0  0  0  0  0
  161.1360  205.9890  152.3960 C   0  0  1  0  0  3  0  0  0  0  0  0
  160.8110  208.8320  153.0250 C   0  0  0  0  0  2  0  0  0  0  0  0
  162.3490  205.8850  149.8350 C   0  0  1  0  0  3  0  0  0  0  0  0
  160.8020  208.2740  154.4380 C   0  0  0  0  0  2  0  0  0  0  0  0
  161.1920  203.5240  149.7310 C   0  0  1  0  0  3  0  0  0  0  0  0
  163.1620  206.6020  150.9220 C   0  0  0  0  0  2  0  0  0  0  0  0
  161.3680  204.8620  150.4470 C   0  0  1  0  0  0  0  0  0  0  0  0
  160.8700  205.8160  153.8850 C   0  0  0  0  0  2  0  0  0  0  0  0
  162.3610  206.9130  152.1970 C   0  0  1  0  0  3  0  0  0  0  0  0
  162.0620  208.4170  152.2520 C   0  0  0  0  0  2  0  0  0  0  0  0
  160.0570  204.5410  149.7560 C   0  0  0  0  0  2  0  0  0  0  0  0
  161.6970  206.8170  148.9090 N   0  0  0  0  0  0  0  0  0  0  0  0
  161.2390  205.7410  144.8250 C   0  0  0  0  0  0  0  0  0  0  0  0
  160.3350  206.6250  146.8840 C   0  0  0  0  0  3  0  0  0  0  0  0
  164.2590  205.7120  147.4710 Cl  0  0  0  0  0  0  0  0  0  0  0  0
  161.0360  205.3120  143.1410 Cl  0  0  0  0  0  0  0  0  0  0  0  0
  160.1700  206.2790  145.5410 C   0  0  0  0  0  3  0  0  0  0  0  0
  162.6490  205.8970  146.7920 C   0  0  0  0  0  0  0  0  0  0  0  0
  161.5670  206.4310  147.5290 C   0  0  0  0  0  0  0  0  0  0  0  0
  162.4750  205.5580  145.4460 C   0  0  0  0  0  3  0  0  0  0  0  0
  161.1330  208.0750  149.3970 C   0  0  0  0  0  2  0  0  0  0  0  0
  161.8950  209.2540  148.8210 C   0  0  0  0  0  1  0  0  0  0  0  0
  161.8290  203.4880  148.3440 C   0  0  0  0  0  2  0  0  0  0  0  0
  161.4220  202.2610  147.6020 C   0  0  0  0  0  0  0  0  0  0  0  0
  161.2630  199.8470  147.4760 C   0  0  0  0  0  3  0  0  0  0  0  0
  161.6350  201.0010  148.1720 C   0  0  0  0  0  3  0  0  0  0  0  0
  160.6790  199.9510  146.2110 C   0  0  0  0  0  3  0  0  0  0  0  0
  160.4680  201.2100  145.6380 C   0  0  0  0  0  3  0  0  0  0  0  0
  160.8400  202.3640  146.3340 C   0  0  0  0  0  3  0  0  0  0  0  0
  2  3  1  0  0  0  0
  3 10  1  1  0  0  0
  4  6  1  0  0  0  0
  5 14  1  1  0  0  0
  5  9  1  0  0  0  0
  5  8  1  0  0  0  0
  6  1  1  0  0  0  0
  7 25  1  6  0  0  0
  7 13  1  0  0  0  0
  7  9  1  0  0  0  0
  9 13  1  6  0  0  0
  9  2  1  0  0  0  0
 10  1  1  0  0  0  0
 11  8  1  6  0  0  0
 11 12  1  0  0  0  0
 11  3  1  0  0  0  0
 12  4  1  0  0  0  0
 14 23  1  0  0  0  0
 15 22  2  0  0  0  0
 15 19  1  0  0  0  0
 16 21  1  0  0  0  0
 18 15  1  0  0  0  0
 19 16  2  0  0  0  0
 20 17  1  0  0  0  0
 20 21  2  0  0  0  0
 21 14  1  0  0  0  0
 22 20  1  0  0  0  0
 24 23  1  0  0  0  0
 26 28  1  0  0  0  0
 26 25  1  0  0  0  0
 27 28  2  0  0  0  0
 29 27  1  0  0  0  0
 30 29  2  0  0  0  0
 30 31  1  0  0  0  0
 31 26  2  0  0  0  0
M  END
>  <MODEL>
5

>  <REMARK>
 VINA RESULT:      -4.0      2.581      7.076
  Name = 
  5 active torsions:
  status: ('A' for Active; 'I' for Inactive)
    1  A    between atoms: C_5  and  C_30
    2  A    between atoms: C_7  and  N_9
    3  A    between atoms: N_9  and  C_15
    4  A    between atoms: N_9  and  C_22
    5  A    between atoms: C_17  and  C_30
                            x       y       z     vdW  Elec       q    Type
                         _______ _______ _______ _____ _____    ______ ____

>  <TORSDO>
F 5

$$$$
=
 OpenBabel11052422423D

 31 35  0  0  1  0  0  0  0  0999 V2000
  159.8370  209.0130  157.0150 C   0  0  0  0  0  2  0  0  0  0  0  0
  161.7590  208.0740  154.0080 O   0  0  0  0  0  0  0  0  0  0  0  0
  161.0610  209.0010  154.8020 C   0  0  1  0  0  3  0  0  0  0  0  0
  159.6250  211.2630  155.9880 C   0  0  0  0  0  2  0  0  0  0  0  0
  161.9880  209.8950  152.2760 C   0  0  1  0  0  3  0  0  0  0  0  0
  159.9690  210.5080  157.2610 C   0  0  0  0  0  2  0  0  0  0  0  0
  161.9270  207.3290  151.6980 C   0  0  1  0  0  3  0  0  0  0  0  0
  162.5110  210.6810  153.4870 C   0  0  0  0  0  2  0  0  0  0  0  0
  161.5830  208.4590  152.6690 C   0  0  1  0  0  0  0  0  0  0  0  0
  161.0170  208.4620  156.2270 C   0  0  0  0  0  2  0  0  0  0  0  0
  161.7630  210.3800  154.7970 C   0  0  1  0  0  3  0  0  0  0  0  0
  160.8650  211.5730  155.1510 C   0  0  0  0  0  2  0  0  0  0  0  0
  160.4750  207.7390  151.9230 C   0  0  0  0  0  2  0  0  0  0  0  0
  160.9300  210.6100  151.5540 N   0  0  0  0  0  0  0  0  0  0  0  0
  162.0170  212.8370  148.1030 C   0  0  0  0  0  0  0  0  0  0  0  0
  162.0160  210.7770  149.3660 C   0  0  0  0  0  3  0  0  0  0  0  0
  159.9350  213.5850  151.4540 Cl  0  0  0  0  0  0  0  0  0  0  0  0
  162.4640  213.7360  146.6700 Cl  0  0  0  0  0  0  0  0  0  0  0  0
  162.3770  211.4950  148.2250 C   0  0  0  0  0  3  0  0  0  0  0  0
  160.9240  212.7490  150.2660 C   0  0  0  0  0  0  0  0  0  0  0  0
  161.2960  211.3920  150.4030 C   0  0  0  0  0  0  0  0  0  0  0  0
  161.2870  213.4590  149.1170 C   0  0  0  0  0  3  0  0  0  0  0  0
  159.5310  210.4700  151.9570 C   0  0  0  0  0  2  0  0  0  0  0  0
  159.0380  211.7490  152.6080 C   0  0  0  0  0  1  0  0  0  0  0  0
  162.4010  207.8230  150.3340 C   0  0  0  0  0  2  0  0  0  0  0  0
  162.0610  206.8430  149.2650 C   0  0  0  0  0  0  0  0  0  0  0  0
  161.9610  206.2580  146.9150 C   0  0  0  0  0  3  0  0  0  0  0  0
  162.2870  207.1700  147.9230 C   0  0  0  0  0  3  0  0  0  0  0  0
  161.4080  205.0180  147.2480 C   0  0  0  0  0  3  0  0  0  0  0  0
  161.1790  204.6900  148.5880 C   0  0  0  0  0  3  0  0  0  0  0  0
  161.5040  205.6030  149.5960 C   0  0  0  0  0  3  0  0  0  0  0  0
  1  6  1  0  0  0  0
  2  3  1  0  0  0  0
  3 10  1  1  0  0  0
  4  6  1  0  0  0  0
  5 14  1  1  0  0  0
  5  9  1  0  0  0  0
  5  8  1  0  0  0  0
  7 25  1  6  0  0  0
  7 13  1  0  0  0  0
  7  9  1  0  0  0  0
  9 13  1  6  0  0  0
  9  2  1  0  0  0  0
 10  1  1  0  0  0  0
 11  8  1  6  0  0  0
 11  3  1  0  0  0  0
 11 12  1  0  0  0  0
 12  4  1  0  0  0  0
 14 23  1  0  0  0  0
 15 19  2  0  0  0  0
 15 22  1  0  0  0  0
 16 21  2  0  0  0  0
 18 15  1  0  0  0  0
 19 16  1  0  0  0  0
 20 21  1  0  0  0  0
 20 17  1  0  0  0  0
 21 14  1  0  0  0  0
 22 20  2  0  0  0  0
 23 24  1  0  0  0  0
 26 31  1  0  0  0  0
 26 25  1  0  0  0  0
 27 29  2  0  0  0  0
 27 28  1  0  0  0  0
 28 26  2  0  0  0  0
 29 30  1  0  0  0  0
 30 31  2  0  0  0  0
M  END
>  <MODEL>
6

>  <REMARK>
 VINA RESULT:      -3.8      2.028      6.743
  Name = 
  5 active torsions:
  status: ('A' for Active; 'I' for Inactive)
    1  A    between atoms: C_5  and  C_30
    2  A    between atoms: C_7  and  N_9
    3  A    between atoms: N_9  and  C_15
    4  A    between atoms: N_9  and  C_22
    5  A    between atoms: C_17  and  C_30
                            x       y       z     vdW  Elec       q    Type
                         _______ _______ _______ _____ _____    ______ ____

>  <TORSDO>
F 5

$$$$
=
 OpenBabel11052422423D

 31 35  0  0  1  0  0  0  0  0999 V2000
  159.5670  207.3530  155.3590 C   0  0  0  0  0  2  0  0  0  0  0  0
  161.1260  205.1280  152.8610 O   0  0  0  0  0  0  0  0  0  0  0  0
  160.8310  206.3980  153.3880 C   0  0  1  0  0  3  0  0  0  0  0  0
  160.4080  209.2360  153.9790 C   0  0  0  0  0  2  0  0  0  0  0  0
  162.2350  206.3080  150.9260 C   0  0  1  0  0  3  0  0  0  0  0  0
  160.3030  208.6830  155.3900 C   0  0  0  0  0  2  0  0  0  0  0  0
  161.1330  203.9250  150.7470 C   0  0  1  0  0  3  0  0  0  0  0  0
  162.9500  207.0440  152.0670 C   0  0  0  0  0  2  0  0  0  0  0  0
  161.2300  205.2690  151.4680 C   0  0  1  0  0  0  0  0  0  0  0  0
  160.4570  206.2250  154.8540 C   0  0  0  0  0  2  0  0  0  0  0  0
  162.0510  207.3430  153.2780 C   0  0  1  0  0  3  0  0  0  0  0  0
  161.7210  208.8430  153.3030 C   0  0  0  0  0  2  0  0  0  0  0  0
  159.9800  204.9220  150.6810 C   0  0  0  0  0  2  0  0  0  0  0  0
  161.6380  207.2250  149.9490 N   0  0  0  0  0  0  0  0  0  0  0  0
  161.2020  205.9740  145.9130 C   0  0  0  0  0  0  0  0  0  0  0  0
  160.2400  206.6100  148.0360 C   0  0  0  0  0  3  0  0  0  0  0  0
  164.2930  206.8610  148.3170 Cl  0  0  0  0  0  0  0  0  0  0  0  0
  161.0040  205.4690  144.2500 Cl  0  0  0  0  0  0  0  0  0  0  0  0
  160.0810  206.2030  146.7110 C   0  0  0  0  0  3  0  0  0  0  0  0
  162.6520  206.5670  147.7650 C   0  0  0  0  0  0  0  0  0  0  0  0
  161.5200  206.7880  148.5840 C   0  0  0  0  0  0  0  0  0  0  0  0
  162.4820  206.1630  146.4370 C   0  0  0  0  0  3  0  0  0  0  0  0
  161.1120  208.5220  150.3740 C   0  0  0  0  0  2  0  0  0  0  0  0
  161.9550  209.6470  149.8030 C   0  0  0  0  0  1  0  0  0  0  0  0
  161.8720  203.8970  149.4110 C   0  0  0  0  0  2  0  0  0  0  0  0
  161.5220  202.6750  148.6340 C   0  0  0  0  0  0  0  0  0  0  0  0
  160.8350  201.6430  146.5520 C   0  0  0  0  0  3  0  0  0  0  0  0
  161.1730  202.7850  147.2840 C   0  0  0  0  0  3  0  0  0  0  0  0
  160.8450  200.3890  147.1710 C   0  0  0  0  0  3  0  0  0  0  0  0
  161.1900  200.2770  148.5210 C   0  0  0  0  0  3  0  0  0  0  0  0
  161.5280  201.4200  149.2530 C   0  0  0  0  0  3  0  0  0  0  0  0
  1  6  1  0  0  0  0
  2  3  1  0  0  0  0
  3 10  1  1  0  0  0
  4  6  1  0  0  0  0
  5 14  1  1  0  0  0
  5  9  1  0  0  0  0
  5  8  1  0  0  0  0
  7 25  1  6  0  0  0
  7  9  1  0  0  0  0
  9 13  1  6  0  0  0
  9  2  1  0  0  0  0
 10  1  1  0  0  0  0
 11  8  1  6  0  0  0
 11 12  1  0  0  0  0
 11  3  1  0  0  0  0
 12  4  1  0  0  0  0
 13  7  1  0  0  0  0
 14 23  1  0  0  0  0
 15 22  2  0  0  0  0
 15 19  1  0  0  0  0
 16 21  1  0  0  0  0
 18 15  1  0  0  0  0
 19 16  2  0  0  0  0
 20 17  1  0  0  0  0
 20 21  2  0  0  0  0
 21 14  1  0  0  0  0
 22 20  1  0  0  0  0
 24 23  1  0  0  0  0
 26 31  1  0  0  0  0
 26 25  1  0  0  0  0
 27 29  2  0  0  0  0
 27 28  1  0  0  0  0
 28 26  2  0  0  0  0
 29 30  1  0  0  0  0
 30 31  2  0  0  0  0
M  END
>  <MODEL>
7

>  <REMARK>
 VINA RESULT:      -2.7      2.248      6.809
  Name = 
  5 active torsions:
  status: ('A' for Active; 'I' for Inactive)
    1  A    between atoms: C_5  and  C_30
    2  A    between atoms: C_7  and  N_9
    3  A    between atoms: N_9  and  C_15
    4  A    between atoms: N_9  and  C_22
    5  A    between atoms: C_17  and  C_30
                            x       y       z     vdW  Elec       q    Type
                         _______ _______ _______ _____ _____    ______ ____

>  <TORSDO>
F 5

$$$$
=
 OpenBabel11052422423D

 31 35  0  0  1  0  0  0  0  0999 V2000
  159.3410  207.9350  156.1010 C   0  0  0  0  0  2  0  0  0  0  0  0
  161.2860  205.7090  153.8900 O   0  0  0  0  0  0  0  0  0  0  0  0
  160.7150  206.9510  154.2190 C   0  0  1  0  0  3  0  0  0  0  0  0
  159.6430  209.6750  154.3560 C   0  0  0  0  0  2  0  0  0  0  0  0
  161.9940  206.7370  151.6970 C   0  0  1  0  0  3  0  0  0  0  0  0
  159.7340  209.3810  155.8440 C   0  0  0  0  0  2  0  0  0  0  0  0
  161.4950  204.1730  152.0160 C   0  0  1  0  0  3  0  0  0  0  0  0
  162.5580  207.8140  152.6340 C   0  0  0  0  0  2  0  0  0  0  0  0
  161.2940  205.6120  152.4890 C   0  0  1  0  0  0  0  0  0  0  0  0
  160.4550  206.9700  155.7200 C   0  0  0  0  0  2  0  0  0  0  0  0
  161.6640  208.1160  153.8480 C   0  0  1  0  0  3  0  0  0  0  0  0
  160.9820  209.4770  153.6480 C   0  0  0  0  0  2  0  0  0  0  0  0
  160.1330  204.8480  151.8810 C   0  0  0  0  0  2  0  0  0  0  0  0
  161.1520  207.2960  150.6340 N   0  0  0  0  0  0  0  0  0  0  0  0
  162.2330  211.0900  149.0590 C   0  0  0  0  0  0  0  0  0  0  0  0
  161.2000  209.7400  150.7750 C   0  0  0  0  0  3  0  0  0  0  0  0
  162.7610  207.2700  147.9390 Cl  0  0  0  0  0  0  0  0  0  0  0  0
  162.6800  212.6610  148.4290 Cl  0  0  0  0  0  0  0  0  0  0  0  0
  161.5520  210.9930  150.2720 C   0  0  0  0  0  3  0  0  0  0  0  0
  162.2220  208.6740  148.8480 C   0  0  0  0  0  0  0  0  0  0  0  0
  161.5190  208.5680  150.0700 C   0  0  0  0  0  0  0  0  0  0  0  0
  162.5730  209.9350  148.3540 C   0  0  0  0  0  3  0  0  0  0  0  0
  160.0120  206.5420  150.1160 C   0  0  0  0  0  2  0  0  0  0  0  0
  160.1540  206.3330  148.6190 C   0  0  0  0  0  1  0  0  0  0  0  0
  162.1620  204.0710  150.6470 C   0  0  0  0  0  2  0  0  0  0  0  0
  161.4810  203.0540  149.7970 C   0  0  0  0  0  0  0  0  0  0  0  0
  160.2240  200.9920  149.6000 C   0  0  0  0  0  3  0  0  0  0  0  0
  160.8560  201.9540  150.3940 C   0  0  0  0  0  3  0  0  0  0  0  0
  160.2170  201.1290  148.2090 C   0  0  0  0  0  3  0  0  0  0  0  0
  160.8440  202.2260  147.6100 C   0  0  0  0  0  3  0  0  0  0  0  0
  161.4770  203.1870  148.4040 C   0  0  0  0  0  3  0  0  0  0  0  0
  2  3  1  0  0  0  0
  3 10  1  1  0  0  0
  4  6  1  0  0  0  0
  5 14  1  6  0  0  0
  5  9  1  0  0  0  0
  5  8  1  0  0  0  0
  6  1  1  0  0  0  0
  7 25  1  6  0  0  0
  7  9  1  0  0  0  0
  9 13  1  6  0  0  0
  9  2  1  0  0  0  0
 10  1  1  0  0  0  0
 11  8  1  6  0  0  0
 11  3  1  0  0  0  0
 12 11  1  0  0  0  0
 12  4  1  0  0  0  0
 13  7  1  0  0  0  0
 15 19  1  0  0  0  0
 17 20  1  0  0  0  0
 18 15  1  0  0  0  0
 19 16  2  0  0  0  0
 20 21  2  0  0  0  0
 21 14  1  0  0  0  0
 21 16  1  0  0  0  0
 22 20  1  0  0  0  0
 22 15  2  0  0  0  0
 23 14  1  0  0  0  0
 24 23  1  0  0  0  0
 26 28  1  0  0  0  0
 26 25  1  0  0  0  0
 27 28  2  0  0  0  0
 29 27  1  0  0  0  0
 30 29  2  0  0  0  0
 30 31  1  0  0  0  0
 31 26  2  0  0  0  0
M  END
>  <MODEL>
8

>  <REMARK>
 VINA RESULT:      -2.6      1.582      6.126
  Name = 
  5 active torsions:
  status: ('A' for Active; 'I' for Inactive)
    1  A    between atoms: C_5  and  C_30
    2  A    between atoms: C_7  and  N_9
    3  A    between atoms: N_9  and  C_15
    4  A    between atoms: N_9  and  C_22
    5  A    between atoms: C_17  and  C_30
                            x       y       z     vdW  Elec       q    Type
                         _______ _______ _______ _____ _____    ______ ____

>  <TORSDO>
F 5

$$$$
=
 OpenBabel11052422423D

 31 35  0  0  1  0  0  0  0  0999 V2000
  159.3470  202.8610  144.1330 C   0  0  0  0  0  2  0  0  0  0  0  0
  161.2710  205.3360  146.0800 O   0  0  0  0  0  0  0  0  0  0  0  0
  160.6860  204.0690  145.9050 C   0  0  1  0  0  3  0  0  0  0  0  0
  159.5700  201.3680  146.1020 C   0  0  0  0  0  2  0  0  0  0  0  0
  161.9010  204.6030  148.4110 C   0  0  1  0  0  3  0  0  0  0  0  0
  159.7060  201.4570  144.5920 C   0  0  0  0  0  2  0  0  0  0  0  0
  161.4560  207.1070  147.7370 C   0  0  1  0  0  3  0  0  0  0  0  0
  162.4700  203.4010  147.6440 C   0  0  0  0  0  2  0  0  0  0  0  0
  161.2430  205.6210  147.4550 C   0  0  1  0  0  0  0  0  0  0  0  0
  160.4670  203.8530  144.4130 C   0  0  0  0  0  2  0  0  0  0  0  0
  161.6040  202.9520  146.4560 C   0  0  1  0  0  3  0  0  0  0  0  0
  160.8930  201.6400  146.8160 C   0  0  0  0  0  2  0  0  0  0  0  0
  160.0800  206.4760  147.9210 C   0  0  0  0  0  2  0  0  0  0  0  0
  161.0210  204.2040  149.5140 N   0  0  0  0  0  0  0  0  0  0  0  0
  161.2910  206.2940  153.2030 C   0  0  0  0  0  0  0  0  0  0  0  0
  160.4570  206.1100  150.9420 C   0  0  0  0  0  3  0  0  0  0  0  0
  162.7030  202.8180  151.7730 Cl  0  0  0  0  0  0  0  0  0  0  0  0
  161.3830  207.1630  154.7190 Cl  0  0  0  0  0  0  0  0  0  0  0  0
  160.5330  206.8070  152.1500 C   0  0  0  0  0  3  0  0  0  0  0  0
  161.8960  204.3770  151.8470 C   0  0  0  0  0  0  0  0  0  0  0  0
  161.1410  204.8970  150.7700 C   0  0  0  0  0  0  0  0  0  0  0  0
  161.9620  205.0800  153.0540 C   0  0  0  0  0  3  0  0  0  0  0  0
  160.0010  203.1750  149.3150 C   0  0  0  0  0  2  0  0  0  0  0  0
  160.3710  201.9110  150.0690 C   0  0  0  0  0  1  0  0  0  0  0  0
  162.0880  207.3830  149.0990 C   0  0  0  0  0  2  0  0  0  0  0  0
  162.0350  208.8350  149.4270 C   0  0  0  0  0  0  0  0  0  0  0  0
  161.9560  211.1450  148.6990 C   0  0  0  0  0  3  0  0  0  0  0  0
  161.9970  209.7810  148.3970 C   0  0  0  0  0  3  0  0  0  0  0  0
  161.9530  211.5650  150.0320 C   0  0  0  0  0  3  0  0  0  0  0  0
  161.9930  210.6220  151.0640 C   0  0  0  0  0  3  0  0  0  0  0  0
  162.0350  209.2580  150.7610 C   0  0  0  0  0  3  0  0  0  0  0  0
  1 10  1  0  0  0  0
  1  6  1  0  0  0  0
  2  9  1  0  0  0  0
  3 10  1  6  0  0  0
  3  2  1  0  0  0  0
  3 11  1  0  0  0  0
  4 12  1  0  0  0  0
  5 14  1  1  0  0  0
  6  4  1  0  0  0  0
  7 13  1  0  0  0  0
  7 25  1  1  0  0  0
  8  5  1  0  0  0  0
  9  7  1  0  0  0  0
  9 13  1  1  0  0  0
  9  5  1  0  0  0  0
 11 12  1  1  0  0  0
 11  8  1  0  0  0  0
 14 21  1  0  0  0  0
 15 18  1  0  0  0  0
 16 19  1  0  0  0  0
 17 20  1  0  0  0  0
 19 15  2  0  0  0  0
 20 22  2  0  0  0  0
 21 16  2  0  0  0  0
 21 20  1  0  0  0  0
 22 15  1  0  0  0  0
 23 14  1  0  0  0  0
 23 24  1  0  0  0  0
 25 26  1  0  0  0  0
 26 31  1  0  0  0  0
 27 29  2  0  0  0  0
 28 27  1  0  0  0  0
 28 26  2  0  0  0  0
 29 30  1  0  0  0  0
 31 30  2  0  0  0  0
M  END
>  <MODEL>
9

>  <REMARK>
 VINA RESULT:      -2.4      2.811      5.601
  Name = 
  5 active torsions:
  status: ('A' for Active; 'I' for Inactive)
    1  A    between atoms: C_5  and  C_30
    2  A    between atoms: C_7  and  N_9
    3  A    between atoms: N_9  and  C_15
    4  A    between atoms: N_9  and  C_22
    5  A    between atoms: C_17  and  C_30
                            x       y       z     vdW  Elec       q    Type
                         _______ _______ _______ _____ _____    ______ ____

>  <TORSDO>
F 5

$$$$
