=
 OpenBabel11052422533D

 28 33  0  0  1  0  0  0  0  0999 V2000
  161.0280  203.5950  148.2780 C   0  0  2  0  0  3  0  0  0  0  0  0
  160.5570  204.6620  147.2580 C   0  0  1  0  0  3  0  0  0  0  0  0
  160.8210  206.4620  149.0780 C   0  0  2  0  0  3  0  0  0  0  0  0
  160.9470  207.6900  152.9930 C   0  0  0  0  0  3  0  0  0  0  0  0
  161.9940  200.8570  150.0590 O   0  0  0  0  0  1  0  0  0  0  0  0
  161.5750  205.3870  145.1040 O   0  0  0  0  0  0  0  0  0  0  0  0
  161.0340  206.0940  147.6040 C   0  0  1  0  0  3  0  0  0  0  0  0
  161.5670  203.0700  145.5600 N   0  0  0  0  0  1  0  0  0  0  0  0
  162.0520  209.4660  150.7610 C   0  0  0  0  0  3  0  0  0  0  0  0
  161.4700  205.8090  151.4940 C   0  0  2  0  0  3  0  0  0  0  0  0
  160.8830  204.3420  145.7630 C   0  0  1  0  0  3  0  0  0  0  0  0
  161.8570  209.9680  153.1970 C   0  0  0  0  0  0  0  0  0  0  0  0
  161.2930  207.2910  151.7620 C   0  0  0  0  0  0  0  0  0  0  0  0
  161.3300  207.7670  149.3350 O   0  0  0  0  0  0  0  0  0  0  0  0
  162.4200  210.1650  152.0070 C   0  0  0  0  0  3  0  0  0  0  0  0
  161.3020  203.0450  150.7490 C   0  0  1  0  0  3  0  0  0  0  0  0
  161.4900  205.4260  149.9820 C   0  0  1  0  0  3  0  0  0  0  0  0
  161.5380  208.2330  150.6340 C   0  0  0  0  0  0  0  0  0  0  0  0
  159.8200  201.5480  149.3150 C   0  0  0  0  0  2  0  0  0  0  0  0
  160.8580  203.4330  152.1660 C   0  0  0  0  0  2  0  0  0  0  0  0
  160.8750  201.6090  150.4220 C   0  0  1  0  0  3  0  0  0  0  0  0
  162.7660  205.6400  145.8140 C   0  0  0  0  0  2  0  0  0  0  0  0
  162.3100  210.6700  154.2630 F   0  0  0  0  0  0  0  0  0  0  0  0
  160.6560  209.1050  153.3640 C   0  0  0  0  0  2  0  0  0  0  0  0
  160.5130  204.9230  152.3120 C   0  0  0  0  0  2  0  0  0  0  0  0
  160.2820  202.2650  148.0380 C   0  0  0  0  0  2  0  0  0  0  0  0
  160.8220  204.0760  149.7190 C   0  0  1  0  0  3  0  0  0  0  0  0
  162.4760  206.3450  147.1420 C   0  0  0  0  0  2  0  0  0  0  0  0
  1 26  1  1  0  0  0
  1 27  1  0  0  0  0
  2  7  1  0  0  0  0
  2  1  1  0  0  0  0
  3 14  1  0  0  0  0
  3 17  1  0  0  0  0
  4 24  1  0  0  0  0
  5 21  1  0  0  0  0
  6 11  1  0  0  0  0
  6 22  1  0  0  0  0
  7  3  1  0  0  0  0
  8 11  1  0  0  0  0
  9 15  1  0  0  0  0
 10 13  1  0  0  0  0
 10 25  1  0  0  0  0
 11  2  1  0  0  0  0
 12 24  1  0  0  0  0
 12 23  1  0  0  0  0
 13  4  2  0  0  0  0
 14 18  1  0  0  0  0
 15 12  2  0  0  0  0
 16 20  1  0  0  0  0
 17 10  1  0  0  0  0
 18  9  2  0  0  0  0
 18 13  1  0  0  0  0
 19 21  1  0  0  0  0
 20 25  1  0  0  0  0
 21 16  1  0  0  0  0
 22 28  1  0  0  0  0
 26 19  1  0  0  0  0
 27 17  1  0  0  0  0
 27 16  1  0  0  0  0
 28  7  1  0  0  0  0
M  END
>  <MODEL>
1

>  <REMARK>
 VINA RESULT:     -10.8      0.000      0.000
  Name = 
  0 active torsions:
  status: ('A' for Active; 'I' for Inactive)
                            x       y       z     vdW  Elec       q    Type
                         _______ _______ _______ _____ _____    ______ ____

>  <TORSDO>
F 0

$$$$
=
 OpenBabel11052422533D

 28 33  0  0  1  0  0  0  0  0999 V2000
  161.1860  204.0690  147.7350 C   0  0  2  0  0  3  0  0  0  0  0  0
  161.7810  202.9760  148.6600 C   0  0  1  0  0  3  0  0  0  0  0  0
  161.6660  204.6330  150.6260 C   0  0  2  0  0  3  0  0  0  0  0  0
  161.5900  208.4270  152.1910 C   0  0  0  0  0  3  0  0  0  0  0  0
  159.9160  206.0440  145.2690 O   0  0  0  0  0  1  0  0  0  0  0  0
  160.8830  200.7430  149.2950 O   0  0  0  0  0  0  0  0  0  0  0  0
  161.4440  203.1890  150.1560 C   0  0  1  0  0  3  0  0  0  0  0  0
  160.6490  201.3900  147.0350 N   0  0  0  0  0  1  0  0  0  0  0  0
  160.7120  206.0250  153.8700 C   0  0  0  0  0  3  0  0  0  0  0  0
  160.9080  207.0750  150.2490 C   0  0  2  0  0  3  0  0  0  0  0  0
  161.4530  201.5050  148.2470 C   0  0  1  0  0  3  0  0  0  0  0  0
  160.9110  208.4150  154.5560 C   0  0  0  0  0  0  0  0  0  0  0  0
  161.2290  207.2240  151.7250 C   0  0  0  0  0  0  0  0  0  0  0  0
  161.2860  204.7660  151.9920 O   0  0  0  0  0  0  0  0  0  0  0  0
  160.3930  207.1980  154.7050 C   0  0  0  0  0  3  0  0  0  0  0  0
  160.8120  206.5680  147.4290 C   0  0  1  0  0  3  0  0  0  0  0  0
  160.8790  205.6010  149.7420 C   0  0  1  0  0  3  0  0  0  0  0  0
  161.1010  206.0150  152.5860 C   0  0  0  0  0  0  0  0  0  0  0  0
  162.1620  205.3050  145.6750 C   0  0  0  0  0  2  0  0  0  0  0  0
  161.2660  207.9600  147.8910 C   0  0  0  0  0  2  0  0  0  0  0  0
  161.0980  206.3740  145.9350 C   0  0  1  0  0  3  0  0  0  0  0  0
  159.7100  201.3960  149.7240 C   0  0  0  0  0  2  0  0  0  0  0  0
  160.5100  209.4060  155.3880 F   0  0  0  0  0  0  0  0  0  0  0  0
  162.0150  208.6860  153.5960 C   0  0  0  0  0  2  0  0  0  0  0  0
  161.7560  207.9910  149.3460 C   0  0  0  0  0  2  0  0  0  0  0  0
  161.7980  203.9600  146.3220 C   0  0  0  0  0  2  0  0  0  0  0  0
  161.4120  205.4700  148.3150 C   0  0  1  0  0  3  0  0  0  0  0  0
  160.0440  202.6680  150.5070 C   0  0  0  0  0  2  0  0  0  0  0  0
  1 26  1  6  0  0  0
  1 27  1  0  0  0  0
  1  2  1  0  0  0  0
  2  7  1  0  0  0  0
  3 14  1  0  0  0  0
  4 24  1  0  0  0  0
  5 21  1  0  0  0  0
  6 22  1  0  0  0  0
  7 28  1  0  0  0  0
  7  3  1  0  0  0  0
  8 11  1  0  0  0  0
  9 15  1  0  0  0  0
 10 13  1  0  0  0  0
 11  2  1  0  0  0  0
 11  6  1  0  0  0  0
 12 15  2  0  0  0  0
 12 23  1  0  0  0  0
 13  4  2  0  0  0  0
 13 18  1  0  0  0  0
 14 18  1  0  0  0  0
 16 20  1  0  0  0  0
 16 27  1  0  0  0  0
 17 10  1  0  0  0  0
 17  3  1  0  0  0  0
 18  9  2  0  0  0  0
 19 21  1  0  0  0  0
 19 26  1  0  0  0  0
 20 25  1  0  0  0  0
 21 16  1  0  0  0  0
 22 28  1  0  0  0  0
 24 12  1  0  0  0  0
 25 10  1  0  0  0  0
 27 17  1  0  0  0  0
M  END
>  <MODEL>
2

>  <REMARK>
 VINA RESULT:     -10.3      1.561      4.114
  Name = 
  0 active torsions:
  status: ('A' for Active; 'I' for Inactive)
                            x       y       z     vdW  Elec       q    Type
                         _______ _______ _______ _____ _____    ______ ____

>  <TORSDO>
F 0

$$$$
=
 OpenBabel11052422533D

 28 33  0  0  1  0  0  0  0  0999 V2000
  161.2990  204.2100  149.1480 C   0  0  2  0  0  3  0  0  0  0  0  0
  160.8020  205.2880  148.1520 C   0  0  1  0  0  3  0  0  0  0  0  0
  160.8760  207.0230  150.0530 C   0  0  2  0  0  3  0  0  0  0  0  0
  160.7660  208.0890  154.0150 C   0  0  0  0  0  3  0  0  0  0  0  0
  162.3650  201.4650  150.8590 O   0  0  0  0  0  1  0  0  0  0  0  0
  161.8570  206.1660  146.0750 O   0  0  0  0  0  0  0  0  0  0  0  0
  161.1720  206.7310  148.5750 C   0  0  1  0  0  3  0  0  0  0  0  0
  161.9790  203.8350  146.4370 N   0  0  0  0  0  1  0  0  0  0  0  0
  161.8440  210.0230  151.9050 C   0  0  0  0  0  3  0  0  0  0  0  0
  161.4680  206.3090  152.4660 C   0  0  2  0  0  3  0  0  0  0  0  0
  161.2080  205.0530  146.6620 C   0  0  1  0  0  3  0  0  0  0  0  0
  161.5190  210.4080  154.3480 C   0  0  0  0  0  0  0  0  0  0  0  0
  161.1860  207.7650  152.7840 C   0  0  0  0  0  0  0  0  0  0  0  0
  161.2900  208.3450  150.3830 O   0  0  0  0  0  0  0  0  0  0  0  0
  162.1160  210.6900  153.1920 C   0  0  0  0  0  3  0  0  0  0  0  0
  161.5070  203.5740  151.6050 C   0  0  1  0  0  3  0  0  0  0  0  0
  161.5730  205.9930  150.9420 C   0  0  1  0  0  3  0  0  0  0  0  0
  161.4160  208.7670  151.7060 C   0  0  0  0  0  0  0  0  0  0  0  0
  160.1840  202.0490  150.0500 C   0  0  0  0  0  2  0  0  0  0  0  0
  160.9820  203.8730  153.0160 C   0  0  0  0  0  2  0  0  0  0  0  0
  161.1870  202.1290  151.2030 C   0  0  1  0  0  3  0  0  0  0  0  0
  163.0000  206.4620  146.8440 C   0  0  0  0  0  2  0  0  0  0  0  0
  161.8830  211.0910  155.4590 F   0  0  0  0  0  0  0  0  0  0  0  0
  160.3700  209.4660  154.4290 C   0  0  0  0  0  2  0  0  0  0  0  0
  160.5370  205.3310  153.2060 C   0  0  0  0  0  2  0  0  0  0  0  0
  160.6500  202.8470  148.8240 C   0  0  0  0  0  2  0  0  0  0  0  0
  161.0040  204.6160  150.5980 C   0  0  1  0  0  3  0  0  0  0  0  0
  162.6120  207.0900  148.1850 C   0  0  0  0  0  2  0  0  0  0  0  0
  1 26  1  6  0  0  0
  1 27  1  0  0  0  0
  2  7  1  0  0  0  0
  2  1  1  0  0  0  0
  3 14  1  0  0  0  0
  3 17  1  0  0  0  0
  4 24  1  0  0  0  0
  5 21  1  0  0  0  0
  6 11  1  0  0  0  0
  6 22  1  0  0  0  0
  7  3  1  0  0  0  0
  8 11  1  0  0  0  0
  9 15  1  0  0  0  0
 10 13  1  0  0  0  0
 10 25  1  0  0  0  0
 11  2  1  0  0  0  0
 12 24  1  0  0  0  0
 12 23  1  0  0  0  0
 13  4  2  0  0  0  0
 14 18  1  0  0  0  0
 15 12  2  0  0  0  0
 16 20  1  0  0  0  0
 17 10  1  0  0  0  0
 18  9  2  0  0  0  0
 18 13  1  0  0  0  0
 19 21  1  0  0  0  0
 20 25  1  0  0  0  0
 21 16  1  0  0  0  0
 22 28  1  0  0  0  0
 26 19  1  0  0  0  0
 27 17  1  0  0  0  0
 27 16  1  0  0  0  0
 28  7  1  0  0  0  0
M  END
>  <MODEL>
3

>  <REMARK>
 VINA RESULT:      -8.8      1.019      1.155
  Name = 
  0 active torsions:
  status: ('A' for Active; 'I' for Inactive)
                            x       y       z     vdW  Elec       q    Type
                         _______ _______ _______ _____ _____    ______ ____

>  <TORSDO>
F 0

$$$$
