=
 OpenBabel11062410273D

 43 48  0  0  1  0  0  0  0  0999 V2000
  161.0130  204.1450  149.3540 C   0  0  0  0  0  0  0  0  0  0  0  0
  161.3700  208.4370  152.0870 C   0  0  0  0  0  0  0  0  0  0  0  0
  161.6940  209.2310  149.7250 C   0  0  0  0  0  3  0  0  0  0  0  0
  161.2030  205.7750  151.1740 C   0  0  0  0  0  0  0  0  0  0  0  0
  161.0690  205.0870  148.4130 C   0  0  0  0  0  3  0  0  0  0  0  0
  160.8470  202.7210  148.9630 C   0  0  0  0  0  1  0  0  0  0  0  0
  161.2510  206.8330  150.2360 C   0  0  0  0  0  0  0  0  0  0  0  0
  161.0990  204.5040  150.7770 C   0  0  0  0  0  3  0  0  0  0  0  0
  161.2500  206.5430  148.7470 C   0  0  0  0  0  3  0  0  0  0  0  0
  161.6480  210.5290  150.0310 C   0  0  0  0  0  0  0  0  0  0  0  0
  161.3540  208.1660  150.6930 C   0  0  0  0  0  0  0  0  0  0  0  0
  161.3670  207.3600  152.9880 C   0  0  0  0  0  3  0  0  0  0  0  0
  161.4190  209.7040  152.5510 C   0  0  1  0  0  3  0  0  0  0  0  0
  160.8470  211.0730  151.5340 S   0  0  0  0  0  0  0  0  0  0  0  0
  161.2800  206.0470  152.5380 C   0  0  0  0  0  3  0  0  0  0  0  0
  162.1530  211.5610  149.0700 C   0  0  1  0  0  3  0  0  0  0  0  0
  163.4260  211.2110  148.6220 O   0  0  0  0  0  1  0  0  0  0  0  0
  161.2200  211.7400  147.8780 C   0  0  0  0  0  2  0  0  0  0  0  0
  161.9750  214.2820  147.4100 O   0  0  0  0  0  0  0  0  0  0  0  0
  160.7500  213.4500  147.6660 S   0  0  0  0  0  0  0  0  0  0  0  0
  160.0780  213.9190  148.9280 O   0  0  0  0  0  0  0  0  0  0  0  0
  159.6500  213.6060  146.3240 N   0  0  0  0  0  0  0  0  0  0  0  0
  160.1470  213.6280  144.9730 C   0  0  0  0  0  0  0  0  0  0  0  0
  159.4650  214.1590  144.0560 O   0  0  0  0  0  0  0  0  0  0  0  0
  157.3520  212.9630  145.7800 C   0  0  0  0  0  2  0  0  0  0  0  0
  158.2390  213.9000  146.5860 C   0  0  0  0  0  3  0  0  0  0  0  0
  157.5670  212.7080  147.2520 C   0  0  0  0  0  2  0  0  0  0  0  0
  161.4420  212.9700  144.6170 C   0  0  0  0  0  2  0  0  0  0  0  0
  161.4580  212.6100  143.1710 C   0  0  0  0  0  0  0  0  0  0  0  0
  162.4310  212.8330  140.9610 C   0  0  0  0  0  3  0  0  0  0  0  0
  160.4670  211.4520  141.2840 C   0  0  0  0  0  3  0  0  0  0  0  0
  161.4470  211.9850  140.4410 C   0  0  0  0  0  3  0  0  0  0  0  0
  160.4720  211.7650  142.6470 C   0  0  0  0  0  3  0  0  0  0  0  0
  162.4360  213.1460  142.3240 C   0  0  0  0  0  3  0  0  0  0  0  0
  161.7120  210.0170  153.9880 C   0  0  0  0  0  2  0  0  0  0  0  0
  158.4100  210.7540  155.5180 C   0  0  0  0  0  2  0  0  0  0  0  0
  158.9050  211.5010  156.7550 C   0  0  1  0  0  3  0  0  0  0  0  0
  161.1900  211.4520  155.7600 C   0  0  0  0  0  2  0  0  0  0  0  0
  159.5580  209.9490  154.9150 C   0  0  0  0  0  2  0  0  0  0  0  0
  160.6530  210.8450  154.5430 N   0  0  0  0  0  0  0  0  0  0  0  0
  160.1320  212.3420  156.4090 C   0  0  0  0  0  2  0  0  0  0  0  0
  157.5310  213.3030  156.2010 C   0  0  0  0  0  1  0  0  0  0  0  0
  157.8510  212.3620  157.2600 N   0  0  0  0  0  2  0  0  0  0  0  0
  1  8  1  0  0  0  0
  2 13  1  0  0  0  0
  2 12  1  0  0  0  0
  3 10  2  0  0  0  0
  3 11  1  0  0  0  0
  4 15  1  0  0  0  0
  5  9  1  0  0  0  0
  5  1  2  0  0  0  0
  6  1  1  0  0  0  0
  7 11  1  0  0  0  0
  7  4  1  0  0  0  0
  8  4  2  0  0  0  0
  9  7  2  0  0  0  0
 10 14  1  0  0  0  0
 11  2  2  0  0  0  0
 13 35  1  1  0  0  0
 14 13  1  0  0  0  0
 15 12  2  0  0  0  0
 16 17  1  6  0  0  0
 16 10  1  0  0  0  0
 18 16  1  0  0  0  0
 19 20  2  0  0  0  0
 20 18  1  0  0  0  0
 20 21  2  0  0  0  0
 22 26  1  0  0  0  0
 22 20  1  0  0  0  0
 23 22  1  0  0  0  0
 24 23  2  0  0  0  0
 25 26  1  0  0  0  0
 25 27  1  0  0  0  0
 26 27  1  0  0  0  0
 28 23  1  0  0  0  0
 29 28  1  0  0  0  0
 30 34  1  0  0  0  0
 31 33  2  0  0  0  0
 32 30  2  0  0  0  0
 32 31  1  0  0  0  0
 33 29  1  0  0  0  0
 34 29  2  0  0  0  0
 35 40  1  0  0  0  0
 36 37  1  0  0  0  0
 37 43  1  6  0  0  0
 38 41  1  0  0  0  0
 39 36  1  0  0  0  0
 40 39  1  0  0  0  0
 40 38  1  0  0  0  0
 41 37  1  0  0  0  0
 42 43  1  0  0  0  0
M  END
>  <MODEL>
1

>  <REMARK>
 VINA RESULT:      -7.8      0.000      0.000
  Name = 
  10 active torsions:
  status: ('A' for Active; 'I' for Inactive)
    1  A    between atoms: C_1  and  C_34
    2  A    between atoms: C_1  and  N_35
    3  A    between atoms: C_2  and  C_6
    4  A    between atoms: C_2  and  C_27
    5  A    between atoms: N_4  and  S_12
    6  A    between atoms: N_4  and  C_15
    7  A    between atoms: C_6  and  S_12
    8  A    between atoms: C_11  and  C_14
    9  A    between atoms: C_14  and  C_22
   10  A    between atoms: C_19  and  N_37
                            x       y       z     vdW  Elec       q    Type
                         _______ _______ _______ _____ _____    ______ ____

>  <TORSDO>
F 10

$$$$
=
 OpenBabel11062410273D

 43 48  0  0  1  0  0  0  0  0999 V2000
  160.9570  201.8050  146.6900 C   0  0  0  0  0  0  0  0  0  0  0  0
  161.1430  205.0140  150.6510 C   0  0  0  0  0  0  0  0  0  0  0  0
  161.8070  206.4610  148.7070 C   0  0  0  0  0  3  0  0  0  0  0  0
  160.9800  202.7800  148.9370 C   0  0  0  0  0  0  0  0  0  0  0  0
  161.1770  202.9810  146.1030 C   0  0  0  0  0  3  0  0  0  0  0  0
  160.7810  200.5870  145.8570 C   0  0  0  0  0  1  0  0  0  0  0  0
  161.1970  204.0660  148.3900 C   0  0  0  0  0  0  0  0  0  0  0  0
  160.8730  201.7040  148.1550 C   0  0  0  0  0  3  0  0  0  0  0  0
  161.3770  204.2450  146.8940 C   0  0  0  0  0  3  0  0  0  0  0  0
  161.7780  207.6030  149.3960 C   0  0  0  0  0  0  0  0  0  0  0  0
  161.2970  205.1840  149.2490 C   0  0  0  0  0  0  0  0  0  0  0  0
  160.9760  203.7170  151.1630 C   0  0  0  0  0  3  0  0  0  0  0  0
  161.1870  206.0710  151.4900 C   0  0  1  0  0  3  0  0  0  0  0  0
  160.8130  207.7270  150.8970 S   0  0  0  0  0  0  0  0  0  0  0  0
  160.8910  202.6160  150.3180 C   0  0  0  0  0  3  0  0  0  0  0  0
  162.4490  208.8340  148.8690 C   0  0  1  0  0  3  0  0  0  0  0  0
  163.3900  208.4850  147.9000 O   0  0  0  0  0  1  0  0  0  0  0  0
  161.4490  209.8230  148.2800 C   0  0  0  0  0  2  0  0  0  0  0  0
  163.1010  211.9500  148.2340 O   0  0  0  0  0  0  0  0  0  0  0  0
  161.7910  211.4930  148.8140 S   0  0  0  0  0  0  0  0  0  0  0  0
  161.8740  211.5060  150.3150 O   0  0  0  0  0  0  0  0  0  0  0  0
  160.5190  212.5620  148.2880 N   0  0  0  0  0  0  0  0  0  0  0  0
  159.7520  213.3100  149.2500 C   0  0  0  0  0  0  0  0  0  0  0  0
  158.5990  213.7240  148.9550 O   0  0  0  0  0  0  0  0  0  0  0  0
  160.0570  213.9750  146.3450 C   0  0  0  0  0  2  0  0  0  0  0  0
  160.1140  212.5530  146.8810 C   0  0  0  0  0  3  0  0  0  0  0  0
  161.2350  213.0960  146.0060 C   0  0  0  0  0  2  0  0  0  0  0  0
  160.3260  213.6680  150.5840 C   0  0  0  0  0  2  0  0  0  0  0  0
  159.3310  213.4020  151.6620 C   0  0  0  0  0  0  0  0  0  0  0  0
  157.6020  214.1930  153.1670 C   0  0  0  0  0  3  0  0  0  0  0  0
  158.3280  211.8840  153.2650 C   0  0  0  0  0  3  0  0  0  0  0  0
  157.5090  212.9170  153.7320 C   0  0  0  0  0  3  0  0  0  0  0  0
  159.2390  212.1270  152.2330 C   0  0  0  0  0  3  0  0  0  0  0  0
  158.5130  214.4360  152.1330 C   0  0  0  0  0  3  0  0  0  0  0  0
  161.3040  205.9040  152.9770 C   0  0  0  0  0  2  0  0  0  0  0  0
  159.7280  207.7010  155.8180 C   0  0  0  0  0  2  0  0  0  0  0  0
  160.5930  208.9600  155.7860 C   0  0  1  0  0  3  0  0  0  0  0  0
  161.5640  208.1310  153.6450 C   0  0  0  0  0  2  0  0  0  0  0  0
  160.4220  206.5860  155.0400 C   0  0  0  0  0  2  0  0  0  0  0  0
  160.6340  207.0020  153.6540 N   0  0  0  0  0  0  0  0  0  0  0  0
  160.9310  209.3320  154.3440 C   0  0  0  0  0  2  0  0  0  0  0  0
  160.8010  211.1820  156.4670 C   0  0  0  0  0  1  0  0  0  0  0  0
  159.8830  210.0570  156.4190 N   0  0  0  0  0  2  0  0  0  0  0  0
  1  8  1  0  0  0  0
  2 12  1  0  0  0  0
  2 13  1  0  0  0  0
  3 11  1  0  0  0  0
  3 10  2  0  0  0  0
  4 15  1  0  0  0  0
  5  1  2  0  0  0  0
  5  9  1  0  0  0  0
  6  1  1  0  0  0  0
  7  4  1  0  0  0  0
  7 11  1  0  0  0  0
  8  4  2  0  0  0  0
  9  7  2  0  0  0  0
 10 14  1  0  0  0  0
 11  2  2  0  0  0  0
 13 35  1  1  0  0  0
 14 13  1  0  0  0  0
 15 12  2  0  0  0  0
 16 17  1  6  0  0  0
 16 10  1  0  0  0  0
 18 20  1  0  0  0  0
 18 16  1  0  0  0  0
 19 20  2  0  0  0  0
 20 21  2  0  0  0  0
 22 20  1  0  0  0  0
 22 23  1  0  0  0  0
 23 28  1  0  0  0  0
 24 23  2  0  0  0  0
 25 26  1  0  0  0  0
 26 22  1  0  0  0  0
 27 25  1  0  0  0  0
 27 26  1  0  0  0  0
 28 29  1  0  0  0  0
 29 34  2  0  0  0  0
 29 33  1  0  0  0  0
 30 32  2  0  0  0  0
 31 32  1  0  0  0  0
 33 31  2  0  0  0  0
 34 30  1  0  0  0  0
 35 40  1  0  0  0  0
 37 36  1  0  0  0  0
 37 43  1  6  0  0  0
 38 40  1  0  0  0  0
 38 41  1  0  0  0  0
 39 36  1  0  0  0  0
 40 39  1  0  0  0  0
 41 37  1  0  0  0  0
 43 42  1  0  0  0  0
M  END
>  <MODEL>
2

>  <REMARK>
 VINA RESULT:      -7.1      2.476      5.432
  Name = 
  10 active torsions:
  status: ('A' for Active; 'I' for Inactive)
    1  A    between atoms: C_1  and  C_34
    2  A    between atoms: C_1  and  N_35
    3  A    between atoms: C_2  and  C_6
    4  A    between atoms: C_2  and  C_27
    5  A    between atoms: N_4  and  S_12
    6  A    between atoms: N_4  and  C_15
    7  A    between atoms: C_6  and  S_12
    8  A    between atoms: C_11  and  C_14
    9  A    between atoms: C_14  and  C_22
   10  A    between atoms: C_19  and  N_37
                            x       y       z     vdW  Elec       q    Type
                         _______ _______ _______ _____ _____    ______ ____

>  <TORSDO>
F 10

$$$$
=
 OpenBabel11062410273D

 43 48  0  0  1  0  0  0  0  0999 V2000
  159.9600  211.5320  155.7770 C   0  0  0  0  0  0  0  0  0  0  0  0
  161.1530  207.2850  153.2160 C   0  0  0  0  0  0  0  0  0  0  0  0
  161.4430  209.0940  151.4960 C   0  0  0  0  0  3  0  0  0  0  0  0
  160.2810  209.2020  155.0910 C   0  0  0  0  0  0  0  0  0  0  0  0
  160.4030  212.0070  154.6140 C   0  0  0  0  0  3  0  0  0  0  0  0
  159.5520  212.4750  156.8510 C   0  0  0  0  0  1  0  0  0  0  0  0
  160.7810  209.6270  153.8380 C   0  0  0  0  0  0  0  0  0  0  0  0
  159.8830  210.0820  156.0120 C   0  0  0  0  0  3  0  0  0  0  0  0
  160.8160  211.1030  153.4850 C   0  0  0  0  0  3  0  0  0  0  0  0
  161.9970  208.2980  150.5810 C   0  0  0  0  0  0  0  0  0  0  0  0
  161.2010  208.6670  152.8910 C   0  0  0  0  0  0  0  0  0  0  0  0
  160.6090  206.8970  154.4500 C   0  0  0  0  0  3  0  0  0  0  0  0
  161.5930  206.3490  152.3480 C   0  0  1  0  0  3  0  0  0  0  0  0
  162.7900  206.7720  151.0740 S   0  0  0  0  0  0  0  0  0  0  0  0
  160.1830  207.8420  155.3780 C   0  0  0  0  0  3  0  0  0  0  0  0
  162.0770  208.7180  149.1450 C   0  0  1  0  0  3  0  0  0  0  0  0
  161.7300  207.6500  148.3180 O   0  0  0  0  0  1  0  0  0  0  0  0
  161.1770  209.9110  148.8470 C   0  0  0  0  0  2  0  0  0  0  0  0
  163.1290  211.4320  147.7860 O   0  0  0  0  0  0  0  0  0  0  0  0
  162.0930  211.4440  148.8750 S   0  0  0  0  0  0  0  0  0  0  0  0
  162.7700  211.5710  150.2120 O   0  0  0  0  0  0  0  0  0  0  0  0
  161.0140  212.7910  148.6340 N   0  0  0  0  0  0  0  0  0  0  0  0
  160.5560  213.1310  147.3120 C   0  0  0  0  0  0  0  0  0  0  0  0
  160.1580  214.3000  147.0620 O   0  0  0  0  0  0  0  0  0  0  0  0
  159.2390  214.0150  149.7910 C   0  0  0  0  0  2  0  0  0  0  0  0
  160.7230  213.6840  149.7580 C   0  0  0  0  0  3  0  0  0  0  0  0
  159.7990  212.9960  150.7530 C   0  0  0  0  0  2  0  0  0  0  0  0
  160.4810  212.0990  146.2320 C   0  0  0  0  0  2  0  0  0  0  0  0
  161.1370  212.6010  144.9920 C   0  0  0  0  0  0  0  0  0  0  0  0
  161.1220  212.9170  142.5880 C   0  0  0  0  0  3  0  0  0  0  0  0
  163.0470  213.6070  143.8860 C   0  0  0  0  0  3  0  0  0  0  0  0
  162.3990  213.4840  142.6530 C   0  0  0  0  0  3  0  0  0  0  0  0
  162.4170  213.1640  145.0530 C   0  0  0  0  0  3  0  0  0  0  0  0
  160.4920  212.4750  143.7560 C   0  0  0  0  0  3  0  0  0  0  0  0
  161.3090  204.8880  152.5380 C   0  0  0  0  0  2  0  0  0  0  0  0
  161.3210  201.9740  150.2370 C   0  0  0  0  0  2  0  0  0  0  0  0
  160.5070  202.5900  149.1010 C   0  0  1  0  0  3  0  0  0  0  0  0
  160.6650  204.7740  150.2920 C   0  0  0  0  0  2  0  0  0  0  0  0
  161.1150  202.7880  151.5130 C   0  0  0  0  0  2  0  0  0  0  0  0
  161.5410  204.1710  151.2950 N   0  0  0  0  0  0  0  0  0  0  0  0
  160.8480  204.0710  148.9490 C   0  0  0  0  0  2  0  0  0  0  0  0
  161.4020  200.6240  148.2200 C   0  0  0  0  0  1  0  0  0  0  0  0
  160.7950  201.8940  147.8600 N   0  0  0  0  0  2  0  0  0  0  0  0
  1  8  1  0  0  0  0
  1  6  1  0  0  0  0
  2 12  1  0  0  0  0
  3 11  1  0  0  0  0
  4 15  1  0  0  0  0
  4  8  2  0  0  0  0
  5  1  2  0  0  0  0
  7  4  1  0  0  0  0
  9  7  2  0  0  0  0
  9  5  1  0  0  0  0
 10 14  1  0  0  0  0
 10  3  2  0  0  0  0
 11  2  2  0  0  0  0
 11  7  1  0  0  0  0
 12 15  2  0  0  0  0
 13 35  1  1  0  0  0
 13  2  1  0  0  0  0
 14 13  1  0  0  0  0
 16 17  1  6  0  0  0
 16 10  1  0  0  0  0
 18 20  1  0  0  0  0
 18 16  1  0  0  0  0
 19 20  2  0  0  0  0
 20 21  2  0  0  0  0
 22 20  1  0  0  0  0
 22 26  1  0  0  0  0
 23 22  1  0  0  0  0
 24 23  2  0  0  0  0
 25 27  1  0  0  0  0
 26 25  1  0  0  0  0
 26 27  1  0  0  0  0
 28 23  1  0  0  0  0
 29 33  1  0  0  0  0
 29 28  1  0  0  0  0
 30 32  2  0  0  0  0
 30 34  1  0  0  0  0
 31 33  2  0  0  0  0
 32 31  1  0  0  0  0
 34 29  2  0  0  0  0
 36 39  1  0  0  0  0
 37 43  1  6  0  0  0
 37 36  1  0  0  0  0
 38 40  1  0  0  0  0
 40 39  1  0  0  0  0
 40 35  1  0  0  0  0
 41 37  1  0  0  0  0
 41 38  1  0  0  0  0
 43 42  1  0  0  0  0
M  END
>  <MODEL>
3

>  <REMARK>
 VINA RESULT:      -6.9      2.717      6.475
  Name = 
  10 active torsions:
  status: ('A' for Active; 'I' for Inactive)
    1  A    between atoms: C_1  and  C_34
    2  A    between atoms: C_1  and  N_35
    3  A    between atoms: C_2  and  C_6
    4  A    between atoms: C_2  and  C_27
    5  A    between atoms: N_4  and  S_12
    6  A    between atoms: N_4  and  C_15
    7  A    between atoms: C_6  and  S_12
    8  A    between atoms: C_11  and  C_14
    9  A    between atoms: C_14  and  C_22
   10  A    between atoms: C_19  and  N_37
                            x       y       z     vdW  Elec       q    Type
                         _______ _______ _______ _____ _____    ______ ____

>  <TORSDO>
F 10

$$$$
=
 OpenBabel11062410273D

 43 48  0  0  1  0  0  0  0  0999 V2000
  161.0640  202.5490  147.8760 C   0  0  0  0  0  0  0  0  0  0  0  0
  161.9350  207.4670  148.9140 C   0  0  0  0  0  0  0  0  0  0  0  0
  160.9470  206.5940  151.0530 C   0  0  0  0  0  3  0  0  0  0  0  0
  161.5890  204.9360  147.7170 C   0  0  0  0  0  0  0  0  0  0  0  0
  160.7900  202.6250  149.1780 C   0  0  0  0  0  3  0  0  0  0  0  0
  160.9830  201.2370  147.1820 C   0  0  0  0  0  1  0  0  0  0  0  0
  161.3340  205.0970  149.0990 C   0  0  0  0  0  0  0  0  0  0  0  0
  161.4600  203.7480  147.1230 C   0  0  0  0  0  3  0  0  0  0  0  0
  160.8410  203.9270  149.9310 C   0  0  0  0  0  3  0  0  0  0  0  0
  161.1920  207.7010  151.7550 C   0  0  0  0  0  0  0  0  0  0  0  0
  161.4880  206.3680  149.6960 C   0  0  0  0  0  0  0  0  0  0  0  0
  162.1340  207.2820  147.5360 C   0  0  0  0  0  3  0  0  0  0  0  0
  162.1370  208.6810  149.4680 C   0  0  1  0  0  3  0  0  0  0  0  0
  162.4670  208.8400  151.2290 S   0  0  0  0  0  0  0  0  0  0  0  0
  161.9690  206.0330  146.9470 C   0  0  0  0  0  3  0  0  0  0  0  0
  160.4950  207.9550  153.0560 C   0  0  1  0  0  3  0  0  0  0  0  0
  160.4560  206.7820  153.8110 O   0  0  0  0  0  1  0  0  0  0  0  0
  161.1680  209.0600  153.8620 C   0  0  0  0  0  2  0  0  0  0  0  0
  161.7890  208.0800  156.2920 O   0  0  0  0  0  0  0  0  0  0  0  0
  160.7680  208.9390  155.5990 S   0  0  0  0  0  0  0  0  0  0  0  0
  159.4080  208.3110  155.7320 O   0  0  0  0  0  0  0  0  0  0  0  0
  160.7550  210.5240  156.3220 N   0  0  0  0  0  0  0  0  0  0  0  0
  159.7620  211.4920  155.9370 C   0  0  0  0  0  0  0  0  0  0  0  0
  159.9810  212.7230  156.0990 O   0  0  0  0  0  0  0  0  0  0  0  0
  162.9000  209.8100  157.2610 C   0  0  0  0  0  2  0  0  0  0  0  0
  161.8690  210.9260  157.1840 C   0  0  0  0  0  3  0  0  0  0  0  0
  163.1580  211.0070  156.3780 C   0  0  0  0  0  2  0  0  0  0  0  0
  158.4320  211.0630  155.4040 C   0  0  0  0  0  2  0  0  0  0  0  0
  157.8410  212.1410  154.5620 C   0  0  0  0  0  0  0  0  0  0  0  0
  156.1280  213.8170  154.1920 C   0  0  0  0  0  3  0  0  0  0  0  0
  157.8280  213.4340  152.5100 C   0  0  0  0  0  3  0  0  0  0  0  0
  156.6920  214.1210  152.9490 C   0  0  0  0  0  3  0  0  0  0  0  0
  158.4000  212.4440  153.3150 C   0  0  0  0  0  3  0  0  0  0  0  0
  156.7010  212.8280  154.9980 C   0  0  0  0  0  3  0  0  0  0  0  0
  162.3380  209.9140  148.6370 C   0  0  0  0  0  2  0  0  0  0  0  0
  160.4620  212.8510  149.9190 C   0  0  0  0  0  2  0  0  0  0  0  0
  160.0780  213.4670  148.5750 C   0  0  1  0  0  3  0  0  0  0  0  0
  160.9600  211.4090  147.4800 C   0  0  0  0  0  2  0  0  0  0  0  0
  161.6100  211.8640  149.7180 C   0  0  0  0  0  2  0  0  0  0  0  0
  161.2020  210.8080  148.7910 N   0  0  0  0  0  0  0  0  0  0  0  0
  159.7750  212.3690  147.5580 C   0  0  0  0  0  2  0  0  0  0  0  0
  157.7710  213.5630  148.2380 C   0  0  0  0  0  1  0  0  0  0  0  0
  158.9100  214.3120  148.7410 N   0  0  0  0  0  2  0  0  0  0  0  0
  1  5  1  0  0  0  0
  2 13  1  0  0  0  0
  2 11  1  0  0  0  0
  3 10  2  0  0  0  0
  4  7  1  0  0  0  0
  5  9  2  0  0  0  0
  6  1  1  0  0  0  0
  7 11  2  0  0  0  0
  7  9  1  0  0  0  0
  8  4  1  0  0  0  0
  8  1  2  0  0  0  0
 10 16  1  0  0  0  0
 11  3  1  0  0  0  0
 12  2  2  0  0  0  0
 13 35  1  6  0  0  0
 13 14  1  0  0  0  0
 14 10  1  0  0  0  0
 15 12  1  0  0  0  0
 15  4  2  0  0  0  0
 16 17  1  1  0  0  0
 16 18  1  0  0  0  0
 18 20  1  0  0  0  0
 20 21  2  0  0  0  0
 20 19  2  0  0  0  0
 20 22  1  0  0  0  0
 22 26  1  0  0  0  0
 23 24  2  0  0  0  0
 23 22  1  0  0  0  0
 26 25  1  0  0  0  0
 27 26  1  0  0  0  0
 27 25  1  0  0  0  0
 28 23  1  0  0  0  0
 29 34  1  0  0  0  0
 29 28  1  0  0  0  0
 30 34  2  0  0  0  0
 31 32  2  0  0  0  0
 31 33  1  0  0  0  0
 32 30  1  0  0  0  0
 33 29  2  0  0  0  0
 35 40  1  0  0  0  0
 37 43  1  1  0  0  0
 37 36  1  0  0  0  0
 38 41  1  0  0  0  0
 38 40  1  0  0  0  0
 39 36  1  0  0  0  0
 40 39  1  0  0  0  0
 41 37  1  0  0  0  0
 42 43  1  0  0  0  0
M  END
>  <MODEL>
4

>  <REMARK>
 VINA RESULT:      -6.8      3.958      8.363
  Name = 
  10 active torsions:
  status: ('A' for Active; 'I' for Inactive)
    1  A    between atoms: C_1  and  C_34
    2  A    between atoms: C_1  and  N_35
    3  A    between atoms: C_2  and  C_6
    4  A    between atoms: C_2  and  C_27
    5  A    between atoms: N_4  and  S_12
    6  A    between atoms: N_4  and  C_15
    7  A    between atoms: C_6  and  S_12
    8  A    between atoms: C_11  and  C_14
    9  A    between atoms: C_14  and  C_22
   10  A    between atoms: C_19  and  N_37
                            x       y       z     vdW  Elec       q    Type
                         _______ _______ _______ _____ _____    ______ ____

>  <TORSDO>
F 10

$$$$
=
 OpenBabel11062410273D

 43 48  0  0  1  0  0  0  0  0999 V2000
  161.2450  213.3150  147.1310 C   0  0  0  0  0  0  0  0  0  0  0  0
  160.1510  212.6930  152.0740 C   0  0  0  0  0  0  0  0  0  0  0  0
  161.0930  210.4610  151.4090 C   0  0  0  0  0  3  0  0  0  0  0  0
  160.4090  213.5990  149.4160 C   0  0  0  0  0  0  0  0  0  0  0  0
  161.7600  212.1140  147.3950 C   0  0  0  0  0  3  0  0  0  0  0  0
  161.4030  213.9020  145.7750 C   0  0  0  0  0  1  0  0  0  0  0  0
  160.9430  212.3410  149.7800 C   0  0  0  0  0  0  0  0  0  0  0  0
  160.5340  214.0700  148.1730 C   0  0  0  0  0  3  0  0  0  0  0  0
  161.6190  211.4620  148.7440 C   0  0  0  0  0  3  0  0  0  0  0  0
  161.1440  209.9810  152.6520 C   0  0  0  0  0  0  0  0  0  0  0  0
  160.7980  211.8780  151.1070 C   0  0  0  0  0  0  0  0  0  0  0  0
  159.5930  213.9160  151.6670 C   0  0  0  0  0  3  0  0  0  0  0  0
  160.0410  212.2970  153.3600 C   0  0  1  0  0  3  0  0  0  0  0  0
  161.1900  211.0970  154.0490 S   0  0  0  0  0  0  0  0  0  0  0  0
  159.7240  214.3650  150.3570 C   0  0  0  0  0  3  0  0  0  0  0  0
  161.2890  208.5110  152.9010 C   0  0  1  0  0  3  0  0  0  0  0  0
  160.9170  208.2120  154.2120 O   0  0  0  0  0  1  0  0  0  0  0  0
  160.4560  207.6800  151.9310 C   0  0  0  0  0  2  0  0  0  0  0  0
  162.9230  207.0560  151.0510 O   0  0  0  0  0  0  0  0  0  0  0  0
  161.4760  206.9390  150.6650 S   0  0  0  0  0  0  0  0  0  0  0  0
  161.2380  207.6690  149.3730 O   0  0  0  0  0  0  0  0  0  0  0  0
  161.0610  205.2570  150.4720 N   0  0  0  0  0  0  0  0  0  0  0  0
  161.2900  204.5890  149.2180 C   0  0  0  0  0  0  0  0  0  0  0  0
  160.6290  203.5590  148.9200 O   0  0  0  0  0  0  0  0  0  0  0  0
  160.8760  203.1880  151.7650 C   0  0  0  0  0  2  0  0  0  0  0  0
  160.3100  204.5790  151.5320 C   0  0  0  0  0  3  0  0  0  0  0  0
  161.2140  204.3030  152.7240 C   0  0  0  0  0  2  0  0  0  0  0  0
  162.3540  205.0580  148.2770 C   0  0  0  0  0  2  0  0  0  0  0  0
  161.8110  205.1580  146.8920 C   0  0  0  0  0  0  0  0  0  0  0  0
  161.8420  204.4630  144.5700 C   0  0  0  0  0  3  0  0  0  0  0  0
  160.3220  206.2050  145.2910 C   0  0  0  0  0  3  0  0  0  0  0  0
  160.8380  205.3920  144.2770 C   0  0  0  0  0  3  0  0  0  0  0  0
  160.8100  206.0900  146.5960 C   0  0  0  0  0  3  0  0  0  0  0  0
  162.3290  204.3460  145.8750 C   0  0  0  0  0  3  0  0  0  0  0  0
  159.1370  212.9920  154.3350 C   0  0  0  0  0  2  0  0  0  0  0  0
  157.0420  211.4780  157.0000 C   0  0  0  0  0  2  0  0  0  0  0  0
  155.7040  211.5010  156.2640 C   0  0  1  0  0  3  0  0  0  0  0  0
  156.9440  212.1880  154.2140 C   0  0  0  0  0  2  0  0  0  0  0  0
  158.0160  212.4360  156.3180 C   0  0  0  0  0  2  0  0  0  0  0  0
  158.2130  212.0370  154.9240 N   0  0  0  0  0  0  0  0  0  0  0  0
  155.9120  211.2150  154.7790 C   0  0  0  0  0  2  0  0  0  0  0  0
  154.4650  209.5900  155.7590 C   0  0  0  0  0  1  0  0  0  0  0  0
  154.8160  210.5040  156.8330 N   0  0  0  0  0  2  0  0  0  0  0  0
  1  5  2  0  0  0  0
  1  8  1  0  0  0  0
  2 13  1  0  0  0  0
  3 10  2  0  0  0  0
  4  7  1  0  0  0  0
  4 15  1  0  0  0  0
  5  9  1  0  0  0  0
  6  1  1  0  0  0  0
  7 11  1  0  0  0  0
  8  4  2  0  0  0  0
  9  7  2  0  0  0  0
 10 16  1  0  0  0  0
 10 14  1  0  0  0  0
 11  3  1  0  0  0  0
 11  2  2  0  0  0  0
 12  2  1  0  0  0  0
 13 14  1  0  0  0  0
 13 35  1  1  0  0  0
 15 12  2  0  0  0  0
 16 17  1  1  0  0  0
 18 16  1  0  0  0  0
 20 19  2  0  0  0  0
 20 18  1  0  0  0  0
 21 20  2  0  0  0  0
 22 20  1  0  0  0  0
 22 26  1  0  0  0  0
 23 22  1  0  0  0  0
 24 23  2  0  0  0  0
 25 27  1  0  0  0  0
 26 25  1  0  0  0  0
 26 27  1  0  0  0  0
 28 23  1  0  0  0  0
 29 28  1  0  0  0  0
 30 34  1  0  0  0  0
 31 33  2  0  0  0  0
 32 30  2  0  0  0  0
 32 31  1  0  0  0  0
 33 29  1  0  0  0  0
 34 29  2  0  0  0  0
 35 40  1  0  0  0  0
 37 43  1  1  0  0  0
 37 36  1  0  0  0  0
 38 41  1  0  0  0  0
 38 40  1  0  0  0  0
 39 36  1  0  0  0  0
 40 39  1  0  0  0  0
 41 37  1  0  0  0  0
 42 43  1  0  0  0  0
M  END
>  <MODEL>
5

>  <REMARK>
 VINA RESULT:      -6.6      3.570      7.220
  Name = 
  10 active torsions:
  status: ('A' for Active; 'I' for Inactive)
    1  A    between atoms: C_1  and  C_34
    2  A    between atoms: C_1  and  N_35
    3  A    between atoms: C_2  and  C_6
    4  A    between atoms: C_2  and  C_27
    5  A    between atoms: N_4  and  S_12
    6  A    between atoms: N_4  and  C_15
    7  A    between atoms: C_6  and  S_12
    8  A    between atoms: C_11  and  C_14
    9  A    between atoms: C_14  and  C_22
   10  A    between atoms: C_19  and  N_37
                            x       y       z     vdW  Elec       q    Type
                         _______ _______ _______ _____ _____    ______ ____

>  <TORSDO>
F 10

$$$$
=
 OpenBabel11062410273D

 43 48  0  0  1  0  0  0  0  0999 V2000
  161.0120  202.7710  146.9750 C   0  0  0  0  0  0  0  0  0  0  0  0
  161.1690  205.6930  151.1530 C   0  0  0  0  0  0  0  0  0  0  0  0
  161.9230  207.2520  149.3330 C   0  0  0  0  0  3  0  0  0  0  0  0
  160.9970  203.5880  149.2850 C   0  0  0  0  0  0  0  0  0  0  0  0
  161.2770  203.9780  146.4780 C   0  0  0  0  0  3  0  0  0  0  0  0
  160.8280  201.6180  146.0550 C   0  0  0  0  0  1  0  0  0  0  0  0
  161.2610  204.9020  148.8340 C   0  0  0  0  0  0  0  0  0  0  0  0
  160.8840  202.5710  148.4270 C   0  0  0  0  0  3  0  0  0  0  0  0
  161.4870  205.1790  147.3600 C   0  0  0  0  0  3  0  0  0  0  0  0
  161.9040  208.3430  150.0990 C   0  0  0  0  0  0  0  0  0  0  0  0
  161.3660  205.9540  149.7710 C   0  0  0  0  0  0  0  0  0  0  0  0
  160.9550  204.3680  151.5700 C   0  0  0  0  0  3  0  0  0  0  0  0
  161.2160  206.6870  152.0650 C   0  0  1  0  0  3  0  0  0  0  0  0
  160.9010  208.3900  151.5790 S   0  0  0  0  0  0  0  0  0  0  0  0
  160.8650  203.3310  150.6480 C   0  0  0  0  0  3  0  0  0  0  0  0
  162.6200  209.5890  149.6770 C   0  0  1  0  0  3  0  0  0  0  0  0
  162.8380  209.5690  148.2990 O   0  0  0  0  0  1  0  0  0  0  0  0
  161.8500  210.8490  150.0540 C   0  0  0  0  0  2  0  0  0  0  0  0
  160.9550  210.8840  147.5150 O   0  0  0  0  0  0  0  0  0  0  0  0
  161.4130  211.8060  148.6100 S   0  0  0  0  0  0  0  0  0  0  0  0
  162.6300  212.5630  148.1540 O   0  0  0  0  0  0  0  0  0  0  0  0
  160.1370  212.9260  148.9980 N   0  0  0  0  0  0  0  0  0  0  0  0
  159.2180  213.3650  147.9800 C   0  0  0  0  0  0  0  0  0  0  0  0
  158.5970  214.4530  148.1150 O   0  0  0  0  0  0  0  0  0  0  0  0
  158.6930  213.6210  150.8480 C   0  0  0  0  0  2  0  0  0  0  0  0
  160.1170  213.5590  150.3190 C   0  0  0  0  0  3  0  0  0  0  0  0
  159.6400  212.5690  151.3710 C   0  0  0  0  0  2  0  0  0  0  0  0
  158.9300  212.5170  146.7830 C   0  0  0  0  0  2  0  0  0  0  0  0
  159.3740  213.2100  145.5400 C   0  0  0  0  0  0  0  0  0  0  0  0
  158.8890  214.0650  143.3240 C   0  0  0  0  0  3  0  0  0  0  0  0
  161.1360  214.2180  144.2140 C   0  0  0  0  0  3  0  0  0  0  0  0
  160.2250  214.4530  143.1800 C   0  0  0  0  0  3  0  0  0  0  0  0
  160.7120  213.5960  145.3910 C   0  0  0  0  0  3  0  0  0  0  0  0
  158.4640  213.4430  144.5020 C   0  0  0  0  0  3  0  0  0  0  0  0
  161.2870  206.4160  153.5390 C   0  0  0  0  0  2  0  0  0  0  0  0
  159.6940  208.0810  156.4500 C   0  0  0  0  0  2  0  0  0  0  0  0
  160.6330  209.2810  156.5550 C   0  0  1  0  0  3  0  0  0  0  0  0
  161.6490  208.5630  154.3950 C   0  0  0  0  0  2  0  0  0  0  0  0
  160.3550  206.9880  155.6140 C   0  0  0  0  0  2  0  0  0  0  0  0
  160.6540  207.4980  154.2750 N   0  0  0  0  0  0  0  0  0  0  0  0
  161.0590  209.7430  155.1630 C   0  0  0  0  0  2  0  0  0  0  0  0
  159.9440  211.5000  156.3330 C   0  0  0  0  0  1  0  0  0  0  0  0
  159.9620  210.3680  157.2450 N   0  0  0  0  0  2  0  0  0  0  0  0
  1  8  1  0  0  0  0
  2 12  1  0  0  0  0
  2 13  1  0  0  0  0
  3 11  1  0  0  0  0
  3 10  2  0  0  0  0
  4 15  1  0  0  0  0
  5  1  2  0  0  0  0
  5  9  1  0  0  0  0
  6  1  1  0  0  0  0
  7  4  1  0  0  0  0
  7 11  1  0  0  0  0
  8  4  2  0  0  0  0
  9  7  2  0  0  0  0
 10 14  1  0  0  0  0
 11  2  2  0  0  0  0
 13 35  1  1  0  0  0
 14 13  1  0  0  0  0
 15 12  2  0  0  0  0
 16 17  1  6  0  0  0
 16 18  1  0  0  0  0
 16 10  1  0  0  0  0
 19 20  2  0  0  0  0
 20 22  1  0  0  0  0
 20 18  1  0  0  0  0
 21 20  2  0  0  0  0
 22 26  1  0  0  0  0
 23 24  2  0  0  0  0
 23 22  1  0  0  0  0
 25 27  1  0  0  0  0
 26 25  1  0  0  0  0
 26 27  1  0  0  0  0
 28 23  1  0  0  0  0
 29 28  1  0  0  0  0
 30 34  1  0  0  0  0
 31 33  2  0  0  0  0
 32 30  2  0  0  0  0
 32 31  1  0  0  0  0
 33 29  1  0  0  0  0
 34 29  2  0  0  0  0
 35 40  1  0  0  0  0
 36 37  1  0  0  0  0
 37 43  1  6  0  0  0
 38 41  1  0  0  0  0
 39 36  1  0  0  0  0
 40 38  1  0  0  0  0
 40 39  1  0  0  0  0
 41 37  1  0  0  0  0
 42 43  1  0  0  0  0
M  END
>  <MODEL>
6

>  <REMARK>
 VINA RESULT:      -6.4      2.010      3.221
  Name = 
  10 active torsions:
  status: ('A' for Active; 'I' for Inactive)
    1  A    between atoms: C_1  and  C_34
    2  A    between atoms: C_1  and  N_35
    3  A    between atoms: C_2  and  C_6
    4  A    between atoms: C_2  and  C_27
    5  A    between atoms: N_4  and  S_12
    6  A    between atoms: N_4  and  C_15
    7  A    between atoms: C_6  and  S_12
    8  A    between atoms: C_11  and  C_14
    9  A    between atoms: C_14  and  C_22
   10  A    between atoms: C_19  and  N_37
                            x       y       z     vdW  Elec       q    Type
                         _______ _______ _______ _____ _____    ______ ____

>  <TORSDO>
F 10

$$$$
=
 OpenBabel11062410273D

 43 48  0  0  1  0  0  0  0  0999 V2000
  159.9210  211.4950  155.8350 C   0  0  0  0  0  0  0  0  0  0  0  0
  161.1390  207.2710  153.2460 C   0  0  0  0  0  0  0  0  0  0  0  0
  161.5430  209.1050  151.5770 C   0  0  0  0  0  3  0  0  0  0  0  0
  160.2240  209.1720  155.1190 C   0  0  0  0  0  0  0  0  0  0  0  0
  160.4260  211.9820  154.7020 C   0  0  0  0  0  3  0  0  0  0  0  0
  159.4860  212.4260  156.9080 C   0  0  0  0  0  1  0  0  0  0  0  0
  160.7880  209.6090  153.8970 C   0  0  0  0  0  0  0  0  0  0  0  0
  159.8030  210.0430  156.0380 C   0  0  0  0  0  3  0  0  0  0  0  0
  160.8700  211.0900  153.5750 C   0  0  0  0  0  3  0  0  0  0  0  0
  162.1210  208.3140  150.6720 C   0  0  0  0  0  0  0  0  0  0  0  0
  161.2300  208.6580  152.9510 C   0  0  0  0  0  0  0  0  0  0  0  0
  160.5310  206.8720  154.4480 C   0  0  0  0  0  3  0  0  0  0  0  0
  161.5970  206.3420  152.3810 C   0  0  1  0  0  3  0  0  0  0  0  0
  162.8590  206.7630  151.1700 S   0  0  0  0  0  0  0  0  0  0  0  0
  160.0850  207.8090  155.3740 C   0  0  0  0  0  3  0  0  0  0  0  0
  162.2730  208.7590  149.2500 C   0  0  1  0  0  3  0  0  0  0  0  0
  162.2490  207.6520  148.4010 O   0  0  0  0  0  1  0  0  0  0  0  0
  161.1860  209.7450  148.8380 C   0  0  0  0  0  2  0  0  0  0  0  0
  163.1830  211.3920  148.0950 O   0  0  0  0  0  0  0  0  0  0  0  0
  161.8220  211.4110  148.7320 S   0  0  0  0  0  0  0  0  0  0  0  0
  161.9250  211.9710  150.1240 O   0  0  0  0  0  0  0  0  0  0  0  0
  160.7490  212.4010  147.7810 N   0  0  0  0  0  0  0  0  0  0  0  0
  159.8260  213.3010  148.4230 C   0  0  0  0  0  0  0  0  0  0  0  0
  158.7870  213.6790  147.8180 O   0  0  0  0  0  0  0  0  0  0  0  0
  160.3410  213.4830  145.6240 C   0  0  0  0  0  2  0  0  0  0  0  0
  160.6620  212.1780  146.3350 C   0  0  0  0  0  3  0  0  0  0  0  0
  161.7550  212.9550  145.6160 C   0  0  0  0  0  2  0  0  0  0  0  0
  160.1090  213.8550  149.7820 C   0  0  0  0  0  2  0  0  0  0  0  0
  158.8560  213.9100  150.5890 C   0  0  0  0  0  0  0  0  0  0  0  0
  156.4660  214.2910  150.7330 C   0  0  0  0  0  3  0  0  0  0  0  0
  157.7330  213.7830  152.7340 C   0  0  0  0  0  3  0  0  0  0  0  0
  156.5150  214.0780  152.1150 C   0  0  0  0  0  3  0  0  0  0  0  0
  158.9030  213.7010  151.9720 C   0  0  0  0  0  3  0  0  0  0  0  0
  157.6360  214.2080  149.9700 C   0  0  0  0  0  3  0  0  0  0  0  0
  161.2740  204.8850  152.5300 C   0  0  0  0  0  2  0  0  0  0  0  0
  161.3760  201.9990  150.1950 C   0  0  0  0  0  2  0  0  0  0  0  0
  160.5660  202.6140  149.0550 C   0  0  1  0  0  3  0  0  0  0  0  0
  160.6640  204.7860  150.2740 C   0  0  0  0  0  2  0  0  0  0  0  0
  161.1360  202.7940  151.4770 C   0  0  0  0  0  2  0  0  0  0  0  0
  161.5380  204.1870  151.2820 N   0  0  0  0  0  0  0  0  0  0  0  0
  160.8800  204.1020  148.9250 C   0  0  0  0  0  2  0  0  0  0  0  0
  161.4440  200.6450  148.1630 C   0  0  0  0  0  1  0  0  0  0  0  0
  160.8840  201.9390  147.8100 N   0  0  0  0  0  2  0  0  0  0  0  0
  1  8  1  0  0  0  0
  1  6  1  0  0  0  0
  2 12  1  0  0  0  0
  3 11  1  0  0  0  0
  4 15  1  0  0  0  0
  4  8  2  0  0  0  0
  5  1  2  0  0  0  0
  7  4  1  0  0  0  0
  9  7  2  0  0  0  0
  9  5  1  0  0  0  0
 10 14  1  0  0  0  0
 10  3  2  0  0  0  0
 11  2  2  0  0  0  0
 11  7  1  0  0  0  0
 12 15  2  0  0  0  0
 13 35  1  1  0  0  0
 13  2  1  0  0  0  0
 14 13  1  0  0  0  0
 16 17  1  6  0  0  0
 16 10  1  0  0  0  0
 18 16  1  0  0  0  0
 19 20  2  0  0  0  0
 20 18  1  0  0  0  0
 20 21  2  0  0  0  0
 22 23  1  0  0  0  0
 22 20  1  0  0  0  0
 23 28  1  0  0  0  0
 24 23  2  0  0  0  0
 25 26  1  0  0  0  0
 26 22  1  0  0  0  0
 27 25  1  0  0  0  0
 27 26  1  0  0  0  0
 28 29  1  0  0  0  0
 29 33  1  0  0  0  0
 30 32  2  0  0  0  0
 32 31  1  0  0  0  0
 33 31  2  0  0  0  0
 34 29  2  0  0  0  0
 34 30  1  0  0  0  0
 36 39  1  0  0  0  0
 37 43  1  6  0  0  0
 37 36  1  0  0  0  0
 38 40  1  0  0  0  0
 40 39  1  0  0  0  0
 40 35  1  0  0  0  0
 41 37  1  0  0  0  0
 41 38  1  0  0  0  0
 43 42  1  0  0  0  0
M  END
>  <MODEL>
7

>  <REMARK>
 VINA RESULT:      -6.3      2.976      7.546
  Name = 
  10 active torsions:
  status: ('A' for Active; 'I' for Inactive)
    1  A    between atoms: C_1  and  C_34
    2  A    between atoms: C_1  and  N_35
    3  A    between atoms: C_2  and  C_6
    4  A    between atoms: C_2  and  C_27
    5  A    between atoms: N_4  and  S_12
    6  A    between atoms: N_4  and  C_15
    7  A    between atoms: C_6  and  S_12
    8  A    between atoms: C_11  and  C_14
    9  A    between atoms: C_14  and  C_22
   10  A    between atoms: C_19  and  N_37
                            x       y       z     vdW  Elec       q    Type
                         _______ _______ _______ _____ _____    ______ ____

>  <TORSDO>
F 10

$$$$
=
 OpenBabel11062410273D

 43 48  0  0  1  0  0  0  0  0999 V2000
  161.5690  208.6740  155.7760 C   0  0  0  0  0  0  0  0  0  0  0  0
  161.2910  207.4350  150.8360 C   0  0  0  0  0  0  0  0  0  0  0  0
  161.8490  209.8840  150.7840 C   0  0  0  0  0  3  0  0  0  0  0  0
  161.1800  207.5160  153.6520 C   0  0  0  0  0  0  0  0  0  0  0  0
  161.9850  209.7860  155.1720 C   0  0  0  0  0  3  0  0  0  0  0  0
  161.5530  208.6030  157.2610 C   0  0  0  0  0  1  0  0  0  0  0  0
  161.6270  208.6520  152.9380 C   0  0  0  0  0  0  0  0  0  0  0  0
  161.1390  207.5100  154.9870 C   0  0  0  0  0  3  0  0  0  0  0  0
  162.0100  209.9220  153.6740 C   0  0  0  0  0  3  0  0  0  0  0  0
  162.0630  209.9270  149.4680 C   0  0  0  0  0  0  0  0  0  0  0  0
  161.6650  208.6190  151.5260 C   0  0  0  0  0  0  0  0  0  0  0  0
  160.8090  206.3420  151.5750 C   0  0  0  0  0  3  0  0  0  0  0  0
  161.3630  207.3600  149.4900 C   0  0  1  0  0  3  0  0  0  0  0  0
  162.4750  208.4350  148.5720 S   0  0  0  0  0  0  0  0  0  0  0  0
  160.7590  206.3800  152.9650 C   0  0  0  0  0  3  0  0  0  0  0  0
  162.0840  211.2340  148.7360 C   0  0  1  0  0  3  0  0  0  0  0  0
  163.1090  211.2330  147.7900 O   0  0  0  0  0  1  0  0  0  0  0  0
  160.7550  211.5290  148.0510 C   0  0  0  0  0  2  0  0  0  0  0  0
  161.0050  213.4050  146.1350 O   0  0  0  0  0  0  0  0  0  0  0  0
  160.6290  213.2490  147.5820 S   0  0  0  0  0  0  0  0  0  0  0  0
  161.5750  214.0460  148.4370 O   0  0  0  0  0  0  0  0  0  0  0  0
  159.0000  213.8170  147.8240 N   0  0  0  0  0  0  0  0  0  0  0  0
  158.4550  213.9230  149.1520 C   0  0  0  0  0  0  0  0  0  0  0  0
  157.2070  213.9040  149.3280 O   0  0  0  0  0  0  0  0  0  0  0  0
  158.2750  212.8410  145.7000 C   0  0  0  0  0  2  0  0  0  0  0  0
  158.1300  214.0110  146.6620 C   0  0  0  0  0  3  0  0  0  0  0  0
  157.0720  212.9180  146.6080 C   0  0  0  0  0  2  0  0  0  0  0  0
  159.3440  214.1230  150.3380 C   0  0  0  0  0  2  0  0  0  0  0  0
  158.7940  213.4060  151.5230 C   0  0  0  0  0  0  0  0  0  0  0  0
  157.1890  213.2650  153.3350 C   0  0  0  0  0  3  0  0  0  0  0  0
  158.9140  211.5790  153.1130 C   0  0  0  0  0  3  0  0  0  0  0  0
  157.8030  212.0940  153.7890 C   0  0  0  0  0  3  0  0  0  0  0  0
  159.4100  212.2360  151.9830 C   0  0  0  0  0  3  0  0  0  0  0  0
  157.6840  213.9220  152.2030 C   0  0  0  0  0  3  0  0  0  0  0  0
  160.7260  206.2420  148.7180 C   0  0  0  0  0  2  0  0  0  0  0  0
  162.5190  204.8770  145.7660 C   0  0  0  0  0  2  0  0  0  0  0  0
  161.3690  204.9460  144.7630 C   0  0  1  0  0  3  0  0  0  0  0  0
  160.0690  206.2110  146.4730 C   0  0  0  0  0  2  0  0  0  0  0  0
  161.9630  204.9680  147.1850 C   0  0  0  0  0  2  0  0  0  0  0  0
  161.2350  206.2260  147.3560 N   0  0  0  0  0  0  0  0  0  0  0  0
  160.5210  206.1910  145.0140 C   0  0  0  0  0  2  0  0  0  0  0  0
  161.5880  206.2950  142.8720 C   0  0  0  0  0  1  0  0  0  0  0  0
  161.9010  204.9830  143.4120 N   0  0  0  0  0  2  0  0  0  0  0  0
  1  6  1  0  0  0  0
  2 11  2  0  0  0  0
  2 12  1  0  0  0  0
  3 11  1  0  0  0  0
  4  8  1  0  0  0  0
  5  1  1  0  0  0  0
  7  4  2  0  0  0  0
  7  9  1  0  0  0  0
  8  1  2  0  0  0  0
  9  5  2  0  0  0  0
 10  3  2  0  0  0  0
 11  7  1  0  0  0  0
 12 15  2  0  0  0  0
 13 35  1  1  0  0  0
 13  2  1  0  0  0  0
 14 10  1  0  0  0  0
 14 13  1  0  0  0  0
 15  4  1  0  0  0  0
 16 17  1  6  0  0  0
 16 10  1  0  0  0  0
 18 16  1  0  0  0  0
 19 20  2  0  0  0  0
 20 22  1  0  0  0  0
 20 18  1  0  0  0  0
 20 21  2  0  0  0  0
 22 23  1  0  0  0  0
 23 24  2  0  0  0  0
 23 28  1  0  0  0  0
 25 27  1  0  0  0  0
 25 26  1  0  0  0  0
 26 22  1  0  0  0  0
 27 26  1  0  0  0  0
 28 29  1  0  0  0  0
 29 33  2  0  0  0  0
 29 34  1  0  0  0  0
 30 32  1  0  0  0  0
 31 32  2  0  0  0  0
 33 31  1  0  0  0  0
 34 30  2  0  0  0  0
 36 39  1  0  0  0  0
 37 43  1  6  0  0  0
 37 41  1  0  0  0  0
 37 36  1  0  0  0  0
 38 40  1  0  0  0  0
 39 40  1  0  0  0  0
 40 35  1  0  0  0  0
 41 38  1  0  0  0  0
 42 43  1  0  0  0  0
M  END
>  <MODEL>
8

>  <REMARK>
 VINA RESULT:      -6.1      3.184      7.776
  Name = 
  10 active torsions:
  status: ('A' for Active; 'I' for Inactive)
    1  A    between atoms: C_1  and  C_34
    2  A    between atoms: C_1  and  N_35
    3  A    between atoms: C_2  and  C_6
    4  A    between atoms: C_2  and  C_27
    5  A    between atoms: N_4  and  S_12
    6  A    between atoms: N_4  and  C_15
    7  A    between atoms: C_6  and  S_12
    8  A    between atoms: C_11  and  C_14
    9  A    between atoms: C_14  and  C_22
   10  A    between atoms: C_19  and  N_37
                            x       y       z     vdW  Elec       q    Type
                         _______ _______ _______ _____ _____    ______ ____

>  <TORSDO>
F 10

$$$$
=
 OpenBabel11062410273D

 43 48  0  0  1  0  0  0  0  0999 V2000
  156.7980  212.9520  154.4720 C   0  0  0  0  0  0  0  0  0  0  0  0
  160.0470  212.8920  150.5400 C   0  0  0  0  0  0  0  0  0  0  0  0
  160.7250  210.8760  151.8770 C   0  0  0  0  0  3  0  0  0  0  0  0
  158.1030  213.5300  152.4810 C   0  0  0  0  0  0  0  0  0  0  0  0
  157.4330  211.7920  154.6360 C   0  0  0  0  0  3  0  0  0  0  0  0
  155.7050  213.3320  155.4050 C   0  0  0  0  0  1  0  0  0  0  0  0
  158.8110  212.3090  152.5760 C   0  0  0  0  0  0  0  0  0  0  0  0
  157.1590  213.8530  153.3680 C   0  0  0  0  0  3  0  0  0  0  0  0
  158.5570  211.3600  153.7320 C   0  0  0  0  0  3  0  0  0  0  0  0
  161.5730  210.4070  150.9590 C   0  0  0  0  0  0  0  0  0  0  0  0
  159.7980  211.9970  151.6140 C   0  0  0  0  0  0  0  0  0  0  0  0
  159.3590  214.1160  150.5030 C   0  0  0  0  0  3  0  0  0  0  0  0
  160.9510  212.5970  149.5810 C   0  0  1  0  0  3  0  0  0  0  0  0
  161.4030  210.8900  149.2450 S   0  0  0  0  0  0  0  0  0  0  0  0
  158.3960  214.4290  151.4580 C   0  0  0  0  0  3  0  0  0  0  0  0
  162.6010  209.3790  151.3190 C   0  0  1  0  0  3  0  0  0  0  0  0
  162.6360  209.2050  152.7020 O   0  0  0  0  0  1  0  0  0  0  0  0
  162.3340  208.0400  150.6410 C   0  0  0  0  0  2  0  0  0  0  0  0
  160.4550  207.4440  152.4750 O   0  0  0  0  0  0  0  0  0  0  0  0
  161.6530  206.8520  151.7880 S   0  0  0  0  0  0  0  0  0  0  0  0
  162.7050  206.5190  152.8100 O   0  0  0  0  0  0  0  0  0  0  0  0
  161.1800  205.4050  150.9400 N   0  0  0  0  0  0  0  0  0  0  0  0
  160.9610  205.4320  149.5180 C   0  0  0  0  0  0  0  0  0  0  0  0
  160.2270  204.5640  148.9740 O   0  0  0  0  0  0  0  0  0  0  0  0
  160.7830  202.9940  150.7930 C   0  0  0  0  0  2  0  0  0  0  0  0
  160.8300  204.2070  151.7090 C   0  0  0  0  0  3  0  0  0  0  0  0
  161.9800  203.2110  151.6850 C   0  0  0  0  0  2  0  0  0  0  0  0
  161.6430  206.4420  148.6510 C   0  0  0  0  0  2  0  0  0  0  0  0
  161.6300  205.9960  147.2290 C   0  0  0  0  0  0  0  0  0  0  0  0
  160.5450  205.9180  145.0620 C   0  0  0  0  0  3  0  0  0  0  0  0
  162.6260  204.7300  145.4160 C   0  0  0  0  0  3  0  0  0  0  0  0
  161.5720  205.1020  144.5760 C   0  0  0  0  0  3  0  0  0  0  0  0
  162.6540  205.1750  146.7420 C   0  0  0  0  0  3  0  0  0  0  0  0
  160.5730  206.3640  146.3880 C   0  0  0  0  0  3  0  0  0  0  0  0
  161.4350  213.6220  148.5990 C   0  0  0  0  0  2  0  0  0  0  0  0
  159.9440  212.7490  145.3110 C   0  0  0  0  0  2  0  0  0  0  0  0
  160.9580  213.4600  144.4170 C   0  0  1  0  0  3  0  0  0  0  0  0
  162.3370  213.8660  146.4540 C   0  0  0  0  0  2  0  0  0  0  0  0
  160.0500  213.2930  146.7340 C   0  0  0  0  0  2  0  0  0  0  0  0
  161.4010  213.0750  147.2520 N   0  0  0  0  0  0  0  0  0  0  0  0
  162.3590  213.3520  145.0160 C   0  0  0  0  0  2  0  0  0  0  0  0
  162.3290  212.5780  142.7480 C   0  0  0  0  0  1  0  0  0  0  0  0
  160.9470  212.8630  143.0950 N   0  0  0  0  0  2  0  0  0  0  0  0
  1  5  1  0  0  0  0
  1  6  1  0  0  0  0
  2 11  1  0  0  0  0
  4  7  1  0  0  0  0
  4  8  1  0  0  0  0
  7  9  1  0  0  0  0
  8  1  2  0  0  0  0
  9  5  2  0  0  0  0
 10 16  1  0  0  0  0
 10  3  2  0  0  0  0
 11  3  1  0  0  0  0
 11  7  2  0  0  0  0
 12  2  2  0  0  0  0
 12 15  1  0  0  0  0
 13 35  1  6  0  0  0
 13  2  1  0  0  0  0
 14 13  1  0  0  0  0
 14 10  1  0  0  0  0
 15  4  2  0  0  0  0
 16 17  1  1  0  0  0
 18 16  1  0  0  0  0
 18 20  1  0  0  0  0
 20 19  2  0  0  0  0
 20 21  2  0  0  0  0
 22 26  1  0  0  0  0
 22 20  1  0  0  0  0
 23 22  1  0  0  0  0
 24 23  2  0  0  0  0
 25 27  1  0  0  0  0
 25 26  1  0  0  0  0
 27 26  1  0  0  0  0
 28 23  1  0  0  0  0
 29 28  1  0  0  0  0
 30 34  1  0  0  0  0
 31 33  2  0  0  0  0
 32 30  2  0  0  0  0
 32 31  1  0  0  0  0
 33 29  1  0  0  0  0
 34 29  2  0  0  0  0
 36 39  1  0  0  0  0
 37 43  1  6  0  0  0
 37 41  1  0  0  0  0
 37 36  1  0  0  0  0
 38 40  1  0  0  0  0
 39 40  1  0  0  0  0
 40 35  1  0  0  0  0
 41 38  1  0  0  0  0
 42 43  1  0  0  0  0
M  END
>  <MODEL>
9

>  <REMARK>
 VINA RESULT:      -5.9      3.466      8.874
  Name = 
  10 active torsions:
  status: ('A' for Active; 'I' for Inactive)
    1  A    between atoms: C_1  and  C_34
    2  A    between atoms: C_1  and  N_35
    3  A    between atoms: C_2  and  C_6
    4  A    between atoms: C_2  and  C_27
    5  A    between atoms: N_4  and  S_12
    6  A    between atoms: N_4  and  C_15
    7  A    between atoms: C_6  and  S_12
    8  A    between atoms: C_11  and  C_14
    9  A    between atoms: C_14  and  C_22
   10  A    between atoms: C_19  and  N_37
                            x       y       z     vdW  Elec       q    Type
                         _______ _______ _______ _____ _____    ______ ____

>  <TORSDO>
F 10

$$$$
