=
 OpenBabel11052423173D

 27 31  0  0  1  0  0  0  0  0999 V2000
  162.5590  209.9030  151.8300 C   0  0  0  0  0  2  0  0  0  0  0  0
  161.4550  208.5380  150.0940 C   0  0  0  0  0  0  0  0  0  0  0  0
  161.1530  207.3920  152.3240 N   0  0  0  0  0  2  0  0  0  0  0  0
  161.2480  204.7760  148.2050 C   0  0  0  0  0  3  0  0  0  0  0  0
  161.0300  202.3770  148.3310 O   0  0  0  0  0  1  0  0  0  0  0  0
  161.5270  208.4140  148.6950 C   0  0  0  0  0  3  0  0  0  0  0  0
  161.0730  204.9320  150.9910 C   0  0  0  0  0  3  0  0  0  0  0  0
  159.6310  208.9390  155.1110 C   0  0  0  0  0  3  0  0  0  0  0  0
  161.0070  203.6910  150.3530 C   0  0  0  0  0  3  0  0  0  0  0  0
  159.7860  210.2450  155.3150 C   0  0  0  0  0  3  0  0  0  0  0  0
  161.2280  206.1110  150.2450 C   0  0  0  0  0  0  0  0  0  0  0  0
  161.5290  209.9060  150.7230 C   0  0  2  0  0  3  0  0  0  0  0  0
  161.0950  203.6120  148.9620 C   0  0  0  0  0  0  0  0  0  0  0  0
  161.3150  206.0210  148.8360 C   0  0  0  0  0  0  0  0  0  0  0  0
  161.8700  209.6100  153.1110 C   0  0  0  0  0  0  0  0  0  0  0  0
  161.2960  207.3690  150.8850 C   0  0  0  0  0  0  0  0  0  0  0  0
  160.7570  208.0620  154.6810 C   0  0  0  0  0  2  0  0  0  0  0  0
  161.4600  207.1730  148.0720 C   0  0  0  0  0  3  0  0  0  0  0  0
  161.0370  210.9810  155.0630 C   0  0  0  0  0  3  0  0  0  0  0  0
  161.9400  210.6960  154.1160 C   0  0  0  0  0  3  0  0  0  0  0  0
  161.2520  208.4280  153.3190 C   0  0  0  0  0  0  0  0  0  0  0  0
  162.1680  213.1460  147.9990 C   0  0  0  0  0  3  0  0  0  0  0  0
  161.7660  211.0450  149.7700 C   0  0  0  0  0  0  0  0  0  0  0  0
  162.7840  211.0000  148.8070 C   0  0  0  0  0  3  0  0  0  0  0  0
  162.9620  212.0420  147.9510 N   0  0  0  0  0  0  0  0  0  0  0  0
  161.1400  213.2300  148.9420 C   0  0  0  0  0  3  0  0  0  0  0  0
  160.9410  212.1700  149.8290 C   0  0  0  0  0  3  0  0  0  0  0  0
  1 15  1  0  0  0  0
  2 12  1  0  0  0  0
  2 16  1  0  0  0  0
  3 21  1  0  0  0  0
  4 14  1  0  0  0  0
  4 13  2  0  0  0  0
  5 13  1  0  0  0  0
  6  2  2  0  0  0  0
  8 10  2  0  0  0  0
  9  7  2  0  0  0  0
 11 16  2  0  0  0  0
 11  7  1  0  0  0  0
 12 23  1  6  0  0  0
 12  1  1  0  0  0  0
 13  9  1  0  0  0  0
 14 11  1  0  0  0  0
 15 21  2  0  0  0  0
 15 20  1  0  0  0  0
 16  3  1  0  0  0  0
 17  8  1  0  0  0  0
 18  6  1  0  0  0  0
 18 14  2  0  0  0  0
 19 10  1  0  0  0  0
 20 19  2  0  0  0  0
 21 17  1  0  0  0  0
 22 26  1  0  0  0  0
 23 27  1  0  0  0  0
 24 23  2  0  0  0  0
 25 22  2  0  0  0  0
 25 24  1  0  0  0  0
 26 27  2  0  0  0  0
M  END
>  <MODEL>
1

>  <REMARK>
 VINA RESULT:      -8.6      0.000      0.000
  Name = 
  1 active torsions:
  status: ('A' for Active; 'I' for Inactive)
    1  A    between atoms: C_9  and  C_15
                            x       y       z     vdW  Elec       q    Type
                         _______ _______ _______ _____ _____    ______ ____

>  <TORSDO>
F 1

$$$$
=
 OpenBabel11052423173D

 27 31  0  0  1  0  0  0  0  0999 V2000
  162.3040  209.8430  152.7080 C   0  0  0  0  0  2  0  0  0  0  0  0
  161.1880  208.2650  151.1710 C   0  0  0  0  0  0  0  0  0  0  0  0
  161.0320  207.3420  153.5160 N   0  0  0  0  0  2  0  0  0  0  0  0
  161.0650  204.3250  149.6800 C   0  0  0  0  0  3  0  0  0  0  0  0
  160.9580  201.9450  150.0560 O   0  0  0  0  0  1  0  0  0  0  0  0
  161.2040  208.0020  149.7900 C   0  0  0  0  0  3  0  0  0  0  0  0
  161.0030  204.7570  152.4420 C   0  0  0  0  0  3  0  0  0  0  0  0
  159.5660  209.1040  156.2040 C   0  0  0  0  0  3  0  0  0  0  0  0
  160.9640  203.4560  151.9360 C   0  0  0  0  0  3  0  0  0  0  0  0
  159.6720  210.4290  156.2690 C   0  0  0  0  0  3  0  0  0  0  0  0
  161.0740  205.8600  151.5750 C   0  0  0  0  0  0  0  0  0  0  0  0
  161.2280  209.6920  151.6560 C   0  0  2  0  0  3  0  0  0  0  0  0
  160.9960  203.2390  150.5570 C   0  0  0  0  0  0  0  0  0  0  0  0
  161.1040  205.6290  150.1800 C   0  0  0  0  0  0  0  0  0  0  0  0
  161.6850  209.6550  154.0430 C   0  0  0  0  0  0  0  0  0  0  0  0
  161.1140  207.1780  152.0820 C   0  0  0  0  0  0  0  0  0  0  0  0
  160.7100  208.2330  155.8110 C   0  0  0  0  0  2  0  0  0  0  0  0
  161.1650  206.7020  149.2980 C   0  0  0  0  0  3  0  0  0  0  0  0
  160.8780  211.1840  155.8850 C   0  0  0  0  0  3  0  0  0  0  0  0
  161.7510  210.8400  154.9290 C   0  0  0  0  0  3  0  0  0  0  0  0
  161.1290  208.4770  154.3970 C   0  0  0  0  0  0  0  0  0  0  0  0
  161.6750  212.6660  148.6090 C   0  0  0  0  0  3  0  0  0  0  0  0
  161.3730  210.7370  150.5840 C   0  0  0  0  0  0  0  0  0  0  0  0
  160.6600  211.9440  150.6300 C   0  0  0  0  0  3  0  0  0  0  0  0
  160.8240  212.8730  149.6500 N   0  0  0  0  0  0  0  0  0  0  0  0
  162.4070  211.4780  148.5270 C   0  0  0  0  0  3  0  0  0  0  0  0
  162.2520  210.5120  149.5230 C   0  0  0  0  0  3  0  0  0  0  0  0
  1 15  1  0  0  0  0
  2 12  1  0  0  0  0
  2 16  1  0  0  0  0
  3 21  1  0  0  0  0
  4 14  1  0  0  0  0
  4 13  2  0  0  0  0
  5 13  1  0  0  0  0
  6  2  2  0  0  0  0
  8 10  2  0  0  0  0
  9  7  2  0  0  0  0
 11 16  2  0  0  0  0
 11  7  1  0  0  0  0
 12 23  1  6  0  0  0
 12  1  1  0  0  0  0
 13  9  1  0  0  0  0
 14 11  1  0  0  0  0
 15 21  2  0  0  0  0
 15 20  1  0  0  0  0
 16  3  1  0  0  0  0
 17  8  1  0  0  0  0
 18  6  1  0  0  0  0
 18 14  2  0  0  0  0
 19 10  1  0  0  0  0
 20 19  2  0  0  0  0
 21 17  1  0  0  0  0
 22 25  1  0  0  0  0
 23 24  1  0  0  0  0
 25 24  2  0  0  0  0
 26 22  2  0  0  0  0
 26 27  1  0  0  0  0
 27 23  2  0  0  0  0
M  END
>  <MODEL>
2

>  <REMARK>
 VINA RESULT:      -8.6      1.127      1.507
  Name = 
  1 active torsions:
  status: ('A' for Active; 'I' for Inactive)
    1  A    between atoms: C_9  and  C_15
                            x       y       z     vdW  Elec       q    Type
                         _______ _______ _______ _____ _____    ______ ____

>  <TORSDO>
F 1

$$$$
=
 OpenBabel11052423173D

 27 31  0  0  1  0  0  0  0  0999 V2000
  160.1010  204.4560  148.7810 C   0  0  0  0  0  2  0  0  0  0  0  0
  161.4440  206.4530  149.3280 C   0  0  0  0  0  0  0  0  0  0  0  0
  161.0290  205.1610  151.4570 N   0  0  0  0  0  2  0  0  0  0  0  0
  161.6850  209.9950  151.6000 C   0  0  0  0  0  3  0  0  0  0  0  0
  161.5810  211.1330  153.7240 O   0  0  0  0  0  1  0  0  0  0  0  0
  161.7190  207.6940  148.7270 C   0  0  0  0  0  3  0  0  0  0  0  0
  161.1580  207.5670  152.8830 C   0  0  0  0  0  3  0  0  0  0  0  0
  161.9560  201.7800  151.8900 C   0  0  0  0  0  3  0  0  0  0  0  0
  161.2390  208.7480  153.6240 C   0  0  0  0  0  3  0  0  0  0  0  0
  161.9080  200.9390  150.8590 C   0  0  0  0  0  3  0  0  0  0  0  0
  161.3390  207.5840  151.4900 C   0  0  0  0  0  0  0  0  0  0  0  0
  161.3730  205.2130  148.4740 C   0  0  2  0  0  3  0  0  0  0  0  0
  161.5020  209.9610  152.9840 C   0  0  0  0  0  0  0  0  0  0  0  0
  161.6050  208.8170  150.8520 C   0  0  0  0  0  0  0  0  0  0  0  0
  160.3980  203.4380  149.8180 C   0  0  0  0  0  0  0  0  0  0  0  0
  161.2570  206.3920  150.7350 C   0  0  0  0  0  0  0  0  0  0  0  0
  160.8830  202.7820  152.1490 C   0  0  0  0  0  2  0  0  0  0  0  0
  161.7970  208.8630  149.4760 C   0  0  0  0  0  3  0  0  0  0  0  0
  160.8580  200.9530  149.8250 C   0  0  0  0  0  3  0  0  0  0  0  0
  160.2010  202.0350  149.3860 C   0  0  0  0  0  3  0  0  0  0  0  0
  160.8000  203.7970  151.0560 C   0  0  0  0  0  0  0  0  0  0  0  0
  161.7730  205.8280  144.2570 C   0  0  0  0  0  3  0  0  0  0  0  0
  161.5240  205.4360  146.9940 C   0  0  0  0  0  0  0  0  0  0  0  0
  162.7060  205.1050  146.3160 C   0  0  0  0  0  3  0  0  0  0  0  0
  162.8040  205.3080  144.9750 N   0  0  0  0  0  0  0  0  0  0  0  0
  160.5770  206.1700  144.8930 C   0  0  0  0  0  3  0  0  0  0  0  0
  160.4560  205.9690  146.2690 C   0  0  0  0  0  3  0  0  0  0  0  0
  1 15  1  0  0  0  0
  2 16  1  0  0  0  0
  4 13  2  0  0  0  0
  6  2  2  0  0  0  0
  6 18  1  0  0  0  0
  7  9  2  0  0  0  0
  8 17  1  0  0  0  0
 10  8  2  0  0  0  0
 11  7  1  0  0  0  0
 12 23  1  6  0  0  0
 12  1  1  0  0  0  0
 12  2  1  0  0  0  0
 13  9  1  0  0  0  0
 13  5  1  0  0  0  0
 14 11  1  0  0  0  0
 14  4  1  0  0  0  0
 15 21  2  0  0  0  0
 16  3  1  0  0  0  0
 16 11  2  0  0  0  0
 18 14  2  0  0  0  0
 19 10  1  0  0  0  0
 20 15  1  0  0  0  0
 20 19  2  0  0  0  0
 21  3  1  0  0  0  0
 21 17  1  0  0  0  0
 22 26  2  0  0  0  0
 22 25  1  0  0  0  0
 24 23  1  0  0  0  0
 25 24  2  0  0  0  0
 26 27  1  0  0  0  0
 27 23  2  0  0  0  0
M  END
>  <MODEL>
3

>  <REMARK>
 VINA RESULT:      -8.2      3.064      6.645
  Name = 
  1 active torsions:
  status: ('A' for Active; 'I' for Inactive)
    1  A    between atoms: C_9  and  C_15
                            x       y       z     vdW  Elec       q    Type
                         _______ _______ _______ _____ _____    ______ ____

>  <TORSDO>
F 1

$$$$
=
 OpenBabel11052423173D

 27 31  0  0  1  0  0  0  0  0999 V2000
  162.3000  208.2970  152.4060 C   0  0  0  0  0  2  0  0  0  0  0  0
  161.2320  206.9350  150.6450 C   0  0  0  0  0  0  0  0  0  0  0  0
  160.8920  205.7810  152.8660 N   0  0  0  0  0  2  0  0  0  0  0  0
  161.0690  203.1780  148.7410 C   0  0  0  0  0  3  0  0  0  0  0  0
  160.8540  200.7790  148.8560 O   0  0  0  0  0  1  0  0  0  0  0  0
  161.3300  206.8150  149.2480 C   0  0  0  0  0  3  0  0  0  0  0  0
  160.8420  203.3250  151.5240 C   0  0  0  0  0  3  0  0  0  0  0  0
  159.3150  207.3160  155.6300 C   0  0  0  0  0  3  0  0  0  0  0  0
  160.7910  202.0850  150.8810 C   0  0  0  0  0  3  0  0  0  0  0  0
  159.4630  208.6210  155.8400 C   0  0  0  0  0  3  0  0  0  0  0  0
  161.0080  204.5070  150.7850 C   0  0  0  0  0  0  0  0  0  0  0  0
  161.2910  208.3010  151.2800 C   0  0  2  0  0  3  0  0  0  0  0  0
  160.9050  202.0120  149.4920 C   0  0  0  0  0  0  0  0  0  0  0  0
  161.1210  204.4210  149.3780 C   0  0  0  0  0  0  0  0  0  0  0  0
  161.5890  207.9980  153.6730 C   0  0  0  0  0  0  0  0  0  0  0  0
  161.0610  205.7630  151.4300 C   0  0  0  0  0  0  0  0  0  0  0  0
  160.4510  206.4430  155.2170 C   0  0  0  0  0  2  0  0  0  0  0  0
  161.2780  205.5760  148.6200 C   0  0  0  0  0  3  0  0  0  0  0  0
  160.7170  209.3610  155.6140 C   0  0  0  0  0  3  0  0  0  0  0  0
  161.6380  209.0810  154.6820 C   0  0  0  0  0  3  0  0  0  0  0  0
  160.9700  206.8140  153.8660 C   0  0  0  0  0  0  0  0  0  0  0  0
  161.9730  211.5650  148.5960 C   0  0  0  0  0  3  0  0  0  0  0  0
  161.5420  209.4430  150.3350 C   0  0  0  0  0  0  0  0  0  0  0  0
  161.9490  209.2280  149.0100 C   0  0  0  0  0  3  0  0  0  0  0  0
  162.1550  210.2840  148.1780 N   0  0  0  0  0  0  0  0  0  0  0  0
  161.5650  211.8240  149.9070 C   0  0  0  0  0  3  0  0  0  0  0  0
  161.3490  210.7540  150.7770 C   0  0  0  0  0  3  0  0  0  0  0  0
  1 15  1  0  0  0  0
  2 12  1  0  0  0  0
  2 16  1  0  0  0  0
  3 21  1  0  0  0  0
  4 14  1  0  0  0  0
  4 13  2  0  0  0  0
  5 13  1  0  0  0  0
  6  2  2  0  0  0  0
  8 10  2  0  0  0  0
  9  7  2  0  0  0  0
 11 16  2  0  0  0  0
 11  7  1  0  0  0  0
 12 23  1  6  0  0  0
 12  1  1  0  0  0  0
 13  9  1  0  0  0  0
 14 11  1  0  0  0  0
 15 21  2  0  0  0  0
 15 20  1  0  0  0  0
 16  3  1  0  0  0  0
 17  8  1  0  0  0  0
 18  6  1  0  0  0  0
 18 14  2  0  0  0  0
 19 10  1  0  0  0  0
 20 19  2  0  0  0  0
 21 17  1  0  0  0  0
 22 26  1  0  0  0  0
 23 27  1  0  0  0  0
 24 23  2  0  0  0  0
 25 22  2  0  0  0  0
 25 24  1  0  0  0  0
 26 27  2  0  0  0  0
M  END
>  <MODEL>
4

>  <REMARK>
 VINA RESULT:      -7.6      1.232      1.737
  Name = 
  1 active torsions:
  status: ('A' for Active; 'I' for Inactive)
    1  A    between atoms: C_9  and  C_15
                            x       y       z     vdW  Elec       q    Type
                         _______ _______ _______ _____ _____    ______ ____

>  <TORSDO>
F 1

$$$$
=
 OpenBabel11052423173D

 27 31  0  0  1  0  0  0  0  0999 V2000
  162.2900  206.2200  152.8240 C   0  0  0  0  0  2  0  0  0  0  0  0
  161.2260  208.3800  152.2790 C   0  0  0  0  0  0  0  0  0  0  0  0
  161.6620  207.1390  150.1250 N   0  0  0  0  0  2  0  0  0  0  0  0
  161.5630  212.0180  150.1780 C   0  0  0  0  0  3  0  0  0  0  0  0
  161.9620  213.2240  148.1280 O   0  0  0  0  0  1  0  0  0  0  0  0
  161.0450  209.6180  152.9210 C   0  0  0  0  0  3  0  0  0  0  0  0
  161.9160  209.6010  148.8170 C   0  0  0  0  0  3  0  0  0  0  0  0
  160.4000  203.9080  149.4550 C   0  0  0  0  0  3  0  0  0  0  0  0
  162.0260  210.8130  148.1320 C   0  0  0  0  0  3  0  0  0  0  0  0
  160.2720  203.0250  150.4420 C   0  0  0  0  0  3  0  0  0  0  0  0
  161.6280  209.5800  150.1910 C   0  0  0  0  0  0  0  0  0  0  0  0
  161.0910  207.1060  153.0730 C   0  0  2  0  0  3  0  0  0  0  0  0
  161.8510  212.0210  148.8110 C   0  0  0  0  0  0  0  0  0  0  0  0
  161.4510  210.8090  150.8690 C   0  0  0  0  0  0  0  0  0  0  0  0
  161.9640  205.2880  151.7170 C   0  0  0  0  0  0  0  0  0  0  0  0
  161.5160  208.3570  150.8890 C   0  0  0  0  0  0  0  0  0  0  0  0
  161.5960  204.7890  149.3260 C   0  0  0  0  0  2  0  0  0  0  0  0
  161.1570  210.8180  152.2280 C   0  0  0  0  0  3  0  0  0  0  0  0
  161.2320  202.8750  151.5510 C   0  0  0  0  0  3  0  0  0  0  0  0
  161.9680  203.8550  152.0910 C   0  0  0  0  0  3  0  0  0  0  0  0
  161.7050  205.7420  150.4720 C   0  0  0  0  0  0  0  0  0  0  0  0
  160.3700  207.6270  157.2600 C   0  0  0  0  0  3  0  0  0  0  0  0
  160.8490  207.2830  154.5470 C   0  0  0  0  0  0  0  0  0  0  0  0
  161.7750  207.9380  155.3720 C   0  0  0  0  0  3  0  0  0  0  0  0
  161.5180  208.0930  156.6980 N   0  0  0  0  0  0  0  0  0  0  0  0
  159.4200  206.9710  156.4730 C   0  0  0  0  0  3  0  0  0  0  0  0
  159.6650  206.8020  155.1090 C   0  0  0  0  0  3  0  0  0  0  0  0
  1 12  1  0  0  0  0
  2  6  1  0  0  0  0
  2 12  1  0  0  0  0
  3 21  1  0  0  0  0
  3 16  1  0  0  0  0
  4 14  1  0  0  0  0
  5 13  1  0  0  0  0
  7 11  1  0  0  0  0
  8 10  2  0  0  0  0
  9 13  1  0  0  0  0
  9  7  2  0  0  0  0
 10 19  1  0  0  0  0
 11 14  2  0  0  0  0
 11 16  1  0  0  0  0
 12 23  1  1  0  0  0
 13  4  2  0  0  0  0
 14 18  1  0  0  0  0
 15 20  1  0  0  0  0
 15  1  1  0  0  0  0
 16  2  2  0  0  0  0
 17  8  1  0  0  0  0
 17 21  1  0  0  0  0
 18  6  2  0  0  0  0
 19 20  2  0  0  0  0
 21 15  2  0  0  0  0
 23 27  2  0  0  0  0
 23 24  1  0  0  0  0
 24 25  2  0  0  0  0
 25 22  1  0  0  0  0
 26 22  2  0  0  0  0
 27 26  1  0  0  0  0
M  END
>  <MODEL>
5

>  <REMARK>
 VINA RESULT:      -7.2      2.759      6.832
  Name = 
  1 active torsions:
  status: ('A' for Active; 'I' for Inactive)
    1  A    between atoms: C_9  and  C_15
                            x       y       z     vdW  Elec       q    Type
                         _______ _______ _______ _____ _____    ______ ____

>  <TORSDO>
F 1

$$$$
=
 OpenBabel11052423173D

 27 31  0  0  1  0  0  0  0  0999 V2000
  161.2310  210.3240  153.5980 C   0  0  0  0  0  2  0  0  0  0  0  0
  160.3100  211.6660  151.7420 C   0  0  0  0  0  0  0  0  0  0  0  0
  161.7900  209.8670  150.7700 N   0  0  0  0  0  2  0  0  0  0  0  0
  161.1800  214.0950  148.4090 C   0  0  0  0  0  3  0  0  0  0  0  0
  162.3310  214.4510  146.3200 O   0  0  0  0  0  1  0  0  0  0  0  0
  159.7350  212.9400  151.5920 C   0  0  0  0  0  3  0  0  0  0  0  0
  162.3500  211.5630  148.6150 C   0  0  0  0  0  3  0  0  0  0  0  0
  161.2990  206.4180  151.3610 C   0  0  0  0  0  3  0  0  0  0  0  0
  162.6320  212.3780  147.5160 C   0  0  0  0  0  3  0  0  0  0  0  0
  160.8330  206.0040  152.5360 C   0  0  0  0  0  3  0  0  0  0  0  0
  161.4810  212.0030  149.6260 C   0  0  0  0  0  0  0  0  0  0  0  0
  159.9640  210.8320  152.9500 C   0  0  2  0  0  3  0  0  0  0  0  0
  162.0490  213.6430  147.4130 C   0  0  0  0  0  0  0  0  0  0  0  0
  160.8940  213.2850  149.5120 C   0  0  0  0  0  0  0  0  0  0  0  0
  161.5330  208.9790  153.0500 C   0  0  0  0  0  0  0  0  0  0  0  0
  161.1930  211.1830  150.7400 C   0  0  0  0  0  0  0  0  0  0  0  0
  162.3280  207.4910  151.2470 C   0  0  0  0  0  2  0  0  0  0  0  0
  160.0220  213.7420  150.4930 C   0  0  0  0  0  3  0  0  0  0  0  0
  161.2030  206.5990  153.8320 C   0  0  0  0  0  3  0  0  0  0  0  0
  161.5150  207.8840  154.0470 C   0  0  0  0  0  3  0  0  0  0  0  0
  161.8140  208.8040  151.7410 C   0  0  0  0  0  0  0  0  0  0  0  0
  157.4340  212.7040  155.8530 C   0  0  0  0  0  3  0  0  0  0  0  0
  159.0690  211.4970  153.9600 C   0  0  0  0  0  0  0  0  0  0  0  0
  157.6720  211.4520  153.8500 C   0  0  0  0  0  3  0  0  0  0  0  0
  156.8920  212.0520  154.7890 N   0  0  0  0  0  0  0  0  0  0  0  0
  158.8220  212.7700  156.0020 C   0  0  0  0  0  3  0  0  0  0  0  0
  159.6400  212.1600  155.0490 C   0  0  0  0  0  3  0  0  0  0  0  0
  2 12  1  0  0  0  0
  3 21  1  0  0  0  0
  4 14  1  0  0  0  0
  5 13  1  0  0  0  0
  6  2  1  0  0  0  0
  7 11  1  0  0  0  0
  8 10  2  0  0  0  0
  9  7  2  0  0  0  0
 10 19  1  0  0  0  0
 11 16  1  0  0  0  0
 12  1  1  0  0  0  0
 12 23  1  1  0  0  0
 13  9  1  0  0  0  0
 13  4  2  0  0  0  0
 14 11  2  0  0  0  0
 14 18  1  0  0  0  0
 15  1  1  0  0  0  0
 15 20  1  0  0  0  0
 16  3  1  0  0  0  0
 16  2  2  0  0  0  0
 17  8  1  0  0  0  0
 17 21  1  0  0  0  0
 18  6  2  0  0  0  0
 19 20  2  0  0  0  0
 21 15  2  0  0  0  0
 22 26  1  0  0  0  0
 23 27  1  0  0  0  0
 24 23  2  0  0  0  0
 24 25  1  0  0  0  0
 25 22  2  0  0  0  0
 27 26  2  0  0  0  0
M  END
>  <MODEL>
6

>  <REMARK>
 VINA RESULT:      -7.1      3.209      6.464
  Name = 
  1 active torsions:
  status: ('A' for Active; 'I' for Inactive)
    1  A    between atoms: C_9  and  C_15
                            x       y       z     vdW  Elec       q    Type
                         _______ _______ _______ _____ _____    ______ ____

>  <TORSDO>
F 1

$$$$
=
 OpenBabel11052423173D

 27 31  0  0  1  0  0  0  0  0999 V2000
  162.5280  209.3060  149.2260 C   0  0  0  0  0  2  0  0  0  0  0  0
  161.2530  207.9950  150.8850 C   0  0  0  0  0  0  0  0  0  0  0  0
  161.1450  210.4320  151.5380 N   0  0  0  0  0  2  0  0  0  0  0  0
  160.8290  206.9530  154.9470 C   0  0  0  0  0  3  0  0  0  0  0  0
  160.5960  207.5930  157.2610 O   0  0  0  0  0  1  0  0  0  0  0  0
  161.1930  206.6520  151.2960 C   0  0  0  0  0  3  0  0  0  0  0  0
  160.9140  209.6510  154.2160 C   0  0  0  0  0  3  0  0  0  0  0  0
  159.9050  212.9610  149.4060 C   0  0  0  0  0  3  0  0  0  0  0  0
  160.7750  209.2930  155.5600 C   0  0  0  0  0  3  0  0  0  0  0  0
  160.0940  212.8750  148.0910 C   0  0  0  0  0  3  0  0  0  0  0  0
  161.0120  208.6660  153.2210 C   0  0  0  0  0  0  0  0  0  0  0  0
  161.4000  208.3180  149.4200 C   0  0  2  0  0  3  0  0  0  0  0  0
  160.7330  207.9460  155.9250 C   0  0  0  0  0  0  0  0  0  0  0  0
  160.9680  207.3050  153.6010 C   0  0  0  0  0  0  0  0  0  0  0  0
  161.9580  210.6760  149.2290 C   0  0  0  0  0  0  0  0  0  0  0  0
  161.1540  209.0230  151.8610 C   0  0  0  0  0  0  0  0  0  0  0  0
  160.9760  212.6240  150.3860 C   0  0  0  0  0  2  0  0  0  0  0  0
  161.0550  206.3080  152.6360 C   0  0  0  0  0  3  0  0  0  0  0  0
  161.3250  212.3670  147.4610 C   0  0  0  0  0  3  0  0  0  0  0  0
  162.1330  211.4230  147.9620 C   0  0  0  0  0  3  0  0  0  0  0  0
  161.3480  211.1780  150.3230 C   0  0  0  0  0  0  0  0  0  0  0  0
  161.8590  204.9210  146.8550 C   0  0  0  0  0  3  0  0  0  0  0  0
  161.5600  207.1320  148.5080 C   0  0  0  0  0  0  0  0  0  0  0  0
  162.5790  207.0750  147.5460 C   0  0  0  0  0  3  0  0  0  0  0  0
  162.7050  205.9810  146.7480 N   0  0  0  0  0  0  0  0  0  0  0  0
  160.8310  204.9370  147.8020 C   0  0  0  0  0  3  0  0  0  0  0  0
  160.6870  206.0500  148.6320 C   0  0  0  0  0  3  0  0  0  0  0  0
  1 15  1  0  0  0  0
  1 12  1  0  0  0  0
  2  6  2  0  0  0  0
  2 16  1  0  0  0  0
  3 16  1  0  0  0  0
  4 13  2  0  0  0  0
  6 18  1  0  0  0  0
  7  9  2  0  0  0  0
  8 17  1  0  0  0  0
  9 13  1  0  0  0  0
 10  8  2  0  0  0  0
 11 14  1  0  0  0  0
 11  7  1  0  0  0  0
 12 23  1  6  0  0  0
 12  2  1  0  0  0  0
 13  5  1  0  0  0  0
 14  4  1  0  0  0  0
 15 21  2  0  0  0  0
 16 11  2  0  0  0  0
 18 14  2  0  0  0  0
 19 20  2  0  0  0  0
 19 10  1  0  0  0  0
 20 15  1  0  0  0  0
 21 17  1  0  0  0  0
 21  3  1  0  0  0  0
 22 26  1  0  0  0  0
 23 27  1  0  0  0  0
 24 23  2  0  0  0  0
 25 22  2  0  0  0  0
 25 24  1  0  0  0  0
 26 27  2  0  0  0  0
M  END
>  <MODEL>
7

>  <REMARK>
 VINA RESULT:      -7.0      2.609      5.908
  Name = 
  1 active torsions:
  status: ('A' for Active; 'I' for Inactive)
    1  A    between atoms: C_9  and  C_15
                            x       y       z     vdW  Elec       q    Type
                         _______ _______ _______ _____ _____    ______ ____

>  <TORSDO>
F 1

$$$$
=
 OpenBabel11052423173D

 27 31  0  0  1  0  0  0  0  0999 V2000
  160.2460  207.9010  153.1890 C   0  0  0  0  0  2  0  0  0  0  0  0
  161.5400  208.4080  151.1490 C   0  0  0  0  0  0  0  0  0  0  0  0
  161.4910  210.4740  152.5980 N   0  0  0  0  0  2  0  0  0  0  0  0
  161.8960  210.8770  147.7510 C   0  0  0  0  0  3  0  0  0  0  0  0
  162.0210  213.0720  146.7610 O   0  0  0  0  0  1  0  0  0  0  0  0
  161.6630  207.8660  149.8570 C   0  0  0  0  0  3  0  0  0  0  0  0
  161.6820  212.0400  150.2860 C   0  0  0  0  0  3  0  0  0  0  0  0
  162.6510  210.5350  155.9350 C   0  0  0  0  0  3  0  0  0  0  0  0
  161.7990  212.8470  149.1520 C   0  0  0  0  0  3  0  0  0  0  0  0
  162.5090  209.4620  156.7090 C   0  0  0  0  0  3  0  0  0  0  0  0
  161.6700  210.6410  150.1680 C   0  0  0  0  0  0  0  0  0  0  0  0
  161.4210  207.4840  152.3340 C   0  0  2  0  0  3  0  0  0  0  0  0
  161.9050  212.2670  147.8860 C   0  0  0  0  0  0  0  0  0  0  0  0
  161.7790  210.0630  148.8820 C   0  0  0  0  0  0  0  0  0  0  0  0
  160.7370  208.8140  154.2490 C   0  0  0  0  0  0  0  0  0  0  0  0
  161.5510  209.8190  151.3120 C   0  0  0  0  0  0  0  0  0  0  0  0
  161.5710  211.0060  155.0220 C   0  0  0  0  0  2  0  0  0  0  0  0
  161.7790  208.6800  148.7360 C   0  0  0  0  0  3  0  0  0  0  0  0
  161.3290  208.5800  156.6950 C   0  0  0  0  0  3  0  0  0  0  0  0
  160.5600  208.3110  155.6320 C   0  0  0  0  0  3  0  0  0  0  0  0
  161.2840  210.0100  153.9460 C   0  0  0  0  0  0  0  0  0  0  0  0
  161.2070  203.3150  151.3830 C   0  0  0  0  0  3  0  0  0  0  0  0
  161.3560  206.0170  152.0070 C   0  0  0  0  0  0  0  0  0  0  0  0
  161.2850  205.0410  153.0110 C   0  0  0  0  0  3  0  0  0  0  0  0
  161.2140  203.7230  152.6810 N   0  0  0  0  0  0  0  0  0  0  0  0
  161.2740  204.2550  150.3520 C   0  0  0  0  0  3  0  0  0  0  0  0
  161.3470  205.6120  150.6700 C   0  0  0  0  0  3  0  0  0  0  0  0
  1 15  1  0  0  0  0
  2 16  1  0  0  0  0
  2 12  1  0  0  0  0
  3 21  1  0  0  0  0
  4 13  2  0  0  0  0
  4 14  1  0  0  0  0
  5 13  1  0  0  0  0
  6  2  2  0  0  0  0
  8 10  2  0  0  0  0
  9  7  2  0  0  0  0
 11  7  1  0  0  0  0
 11 16  2  0  0  0  0
 12 23  1  6  0  0  0
 12  1  1  0  0  0  0
 13  9  1  0  0  0  0
 14 11  1  0  0  0  0
 15 20  1  0  0  0  0
 16  3  1  0  0  0  0
 17  8  1  0  0  0  0
 18 14  2  0  0  0  0
 18  6  1  0  0  0  0
 19 10  1  0  0  0  0
 20 19  2  0  0  0  0
 21 15  2  0  0  0  0
 21 17  1  0  0  0  0
 22 25  1  0  0  0  0
 23 24  1  0  0  0  0
 25 24  2  0  0  0  0
 26 27  1  0  0  0  0
 26 22  2  0  0  0  0
 27 23  2  0  0  0  0
M  END
>  <MODEL>
8

>  <REMARK>
 VINA RESULT:      -5.9      2.629      5.839
  Name = 
  1 active torsions:
  status: ('A' for Active; 'I' for Inactive)
    1  A    between atoms: C_9  and  C_15
                            x       y       z     vdW  Elec       q    Type
                         _______ _______ _______ _____ _____    ______ ____

>  <TORSDO>
F 1

$$$$
=
 OpenBabel11052423173D

 27 31  0  0  1  0  0  0  0  0999 V2000
  160.4340  211.3560  150.8850 C   0  0  0  0  0  2  0  0  0  0  0  0
  161.3980  209.1140  151.2620 C   0  0  0  0  0  0  0  0  0  0  0  0
  161.5800  209.6610  148.8030 N   0  0  0  0  0  2  0  0  0  0  0  0
  161.2300  205.0200  150.2740 C   0  0  0  0  0  3  0  0  0  0  0  0
  161.2060  203.2620  148.6230 O   0  0  0  0  0  1  0  0  0  0  0  0
  161.3160  208.1220  152.2540 C   0  0  0  0  0  3  0  0  0  0  0  0
  161.4150  206.9250  148.2350 C   0  0  0  0  0  3  0  0  0  0  0  0
  163.2450  212.5210  147.5680 C   0  0  0  0  0  3  0  0  0  0  0  0
  161.3580  205.5640  147.9210 C   0  0  0  0  0  3  0  0  0  0  0  0
  163.2210  213.6570  148.2610 C   0  0  0  0  0  3  0  0  0  0  0  0
  161.3810  207.3510  149.5720 C   0  0  0  0  0  0  0  0  0  0  0  0
  161.4600  210.5650  151.6640 C   0  0  2  0  0  3  0  0  0  0  0  0
  161.2640  204.6130  148.9380 C   0  0  0  0  0  0  0  0  0  0  0  0
  161.2870  206.3790  150.5960 C   0  0  0  0  0  0  0  0  0  0  0  0
  161.0870  211.9080  149.6740 C   0  0  0  0  0  0  0  0  0  0  0  0
  161.4380  208.7250  149.8960 C   0  0  0  0  0  0  0  0  0  0  0  0
  162.0370  211.6620  147.4080 C   0  0  0  0  0  2  0  0  0  0  0  0
  161.2590  206.7720  151.9290 C   0  0  0  0  0  3  0  0  0  0  0  0
  162.0500  214.1480  149.0090 C   0  0  0  0  0  3  0  0  0  0  0  0
  161.1250  213.3880  149.6090 C   0  0  0  0  0  3  0  0  0  0  0  0
  161.5830  211.0980  148.7150 C   0  0  0  0  0  0  0  0  0  0  0  0
  161.1170  211.3630  155.8570 C   0  0  0  0  0  3  0  0  0  0  0  0
  161.3410  210.8330  153.1400 C   0  0  0  0  0  0  0  0  0  0  0  0
  162.3350  210.4320  154.0440 C   0  0  0  0  0  3  0  0  0  0  0  0
  162.2020  210.7030  155.3700 N   0  0  0  0  0  0  0  0  0  0  0  0
  160.1040  211.7830  154.9890 C   0  0  0  0  0  3  0  0  0  0  0  0
  160.2230  211.5150  153.6240 C   0  0  0  0  0  3  0  0  0  0  0  0
  1 12  1  0  0  0  0
  2 12  1  0  0  0  0
  2  6  1  0  0  0  0
  3 16  1  0  0  0  0
  4 14  1  0  0  0  0
  5 13  1  0  0  0  0
  7 11  1  0  0  0  0
  8 10  2  0  0  0  0
  9  7  2  0  0  0  0
  9 13  1  0  0  0  0
 10 19  1  0  0  0  0
 11 16  1  0  0  0  0
 11 14  2  0  0  0  0
 12 23  1  1  0  0  0
 13  4  2  0  0  0  0
 14 18  1  0  0  0  0
 15  1  1  0  0  0  0
 16  2  2  0  0  0  0
 17  8  1  0  0  0  0
 17 21  1  0  0  0  0
 18  6  2  0  0  0  0
 19 20  2  0  0  0  0
 20 15  1  0  0  0  0
 21  3  1  0  0  0  0
 21 15  2  0  0  0  0
 23 27  2  0  0  0  0
 23 24  1  0  0  0  0
 24 25  2  0  0  0  0
 25 22  1  0  0  0  0
 26 22  2  0  0  0  0
 27 26  1  0  0  0  0
M  END
>  <MODEL>
9

>  <REMARK>
 VINA RESULT:      -5.9      1.531      4.927
  Name = 
  1 active torsions:
  status: ('A' for Active; 'I' for Inactive)
    1  A    between atoms: C_9  and  C_15
                            x       y       z     vdW  Elec       q    Type
                         _______ _______ _______ _____ _____    ______ ____

>  <TORSDO>
F 1

$$$$
