=
 OpenBabel11052422073D

 25 28  0  0  1  0  0  0  0  0999 V2000
  161.3940  205.4980  149.3710 C   0  0  0  0  0  0  0  0  0  0  0  0
  161.3790  206.4360  150.4430 C   0  0  0  0  0  0  0  0  0  0  0  0
  161.8040  207.3550  147.8400 C   0  0  0  0  0  3  0  0  0  0  0  0
  161.2130  204.0920  149.5170 C   0  0  0  0  0  0  0  0  0  0  0  0
  160.9730  201.8280  148.6730 C   0  0  0  0  0  2  0  0  0  0  0  0
  161.7810  208.2240  148.8790 N   0  0  0  0  0  0  0  0  0  0  0  0
  161.4450  203.7620  147.1270 C   0  0  0  0  0  3  0  0  0  0  0  0
  161.2240  203.2630  148.4070 C   0  0  0  0  0  0  0  0  0  0  0  0
  161.5590  208.7610  151.2020 C   0  0  0  0  0  0  0  0  0  0  0  0
  161.7580  210.2140  150.9340 C   0  0  0  0  0  1  0  0  0  0  0  0
  161.1720  206.0550  151.7760 C   0  0  0  0  0  3  0  0  0  0  0  0
  160.3300  201.7640  150.0510 C   0  0  0  0  0  2  0  0  0  0  0  0
  161.6130  205.9940  148.0550 C   0  0  0  0  0  0  0  0  0  0  0  0
  161.6420  205.1310  146.9550 C   0  0  0  0  0  3  0  0  0  0  0  0
  161.3490  208.3450  152.5170 C   0  0  0  0  0  3  0  0  0  0  0  0
  160.9220  203.1830  151.0340 S   0  0  0  0  0  0  0  0  0  0  0  0
  161.1630  206.9950  152.8070 C   0  0  0  0  0  0  0  0  0  0  0  0
  161.5760  207.8140  150.1600 C   0  0  0  0  0  0  0  0  0  0  0  0
  160.9150  206.5600  154.2100 C   0  0  0  0  0  2  0  0  0  0  0  0
  160.5370  207.7050  155.0240 N   0  0  0  0  0  0  0  0  0  0  0  0
  159.4000  207.2900  155.8280 C   0  0  0  0  0  1  0  0  0  0  0  0
  161.6340  207.9450  155.9470 C   0  0  0  0  0  2  0  0  0  0  0  0
  162.7590  209.6490  157.2510 N   0  0  0  0  0  1  0  0  0  0  0  0
  161.5590  209.3620  156.4880 C   0  0  1  0  0  3  0  0  0  0  0  0
  161.4550  210.2680  155.4330 O   0  0  0  0  0  1  0  0  0  0  0  0
  1  4  1  0  0  0  0
  1  2  2  0  0  0  0
  2 11  1  0  0  0  0
  3 13  2  0  0  0  0
  3  6  1  0  0  0  0
  4 16  1  0  0  0  0
  5 12  1  0  0  0  0
  6 18  2  0  0  0  0
  7  8  1  0  0  0  0
  8  5  1  0  0  0  0
  8  4  2  0  0  0  0
  9 15  2  0  0  0  0
 10  9  1  0  0  0  0
 11 17  2  0  0  0  0
 12 16  1  0  0  0  0
 13  1  1  0  0  0  0
 14  7  2  0  0  0  0
 14 13  1  0  0  0  0
 15 17  1  0  0  0  0
 17 19  1  0  0  0  0
 18  2  1  0  0  0  0
 18  9  1  0  0  0  0
 19 20  1  0  0  0  0
 20 21  1  0  0  0  0
 20 22  1  0  0  0  0
 22 24  1  0  0  0  0
 24 25  1  6  0  0  0
 24 23  1  0  0  0  0
M  END
>  <MODEL>
1

>  <REMARK>
 VINA RESULT:      -9.3      0.000      0.000
  Name = 
  4 active torsions:
  status: ('A' for Active; 'I' for Inactive)
    1  A    between atoms: C_6  and  N_15
    2  A    between atoms: C_6  and  C_23
    3  A    between atoms: C_7  and  C_21
    4  A    between atoms: N_15  and  C_21
                            x       y       z     vdW  Elec       q    Type
                         _______ _______ _______ _____ _____    ______ ____

>  <TORSDO>
F 4

$$$$
=
 OpenBabel11052422073D

 25 28  0  0  1  0  0  0  0  0999 V2000
  161.3660  205.7550  151.0870 C   0  0  0  0  0  0  0  0  0  0  0  0
  161.2830  204.6660  150.1740 C   0  0  0  0  0  0  0  0  0  0  0  0
  160.7450  204.2150  152.8770 C   0  0  0  0  0  3  0  0  0  0  0  0
  161.7160  207.0900  150.7330 C   0  0  0  0  0  0  0  0  0  0  0  0
  162.0750  209.4460  151.2010 C   0  0  0  0  0  2  0  0  0  0  0  0
  160.6710  203.1990  151.9840 N   0  0  0  0  0  0  0  0  0  0  0  0
  161.4800  207.8180  153.0320 C   0  0  0  0  0  3  0  0  0  0  0  0
  161.7490  208.0870  151.6940 C   0  0  0  0  0  0  0  0  0  0  0  0
  160.8300  202.2890  149.7750 C   0  0  0  0  0  0  0  0  0  0  0  0
  160.4520  200.9300  150.2560 C   0  0  0  0  0  1  0  0  0  0  0  0
  161.5380  204.8090  148.8030 C   0  0  0  0  0  3  0  0  0  0  0  0
  161.8340  209.4150  149.6990 C   0  0  0  0  0  2  0  0  0  0  0  0
  161.0870  205.4970  152.4590 C   0  0  0  0  0  0  0  0  0  0  0  0
  161.1510  206.5190  153.4120 C   0  0  0  0  0  3  0  0  0  0  0  0
  161.0900  202.4700  148.4160 C   0  0  0  0  0  3  0  0  0  0  0  0
  162.1190  207.7140  149.1010 S   0  0  0  0  0  0  0  0  0  0  0  0
  161.4510  203.7240  147.9300 C   0  0  0  0  0  0  0  0  0  0  0  0
  160.9250  203.3790  150.6600 C   0  0  0  0  0  0  0  0  0  0  0  0
  161.7020  203.9170  146.4740 C   0  0  0  0  0  2  0  0  0  0  0  0
  162.8240  204.8210  146.2810 N   0  0  0  0  0  0  0  0  0  0  0  0
  163.8270  204.0900  145.5250 C   0  0  0  0  0  1  0  0  0  0  0  0
  162.3550  205.8940  145.4180 C   0  0  0  0  0  2  0  0  0  0  0  0
  159.9780  206.2500  145.1130 N   0  0  0  0  0  1  0  0  0  0  0  0
  161.1090  205.4550  144.6710 C   0  0  1  0  0  3  0  0  0  0  0  0
  161.2890  205.6320  143.2990 O   0  0  0  0  0  1  0  0  0  0  0  0
  1 13  1  0  0  0  0
  2 18  1  0  0  0  0
  2  1  1  0  0  0  0
  4  1  2  0  0  0  0
  4  8  1  0  0  0  0
  5  8  1  0  0  0  0
  6  3  2  0  0  0  0
  7 14  1  0  0  0  0
  8  7  2  0  0  0  0
  9 10  1  0  0  0  0
  9 18  2  0  0  0  0
 11  2  2  0  0  0  0
 12  5  1  0  0  0  0
 13  3  1  0  0  0  0
 13 14  2  0  0  0  0
 15  9  1  0  0  0  0
 16 12  1  0  0  0  0
 16  4  1  0  0  0  0
 17 15  2  0  0  0  0
 17 11  1  0  0  0  0
 18  6  1  0  0  0  0
 19 17  1  0  0  0  0
 20 19  1  0  0  0  0
 21 20  1  0  0  0  0
 22 20  1  0  0  0  0
 24 25  1  6  0  0  0
 24 23  1  0  0  0  0
 24 22  1  0  0  0  0
M  END
>  <MODEL>
2

>  <REMARK>
 VINA RESULT:      -9.2      3.846      7.849
  Name = 
  4 active torsions:
  status: ('A' for Active; 'I' for Inactive)
    1  A    between atoms: C_6  and  N_15
    2  A    between atoms: C_6  and  C_23
    3  A    between atoms: C_7  and  C_21
    4  A    between atoms: N_15  and  C_21
                            x       y       z     vdW  Elec       q    Type
                         _______ _______ _______ _____ _____    ______ ____

>  <TORSDO>
F 4

$$$$
=
 OpenBabel11052422073D

 25 28  0  0  1  0  0  0  0  0999 V2000
  161.3340  205.9300  150.7400 C   0  0  0  0  0  0  0  0  0  0  0  0
  161.5470  207.3370  150.7570 C   0  0  0  0  0  0  0  0  0  0  0  0
  161.2230  205.9830  153.1780 C   0  0  0  0  0  3  0  0  0  0  0  0
  161.2610  205.1320  149.5610 C   0  0  0  0  0  0  0  0  0  0  0  0
  161.0630  203.0280  148.3630 C   0  0  0  0  0  2  0  0  0  0  0  0
  161.4320  207.3220  153.1630 N   0  0  0  0  0  0  0  0  0  0  0  0
  160.9070  203.1280  150.8780 C   0  0  0  0  0  3  0  0  0  0  0  0
  161.0690  203.7620  149.6500 C   0  0  0  0  0  0  0  0  0  0  0  0
  161.8120  209.4060  152.0470 C   0  0  0  0  0  0  0  0  0  0  0  0
  161.8720  210.1420  153.3420 C   0  0  0  0  0  1  0  0  0  0  0  0
  161.7190  208.0890  149.5860 C   0  0  0  0  0  3  0  0  0  0  0  0
  161.7220  203.9540  147.3510 C   0  0  0  0  0  2  0  0  0  0  0  0
  161.1710  205.2650  151.9880 C   0  0  0  0  0  0  0  0  0  0  0  0
  160.9560  203.8840  152.0470 C   0  0  0  0  0  3  0  0  0  0  0  0
  161.9800  210.1220  150.8610 C   0  0  0  0  0  3  0  0  0  0  0  0
  161.4240  205.6800  147.8620 S   0  0  0  0  0  0  0  0  0  0  0  0
  161.9260  209.4680  149.6320 C   0  0  0  0  0  0  0  0  0  0  0  0
  161.5950  208.0150  152.0050 C   0  0  0  0  0  0  0  0  0  0  0  0
  162.1310  210.2340  148.3710 C   0  0  0  0  0  2  0  0  0  0  0  0
  162.0450  211.6610  148.6380 N   0  0  0  0  0  0  0  0  0  0  0  0
  163.2370  212.2660  148.0670 C   0  0  0  0  0  1  0  0  0  0  0  0
  160.9160  212.1650  147.8720 C   0  0  0  0  0  2  0  0  0  0  0  0
  158.8660  213.3960  148.2570 N   0  0  0  0  0  1  0  0  0  0  0  0
  160.2750  213.3340  148.5970 C   0  0  1  0  0  3  0  0  0  0  0  0
  160.4110  213.1710  149.9760 O   0  0  0  0  0  1  0  0  0  0  0  0
  1  2  2  0  0  0  0
  1 13  1  0  0  0  0
  2 18  1  0  0  0  0
  4  8  2  0  0  0  0
  4  1  1  0  0  0  0
  5  8  1  0  0  0  0
  6  3  1  0  0  0  0
  7 14  2  0  0  0  0
  8  7  1  0  0  0  0
  9 10  1  0  0  0  0
 11 17  2  0  0  0  0
 11  2  1  0  0  0  0
 12 16  1  0  0  0  0
 12  5  1  0  0  0  0
 13 14  1  0  0  0  0
 13  3  2  0  0  0  0
 15  9  2  0  0  0  0
 16  4  1  0  0  0  0
 17 15  1  0  0  0  0
 18  9  1  0  0  0  0
 18  6  2  0  0  0  0
 19 20  1  0  0  0  0
 19 17  1  0  0  0  0
 21 20  1  0  0  0  0
 22 24  1  0  0  0  0
 22 20  1  0  0  0  0
 24 23  1  1  0  0  0
 24 25  1  0  0  0  0
M  END
>  <MODEL>
3

>  <REMARK>
 VINA RESULT:      -8.9      2.684      5.328
  Name = 
  4 active torsions:
  status: ('A' for Active; 'I' for Inactive)
    1  A    between atoms: C_6  and  N_15
    2  A    between atoms: C_6  and  C_23
    3  A    between atoms: C_7  and  C_21
    4  A    between atoms: N_15  and  C_21
                            x       y       z     vdW  Elec       q    Type
                         _______ _______ _______ _____ _____    ______ ____

>  <TORSDO>
F 4

$$$$
=
 OpenBabel11052422073D

 25 28  0  0  1  0  0  0  0  0999 V2000
  161.1630  204.2630  149.2180 C   0  0  0  0  0  0  0  0  0  0  0  0
  161.2820  205.4200  150.0380 C   0  0  0  0  0  0  0  0  0  0  0  0
  160.7620  202.9540  151.2390 C   0  0  0  0  0  3  0  0  0  0  0  0
  161.2820  204.2550  147.7980 C   0  0  0  0  0  0  0  0  0  0  0  0
  161.3640  203.1750  145.6240 C   0  0  0  0  0  2  0  0  0  0  0  0
  160.8840  204.0720  151.9940 N   0  0  0  0  0  0  0  0  0  0  0  0
  160.9040  201.8620  147.7270 C   0  0  0  0  0  3  0  0  0  0  0  0
  161.1700  203.0700  147.0890 C   0  0  0  0  0  0  0  0  0  0  0  0
  161.2580  206.4190  152.2770 C   0  0  0  0  0  0  0  0  0  0  0  0
  161.1170  206.3120  153.7570 C   0  0  0  0  0  1  0  0  0  0  0  0
  161.5420  206.6950  149.5120 C   0  0  0  0  0  3  0  0  0  0  0  0
  162.0770  204.4990  145.3900 C   0  0  0  0  0  2  0  0  0  0  0  0
  160.8970  203.0190  149.8560 C   0  0  0  0  0  0  0  0  0  0  0  0
  160.7660  201.8410  149.1130 C   0  0  0  0  0  3  0  0  0  0  0  0
  161.5190  207.6720  151.7190 C   0  0  0  0  0  3  0  0  0  0  0  0
  161.6090  205.6530  146.7240 S   0  0  0  0  0  0  0  0  0  0  0  0
  161.6530  207.8120  150.3400 C   0  0  0  0  0  0  0  0  0  0  0  0
  161.1380  205.2900  151.4460 C   0  0  0  0  0  0  0  0  0  0  0  0
  161.9560  209.1470  149.7520 C   0  0  0  0  0  2  0  0  0  0  0  0
  161.6050  210.1960  150.6960 N   0  0  0  0  0  0  0  0  0  0  0  0
  162.7060  210.2980  151.6380 C   0  0  0  0  0  1  0  0  0  0  0  0
  161.5800  211.4430  149.9500 C   0  0  0  0  0  2  0  0  0  0  0  0
  160.9670  211.6720  147.6170 N   0  0  0  0  0  1  0  0  0  0  0  0
  162.0050  211.2000  148.5130 C   0  0  1  0  0  3  0  0  0  0  0  0
  163.1920  211.8830  148.2460 O   0  0  0  0  0  1  0  0  0  0  0  0
  1 13  1  0  0  0  0
  1  2  2  0  0  0  0
  2 18  1  0  0  0  0
  3  6  1  0  0  0  0
  4  1  1  0  0  0  0
  5  8  1  0  0  0  0
  7 14  2  0  0  0  0
  8  7  1  0  0  0  0
  8  4  2  0  0  0  0
  9 10  1  0  0  0  0
 11  2  1  0  0  0  0
 11 17  2  0  0  0  0
 12  5  1  0  0  0  0
 12 16  1  0  0  0  0
 13  3  2  0  0  0  0
 14 13  1  0  0  0  0
 15  9  2  0  0  0  0
 16  4  1  0  0  0  0
 17 15  1  0  0  0  0
 18  6  2  0  0  0  0
 18  9  1  0  0  0  0
 19 17  1  0  0  0  0
 19 20  1  0  0  0  0
 20 21  1  0  0  0  0
 22 20  1  0  0  0  0
 24 23  1  6  0  0  0
 24 22  1  0  0  0  0
 25 24  1  0  0  0  0
M  END
>  <MODEL>
4

>  <REMARK>
 VINA RESULT:      -8.6      2.879      4.839
  Name = 
  4 active torsions:
  status: ('A' for Active; 'I' for Inactive)
    1  A    between atoms: C_6  and  N_15
    2  A    between atoms: C_6  and  C_23
    3  A    between atoms: C_7  and  C_21
    4  A    between atoms: N_15  and  C_21
                            x       y       z     vdW  Elec       q    Type
                         _______ _______ _______ _____ _____    ______ ____

>  <TORSDO>
F 4

$$$$
=
 OpenBabel11052422073D

 25 28  0  0  1  0  0  0  0  0999 V2000
  161.1130  204.0560  148.6360 C   0  0  0  0  0  0  0  0  0  0  0  0
  161.1430  204.9350  149.7560 C   0  0  0  0  0  0  0  0  0  0  0  0
  160.8290  202.1940  150.1890 C   0  0  0  0  0  3  0  0  0  0  0  0
  161.2240  204.4670  147.2760 C   0  0  0  0  0  0  0  0  0  0  0  0
  161.3810  204.0670  144.8860 C   0  0  0  0  0  2  0  0  0  0  0  0
  160.8650  203.0540  151.2350 N   0  0  0  0  0  0  0  0  0  0  0  0
  161.0400  202.1730  146.5140 C   0  0  0  0  0  3  0  0  0  0  0  0
  161.2050  203.5300  146.2540 C   0  0  0  0  0  0  0  0  0  0  0  0
  161.0510  205.2430  152.1870 C   0  0  0  0  0  0  0  0  0  0  0  0
  160.9260  204.7030  153.5710 C   0  0  0  0  0  1  0  0  0  0  0  0
  161.2970  206.3220  149.6230 C   0  0  0  0  0  3  0  0  0  0  0  0
  161.9850  205.4540  145.0540 C   0  0  0  0  0  2  0  0  0  0  0  0
  160.9510  202.6640  148.8850 C   0  0  0  0  0  0  0  0  0  0  0  0
  160.9110  201.7430  147.8330 C   0  0  0  0  0  3  0  0  0  0  0  0
  161.2070  206.6190  152.0160 C   0  0  0  0  0  3  0  0  0  0  0  0
  161.4330  206.1350  146.6550 S   0  0  0  0  0  0  0  0  0  0  0  0
  161.3220  207.1600  150.7380 C   0  0  0  0  0  0  0  0  0  0  0  0
  161.0170  204.3940  151.0640 C   0  0  0  0  0  0  0  0  0  0  0  0
  161.5130  208.6270  150.5630 C   0  0  0  0  0  2  0  0  0  0  0  0
  161.7160  209.2580  151.8580 N   0  0  0  0  0  0  0  0  0  0  0  0
  162.7060  210.3040  151.6640 C   0  0  0  0  0  1  0  0  0  0  0  0
  160.4700  209.9240  152.2010 C   0  0  0  0  0  2  0  0  0  0  0  0
  159.2240  210.9690  153.9970 N   0  0  0  0  0  1  0  0  0  0  0  0
  160.4530  210.2660  153.6800 C   0  0  1  0  0  3  0  0  0  0  0  0
  160.5260  209.0990  154.4400 O   0  0  0  0  0  1  0  0  0  0  0  0
  1 13  1  0  0  0  0
  1  2  2  0  0  0  0
  2 18  1  0  0  0  0
  3  6  1  0  0  0  0
  4  1  1  0  0  0  0
  5 12  1  0  0  0  0
  5  8  1  0  0  0  0
  7 14  2  0  0  0  0
  8  7  1  0  0  0  0
  8  4  2  0  0  0  0
  9 10  1  0  0  0  0
 11  2  1  0  0  0  0
 11 17  2  0  0  0  0
 12 16  1  0  0  0  0
 13  3  2  0  0  0  0
 14 13  1  0  0  0  0
 15  9  2  0  0  0  0
 16  4  1  0  0  0  0
 17 15  1  0  0  0  0
 18  6  2  0  0  0  0
 18  9  1  0  0  0  0
 19 17  1  0  0  0  0
 19 20  1  0  0  0  0
 20 22  1  0  0  0  0
 21 20  1  0  0  0  0
 22 24  1  0  0  0  0
 24 23  1  1  0  0  0
 24 25  1  0  0  0  0
M  END
>  <MODEL>
5

>  <REMARK>
 VINA RESULT:      -8.6      2.355      4.009
  Name = 
  4 active torsions:
  status: ('A' for Active; 'I' for Inactive)
    1  A    between atoms: C_6  and  N_15
    2  A    between atoms: C_6  and  C_23
    3  A    between atoms: C_7  and  C_21
    4  A    between atoms: N_15  and  C_21
                            x       y       z     vdW  Elec       q    Type
                         _______ _______ _______ _____ _____    ______ ____

>  <TORSDO>
F 4

$$$$
=
 OpenBabel11052422073D

 25 28  0  0  1  0  0  0  0  0999 V2000
  161.1250  205.4110  150.4780 C   0  0  0  0  0  0  0  0  0  0  0  0
  161.1010  206.4550  151.4460 C   0  0  0  0  0  0  0  0  0  0  0  0
  160.8850  203.8060  152.3020 C   0  0  0  0  0  3  0  0  0  0  0  0
  161.2450  205.6070  149.0720 C   0  0  0  0  0  0  0  0  0  0  0  0
  161.4600  204.8440  146.7770 C   0  0  0  0  0  2  0  0  0  0  0  0
  160.8690  204.8200  153.2000 N   0  0  0  0  0  0  0  0  0  0  0  0
  161.1630  203.2170  148.6790 C   0  0  0  0  0  3  0  0  0  0  0  0
  161.2800  204.5220  148.2110 C   0  0  0  0  0  0  0  0  0  0  0  0
  160.9540  207.1370  153.7970 C   0  0  0  0  0  0  0  0  0  0  0  0
  160.8250  206.8170  155.2470 C   0  0  0  0  0  1  0  0  0  0  0  0
  161.2040  207.8100  151.0980 C   0  0  0  0  0  3  0  0  0  0  0  0
  162.0060  206.2640  146.7320 C   0  0  0  0  0  2  0  0  0  0  0  0
  161.0130  204.0700  150.9420 C   0  0  0  0  0  0  0  0  0  0  0  0
  161.0270  202.9940  150.0480 C   0  0  0  0  0  3  0  0  0  0  0  0
  161.0590  208.4750  153.4140 C   0  0  0  0  0  3  0  0  0  0  0  0
  161.4000  207.1650  148.1980 S   0  0  0  0  0  0  0  0  0  0  0  0
  161.1760  208.8130  152.0680 C   0  0  0  0  0  0  0  0  0  0  0  0
  160.9730  206.1220  152.8220 C   0  0  0  0  0  0  0  0  0  0  0  0
  161.3140  210.2410  151.6660 C   0  0  0  0  0  2  0  0  0  0  0  0
  160.2260  211.0220  152.2320 N   0  0  0  0  0  0  0  0  0  0  0  0
  160.6560  211.4450  153.5530 C   0  0  0  0  0  1  0  0  0  0  0  0
  160.1100  212.2270  151.4260 C   0  0  0  0  0  2  0  0  0  0  0  0
  159.3180  214.4530  151.9600 N   0  0  0  0  0  1  0  0  0  0  0  0
  158.9290  213.0570  151.8970 C   0  0  1  0  0  3  0  0  0  0  0  0
  157.8630  212.9130  151.0100 O   0  0  0  0  0  1  0  0  0  0  0  0
  1 13  1  0  0  0  0
  1  2  2  0  0  0  0
  2 18  1  0  0  0  0
  3  6  1  0  0  0  0
  4  1  1  0  0  0  0
  5  8  1  0  0  0  0
  7 14  2  0  0  0  0
  8  7  1  0  0  0  0
  8  4  2  0  0  0  0
  9 10  1  0  0  0  0
 11  2  1  0  0  0  0
 11 17  2  0  0  0  0
 12  5  1  0  0  0  0
 12 16  1  0  0  0  0
 13  3  2  0  0  0  0
 14 13  1  0  0  0  0
 15  9  2  0  0  0  0
 16  4  1  0  0  0  0
 17 15  1  0  0  0  0
 18  6  2  0  0  0  0
 18  9  1  0  0  0  0
 19 17  1  0  0  0  0
 19 20  1  0  0  0  0
 20 21  1  0  0  0  0
 22 24  1  0  0  0  0
 22 20  1  0  0  0  0
 24 25  1  6  0  0  0
 24 23  1  0  0  0  0
M  END
>  <MODEL>
6

>  <REMARK>
 VINA RESULT:      -8.3      2.840      4.379
  Name = 
  4 active torsions:
  status: ('A' for Active; 'I' for Inactive)
    1  A    between atoms: C_6  and  N_15
    2  A    between atoms: C_6  and  C_23
    3  A    between atoms: C_7  and  C_21
    4  A    between atoms: N_15  and  C_21
                            x       y       z     vdW  Elec       q    Type
                         _______ _______ _______ _____ _____    ______ ____

>  <TORSDO>
F 4

$$$$
=
 OpenBabel11052422073D

 25 28  0  0  1  0  0  0  0  0999 V2000
  161.3340  206.4150  151.5140 C   0  0  0  0  0  0  0  0  0  0  0  0
  161.3140  205.4520  150.4660 C   0  0  0  0  0  0  0  0  0  0  0  0
  160.8110  204.6200  153.0840 C   0  0  0  0  0  3  0  0  0  0  0  0
  161.6040  207.8030  151.3390 C   0  0  0  0  0  0  0  0  0  0  0  0
  161.8230  210.0950  152.1130 C   0  0  0  0  0  2  0  0  0  0  0  0
  160.7950  203.7270  152.0660 N   0  0  0  0  0  0  0  0  0  0  0  0
  161.3300  208.2090  153.7130 C   0  0  0  0  0  3  0  0  0  0  0  0
  161.5800  208.6670  152.4220 C   0  0  0  0  0  0  0  0  0  0  0  0
  161.0020  203.1250  149.7580 C   0  0  0  0  0  0  0  0  0  0  0  0
  160.7060  201.6940  150.0550 C   0  0  0  0  0  1  0  0  0  0  0  0
  161.5570  205.7880  149.1260 C   0  0  0  0  0  3  0  0  0  0  0  0
  161.5810  210.2460  150.6180 C   0  0  0  0  0  2  0  0  0  0  0  0
  161.0750  205.9640  152.8390 C   0  0  0  0  0  0  0  0  0  0  0  0
  161.0800  206.8540  153.9180 C   0  0  0  0  0  3  0  0  0  0  0  0
  161.2470  203.4960  148.4350 C   0  0  0  0  0  3  0  0  0  0  0  0
  161.9650  208.6580  149.8050 S   0  0  0  0  0  0  0  0  0  0  0  0
  161.5320  204.8230  148.1190 C   0  0  0  0  0  0  0  0  0  0  0  0
  161.0340  204.0940  150.7780 C   0  0  0  0  0  0  0  0  0  0  0  0
  161.7680  205.2180  146.7030 C   0  0  0  0  0  2  0  0  0  0  0  0
  160.8570  204.4960  145.8280 N   0  0  0  0  0  0  0  0  0  0  0  0
  160.8310  205.2140  144.5650 C   0  0  0  0  0  1  0  0  0  0  0  0
  161.4670  203.2040  145.5590 C   0  0  0  0  0  2  0  0  0  0  0  0
  159.7100  201.9020  144.5170 N   0  0  0  0  0  1  0  0  0  0  0  0
  160.4480  202.0960  145.7510 C   0  0  1  0  0  3  0  0  0  0  0  0
  161.0940  200.9090  146.0940 O   0  0  0  0  0  1  0  0  0  0  0  0
  1 13  1  0  0  0  0
  2 18  1  0  0  0  0
  2  1  1  0  0  0  0
  4  1  2  0  0  0  0
  4  8  1  0  0  0  0
  5  8  1  0  0  0  0
  6  3  2  0  0  0  0
  7 14  1  0  0  0  0
  8  7  2  0  0  0  0
  9 10  1  0  0  0  0
  9 18  2  0  0  0  0
 11  2  2  0  0  0  0
 12  5  1  0  0  0  0
 13  3  1  0  0  0  0
 13 14  2  0  0  0  0
 15  9  1  0  0  0  0
 16 12  1  0  0  0  0
 16  4  1  0  0  0  0
 17 15  2  0  0  0  0
 17 11  1  0  0  0  0
 18  6  1  0  0  0  0
 19 17  1  0  0  0  0
 20 19  1  0  0  0  0
 21 20  1  0  0  0  0
 22 24  1  0  0  0  0
 22 20  1  0  0  0  0
 24 23  1  6  0  0  0
 24 25  1  0  0  0  0
M  END
>  <MODEL>
7

>  <REMARK>
 VINA RESULT:      -8.3      3.788      8.130
  Name = 
  4 active torsions:
  status: ('A' for Active; 'I' for Inactive)
    1  A    between atoms: C_6  and  N_15
    2  A    between atoms: C_6  and  C_23
    3  A    between atoms: C_7  and  C_21
    4  A    between atoms: N_15  and  C_21
                            x       y       z     vdW  Elec       q    Type
                         _______ _______ _______ _____ _____    ______ ____

>  <TORSDO>
F 4

$$$$
=
 OpenBabel11052422073D

 25 28  0  0  1  0  0  0  0  0999 V2000
  161.4630  206.0970  149.7740 C   0  0  0  0  0  0  0  0  0  0  0  0
  161.6300  207.4410  150.2140 C   0  0  0  0  0  0  0  0  0  0  0  0
  161.6560  206.8950  147.4750 C   0  0  0  0  0  3  0  0  0  0  0  0
  161.2870  204.9750  150.6350 C   0  0  0  0  0  0  0  0  0  0  0  0
  160.8840  202.6250  151.0960 C   0  0  0  0  0  2  0  0  0  0  0  0
  161.8090  208.1640  147.9230 N   0  0  0  0  0  0  0  0  0  0  0  0
  161.1370  203.4760  148.7360 C   0  0  0  0  0  3  0  0  0  0  0  0
  161.1110  203.7050  150.1090 C   0  0  0  0  0  0  0  0  0  0  0  0
  161.9610  209.8060  149.6580 C   0  0  0  0  0  0  0  0  0  0  0  0
  162.1370  210.9060  148.6670 C   0  0  0  0  0  1  0  0  0  0  0  0
  161.6290  207.7970  151.5700 C   0  0  0  0  0  3  0  0  0  0  0  0
  160.4640  203.3160  152.3850 C   0  0  0  0  0  2  0  0  0  0  0  0
  161.4810  205.8470  148.3740 C   0  0  0  0  0  0  0  0  0  0  0  0
  161.3250  204.5510  147.8700 C   0  0  0  0  0  3  0  0  0  0  0  0
  161.9530  210.1240  151.0170 C   0  0  0  0  0  3  0  0  0  0  0  0
  161.2240  204.9750  152.4270 S   0  0  0  0  0  0  0  0  0  0  0  0
  161.7960  209.1230  151.9720 C   0  0  0  0  0  0  0  0  0  0  0  0
  161.8010  208.4690  149.2480 C   0  0  0  0  0  0  0  0  0  0  0  0
  161.7630  209.4720  153.4200 C   0  0  0  0  0  2  0  0  0  0  0  0
  160.4710  209.1180  153.9860 N   0  0  0  0  0  0  0  0  0  0  0  0
  160.7140  208.0760  154.9680 C   0  0  0  0  0  1  0  0  0  0  0  0
  160.0020  210.2810  154.7220 C   0  0  0  0  0  2  0  0  0  0  0  0
  158.7250  211.2820  152.9240 N   0  0  0  0  0  1  0  0  0  0  0  0
  159.8730  211.4720  153.7900 C   0  0  1  0  0  3  0  0  0  0  0  0
  159.7050  212.6410  154.5310 O   0  0  0  0  0  1  0  0  0  0  0  0
  1  2  1  0  0  0  0
  1  4  2  0  0  0  0
  2 11  1  0  0  0  0
  3  6  2  0  0  0  0
  3 13  1  0  0  0  0
  4 16  1  0  0  0  0
  5 12  1  0  0  0  0
  6 18  1  0  0  0  0
  7  8  2  0  0  0  0
  8  4  1  0  0  0  0
  8  5  1  0  0  0  0
  9 15  2  0  0  0  0
 10  9  1  0  0  0  0
 11 17  2  0  0  0  0
 12 16  1  0  0  0  0
 13  1  1  0  0  0  0
 14 13  2  0  0  0  0
 14  7  1  0  0  0  0
 15 17  1  0  0  0  0
 17 19  1  0  0  0  0
 18  9  1  0  0  0  0
 18  2  2  0  0  0  0
 19 20  1  0  0  0  0
 20 22  1  0  0  0  0
 20 21  1  0  0  0  0
 24 23  1  6  0  0  0
 24 25  1  0  0  0  0
 24 22  1  0  0  0  0
M  END
>  <MODEL>
8

>  <REMARK>
 VINA RESULT:      -8.1      1.884      2.405
  Name = 
  4 active torsions:
  status: ('A' for Active; 'I' for Inactive)
    1  A    between atoms: C_6  and  N_15
    2  A    between atoms: C_6  and  C_23
    3  A    between atoms: C_7  and  C_21
    4  A    between atoms: N_15  and  C_21
                            x       y       z     vdW  Elec       q    Type
                         _______ _______ _______ _____ _____    ______ ____

>  <TORSDO>
F 4

$$$$
=
 OpenBabel11052422073D

 25 28  0  0  1  0  0  0  0  0999 V2000
  161.4880  207.4580  150.6210 C   0  0  0  0  0  0  0  0  0  0  0  0
  161.4710  206.4520  149.6140 C   0  0  0  0  0  0  0  0  0  0  0  0
  162.1850  209.0610  148.9170 C   0  0  0  0  0  3  0  0  0  0  0  0
  161.1550  207.2450  151.9910 C   0  0  0  0  0  0  0  0  0  0  0  0
  160.9050  207.9360  154.3050 C   0  0  0  0  0  2  0  0  0  0  0  0
  162.1640  208.0820  147.9810 N   0  0  0  0  0  0  0  0  0  0  0  0
  161.5770  209.5740  152.5100 C   0  0  0  0  0  3  0  0  0  0  0  0
  161.2220  208.2870  152.9020 C   0  0  0  0  0  0  0  0  0  0  0  0
  161.8210  205.8210  147.2700 C   0  0  0  0  0  0  0  0  0  0  0  0
  162.1900  206.1560  145.8650 C   0  0  0  0  0  1  0  0  0  0  0  0
  161.1240  205.1200  149.8830 C   0  0  0  0  0  3  0  0  0  0  0  0
  161.0370  206.4230  154.3990 C   0  0  0  0  0  2  0  0  0  0  0  0
  161.8550  208.7790  150.2390 C   0  0  0  0  0  0  0  0  0  0  0  0
  161.8910  209.8180  151.1750 C   0  0  0  0  0  3  0  0  0  0  0  0
  161.4710  204.5050  147.5750 C   0  0  0  0  0  3  0  0  0  0  0  0
  160.6580  205.7060  152.7640 S   0  0  0  0  0  0  0  0  0  0  0  0
  161.1160  204.1550  148.8760 C   0  0  0  0  0  0  0  0  0  0  0  0
  161.8230  206.8000  148.2820 C   0  0  0  0  0  0  0  0  0  0  0  0
  160.7680  202.7430  149.2000 C   0  0  0  0  0  2  0  0  0  0  0  0
  161.2770  201.8570  148.1650 N   0  0  0  0  0  0  0  0  0  0  0  0
  161.5040  200.5670  148.7920 C   0  0  0  0  0  1  0  0  0  0  0  0
  160.2010  201.6690  147.2050 C   0  0  0  0  0  2  0  0  0  0  0  0
  159.8970  200.7130  145.0000 N   0  0  0  0  0  1  0  0  0  0  0  0
  160.7680  201.5510  145.8020 C   0  0  1  0  0  3  0  0  0  0  0  0
  160.8590  202.8150  145.2180 O   0  0  0  0  0  1  0  0  0  0  0  0
  1  4  2  0  0  0  0
  2 11  1  0  0  0  0
  2  1  1  0  0  0  0
  3 13  1  0  0  0  0
  4 16  1  0  0  0  0
  4  8  1  0  0  0  0
  5 12  1  0  0  0  0
  6 18  1  0  0  0  0
  6  3  2  0  0  0  0
  7  8  2  0  0  0  0
  8  5  1  0  0  0  0
  9 15  2  0  0  0  0
  9 18  1  0  0  0  0
 10  9  1  0  0  0  0
 13  1  1  0  0  0  0
 13 14  2  0  0  0  0
 14  7  1  0  0  0  0
 15 17  1  0  0  0  0
 16 12  1  0  0  0  0
 17 19  1  0  0  0  0
 17 11  2  0  0  0  0
 18  2  2  0  0  0  0
 20 21  1  0  0  0  0
 20 19  1  0  0  0  0
 22 20  1  0  0  0  0
 24 23  1  6  0  0  0
 24 22  1  0  0  0  0
 25 24  1  0  0  0  0
M  END
>  <MODEL>
9

>  <REMARK>
 VINA RESULT:      -7.9      3.685      7.372
  Name = 
  4 active torsions:
  status: ('A' for Active; 'I' for Inactive)
    1  A    between atoms: C_6  and  N_15
    2  A    between atoms: C_6  and  C_23
    3  A    between atoms: C_7  and  C_21
    4  A    between atoms: N_15  and  C_21
                            x       y       z     vdW  Elec       q    Type
                         _______ _______ _______ _____ _____    ______ ____

>  <TORSDO>
F 4

$$$$
