=
 OpenBabel11052421523D

 30 33  0  0  1  0  0  0  0  0999 V2000
  161.6460  206.0730  151.7550 C   0  0  1  0  0  0  0  0  0  0  0  0
  161.6020  204.7850  150.8960 C   0  0  2  0  0  3  0  0  0  0  0  0
  160.8340  207.3440  148.2090 C   0  0  0  0  0  2  0  0  0  0  0  0
  160.9720  209.1520  152.3140 C   0  0  1  0  0  3  0  0  0  0  0  0
  161.2060  206.6150  149.4740 C   0  0  0  0  0  0  0  0  0  0  0  0
  161.6770  204.4840  148.2640 C   0  0  0  0  0  2  0  0  0  0  0  0
  161.4210  208.4360  153.5480 C   0  0  1  0  0  3  0  0  0  0  0  0
  161.4640  205.3100  149.5050 C   0  0  0  0  0  0  0  0  0  0  0  0
  161.0010  207.1460  150.8470 C   0  0  2  0  0  3  0  0  0  0  0  0
  161.3540  209.5510  154.5700 C   0  0  0  0  0  2  0  0  0  0  0  0
  161.4780  210.5520  152.5410 C   0  0  0  0  0  2  0  0  0  0  0  0
  161.0050  205.1270  147.0480 C   0  0  0  0  0  2  0  0  0  0  0  0
  161.3600  206.6120  146.9730 C   0  0  0  0  0  2  0  0  0  0  0  0
  160.9240  205.9440  153.1120 C   0  0  0  0  0  2  0  0  0  0  0  0
  160.4870  207.2380  153.8240 C   0  0  1  0  0  3  0  0  0  0  0  0
  161.5880  210.7820  153.9260 O   0  0  0  0  0  0  0  0  0  0  0  0
  163.1260  206.3470  152.0240 C   0  0  0  0  0  1  0  0  0  0  0  0
  161.5600  208.5530  151.0450 C   0  0  0  0  0  2  0  0  0  0  0  0
  160.3410  206.9190  155.2810 C   0  0  0  0  0  3  0  0  0  0  0  0
  159.3500  207.2730  155.8980 O   0  0  0  0  0  0  0  0  0  0  0  0
  160.4120  203.8720  151.1990 C   0  0  0  0  0  2  0  0  0  0  0  0
  160.8790  202.5990  151.8890 C   0  0  0  0  0  2  0  0  0  0  0  0
  161.5430  201.6490  150.9050 C   0  0  0  0  0  2  0  0  0  0  0  0
  160.5660  201.2580  149.8070 C   0  0  0  0  0  2  0  0  0  0  0  0
  161.3160  200.7850  148.5760 C   0  0  0  0  0  2  0  0  0  0  0  0
  160.7960  201.4830  147.3330 C   0  0  0  0  0  2  0  0  0  0  0  0
  160.2570  200.9040  144.9130 N   0  0  0  0  0  2  0  0  0  0  0  0
  159.5980  202.1810  144.6860 C   0  0  0  0  0  1  0  0  0  0  0  0
  160.8270  200.5450  146.1730 C   0  0  0  0  0  0  0  0  0  0  0  0
  161.3910  199.4280  146.3000 O   0  0  0  0  0  0  0  0  0  0  0  0
  1 17  1  1  0  0  0
  1 14  1  0  0  0  0
  2 21  1  1  0  0  0
  2  1  1  0  0  0  0
  3  5  1  0  0  0  0
  4 18  1  6  0  0  0
  4 11  1  0  0  0  0
  4  7  1  0  0  0  0
  5  8  2  0  0  0  0
  5  9  1  0  0  0  0
  6  8  1  0  0  0  0
  7 15  1  0  0  0  0
  7 10  1  1  0  0  0
  8  2  1  0  0  0  0
  9 18  1  6  0  0  0
  9  1  1  0  0  0  0
 11 16  1  0  0  0  0
 12  6  1  0  0  0  0
 13 12  1  0  0  0  0
 13  3  1  0  0  0  0
 14 15  1  0  0  0  0
 15 19  1  1  0  0  0
 16 10  1  0  0  0  0
 19 20  2  0  0  0  0
 21 22  1  0  0  0  0
 23 22  1  0  0  0  0
 24 23  1  0  0  0  0
 25 24  1  0  0  0  0
 26 25  1  0  0  0  0
 27 29  1  0  0  0  0
 28 27  1  0  0  0  0
 29 30  2  0  0  0  0
 29 26  1  0  0  0  0
M  END
>  <MODEL>
1

>  <REMARK>
 VINA RESULT:      -8.1      0.000      0.000
  Name = 
  8 active torsions:
  status: ('A' for Active; 'I' for Inactive)
    1  A    between atoms: C_1  and  C_5
    2  A    between atoms: C_1  and  C_22
    3  A    between atoms: C_2  and  C_18
    4  A    between atoms: C_2  and  C_22
    5  A    between atoms: C_11  and  C_25
    6  A    between atoms: C_14  and  C_18
    7  A    between atoms: C_14  and  C_20
    8  A    between atoms: C_20  and  C_28
                            x       y       z     vdW  Elec       q    Type
                         _______ _______ _______ _____ _____    ______ ____

>  <TORSDO>
F 8

$$$$
=
 OpenBabel11052421523D

 30 33  0  0  1  0  0  0  0  0999 V2000
  161.1030  205.9720  149.9080 C   0  0  1  0  0  0  0  0  0  0  0  0
  161.2380  205.0900  148.6430 C   0  0  2  0  0  3  0  0  0  0  0  0
  161.4000  202.3890  151.2950 C   0  0  0  0  0  2  0  0  0  0  0  0
  161.4070  206.5200  153.0480 C   0  0  1  0  0  3  0  0  0  0  0  0
  161.2500  203.6700  150.5160 C   0  0  0  0  0  0  0  0  0  0  0  0
  160.9570  202.4710  148.3480 C   0  0  0  0  0  2  0  0  0  0  0  0
  161.1760  207.7780  152.2720 C   0  0  1  0  0  3  0  0  0  0  0  0
  161.1730  203.7020  149.1880 C   0  0  0  0  0  0  0  0  0  0  0  0
  161.5100  205.0270  151.0630 C   0  0  2  0  0  3  0  0  0  0  0  0
  161.1890  208.8090  153.3810 C   0  0  0  0  0  2  0  0  0  0  0  0
  160.7420  206.8170  154.3660 C   0  0  0  0  0  2  0  0  0  0  0  0
  161.4200  201.2100  149.0810 C   0  0  0  0  0  2  0  0  0  0  0  0
  160.8640  201.1940  150.5050 C   0  0  0  0  0  2  0  0  0  0  0  0
  161.9600  207.2540  149.8710 C   0  0  0  0  0  2  0  0  0  0  0  0
  162.2840  207.9460  151.2090 C   0  0  1  0  0  3  0  0  0  0  0  0
  160.7330  208.2100  154.5720 O   0  0  0  0  0  0  0  0  0  0  0  0
  159.6310  206.3810  149.9790 C   0  0  0  0  0  1  0  0  0  0  0  0
  160.7890  205.3010  152.3810 C   0  0  0  0  0  2  0  0  0  0  0  0
  162.6080  209.3770  150.9060 C   0  0  0  0  0  3  0  0  0  0  0  0
  161.9420  210.0060  150.1010 O   0  0  0  0  0  0  0  0  0  0  0  0
  162.5620  205.2660  147.8980 C   0  0  0  0  0  2  0  0  0  0  0  0
  162.3320  205.9370  146.5510 C   0  0  0  0  0  2  0  0  0  0  0  0
  160.8600  206.2460  146.3320 C   0  0  0  0  0  2  0  0  0  0  0  0
  160.4280  205.8030  144.9420 C   0  0  0  0  0  2  0  0  0  0  0  0
  161.2710  204.6300  144.4760 C   0  0  0  0  0  2  0  0  0  0  0  0
  160.9490  203.3870  145.2860 C   0  0  0  0  0  2  0  0  0  0  0  0
  159.7730  201.1940  144.7480 N   0  0  0  0  0  2  0  0  0  0  0  0
  160.7370  200.4150  145.5100 C   0  0  0  0  0  1  0  0  0  0  0  0
  159.8610  202.6140  144.6190 C   0  0  0  0  0  0  0  0  0  0  0  0
  158.9880  203.2290  143.9530 O   0  0  0  0  0  0  0  0  0  0  0  0
  1 17  1  1  0  0  0
  1  9  1  0  0  0  0
  2 21  1  1  0  0  0
  2  8  1  0  0  0  0
  2  1  1  0  0  0  0
  4 18  1  6  0  0  0
  4 11  1  0  0  0  0
  5  9  1  0  0  0  0
  5  3  1  0  0  0  0
  6 12  1  0  0  0  0
  6  8  1  0  0  0  0
  7  4  1  0  0  0  0
  7 10  1  1  0  0  0
  8  5  2  0  0  0  0
  9 18  1  1  0  0  0
 10 16  1  0  0  0  0
 11 16  1  0  0  0  0
 12 13  1  0  0  0  0
 13  3  1  0  0  0  0
 14  1  1  0  0  0  0
 14 15  1  0  0  0  0
 15 19  1  6  0  0  0
 15  7  1  0  0  0  0
 20 19  2  0  0  0  0
 22 21  1  0  0  0  0
 23 22  1  0  0  0  0
 24 23  1  0  0  0  0
 25 24  1  0  0  0  0
 25 26  1  0  0  0  0
 27 28  1  0  0  0  0
 29 27  1  0  0  0  0
 29 26  1  0  0  0  0
 30 29  2  0  0  0  0
M  END
>  <MODEL>
2

>  <REMARK>
 VINA RESULT:      -7.6      1.687      4.163
  Name = 
  8 active torsions:
  status: ('A' for Active; 'I' for Inactive)
    1  A    between atoms: C_1  and  C_5
    2  A    between atoms: C_1  and  C_22
    3  A    between atoms: C_2  and  C_18
    4  A    between atoms: C_2  and  C_22
    5  A    between atoms: C_11  and  C_25
    6  A    between atoms: C_14  and  C_18
    7  A    between atoms: C_14  and  C_20
    8  A    between atoms: C_20  and  C_28
                            x       y       z     vdW  Elec       q    Type
                         _______ _______ _______ _____ _____    ______ ____

>  <TORSDO>
F 8

$$$$
=
 OpenBabel11052421523D

 30 33  0  0  1  0  0  0  0  0999 V2000
  161.5460  207.3280  151.6990 C   0  0  1  0  0  0  0  0  0  0  0  0
  161.5710  208.7110  152.3940 C   0  0  2  0  0  3  0  0  0  0  0  0
  160.2340  206.6110  155.2500 C   0  0  0  0  0  2  0  0  0  0  0  0
  160.5650  204.2930  151.4220 C   0  0  1  0  0  3  0  0  0  0  0  0
  160.8160  207.1300  153.9610 C   0  0  0  0  0  0  0  0  0  0  0  0
  161.4170  209.3330  154.9660 C   0  0  0  0  0  2  0  0  0  0  0  0
  161.2190  204.7940  150.1740 C   0  0  1  0  0  3  0  0  0  0  0  0
  161.2320  208.3850  153.8110 C   0  0  0  0  0  0  0  0  0  0  0  0
  160.6880  206.4540  152.6440 C   0  0  2  0  0  3  0  0  0  0  0  0
  161.1200  203.5720  149.2850 C   0  0  0  0  0  2  0  0  0  0  0  0
  160.9180  202.8290  151.4160 C   0  0  0  0  0  2  0  0  0  0  0  0
  160.5530  208.9250  156.1620 C   0  0  0  0  0  2  0  0  0  0  0  0
  160.7170  207.4320  156.4470 C   0  0  0  0  0  2  0  0  0  0  0  0
  160.9850  207.3610  150.2620 C   0  0  0  0  0  2  0  0  0  0  0  0
  160.4690  206.0410  149.6570 C   0  0  1  0  0  3  0  0  0  0  0  0
  161.1380  202.4150  150.0880 O   0  0  0  0  0  0  0  0  0  0  0  0
  163.0010  206.8640  151.6340 C   0  0  0  0  0  1  0  0  0  0  0  0
  161.0900  204.9810  152.6730 C   0  0  0  0  0  2  0  0  0  0  0  0
  160.5090  206.1870  148.1660 C   0  0  0  0  0  3  0  0  0  0  0  0
  161.2420  207.0110  147.6430 O   0  0  0  0  0  0  0  0  0  0  0  0
  160.5370  209.7010  151.8550 C   0  0  0  0  0  2  0  0  0  0  0  0
  161.0500  211.1280  151.9770 C   0  0  0  0  0  2  0  0  0  0  0  0
  160.0600  212.0100  152.7210 C   0  0  0  0  0  2  0  0  0  0  0  0
  158.7270  211.2950  152.8720 C   0  0  0  0  0  2  0  0  0  0  0  0
  158.2430  211.3760  154.3080 C   0  0  0  0  0  2  0  0  0  0  0  0
  156.9030  212.0850  154.3800 C   0  0  0  0  0  2  0  0  0  0  0  0
  155.7510  211.6840  156.6150 N   0  0  0  0  0  2  0  0  0  0  0  0
  156.4340  212.8040  157.2420 C   0  0  0  0  0  1  0  0  0  0  0  0
  155.9680  211.3150  155.2520 C   0  0  0  0  0  0  0  0  0  0  0  0
  155.3370  210.3400  154.7680 O   0  0  0  0  0  0  0  0  0  0  0  0
  1 17  1  6  0  0  0
  1  2  1  0  0  0  0
  1  9  1  0  0  0  0
  2 21  1  6  0  0  0
  2  8  1  0  0  0  0
  3 13  1  0  0  0  0
  4 11  1  1  0  0  0
  4 18  1  0  0  0  0
  5  3  1  0  0  0  0
  6 12  1  0  0  0  0
  7 10  1  6  0  0  0
  7  4  1  0  0  0  0
  8  5  2  0  0  0  0
  8  6  1  0  0  0  0
  9 18  1  1  0  0  0
  9  5  1  0  0  0  0
 10 16  1  0  0  0  0
 12 13  1  0  0  0  0
 14  1  1  0  0  0  0
 15 19  1  6  0  0  0
 15  7  1  0  0  0  0
 15 14  1  0  0  0  0
 16 11  1  0  0  0  0
 20 19  2  0  0  0  0
 21 22  1  0  0  0  0
 22 23  1  0  0  0  0
 23 24  1  0  0  0  0
 24 25  1  0  0  0  0
 25 26  1  0  0  0  0
 26 29  1  0  0  0  0
 27 28  1  0  0  0  0
 29 27  1  0  0  0  0
 30 29  2  0  0  0  0
M  END
>  <MODEL>
3

>  <REMARK>
 VINA RESULT:      -7.6      4.167      9.083
  Name = 
  8 active torsions:
  status: ('A' for Active; 'I' for Inactive)
    1  A    between atoms: C_1  and  C_5
    2  A    between atoms: C_1  and  C_22
    3  A    between atoms: C_2  and  C_18
    4  A    between atoms: C_2  and  C_22
    5  A    between atoms: C_11  and  C_25
    6  A    between atoms: C_14  and  C_18
    7  A    between atoms: C_14  and  C_20
    8  A    between atoms: C_20  and  C_28
                            x       y       z     vdW  Elec       q    Type
                         _______ _______ _______ _____ _____    ______ ____

>  <TORSDO>
F 8

$$$$
=
 OpenBabel11052421523D

 30 33  0  0  1  0  0  0  0  0999 V2000
  161.7700  207.2060  151.2260 C   0  0  1  0  0  0  0  0  0  0  0  0
  161.9080  208.6100  151.8640 C   0  0  2  0  0  3  0  0  0  0  0  0
  160.3330  206.7660  154.7740 C   0  0  0  0  0  2  0  0  0  0  0  0
  160.5230  204.2620  151.0560 C   0  0  1  0  0  3  0  0  0  0  0  0
  160.9840  207.1730  153.4780 C   0  0  0  0  0  0  0  0  0  0  0  0
  161.7630  209.3560  154.4030 C   0  0  0  0  0  2  0  0  0  0  0  0
  161.2430  204.6470  149.8020 C   0  0  1  0  0  3  0  0  0  0  0  0
  161.5150  208.3780  153.2850 C   0  0  0  0  0  0  0  0  0  0  0  0
  160.8190  206.4540  152.1880 C   0  0  2  0  0  3  0  0  0  0  0  0
  161.0510  203.4010  148.9630 C   0  0  0  0  0  2  0  0  0  0  0  0
  160.7430  202.7730  151.1190 C   0  0  0  0  0  2  0  0  0  0  0  0
  160.8440  209.0800  155.5950 C   0  0  0  0  0  2  0  0  0  0  0  0
  160.8660  207.5920  155.9460 C   0  0  0  0  0  2  0  0  0  0  0  0
  161.2410  207.2260  149.7780 C   0  0  0  0  0  2  0  0  0  0  0  0
  160.6190  205.9330  149.2170 C   0  0  1  0  0  3  0  0  0  0  0  0
  160.9490  202.2840  149.8150 O   0  0  0  0  0  0  0  0  0  0  0  0
  163.1780  206.6100  151.2140 C   0  0  0  0  0  1  0  0  0  0  0  0
  161.0850  204.9550  152.2880 C   0  0  0  0  0  2  0  0  0  0  0  0
  160.7000  206.0090  147.7230 C   0  0  0  0  0  3  0  0  0  0  0  0
  161.6930  206.4600  147.1770 O   0  0  0  0  0  0  0  0  0  0  0  0
  160.9780  209.6640  151.2600 C   0  0  0  0  0  2  0  0  0  0  0  0
  161.7830  210.8230  150.6900 C   0  0  0  0  0  2  0  0  0  0  0  0
  161.9720  210.6800  149.1890 C   0  0  0  0  0  2  0  0  0  0  0  0
  162.3750  212.0140  148.5780 C   0  0  0  0  0  2  0  0  0  0  0  0
  161.2770  213.0410  148.7790 C   0  0  0  0  0  2  0  0  0  0  0  0
  161.0980  213.8810  147.5270 C   0  0  0  0  0  2  0  0  0  0  0  0
  161.1890  212.8370  145.2060 N   0  0  0  0  0  2  0  0  0  0  0  0
  162.4890  213.4240  144.9220 C   0  0  0  0  0  1  0  0  0  0  0  0
  160.5000  213.0510  146.4400 C   0  0  0  0  0  0  0  0  0  0  0  0
  159.3820  212.5060  146.6250 O   0  0  0  0  0  0  0  0  0  0  0  0
  1 17  1  1  0  0  0
  1  2  1  0  0  0  0
  1  9  1  0  0  0  0
  2 21  1  6  0  0  0
  2  8  1  0  0  0  0
  3 13  1  0  0  0  0
  4 11  1  1  0  0  0
  4 18  1  0  0  0  0
  5  3  1  0  0  0  0
  6 12  1  0  0  0  0
  7 10  1  6  0  0  0
  7  4  1  0  0  0  0
  8  5  2  0  0  0  0
  8  6  1  0  0  0  0
  9 18  1  1  0  0  0
  9  5  1  0  0  0  0
 10 16  1  0  0  0  0
 12 13  1  0  0  0  0
 14  1  1  0  0  0  0
 15 19  1  6  0  0  0
 15 14  1  0  0  0  0
 15  7  1  0  0  0  0
 16 11  1  0  0  0  0
 20 19  2  0  0  0  0
 22 21  1  0  0  0  0
 23 22  1  0  0  0  0
 24 25  1  0  0  0  0
 24 23  1  0  0  0  0
 26 25  1  0  0  0  0
 27 29  1  0  0  0  0
 28 27  1  0  0  0  0
 29 30  2  0  0  0  0
 29 26  1  0  0  0  0
M  END
>  <MODEL>
4

>  <REMARK>
 VINA RESULT:      -7.2      3.937      8.217
  Name = 
  8 active torsions:
  status: ('A' for Active; 'I' for Inactive)
    1  A    between atoms: C_1  and  C_5
    2  A    between atoms: C_1  and  C_22
    3  A    between atoms: C_2  and  C_18
    4  A    between atoms: C_2  and  C_22
    5  A    between atoms: C_11  and  C_25
    6  A    between atoms: C_14  and  C_18
    7  A    between atoms: C_14  and  C_20
    8  A    between atoms: C_20  and  C_28
                            x       y       z     vdW  Elec       q    Type
                         _______ _______ _______ _____ _____    ______ ____

>  <TORSDO>
F 8

$$$$
=
 OpenBabel11052421523D

 30 33  0  0  1  0  0  0  0  0999 V2000
  160.8110  205.7090  149.3340 C   0  0  1  0  0  0  0  0  0  0  0  0
  160.8970  206.3290  150.7500 C   0  0  2  0  0  3  0  0  0  0  0  0
  162.4900  209.1290  148.7560 C   0  0  0  0  0  2  0  0  0  0  0  0
  161.6790  205.4890  146.2600 C   0  0  1  0  0  3  0  0  0  0  0  0
  161.7810  207.8860  149.2270 C   0  0  0  0  0  0  0  0  0  0  0  0
  161.3510  208.8310  151.4950 C   0  0  0  0  0  2  0  0  0  0  0  0
  160.9040  204.2950  146.7180 C   0  0  1  0  0  3  0  0  0  0  0  0
  161.3830  207.7150  150.4850 C   0  0  0  0  0  0  0  0  0  0  0  0
  161.7460  206.6000  148.4820 C   0  0  2  0  0  3  0  0  0  0  0  0
  160.8730  203.4670  145.4500 C   0  0  0  0  0  2  0  0  0  0  0  0
  161.2910  205.6000  144.8100 C   0  0  0  0  0  2  0  0  0  0  0  0
  162.3310  209.9460  151.1230 C   0  0  0  0  0  2  0  0  0  0  0  0
  162.1630  210.3260  149.6510 C   0  0  0  0  0  2  0  0  0  0  0  0
  161.2100  204.2200  149.2770 C   0  0  0  0  0  2  0  0  0  0  0  0
  161.6230  203.6340  147.9140 C   0  0  1  0  0  3  0  0  0  0  0  0
  160.9160  204.3280  144.3370 O   0  0  0  0  0  0  0  0  0  0  0  0
  159.3460  205.8290  148.9120 C   0  0  0  0  0  1  0  0  0  0  0  0
  161.3130  206.7510  147.0260 C   0  0  0  0  0  2  0  0  0  0  0  0
  161.4210  202.1510  147.9860 C   0  0  0  0  0  3  0  0  0  0  0  0
  160.6420  201.6690  148.7910 O   0  0  0  0  0  0  0  0  0  0  0  0
  161.8890  205.6270  151.6790 C   0  0  0  0  0  2  0  0  0  0  0  0
  161.2140  205.2410  152.9870 C   0  0  0  0  0  2  0  0  0  0  0  0
  161.5810  206.2030  154.1050 C   0  0  0  0  0  2  0  0  0  0  0  0
  160.4520  207.1950  154.3400 C   0  0  0  0  0  2  0  0  0  0  0  0
  160.1650  207.3280  155.8240 C   0  0  0  0  0  2  0  0  0  0  0  0
  160.1140  208.7910  156.2280 C   0  0  0  0  0  2  0  0  0  0  0  0
  161.8050  210.4770  155.3450 N   0  0  0  0  0  2  0  0  0  0  0  0
  160.8310  211.0820  154.4500 C   0  0  0  0  0  1  0  0  0  0  0  0
  161.4870  209.3740  156.1960 C   0  0  0  0  0  0  0  0  0  0  0  0
  162.3740  208.9030  156.9530 O   0  0  0  0  0  0  0  0  0  0  0  0
  1 17  1  6  0  0  0
  1  2  1  0  0  0  0
  2 21  1  1  0  0  0
  3  5  1  0  0  0  0
  3 13  1  0  0  0  0
  4 11  1  6  0  0  0
  4  7  1  0  0  0  0
  4 18  1  0  0  0  0
  5  8  2  0  0  0  0
  7 10  1  6  0  0  0
  7 15  1  0  0  0  0
  8  2  1  0  0  0  0
  8  6  1  0  0  0  0
  9 18  1  6  0  0  0
  9  5  1  0  0  0  0
  9  1  1  0  0  0  0
 12  6  1  0  0  0  0
 13 12  1  0  0  0  0
 14  1  1  0  0  0  0
 15 19  1  1  0  0  0
 15 14  1  0  0  0  0
 16 11  1  0  0  0  0
 16 10  1  0  0  0  0
 19 20  2  0  0  0  0
 21 22  1  0  0  0  0
 22 23  1  0  0  0  0
 23 24  1  0  0  0  0
 24 25  1  0  0  0  0
 25 26  1  0  0  0  0
 27 29  1  0  0  0  0
 28 27  1  0  0  0  0
 29 26  1  0  0  0  0
 29 30  2  0  0  0  0
M  END
>  <MODEL>
5

>  <REMARK>
 VINA RESULT:      -7.1      3.201      8.043
  Name = 
  8 active torsions:
  status: ('A' for Active; 'I' for Inactive)
    1  A    between atoms: C_1  and  C_5
    2  A    between atoms: C_1  and  C_22
    3  A    between atoms: C_2  and  C_18
    4  A    between atoms: C_2  and  C_22
    5  A    between atoms: C_11  and  C_25
    6  A    between atoms: C_14  and  C_18
    7  A    between atoms: C_14  and  C_20
    8  A    between atoms: C_20  and  C_28
                            x       y       z     vdW  Elec       q    Type
                         _______ _______ _______ _____ _____    ______ ____

>  <TORSDO>
F 8

$$$$
=
 OpenBabel11052421523D

 30 33  0  0  1  0  0  0  0  0999 V2000
  161.7520  207.2950  151.2990 C   0  0  1  0  0  0  0  0  0  0  0  0
  161.8930  208.7030  151.9280 C   0  0  2  0  0  3  0  0  0  0  0  0
  160.3260  206.8750  154.8540 C   0  0  0  0  0  2  0  0  0  0  0  0
  160.5020  204.3520  151.1470 C   0  0  1  0  0  3  0  0  0  0  0  0
  160.9730  207.2750  153.5530 C   0  0  0  0  0  0  0  0  0  0  0  0
  161.7570  209.4610  154.4640 C   0  0  0  0  0  2  0  0  0  0  0  0
  161.2180  204.7300  149.8900 C   0  0  1  0  0  3  0  0  0  0  0  0
  161.5040  208.4780  153.3520 C   0  0  0  0  0  0  0  0  0  0  0  0
  160.8030  206.5500  152.2670 C   0  0  2  0  0  3  0  0  0  0  0  0
  161.0210  203.4800  149.0570 C   0  0  0  0  0  2  0  0  0  0  0  0
  160.7200  202.8640  151.2170 C   0  0  0  0  0  2  0  0  0  0  0  0
  160.8420  209.1930  155.6610 C   0  0  0  0  0  2  0  0  0  0  0  0
  160.8640  207.7070  156.0200 C   0  0  0  0  0  2  0  0  0  0  0  0
  161.2180  207.3090  149.8520 C   0  0  0  0  0  2  0  0  0  0  0  0
  160.5930  206.0140  149.3000 C   0  0  1  0  0  3  0  0  0  0  0  0
  160.9210  202.3670  149.9150 O   0  0  0  0  0  0  0  0  0  0  0  0
  163.1590  206.6990  151.2850 C   0  0  0  0  0  1  0  0  0  0  0  0
  161.0680  205.0510  152.3740 C   0  0  0  0  0  2  0  0  0  0  0  0
  160.6690  206.0820  147.8050 C   0  0  0  0  0  3  0  0  0  0  0  0
  161.4110  206.8800  147.2570 O   0  0  0  0  0  0  0  0  0  0  0  0
  160.9620  209.7550  151.3230 C   0  0  0  0  0  2  0  0  0  0  0  0
  161.7670  210.9050  150.7350 C   0  0  0  0  0  2  0  0  0  0  0  0
  161.9560  210.7380  149.2360 C   0  0  0  0  0  2  0  0  0  0  0  0
  162.2580  212.0820  148.5890 C   0  0  0  0  0  2  0  0  0  0  0  0
  161.3040  212.3420  147.4390 C   0  0  0  0  0  2  0  0  0  0  0  0
  160.5750  213.6580  147.6380 C   0  0  0  0  0  2  0  0  0  0  0  0
  158.9740  213.7330  149.6160 N   0  0  0  0  0  2  0  0  0  0  0  0
  159.9850  214.2980  150.4960 C   0  0  0  0  0  1  0  0  0  0  0  0
  159.2370  213.4100  148.2500 C   0  0  0  0  0  0  0  0  0  0  0  0
  158.3140  212.9320  147.5400 O   0  0  0  0  0  0  0  0  0  0  0  0
  1 17  1  1  0  0  0
  1  2  1  0  0  0  0
  1  9  1  0  0  0  0
  2 21  1  6  0  0  0
  2  8  1  0  0  0  0
  3 13  1  0  0  0  0
  4 11  1  1  0  0  0
  4 18  1  0  0  0  0
  5  3  1  0  0  0  0
  6 12  1  0  0  0  0
  7 10  1  6  0  0  0
  7  4  1  0  0  0  0
  8  5  2  0  0  0  0
  8  6  1  0  0  0  0
  9 18  1  1  0  0  0
  9  5  1  0  0  0  0
 10 16  1  0  0  0  0
 12 13  1  0  0  0  0
 14  1  1  0  0  0  0
 15 19  1  6  0  0  0
 15 14  1  0  0  0  0
 15  7  1  0  0  0  0
 16 11  1  0  0  0  0
 20 19  2  0  0  0  0
 22 21  1  0  0  0  0
 23 22  1  0  0  0  0
 24 23  1  0  0  0  0
 25 26  1  0  0  0  0
 25 24  1  0  0  0  0
 26 29  1  0  0  0  0
 27 28  1  0  0  0  0
 29 27  1  0  0  0  0
 30 29  2  0  0  0  0
M  END
>  <MODEL>
6

>  <REMARK>
 VINA RESULT:      -7.1      4.007      8.424
  Name = 
  8 active torsions:
  status: ('A' for Active; 'I' for Inactive)
    1  A    between atoms: C_1  and  C_5
    2  A    between atoms: C_1  and  C_22
    3  A    between atoms: C_2  and  C_18
    4  A    between atoms: C_2  and  C_22
    5  A    between atoms: C_11  and  C_25
    6  A    between atoms: C_14  and  C_18
    7  A    between atoms: C_14  and  C_20
    8  A    between atoms: C_20  and  C_28
                            x       y       z     vdW  Elec       q    Type
                         _______ _______ _______ _____ _____    ______ ____

>  <TORSDO>
F 8

$$$$
=
 OpenBabel11052421523D

 30 33  0  0  1  0  0  0  0  0999 V2000
  161.5400  207.3600  151.7180 C   0  0  1  0  0  0  0  0  0  0  0  0
  161.5310  208.7800  152.3350 C   0  0  2  0  0  3  0  0  0  0  0  0
  160.3540  206.7960  155.3410 C   0  0  0  0  0  2  0  0  0  0  0  0
  160.6700  204.2800  151.6390 C   0  0  1  0  0  3  0  0  0  0  0  0
  160.8800  207.2620  154.0090 C   0  0  0  0  0  0  0  0  0  0  0  0
  161.4220  209.5400  154.8720 C   0  0  0  0  0  2  0  0  0  0  0  0
  161.2700  204.7340  150.3460 C   0  0  1  0  0  3  0  0  0  0  0  0
  161.2430  208.5220  153.7770 C   0  0  0  0  0  0  0  0  0  0  0  0
  160.7430  206.5090  152.7350 C   0  0  2  0  0  3  0  0  0  0  0  0
  161.1940  203.4610  149.5290 C   0  0  0  0  0  2  0  0  0  0  0  0
  161.0790  202.8320  151.7040 C   0  0  0  0  0  2  0  0  0  0  0  0
  160.6080  209.1690  156.1140 C   0  0  0  0  0  2  0  0  0  0  0  0
  160.8370  207.7010  156.4760 C   0  0  0  0  0  2  0  0  0  0  0  0
  160.9390  207.2910  150.2990 C   0  0  0  0  0  2  0  0  0  0  0  0
  160.4580  205.9210  149.7840 C   0  0  1  0  0  3  0  0  0  0  0  0
  161.2790  202.3530  150.3950 O   0  0  0  0  0  0  0  0  0  0  0  0
  163.0090  206.9470  151.6370 C   0  0  0  0  0  1  0  0  0  0  0  0
  161.2020  205.0570  152.8340 C   0  0  0  0  0  2  0  0  0  0  0  0
  160.4520  205.9840  148.2870 C   0  0  0  0  0  3  0  0  0  0  0  0
  161.2090  206.7350  147.6940 O   0  0  0  0  0  0  0  0  0  0  0  0
  160.4450  209.6980  151.7730 C   0  0  0  0  0  2  0  0  0  0  0  0
  160.8830  211.1540  151.8510 C   0  0  0  0  0  2  0  0  0  0  0  0
  159.8020  212.0250  152.4700 C   0  0  0  0  0  2  0  0  0  0  0  0
  159.7410  213.3710  151.7650 C   0  0  0  0  0  2  0  0  0  0  0  0
  159.5240  213.1790  150.2760 C   0  0  0  0  0  2  0  0  0  0  0  0
  160.5610  213.9520  149.4810 C   0  0  0  0  0  2  0  0  0  0  0  0
  161.2440  212.4910  147.5120 N   0  0  0  0  0  2  0  0  0  0  0  0
  162.1560  211.7040  148.3280 C   0  0  0  0  0  1  0  0  0  0  0  0
  160.4790  213.5760  148.0390 C   0  0  0  0  0  0  0  0  0  0  0  0
  159.7010  214.2100  147.2810 O   0  0  0  0  0  0  0  0  0  0  0  0
  1 17  1  6  0  0  0
  1  2  1  0  0  0  0
  1  9  1  0  0  0  0
  2 21  1  6  0  0  0
  2  8  1  0  0  0  0
  3 13  1  0  0  0  0
  4 11  1  1  0  0  0
  4 18  1  0  0  0  0
  5  3  1  0  0  0  0
  6 12  1  0  0  0  0
  7 10  1  6  0  0  0
  7  4  1  0  0  0  0
  8  5  2  0  0  0  0
  8  6  1  0  0  0  0
  9 18  1  1  0  0  0
  9  5  1  0  0  0  0
 10 16  1  0  0  0  0
 12 13  1  0  0  0  0
 14  1  1  0  0  0  0
 15 19  1  6  0  0  0
 15 14  1  0  0  0  0
 15  7  1  0  0  0  0
 16 11  1  0  0  0  0
 20 19  2  0  0  0  0
 21 22  1  0  0  0  0
 22 23  1  0  0  0  0
 24 23  1  0  0  0  0
 25 24  1  0  0  0  0
 26 25  1  0  0  0  0
 27 29  1  0  0  0  0
 27 28  1  0  0  0  0
 29 26  1  0  0  0  0
 30 29  2  0  0  0  0
M  END
>  <MODEL>
7

>  <REMARK>
 VINA RESULT:      -6.9      3.665      8.454
  Name = 
  8 active torsions:
  status: ('A' for Active; 'I' for Inactive)
    1  A    between atoms: C_1  and  C_5
    2  A    between atoms: C_1  and  C_22
    3  A    between atoms: C_2  and  C_18
    4  A    between atoms: C_2  and  C_22
    5  A    between atoms: C_11  and  C_25
    6  A    between atoms: C_14  and  C_18
    7  A    between atoms: C_14  and  C_20
    8  A    between atoms: C_20  and  C_28
                            x       y       z     vdW  Elec       q    Type
                         _______ _______ _______ _____ _____    ______ ____

>  <TORSDO>
F 8

$$$$
=
 OpenBabel11052421523D

 30 33  0  0  1  0  0  0  0  0999 V2000
  161.9840  207.5220  150.5540 C   0  0  1  0  0  0  0  0  0  0  0  0
  162.2370  208.9740  151.0270 C   0  0  2  0  0  3  0  0  0  0  0  0
  160.5020  207.6180  154.1090 C   0  0  0  0  0  2  0  0  0  0  0  0
  160.4960  204.6920  150.7070 C   0  0  1  0  0  3  0  0  0  0  0  0
  161.1890  207.8170  152.7840 C   0  0  0  0  0  0  0  0  0  0  0  0
  162.1450  210.0200  153.4610 C   0  0  0  0  0  2  0  0  0  0  0  0
  161.2500  204.8680  149.4280 C   0  0  1  0  0  3  0  0  0  0  0  0
  161.8200  208.9430  152.4600 C   0  0  0  0  0  0  0  0  0  0  0  0
  160.9700  206.9690  151.5830 C   0  0  2  0  0  3  0  0  0  0  0  0
  160.9580  203.5530  148.7360 C   0  0  0  0  0  2  0  0  0  0  0  0
  160.5900  203.2080  150.9450 C   0  0  0  0  0  2  0  0  0  0  0  0
  161.2020  209.9620  154.6640 C   0  0  0  0  0  2  0  0  0  0  0  0
  161.0970  208.5280  155.1850 C   0  0  0  0  0  2  0  0  0  0  0  0
  161.4650  207.4170  149.1060 C   0  0  0  0  0  2  0  0  0  0  0  0
  160.7390  206.1240  148.6900 C   0  0  1  0  0  3  0  0  0  0  0  0
  160.7590  202.5550  149.7090 O   0  0  0  0  0  0  0  0  0  0  0  0
  163.3380  206.8150  150.6300 C   0  0  0  0  0  1  0  0  0  0  0  0
  161.1090  205.4740  151.8590 C   0  0  0  0  0  2  0  0  0  0  0  0
  160.8320  206.0190  147.1980 C   0  0  0  0  0  3  0  0  0  0  0  0
  161.8720  206.2890  146.6200 O   0  0  0  0  0  0  0  0  0  0  0  0
  161.4010  210.0250  150.2930 C   0  0  0  0  0  2  0  0  0  0  0  0
  162.2880  210.8920  149.4110 C   0  0  0  0  0  2  0  0  0  0  0  0
  161.5810  212.1760  149.0080 C   0  0  0  0  0  2  0  0  0  0  0  0
  161.3850  212.2200  147.5010 C   0  0  0  0  0  2  0  0  0  0  0  0
  162.4800  213.0440  146.8490 C   0  0  0  0  0  2  0  0  0  0  0  0
  161.9170  213.8720  145.7090 C   0  0  0  0  0  2  0  0  0  0  0  0
  161.2950  212.5780  143.6060 N   0  0  0  0  0  2  0  0  0  0  0  0
  159.9060  212.4460  144.0200 C   0  0  0  0  0  1  0  0  0  0  0  0
  162.2750  213.2460  144.4020 C   0  0  0  0  0  0  0  0  0  0  0  0
  163.4570  213.3340  143.9800 O   0  0  0  0  0  0  0  0  0  0  0  0
  1 17  1  1  0  0  0
  1  2  1  0  0  0  0
  1  9  1  0  0  0  0
  2 21  1  6  0  0  0
  2  8  1  0  0  0  0
  3 13  1  0  0  0  0
  4 11  1  1  0  0  0
  4 18  1  0  0  0  0
  5  3  1  0  0  0  0
  6 12  1  0  0  0  0
  7 10  1  6  0  0  0
  7  4  1  0  0  0  0
  8  5  2  0  0  0  0
  8  6  1  0  0  0  0
  9 18  1  1  0  0  0
  9  5  1  0  0  0  0
 10 16  1  0  0  0  0
 12 13  1  0  0  0  0
 14  1  1  0  0  0  0
 15 19  1  6  0  0  0
 15 14  1  0  0  0  0
 15  7  1  0  0  0  0
 16 11  1  0  0  0  0
 20 19  2  0  0  0  0
 22 21  1  0  0  0  0
 23 22  1  0  0  0  0
 24 23  1  0  0  0  0
 25 24  1  0  0  0  0
 26 25  1  0  0  0  0
 27 28  1  0  0  0  0
 27 29  1  0  0  0  0
 29 26  1  0  0  0  0
 30 29  2  0  0  0  0
M  END
>  <MODEL>
8

>  <REMARK>
 VINA RESULT:      -6.8      4.350      8.307
  Name = 
  8 active torsions:
  status: ('A' for Active; 'I' for Inactive)
    1  A    between atoms: C_1  and  C_5
    2  A    between atoms: C_1  and  C_22
    3  A    between atoms: C_2  and  C_18
    4  A    between atoms: C_2  and  C_22
    5  A    between atoms: C_11  and  C_25
    6  A    between atoms: C_14  and  C_18
    7  A    between atoms: C_14  and  C_20
    8  A    between atoms: C_20  and  C_28
                            x       y       z     vdW  Elec       q    Type
                         _______ _______ _______ _____ _____    ______ ____

>  <TORSDO>
F 8

$$$$
=
 OpenBabel11052421523D

 30 33  0  0  1  0  0  0  0  0999 V2000
  160.7820  205.2020  149.8280 C   0  0  1  0  0  0  0  0  0  0  0  0
  160.8710  206.1190  151.0720 C   0  0  2  0  0  3  0  0  0  0  0  0
  162.4870  208.3980  148.5120 C   0  0  0  0  0  2  0  0  0  0  0  0
  161.6530  204.3010  146.8820 C   0  0  1  0  0  3  0  0  0  0  0  0
  161.7690  207.2940  149.2450 C   0  0  0  0  0  0  0  0  0  0  0  0
  161.3420  208.7220  151.2460 C   0  0  0  0  0  2  0  0  0  0  0  0
  160.8680  203.2430  147.5910 C   0  0  1  0  0  3  0  0  0  0  0  0
  161.3670  207.4090  150.5080 C   0  0  0  0  0  0  0  0  0  0  0  0
  161.7250  205.8760  148.8030 C   0  0  2  0  0  3  0  0  0  0  0  0
  160.8330  202.1550  146.5380 C   0  0  0  0  0  2  0  0  0  0  0  0
  161.2670  204.0900  145.4420 C   0  0  0  0  0  2  0  0  0  0  0  0
  162.3310  209.7200  150.6380 C   0  0  0  0  0  2  0  0  0  0  0  0
  162.1680  209.7650  149.1180 C   0  0  0  0  0  2  0  0  0  0  0  0
  161.1710  203.7350  150.1040 C   0  0  0  0  0  2  0  0  0  0  0  0
  161.5810  202.8580  148.9060 C   0  0  1  0  0  3  0  0  0  0  0  0
  160.8830  202.7470  145.2610 O   0  0  0  0  0  0  0  0  0  0  0  0
  159.3190  205.2360  149.3860 C   0  0  0  0  0  1  0  0  0  0  0  0
  161.2950  205.7030  147.3480 C   0  0  0  0  0  2  0  0  0  0  0  0
  161.3680  201.4290  149.3040 C   0  0  0  0  0  3  0  0  0  0  0  0
  160.6240  201.1470  150.2290 O   0  0  0  0  0  0  0  0  0  0  0  0
  161.8570  205.6350  152.1360 C   0  0  0  0  0  2  0  0  0  0  0  0
  161.2060  205.6450  153.5120 C   0  0  0  0  0  2  0  0  0  0  0  0
  161.4640  206.9560  154.2370 C   0  0  0  0  0  2  0  0  0  0  0  0
  160.2910  207.2990  155.1420 C   0  0  0  0  0  2  0  0  0  0  0  0
  160.6620  208.4310  156.0810 C   0  0  0  0  0  2  0  0  0  0  0  0
  160.0200  209.7310  155.6300 C   0  0  0  0  0  2  0  0  0  0  0  0
  160.6640  211.2750  153.7110 N   0  0  0  0  0  2  0  0  0  0  0  0
  159.3300  211.2210  153.1330 C   0  0  0  0  0  1  0  0  0  0  0  0
  161.0190  210.5630  154.8980 C   0  0  0  0  0  0  0  0  0  0  0  0
  162.1890  210.6610  155.3500 O   0  0  0  0  0  0  0  0  0  0  0  0
  1 17  1  6  0  0  0
  1 14  1  0  0  0  0
  1  2  1  0  0  0  0
  2 21  1  1  0  0  0
  3 13  1  0  0  0  0
  3  5  1  0  0  0  0
  4 11  1  6  0  0  0
  4 18  1  0  0  0  0
  4  7  1  0  0  0  0
  5  8  2  0  0  0  0
  7 10  1  6  0  0  0
  7 15  1  0  0  0  0
  8  2  1  0  0  0  0
  8  6  1  0  0  0  0
  9 18  1  6  0  0  0
  9  5  1  0  0  0  0
  9  1  1  0  0  0  0
 12  6  1  0  0  0  0
 13 12  1  0  0  0  0
 15 19  1  1  0  0  0
 15 14  1  0  0  0  0
 16 11  1  0  0  0  0
 16 10  1  0  0  0  0
 19 20  2  0  0  0  0
 21 22  1  0  0  0  0
 22 23  1  0  0  0  0
 23 24  1  0  0  0  0
 24 25  1  0  0  0  0
 26 25  1  0  0  0  0
 27 29  1  0  0  0  0
 28 27  1  0  0  0  0
 29 30  2  0  0  0  0
 29 26  1  0  0  0  0
M  END
>  <MODEL>
9

>  <REMARK>
 VINA RESULT:      -6.7      2.992      7.979
  Name = 
  8 active torsions:
  status: ('A' for Active; 'I' for Inactive)
    1  A    between atoms: C_1  and  C_5
    2  A    between atoms: C_1  and  C_22
    3  A    between atoms: C_2  and  C_18
    4  A    between atoms: C_2  and  C_22
    5  A    between atoms: C_11  and  C_25
    6  A    between atoms: C_14  and  C_18
    7  A    between atoms: C_14  and  C_20
    8  A    between atoms: C_20  and  C_28
                            x       y       z     vdW  Elec       q    Type
                         _______ _______ _______ _____ _____    ______ ____

>  <TORSDO>
F 8

$$$$
