=
 OpenBabel11052423053D

 28 30  0  0  1  0  0  0  0  0999 V2000
  162.6740  208.4610  156.9770 O   0  0  0  0  0  1  0  0  0  0  0  0
  160.9330  208.4970  154.1840 C   0  0  1  0  0  3  0  0  0  0  0  0
  159.5750  207.3180  155.8040 O   0  0  0  0  0  1  0  0  0  0  0  0
  161.0260  210.1940  156.4560 C   0  0  2  0  0  3  0  0  0  0  0  0
  160.0640  209.7610  154.1200 C   0  0  0  0  0  2  0  0  0  0  0  0
  161.3290  208.6900  156.6790 C   0  0  1  0  0  3  0  0  0  0  0  0
  160.8700  207.7700  155.5400 C   0  0  2  0  0  3  0  0  0  0  0  0
  159.8340  210.4060  155.4990 C   0  0  2  0  0  3  0  0  0  0  0  0
  159.3960  211.8740  155.3860 C   0  0  1  0  0  3  0  0  0  0  0  0
  158.2350  212.0330  154.3900 C   0  0  1  0  0  3  0  0  0  0  0  0
  156.8720  212.1150  155.0320 C   0  0  0  0  0  0  0  0  0  0  0  0
  156.2990  213.6440  156.9460 C   0  0  0  0  0  1  0  0  0  0  0  0
  156.7270  212.2430  156.5290 C   0  0  2  0  0  3  0  0  0  0  0  0
  157.8620  211.7980  157.2480 O   0  0  0  0  0  0  0  0  0  0  0  0
  159.0080  212.4500  156.7530 C   0  0  0  0  0  2  0  0  0  0  0  0
  155.8730  212.0690  154.3330 O   0  0  0  0  0  0  0  0  0  0  0  0
  158.5360  213.4020  153.2150 S   0  0  0  0  0  0  0  0  0  0  0  0
  159.6450  212.4660  152.1170 C   0  0  0  0  0  1  0  0  0  0  0  0
  160.9100  206.1120  153.3010 C   0  0  0  0  0  2  0  0  0  0  0  0
  161.6510  207.9780  151.7960 C   0  0  0  0  0  0  0  0  0  0  0  0
  161.4620  205.6460  150.9370 C   0  0  0  0  0  0  0  0  0  0  0  0
  160.7500  207.5990  152.9510 C   0  0  2  0  0  3  0  0  0  0  0  0
  161.9230  206.9940  150.7940 N   0  0  0  0  0  2  0  0  0  0  0  0
  161.9630  209.5500  151.4510 S   0  0  0  0  0  0  0  0  0  0  0  0
  161.5230  204.7210  149.7760 C   0  0  0  0  0  1  0  0  0  0  0  0
  160.9230  205.2320  152.0850 C   0  0  0  0  0  3  0  0  0  0  0  0
  162.2520  211.0570  156.1210 C   0  0  0  0  0  2  0  0  0  0  0  0
  162.7670  211.6820  157.2570 O   0  0  0  0  0  1  0  0  0  0  0  0
  2  5  1  1  0  0  0
  2  7  1  0  0  0  0
  4 27  1  6  0  0  0
  4  6  1  0  0  0  0
  6  1  1  6  0  0  0
  7  3  1  1  0  0  0
  7  6  1  0  0  0  0
  8  5  1  6  0  0  0
  8  4  1  0  0  0  0
  9  8  1  0  0  0  0
  9 15  1  1  0  0  0
 10 17  1  1  0  0  0
 10 11  1  0  0  0  0
 10  9  1  0  0  0  0
 11 13  1  0  0  0  0
 13 12  1  6  0  0  0
 13 14  1  0  0  0  0
 15 14  1  0  0  0  0
 16 11  2  0  0  0  0
 18 17  1  0  0  0  0
 20 22  1  0  0  0  0
 21 26  2  0  0  0  0
 22 19  1  1  0  0  0
 22  2  1  0  0  0  0
 23 21  1  0  0  0  0
 23 20  1  0  0  0  0
 24 20  2  0  0  0  0
 25 21  1  0  0  0  0
 26 19  1  0  0  0  0
 27 28  1  0  0  0  0
M  END
>  <MODEL>
1

>  <REMARK>
 VINA RESULT:      -6.2      0.000      0.000
  Name = 
  4 active torsions:
  status: ('A' for Active; 'I' for Inactive)
    1  A    between atoms: C_1  and  C_27
    2  A    between atoms: C_2  and  S_7
    3  A    between atoms: C_10  and  C_13
    4  A    between atoms: C_16  and  C_19
                            x       y       z     vdW  Elec       q    Type
                         _______ _______ _______ _____ _____    ______ ____

>  <TORSDO>
F 4

$$$$
=
 OpenBabel11052423053D

 28 30  0  0  1  0  0  0  0  0999 V2000
  161.9700  209.5660  149.9650 O   0  0  0  0  0  1  0  0  0  0  0  0
  160.8480  206.7850  151.3200 C   0  0  1  0  0  3  0  0  0  0  0  0
  163.2580  206.7040  151.5260 O   0  0  0  0  0  1  0  0  0  0  0  0
  161.4890  209.3480  152.3550 C   0  0  2  0  0  3  0  0  0  0  0  0
  160.5550  207.0050  152.8110 C   0  0  0  0  0  2  0  0  0  0  0  0
  162.2930  208.8560  151.1230 C   0  0  1  0  0  3  0  0  0  0  0  0
  162.2070  207.3460  150.8660 C   0  0  2  0  0  3  0  0  0  0  0  0
  161.2880  208.2260  153.3960 C   0  0  2  0  0  3  0  0  0  0  0  0
  160.6440  208.7160  154.7030 C   0  0  1  0  0  3  0  0  0  0  0  0
  161.5150  208.3600  155.9180 C   0  0  1  0  0  3  0  0  0  0  0  0
  162.3820  209.4910  156.4150 C   0  0  0  0  0  0  0  0  0  0  0  0
  161.5440  211.8180  156.8750 C   0  0  0  0  0  1  0  0  0  0  0  0
  162.2160  210.8900  155.8720 C   0  0  2  0  0  3  0  0  0  0  0  0
  161.5890  210.9340  154.6040 O   0  0  0  0  0  0  0  0  0  0  0  0
  160.3740  210.2240  154.6630 C   0  0  0  0  0  2  0  0  0  0  0  0
  163.2340  209.2720  157.2610 O   0  0  0  0  0  0  0  0  0  0  0  0
  160.5280  207.5990  157.2570 S   0  0  0  0  0  0  0  0  0  0  0  0
  159.1860  207.0020  156.1840 C   0  0  0  0  0  1  0  0  0  0  0  0
  161.1860  204.3140  151.8180 C   0  0  0  0  0  2  0  0  0  0  0  0
  160.9450  205.0710  149.4390 C   0  0  0  0  0  0  0  0  0  0  0  0
  161.1230  202.6470  149.9940 C   0  0  0  0  0  0  0  0  0  0  0  0
  160.5510  205.3450  150.8730 C   0  0  2  0  0  3  0  0  0  0  0  0
  161.1570  203.7130  149.0390 N   0  0  0  0  0  2  0  0  0  0  0  0
  160.7250  206.2010  148.2730 S   0  0  0  0  0  0  0  0  0  0  0  0
  161.0800  201.2390  149.5240 C   0  0  0  0  0  1  0  0  0  0  0  0
  161.0700  202.9090  151.3010 C   0  0  0  0  0  3  0  0  0  0  0  0
  160.2050  210.1230  152.0200 C   0  0  0  0  0  2  0  0  0  0  0  0
  160.4660  211.4740  151.7900 O   0  0  0  0  0  1  0  0  0  0  0  0
  2  5  1  1  0  0  0
  4 27  1  6  0  0  0
  4  8  1  0  0  0  0
  6  1  1  6  0  0  0
  6  4  1  0  0  0  0
  7  6  1  0  0  0  0
  7  2  1  0  0  0  0
  7  3  1  1  0  0  0
  8  5  1  6  0  0  0
  8  9  1  0  0  0  0
  9 15  1  6  0  0  0
  9 10  1  0  0  0  0
 10 11  1  0  0  0  0
 10 17  1  1  0  0  0
 11 16  2  0  0  0  0
 13 11  1  0  0  0  0
 13 12  1  1  0  0  0
 14 15  1  0  0  0  0
 14 13  1  0  0  0  0
 18 17  1  0  0  0  0
 20 22  1  0  0  0  0
 21 26  2  0  0  0  0
 22  2  1  0  0  0  0
 22 19  1  1  0  0  0
 23 20  1  0  0  0  0
 23 21  1  0  0  0  0
 24 20  2  0  0  0  0
 25 21  1  0  0  0  0
 26 19  1  0  0  0  0
 28 27  1  0  0  0  0
M  END
>  <MODEL>
2

>  <REMARK>
 VINA RESULT:      -5.8      3.108      4.949
  Name = 
  4 active torsions:
  status: ('A' for Active; 'I' for Inactive)
    1  A    between atoms: C_1  and  C_27
    2  A    between atoms: C_2  and  S_7
    3  A    between atoms: C_10  and  C_13
    4  A    between atoms: C_16  and  C_19
                            x       y       z     vdW  Elec       q    Type
                         _______ _______ _______ _____ _____    ______ ____

>  <TORSDO>
F 4

$$$$
=
 OpenBabel11052423053D

 28 30  0  0  1  0  0  0  0  0999 V2000
  161.9930  210.0870  148.5420 O   0  0  0  0  0  1  0  0  0  0  0  0
  160.9360  207.8140  150.6740 C   0  0  1  0  0  3  0  0  0  0  0  0
  163.3490  207.6310  150.6440 O   0  0  0  0  0  1  0  0  0  0  0  0
  161.7860  210.5070  150.9440 C   0  0  2  0  0  3  0  0  0  0  0  0
  160.8270  208.4200  152.0810 C   0  0  0  0  0  2  0  0  0  0  0  0
  162.4230  209.6710  149.8040 C   0  0  1  0  0  3  0  0  0  0  0  0
  162.2520  208.1540  149.9530 C   0  0  2  0  0  3  0  0  0  0  0  0
  161.6670  209.6990  152.2530 C   0  0  2  0  0  3  0  0  0  0  0  0
  161.1980  210.5410  153.4500 C   0  0  1  0  0  3  0  0  0  0  0  0
  159.9670  209.9140  154.1230 C   0  0  1  0  0  3  0  0  0  0  0  0
  160.2790  209.1010  155.3560 C   0  0  0  0  0  0  0  0  0  0  0  0
  161.7170  209.9080  157.2550 C   0  0  0  0  0  1  0  0  0  0  0  0
  161.6630  209.1100  155.9600 C   0  0  2  0  0  3  0  0  0  0  0  0
  162.6740  209.5010  155.0510 O   0  0  0  0  0  0  0  0  0  0  0  0
  162.3240  210.7370  154.4720 C   0  0  0  0  0  2  0  0  0  0  0  0
  159.4040  208.4220  155.8680 O   0  0  0  0  0  0  0  0  0  0  0  0
  158.6530  211.1520  154.4190 S   0  0  0  0  0  0  0  0  0  0  0  0
  159.3390  211.7830  155.9820 C   0  0  0  0  0  1  0  0  0  0  0  0
  161.1600  205.5510  151.8130 C   0  0  0  0  0  2  0  0  0  0  0  0
  160.8420  205.6550  149.3270 C   0  0  0  0  0  0  0  0  0  0  0  0
  160.9120  203.4630  150.5130 C   0  0  0  0  0  0  0  0  0  0  0  0
  160.5360  206.3300  150.6450 C   0  0  2  0  0  3  0  0  0  0  0  0
  160.9570  204.2290  149.3030 N   0  0  0  0  0  2  0  0  0  0  0  0
  160.6270  206.4420  147.9050 S   0  0  0  0  0  0  0  0  0  0  0  0
  160.7660  201.9860  150.4440 C   0  0  0  0  0  1  0  0  0  0  0  0
  160.9390  204.0700  151.7000 C   0  0  0  0  0  3  0  0  0  0  0  0
  160.5000  211.2550  150.5570 C   0  0  0  0  0  2  0  0  0  0  0  0
  160.6270  212.6310  150.7550 O   0  0  0  0  0  1  0  0  0  0  0  0
  2  5  1  1  0  0  0
  4 27  1  6  0  0  0
  4  8  1  0  0  0  0
  6  1  1  6  0  0  0
  6  7  1  0  0  0  0
  6  4  1  0  0  0  0
  7  3  1  1  0  0  0
  7  2  1  0  0  0  0
  8  5  1  6  0  0  0
  8  9  1  0  0  0  0
  9 10  1  0  0  0  0
  9 15  1  1  0  0  0
 10 17  1  1  0  0  0
 10 11  1  0  0  0  0
 11 16  2  0  0  0  0
 11 13  1  0  0  0  0
 13 12  1  1  0  0  0
 14 13  1  0  0  0  0
 15 14  1  0  0  0  0
 17 18  1  0  0  0  0
 20 22  1  0  0  0  0
 21 26  2  0  0  0  0
 22  2  1  0  0  0  0
 22 19  1  1  0  0  0
 23 20  1  0  0  0  0
 23 21  1  0  0  0  0
 24 20  2  0  0  0  0
 25 21  1  0  0  0  0
 26 19  1  0  0  0  0
 27 28  1  0  0  0  0
M  END
>  <MODEL>
3

>  <REMARK>
 VINA RESULT:      -4.5      2.954      4.758
  Name = 
  4 active torsions:
  status: ('A' for Active; 'I' for Inactive)
    1  A    between atoms: C_1  and  C_27
    2  A    between atoms: C_2  and  S_7
    3  A    between atoms: C_10  and  C_13
    4  A    between atoms: C_16  and  C_19
                            x       y       z     vdW  Elec       q    Type
                         _______ _______ _______ _____ _____    ______ ____

>  <TORSDO>
F 4

$$$$
=
 OpenBabel11052423053D

 28 30  0  0  1  0  0  0  0  0999 V2000
  161.8230  211.5450  149.3260 O   0  0  0  0  0  1  0  0  0  0  0  0
  160.5970  209.3980  151.4990 C   0  0  1  0  0  3  0  0  0  0  0  0
  162.9060  209.7460  152.1330 O   0  0  0  0  0  1  0  0  0  0  0  0
  160.8510  212.2240  151.4670 C   0  0  2  0  0  3  0  0  0  0  0  0
  159.9770  210.1460  152.6870 C   0  0  0  0  0  2  0  0  0  0  0  0
  161.9290  211.4040  150.7120 C   0  0  1  0  0  3  0  0  0  0  0  0
  161.9870  209.9200  151.0950 C   0  0  2  0  0  3  0  0  0  0  0  0
  160.4950  211.5890  152.8280 C   0  0  2  0  0  3  0  0  0  0  0  0
  159.5570  212.4600  153.6800 C   0  0  1  0  0  3  0  0  0  0  0  0
  158.1240  211.9050  153.6720 C   0  0  1  0  0  3  0  0  0  0  0  0
  157.7700  211.0780  154.8840 C   0  0  0  0  0  0  0  0  0  0  0  0
  158.1710  211.8050  157.2580 C   0  0  0  0  0  1  0  0  0  0  0  0
  158.6990  211.0080  156.0720 C   0  0  2  0  0  3  0  0  0  0  0  0
  160.0390  211.3400  155.7630 O   0  0  0  0  0  0  0  0  0  0  0  0
  160.0700  212.5920  155.1190 C   0  0  0  0  0  2  0  0  0  0  0  0
  156.7240  210.4510  154.9010 O   0  0  0  0  0  0  0  0  0  0  0  0
  156.8930  213.2170  153.3400 S   0  0  0  0  0  0  0  0  0  0  0  0
  157.5380  214.3930  154.5690 C   0  0  0  0  0  1  0  0  0  0  0  0
  160.9430  207.4020  153.0360 C   0  0  0  0  0  2  0  0  0  0  0  0
  161.2110  207.1120  150.5580 C   0  0  0  0  0  0  0  0  0  0  0  0
  161.3860  205.1590  152.0970 C   0  0  0  0  0  0  0  0  0  0  0  0
  160.4860  207.8720  151.6470 C   0  0  2  0  0  3  0  0  0  0  0  0
  161.5800  205.7530  150.8080 N   0  0  0  0  0  2  0  0  0  0  0  0
  161.2020  207.6450  149.0080 S   0  0  0  0  0  0  0  0  0  0  0  0
  161.5260  203.6880  152.2580 C   0  0  0  0  0  1  0  0  0  0  0  0
  161.0230  205.9060  153.1400 C   0  0  0  0  0  3  0  0  0  0  0  0
  159.6270  212.6140  150.6240 C   0  0  0  0  0  2  0  0  0  0  0  0
  159.4030  213.9910  150.6500 O   0  0  0  0  0  1  0  0  0  0  0  0
  2 22  1  0  0  0  0
  2  5  1  1  0  0  0
  4 27  1  6  0  0  0
  4  8  1  0  0  0  0
  6  1  1  6  0  0  0
  6  7  1  0  0  0  0
  6  4  1  0  0  0  0
  7  2  1  0  0  0  0
  7  3  1  1  0  0  0
  8  5  1  6  0  0  0
  8  9  1  0  0  0  0
  9 15  1  1  0  0  0
 10 17  1  1  0  0  0
 10  9  1  0  0  0  0
 10 11  1  0  0  0  0
 11 16  2  0  0  0  0
 11 13  1  0  0  0  0
 13 12  1  1  0  0  0
 14 13  1  0  0  0  0
 15 14  1  0  0  0  0
 17 18  1  0  0  0  0
 19 26  1  0  0  0  0
 20 23  1  0  0  0  0
 20 22  1  0  0  0  0
 21 25  1  0  0  0  0
 21 26  2  0  0  0  0
 22 19  1  1  0  0  0
 23 21  1  0  0  0  0
 24 20  2  0  0  0  0
 27 28  1  0  0  0  0
M  END
>  <MODEL>
4

>  <REMARK>
 VINA RESULT:      -3.4      2.581      3.754
  Name = 
  4 active torsions:
  status: ('A' for Active; 'I' for Inactive)
    1  A    between atoms: C_1  and  C_27
    2  A    between atoms: C_2  and  S_7
    3  A    between atoms: C_10  and  C_13
    4  A    between atoms: C_16  and  C_19
                            x       y       z     vdW  Elec       q    Type
                         _______ _______ _______ _____ _____    ______ ____

>  <TORSDO>
F 4

$$$$
