=
 OpenBabel11062410513D

 32 35  0  0  1  0  0  0  0  0999 V2000
  161.4000  208.7100  154.3660 C   0  0  0  0  0  0  0  0  0  0  0  0
  160.8400  206.1200  150.0330 C   0  0  0  0  0  0  0  0  0  0  0  0
  161.0910  201.3470  151.2240 C   0  0  0  0  0  3  0  0  0  0  0  0
  160.8310  201.0130  149.8940 C   0  0  0  0  0  3  0  0  0  0  0  0
  160.8890  207.8510  151.7520 C   0  0  0  0  0  0  0  0  0  0  0  0
  161.0430  205.4450  152.4630 C   0  0  0  0  0  2  0  0  0  0  0  0
  161.3850  207.3420  154.0730 C   0  0  0  0  0  3  0  0  0  0  0  0
  161.2830  202.6820  151.5840 C   0  0  0  0  0  3  0  0  0  0  0  0
  161.4640  205.1420  151.0140 C   0  0  1  0  0  3  0  0  0  0  0  0
  161.1970  203.7040  150.6240 C   0  0  0  0  0  0  0  0  0  0  0  0
  160.9540  204.3970  148.1880 C   0  0  1  0  0  3  0  0  0  0  0  0
  161.1390  209.6460  153.3580 C   0  0  0  0  0  3  0  0  0  0  0  0
  161.1450  206.9100  152.7650 C   0  0  0  0  0  0  0  0  0  0  0  0
  160.8830  209.2170  152.0510 C   0  0  0  0  0  3  0  0  0  0  0  0
  160.7720  202.0130  148.9220 C   0  0  0  0  0  3  0  0  0  0  0  0
  160.9580  203.3550  149.2740 C   0  0  0  0  0  0  0  0  0  0  0  0
  160.6290  207.3920  150.3800 C   0  0  0  0  0  3  0  0  0  0  0  0
  160.5630  205.7090  148.6930 N   0  0  0  0  0  2  0  0  0  0  0  0
  161.6430  209.1690  155.7600 C   0  0  0  0  0  2  0  0  0  0  0  0
  161.6730  210.6210  155.8030 N   0  0  0  0  0  2  0  0  0  0  0  0
  160.7310  211.0150  156.7610 N   0  0  0  0  0  2  0  0  0  0  0  0
  159.6330  211.6280  156.0390 C   0  0  0  0  0  2  0  0  0  0  0  0
  158.6220  210.6890  155.8450 O   0  0  0  0  0  1  0  0  0  0  0  0
  162.2820  204.4700  147.4290 C   0  0  0  0  0  2  0  0  0  0  0  0
  162.1860  203.9650  145.9870 C   0  0  1  0  0  3  0  0  0  0  0  0
  160.8260  203.3240  145.7010 C   0  0  0  0  0  2  0  0  0  0  0  0
  160.9030  201.8390  145.5000 C   0  0  0  0  0  3  0  0  0  0  0  0
  159.8810  201.1630  144.9820 C   0  0  0  0  0  2  0  0  0  0  0  0
  162.4430  205.0200  145.0690 O   0  0  0  0  0  0  0  0  0  0  0  0
  161.4300  205.7050  143.1050 O   0  0  0  0  0  0  0  0  0  0  0  0
  160.3050  206.2950  145.1120 C   0  0  0  0  0  1  0  0  0  0  0  0
  161.4220  205.6620  144.3640 C   0  0  0  0  0  0  0  0  0  0  0  0
  1 19  1  0  0  0  0
  2 17  2  0  0  0  0
  2  9  1  0  0  0  0
  3  8  1  0  0  0  0
  4  3  2  0  0  0  0
  5 14  2  0  0  0  0
  5 13  1  0  0  0  0
  6 13  1  0  0  0  0
  7  1  1  0  0  0  0
  9  6  1  1  0  0  0
 10  9  1  0  0  0  0
 10  8  2  0  0  0  0
 11 24  1  1  0  0  0
 11 18  1  0  0  0  0
 11 16  1  0  0  0  0
 12  1  2  0  0  0  0
 13  7  2  0  0  0  0
 14 12  1  0  0  0  0
 15 16  2  0  0  0  0
 15  4  1  0  0  0  0
 16 10  1  0  0  0  0
 17  5  1  0  0  0  0
 18  2  1  0  0  0  0
 19 20  1  0  0  0  0
 20 21  1  0  0  0  0
 22 21  1  0  0  0  0
 23 22  1  0  0  0  0
 25 26  1  6  0  0  0
 25 24  1  0  0  0  0
 27 26  1  0  0  0  0
 28 27  2  0  0  0  0
 29 25  1  0  0  0  0
 30 32  2  0  0  0  0
 32 29  1  0  0  0  0
 32 31  1  0  0  0  0
M  END
>  <MODEL>
1

>  <REMARK>
 VINA RESULT:      -8.5      0.000      0.000
  Name = 
  10 active torsions:
  status: ('A' for Active; 'I' for Inactive)
    1  A    between atoms: N_1  and  N_10
    2  A    between atoms: N_1  and  C_17
    3  A    between atoms: C_2  and  C_24
    4  A    between atoms: C_6  and  C_7
    5  A    between atoms: C_7  and  C_32
    6  A    between atoms: N_10  and  C_24
    7  A    between atoms: C_16  and  C_27
    8  A    between atoms: O_22  and  C_30
    9  A    between atoms: O_22  and  C_32
   10  A    between atoms: C_27  and  C_32
                            x       y       z     vdW  Elec       q    Type
                         _______ _______ _______ _____ _____    ______ ____

>  <TORSDO>
F 10

$$$$
=
 OpenBabel11062410513D

 32 35  0  0  1  0  0  0  0  0999 V2000
  161.2570  203.9940  148.5510 C   0  0  0  0  0  0  0  0  0  0  0  0
  161.4220  208.3750  151.1160 C   0  0  0  0  0  0  0  0  0  0  0  0
  160.8270  207.2280  155.8680 C   0  0  0  0  0  3  0  0  0  0  0  0
  161.0030  208.5710  156.2030 C   0  0  0  0  0  3  0  0  0  0  0  0
  161.5870  206.6370  149.4110 C   0  0  0  0  0  0  0  0  0  0  0  0
  161.2640  205.9460  151.8070 C   0  0  0  0  0  2  0  0  0  0  0  0
  161.1470  204.3030  149.9110 C   0  0  0  0  0  3  0  0  0  0  0  0
  160.7610  206.8440  154.5270 C   0  0  0  0  0  3  0  0  0  0  0  0
  160.7600  207.3800  152.0530 C   0  0  1  0  0  3  0  0  0  0  0  0
  160.8910  207.7960  153.5020 C   0  0  0  0  0  0  0  0  0  0  0  0
  161.0900  210.2330  152.7970 C   0  0  1  0  0  3  0  0  0  0  0  0
  161.5520  205.0020  147.6250 C   0  0  0  0  0  3  0  0  0  0  0  0
  161.2960  205.6240  150.3420 C   0  0  0  0  0  0  0  0  0  0  0  0
  161.7170  206.3230  148.0550 C   0  0  0  0  0  3  0  0  0  0  0  0
  161.1050  209.5340  155.1980 C   0  0  0  0  0  3  0  0  0  0  0  0
  161.0450  209.1590  153.8500 C   0  0  0  0  0  0  0  0  0  0  0  0
  161.7520  208.0240  149.8700 C   0  0  0  0  0  3  0  0  0  0  0  0
  161.6080  209.7300  151.5280 N   0  0  0  0  0  2  0  0  0  0  0  0
  161.1100  202.5860  148.0940 C   0  0  0  0  0  2  0  0  0  0  0  0
  161.2520  202.5190  146.6500 N   0  0  0  0  0  2  0  0  0  0  0  0
  160.8100  201.2490  146.2600 N   0  0  0  0  0  2  0  0  0  0  0  0
  160.0190  201.4320  145.0580 C   0  0  0  0  0  2  0  0  0  0  0  0
  160.0880  202.7640  144.6550 O   0  0  0  0  0  1  0  0  0  0  0  0
  159.7420  210.9340  152.6030 C   0  0  0  0  0  2  0  0  0  0  0  0
  159.8440  212.4610  152.6260 C   0  0  1  0  0  3  0  0  0  0  0  0
  159.5040  213.0720  151.2640 C   0  0  0  0  0  2  0  0  0  0  0  0
  158.1210  213.6510  151.2060 C   0  0  0  0  0  3  0  0  0  0  0  0
  157.4430  213.6960  150.0620 C   0  0  0  0  0  2  0  0  0  0  0  0
  159.0070  213.0040  153.6390 O   0  0  0  0  0  0  0  0  0  0  0  0
  160.1030  212.9720  155.6760 O   0  0  0  0  0  0  0  0  0  0  0  0
  158.0380  211.8000  155.5910 C   0  0  0  0  0  1  0  0  0  0  0  0
  159.1130  212.6230  154.9790 C   0  0  0  0  0  0  0  0  0  0  0  0
  1  7  1  0  0  0  0
  2 18  1  0  0  0  0
  2  9  1  0  0  0  0
  3  4  1  0  0  0  0
  5 17  1  0  0  0  0
  5 13  1  0  0  0  0
  7 13  2  0  0  0  0
  8  3  2  0  0  0  0
  9  6  1  1  0  0  0
  9 10  1  0  0  0  0
 10 16  2  0  0  0  0
 10  8  1  0  0  0  0
 11 24  1  6  0  0  0
 11 16  1  0  0  0  0
 12 14  1  0  0  0  0
 12  1  2  0  0  0  0
 13  6  1  0  0  0  0
 14  5  2  0  0  0  0
 15  4  2  0  0  0  0
 16 15  1  0  0  0  0
 17  2  2  0  0  0  0
 18 11  1  0  0  0  0
 19  1  1  0  0  0  0
 20 19  1  0  0  0  0
 21 20  1  0  0  0  0
 22 21  1  0  0  0  0
 23 22  1  0  0  0  0
 24 25  1  0  0  0  0
 25 26  1  6  0  0  0
 25 29  1  0  0  0  0
 27 26  1  0  0  0  0
 28 27  2  0  0  0  0
 29 32  1  0  0  0  0
 32 31  1  0  0  0  0
 32 30  2  0  0  0  0
M  END
>  <MODEL>
2

>  <REMARK>
 VINA RESULT:      -8.5      2.564      9.467
  Name = 
  10 active torsions:
  status: ('A' for Active; 'I' for Inactive)
    1  A    between atoms: N_1  and  N_10
    2  A    between atoms: N_1  and  C_17
    3  A    between atoms: C_2  and  C_24
    4  A    between atoms: C_6  and  C_7
    5  A    between atoms: C_7  and  C_32
    6  A    between atoms: N_10  and  C_24
    7  A    between atoms: C_16  and  C_27
    8  A    between atoms: O_22  and  C_30
    9  A    between atoms: O_22  and  C_32
   10  A    between atoms: C_27  and  C_32
                            x       y       z     vdW  Elec       q    Type
                         _______ _______ _______ _____ _____    ______ ____

>  <TORSDO>
F 10

$$$$
=
 OpenBabel11062410513D

 32 35  0  0  1  0  0  0  0  0999 V2000
  160.8860  203.3600  150.2510 C   0  0  0  0  0  0  0  0  0  0  0  0
  161.2250  208.2520  151.5790 C   0  0  0  0  0  0  0  0  0  0  0  0
  161.4690  208.3440  156.4970 C   0  0  0  0  0  3  0  0  0  0  0  0
  161.6230  209.7310  156.4520 C   0  0  0  0  0  3  0  0  0  0  0  0
  161.2070  206.1390  150.3580 C   0  0  0  0  0  0  0  0  0  0  0  0
  161.3130  206.0770  152.8690 C   0  0  0  0  0  2  0  0  0  0  0  0
  160.9810  204.0040  151.4900 C   0  0  0  0  0  3  0  0  0  0  0  0
  161.2080  207.6320  155.3250 C   0  0  0  0  0  3  0  0  0  0  0  0
  160.7780  207.5200  152.8320 C   0  0  1  0  0  3  0  0  0  0  0  0
  161.1190  208.2930  154.0890 C   0  0  0  0  0  0  0  0  0  0  0  0
  161.0690  210.4720  152.7760 C   0  0  1  0  0  3  0  0  0  0  0  0
  160.9730  204.1040  149.0680 C   0  0  0  0  0  3  0  0  0  0  0  0
  161.1260  205.3930  151.5470 C   0  0  0  0  0  0  0  0  0  0  0  0
  161.1330  205.4920  149.1200 C   0  0  0  0  0  3  0  0  0  0  0  0
  161.5090  210.4070  155.2360 C   0  0  0  0  0  3  0  0  0  0  0  0
  161.2520  209.7010  154.0550 C   0  0  0  0  0  0  0  0  0  0  0  0
  161.3680  207.5990  150.4220 C   0  0  0  0  0  3  0  0  0  0  0  0
  161.4010  209.6690  151.6030 N   0  0  0  0  0  2  0  0  0  0  0  0
  160.7440  201.8810  150.1910 C   0  0  0  0  0  2  0  0  0  0  0  0
  160.3840  201.4750  148.8430 N   0  0  0  0  0  2  0  0  0  0  0  0
  161.3800  200.5930  148.4090 N   0  0  0  0  0  2  0  0  0  0  0  0
  161.2110  200.4450  146.9760 C   0  0  0  0  0  2  0  0  0  0  0  0
  160.8430  201.6700  146.4230 O   0  0  0  0  0  1  0  0  0  0  0  0
  159.6710  211.0850  152.6460 C   0  0  0  0  0  2  0  0  0  0  0  0
  159.6770  212.6160  152.6610 C   0  0  1  0  0  3  0  0  0  0  0  0
  159.7580  213.1960  151.2470 C   0  0  0  0  0  2  0  0  0  0  0  0
  158.5360  213.9740  150.8560 C   0  0  0  0  0  3  0  0  0  0  0  0
  157.5900  213.4280  150.0960 C   0  0  0  0  0  2  0  0  0  0  0  0
  158.5290  213.1140  153.3390 O   0  0  0  0  0  0  0  0  0  0  0  0
  157.3040  212.4890  155.1990 O   0  0  0  0  0  0  0  0  0  0  0  0
  159.4500  213.4130  155.6330 C   0  0  0  0  0  1  0  0  0  0  0  0
  158.3620  212.9800  154.7190 C   0  0  0  0  0  0  0  0  0  0  0  0
  1  7  1  0  0  0  0
  2 18  1  0  0  0  0
  2  9  1  0  0  0  0
  4  3  1  0  0  0  0
  5 17  1  0  0  0  0
  5 13  1  0  0  0  0
  7 13  2  0  0  0  0
  8  3  2  0  0  0  0
  9  6  1  1  0  0  0
  9 10  1  0  0  0  0
 10  8  1  0  0  0  0
 11 24  1  6  0  0  0
 11 16  1  0  0  0  0
 12 14  1  0  0  0  0
 12  1  2  0  0  0  0
 13  6  1  0  0  0  0
 14  5  2  0  0  0  0
 15  4  2  0  0  0  0
 16 10  2  0  0  0  0
 16 15  1  0  0  0  0
 17  2  2  0  0  0  0
 18 11  1  0  0  0  0
 19  1  1  0  0  0  0
 20 19  1  0  0  0  0
 21 20  1  0  0  0  0
 22 21  1  0  0  0  0
 23 22  1  0  0  0  0
 24 25  1  0  0  0  0
 25 26  1  6  0  0  0
 25 29  1  0  0  0  0
 27 26  1  0  0  0  0
 28 27  2  0  0  0  0
 29 32  1  0  0  0  0
 32 30  2  0  0  0  0
 32 31  1  0  0  0  0
M  END
>  <MODEL>
3

>  <REMARK>
 VINA RESULT:      -8.5      2.619      9.448
  Name = 
  10 active torsions:
  status: ('A' for Active; 'I' for Inactive)
    1  A    between atoms: N_1  and  N_10
    2  A    between atoms: N_1  and  C_17
    3  A    between atoms: C_2  and  C_24
    4  A    between atoms: C_6  and  C_7
    5  A    between atoms: C_7  and  C_32
    6  A    between atoms: N_10  and  C_24
    7  A    between atoms: C_16  and  C_27
    8  A    between atoms: O_22  and  C_30
    9  A    between atoms: O_22  and  C_32
   10  A    between atoms: C_27  and  C_32
                            x       y       z     vdW  Elec       q    Type
                         _______ _______ _______ _____ _____    ______ ____

>  <TORSDO>
F 10

$$$$
=
 OpenBabel11062410513D

 32 35  0  0  1  0  0  0  0  0999 V2000
  161.3480  205.6010  148.6260 C   0  0  0  0  0  0  0  0  0  0  0  0
  161.8200  209.1670  152.2120 C   0  0  0  0  0  0  0  0  0  0  0  0
  160.2950  207.1160  156.4230 C   0  0  0  0  0  3  0  0  0  0  0  0
  160.6340  208.2870  157.1030 C   0  0  0  0  0  3  0  0  0  0  0  0
  161.9670  207.8620  150.1560 C   0  0  0  0  0  0  0  0  0  0  0  0
  161.1570  206.7260  152.2470 C   0  0  0  0  0  2  0  0  0  0  0  0
  161.0750  205.6100  149.9990 C   0  0  0  0  0  3  0  0  0  0  0  0
  160.3820  207.0670  155.0300 C   0  0  0  0  0  3  0  0  0  0  0  0
  160.8630  208.1370  152.7860 C   0  0  1  0  0  3  0  0  0  0  0  0
  160.8280  208.1810  154.2990 C   0  0  0  0  0  0  0  0  0  0  0  0
  161.5350  210.6250  154.2570 C   0  0  1  0  0  3  0  0  0  0  0  0
  161.9490  206.7130  148.0250 C   0  0  0  0  0  3  0  0  0  0  0  0
  161.3690  206.7430  150.7620 C   0  0  0  0  0  0  0  0  0  0  0  0
  162.2580  207.8440  148.7890 C   0  0  0  0  0  3  0  0  0  0  0  0
  161.0510  209.4120  156.3900 C   0  0  0  0  0  3  0  0  0  0  0  0
  161.1460  209.3710  154.9940 C   0  0  0  0  0  0  0  0  0  0  0  0
  162.2820  209.0480  150.9650 C   0  0  0  0  0  3  0  0  0  0  0  0
  162.1580  210.3290  152.9710 N   0  0  0  0  0  2  0  0  0  0  0  0
  161.0460  204.3900  147.8160 C   0  0  0  0  0  2  0  0  0  0  0  0
  161.9840  204.2910  146.7110 N   0  0  0  0  0  2  0  0  0  0  0  0
  161.3400  203.5670  145.7000 N   0  0  0  0  0  2  0  0  0  0  0  0
  160.8590  204.5360  144.7340 C   0  0  0  0  0  2  0  0  0  0  0  0
  161.7780  205.5780  144.6250 O   0  0  0  0  0  1  0  0  0  0  0  0
  160.3690  211.6040  154.0930 C   0  0  0  0  0  2  0  0  0  0  0  0
  159.0410  210.9170  153.7600 C   0  0  1  0  0  3  0  0  0  0  0  0
  157.9900  211.1630  154.8450 C   0  0  0  0  0  2  0  0  0  0  0  0
  158.4430  212.1280  155.9000 C   0  0  0  0  0  3  0  0  0  0  0  0
  158.2150  211.8920  157.1890 C   0  0  0  0  0  2  0  0  0  0  0  0
  158.5600  211.3460  152.4920 O   0  0  0  0  0  0  0  0  0  0  0  0
  159.7990  212.8050  151.1930 O   0  0  0  0  0  0  0  0  0  0  0  0
  157.9670  213.7610  152.3650 C   0  0  0  0  0  1  0  0  0  0  0  0
  158.8340  212.6170  151.9810 C   0  0  0  0  0  0  0  0  0  0  0  0
  1  7  1  0  0  0  0
  2  9  1  0  0  0  0
  2 18  1  0  0  0  0
  3  4  1  0  0  0  0
  5 13  1  0  0  0  0
  5 17  1  0  0  0  0
  7 13  2  0  0  0  0
  8  3  2  0  0  0  0
  9  6  1  1  0  0  0
  9 10  1  0  0  0  0
 10 16  2  0  0  0  0
 10  8  1  0  0  0  0
 11 24  1  6  0  0  0
 11 16  1  0  0  0  0
 12  1  2  0  0  0  0
 12 14  1  0  0  0  0
 13  6  1  0  0  0  0
 14  5  2  0  0  0  0
 15  4  2  0  0  0  0
 16 15  1  0  0  0  0
 17  2  2  0  0  0  0
 18 11  1  0  0  0  0
 19  1  1  0  0  0  0
 20 19  1  0  0  0  0
 21 20  1  0  0  0  0
 22 21  1  0  0  0  0
 23 22  1  0  0  0  0
 25 24  1  1  0  0  0
 25 26  1  0  0  0  0
 26 27  1  0  0  0  0
 27 28  2  0  0  0  0
 29 25  1  0  0  0  0
 30 32  2  0  0  0  0
 32 31  1  0  0  0  0
 32 29  1  0  0  0  0
M  END
>  <MODEL>
4

>  <REMARK>
 VINA RESULT:      -8.3      2.283      9.234
  Name = 
  10 active torsions:
  status: ('A' for Active; 'I' for Inactive)
    1  A    between atoms: N_1  and  N_10
    2  A    between atoms: N_1  and  C_17
    3  A    between atoms: C_2  and  C_24
    4  A    between atoms: C_6  and  C_7
    5  A    between atoms: C_7  and  C_32
    6  A    between atoms: N_10  and  C_24
    7  A    between atoms: C_16  and  C_27
    8  A    between atoms: O_22  and  C_30
    9  A    between atoms: O_22  and  C_32
   10  A    between atoms: C_27  and  C_32
                            x       y       z     vdW  Elec       q    Type
                         _______ _______ _______ _____ _____    ______ ____

>  <TORSDO>
F 10

$$$$
=
 OpenBabel11062410513D

 32 35  0  0  1  0  0  0  0  0999 V2000
  161.3260  205.8180  148.4470 C   0  0  0  0  0  0  0  0  0  0  0  0
  161.8460  209.2010  152.2000 C   0  0  0  0  0  0  0  0  0  0  0  0
  160.3380  206.9560  156.3160 C   0  0  0  0  0  3  0  0  0  0  0  0
  160.6890  208.0900  157.0500 C   0  0  0  0  0  3  0  0  0  0  0  0
  161.9690  207.9970  150.0810 C   0  0  0  0  0  0  0  0  0  0  0  0
  161.1680  206.7650  152.1200 C   0  0  0  0  0  2  0  0  0  0  0  0
  161.0630  205.7610  149.8210 C   0  0  0  0  0  3  0  0  0  0  0  0
  160.4140  206.9740  154.9220 C   0  0  0  0  0  3  0  0  0  0  0  0
  160.8860  208.1500  152.7300 C   0  0  1  0  0  3  0  0  0  0  0  0
  160.8620  208.1200  154.2440 C   0  0  0  0  0  0  0  0  0  0  0  0
  161.5840  210.5590  154.3150 C   0  0  1  0  0  3  0  0  0  0  0  0
  161.9300  206.9550  147.8960 C   0  0  0  0  0  3  0  0  0  0  0  0
  161.3690  206.8540  150.6370 C   0  0  0  0  0  0  0  0  0  0  0  0
  162.2510  208.0440  148.7120 C   0  0  0  0  0  3  0  0  0  0  0  0
  161.1080  209.2460  156.3900 C   0  0  0  0  0  3  0  0  0  0  0  0
  161.1930  209.2730  154.9930 C   0  0  0  0  0  0  0  0  0  0  0  0
  162.2980  209.1410  150.9450 C   0  0  0  0  0  3  0  0  0  0  0  0
  162.1960  210.3230  153.0120 N   0  0  0  0  0  2  0  0  0  0  0  0
  161.0110  204.6500  147.5810 C   0  0  0  0  0  2  0  0  0  0  0  0
  161.6460  203.4570  148.1140 N   0  0  0  0  0  2  0  0  0  0  0  0
  161.1510  202.3740  147.3770 N   0  0  0  0  0  2  0  0  0  0  0  0
  160.8320  201.3300  148.3320 C   0  0  0  0  0  2  0  0  0  0  0  0
  160.0320  201.8560  149.3440 O   0  0  0  0  0  1  0  0  0  0  0  0
  160.4230  211.5520  154.2080 C   0  0  0  0  0  2  0  0  0  0  0  0
  159.1020  210.8990  153.7950 C   0  0  1  0  0  3  0  0  0  0  0  0
  158.0190  211.0850  154.8610 C   0  0  0  0  0  2  0  0  0  0  0  0
  158.3640  212.1370  155.8740 C   0  0  0  0  0  3  0  0  0  0  0  0
  157.7140  212.2110  157.0330 C   0  0  0  0  0  2  0  0  0  0  0  0
  158.6610  211.4090  152.5420 O   0  0  0  0  0  0  0  0  0  0  0  0
  160.0770  212.7810  151.3320 O   0  0  0  0  0  0  0  0  0  0  0  0
  158.2640  213.8640  152.4200 C   0  0  0  0  0  1  0  0  0  0  0  0
  159.0590  212.6610  152.0650 C   0  0  0  0  0  0  0  0  0  0  0  0
  1  7  1  0  0  0  0
  2  9  1  0  0  0  0
  2 18  1  0  0  0  0
  3  4  1  0  0  0  0
  5 13  1  0  0  0  0
  5 17  1  0  0  0  0
  7 13  2  0  0  0  0
  8  3  2  0  0  0  0
  9  6  1  6  0  0  0
  9 10  1  0  0  0  0
 10  8  1  0  0  0  0
 10 16  2  0  0  0  0
 11 24  1  6  0  0  0
 11 16  1  0  0  0  0
 12  1  2  0  0  0  0
 12 14  1  0  0  0  0
 13  6  1  0  0  0  0
 14  5  2  0  0  0  0
 15  4  2  0  0  0  0
 16 15  1  0  0  0  0
 17  2  2  0  0  0  0
 18 11  1  0  0  0  0
 19 20  1  0  0  0  0
 19  1  1  0  0  0  0
 21 20  1  0  0  0  0
 21 22  1  0  0  0  0
 22 23  1  0  0  0  0
 25 24  1  1  0  0  0
 25 26  1  0  0  0  0
 26 27  1  0  0  0  0
 27 28  2  0  0  0  0
 29 25  1  0  0  0  0
 30 32  2  0  0  0  0
 32 31  1  0  0  0  0
 32 29  1  0  0  0  0
M  END
>  <MODEL>
5

>  <REMARK>
 VINA RESULT:      -8.1      2.699      9.098
  Name = 
  10 active torsions:
  status: ('A' for Active; 'I' for Inactive)
    1  A    between atoms: N_1  and  N_10
    2  A    between atoms: N_1  and  C_17
    3  A    between atoms: C_2  and  C_24
    4  A    between atoms: C_6  and  C_7
    5  A    between atoms: C_7  and  C_32
    6  A    between atoms: N_10  and  C_24
    7  A    between atoms: C_16  and  C_27
    8  A    between atoms: O_22  and  C_30
    9  A    between atoms: O_22  and  C_32
   10  A    between atoms: C_27  and  C_32
                            x       y       z     vdW  Elec       q    Type
                         _______ _______ _______ _____ _____    ______ ____

>  <TORSDO>
F 10

$$$$
=
 OpenBabel11062410513D

 32 35  0  0  1  0  0  0  0  0999 V2000
  161.1800  203.5510  149.8230 C   0  0  0  0  0  0  0  0  0  0  0  0
  161.0650  208.3490  151.4880 C   0  0  0  0  0  0  0  0  0  0  0  0
  161.5070  208.1310  156.3880 C   0  0  0  0  0  3  0  0  0  0  0  0
  161.5140  209.5260  156.4380 C   0  0  0  0  0  3  0  0  0  0  0  0
  161.2140  206.3340  150.1190 C   0  0  0  0  0  0  0  0  0  0  0  0
  161.4330  206.1130  152.6130 C   0  0  0  0  0  2  0  0  0  0  0  0
  161.2600  204.1150  151.1010 C   0  0  0  0  0  3  0  0  0  0  0  0
  161.2720  207.4760  155.1780 C   0  0  0  0  0  3  0  0  0  0  0  0
  160.7500  207.4890  152.7000 C   0  0  1  0  0  3  0  0  0  0  0  0
  161.0620  208.2070  153.9960 C   0  0  0  0  0  0  0  0  0  0  0  0
  160.7300  210.4530  152.8470 C   0  0  1  0  0  3  0  0  0  0  0  0
  161.1390  204.3780  148.6940 C   0  0  0  0  0  3  0  0  0  0  0  0
  161.2620  205.5040  151.2530 C   0  0  0  0  0  0  0  0  0  0  0  0
  161.1560  205.7690  148.8410 C   0  0  0  0  0  3  0  0  0  0  0  0
  161.2790  210.2670  155.2790 C   0  0  0  0  0  3  0  0  0  0  0  0
  161.0470  209.6200  154.0600 C   0  0  0  0  0  0  0  0  0  0  0  0
  161.2260  207.7950  150.2830 C   0  0  0  0  0  3  0  0  0  0  0  0
  161.0940  209.7710  151.6080 N   0  0  0  0  0  2  0  0  0  0  0  0
  161.1900  202.0720  149.6610 C   0  0  0  0  0  2  0  0  0  0  0  0
  160.3530  201.6950  148.5350 N   0  0  0  0  0  2  0  0  0  0  0  0
  161.1870  201.0540  147.6110 N   0  0  0  0  0  2  0  0  0  0  0  0
  160.6280  201.3080  146.2960 C   0  0  0  0  0  2  0  0  0  0  0  0
  161.1610  202.4900  145.7870 O   0  0  0  0  0  1  0  0  0  0  0  0
  159.2720  210.9210  152.8110 C   0  0  0  0  0  2  0  0  0  0  0  0
  159.1230  212.4230  152.5540 C   0  0  1  0  0  3  0  0  0  0  0  0
  159.2340  213.2330  153.8480 C   0  0  0  0  0  2  0  0  0  0  0  0
  158.2270  212.8300  154.8840 C   0  0  0  0  0  3  0  0  0  0  0  0
  158.5850  212.6430  156.1520 C   0  0  0  0  0  2  0  0  0  0  0  0
  160.0850  212.8660  151.6040 O   0  0  0  0  0  0  0  0  0  0  0  0
  158.5550  213.6020  150.0330 O   0  0  0  0  0  0  0  0  0  0  0  0
  160.7620  214.4530  149.8090 C   0  0  0  0  0  1  0  0  0  0  0  0
  159.7340  213.6170  150.4800 C   0  0  0  0  0  0  0  0  0  0  0  0
  1  7  1  0  0  0  0
  2 18  1  0  0  0  0
  2  9  1  0  0  0  0
  3  4  1  0  0  0  0
  5 17  1  0  0  0  0
  5 13  1  0  0  0  0
  7 13  2  0  0  0  0
  8  3  2  0  0  0  0
  9  6  1  6  0  0  0
  9 10  1  0  0  0  0
 10 16  2  0  0  0  0
 10  8  1  0  0  0  0
 11 24  1  6  0  0  0
 11 16  1  0  0  0  0
 12 14  1  0  0  0  0
 12  1  2  0  0  0  0
 13  6  1  0  0  0  0
 14  5  2  0  0  0  0
 15  4  2  0  0  0  0
 16 15  1  0  0  0  0
 17  2  2  0  0  0  0
 18 11  1  0  0  0  0
 19  1  1  0  0  0  0
 20 19  1  0  0  0  0
 21 20  1  0  0  0  0
 22 21  1  0  0  0  0
 23 22  1  0  0  0  0
 25 24  1  1  0  0  0
 25 26  1  0  0  0  0
 26 27  1  0  0  0  0
 27 28  2  0  0  0  0
 29 25  1  0  0  0  0
 30 32  2  0  0  0  0
 31 32  1  0  0  0  0
 32 29  1  0  0  0  0
M  END
>  <MODEL>
6

>  <REMARK>
 VINA RESULT:      -8.1      2.713      9.226
  Name = 
  10 active torsions:
  status: ('A' for Active; 'I' for Inactive)
    1  A    between atoms: N_1  and  N_10
    2  A    between atoms: N_1  and  C_17
    3  A    between atoms: C_2  and  C_24
    4  A    between atoms: C_6  and  C_7
    5  A    between atoms: C_7  and  C_32
    6  A    between atoms: N_10  and  C_24
    7  A    between atoms: C_16  and  C_27
    8  A    between atoms: O_22  and  C_30
    9  A    between atoms: O_22  and  C_32
   10  A    between atoms: C_27  and  C_32
                            x       y       z     vdW  Elec       q    Type
                         _______ _______ _______ _____ _____    ______ ____

>  <TORSDO>
F 10

$$$$
=
 OpenBabel11062410513D

 32 35  0  0  1  0  0  0  0  0999 V2000
  159.7620  209.6760  156.4300 C   0  0  0  0  0  0  0  0  0  0  0  0
  161.4480  206.6160  152.7420 C   0  0  0  0  0  0  0  0  0  0  0  0
  162.1050  209.4550  148.7710 C   0  0  0  0  0  3  0  0  0  0  0  0
  162.6050  208.3510  148.0780 C   0  0  0  0  0  3  0  0  0  0  0  0
  160.7900  207.5810  154.8850 C   0  0  0  0  0  0  0  0  0  0  0  0
  161.0810  209.1140  152.9140 C   0  0  0  0  0  2  0  0  0  0  0  0
  160.1180  209.9030  155.0960 C   0  0  0  0  0  3  0  0  0  0  0  0
  161.5770  209.2950  150.0540 C   0  0  0  0  0  3  0  0  0  0  0  0
  160.9310  207.8580  152.0360 C   0  0  1  0  0  3  0  0  0  0  0  0
  161.5600  208.0320  150.6690 C   0  0  0  0  0  0  0  0  0  0  0  0
  161.9620  205.5240  150.5220 C   0  0  1  0  0  3  0  0  0  0  0  0
  159.9400  208.4080  156.9960 C   0  0  0  0  0  3  0  0  0  0  0  0
  160.6180  208.8550  154.3170 C   0  0  0  0  0  0  0  0  0  0  0  0
  160.4540  207.3600  156.2240 C   0  0  0  0  0  3  0  0  0  0  0  0
  162.5690  207.0850  148.6640 C   0  0  0  0  0  3  0  0  0  0  0  0
  162.0460  206.9150  149.9520 C   0  0  0  0  0  0  0  0  0  0  0  0
  161.3240  206.4830  154.0650 C   0  0  0  0  0  3  0  0  0  0  0  0
  161.9820  205.5320  151.9810 N   0  0  0  0  0  2  0  0  0  0  0  0
  159.2410  210.7950  157.2610 C   0  0  0  0  0  2  0  0  0  0  0  0
  158.5930  211.7790  156.4110 N   0  0  0  0  0  2  0  0  0  0  0  0
  157.2140  211.6200  156.5910 N   0  0  0  0  0  2  0  0  0  0  0  0
  156.5640  212.5020  155.6400 C   0  0  0  0  0  2  0  0  0  0  0  0
  156.1320  211.7620  154.5410 O   0  0  0  0  0  1  0  0  0  0  0  0
  160.7630  204.7340  149.9900 C   0  0  0  0  0  2  0  0  0  0  0  0
  161.1300  203.7450  148.8810 C   0  0  1  0  0  3  0  0  0  0  0  0
  160.3560  202.4320  149.0140 C   0  0  0  0  0  2  0  0  0  0  0  0
  161.2460  201.2290  149.1110 C   0  0  0  0  0  3  0  0  0  0  0  0
  161.3750  200.3870  148.0890 C   0  0  0  0  0  2  0  0  0  0  0  0
  160.9140  204.3260  147.6010 O   0  0  0  0  0  0  0  0  0  0  0  0
  161.2560  203.0000  145.7360 O   0  0  0  0  0  0  0  0  0  0  0  0
  162.9000  204.6680  146.1390 C   0  0  0  0  0  1  0  0  0  0  0  0
  161.6470  203.9440  146.4750 C   0  0  0  0  0  0  0  0  0  0  0  0
  1 12  1  0  0  0  0
  1 19  1  0  0  0  0
  2 17  2  0  0  0  0
  3  8  1  0  0  0  0
  4 15  1  0  0  0  0
  4  3  2  0  0  0  0
  5 14  1  0  0  0  0
  6 13  1  0  0  0  0
  7  1  2  0  0  0  0
  8 10  2  0  0  0  0
  9  2  1  0  0  0  0
  9  6  1  1  0  0  0
 10  9  1  0  0  0  0
 11 24  1  1  0  0  0
 11 18  1  0  0  0  0
 13  5  2  0  0  0  0
 13  7  1  0  0  0  0
 14 12  2  0  0  0  0
 15 16  2  0  0  0  0
 16 11  1  0  0  0  0
 16 10  1  0  0  0  0
 17  5  1  0  0  0  0
 18  2  1  0  0  0  0
 20 21  1  0  0  0  0
 20 19  1  0  0  0  0
 22 21  1  0  0  0  0
 23 22  1  0  0  0  0
 25 26  1  1  0  0  0
 25 24  1  0  0  0  0
 26 27  1  0  0  0  0
 28 27  2  0  0  0  0
 29 25  1  0  0  0  0
 30 32  2  0  0  0  0
 31 32  1  0  0  0  0
 32 29  1  0  0  0  0
M  END
>  <MODEL>
7

>  <REMARK>
 VINA RESULT:      -7.9      2.017      4.069
  Name = 
  10 active torsions:
  status: ('A' for Active; 'I' for Inactive)
    1  A    between atoms: N_1  and  N_10
    2  A    between atoms: N_1  and  C_17
    3  A    between atoms: C_2  and  C_24
    4  A    between atoms: C_6  and  C_7
    5  A    between atoms: C_7  and  C_32
    6  A    between atoms: N_10  and  C_24
    7  A    between atoms: C_16  and  C_27
    8  A    between atoms: O_22  and  C_30
    9  A    between atoms: O_22  and  C_32
   10  A    between atoms: C_27  and  C_32
                            x       y       z     vdW  Elec       q    Type
                         _______ _______ _______ _____ _____    ______ ____

>  <TORSDO>
F 10

$$$$
=
 OpenBabel11062410513D

 32 35  0  0  1  0  0  0  0  0999 V2000
  161.5830  204.2250  147.0750 C   0  0  0  0  0  0  0  0  0  0  0  0
  161.7590  208.2410  150.1810 C   0  0  0  0  0  0  0  0  0  0  0  0
  160.9000  206.5270  154.7180 C   0  0  0  0  0  3  0  0  0  0  0  0
  161.1000  207.8110  155.2290 C   0  0  0  0  0  3  0  0  0  0  0  0
  161.9520  206.7250  148.2780 C   0  0  0  0  0  0  0  0  0  0  0  0
  161.4930  205.7510  150.5500 C   0  0  0  0  0  2  0  0  0  0  0  0
  161.4170  204.3650  148.4570 C   0  0  0  0  0  3  0  0  0  0  0  0
  160.8870  206.3190  153.3380 C   0  0  0  0  0  3  0  0  0  0  0  0
  161.0220  207.1600  150.9540 C   0  0  1  0  0  3  0  0  0  0  0  0
  161.0960  207.3860  152.4490 C   0  0  0  0  0  0  0  0  0  0  0  0
  161.4030  209.8830  152.0680 C   0  0  1  0  0  3  0  0  0  0  0  0
  161.9540  205.3310  146.2990 C   0  0  0  0  0  3  0  0  0  0  0  0
  161.5860  205.6150  149.0590 C   0  0  0  0  0  0  0  0  0  0  0  0
  162.1380  206.5800  146.9000 C   0  0  0  0  0  3  0  0  0  0  0  0
  161.2800  208.8880  154.3590 C   0  0  0  0  0  3  0  0  0  0  0  0
  161.2740  208.6880  152.9740 C   0  0  0  0  0  0  0  0  0  0  0  0
  162.1370  208.0370  148.9170 C   0  0  0  0  0  3  0  0  0  0  0  0
  161.9660  209.5250  150.7700 N   0  0  0  0  0  2  0  0  0  0  0  0
  161.4150  202.8920  146.4360 C   0  0  0  0  0  2  0  0  0  0  0  0
  160.3140  202.1820  147.0640 N   0  0  0  0  0  2  0  0  0  0  0  0
  160.5820  200.8150  146.9190 N   0  0  0  0  0  2  0  0  0  0  0  0
  161.5770  200.4770  147.9190 C   0  0  0  0  0  2  0  0  0  0  0  0
  161.0480  200.6880  149.1910 O   0  0  0  0  0  1  0  0  0  0  0  0
  160.0890  210.6520  151.9070 C   0  0  0  0  0  2  0  0  0  0  0  0
  159.8980  211.7540  152.9520 C   0  0  1  0  0  3  0  0  0  0  0  0
  159.7350  213.1300  152.3010 C   0  0  0  0  0  2  0  0  0  0  0  0
  159.1470  213.0650  150.9220 C   0  0  0  0  0  3  0  0  0  0  0  0
  159.7090  213.7140  149.9060 C   0  0  0  0  0  2  0  0  0  0  0  0
  158.7850  211.4630  153.7890 O   0  0  0  0  0  0  0  0  0  0  0  0
  157.9020  211.1530  155.9050 O   0  0  0  0  0  0  0  0  0  0  0  0
  160.0830  212.0910  155.8190 C   0  0  0  0  0  1  0  0  0  0  0  0
  158.8580  211.5440  155.1820 C   0  0  0  0  0  0  0  0  0  0  0  0
  1  7  1  0  0  0  0
  2 18  1  0  0  0  0
  2  9  1  0  0  0  0
  3  4  1  0  0  0  0
  5 17  1  0  0  0  0
  5 13  1  0  0  0  0
  7 13  2  0  0  0  0
  8  3  2  0  0  0  0
  9  6  1  1  0  0  0
  9 10  1  0  0  0  0
 10 16  2  0  0  0  0
 10  8  1  0  0  0  0
 11 24  1  6  0  0  0
 11 16  1  0  0  0  0
 12 14  1  0  0  0  0
 12  1  2  0  0  0  0
 13  6  1  0  0  0  0
 14  5  2  0  0  0  0
 15  4  2  0  0  0  0
 16 15  1  0  0  0  0
 17  2  2  0  0  0  0
 18 11  1  0  0  0  0
 19 20  1  0  0  0  0
 19  1  1  0  0  0  0
 21 20  1  0  0  0  0
 21 22  1  0  0  0  0
 22 23  1  0  0  0  0
 25 24  1  6  0  0  0
 25 29  1  0  0  0  0
 26 25  1  0  0  0  0
 27 26  1  0  0  0  0
 28 27  2  0  0  0  0
 29 32  1  0  0  0  0
 32 31  1  0  0  0  0
 32 30  2  0  0  0  0
M  END
>  <MODEL>
8

>  <REMARK>
 VINA RESULT:      -7.3      2.809      9.223
  Name = 
  10 active torsions:
  status: ('A' for Active; 'I' for Inactive)
    1  A    between atoms: N_1  and  N_10
    2  A    between atoms: N_1  and  C_17
    3  A    between atoms: C_2  and  C_24
    4  A    between atoms: C_6  and  C_7
    5  A    between atoms: C_7  and  C_32
    6  A    between atoms: N_10  and  C_24
    7  A    between atoms: C_16  and  C_27
    8  A    between atoms: O_22  and  C_30
    9  A    between atoms: O_22  and  C_32
   10  A    between atoms: C_27  and  C_32
                            x       y       z     vdW  Elec       q    Type
                         _______ _______ _______ _____ _____    ______ ____

>  <TORSDO>
F 10

$$$$
=
 OpenBabel11062410513D

 32 35  0  0  1  0  0  0  0  0999 V2000
  161.4330  208.0270  155.1720 C   0  0  0  0  0  0  0  0  0  0  0  0
  160.7430  206.1480  150.5040 C   0  0  0  0  0  0  0  0  0  0  0  0
  161.2310  201.2620  150.8850 C   0  0  0  0  0  3  0  0  0  0  0  0
  160.9150  201.1360  149.5310 C   0  0  0  0  0  3  0  0  0  0  0  0
  160.8180  207.5790  152.4780 C   0  0  0  0  0  0  0  0  0  0  0  0
  161.0980  205.0990  152.7790 C   0  0  0  0  0  2  0  0  0  0  0  0
  161.4530  206.7250  154.6600 C   0  0  0  0  0  3  0  0  0  0  0  0
  161.3920  202.5290  151.4500 C   0  0  0  0  0  3  0  0  0  0  0  0
  161.4530  205.0540  151.2820 C   0  0  1  0  0  3  0  0  0  0  0  0
  161.2190  203.6870  150.6740 C   0  0  0  0  0  0  0  0  0  0  0  0
  160.8230  204.7530  148.3980 C   0  0  1  0  0  3  0  0  0  0  0  0
  161.0860  209.1010  154.3430 C   0  0  0  0  0  3  0  0  0  0  0  0
  161.1610  206.5000  153.3120 C   0  0  0  0  0  0  0  0  0  0  0  0
  160.7780  208.8780  152.9970 C   0  0  0  0  0  3  0  0  0  0  0  0
  160.7680  202.2760  148.7400 C   0  0  0  0  0  3  0  0  0  0  0  0
  160.9230  203.5510  149.2980 C   0  0  0  0  0  0  0  0  0  0  0  0
  160.5030  207.3370  151.0630 C   0  0  0  0  0  3  0  0  0  0  0  0
  160.4120  205.9480  149.1290 N   0  0  0  0  0  2  0  0  0  0  0  0
  161.7330  208.2650  156.6100 C   0  0  0  0  0  2  0  0  0  0  0  0
  161.6180  209.6820  156.9090 N   0  0  0  0  0  2  0  0  0  0  0  0
  160.2820  209.9120  157.2600 N   0  0  0  0  0  2  0  0  0  0  0  0
  160.0770  211.3470  157.2060 C   0  0  0  0  0  2  0  0  0  0  0  0
  158.7330  211.6150  156.9520 O   0  0  0  0  0  1  0  0  0  0  0  0
  162.1060  205.0070  147.6020 C   0  0  0  0  0  2  0  0  0  0  0  0
  161.9940  206.1870  146.6320 C   0  0  1  0  0  3  0  0  0  0  0  0
  161.0570  205.8720  145.4630 C   0  0  0  0  0  2  0  0  0  0  0  0
  161.4320  204.6210  144.7260 C   0  0  0  0  0  3  0  0  0  0  0  0
  161.2560  203.4220  145.2740 C   0  0  0  0  0  2  0  0  0  0  0  0
  161.5640  207.3580  147.3150 O   0  0  0  0  0  0  0  0  0  0  0  0
  163.4420  207.5110  148.6580 O   0  0  0  0  0  0  0  0  0  0  0  0
  162.0050  209.4030  148.6650 C   0  0  0  0  0  1  0  0  0  0  0  0
  162.3840  208.0370  148.2200 C   0  0  0  0  0  0  0  0  0  0  0  0
  1 19  1  0  0  0  0
  2 17  2  0  0  0  0
  2  9  1  0  0  0  0
  3  8  1  0  0  0  0
  4  3  2  0  0  0  0
  5 14  2  0  0  0  0
  5 13  1  0  0  0  0
  6 13  1  0  0  0  0
  7  1  1  0  0  0  0
  9  6  1  1  0  0  0
 10  9  1  0  0  0  0
 10  8  2  0  0  0  0
 11 24  1  1  0  0  0
 11 18  1  0  0  0  0
 11 16  1  0  0  0  0
 12  1  2  0  0  0  0
 13  7  2  0  0  0  0
 14 12  1  0  0  0  0
 15 16  2  0  0  0  0
 15  4  1  0  0  0  0
 16 10  1  0  0  0  0
 17  5  1  0  0  0  0
 18  2  1  0  0  0  0
 19 20  1  0  0  0  0
 20 21  1  0  0  0  0
 22 21  1  0  0  0  0
 23 22  1  0  0  0  0
 25 26  1  6  0  0  0
 25 29  1  0  0  0  0
 25 24  1  0  0  0  0
 27 28  2  0  0  0  0
 27 26  1  0  0  0  0
 29 32  1  0  0  0  0
 32 30  2  0  0  0  0
 32 31  1  0  0  0  0
M  END
>  <MODEL>
9

>  <REMARK>
 VINA RESULT:      -7.1      1.478      2.094
  Name = 
  10 active torsions:
  status: ('A' for Active; 'I' for Inactive)
    1  A    between atoms: N_1  and  N_10
    2  A    between atoms: N_1  and  C_17
    3  A    between atoms: C_2  and  C_24
    4  A    between atoms: C_6  and  C_7
    5  A    between atoms: C_7  and  C_32
    6  A    between atoms: N_10  and  C_24
    7  A    between atoms: C_16  and  C_27
    8  A    between atoms: O_22  and  C_30
    9  A    between atoms: O_22  and  C_32
   10  A    between atoms: C_27  and  C_32
                            x       y       z     vdW  Elec       q    Type
                         _______ _______ _______ _____ _____    ______ ____

>  <TORSDO>
F 10

$$$$
