=
 OpenBabel11052422143D

 25 28  0  0  1  0  0  0  0  0999 V2000
  161.5910  206.6250  152.3950 C   0  0  0  0  0  0  0  0  0  0  0  0
  161.5900  205.7960  151.1450 C   0  0  1  0  0  3  0  0  0  0  0  0
  161.2680  208.7500  151.1810 C   0  0  0  0  0  2  0  0  0  0  0  0
  161.0970  206.2970  153.5700 C   0  0  0  0  0  3  0  0  0  0  0  0
  161.4070  207.9550  149.8730 C   0  0  0  0  0  2  0  0  0  0  0  0
  161.1820  207.4940  154.4560 C   0  0  1  0  0  3  0  0  0  0  0  0
  160.7660  205.7430  148.7860 C   0  0  0  0  0  0  0  0  0  0  0  0
  160.4760  206.2770  147.7260 O   0  0  0  0  0  0  0  0  0  0  0  0
  161.0490  204.4030  151.2970 C   0  0  0  0  0  3  0  0  0  0  0  0
  161.9940  208.0530  152.3390 C   0  0  1  0  0  3  0  0  0  0  0  0
  161.5860  208.6300  153.6180 N   0  0  0  0  0  2  0  0  0  0  0  0
  161.0340  204.2560  148.8180 C   0  0  0  0  0  2  0  0  0  0  0  0
  160.8110  203.6650  150.1970 C   0  0  0  0  0  0  0  0  0  0  0  0
  160.8140  206.5530  150.0590 C   0  0  1  0  0  3  0  0  0  0  0  0
  161.2930  201.2010  150.0780 C   0  0  0  0  0  2  0  0  0  0  0  0
  160.2450  202.2710  150.3240 C   0  0  2  0  0  3  0  0  0  0  0  0
  160.2360  201.4480  149.0240 C   0  0  1  0  0  3  0  0  0  0  0  0
  160.9100  202.0930  147.8180 C   0  0  0  0  0  2  0  0  0  0  0  0
  160.9330  201.1570  146.7070 N   0  0  0  0  0  2  0  0  0  0  0  0
  160.5550  201.8920  145.5110 C   0  0  0  0  0  2  0  0  0  0  0  0
  161.2790  203.2240  145.4800 C   0  0  0  0  0  1  0  0  0  0  0  0
  159.6560  209.2850  155.5100 C   0  0  0  0  0  1  0  0  0  0  0  0
  159.8670  207.8050  155.1900 C   0  0  2  0  0  3  0  0  0  0  0  0
  159.5460  206.9240  156.2480 O   0  0  0  0  0  0  0  0  0  0  0  0
  160.5140  207.0330  157.2580 C   0  0  0  0  0  1  0  0  0  0  0  0
  1  4  2  0  0  0  0
  2  9  1  1  0  0  0
  2  1  1  0  0  0  0
  4  6  1  0  0  0  0
  5  3  1  0  0  0  0
  6 23  1  6  0  0  0
  7 12  1  0  0  0  0
  7 14  1  0  0  0  0
  8  7  2  0  0  0  0
 10  3  1  6  0  0  0
 10  1  1  0  0  0  0
 10 11  1  0  0  0  0
 11  6  1  0  0  0  0
 12 13  1  0  0  0  0
 13  9  2  0  0  0  0
 14  5  1  6  0  0  0
 14  2  1  0  0  0  0
 15 16  1  0  0  0  0
 16 13  1  6  0  0  0
 17 18  1  6  0  0  0
 17 15  1  0  0  0  0
 17 16  1  0  0  0  0
 19 18  1  0  0  0  0
 20 19  1  0  0  0  0
 21 20  1  0  0  0  0
 23 22  1  1  0  0  0
 23 24  1  0  0  0  0
 24 25  1  0  0  0  0
M  END
>  <MODEL>
1

>  <REMARK>
 VINA RESULT:      -8.8      0.000      0.000
  Name = 
  6 active torsions:
  status: ('A' for Active; 'I' for Inactive)
    1  A    between atoms: C_2  and  N_12
    2  A    between atoms: C_10  and  C_11
    3  A    between atoms: C_11  and  O_17
    4  A    between atoms: N_12  and  C_25
    5  A    between atoms: C_15  and  C_23
    6  A    between atoms: C_21  and  C_25
                            x       y       z     vdW  Elec       q    Type
                         _______ _______ _______ _____ _____    ______ ____

>  <TORSDO>
F 6

$$$$
=
 OpenBabel11052422143D

 25 28  0  0  1  0  0  0  0  0999 V2000
  161.8470  207.7760  151.4820 C   0  0  0  0  0  0  0  0  0  0  0  0
  161.7970  206.6820  150.4570 C   0  0  1  0  0  3  0  0  0  0  0  0
  161.8050  209.5790  149.7970 C   0  0  0  0  0  2  0  0  0  0  0  0
  161.2800  207.7830  152.6690 C   0  0  0  0  0  3  0  0  0  0  0  0
  161.9000  208.4900  148.7160 C   0  0  0  0  0  2  0  0  0  0  0  0
  161.4670  209.1390  153.2620 C   0  0  1  0  0  3  0  0  0  0  0  0
  161.0530  206.1610  148.1280 C   0  0  0  0  0  0  0  0  0  0  0  0
  160.8620  206.4590  146.9590 O   0  0  0  0  0  0  0  0  0  0  0  0
  161.0990  205.4240  150.8920 C   0  0  0  0  0  3  0  0  0  0  0  0
  162.4080  209.1020  151.1250 C   0  0  1  0  0  3  0  0  0  0  0  0
  162.0240  210.0010  152.2110 N   0  0  0  0  0  2  0  0  0  0  0  0
  161.1530  204.7040  148.5150 C   0  0  0  0  0  2  0  0  0  0  0  0
  160.8180  204.4780  149.9780 C   0  0  0  0  0  0  0  0  0  0  0  0
  161.1480  207.2370  149.1830 C   0  0  1  0  0  3  0  0  0  0  0  0
  161.0550  202.0870  150.7170 C   0  0  0  0  0  2  0  0  0  0  0  0
  160.0960  203.2160  150.3860 C   0  0  2  0  0  3  0  0  0  0  0  0
  160.2660  202.0240  149.4280 C   0  0  1  0  0  3  0  0  0  0  0  0
  161.2350  202.2320  148.2680 C   0  0  0  0  0  2  0  0  0  0  0  0
  160.9150  201.3130  147.1890 N   0  0  0  0  0  2  0  0  0  0  0  0
  160.8370  202.0920  145.9640 C   0  0  0  0  0  2  0  0  0  0  0  0
  159.9590  201.3740  144.9570 C   0  0  0  0  0  1  0  0  0  0  0  0
  159.5150  210.7880  152.9220 C   0  0  0  0  0  1  0  0  0  0  0  0
  160.1700  209.7440  153.8250 C   0  0  2  0  0  3  0  0  0  0  0  0
  160.2170  210.0970  155.1940 O   0  0  0  0  0  0  0  0  0  0  0  0
  160.0810  208.9430  155.9800 C   0  0  0  0  0  1  0  0  0  0  0  0
  1  4  2  0  0  0  0
  2  9  1  1  0  0  0
  2  1  1  0  0  0  0
  4  6  1  0  0  0  0
  5  3  1  0  0  0  0
  6 23  1  6  0  0  0
  7 12  1  0  0  0  0
  7 14  1  0  0  0  0
  8  7  2  0  0  0  0
 10  3  1  6  0  0  0
 10  1  1  0  0  0  0
 10 11  1  0  0  0  0
 11  6  1  0  0  0  0
 12 13  1  0  0  0  0
 13  9  2  0  0  0  0
 14  5  1  6  0  0  0
 14  2  1  0  0  0  0
 16 13  1  6  0  0  0
 16 15  1  0  0  0  0
 17 18  1  6  0  0  0
 17 16  1  0  0  0  0
 17 15  1  0  0  0  0
 19 18  1  0  0  0  0
 20 19  1  0  0  0  0
 21 20  1  0  0  0  0
 23 22  1  6  0  0  0
 23 24  1  0  0  0  0
 24 25  1  0  0  0  0
M  END
>  <MODEL>
2

>  <REMARK>
 VINA RESULT:      -8.7      1.378      1.651
  Name = 
  6 active torsions:
  status: ('A' for Active; 'I' for Inactive)
    1  A    between atoms: C_2  and  N_12
    2  A    between atoms: C_10  and  C_11
    3  A    between atoms: C_11  and  O_17
    4  A    between atoms: N_12  and  C_25
    5  A    between atoms: C_15  and  C_23
    6  A    between atoms: C_21  and  C_25
                            x       y       z     vdW  Elec       q    Type
                         _______ _______ _______ _____ _____    ______ ____

>  <TORSDO>
F 6

$$$$
=
 OpenBabel11052422143D

 25 28  0  0  1  0  0  0  0  0999 V2000
  160.5740  206.5610  150.3810 C   0  0  0  0  0  0  0  0  0  0  0  0
  160.7870  207.6960  151.3380 C   0  0  1  0  0  3  0  0  0  0  0  0
  161.9200  207.6000  148.5920 C   0  0  0  0  0  2  0  0  0  0  0  0
  160.4890  205.2790  150.6700 C   0  0  0  0  0  3  0  0  0  0  0  0
  162.0390  208.8440  149.4870 C   0  0  0  0  0  2  0  0  0  0  0  0
  160.4410  204.5190  149.3870 C   0  0  1  0  0  3  0  0  0  0  0  0
  162.3570  209.5540  151.9130 C   0  0  0  0  0  0  0  0  0  0  0  0
  163.1530  210.4310  151.6160 O   0  0  0  0  0  0  0  0  0  0  0  0
  160.8040  207.3180  152.7920 C   0  0  0  0  0  3  0  0  0  0  0  0
  160.6540  206.7970  148.9180 C   0  0  1  0  0  3  0  0  0  0  0  0
  160.7190  205.4720  148.3050 N   0  0  0  0  0  2  0  0  0  0  0  0
  161.6750  209.5960  153.2600 C   0  0  0  0  0  2  0  0  0  0  0  0
  161.1990  208.2250  153.7030 C   0  0  0  0  0  0  0  0  0  0  0  0
  162.0880  208.4150  150.9590 C   0  0  1  0  0  3  0  0  0  0  0  0
  159.9490  207.2410  155.6490 C   0  0  0  0  0  2  0  0  0  0  0  0
  161.2480  207.8610  155.1680 C   0  0  2  0  0  3  0  0  0  0  0  0
  160.2880  208.6540  156.0720 C   0  0  1  0  0  3  0  0  0  0  0  0
  159.3310  209.6050  155.3610 C   0  0  0  0  0  2  0  0  0  0  0  0
  159.2000  210.8340  156.1250 N   0  0  0  0  0  2  0  0  0  0  0  0
  159.1500  211.9330  155.1750 C   0  0  0  0  0  2  0  0  0  0  0  0
  158.4750  211.4730  153.8960 C   0  0  0  0  0  1  0  0  0  0  0  0
  161.5320  202.6600  147.9740 C   0  0  0  0  0  1  0  0  0  0  0  0
  161.4290  203.3420  149.3370 C   0  0  2  0  0  3  0  0  0  0  0  0
  161.3620  202.4540  150.4360 O   0  0  0  0  0  0  0  0  0  0  0  0
  160.7630  201.2520  150.0290 C   0  0  0  0  0  1  0  0  0  0  0  0
  1  4  2  0  0  0  0
  1  2  1  0  0  0  0
  2  9  1  1  0  0  0
  3  5  1  0  0  0  0
  6 23  1  1  0  0  0
  6  4  1  0  0  0  0
  7 12  1  0  0  0  0
  8  7  2  0  0  0  0
  9 13  2  0  0  0  0
 10  3  1  1  0  0  0
 10  1  1  0  0  0  0
 11 10  1  0  0  0  0
 11  6  1  0  0  0  0
 12 13  1  0  0  0  0
 14  5  1  6  0  0  0
 14  2  1  0  0  0  0
 14  7  1  0  0  0  0
 15 17  1  0  0  0  0
 16 13  1  6  0  0  0
 16 15  1  0  0  0  0
 16 17  1  0  0  0  0
 17 18  1  6  0  0  0
 18 19  1  0  0  0  0
 20 19  1  0  0  0  0
 21 20  1  0  0  0  0
 23 22  1  6  0  0  0
 23 24  1  0  0  0  0
 25 24  1  0  0  0  0
M  END
>  <MODEL>
3

>  <REMARK>
 VINA RESULT:      -7.7      2.396      7.635
  Name = 
  6 active torsions:
  status: ('A' for Active; 'I' for Inactive)
    1  A    between atoms: C_2  and  N_12
    2  A    between atoms: C_10  and  C_11
    3  A    between atoms: C_11  and  O_17
    4  A    between atoms: N_12  and  C_25
    5  A    between atoms: C_15  and  C_23
    6  A    between atoms: C_21  and  C_25
                            x       y       z     vdW  Elec       q    Type
                         _______ _______ _______ _____ _____    ______ ____

>  <TORSDO>
F 6

$$$$
=
 OpenBabel11052422143D

 25 28  0  0  1  0  0  0  0  0999 V2000
  161.7130  207.8010  152.0310 C   0  0  0  0  0  0  0  0  0  0  0  0
  161.4500  208.9560  152.9520 C   0  0  1  0  0  3  0  0  0  0  0  0
  161.2470  206.1040  153.7610 C   0  0  0  0  0  2  0  0  0  0  0  0
  161.4330  207.7260  150.7470 C   0  0  0  0  0  3  0  0  0  0  0  0
  161.1120  207.2550  154.7700 C   0  0  0  0  0  2  0  0  0  0  0  0
  161.7240  206.3350  150.2920 C   0  0  1  0  0  3  0  0  0  0  0  0
  160.2010  209.6220  155.0120 C   0  0  0  0  0  0  0  0  0  0  0  0
  159.7400  209.3970  156.1200 O   0  0  0  0  0  0  0  0  0  0  0  0
  160.8970  210.1890  152.2960 C   0  0  0  0  0  3  0  0  0  0  0  0
  162.1490  206.4950  152.5830 C   0  0  1  0  0  3  0  0  0  0  0  0
  162.0060  205.5350  151.4910 N   0  0  0  0  0  2  0  0  0  0  0  0
  160.4170  211.0520  154.5750 C   0  0  0  0  0  2  0  0  0  0  0  0
  160.4320  211.1910  153.0640 C   0  0  0  0  0  0  0  0  0  0  0  0
  160.5140  208.4830  154.0710 C   0  0  1  0  0  3  0  0  0  0  0  0
  159.2400  213.3700  153.4540 C   0  0  0  0  0  2  0  0  0  0  0  0
  159.8500  212.4310  152.4280 C   0  0  2  0  0  3  0  0  0  0  0  0
  158.3230  212.5740  152.5510 C   0  0  1  0  0  3  0  0  0  0  0  0
  157.6180  211.5210  153.4000 C   0  0  0  0  0  2  0  0  0  0  0  0
  156.8930  212.1660  154.4820 N   0  0  0  0  0  2  0  0  0  0  0  0
  156.5980  211.1470  155.4760 C   0  0  0  0  0  2  0  0  0  0  0  0
  155.4020  210.3280  155.0280 C   0  0  0  0  0  1  0  0  0  0  0  0
  160.7340  204.2070  149.2270 C   0  0  0  0  0  1  0  0  0  0  0  0
  160.5800  205.7060  149.4800 C   0  0  2  0  0  3  0  0  0  0  0  0
  160.1610  206.4520  148.3540 O   0  0  0  0  0  0  0  0  0  0  0  0
  161.0140  206.1860  147.2720 C   0  0  0  0  0  1  0  0  0  0  0  0
  1 10  1  0  0  0  0
  1  2  1  0  0  0  0
  2  9  1  6  0  0  0
  2 14  1  0  0  0  0
  3  5  1  0  0  0  0
  4  1  2  0  0  0  0
  6 23  1  1  0  0  0
  6  4  1  0  0  0  0
  6 11  1  0  0  0  0
  7  8  2  0  0  0  0
  9 13  2  0  0  0  0
 10  3  1  1  0  0  0
 11 10  1  0  0  0  0
 12  7  1  0  0  0  0
 13 12  1  0  0  0  0
 14  5  1  1  0  0  0
 14  7  1  0  0  0  0
 16 17  1  0  0  0  0
 16 13  1  1  0  0  0
 16 15  1  0  0  0  0
 17 18  1  1  0  0  0
 17 15  1  0  0  0  0
 18 19  1  0  0  0  0
 19 20  1  0  0  0  0
 21 20  1  0  0  0  0
 23 22  1  6  0  0  0
 24 23  1  0  0  0  0
 25 24  1  0  0  0  0
M  END
>  <MODEL>
4

>  <REMARK>
 VINA RESULT:      -7.6      2.753      8.526
  Name = 
  6 active torsions:
  status: ('A' for Active; 'I' for Inactive)
    1  A    between atoms: C_2  and  N_12
    2  A    between atoms: C_10  and  C_11
    3  A    between atoms: C_11  and  O_17
    4  A    between atoms: N_12  and  C_25
    5  A    between atoms: C_15  and  C_23
    6  A    between atoms: C_21  and  C_25
                            x       y       z     vdW  Elec       q    Type
                         _______ _______ _______ _____ _____    ______ ____

>  <TORSDO>
F 6

$$$$
=
 OpenBabel11052422143D

 25 28  0  0  1  0  0  0  0  0999 V2000
  160.8620  209.5670  153.8120 C   0  0  0  0  0  0  0  0  0  0  0  0
  161.5810  208.5280  153.0030 C   0  0  1  0  0  3  0  0  0  0  0  0
  161.0580  211.2980  152.0640 C   0  0  0  0  0  2  0  0  0  0  0  0
  159.8530  209.3780  154.6350 C   0  0  0  0  0  3  0  0  0  0  0  0
  161.9250  210.3100  151.2660 C   0  0  0  0  0  2  0  0  0  0  0  0
  159.3660  210.7160  155.0820 C   0  0  1  0  0  3  0  0  0  0  0  0
  162.1230  207.8440  150.6610 C   0  0  0  0  0  0  0  0  0  0  0  0
  162.3920  208.0880  149.4950 O   0  0  0  0  0  0  0  0  0  0  0  0
  161.1520  207.1090  153.2490 C   0  0  0  0  0  3  0  0  0  0  0  0
  161.1210  211.0070  153.5690 C   0  0  1  0  0  3  0  0  0  0  0  0
  160.0600  211.7250  154.2710 N   0  0  0  0  0  2  0  0  0  0  0  0
  162.4500  206.4810  151.2270 C   0  0  0  0  0  2  0  0  0  0  0  0
  161.5840  206.1380  152.4250 C   0  0  0  0  0  0  0  0  0  0  0  0
  161.4340  208.8780  151.5170 C   0  0  1  0  0  3  0  0  0  0  0  0
  161.9200  203.7360  151.7650 C   0  0  0  0  0  2  0  0  0  0  0  0
  161.1470  204.7090  152.6370 C   0  0  2  0  0  3  0  0  0  0  0  0
  160.4770  204.0410  151.4230 C   0  0  1  0  0  3  0  0  0  0  0  0
  160.4580  204.8590  150.1360 C   0  0  0  0  0  2  0  0  0  0  0  0
  160.8490  204.0210  149.0140 N   0  0  0  0  0  2  0  0  0  0  0  0
  161.2510  204.9040  147.9320 C   0  0  0  0  0  2  0  0  0  0  0  0
  160.4540  206.1930  148.0000 C   0  0  0  0  0  1  0  0  0  0  0  0
  157.3940  211.8290  153.8510 C   0  0  0  0  0  1  0  0  0  0  0  0
  157.8420  210.8830  154.9640 C   0  0  2  0  0  3  0  0  0  0  0  0
  157.1590  211.0530  156.1900 O   0  0  0  0  0  0  0  0  0  0  0  0
  156.9390  212.4200  156.4180 C   0  0  0  0  0  1  0  0  0  0  0  0
  1  4  2  0  0  0  0
  2  9  1  6  0  0  0
  2  1  1  0  0  0  0
  4  6  1  0  0  0  0
  5  3  1  0  0  0  0
  6 23  1  6  0  0  0
  7 12  1  0  0  0  0
  7 14  1  0  0  0  0
  8  7  2  0  0  0  0
 10  3  1  6  0  0  0
 10  1  1  0  0  0  0
 10 11  1  0  0  0  0
 11  6  1  0  0  0  0
 12 13  1  0  0  0  0
 13  9  2  0  0  0  0
 14  5  1  1  0  0  0
 14  2  1  0  0  0  0
 15 16  1  0  0  0  0
 16 13  1  6  0  0  0
 17 18  1  6  0  0  0
 17 15  1  0  0  0  0
 17 16  1  0  0  0  0
 19 18  1  0  0  0  0
 20 21  1  0  0  0  0
 20 19  1  0  0  0  0
 23 22  1  6  0  0  0
 23 24  1  0  0  0  0
 24 25  1  0  0  0  0
M  END
>  <MODEL>
5

>  <REMARK>
 VINA RESULT:      -7.4      2.426      3.664
  Name = 
  6 active torsions:
  status: ('A' for Active; 'I' for Inactive)
    1  A    between atoms: C_2  and  N_12
    2  A    between atoms: C_10  and  C_11
    3  A    between atoms: C_11  and  O_17
    4  A    between atoms: N_12  and  C_25
    5  A    between atoms: C_15  and  C_23
    6  A    between atoms: C_21  and  C_25
                            x       y       z     vdW  Elec       q    Type
                         _______ _______ _______ _____ _____    ______ ____

>  <TORSDO>
F 6

$$$$
=
 OpenBabel11052422143D

 25 28  0  0  1  0  0  0  0  0999 V2000
  160.5420  205.7990  150.2390 C   0  0  0  0  0  0  0  0  0  0  0  0
  160.4500  204.3060  150.3520 C   0  0  1  0  0  3  0  0  0  0  0  0
  162.0220  206.0200  152.2020 C   0  0  0  0  0  2  0  0  0  0  0  0
  160.5730  206.5140  149.1340 C   0  0  0  0  0  3  0  0  0  0  0  0
  161.8350  204.5130  152.4380 C   0  0  0  0  0  2  0  0  0  0  0  0
  160.8330  207.9340  149.5120 C   0  0  1  0  0  3  0  0  0  0  0  0
  161.6570  202.2910  151.2060 C   0  0  0  0  0  0  0  0  0  0  0  0
  162.3740  201.7170  152.0110 O   0  0  0  0  0  0  0  0  0  0  0  0
  160.2760  203.5710  149.0530 C   0  0  0  0  0  3  0  0  0  0  0  0
  160.8310  206.6180  151.4420 C   0  0  1  0  0  3  0  0  0  0  0  0
  161.1630  207.9520  150.9430 N   0  0  0  0  0  2  0  0  0  0  0  0
  160.7630  201.4780  150.2990 C   0  0  0  0  0  2  0  0  0  0  0  0
  160.3980  202.2320  149.0330 C   0  0  0  0  0  0  0  0  0  0  0  0
  161.6940  203.7950  151.0900 C   0  0  1  0  0  3  0  0  0  0  0  0
  161.5810  200.9550  147.2200 C   0  0  0  0  0  2  0  0  0  0  0  0
  160.2510  201.4740  147.7360 C   0  0  2  0  0  3  0  0  0  0  0  0
  160.9270  202.1240  146.5160 C   0  0  1  0  0  3  0  0  0  0  0  0
  161.7570  203.3720  146.7980 C   0  0  0  0  0  2  0  0  0  0  0  0
  162.0850  204.0380  145.5490 N   0  0  0  0  0  2  0  0  0  0  0  0
  160.8320  204.3980  144.9060 C   0  0  0  0  0  2  0  0  0  0  0  0
  160.4680  205.8270  145.2610 C   0  0  0  0  0  1  0  0  0  0  0  0
  163.0660  207.6300  148.2600 C   0  0  0  0  0  1  0  0  0  0  0  0
  161.9570  208.5890  148.6910 C   0  0  2  0  0  3  0  0  0  0  0  0
  162.4140  209.8330  149.1840 O   0  0  0  0  0  0  0  0  0  0  0  0
  161.9290  210.8660  148.3670 C   0  0  0  0  0  1  0  0  0  0  0  0
  1  2  1  0  0  0  0
  1 10  1  0  0  0  0
  2  9  1  6  0  0  0
  2 14  1  0  0  0  0
  3  5  1  0  0  0  0
  4  6  1  0  0  0  0
  4  1  2  0  0  0  0
  6 23  1  6  0  0  0
  6 11  1  0  0  0  0
  7  8  2  0  0  0  0
 10  3  1  6  0  0  0
 11 10  1  0  0  0  0
 12  7  1  0  0  0  0
 13  9  2  0  0  0  0
 13 12  1  0  0  0  0
 14  7  1  0  0  0  0
 14  5  1  1  0  0  0
 15 16  1  0  0  0  0
 16 13  1  1  0  0  0
 17 18  1  1  0  0  0
 17 15  1  0  0  0  0
 17 16  1  0  0  0  0
 19 18  1  0  0  0  0
 20 21  1  0  0  0  0
 20 19  1  0  0  0  0
 23 22  1  1  0  0  0
 23 24  1  0  0  0  0
 25 24  1  0  0  0  0
M  END
>  <MODEL>
6

>  <REMARK>
 VINA RESULT:      -7.2      2.767      4.532
  Name = 
  6 active torsions:
  status: ('A' for Active; 'I' for Inactive)
    1  A    between atoms: C_2  and  N_12
    2  A    between atoms: C_10  and  C_11
    3  A    between atoms: C_11  and  O_17
    4  A    between atoms: N_12  and  C_25
    5  A    between atoms: C_15  and  C_23
    6  A    between atoms: C_21  and  C_25
                            x       y       z     vdW  Elec       q    Type
                         _______ _______ _______ _____ _____    ______ ____

>  <TORSDO>
F 6

$$$$
=
 OpenBabel11052422143D

 25 28  0  0  1  0  0  0  0  0999 V2000
  161.9560  209.7840  150.4990 C   0  0  0  0  0  0  0  0  0  0  0  0
  161.9350  211.2220  150.0750 C   0  0  1  0  0  3  0  0  0  0  0  0
  160.3930  210.1440  152.3750 C   0  0  0  0  0  2  0  0  0  0  0  0
  162.0350  208.7240  149.7220 C   0  0  0  0  0  3  0  0  0  0  0  0
  160.4590  211.6480  152.0630 C   0  0  0  0  0  2  0  0  0  0  0  0
  161.8580  207.5130  150.5750 C   0  0  1  0  0  3  0  0  0  0  0  0
  160.5430  213.2980  150.1240 C   0  0  0  0  0  0  0  0  0  0  0  0
  159.7450  214.0550  150.6540 O   0  0  0  0  0  0  0  0  0  0  0  0
  162.1260  211.4620  148.6040 C   0  0  0  0  0  3  0  0  0  0  0  0
  161.6630  209.4210  151.9080 C   0  0  1  0  0  3  0  0  0  0  0  0
  161.4540  207.9740  151.9090 N   0  0  0  0  0  2  0  0  0  0  0  0
  161.4240  213.8100  149.0090 C   0  0  0  0  0  2  0  0  0  0  0  0
  161.9090  212.6930  148.1050 C   0  0  0  0  0  0  0  0  0  0  0  0
  160.6200  211.8520  150.5510 C   0  0  1  0  0  3  0  0  0  0  0  0
  161.2950  214.1760  146.1710 C   0  0  0  0  0  2  0  0  0  0  0  0
  162.0710  212.9530  146.6270 C   0  0  2  0  0  3  0  0  0  0  0  0
  160.7880  212.8030  145.7900 C   0  0  1  0  0  3  0  0  0  0  0  0
  159.5060  212.5370  146.5740 C   0  0  0  0  0  2  0  0  0  0  0  0
  158.3510  212.7770  145.7250 N   0  0  0  0  0  2  0  0  0  0  0  0
  157.1640  212.5700  146.5370 C   0  0  0  0  0  2  0  0  0  0  0  0
  157.4550  212.9540  147.9750 C   0  0  0  0  0  1  0  0  0  0  0  0
  160.9940  205.0850  150.5210 C   0  0  0  0  0  1  0  0  0  0  0  0
  160.8290  206.5170  150.0140 C   0  0  2  0  0  3  0  0  0  0  0  0
  160.5840  206.6240  148.6250 O   0  0  0  0  0  0  0  0  0  0  0  0
  161.1610  205.5310  147.9620 C   0  0  0  0  0  1  0  0  0  0  0  0
  1 10  1  0  0  0  0
  2  9  1  6  0  0  0
  2  1  1  0  0  0  0
  2 14  1  0  0  0  0
  4  1  2  0  0  0  0
  4  6  1  0  0  0  0
  5  3  1  0  0  0  0
  6 23  1  6  0  0  0
  6 11  1  0  0  0  0
  7 14  1  0  0  0  0
  7  8  2  0  0  0  0
 10 11  1  0  0  0  0
 10  3  1  6  0  0  0
 12  7  1  0  0  0  0
 13  9  2  0  0  0  0
 13 12  1  0  0  0  0
 14  5  1  1  0  0  0
 15 16  1  0  0  0  0
 16 13  1  1  0  0  0
 17 15  1  0  0  0  0
 17 18  1  1  0  0  0
 17 16  1  0  0  0  0
 19 20  1  0  0  0  0
 19 18  1  0  0  0  0
 20 21  1  0  0  0  0
 23 22  1  6  0  0  0
 24 23  1  0  0  0  0
 25 24  1  0  0  0  0
M  END
>  <MODEL>
7

>  <REMARK>
 VINA RESULT:      -6.9      4.703      8.193
  Name = 
  6 active torsions:
  status: ('A' for Active; 'I' for Inactive)
    1  A    between atoms: C_2  and  N_12
    2  A    between atoms: C_10  and  C_11
    3  A    between atoms: C_11  and  O_17
    4  A    between atoms: N_12  and  C_25
    5  A    between atoms: C_15  and  C_23
    6  A    between atoms: C_21  and  C_25
                            x       y       z     vdW  Elec       q    Type
                         _______ _______ _______ _____ _____    ______ ____

>  <TORSDO>
F 6

$$$$
=
 OpenBabel11052422143D

 25 28  0  0  1  0  0  0  0  0999 V2000
  162.2070  204.9530  147.1360 C   0  0  0  0  0  0  0  0  0  0  0  0
  161.9140  203.4990  146.9130 C   0  0  1  0  0  3  0  0  0  0  0  0
  161.1340  205.6610  145.0300 C   0  0  0  0  0  2  0  0  0  0  0  0
  162.2100  205.5980  148.2840 C   0  0  0  0  0  3  0  0  0  0  0  0
  160.9450  204.1730  144.6950 C   0  0  0  0  0  2  0  0  0  0  0  0
  162.3940  207.0510  147.9950 C   0  0  1  0  0  3  0  0  0  0  0  0
  160.3480  201.9340  145.7520 C   0  0  0  0  0  0  0  0  0  0  0  0
  159.6260  201.6160  144.8200 O   0  0  0  0  0  0  0  0  0  0  0  0
  161.7000  202.6860  148.1580 C   0  0  0  0  0  3  0  0  0  0  0  0
  162.3200  205.8740  145.9790 C   0  0  1  0  0  3  0  0  0  0  0  0
  162.2880  207.2230  146.5400 N   0  0  0  0  0  2  0  0  0  0  0  0
  160.8560  200.8670  146.6940 C   0  0  0  0  0  2  0  0  0  0  0  0
  161.2240  201.4320  148.0530 C   0  0  0  0  0  0  0  0  0  0  0  0
  160.6960  203.3840  145.9870 C   0  0  1  0  0  3  0  0  0  0  0  0
  159.6090  200.8640  149.8930 C   0  0  0  0  0  2  0  0  0  0  0  0
  160.9790  200.6050  149.2910 C   0  0  2  0  0  3  0  0  0  0  0  0
  160.8340  201.4060  150.5970 C   0  0  1  0  0  3  0  0  0  0  0  0
  160.8310  202.9240  150.4530 C   0  0  0  0  0  2  0  0  0  0  0  0
  160.6330  203.5420  151.7540 N   0  0  0  0  0  2  0  0  0  0  0  0
  161.6130  204.6060  151.8840 C   0  0  0  0  0  2  0  0  0  0  0  0
  161.3290  205.4130  153.1360 C   0  0  0  0  0  1  0  0  0  0  0  0
  161.7530  209.4320  148.7440 C   0  0  0  0  0  1  0  0  0  0  0  0
  161.3800  207.9510  148.7210 C   0  0  2  0  0  3  0  0  0  0  0  0
  160.9020  207.4450  149.9520 O   0  0  0  0  0  0  0  0  0  0  0  0
  161.3360  208.2740  150.9980 C   0  0  0  0  0  1  0  0  0  0  0  0
  1  4  2  0  0  0  0
  2  1  1  0  0  0  0
  2  9  1  1  0  0  0
  5  3  1  0  0  0  0
  6  4  1  0  0  0  0
  6 23  1  1  0  0  0
  7 14  1  0  0  0  0
  7 12  1  0  0  0  0
  8  7  2  0  0  0  0
 10  3  1  6  0  0  0
 10 11  1  0  0  0  0
 10  1  1  0  0  0  0
 11  6  1  0  0  0  0
 12 13  1  0  0  0  0
 13  9  2  0  0  0  0
 14  5  1  6  0  0  0
 14  2  1  0  0  0  0
 15 17  1  0  0  0  0
 16 13  1  6  0  0  0
 16 15  1  0  0  0  0
 16 17  1  0  0  0  0
 17 18  1  6  0  0  0
 18 19  1  0  0  0  0
 19 20  1  0  0  0  0
 20 21  1  0  0  0  0
 23 22  1  1  0  0  0
 23 24  1  0  0  0  0
 24 25  1  0  0  0  0
M  END
>  <MODEL>
8

>  <REMARK>
 VINA RESULT:      -6.6      2.797      5.562
  Name = 
  6 active torsions:
  status: ('A' for Active; 'I' for Inactive)
    1  A    between atoms: C_2  and  N_12
    2  A    between atoms: C_10  and  C_11
    3  A    between atoms: C_11  and  O_17
    4  A    between atoms: N_12  and  C_25
    5  A    between atoms: C_15  and  C_23
    6  A    between atoms: C_21  and  C_25
                            x       y       z     vdW  Elec       q    Type
                         _______ _______ _______ _____ _____    ______ ____

>  <TORSDO>
F 6

$$$$
=
 OpenBabel11052422143D

 25 28  0  0  1  0  0  0  0  0999 V2000
  161.5740  203.5820  148.2020 C   0  0  0  0  0  0  0  0  0  0  0  0
  161.6000  204.1200  149.6020 C   0  0  1  0  0  3  0  0  0  0  0  0
  160.7450  201.3640  148.8960 C   0  0  0  0  0  2  0  0  0  0  0  0
  161.2700  204.2370  147.1020 C   0  0  0  0  0  3  0  0  0  0  0  0
  160.8970  201.8280  150.3530 C   0  0  0  0  0  2  0  0  0  0  0  0
  161.2210  203.2560  145.9790 C   0  0  1  0  0  3  0  0  0  0  0  0
  160.5670  203.8540  151.8620 C   0  0  0  0  0  0  0  0  0  0  0  0
  160.0800  203.1830  152.7590 O   0  0  0  0  0  0  0  0  0  0  0  0
  161.3430  205.5950  149.7300 C   0  0  0  0  0  3  0  0  0  0  0  0
  161.7000  202.1230  147.9650 C   0  0  1  0  0  3  0  0  0  0  0  0
  161.3230  201.9140  146.5680 N   0  0  0  0  0  2  0  0  0  0  0  0
  161.1060  205.2300  152.1750 C   0  0  0  0  0  2  0  0  0  0  0  0
  161.1360  206.1240  150.9490 C   0  0  0  0  0  0  0  0  0  0  0  0
  160.5940  203.3290  150.4470 C   0  0  1  0  0  3  0  0  0  0  0  0
  162.0780  208.3780  151.5420 C   0  0  0  0  0  2  0  0  0  0  0  0
  160.8520  207.5990  151.1010 C   0  0  2  0  0  3  0  0  0  0  0  0
  160.9620  208.1430  152.5360 C   0  0  1  0  0  3  0  0  0  0  0  0
  161.4630  207.1590  153.5880 C   0  0  0  0  0  2  0  0  0  0  0  0
  161.2090  207.6880  154.9180 N   0  0  0  0  0  2  0  0  0  0  0  0
  160.0720  206.9660  155.4640 C   0  0  0  0  0  2  0  0  0  0  0  0
  160.1260  206.9980  156.9790 C   0  0  0  0  0  1  0  0  0  0  0  0
  159.4780  202.0550  144.5080 C   0  0  0  0  0  1  0  0  0  0  0  0
  159.9520  203.3730  145.1190 C   0  0  2  0  0  3  0  0  0  0  0  0
  159.9260  204.4750  144.2340 O   0  0  0  0  0  0  0  0  0  0  0  0
  161.2130  205.0260  144.1340 C   0  0  0  0  0  1  0  0  0  0  0  0
  1  2  1  0  0  0  0
  2  9  1  6  0  0  0
  2 14  1  0  0  0  0
  3  5  1  0  0  0  0
  4  1  2  0  0  0  0
  6 23  1  1  0  0  0
  6 11  1  0  0  0  0
  6  4  1  0  0  0  0
  7 12  1  0  0  0  0
  7  8  2  0  0  0  0
  9 13  2  0  0  0  0
 10  1  1  0  0  0  0
 10  3  1  1  0  0  0
 11 10  1  0  0  0  0
 13 12  1  0  0  0  0
 14  5  1  1  0  0  0
 14  7  1  0  0  0  0
 15 17  1  0  0  0  0
 16 13  1  1  0  0  0
 16 15  1  0  0  0  0
 16 17  1  0  0  0  0
 17 18  1  1  0  0  0
 18 19  1  0  0  0  0
 19 20  1  0  0  0  0
 20 21  1  0  0  0  0
 23 22  1  6  0  0  0
 24 23  1  0  0  0  0
 25 24  1  0  0  0  0
M  END
>  <MODEL>
9

>  <REMARK>
 VINA RESULT:      -6.6      1.687      8.251
  Name = 
  6 active torsions:
  status: ('A' for Active; 'I' for Inactive)
    1  A    between atoms: C_2  and  N_12
    2  A    between atoms: C_10  and  C_11
    3  A    between atoms: C_11  and  O_17
    4  A    between atoms: N_12  and  C_25
    5  A    between atoms: C_15  and  C_23
    6  A    between atoms: C_21  and  C_25
                            x       y       z     vdW  Elec       q    Type
                         _______ _______ _______ _____ _____    ______ ____

>  <TORSDO>
F 6

$$$$
