=
 OpenBabel11062409523D

 34 37  0  0  1  0  0  0  0  0999 V2000
  160.6650  206.2010  147.3470 O   0  0  0  0  0  0  0  0  0  0  0  0
  162.7870  205.0090  147.0000 C   0  0  1  0  0  3  0  0  0  0  0  0
  161.0320  202.9980  145.6180 C   0  0  0  0  0  2  0  0  0  0  0  0
  161.1530  205.4380  145.1180 C   0  0  0  0  0  0  0  0  0  0  0  0
  161.7140  205.9440  146.4150 C   0  0  1  0  0  3  0  0  0  0  0  0
  162.2750  203.7650  147.7400 C   0  0  0  0  0  2  0  0  0  0  0  0
  161.4130  206.0410  144.0880 O   0  0  0  0  0  0  0  0  0  0  0  0
  159.8820  203.9430  143.7750 F   0  0  0  0  0  0  0  0  0  0  0  0
  161.0530  203.0590  147.1410 C   0  0  2  0  0  3  0  0  0  0  0  0
  160.2890  204.2070  145.0710 C   0  0  1  0  0  3  0  0  0  0  0  0
  163.7290  204.6510  146.0310 O   0  0  0  0  0  1  0  0  0  0  0  0
  160.8700  201.6990  147.7480 C   0  0  0  0  0  0  0  0  0  0  0  0
  161.3640  200.6580  147.0840 C   0  0  0  0  0  2  0  0  0  0  0  0
  160.1890  201.4900  149.0040 N   0  0  0  0  0  0  0  0  0  0  0  0
  158.8340  201.5230  149.0350 O   0  0  0  0  0  1  0  0  0  0  0  0
  160.8690  202.1390  151.2380 C   0  0  0  0  0  2  0  0  0  0  0  0
  161.9960  201.9360  150.4250 O   0  0  0  0  0  0  0  0  0  0  0  0
  160.9050  201.0730  150.2080 C   0  0  2  0  0  3  0  0  0  0  0  0
  161.7850  207.6160  150.5910 C   0  0  0  0  0  0  0  0  0  0  0  0
  162.4860  208.7300  151.0480 O   0  0  0  0  0  1  0  0  0  0  0  0
  161.2800  206.6600  151.5000 C   0  0  0  0  0  0  0  0  0  0  0  0
  160.5770  205.5560  151.0010 C   0  0  0  0  0  3  0  0  0  0  0  0
  161.5860  207.4490  149.2080 C   0  0  0  0  0  0  0  0  0  0  0  0
  160.3720  205.3980  149.6310 C   0  0  0  0  0  3  0  0  0  0  0  0
  160.8690  206.3440  148.7260 C   0  0  0  0  0  0  0  0  0  0  0  0
  161.4710  206.7740  152.9660 C   0  0  0  0  0  0  0  0  0  0  0  0
  162.2240  205.9790  153.5870 O   0  0  0  0  0  0  0  0  0  0  0  0
  160.7970  207.7940  153.6980 N   0  0  0  0  0  1  0  0  0  0  0  0
  162.1330  208.4550  148.2460 C   0  0  0  0  0  2  0  0  0  0  0  0
  161.3660  209.6220  148.2910 O   0  0  0  0  0  0  0  0  0  0  0  0
  161.7230  211.8730  147.7900 N   0  0  0  0  0  0  0  0  0  0  0  0
  161.8120  211.7060  149.2460 C   0  0  0  0  0  2  0  0  0  0  0  0
  162.3040  210.6520  148.3650 C   0  0  1  0  0  3  0  0  0  0  0  0
  162.7640  212.6590  147.4250 O   0  0  0  0  0  1  0  0  0  0  0  0
  1 25  1  0  0  0  0
  2 11  1  6  0  0  0
  2  6  1  0  0  0  0
  3  9  1  0  0  0  0
  4  5  1  0  0  0  0
  5  2  1  0  0  0  0
  5  1  1  1  0  0  0
  7  4  2  0  0  0  0
  9  6  1  0  0  0  0
  9 12  1  1  0  0  0
 10  8  1  6  0  0  0
 10  4  1  0  0  0  0
 10  3  1  0  0  0  0
 12 14  1  0  0  0  0
 13 12  2  0  0  0  0
 14 15  1  0  0  0  0
 17 16  1  0  0  0  0
 18 14  1  6  0  0  0
 18 17  1  0  0  0  0
 18 16  1  0  0  0  0
 19 20  1  0  0  0  0
 19 21  1  0  0  0  0
 21 26  1  0  0  0  0
 22 21  2  0  0  0  0
 23 19  2  0  0  0  0
 24 22  1  0  0  0  0
 25 23  1  0  0  0  0
 25 24  2  0  0  0  0
 26 27  2  0  0  0  0
 26 28  1  0  0  0  0
 29 30  1  0  0  0  0
 29 23  1  0  0  0  0
 31 33  1  0  0  0  0
 31 32  1  0  0  0  0
 33 30  1  1  0  0  0
 33 32  1  0  0  0  0
 34 31  1  0  0  0  0
M  END
>  <MODEL>
1

>  <REMARK>
 VINA RESULT:      -7.1      0.000      0.000
  Name = 
  9 active torsions:
  status: ('A' for Active; 'I' for Inactive)
    1  A    between atoms: O_1  and  C_9
    2  A    between atoms: O_1  and  C_34
    3  A    between atoms: C_3  and  C_25
    4  A    between atoms: C_5  and  O_22
    5  A    between atoms: C_5  and  C_32
    6  A    between atoms: N_11  and  C_21
    7  A    between atoms: N_11  and  C_26
    8  A    between atoms: C_19  and  O_22
    9  A    between atoms: C_26  and  C_28
                            x       y       z     vdW  Elec       q    Type
                         _______ _______ _______ _____ _____    ______ ____

>  <TORSDO>
F 9

$$$$
=
 OpenBabel11062409523D

 34 37  0  0  1  0  0  0  0  0999 V2000
  160.8910  208.0300  150.9810 O   0  0  0  0  0  0  0  0  0  0  0  0
  162.1930  209.8080  152.0700 C   0  0  1  0  0  3  0  0  0  0  0  0
  160.0590  209.6050  154.1760 C   0  0  0  0  0  2  0  0  0  0  0  0
  161.4480  207.7280  153.3020 C   0  0  0  0  0  0  0  0  0  0  0  0
  161.8690  208.3070  151.9810 C   0  0  1  0  0  3  0  0  0  0  0  0
  160.9930  210.7640  152.0730 C   0  0  0  0  0  2  0  0  0  0  0  0
  162.1950  206.9430  153.8660 O   0  0  0  0  0  0  0  0  0  0  0  0
  159.9630  207.4420  155.1350 F   0  0  0  0  0  0  0  0  0  0  0  0
  159.7560  210.3180  152.8630 C   0  0  2  0  0  3  0  0  0  0  0  0
  160.1370  208.1060  153.9340 C   0  0  1  0  0  3  0  0  0  0  0  0
  163.0410  210.0800  153.1470 O   0  0  0  0  0  1  0  0  0  0  0  0
  158.8080  211.4640  153.0650 C   0  0  0  0  0  0  0  0  0  0  0  0
  158.5320  212.2250  152.0100 C   0  0  0  0  0  2  0  0  0  0  0  0
  158.1980  211.7580  154.3390 N   0  0  0  0  0  0  0  0  0  0  0  0
  158.8350  212.5900  155.2000 O   0  0  0  0  0  1  0  0  0  0  0  0
  155.9050  212.4790  154.6520 C   0  0  0  0  0  2  0  0  0  0  0  0
  156.4200  211.9570  155.8490 O   0  0  0  0  0  0  0  0  0  0  0  0
  156.8390  211.3280  154.6620 C   0  0  2  0  0  3  0  0  0  0  0  0
  161.2090  205.4610  148.3190 C   0  0  0  0  0  0  0  0  0  0  0  0
  160.9290  204.1070  148.1480 O   0  0  0  0  0  1  0  0  0  0  0  0
  161.7680  206.2200  147.2670 C   0  0  0  0  0  0  0  0  0  0  0  0
  162.0300  207.5790  147.4770 C   0  0  0  0  0  3  0  0  0  0  0  0
  160.9320  206.0690  149.5580 C   0  0  0  0  0  0  0  0  0  0  0  0
  161.7450  208.1830  148.7010 C   0  0  0  0  0  3  0  0  0  0  0  0
  161.1890  207.4350  149.7470 C   0  0  0  0  0  0  0  0  0  0  0  0
  162.0950  205.6310  145.9460 C   0  0  0  0  0  0  0  0  0  0  0  0
  163.1870  205.0350  145.7540 O   0  0  0  0  0  0  0  0  0  0  0  0
  161.1700  205.7340  144.8670 N   0  0  0  0  0  1  0  0  0  0  0  0
  160.3520  205.2620  150.6760 C   0  0  0  0  0  2  0  0  0  0  0  0
  161.3580  204.5160  151.2940 O   0  0  0  0  0  0  0  0  0  0  0  0
  161.2660  202.3200  150.5090 N   0  0  0  0  0  0  0  0  0  0  0  0
  161.8060  202.2980  151.8740 C   0  0  0  0  0  2  0  0  0  0  0  0
  160.7760  203.2670  151.5190 C   0  0  1  0  0  3  0  0  0  0  0  0
  160.3510  201.3250  150.4380 O   0  0  0  0  0  1  0  0  0  0  0  0
  2  6  1  0  0  0  0
  2 11  1  1  0  0  0
  4  7  2  0  0  0  0
  4 10  1  0  0  0  0
  5  1  1  6  0  0  0
  5  2  1  0  0  0  0
  5  4  1  0  0  0  0
  6  9  1  0  0  0  0
  9 12  1  1  0  0  0
  9  3  1  0  0  0  0
 10  3  1  0  0  0  0
 10  8  1  1  0  0  0
 12 14  1  0  0  0  0
 13 12  2  0  0  0  0
 14 15  1  0  0  0  0
 16 18  1  0  0  0  0
 16 17  1  0  0  0  0
 18 14  1  6  0  0  0
 18 17  1  0  0  0  0
 19 23  1  0  0  0  0
 20 19  1  0  0  0  0
 21 22  1  0  0  0  0
 21 19  2  0  0  0  0
 22 24  2  0  0  0  0
 23 25  2  0  0  0  0
 23 29  1  0  0  0  0
 24 25  1  0  0  0  0
 25  1  1  0  0  0  0
 26 21  1  0  0  0  0
 27 26  2  0  0  0  0
 28 26  1  0  0  0  0
 29 30  1  0  0  0  0
 31 33  1  0  0  0  0
 31 32  1  0  0  0  0
 33 30  1  6  0  0  0
 33 32  1  0  0  0  0
 34 31  1  0  0  0  0
M  END
>  <MODEL>
2

>  <REMARK>
 VINA RESULT:      -6.5      4.055      8.828
  Name = 
  9 active torsions:
  status: ('A' for Active; 'I' for Inactive)
    1  A    between atoms: O_1  and  C_9
    2  A    between atoms: O_1  and  C_34
    3  A    between atoms: C_3  and  C_25
    4  A    between atoms: C_5  and  O_22
    5  A    between atoms: C_5  and  C_32
    6  A    between atoms: N_11  and  C_21
    7  A    between atoms: N_11  and  C_26
    8  A    between atoms: C_19  and  O_22
    9  A    between atoms: C_26  and  C_28
                            x       y       z     vdW  Elec       q    Type
                         _______ _______ _______ _____ _____    ______ ____

>  <TORSDO>
F 9

$$$$
=
 OpenBabel11062409523D

 34 37  0  0  1  0  0  0  0  0999 V2000
  160.7450  208.8460  152.2470 O   0  0  0  0  0  0  0  0  0  0  0  0
  161.8740  210.4920  153.6820 C   0  0  1  0  0  3  0  0  0  0  0  0
  159.4460  210.1320  155.4160 C   0  0  0  0  0  2  0  0  0  0  0  0
  160.9450  208.3200  154.5860 C   0  0  0  0  0  0  0  0  0  0  0  0
  161.5620  209.0110  153.4040 C   0  0  1  0  0  3  0  0  0  0  0  0
  160.6900  211.4650  153.5960 C   0  0  0  0  0  2  0  0  0  0  0  0
  161.5950  207.4730  155.1790 O   0  0  0  0  0  0  0  0  0  0  0  0
  159.1990  207.8910  156.1410 F   0  0  0  0  0  0  0  0  0  0  0  0
  159.3480  210.9700  154.1460 C   0  0  2  0  0  3  0  0  0  0  0  0
  159.5550  208.6610  155.0470 C   0  0  1  0  0  3  0  0  0  0  0  0
  162.5510  210.6480  154.8940 O   0  0  0  0  0  1  0  0  0  0  0  0
  158.3840  212.1080  154.3110 C   0  0  0  0  0  0  0  0  0  0  0  0
  158.3450  213.0230  153.3480 C   0  0  0  0  0  2  0  0  0  0  0  0
  157.5150  212.2370  155.4570 N   0  0  0  0  0  0  0  0  0  0  0  0
  158.0310  212.6780  156.6300 O   0  0  0  0  0  1  0  0  0  0  0  0
  155.6260  210.8310  156.0280 C   0  0  0  0  0  2  0  0  0  0  0  0
  155.7830  210.8930  154.6350 O   0  0  0  0  0  0  0  0  0  0  0  0
  156.0670  212.0720  155.3490 C   0  0  2  0  0  3  0  0  0  0  0  0
  161.9330  207.2800  149.0970 C   0  0  0  0  0  0  0  0  0  0  0  0
  162.6330  207.6570  147.9540 O   0  0  0  0  0  1  0  0  0  0  0  0
  161.4870  205.9500  149.2630 C   0  0  0  0  0  0  0  0  0  0  0  0
  160.7910  205.6090  150.4300 C   0  0  0  0  0  3  0  0  0  0  0  0
  161.6710  208.2420  150.0910 C   0  0  0  0  0  0  0  0  0  0  0  0
  160.5410  206.5610  151.4180 C   0  0  0  0  0  3  0  0  0  0  0  0
  160.9830  207.8800  151.2590 C   0  0  0  0  0  0  0  0  0  0  0  0
  161.7210  204.8980  148.2450 C   0  0  0  0  0  0  0  0  0  0  0  0
  162.3100  205.1610  147.1630 O   0  0  0  0  0  0  0  0  0  0  0  0
  161.2760  203.5640  148.4770 N   0  0  0  0  0  1  0  0  0  0  0  0
  162.1320  209.6530  149.9090 C   0  0  0  0  0  2  0  0  0  0  0  0
  161.5590  210.1950  148.7560 O   0  0  0  0  0  0  0  0  0  0  0  0
  161.6010  212.1460  147.4760 N   0  0  0  0  0  0  0  0  0  0  0  0
  161.4030  212.5220  148.8820 C   0  0  0  0  0  2  0  0  0  0  0  0
  162.2560  211.3870  148.5500 C   0  0  1  0  0  3  0  0  0  0  0  0
  162.5350  212.9900  146.9770 O   0  0  0  0  0  1  0  0  0  0  0  0
  2 11  1  1  0  0  0
  4 10  1  0  0  0  0
  4  7  2  0  0  0  0
  5  1  1  6  0  0  0
  5  2  1  0  0  0  0
  5  4  1  0  0  0  0
  6  2  1  0  0  0  0
  6  9  1  0  0  0  0
  9 12  1  1  0  0  0
  9  3  1  0  0  0  0
 10  3  1  0  0  0  0
 10  8  1  1  0  0  0
 12 14  1  0  0  0  0
 13 12  2  0  0  0  0
 14 15  1  0  0  0  0
 17 18  1  0  0  0  0
 17 16  1  0  0  0  0
 18 14  1  1  0  0  0
 18 16  1  0  0  0  0
 19 21  2  0  0  0  0
 19 23  1  0  0  0  0
 20 19  1  0  0  0  0
 21 22  1  0  0  0  0
 22 24  2  0  0  0  0
 23 25  2  0  0  0  0
 25 24  1  0  0  0  0
 25  1  1  0  0  0  0
 26 28  1  0  0  0  0
 26 21  1  0  0  0  0
 27 26  2  0  0  0  0
 29 23  1  0  0  0  0
 30 29  1  0  0  0  0
 31 33  1  0  0  0  0
 31 32  1  0  0  0  0
 33 30  1  1  0  0  0
 33 32  1  0  0  0  0
 34 31  1  0  0  0  0
M  END
>  <MODEL>
3

>  <REMARK>
 VINA RESULT:      -6.5      4.469      8.482
  Name = 
  9 active torsions:
  status: ('A' for Active; 'I' for Inactive)
    1  A    between atoms: O_1  and  C_9
    2  A    between atoms: O_1  and  C_34
    3  A    between atoms: C_3  and  C_25
    4  A    between atoms: C_5  and  O_22
    5  A    between atoms: C_5  and  C_32
    6  A    between atoms: N_11  and  C_21
    7  A    between atoms: N_11  and  C_26
    8  A    between atoms: C_19  and  O_22
    9  A    between atoms: C_26  and  C_28
                            x       y       z     vdW  Elec       q    Type
                         _______ _______ _______ _____ _____    ______ ____

>  <TORSDO>
F 9

$$$$
=
 OpenBabel11062409523D

 34 37  0  0  1  0  0  0  0  0999 V2000
  161.0930  209.3880  152.8830 O   0  0  0  0  0  0  0  0  0  0  0  0
  162.0260  210.6200  154.7950 C   0  0  1  0  0  3  0  0  0  0  0  0
  159.4510  209.8220  156.1230 C   0  0  0  0  0  2  0  0  0  0  0  0
  161.0770  208.2860  155.0220 C   0  0  0  0  0  0  0  0  0  0  0  0
  161.7870  209.2570  154.1220 C   0  0  1  0  0  3  0  0  0  0  0  0
  160.8280  211.5780  154.8360 C   0  0  0  0  0  2  0  0  0  0  0  0
  161.6900  207.3180  155.4450 O   0  0  0  0  0  0  0  0  0  0  0  0
  159.2000  207.4690  156.2300 F   0  0  0  0  0  0  0  0  0  0  0  0
  159.4530  210.9540  155.1030 C   0  0  2  0  0  3  0  0  0  0  0  0
  159.6380  208.4930  155.4080 C   0  0  1  0  0  3  0  0  0  0  0  0
  162.5750  210.4650  156.0710 O   0  0  0  0  0  1  0  0  0  0  0  0
  158.4440  212.0100  155.4490 C   0  0  0  0  0  0  0  0  0  0  0  0
  158.5890  212.6390  156.6120 C   0  0  0  0  0  2  0  0  0  0  0  0
  157.3460  212.3580  154.5790 N   0  0  0  0  0  0  0  0  0  0  0  0
  156.2290  211.5890  154.5850 O   0  0  0  0  0  1  0  0  0  0  0  0
  157.8580  213.3950  152.4490 C   0  0  0  0  0  2  0  0  0  0  0  0
  158.6480  213.9550  153.4660 O   0  0  0  0  0  0  0  0  0  0  0  0
  157.3300  213.6050  153.8190 C   0  0  2  0  0  3  0  0  0  0  0  0
  161.9510  208.0040  149.5470 C   0  0  0  0  0  0  0  0  0  0  0  0
  162.5440  208.4420  148.3650 O   0  0  0  0  0  1  0  0  0  0  0  0
  161.5010  206.6700  149.6760 C   0  0  0  0  0  0  0  0  0  0  0  0
  160.9140  206.2670  150.8810 C   0  0  0  0  0  3  0  0  0  0  0  0
  161.7990  208.9060  150.6160 C   0  0  0  0  0  0  0  0  0  0  0  0
  160.7750  207.1600  151.9440 C   0  0  0  0  0  3  0  0  0  0  0  0
  161.2200  208.4820  151.8220 C   0  0  0  0  0  0  0  0  0  0  0  0
  161.6200  205.6800  148.5790 C   0  0  0  0  0  0  0  0  0  0  0  0
  162.1250  205.9960  147.4700 O   0  0  0  0  0  0  0  0  0  0  0  0
  161.1570  204.3450  148.7670 N   0  0  0  0  0  1  0  0  0  0  0  0
  162.2640  210.3210  150.4740 C   0  0  0  0  0  2  0  0  0  0  0  0
  161.2770  211.0840  149.8460 O   0  0  0  0  0  0  0  0  0  0  0  0
  161.1620  212.1970  147.7980 N   0  0  0  0  0  0  0  0  0  0  0  0
  161.2900  213.2020  148.8610 C   0  0  0  0  0  2  0  0  0  0  0  0
  161.9840  211.9250  148.9850 C   0  0  1  0  0  3  0  0  0  0  0  0
  162.0160  212.5620  146.8140 O   0  0  0  0  0  1  0  0  0  0  0  0
  2  6  1  0  0  0  0
  2 11  1  1  0  0  0
  4 10  1  0  0  0  0
  4  7  2  0  0  0  0
  5  1  1  6  0  0  0
  5  2  1  0  0  0  0
  5  4  1  0  0  0  0
  6  9  1  0  0  0  0
  9 12  1  1  0  0  0
  9  3  1  0  0  0  0
 10  3  1  0  0  0  0
 10  8  1  1  0  0  0
 12 13  2  0  0  0  0
 14 15  1  0  0  0  0
 14 12  1  0  0  0  0
 16 17  1  0  0  0  0
 16 18  1  0  0  0  0
 17 18  1  0  0  0  0
 18 14  1  1  0  0  0
 19 21  2  0  0  0  0
 19 23  1  0  0  0  0
 20 19  1  0  0  0  0
 21 22  1  0  0  0  0
 22 24  2  0  0  0  0
 23 25  2  0  0  0  0
 25 24  1  0  0  0  0
 25  1  1  0  0  0  0
 26 28  1  0  0  0  0
 26 21  1  0  0  0  0
 27 26  2  0  0  0  0
 29 23  1  0  0  0  0
 30 29  1  0  0  0  0
 31 32  1  0  0  0  0
 31 33  1  0  0  0  0
 32 33  1  0  0  0  0
 33 30  1  1  0  0  0
 34 31  1  0  0  0  0
M  END
>  <MODEL>
4

>  <REMARK>
 VINA RESULT:      -6.4      4.455      8.778
  Name = 
  9 active torsions:
  status: ('A' for Active; 'I' for Inactive)
    1  A    between atoms: O_1  and  C_9
    2  A    between atoms: O_1  and  C_34
    3  A    between atoms: C_3  and  C_25
    4  A    between atoms: C_5  and  O_22
    5  A    between atoms: C_5  and  C_32
    6  A    between atoms: N_11  and  C_21
    7  A    between atoms: N_11  and  C_26
    8  A    between atoms: C_19  and  O_22
    9  A    between atoms: C_26  and  C_28
                            x       y       z     vdW  Elec       q    Type
                         _______ _______ _______ _____ _____    ______ ____

>  <TORSDO>
F 9

$$$$
=
 OpenBabel11062409523D

 34 37  0  0  1  0  0  0  0  0999 V2000
  160.6780  209.5230  153.0930 O   0  0  0  0  0  0  0  0  0  0  0  0
  161.8720  210.7460  154.8610 C   0  0  1  0  0  3  0  0  0  0  0  0
  159.5930  209.7970  156.5760 C   0  0  0  0  0  2  0  0  0  0  0  0
  161.0710  208.3660  155.1660 C   0  0  0  0  0  0  0  0  0  0  0  0
  161.5770  209.3920  154.1920 C   0  0  1  0  0  3  0  0  0  0  0  0
  160.6600  211.6470  155.1350 C   0  0  0  0  0  2  0  0  0  0  0  0
  161.7850  207.4170  155.4470 O   0  0  0  0  0  0  0  0  0  0  0  0
  159.4600  207.4330  156.6440 F   0  0  0  0  0  0  0  0  0  0  0  0
  159.3760  210.9550  155.6080 C   0  0  2  0  0  3  0  0  0  0  0  0
  159.7110  208.4970  155.7960 C   0  0  1  0  0  3  0  0  0  0  0  0
  162.6350  210.5830  156.0200 O   0  0  0  0  0  1  0  0  0  0  0  0
  158.3990  211.9540  156.1550 C   0  0  0  0  0  0  0  0  0  0  0  0
  158.7450  212.6110  157.2570 C   0  0  0  0  0  2  0  0  0  0  0  0
  157.1230  212.2180  155.5340 N   0  0  0  0  0  0  0  0  0  0  0  0
  156.0680  211.4180  155.8250 O   0  0  0  0  0  1  0  0  0  0  0  0
  157.2970  213.2070  153.3280 C   0  0  0  0  0  2  0  0  0  0  0  0
  158.1150  213.8970  154.2380 O   0  0  0  0  0  0  0  0  0  0  0  0
  156.8870  213.4200  154.7370 C   0  0  2  0  0  3  0  0  0  0  0  0
  162.0060  209.9340  149.6500 C   0  0  0  0  0  0  0  0  0  0  0  0
  162.6270  209.1520  148.6800 O   0  0  0  0  0  1  0  0  0  0  0  0
  161.7210  211.2960  149.4040 C   0  0  0  0  0  0  0  0  0  0  0  0
  161.0920  212.0490  150.4040 C   0  0  0  0  0  3  0  0  0  0  0  0
  161.6670  209.3550  150.8870 C   0  0  0  0  0  0  0  0  0  0  0  0
  160.7470  211.4700  151.6240 C   0  0  0  0  0  3  0  0  0  0  0  0
  161.0250  210.1200  151.8730 C   0  0  0  0  0  0  0  0  0  0  0  0
  162.0690  211.9650  148.1270 C   0  0  0  0  0  0  0  0  0  0  0  0
  163.2520  212.3200  147.8810 O   0  0  0  0  0  0  0  0  0  0  0  0
  161.0600  212.2180  147.1530 N   0  0  0  0  0  1  0  0  0  0  0  0
  161.9800  207.9170  151.1520 C   0  0  0  0  0  2  0  0  0  0  0  0
  160.8850  207.1210  150.8110 O   0  0  0  0  0  0  0  0  0  0  0  0
  160.4290  205.1230  149.6930 N   0  0  0  0  0  0  0  0  0  0  0  0
  160.5210  206.1970  148.6970 C   0  0  0  0  0  2  0  0  0  0  0  0
  161.3880  206.2220  149.8690 C   0  0  1  0  0  3  0  0  0  0  0  0
  161.1300  204.0750  149.2000 O   0  0  0  0  0  1  0  0  0  0  0  0
  2  6  1  0  0  0  0
  2 11  1  1  0  0  0
  4  7  2  0  0  0  0
  4 10  1  0  0  0  0
  5  1  1  6  0  0  0
  5  2  1  0  0  0  0
  5  4  1  0  0  0  0
  6  9  1  0  0  0  0
  9 12  1  1  0  0  0
  9  3  1  0  0  0  0
 10  3  1  0  0  0  0
 10  8  1  1  0  0  0
 12 13  2  0  0  0  0
 14 15  1  0  0  0  0
 14 12  1  0  0  0  0
 16 17  1  0  0  0  0
 16 18  1  0  0  0  0
 17 18  1  0  0  0  0
 18 14  1  1  0  0  0
 19 23  1  0  0  0  0
 20 19  1  0  0  0  0
 21 19  2  0  0  0  0
 21 22  1  0  0  0  0
 22 24  2  0  0  0  0
 23 29  1  0  0  0  0
 23 25  2  0  0  0  0
 24 25  1  0  0  0  0
 25  1  1  0  0  0  0
 26 21  1  0  0  0  0
 27 26  2  0  0  0  0
 28 26  1  0  0  0  0
 30 29  1  0  0  0  0
 31 33  1  0  0  0  0
 32 31  1  0  0  0  0
 32 33  1  0  0  0  0
 33 30  1  1  0  0  0
 34 31  1  0  0  0  0
M  END
>  <MODEL>
5

>  <REMARK>
 VINA RESULT:      -5.9      4.773      9.590
  Name = 
  9 active torsions:
  status: ('A' for Active; 'I' for Inactive)
    1  A    between atoms: O_1  and  C_9
    2  A    between atoms: O_1  and  C_34
    3  A    between atoms: C_3  and  C_25
    4  A    between atoms: C_5  and  O_22
    5  A    between atoms: C_5  and  C_32
    6  A    between atoms: N_11  and  C_21
    7  A    between atoms: N_11  and  C_26
    8  A    between atoms: C_19  and  O_22
    9  A    between atoms: C_26  and  C_28
                            x       y       z     vdW  Elec       q    Type
                         _______ _______ _______ _____ _____    ______ ____

>  <TORSDO>
F 9

$$$$
=
 OpenBabel11062409523D

 34 37  0  0  1  0  0  0  0  0999 V2000
  161.0060  208.1350  151.4720 O   0  0  0  0  0  0  0  0  0  0  0  0
  162.6890  209.8310  152.0490 C   0  0  1  0  0  3  0  0  0  0  0  0
  160.3230  211.6840  152.0360 C   0  0  0  0  0  2  0  0  0  0  0  0
  160.5310  209.5710  153.3430 C   0  0  0  0  0  0  0  0  0  0  0  0
  161.5930  208.8710  152.5430 C   0  0  1  0  0  3  0  0  0  0  0  0
  162.3500  210.6720  150.8100 C   0  0  0  0  0  2  0  0  0  0  0  0
  160.4560  209.3500  154.5420 O   0  0  0  0  0  0  0  0  0  0  0  0
  158.6860  211.0420  153.6230 F   0  0  0  0  0  0  0  0  0  0  0  0
  160.9190  211.2150  150.7140 C   0  0  2  0  0  3  0  0  0  0  0  0
  159.5760  210.5340  152.6940 C   0  0  1  0  0  3  0  0  0  0  0  0
  163.1520  210.6470  153.0850 O   0  0  0  0  0  1  0  0  0  0  0  0
  160.8190  212.2760  149.6580 C   0  0  0  0  0  0  0  0  0  0  0  0
  160.1110  213.3640  149.9460 C   0  0  0  0  0  2  0  0  0  0  0  0
  161.4550  212.1560  148.3670 N   0  0  0  0  0  0  0  0  0  0  0  0
  160.8320  211.4570  147.3870 O   0  0  0  0  0  1  0  0  0  0  0  0
  162.3300  214.1190  147.2470 C   0  0  0  0  0  2  0  0  0  0  0  0
  162.8090  212.9520  146.6310 O   0  0  0  0  0  0  0  0  0  0  0  0
  162.6630  212.9050  148.0310 C   0  0  2  0  0  3  0  0  0  0  0  0
  161.1500  204.7330  149.9910 C   0  0  0  0  0  0  0  0  0  0  0  0
  161.2030  204.1570  148.7250 O   0  0  0  0  0  1  0  0  0  0  0  0
  161.1570  203.9260  151.1510 C   0  0  0  0  0  0  0  0  0  0  0  0
  161.1080  204.5440  152.4070 C   0  0  0  0  0  3  0  0  0  0  0  0
  161.0870  206.1340  150.1070 C   0  0  0  0  0  0  0  0  0  0  0  0
  161.0560  205.9330  152.5200 C   0  0  0  0  0  3  0  0  0  0  0  0
  161.0510  206.7370  151.3730 C   0  0  0  0  0  0  0  0  0  0  0  0
  161.2070  202.4450  151.0910 C   0  0  0  0  0  0  0  0  0  0  0  0
  160.4380  201.8000  150.3310 O   0  0  0  0  0  0  0  0  0  0  0  0
  162.1330  201.7270  151.9020 N   0  0  0  0  0  1  0  0  0  0  0  0
  161.0670  206.9870  148.8790 C   0  0  0  0  0  2  0  0  0  0  0  0
  160.4170  206.3130  147.8420 O   0  0  0  0  0  0  0  0  0  0  0  0
  161.5100  205.3240  146.0330 N   0  0  0  0  0  0  0  0  0  0  0  0
  160.4560  206.2030  145.5100 C   0  0  0  0  0  2  0  0  0  0  0  0
  161.1880  206.5870  146.7120 C   0  0  1  0  0  3  0  0  0  0  0  0
  162.6160  205.5590  145.2890 O   0  0  0  0  0  1  0  0  0  0  0  0
  2  5  1  0  0  0  0
  2 11  1  1  0  0  0
  3 10  1  0  0  0  0
  4  7  2  0  0  0  0
  5  1  1  6  0  0  0
  5  4  1  0  0  0  0
  6  2  1  0  0  0  0
  9 12  1  6  0  0  0
  9  6  1  0  0  0  0
  9  3  1  0  0  0  0
 10  4  1  0  0  0  0
 10  8  1  1  0  0  0
 12 13  2  0  0  0  0
 14 12  1  0  0  0  0
 15 14  1  0  0  0  0
 16 18  1  0  0  0  0
 17 16  1  0  0  0  0
 17 18  1  0  0  0  0
 18 14  1  6  0  0  0
 19 23  2  0  0  0  0
 19 21  1  0  0  0  0
 20 19  1  0  0  0  0
 21 22  2  0  0  0  0
 22 24  1  0  0  0  0
 23 25  1  0  0  0  0
 25  1  1  0  0  0  0
 25 24  2  0  0  0  0
 26 21  1  0  0  0  0
 26 28  1  0  0  0  0
 27 26  2  0  0  0  0
 29 23  1  0  0  0  0
 30 29  1  0  0  0  0
 31 33  1  0  0  0  0
 32 31  1  0  0  0  0
 32 33  1  0  0  0  0
 33 30  1  1  0  0  0
 34 31  1  0  0  0  0
M  END
>  <MODEL>
6

>  <REMARK>
 VINA RESULT:      -5.8      3.097      8.060
  Name = 
  9 active torsions:
  status: ('A' for Active; 'I' for Inactive)
    1  A    between atoms: O_1  and  C_9
    2  A    between atoms: O_1  and  C_34
    3  A    between atoms: C_3  and  C_25
    4  A    between atoms: C_5  and  O_22
    5  A    between atoms: C_5  and  C_32
    6  A    between atoms: N_11  and  C_21
    7  A    between atoms: N_11  and  C_26
    8  A    between atoms: C_19  and  O_22
    9  A    between atoms: C_26  and  C_28
                            x       y       z     vdW  Elec       q    Type
                         _______ _______ _______ _____ _____    ______ ____

>  <TORSDO>
F 9

$$$$
=
 OpenBabel11062409523D

 34 37  0  0  1  0  0  0  0  0999 V2000
  160.8580  208.2890  152.9310 O   0  0  0  0  0  0  0  0  0  0  0  0
  161.9310  210.3280  153.7870 C   0  0  1  0  0  3  0  0  0  0  0  0
  159.5910  210.3530  155.6730 C   0  0  0  0  0  2  0  0  0  0  0  0
  161.1710  208.4580  155.3110 C   0  0  0  0  0  0  0  0  0  0  0  0
  161.7030  208.8160  153.9520 C   0  0  1  0  0  3  0  0  0  0  0  0
  160.6860  211.1760  153.4920 C   0  0  0  0  0  2  0  0  0  0  0  0
  161.8920  207.8460  156.0840 O   0  0  0  0  0  0  0  0  0  0  0  0
  159.5100  208.3990  157.0100 F   0  0  0  0  0  0  0  0  0  0  0  0
  159.3970  210.7900  154.2260 C   0  0  2  0  0  3  0  0  0  0  0  0
  159.7790  208.8450  155.7270 C   0  0  1  0  0  3  0  0  0  0  0  0
  162.6380  210.8550  154.8720 O   0  0  0  0  0  1  0  0  0  0  0  0
  158.3700  211.8790  154.1140 C   0  0  0  0  0  0  0  0  0  0  0  0
  158.6430  212.8980  153.3040 C   0  0  0  0  0  2  0  0  0  0  0  0
  157.1230  211.8550  154.8390 N   0  0  0  0  0  0  0  0  0  0  0  0
  156.4070  210.7040  154.8850 O   0  0  0  0  0  1  0  0  0  0  0  0
  157.2880  212.8940  157.0220 C   0  0  0  0  0  2  0  0  0  0  0  0
  155.9660  212.4910  156.7730 O   0  0  0  0  0  0  0  0  0  0  0  0
  156.6910  212.9780  155.6680 C   0  0  2  0  0  3  0  0  0  0  0  0
  161.2450  205.4730  150.5430 C   0  0  0  0  0  0  0  0  0  0  0  0
  161.4190  205.2940  149.1730 O   0  0  0  0  0  1  0  0  0  0  0  0
  161.1880  204.3610  151.4130 C   0  0  0  0  0  0  0  0  0  0  0  0
  161.0160  204.5830  152.7850 C   0  0  0  0  0  3  0  0  0  0  0  0
  161.1210  206.7780  151.0560 C   0  0  0  0  0  0  0  0  0  0  0  0
  160.9040  205.8770  153.2920 C   0  0  0  0  0  3  0  0  0  0  0  0
  160.9620  206.9820  152.4350 C   0  0  0  0  0  0  0  0  0  0  0  0
  161.2970  202.9640  150.9290 C   0  0  0  0  0  0  0  0  0  0  0  0
  162.0070  202.1200  151.5360 O   0  0  0  0  0  0  0  0  0  0  0  0
  160.5950  202.5550  149.7590 N   0  0  0  0  0  1  0  0  0  0  0  0
  161.1680  207.9530  150.1320 C   0  0  0  0  0  2  0  0  0  0  0  0
  162.3050  208.7210  150.3970 O   0  0  0  0  0  0  0  0  0  0  0  0
  162.9140  210.4730  148.9800 N   0  0  0  0  0  0  0  0  0  0  0  0
  161.5810  210.0020  148.5830 C   0  0  0  0  0  2  0  0  0  0  0  0
  161.9550  210.0100  149.9930 C   0  0  1  0  0  3  0  0  0  0  0  0
  162.8610  211.8260  148.9900 O   0  0  0  0  0  1  0  0  0  0  0  0
  2  5  1  0  0  0  0
  2 11  1  1  0  0  0
  3 10  1  0  0  0  0
  4 10  1  0  0  0  0
  4  7  2  0  0  0  0
  5  1  1  6  0  0  0
  5  4  1  0  0  0  0
  6  2  1  0  0  0  0
  6  9  1  0  0  0  0
  9 12  1  1  0  0  0
  9  3  1  0  0  0  0
 10  8  1  1  0  0  0
 12 14  1  0  0  0  0
 13 12  2  0  0  0  0
 14 15  1  0  0  0  0
 17 16  1  0  0  0  0
 18 14  1  6  0  0  0
 18 17  1  0  0  0  0
 18 16  1  0  0  0  0
 19 23  2  0  0  0  0
 19 21  1  0  0  0  0
 20 19  1  0  0  0  0
 21 22  2  0  0  0  0
 22 24  1  0  0  0  0
 23 25  1  0  0  0  0
 25  1  1  0  0  0  0
 25 24  2  0  0  0  0
 26 21  1  0  0  0  0
 26 27  2  0  0  0  0
 28 26  1  0  0  0  0
 29 30  1  0  0  0  0
 29 23  1  0  0  0  0
 31 34  1  0  0  0  0
 31 33  1  0  0  0  0
 32 31  1  0  0  0  0
 32 33  1  0  0  0  0
 33 30  1  6  0  0  0
M  END
>  <MODEL>
7

>  <REMARK>
 VINA RESULT:      -5.8      4.692      8.703
  Name = 
  9 active torsions:
  status: ('A' for Active; 'I' for Inactive)
    1  A    between atoms: O_1  and  C_9
    2  A    between atoms: O_1  and  C_34
    3  A    between atoms: C_3  and  C_25
    4  A    between atoms: C_5  and  O_22
    5  A    between atoms: C_5  and  C_32
    6  A    between atoms: N_11  and  C_21
    7  A    between atoms: N_11  and  C_26
    8  A    between atoms: C_19  and  O_22
    9  A    between atoms: C_26  and  C_28
                            x       y       z     vdW  Elec       q    Type
                         _______ _______ _______ _____ _____    ______ ____

>  <TORSDO>
F 9

$$$$
=
 OpenBabel11062409523D

 34 37  0  0  1  0  0  0  0  0999 V2000
  160.9300  207.9720  152.5800 O   0  0  0  0  0  0  0  0  0  0  0  0
  162.0560  210.0680  153.1990 C   0  0  1  0  0  3  0  0  0  0  0  0
  159.6870  210.4000  155.0180 C   0  0  0  0  0  2  0  0  0  0  0  0
  161.2080  208.4260  154.9260 C   0  0  0  0  0  0  0  0  0  0  0  0
  161.7750  208.5960  153.5450 C   0  0  1  0  0  3  0  0  0  0  0  0
  160.8460  210.9110  152.7750 C   0  0  0  0  0  2  0  0  0  0  0  0
  161.8960  207.8940  155.7840 O   0  0  0  0  0  0  0  0  0  0  0  0
  159.5180  208.6310  156.5840 F   0  0  0  0  0  0  0  0  0  0  0  0
  159.5320  210.6600  153.5250 C   0  0  2  0  0  3  0  0  0  0  0  0
  159.8230  208.9060  155.2630 C   0  0  1  0  0  3  0  0  0  0  0  0
  162.7620  210.7030  154.2240 O   0  0  0  0  0  1  0  0  0  0  0  0
  158.5440  211.7580  153.2560 C   0  0  0  0  0  0  0  0  0  0  0  0
  158.4480  212.2050  152.0080 C   0  0  0  0  0  2  0  0  0  0  0  0
  157.7130  212.3300  154.2880 N   0  0  0  0  0  0  0  0  0  0  0  0
  158.1600  213.4120  154.9730 O   0  0  0  0  0  1  0  0  0  0  0  0
  156.0010  211.8880  155.9460 C   0  0  0  0  0  2  0  0  0  0  0  0
  156.3380  210.7060  155.2660 O   0  0  0  0  0  0  0  0  0  0  0  0
  156.3360  211.8890  154.5020 C   0  0  2  0  0  3  0  0  0  0  0  0
  161.1520  204.8600  150.5680 C   0  0  0  0  0  0  0  0  0  0  0  0
  161.2440  204.4990  149.2260 O   0  0  0  0  0  1  0  0  0  0  0  0
  161.1390  203.8740  151.5800 C   0  0  0  0  0  0  0  0  0  0  0  0
  161.0500  204.2780  152.9180 C   0  0  0  0  0  3  0  0  0  0  0  0
  161.0700  206.2230  150.9100 C   0  0  0  0  0  0  0  0  0  0  0  0
  160.9790  205.6290  153.2550 C   0  0  0  0  0  3  0  0  0  0  0  0
  160.9940  206.6100  152.2560 C   0  0  0  0  0  0  0  0  0  0  0  0
  161.2080  202.4240  151.2810 C   0  0  0  0  0  0  0  0  0  0  0  0
  162.1090  201.7000  151.7790 O   0  0  0  0  0  0  0  0  0  0  0  0
  160.2470  201.8250  150.4150 N   0  0  0  0  0  1  0  0  0  0  0  0
  161.0710  207.2650  149.8370 C   0  0  0  0  0  2  0  0  0  0  0  0
  162.3510  207.3820  149.2890 O   0  0  0  0  0  0  0  0  0  0  0  0
  162.0540  206.1820  147.3100 N   0  0  0  0  0  0  0  0  0  0  0  0
  160.8310  206.9540  147.5680 C   0  0  0  0  0  2  0  0  0  0  0  0
  162.1300  207.5170  147.9180 C   0  0  1  0  0  3  0  0  0  0  0  0
  162.3430  206.3400  145.9960 O   0  0  0  0  0  1  0  0  0  0  0  0
  2  5  1  0  0  0  0
  2 11  1  1  0  0  0
  3 10  1  0  0  0  0
  4 10  1  0  0  0  0
  4  7  2  0  0  0  0
  5  1  1  6  0  0  0
  5  4  1  0  0  0  0
  6  2  1  0  0  0  0
  6  9  1  0  0  0  0
  9 12  1  1  0  0  0
  9  3  1  0  0  0  0
 10  8  1  1  0  0  0
 12 14  1  0  0  0  0
 13 12  2  0  0  0  0
 14 15  1  0  0  0  0
 17 16  1  0  0  0  0
 18 14  1  1  0  0  0
 18 17  1  0  0  0  0
 18 16  1  0  0  0  0
 19 23  2  0  0  0  0
 19 21  1  0  0  0  0
 20 19  1  0  0  0  0
 21 22  2  0  0  0  0
 22 24  1  0  0  0  0
 23 25  1  0  0  0  0
 25  1  1  0  0  0  0
 25 24  2  0  0  0  0
 26 21  1  0  0  0  0
 26 27  2  0  0  0  0
 28 26  1  0  0  0  0
 29 23  1  0  0  0  0
 30 29  1  0  0  0  0
 31 32  1  0  0  0  0
 31 33  1  0  0  0  0
 32 33  1  0  0  0  0
 33 30  1  1  0  0  0
 34 31  1  0  0  0  0
M  END
>  <MODEL>
8

>  <REMARK>
 VINA RESULT:      -5.7      4.468      8.557
  Name = 
  9 active torsions:
  status: ('A' for Active; 'I' for Inactive)
    1  A    between atoms: O_1  and  C_9
    2  A    between atoms: O_1  and  C_34
    3  A    between atoms: C_3  and  C_25
    4  A    between atoms: C_5  and  O_22
    5  A    between atoms: C_5  and  C_32
    6  A    between atoms: N_11  and  C_21
    7  A    between atoms: N_11  and  C_26
    8  A    between atoms: C_19  and  O_22
    9  A    between atoms: C_26  and  C_28
                            x       y       z     vdW  Elec       q    Type
                         _______ _______ _______ _____ _____    ______ ____

>  <TORSDO>
F 9

$$$$
=
 OpenBabel11062409523D

 34 37  0  0  1  0  0  0  0  0999 V2000
  160.7210  206.0360  147.4120 O   0  0  0  0  0  0  0  0  0  0  0  0
  162.8600  204.9050  146.9770 C   0  0  1  0  0  3  0  0  0  0  0  0
  161.1660  203.1100  145.2620 C   0  0  0  0  0  2  0  0  0  0  0  0
  161.2920  205.5960  145.1160 C   0  0  0  0  0  0  0  0  0  0  0  0
  161.8040  205.9140  146.4920 C   0  0  1  0  0  3  0  0  0  0  0  0
  162.3290  203.5690  147.5140 C   0  0  0  0  0  2  0  0  0  0  0  0
  161.5850  206.3390  144.1920 O   0  0  0  0  0  0  0  0  0  0  0  0
  160.0780  204.3060  143.5310 F   0  0  0  0  0  0  0  0  0  0  0  0
  161.1330  202.9540  146.7780 C   0  0  2  0  0  3  0  0  0  0  0  0
  160.4380  204.3840  144.8650 C   0  0  1  0  0  3  0  0  0  0  0  0
  163.8380  204.6880  146.0020 O   0  0  0  0  0  1  0  0  0  0  0  0
  160.9350  201.5220  147.1800 C   0  0  0  0  0  0  0  0  0  0  0  0
  160.9990  201.2350  148.4770 C   0  0  0  0  0  2  0  0  0  0  0  0
  160.6820  200.4700  146.2250 N   0  0  0  0  0  0  0  0  0  0  0  0
  160.0810  200.7760  145.0480 O   0  0  0  0  0  1  0  0  0  0  0  0
  162.0170  198.7030  145.2400 C   0  0  0  0  0  2  0  0  0  0  0  0
  160.6900  198.2760  145.4070 O   0  0  0  0  0  0  0  0  0  0  0  0
  161.2070  199.1180  146.4100 C   0  0  2  0  0  3  0  0  0  0  0  0
  161.7010  207.5500  150.6570 C   0  0  0  0  0  0  0  0  0  0  0  0
  162.3320  208.7050  151.1120 O   0  0  0  0  0  1  0  0  0  0  0  0
  161.2300  206.5790  151.5690 C   0  0  0  0  0  0  0  0  0  0  0  0
  160.5970  205.4320  151.0720 C   0  0  0  0  0  3  0  0  0  0  0  0
  161.5380  207.3550  149.2730 C   0  0  0  0  0  0  0  0  0  0  0  0
  160.4270  205.2460  149.7010 C   0  0  0  0  0  3  0  0  0  0  0  0
  160.8900  206.2070  148.7920 C   0  0  0  0  0  0  0  0  0  0  0  0
  161.3870  206.7220  153.0360 C   0  0  0  0  0  0  0  0  0  0  0  0
  161.9550  205.8290  153.7190 O   0  0  0  0  0  0  0  0  0  0  0  0
  160.8890  207.8810  153.7000 N   0  0  0  0  0  1  0  0  0  0  0  0
  162.0480  208.3770  148.3070 C   0  0  0  0  0  2  0  0  0  0  0  0
  161.3010  209.5520  148.4200 O   0  0  0  0  0  0  0  0  0  0  0  0
  161.5630  211.8040  147.8680 N   0  0  0  0  0  0  0  0  0  0  0  0
  161.9560  211.6250  149.2720 C   0  0  0  0  0  2  0  0  0  0  0  0
  162.2420  210.5750  148.3010 C   0  0  1  0  0  3  0  0  0  0  0  0
  162.5100  212.5860  147.2970 O   0  0  0  0  0  1  0  0  0  0  0  0
  1 25  1  0  0  0  0
  2 11  1  6  0  0  0
  2  6  1  0  0  0  0
  3  9  1  0  0  0  0
  4  5  1  0  0  0  0
  5  2  1  0  0  0  0
  5  1  1  1  0  0  0
  7  4  2  0  0  0  0
  9 12  1  6  0  0  0
  9  6  1  0  0  0  0
 10  8  1  6  0  0  0
 10  4  1  0  0  0  0
 10  3  1  0  0  0  0
 12 13  2  0  0  0  0
 14 12  1  0  0  0  0
 15 14  1  0  0  0  0
 16 17  1  0  0  0  0
 16 18  1  0  0  0  0
 17 18  1  0  0  0  0
 18 14  1  6  0  0  0
 19 20  1  0  0  0  0
 19 21  1  0  0  0  0
 21 26  1  0  0  0  0
 22 21  2  0  0  0  0
 23 19  2  0  0  0  0
 24 22  1  0  0  0  0
 25 23  1  0  0  0  0
 25 24  2  0  0  0  0
 26 28  1  0  0  0  0
 26 27  2  0  0  0  0
 29 30  1  0  0  0  0
 29 23  1  0  0  0  0
 31 33  1  0  0  0  0
 31 32  1  0  0  0  0
 33 30  1  1  0  0  0
 33 32  1  0  0  0  0
 34 31  1  0  0  0  0
M  END
>  <MODEL>
9

>  <REMARK>
 VINA RESULT:      -5.5      1.407      2.022
  Name = 
  9 active torsions:
  status: ('A' for Active; 'I' for Inactive)
    1  A    between atoms: O_1  and  C_9
    2  A    between atoms: O_1  and  C_34
    3  A    between atoms: C_3  and  C_25
    4  A    between atoms: C_5  and  O_22
    5  A    between atoms: C_5  and  C_32
    6  A    between atoms: N_11  and  C_21
    7  A    between atoms: N_11  and  C_26
    8  A    between atoms: C_19  and  O_22
    9  A    between atoms: C_26  and  C_28
                            x       y       z     vdW  Elec       q    Type
                         _______ _______ _______ _____ _____    ______ ____

>  <TORSDO>
F 9

$$$$
