=
 OpenBabel11052422283D

 31 34  0  0  1  0  0  0  0  0999 V2000
  162.1320  206.2510  148.7950 C   0  0  1  0  0  3  0  0  0  0  0  0
  161.4970  205.8980  150.1550 C   0  0  1  0  0  3  0  0  0  0  0  0
  161.1180  204.4300  150.2460 C   0  0  0  0  0  0  0  0  0  0  0  0
  161.2490  202.5740  148.6220 C   0  0  0  0  0  3  0  0  0  0  0  0
  160.4820  203.7760  149.0580 C   0  0  0  0  0  2  0  0  0  0  0  0
  161.5050  204.5600  152.5810 O   0  0  0  0  0  0  0  0  0  0  0  0
  161.4040  201.5020  149.3940 C   0  0  0  0  0  3  0  0  0  0  0  0
  162.3620  206.3080  151.2640 N   0  0  0  0  0  2  0  0  0  0  0  0
  160.9240  201.3930  150.7840 C   0  0  0  0  0  3  0  0  0  0  0  0
  161.6930  205.9710  152.5140 C   0  0  0  0  0  2  0  0  0  0  0  0
  161.1410  203.8210  151.4500 C   0  0  0  0  0  0  0  0  0  0  0  0
  160.8040  202.3960  151.6640 C   0  0  0  0  0  3  0  0  0  0  0  0
  161.6490  205.9300  145.2300 N   0  0  0  0  0  0  0  0  0  0  0  0
  160.3640  206.3970  145.7300 C   0  0  0  0  0  2  0  0  0  0  0  0
  161.3790  204.7950  144.3650 C   0  0  0  0  0  1  0  0  0  0  0  0
  162.3260  205.4200  146.3980 C   0  0  0  0  0  2  0  0  0  0  0  0
  161.4060  205.7020  147.5600 C   0  0  2  0  0  3  0  0  0  0  0  0
  160.4420  206.6100  147.1160 O   0  0  0  0  0  0  0  0  0  0  0  0
  162.6330  207.6920  148.6380 C   0  0  0  0  0  2  0  0  0  0  0  0
  161.5970  208.7340  149.0490 C   0  0  0  0  0  2  0  0  0  0  0  0
  162.0990  209.6130  150.1920 C   0  0  1  0  0  3  0  0  0  0  0  0
  162.0710  210.9550  148.4310 C   0  0  0  0  0  1  0  0  0  0  0  0
  162.0530  210.9610  149.8270 O   0  0  0  0  0  0  0  0  0  0  0  0
  161.2910  209.3920  151.4660 C   0  0  0  0  0  2  0  0  0  0  0  0
  161.2480  209.7120  154.4680 C   0  0  2  0  0  3  0  0  0  0  0  0
  159.9890  210.5320  154.5260 C   0  0  2  0  0  3  0  0  0  0  0  0
  161.9060  209.6930  155.7000 O   0  0  0  0  0  1  0  0  0  0  0  0
  162.1070  210.2900  153.4500 N   0  0  0  0  0  2  0  0  0  0  0  0
  159.6540  210.9330  152.8040 S   0  0  0  0  0  0  0  0  0  0  0  0
  161.3260  210.5820  152.3100 N   0  0  0  0  0  0  0  0  0  0  0  0
  160.2080  211.7680  155.2620 N   0  0  0  0  0  1  0  0  0  0  0  0
  1 19  1  6  0  0  0
  2  1  1  6  0  0  0
  2  3  1  0  0  0  0
  2  8  1  0  0  0  0
  3 11  2  0  0  0  0
  4  5  1  0  0  0  0
  4  7  2  0  0  0  0
  5  3  1  0  0  0  0
  7  9  1  0  0  0  0
  8 10  1  0  0  0  0
  9 12  2  0  0  0  0
 10  6  1  0  0  0  0
 11 12  1  0  0  0  0
 11  6  1  0  0  0  0
 13 14  1  0  0  0  0
 13 16  1  0  0  0  0
 14 18  1  0  0  0  0
 15 13  1  0  0  0  0
 16 17  1  0  0  0  0
 17  1  1  1  0  0  0
 18 17  1  0  0  0  0
 19 20  1  0  0  0  0
 21 20  1  6  0  0  0
 21 24  1  0  0  0  0
 22 23  1  0  0  0  0
 23 21  1  0  0  0  0
 24 30  1  0  0  0  0
 25 26  1  0  0  0  0
 25 27  1  1  0  0  0
 26 31  1  1  0  0  0
 28 25  1  0  0  0  0
 29 26  1  0  0  0  0
 30 29  1  0  0  0  0
 30 28  1  0  0  0  0
M  END
>  <MODEL>
1

>  <REMARK>
 VINA RESULT:      -7.6      0.000      0.000
  Name = 
  8 active torsions:
  status: ('A' for Active; 'I' for Inactive)
    1  A    between atoms: C_3  and  C_9
    2  A    between atoms: C_3  and  N_22
    3  A    between atoms: C_4  and  C_12
    4  A    between atoms: C_9  and  C_15
    5  A    between atoms: C_9  and  O_23
    6  A    between atoms: C_12  and  C_20
    7  A    between atoms: C_12  and  C_27
    8  A    between atoms: C_15  and  C_20
                            x       y       z     vdW  Elec       q    Type
                         _______ _______ _______ _____ _____    ______ ____

>  <TORSDO>
F 8

$$$$
=
 OpenBabel11052422283D

 31 34  0  0  1  0  0  0  0  0999 V2000
  159.8920  211.4080  153.7780 C   0  0  1  0  0  3  0  0  0  0  0  0
  158.7750  212.4700  153.7910 C   0  0  1  0  0  3  0  0  0  0  0  0
  158.6920  213.2310  152.4800 C   0  0  0  0  0  0  0  0  0  0  0  0
  160.0450  213.1390  150.4160 C   0  0  0  0  0  3  0  0  0  0  0  0
  159.9650  213.6540  151.8120 C   0  0  0  0  0  2  0  0  0  0  0  0
  156.3700  213.4960  152.8750 O   0  0  0  0  0  0  0  0  0  0  0  0
  159.1820  213.4950  149.4680 C   0  0  0  0  0  3  0  0  0  0  0  0
  157.4860  211.8760  154.1600 N   0  0  0  0  0  2  0  0  0  0  0  0
  158.0060  214.3570  149.6850 C   0  0  0  0  0  3  0  0  0  0  0  0
  156.4840  212.9340  154.1790 C   0  0  0  0  0  2  0  0  0  0  0  0
  157.4970  213.7080  152.0730 C   0  0  0  0  0  0  0  0  0  0  0  0
  157.2890  214.4530  150.8120 C   0  0  0  0  0  3  0  0  0  0  0  0
  162.1850  209.6330  155.9320 N   0  0  0  0  0  0  0  0  0  0  0  0
  160.8690  209.1550  156.3300 C   0  0  0  0  0  2  0  0  0  0  0  0
  162.8870  210.0020  157.1490 C   0  0  0  0  0  1  0  0  0  0  0  0
  161.9210  210.8560  155.2100 C   0  0  0  0  0  2  0  0  0  0  0  0
  160.4190  210.9800  155.1540 C   0  0  2  0  0  3  0  0  0  0  0  0
  159.8850  209.7420  155.5190 O   0  0  0  0  0  0  0  0  0  0  0  0
  159.7100  210.2500  152.7900 C   0  0  0  0  0  2  0  0  0  0  0  0
  160.9770  209.9280  152.0030 C   0  0  0  0  0  2  0  0  0  0  0  0
  161.5710  208.5820  152.4110 C   0  0  1  0  0  3  0  0  0  0  0  0
  161.3220  206.7290  153.5980 C   0  0  0  0  0  1  0  0  0  0  0  0
  160.6090  207.7990  153.0540 O   0  0  0  0  0  0  0  0  0  0  0  0
  162.1360  207.8310  151.2090 C   0  0  0  0  0  2  0  0  0  0  0  0
  161.5050  205.6980  149.1680 C   0  0  2  0  0  3  0  0  0  0  0  0
  161.8130  206.5360  147.9570 C   0  0  2  0  0  3  0  0  0  0  0  0
  160.8750  204.5010  148.8180 O   0  0  0  0  0  1  0  0  0  0  0  0
  160.6470  206.4800  150.0410 N   0  0  0  0  0  2  0  0  0  0  0  0
  162.0220  208.1950  148.6210 S   0  0  0  0  0  0  0  0  0  0  0  0
  161.1600  207.7920  150.1240 N   0  0  0  0  0  0  0  0  0  0  0  0
  160.6930  206.5380  147.0300 N   0  0  0  0  0  1  0  0  0  0  0  0
  1 19  1  1  0  0  0
  2  1  1  6  0  0  0
  2  8  1  0  0  0  0
  3  2  1  0  0  0  0
  4  5  1  0  0  0  0
  5  3  1  0  0  0  0
  6 10  1  0  0  0  0
  7  9  1  0  0  0  0
  7  4  2  0  0  0  0
  8 10  1  0  0  0  0
  9 12  2  0  0  0  0
 11  3  2  0  0  0  0
 11  6  1  0  0  0  0
 12 11  1  0  0  0  0
 13 14  1  0  0  0  0
 13 15  1  0  0  0  0
 16 13  1  0  0  0  0
 17  1  1  6  0  0  0
 17 16  1  0  0  0  0
 17 18  1  0  0  0  0
 18 14  1  0  0  0  0
 20 21  1  0  0  0  0
 20 19  1  0  0  0  0
 21 24  1  6  0  0  0
 21 23  1  0  0  0  0
 23 22  1  0  0  0  0
 25 27  1  6  0  0  0
 25 28  1  0  0  0  0
 26 31  1  6  0  0  0
 26 29  1  0  0  0  0
 26 25  1  0  0  0  0
 28 30  1  0  0  0  0
 29 30  1  0  0  0  0
 30 24  1  0  0  0  0
M  END
>  <MODEL>
2

>  <REMARK>
 VINA RESULT:      -7.4      3.277      8.907
  Name = 
  8 active torsions:
  status: ('A' for Active; 'I' for Inactive)
    1  A    between atoms: C_3  and  C_9
    2  A    between atoms: C_3  and  N_22
    3  A    between atoms: C_4  and  C_12
    4  A    between atoms: C_9  and  C_15
    5  A    between atoms: C_9  and  O_23
    6  A    between atoms: C_12  and  C_20
    7  A    between atoms: C_12  and  C_27
    8  A    between atoms: C_15  and  C_20
                            x       y       z     vdW  Elec       q    Type
                         _______ _______ _______ _____ _____    ______ ____

>  <TORSDO>
F 8

$$$$
=
 OpenBabel11052422283D

 31 34  0  0  1  0  0  0  0  0999 V2000
  161.6570  206.8770  152.0040 C   0  0  1  0  0  3  0  0  0  0  0  0
  160.9580  205.5710  151.5780 C   0  0  1  0  0  3  0  0  0  0  0  0
  161.0250  205.3480  150.0770 C   0  0  0  0  0  0  0  0  0  0  0  0
  161.9480  206.7080  148.2340 C   0  0  0  0  0  3  0  0  0  0  0  0
  160.8010  206.5160  149.1660 C   0  0  0  0  0  2  0  0  0  0  0  0
  160.9990  203.0170  150.5050 O   0  0  0  0  0  0  0  0  0  0  0  0
  162.2980  205.7990  147.3280 C   0  0  0  0  0  3  0  0  0  0  0  0
  161.4830  204.4230  152.3240 N   0  0  0  0  0  2  0  0  0  0  0  0
  161.6690  204.4730  147.1840 C   0  0  0  0  0  3  0  0  0  0  0  0
  160.7650  203.2310  151.8940 C   0  0  0  0  0  2  0  0  0  0  0  0
  161.0470  204.0850  149.6020 C   0  0  0  0  0  0  0  0  0  0  0  0
  161.1220  203.7430  148.1650 C   0  0  0  0  0  3  0  0  0  0  0  0
  162.0350  210.3370  151.0360 N   0  0  0  0  0  0  0  0  0  0  0  0
  160.7070  210.2680  151.6310 C   0  0  0  0  0  2  0  0  0  0  0  0
  161.8940  211.0310  149.7680 C   0  0  0  0  0  1  0  0  0  0  0  0
  162.3630  208.9640  150.7320 C   0  0  0  0  0  2  0  0  0  0  0  0
  161.2130  208.1420  151.2580 C   0  0  2  0  0  3  0  0  0  0  0  0
  160.4620  208.9680  152.0970 O   0  0  0  0  0  0  0  0  0  0  0  0
  161.8530  207.0760  153.5120 C   0  0  0  0  0  2  0  0  0  0  0  0
  160.7130  206.4990  154.3460 C   0  0  0  0  0  2  0  0  0  0  0  0
  160.0530  207.5650  155.2180 C   0  0  1  0  0  3  0  0  0  0  0  0
  160.6610  206.8650  157.2290 C   0  0  0  0  0  1  0  0  0  0  0  0
  159.5530  206.9930  156.3910 O   0  0  0  0  0  0  0  0  0  0  0  0
  161.0250  208.6890  155.5610 C   0  0  0  0  0  2  0  0  0  0  0  0
  159.4210  211.0970  154.6990 C   0  0  2  0  0  3  0  0  0  0  0  0
  160.3050  212.1230  155.3530 C   0  0  2  0  0  3  0  0  0  0  0  0
  158.2240  211.6610  154.2500 O   0  0  0  0  0  1  0  0  0  0  0  0
  159.1500  210.0580  155.6780 N   0  0  0  0  0  2  0  0  0  0  0  0
  161.4290  211.1460  156.3620 S   0  0  0  0  0  0  0  0  0  0  0  0
  160.3550  209.7290  156.3350 N   0  0  0  0  0  0  0  0  0  0  0  0
  159.5310  212.9960  156.2220 N   0  0  0  0  0  1  0  0  0  0  0  0
  1 19  1  1  0  0  0
  2  1  1  6  0  0  0
  2  8  1  0  0  0  0
  3  2  1  0  0  0  0
  4  5  1  0  0  0  0
  5  3  1  0  0  0  0
  6 10  1  0  0  0  0
  7  4  2  0  0  0  0
  9  7  1  0  0  0  0
  9 12  2  0  0  0  0
 10  8  1  0  0  0  0
 11  3  2  0  0  0  0
 11  6  1  0  0  0  0
 12 11  1  0  0  0  0
 13 14  1  0  0  0  0
 14 18  1  0  0  0  0
 15 13  1  0  0  0  0
 16 13  1  0  0  0  0
 16 17  1  0  0  0  0
 17  1  1  1  0  0  0
 17 18  1  0  0  0  0
 19 20  1  0  0  0  0
 21 20  1  1  0  0  0
 21 24  1  0  0  0  0
 21 23  1  0  0  0  0
 23 22  1  0  0  0  0
 24 30  1  0  0  0  0
 25 27  1  1  0  0  0
 25 26  1  0  0  0  0
 25 28  1  0  0  0  0
 26 31  1  1  0  0  0
 26 29  1  0  0  0  0
 28 30  1  0  0  0  0
 30 29  1  0  0  0  0
M  END
>  <MODEL>
3

>  <REMARK>
 VINA RESULT:      -7.4      2.460      4.843
  Name = 
  8 active torsions:
  status: ('A' for Active; 'I' for Inactive)
    1  A    between atoms: C_3  and  C_9
    2  A    between atoms: C_3  and  N_22
    3  A    between atoms: C_4  and  C_12
    4  A    between atoms: C_9  and  C_15
    5  A    between atoms: C_9  and  O_23
    6  A    between atoms: C_12  and  C_20
    7  A    between atoms: C_12  and  C_27
    8  A    between atoms: C_15  and  C_20
                            x       y       z     vdW  Elec       q    Type
                         _______ _______ _______ _____ _____    ______ ____

>  <TORSDO>
F 8

$$$$
=
 OpenBabel11052422283D

 31 34  0  0  1  0  0  0  0  0999 V2000
  162.0120  208.9070  150.7030 C   0  0  1  0  0  3  0  0  0  0  0  0
  161.9500  207.6420  149.8240 C   0  0  1  0  0  3  0  0  0  0  0  0
  161.8170  206.3760  150.6510 C   0  0  0  0  0  0  0  0  0  0  0  0
  161.7740  205.9790  153.0890 C   0  0  0  0  0  3  0  0  0  0  0  0
  162.6340  206.2430  151.9000 C   0  0  0  0  0  2  0  0  0  0  0  0
  160.6290  205.4150  148.8390 O   0  0  0  0  0  0  0  0  0  0  0  0
  161.0300  204.8820  153.2060 C   0  0  0  0  0  3  0  0  0  0  0  0
  160.8900  207.7500  148.8170 N   0  0  0  0  0  2  0  0  0  0  0  0
  160.8900  203.8470  152.1660 C   0  0  0  0  0  3  0  0  0  0  0  0
  160.9030  206.5380  148.0080 C   0  0  0  0  0  2  0  0  0  0  0  0
  161.1600  205.3180  150.1300 C   0  0  0  0  0  0  0  0  0  0  0  0
  160.9570  204.0370  150.8420 C   0  0  0  0  0  3  0  0  0  0  0  0
  161.1060  211.9260  148.9380 N   0  0  0  0  0  0  0  0  0  0  0  0
  162.0010  211.2270  148.0270 C   0  0  0  0  0  2  0  0  0  0  0  0
  161.5730  213.2990  149.0200 C   0  0  0  0  0  1  0  0  0  0  0  0
  161.3550  211.3180  150.2240 C   0  0  0  0  0  2  0  0  0  0  0  0
  162.3470  210.2110  149.9670 C   0  0  2  0  0  3  0  0  0  0  0  0
  162.3860  209.9990  148.5870 O   0  0  0  0  0  0  0  0  0  0  0  0
  160.9100  209.0500  151.7590 C   0  0  0  0  0  2  0  0  0  0  0  0
  161.4360  209.5000  153.1180 C   0  0  0  0  0  2  0  0  0  0  0  0
  160.3200  210.0450  154.0070 C   0  0  1  0  0  3  0  0  0  0  0  0
  161.5690  210.6140  155.7450 C   0  0  0  0  0  1  0  0  0  0  0  0
  160.5650  209.7300  155.3450 O   0  0  0  0  0  0  0  0  0  0  0  0
  160.1650  211.5540  153.8470 C   0  0  0  0  0  2  0  0  0  0  0  0
  158.7480  213.2370  151.7790 C   0  0  2  0  0  3  0  0  0  0  0  0
  158.2040  214.2550  152.7430 C   0  0  2  0  0  3  0  0  0  0  0  0
  158.1830  213.3780  150.5090 O   0  0  0  0  0  1  0  0  0  0  0  0
  158.4550  211.9190  152.3140 N   0  0  0  0  0  2  0  0  0  0  0  0
  158.5490  213.5470  154.3610 S   0  0  0  0  0  0  0  0  0  0  0  0
  158.7580  211.9110  153.6930 N   0  0  0  0  0  0  0  0  0  0  0  0
  156.7650  214.3970  152.5900 N   0  0  0  0  0  1  0  0  0  0  0  0
  1 19  1  6  0  0  0
  2  3  1  0  0  0  0
  2  1  1  1  0  0  0
  3  5  1  0  0  0  0
  4  7  2  0  0  0  0
  5  4  1  0  0  0  0
  6 11  1  0  0  0  0
  8  2  1  0  0  0  0
  9  7  1  0  0  0  0
 10  8  1  0  0  0  0
 10  6  1  0  0  0  0
 11  3  2  0  0  0  0
 11 12  1  0  0  0  0
 12  9  2  0  0  0  0
 13 15  1  0  0  0  0
 13 16  1  0  0  0  0
 14 18  1  0  0  0  0
 14 13  1  0  0  0  0
 17 16  1  0  0  0  0
 17  1  1  1  0  0  0
 18 17  1  0  0  0  0
 19 20  1  0  0  0  0
 21 20  1  6  0  0  0
 21 23  1  0  0  0  0
 23 22  1  0  0  0  0
 24 21  1  0  0  0  0
 25 27  1  6  0  0  0
 25 28  1  0  0  0  0
 25 26  1  0  0  0  0
 26 31  1  6  0  0  0
 26 29  1  0  0  0  0
 28 30  1  0  0  0  0
 30 24  1  0  0  0  0
 30 29  1  0  0  0  0
M  END
>  <MODEL>
4

>  <REMARK>
 VINA RESULT:      -7.4      2.329      4.890
  Name = 
  8 active torsions:
  status: ('A' for Active; 'I' for Inactive)
    1  A    between atoms: C_3  and  C_9
    2  A    between atoms: C_3  and  N_22
    3  A    between atoms: C_4  and  C_12
    4  A    between atoms: C_9  and  C_15
    5  A    between atoms: C_9  and  O_23
    6  A    between atoms: C_12  and  C_20
    7  A    between atoms: C_12  and  C_27
    8  A    between atoms: C_15  and  C_20
                            x       y       z     vdW  Elec       q    Type
                         _______ _______ _______ _____ _____    ______ ____

>  <TORSDO>
F 8

$$$$
=
 OpenBabel11052422283D

 31 34  0  0  1  0  0  0  0  0999 V2000
  161.2590  207.3050  152.0180 C   0  0  1  0  0  3  0  0  0  0  0  0
  160.8300  205.8720  151.6440 C   0  0  1  0  0  3  0  0  0  0  0  0
  160.8880  205.6290  150.1460 C   0  0  0  0  0  0  0  0  0  0  0  0
  161.4440  207.1010  148.2430 C   0  0  0  0  0  3  0  0  0  0  0  0
  160.3960  206.7020  149.2240 C   0  0  0  0  0  2  0  0  0  0  0  0
  161.3590  203.3540  150.6170 O   0  0  0  0  0  0  0  0  0  0  0  0
  161.9410  206.2590  147.3400 C   0  0  0  0  0  3  0  0  0  0  0  0
  161.6080  204.8770  152.3890 N   0  0  0  0  0  2  0  0  0  0  0  0
  161.5940  204.8300  147.2460 C   0  0  0  0  0  3  0  0  0  0  0  0
  161.1360  203.5510  152.0090 C   0  0  0  0  0  2  0  0  0  0  0  0
  161.1530  204.3850  149.6940 C   0  0  0  0  0  0  0  0  0  0  0  0
  161.2460  204.0280  148.2610 C   0  0  0  0  0  3  0  0  0  0  0  0
  160.0260  207.7490  155.3830 N   0  0  0  0  0  0  0  0  0  0  0  0
  160.7840  208.9620  155.1110 C   0  0  0  0  0  2  0  0  0  0  0  0
  160.4720  207.2550  156.6750 C   0  0  0  0  0  1  0  0  0  0  0  0
  160.4850  206.8080  154.3900 C   0  0  0  0  0  2  0  0  0  0  0  0
  161.4490  207.5720  153.5160 C   0  0  2  0  0  3  0  0  0  0  0  0
  161.2770  208.9300  153.7970 O   0  0  0  0  0  0  0  0  0  0  0  0
  162.3350  207.9400  151.1280 C   0  0  0  0  0  2  0  0  0  0  0  0
  162.5310  209.4300  151.3960 C   0  0  0  0  0  2  0  0  0  0  0  0
  161.5210  210.2810  150.6300 C   0  0  1  0  0  3  0  0  0  0  0  0
  160.0310  211.1330  152.0280 C   0  0  0  0  0  1  0  0  0  0  0  0
  161.2130  211.4380  151.3500 O   0  0  0  0  0  0  0  0  0  0  0  0
  162.0400  210.6540  149.2440 C   0  0  0  0  0  2  0  0  0  0  0  0
  160.8140  212.1970  146.9570 C   0  0  2  0  0  3  0  0  0  0  0  0
  162.0640  212.9400  146.5740 C   0  0  2  0  0  3  0  0  0  0  0  0
  159.6910  212.7080  146.3020 O   0  0  0  0  0  1  0  0  0  0  0  0
  160.6510  212.3150  148.3960 N   0  0  0  0  0  2  0  0  0  0  0  0
  163.2100  212.5780  147.9130 S   0  0  0  0  0  0  0  0  0  0  0  0
  161.9010  212.0880  149.0130 N   0  0  0  0  0  0  0  0  0  0  0  0
  161.8240  214.3740  146.5360 N   0  0  0  0  0  1  0  0  0  0  0  0
  1 19  1  6  0  0  0
  2  1  1  6  0  0  0
  2  8  1  0  0  0  0
  3  2  1  0  0  0  0
  4  5  1  0  0  0  0
  5  3  1  0  0  0  0
  6 10  1  0  0  0  0
  7  4  2  0  0  0  0
  9  7  1  0  0  0  0
  9 12  2  0  0  0  0
 10  8  1  0  0  0  0
 11  3  2  0  0  0  0
 11  6  1  0  0  0  0
 12 11  1  0  0  0  0
 13 15  1  0  0  0  0
 14 13  1  0  0  0  0
 16 13  1  0  0  0  0
 17  1  1  6  0  0  0
 17 18  1  0  0  0  0
 17 16  1  0  0  0  0
 18 14  1  0  0  0  0
 19 20  1  0  0  0  0
 21 24  1  6  0  0  0
 21 23  1  0  0  0  0
 21 20  1  0  0  0  0
 23 22  1  0  0  0  0
 25 27  1  6  0  0  0
 25 28  1  0  0  0  0
 26 31  1  1  0  0  0
 26 25  1  0  0  0  0
 26 29  1  0  0  0  0
 28 30  1  0  0  0  0
 29 30  1  0  0  0  0
 30 24  1  0  0  0  0
M  END
>  <MODEL>
5

>  <REMARK>
 VINA RESULT:      -7.3      2.725      5.963
  Name = 
  8 active torsions:
  status: ('A' for Active; 'I' for Inactive)
    1  A    between atoms: C_3  and  C_9
    2  A    between atoms: C_3  and  N_22
    3  A    between atoms: C_4  and  C_12
    4  A    between atoms: C_9  and  C_15
    5  A    between atoms: C_9  and  O_23
    6  A    between atoms: C_12  and  C_20
    7  A    between atoms: C_12  and  C_27
    8  A    between atoms: C_15  and  C_20
                            x       y       z     vdW  Elec       q    Type
                         _______ _______ _______ _____ _____    ______ ____

>  <TORSDO>
F 8

$$$$
=
 OpenBabel11052422283D

 31 34  0  0  1  0  0  0  0  0999 V2000
  161.8590  206.0600  148.7730 C   0  0  1  0  0  3  0  0  0  0  0  0
  161.2310  205.4770  150.0550 C   0  0  1  0  0  3  0  0  0  0  0  0
  160.9680  203.9860  149.9380 C   0  0  0  0  0  0  0  0  0  0  0  0
  161.2730  202.3850  148.0820 C   0  0  0  0  0  3  0  0  0  0  0  0
  160.4060  203.4540  148.6550 C   0  0  0  0  0  2  0  0  0  0  0  0
  161.3050  203.8260  152.2780 O   0  0  0  0  0  0  0  0  0  0  0  0
  161.4990  201.2320  148.7070 C   0  0  0  0  0  3  0  0  0  0  0  0
  162.0430  205.7970  151.2330 N   0  0  0  0  0  2  0  0  0  0  0  0
  161.0070  200.8980  150.0560 C   0  0  0  0  0  3  0  0  0  0  0  0
  161.3820  205.2420  152.4070 C   0  0  0  0  0  2  0  0  0  0  0  0
  161.0200  203.2220  151.0490 C   0  0  0  0  0  0  0  0  0  0  0  0
  160.7930  201.7600  151.0590 C   0  0  0  0  0  3  0  0  0  0  0  0
  161.6180  206.0050  145.1700 N   0  0  0  0  0  0  0  0  0  0  0  0
  160.2740  206.3400  145.6190 C   0  0  0  0  0  2  0  0  0  0  0  0
  161.4850  204.9300  144.2020 C   0  0  0  0  0  1  0  0  0  0  0  0
  162.2590  205.4470  146.3370 C   0  0  0  0  0  2  0  0  0  0  0  0
  161.2520  205.5680  147.4530 C   0  0  2  0  0  3  0  0  0  0  0  0
  160.2520  206.4410  147.0180 O   0  0  0  0  0  0  0  0  0  0  0  0
  162.1720  207.5610  148.7970 C   0  0  0  0  0  2  0  0  0  0  0  0
  161.9920  208.1880  150.1770 C   0  0  0  0  0  2  0  0  0  0  0  0
  161.7060  209.6860  150.0850 C   0  0  1  0  0  3  0  0  0  0  0  0
  161.9340  209.6070  152.2860 C   0  0  0  0  0  1  0  0  0  0  0  0
  162.2850  210.3590  151.1630 O   0  0  0  0  0  0  0  0  0  0  0  0
  162.2120  210.2730  148.7720 C   0  0  0  0  0  2  0  0  0  0  0  0
  160.8310  212.3300  147.0450 C   0  0  2  0  0  3  0  0  0  0  0  0
  162.0840  213.0240  146.5870 C   0  0  2  0  0  3  0  0  0  0  0  0
  159.6870  213.0520  146.6980 O   0  0  0  0  0  1  0  0  0  0  0  0
  160.9110  212.1800  148.4880 N   0  0  0  0  0  2  0  0  0  0  0  0
  163.3760  212.3130  147.6180 S   0  0  0  0  0  0  0  0  0  0  0  0
  162.2070  211.7320  148.8260 N   0  0  0  0  0  0  0  0  0  0  0  0
  162.0100  214.4530  146.8460 N   0  0  0  0  0  1  0  0  0  0  0  0
  1 19  1  1  0  0  0
  2  1  1  6  0  0  0
  2  8  1  0  0  0  0
  3  2  1  0  0  0  0
  3 11  2  0  0  0  0
  4  5  1  0  0  0  0
  4  7  2  0  0  0  0
  5  3  1  0  0  0  0
  6 10  1  0  0  0  0
  7  9  1  0  0  0  0
  8 10  1  0  0  0  0
  9 12  2  0  0  0  0
 11 12  1  0  0  0  0
 11  6  1  0  0  0  0
 13 14  1  0  0  0  0
 13 16  1  0  0  0  0
 14 18  1  0  0  0  0
 15 13  1  0  0  0  0
 16 17  1  0  0  0  0
 17  1  1  1  0  0  0
 18 17  1  0  0  0  0
 19 20  1  0  0  0  0
 21 24  1  6  0  0  0
 21 20  1  0  0  0  0
 21 23  1  0  0  0  0
 23 22  1  0  0  0  0
 24 30  1  0  0  0  0
 25 27  1  1  0  0  0
 25 28  1  0  0  0  0
 26 31  1  1  0  0  0
 26 25  1  0  0  0  0
 26 29  1  0  0  0  0
 28 30  1  0  0  0  0
 29 30  1  0  0  0  0
M  END
>  <MODEL>
6

>  <REMARK>
 VINA RESULT:      -7.3      2.364      3.753
  Name = 
  8 active torsions:
  status: ('A' for Active; 'I' for Inactive)
    1  A    between atoms: C_3  and  C_9
    2  A    between atoms: C_3  and  N_22
    3  A    between atoms: C_4  and  C_12
    4  A    between atoms: C_9  and  C_15
    5  A    between atoms: C_9  and  O_23
    6  A    between atoms: C_12  and  C_20
    7  A    between atoms: C_12  and  C_27
    8  A    between atoms: C_15  and  C_20
                            x       y       z     vdW  Elec       q    Type
                         _______ _______ _______ _____ _____    ______ ____

>  <TORSDO>
F 8

$$$$
=
 OpenBabel11052422283D

 31 34  0  0  1  0  0  0  0  0999 V2000
  160.9710  208.7720  151.7250 C   0  0  1  0  0  3  0  0  0  0  0  0
  161.2830  209.0190  153.2140 C   0  0  1  0  0  3  0  0  0  0  0  0
  160.3780  210.0760  153.8210 C   0  0  0  0  0  0  0  0  0  0  0  0
  158.6040  211.5000  152.8570 C   0  0  0  0  0  3  0  0  0  0  0  0
  160.0730  211.3070  153.0220 C   0  0  0  0  0  2  0  0  0  0  0  0
  160.5940  208.9530  155.8970 O   0  0  0  0  0  0  0  0  0  0  0  0
  157.7880  211.7090  153.8870 C   0  0  0  0  0  3  0  0  0  0  0  0
  161.2450  207.7670  153.9760 N   0  0  0  0  0  2  0  0  0  0  0  0
  158.2000  211.6930  155.3020 C   0  0  0  0  0  3  0  0  0  0  0  0
  161.5730  208.0660  155.3640 C   0  0  0  0  0  2  0  0  0  0  0  0
  160.0670  210.0000  155.1320 C   0  0  0  0  0  0  0  0  0  0  0  0
  159.1890  210.9620  155.8330 C   0  0  0  0  0  3  0  0  0  0  0  0
  161.7850  210.8480  148.8840 N   0  0  0  0  0  0  0  0  0  0  0  0
  162.3320  209.5410  148.5470 C   0  0  0  0  0  2  0  0  0  0  0  0
  162.8350  211.8200  148.6370 C   0  0  0  0  0  1  0  0  0  0  0  0
  161.5850  210.7970  150.3120 C   0  0  0  0  0  2  0  0  0  0  0  0
  161.9560  209.3950  150.7280 C   0  0  2  0  0  3  0  0  0  0  0  0
  162.0300  208.6230  149.5660 O   0  0  0  0  0  0  0  0  0  0  0  0
  160.5200  207.3530  151.3560 C   0  0  0  0  0  2  0  0  0  0  0  0
  161.6670  206.3460  151.3400 C   0  0  0  0  0  2  0  0  0  0  0  0
  161.3500  205.1410  150.4550 C   0  0  1  0  0  3  0  0  0  0  0  0
  161.2420  203.2680  151.6320 C   0  0  0  0  0  1  0  0  0  0  0  0
  160.4510  204.2870  151.0980 O   0  0  0  0  0  0  0  0  0  0  0  0
  160.7860  205.5710  149.1050 C   0  0  0  0  0  2  0  0  0  0  0  0
  160.5920  205.6090  146.0920 C   0  0  2  0  0  3  0  0  0  0  0  0
  161.2240  204.2620  145.8720 C   0  0  2  0  0  3  0  0  0  0  0  0
  160.4520  206.3130  144.8940 O   0  0  0  0  0  1  0  0  0  0  0  0
  161.4370  206.3500  147.0130 N   0  0  0  0  0  2  0  0  0  0  0  0
  161.8600  203.8120  147.4940 S   0  0  0  0  0  0  0  0  0  0  0  0
  161.8130  205.4940  148.0720 N   0  0  0  0  0  0  0  0  0  0  0  0
  162.3370  204.3580  144.9400 N   0  0  0  0  0  1  0  0  0  0  0  0
  1 19  1  1  0  0  0
  2  1  1  6  0  0  0
  2  3  1  0  0  0  0
  2  8  1  0  0  0  0
  3 11  2  0  0  0  0
  4  5  1  0  0  0  0
  4  7  2  0  0  0  0
  5  3  1  0  0  0  0
  7  9  1  0  0  0  0
  8 10  1  0  0  0  0
  9 12  2  0  0  0  0
 10  6  1  0  0  0  0
 11 12  1  0  0  0  0
 11  6  1  0  0  0  0
 13 16  1  0  0  0  0
 14 13  1  0  0  0  0
 14 18  1  0  0  0  0
 15 13  1  0  0  0  0
 16 17  1  0  0  0  0
 17  1  1  1  0  0  0
 18 17  1  0  0  0  0
 20 19  1  0  0  0  0
 21 24  1  6  0  0  0
 21 23  1  0  0  0  0
 21 20  1  0  0  0  0
 23 22  1  0  0  0  0
 25 27  1  6  0  0  0
 25 28  1  0  0  0  0
 26 31  1  6  0  0  0
 26 25  1  0  0  0  0
 26 29  1  0  0  0  0
 28 30  1  0  0  0  0
 29 30  1  0  0  0  0
 30 24  1  0  0  0  0
M  END
>  <MODEL>
7

>  <REMARK>
 VINA RESULT:      -7.2      2.543      7.636
  Name = 
  8 active torsions:
  status: ('A' for Active; 'I' for Inactive)
    1  A    between atoms: C_3  and  C_9
    2  A    between atoms: C_3  and  N_22
    3  A    between atoms: C_4  and  C_12
    4  A    between atoms: C_9  and  C_15
    5  A    between atoms: C_9  and  O_23
    6  A    between atoms: C_12  and  C_20
    7  A    between atoms: C_12  and  C_27
    8  A    between atoms: C_15  and  C_20
                            x       y       z     vdW  Elec       q    Type
                         _______ _______ _______ _____ _____    ______ ____

>  <TORSDO>
F 8

$$$$
=
 OpenBabel11052422283D

 31 34  0  0  1  0  0  0  0  0999 V2000
  162.0180  206.2160  148.7160 C   0  0  1  0  0  3  0  0  0  0  0  0
  161.8130  204.8340  149.3680 C   0  0  1  0  0  3  0  0  0  0  0  0
  161.7370  204.9200  150.8820 C   0  0  0  0  0  0  0  0  0  0  0  0
  161.9660  206.8120  152.4540 C   0  0  0  0  0  3  0  0  0  0  0  0
  162.6890  205.8270  151.6000 C   0  0  0  0  0  2  0  0  0  0  0  0
  160.3150  203.0250  150.8370 O   0  0  0  0  0  0  0  0  0  0  0  0
  161.2060  206.4480  153.4830 C   0  0  0  0  0  3  0  0  0  0  0  0
  160.6460  204.1510  148.8010 N   0  0  0  0  0  2  0  0  0  0  0  0
  160.9130  205.0530  153.8580 C   0  0  0  0  0  3  0  0  0  0  0  0
  160.5260  202.8460  149.4400 C   0  0  0  0  0  2  0  0  0  0  0  0
  160.9900  204.0190  151.5540 C   0  0  0  0  0  0  0  0  0  0  0  0
  160.8300  204.0070  153.0250 C   0  0  0  0  0  3  0  0  0  0  0  0
  161.3040  205.1260  145.3470 N   0  0  0  0  0  0  0  0  0  0  0  0
  162.7100  204.8030  145.5440 C   0  0  0  0  0  2  0  0  0  0  0  0
  161.2050  205.8280  144.0800 C   0  0  0  0  0  1  0  0  0  0  0  0
  161.0080  206.0850  146.3850 C   0  0  0  0  0  2  0  0  0  0  0  0
  162.2690  206.2060  147.2030 C   0  0  2  0  0  3  0  0  0  0  0  0
  163.0970  205.1370  146.8510 O   0  0  0  0  0  0  0  0  0  0  0  0
  161.0760  207.3300  149.1870 C   0  0  0  0  0  2  0  0  0  0  0  0
  161.5810  208.7280  148.8410 C   0  0  0  0  0  2  0  0  0  0  0  0
  162.1180  209.4580  150.0700 C   0  0  1  0  0  3  0  0  0  0  0  0
  161.9560  210.9630  148.4540 C   0  0  0  0  0  1  0  0  0  0  0  0
  162.4410  210.7790  149.7500 O   0  0  0  0  0  0  0  0  0  0  0  0
  161.1150  209.4310  151.2200 C   0  0  0  0  0  2  0  0  0  0  0  0
  160.9760  209.8690  154.2040 C   0  0  2  0  0  3  0  0  0  0  0  0
  159.7950  210.8000  154.1760 C   0  0  2  0  0  3  0  0  0  0  0  0
  161.5770  209.8390  155.4640 O   0  0  0  0  0  1  0  0  0  0  0  0
  161.9260  210.3290  153.2060 N   0  0  0  0  0  2  0  0  0  0  0  0
  159.5700  211.1620  152.4280 S   0  0  0  0  0  0  0  0  0  0  0  0
  161.2230  210.6450  152.0230 N   0  0  0  0  0  0  0  0  0  0  0  0
  160.0940  212.0380  154.8780 N   0  0  0  0  0  1  0  0  0  0  0  0
  1 19  1  6  0  0  0
  2  1  1  6  0  0  0
  2  3  1  0  0  0  0
  3 11  2  0  0  0  0
  3  5  1  0  0  0  0
  4  7  2  0  0  0  0
  5  4  1  0  0  0  0
  6 11  1  0  0  0  0
  7  9  1  0  0  0  0
  8  2  1  0  0  0  0
  8 10  1  0  0  0  0
 10  6  1  0  0  0  0
 11 12  1  0  0  0  0
 12  9  2  0  0  0  0
 13 14  1  0  0  0  0
 13 16  1  0  0  0  0
 14 18  1  0  0  0  0
 15 13  1  0  0  0  0
 16 17  1  0  0  0  0
 17  1  1  1  0  0  0
 18 17  1  0  0  0  0
 20 19  1  0  0  0  0
 21 20  1  6  0  0  0
 21 24  1  0  0  0  0
 22 23  1  0  0  0  0
 23 21  1  0  0  0  0
 24 30  1  0  0  0  0
 25 27  1  1  0  0  0
 26 25  1  0  0  0  0
 26 31  1  1  0  0  0
 28 25  1  0  0  0  0
 29 26  1  0  0  0  0
 30 29  1  0  0  0  0
 30 28  1  0  0  0  0
M  END
>  <MODEL>
8

>  <REMARK>
 VINA RESULT:      -7.1      1.319      2.465
  Name = 
  8 active torsions:
  status: ('A' for Active; 'I' for Inactive)
    1  A    between atoms: C_3  and  C_9
    2  A    between atoms: C_3  and  N_22
    3  A    between atoms: C_4  and  C_12
    4  A    between atoms: C_9  and  C_15
    5  A    between atoms: C_9  and  O_23
    6  A    between atoms: C_12  and  C_20
    7  A    between atoms: C_12  and  C_27
    8  A    between atoms: C_15  and  C_20
                            x       y       z     vdW  Elec       q    Type
                         _______ _______ _______ _____ _____    ______ ____

>  <TORSDO>
F 8

$$$$
=
 OpenBabel11052422283D

 31 34  0  0  1  0  0  0  0  0999 V2000
  161.5110  206.2500  148.6060 C   0  0  1  0  0  3  0  0  0  0  0  0
  161.5280  205.8850  147.1090 C   0  0  1  0  0  3  0  0  0  0  0  0
  161.4930  204.3840  146.8840 C   0  0  0  0  0  0  0  0  0  0  0  0
  161.5050  202.4680  148.4430 C   0  0  0  0  0  3  0  0  0  0  0  0
  162.3310  203.5050  147.7620 C   0  0  0  0  0  2  0  0  0  0  0  0
  160.3560  204.7970  144.8460 O   0  0  0  0  0  0  0  0  0  0  0  0
  160.8420  201.5270  147.7770 C   0  0  0  0  0  3  0  0  0  0  0  0
  160.4520  206.5700  146.3860 N   0  0  0  0  0  2  0  0  0  0  0  0
  160.7640  201.4370  146.3070 C   0  0  0  0  0  3  0  0  0  0  0  0
  160.5410  206.2030  144.9790 C   0  0  0  0  0  2  0  0  0  0  0  0
  160.9070  203.9010  145.7680 C   0  0  0  0  0  0  0  0  0  0  0  0
  160.8020  202.4610  145.4450 C   0  0  0  0  0  3  0  0  0  0  0  0
  162.5140  209.7030  148.9480 N   0  0  0  0  0  0  0  0  0  0  0  0
  161.9560  209.3560  150.2470 C   0  0  0  0  0  2  0  0  0  0  0  0
  161.9000  210.9560  148.5460 C   0  0  0  0  0  1  0  0  0  0  0  0
  162.0130  208.6830  148.0580 C   0  0  0  0  0  2  0  0  0  0  0  0
  161.2390  207.7250  148.9280 C   0  0  2  0  0  3  0  0  0  0  0  0
  161.5720  208.0060  150.2550 O   0  0  0  0  0  0  0  0  0  0  0  0
  160.7890  205.2630  149.5320 C   0  0  0  0  0  2  0  0  0  0  0  0
  161.6100  204.8830  150.7610 C   0  0  0  0  0  2  0  0  0  0  0  0
  160.8320  205.1070  152.0550 C   0  0  1  0  0  3  0  0  0  0  0  0
  161.2060  202.9300  151.9100 C   0  0  0  0  0  1  0  0  0  0  0  0
  160.7360  203.9160  152.7790 O   0  0  0  0  0  0  0  0  0  0  0  0
  161.4750  206.1900  152.9160 C   0  0  0  0  0  2  0  0  0  0  0  0
  161.4670  209.0430  153.9010 C   0  0  2  0  0  3  0  0  0  0  0  0
  161.2440  208.7130  155.3510 C   0  0  2  0  0  3  0  0  0  0  0  0
  161.3210  210.4110  153.6570 O   0  0  0  0  0  1  0  0  0  0  0  0
  160.4990  208.2900  153.1220 N   0  0  0  0  0  2  0  0  0  0  0  0
  160.8670  206.9540  155.3420 S   0  0  0  0  0  0  0  0  0  0  0  0
  160.4550  206.9660  153.6120 N   0  0  0  0  0  0  0  0  0  0  0  0
  160.0970  209.4370  155.8780 N   0  0  0  0  0  1  0  0  0  0  0  0
  1 19  1  1  0  0  0
  2  1  1  1  0  0  0
  3  2  1  0  0  0  0
  3  5  1  0  0  0  0
  5  4  1  0  0  0  0
  6 10  1  0  0  0  0
  6 11  1  0  0  0  0
  7  4  2  0  0  0  0
  8  2  1  0  0  0  0
  9  7  1  0  0  0  0
 10  8  1  0  0  0  0
 11  3  2  0  0  0  0
 12 11  1  0  0  0  0
 12  9  2  0  0  0  0
 13 14  1  0  0  0  0
 14 18  1  0  0  0  0
 15 13  1  0  0  0  0
 16 17  1  0  0  0  0
 16 13  1  0  0  0  0
 17  1  1  6  0  0  0
 17 18  1  0  0  0  0
 19 20  1  0  0  0  0
 21 20  1  6  0  0  0
 21 23  1  0  0  0  0
 21 24  1  0  0  0  0
 22 23  1  0  0  0  0
 24 30  1  0  0  0  0
 25 27  1  1  0  0  0
 25 26  1  0  0  0  0
 26 31  1  6  0  0  0
 28 30  1  0  0  0  0
 28 25  1  0  0  0  0
 29 26  1  0  0  0  0
 30 29  1  0  0  0  0
M  END
>  <MODEL>
9

>  <REMARK>
 VINA RESULT:      -7.1      1.972      4.691
  Name = 
  8 active torsions:
  status: ('A' for Active; 'I' for Inactive)
    1  A    between atoms: C_3  and  C_9
    2  A    between atoms: C_3  and  N_22
    3  A    between atoms: C_4  and  C_12
    4  A    between atoms: C_9  and  C_15
    5  A    between atoms: C_9  and  O_23
    6  A    between atoms: C_12  and  C_20
    7  A    between atoms: C_12  and  C_27
    8  A    between atoms: C_15  and  C_20
                            x       y       z     vdW  Elec       q    Type
                         _______ _______ _______ _____ _____    ______ ____

>  <TORSDO>
F 8

$$$$
