=
 OpenBabel11062410453D

 32 35  0  0  1  0  0  0  0  0999 V2000
  161.6800  206.4370  149.0550 N   0  0  1  0  0  0  0  0  0  0  0  0
  160.6540  201.9230  150.6420 C   0  0  0  0  0  3  0  0  0  0  0  0
  161.2920  202.1990  151.7760 C   0  0  0  0  0  3  0  0  0  0  0  0
  161.6830  208.1670  150.8330 C   0  0  0  0  0  0  0  0  0  0  0  0
  161.5010  208.5290  152.2130 N   0  0  0  0  0  0  0  0  0  0  0  0
  161.3110  206.4220  146.6820 C   0  0  2  0  0  3  0  0  0  0  0  0
  161.3250  204.9880  147.1840 C   0  0  2  0  0  3  0  0  0  0  0  0
  160.3960  202.9940  149.6290 C   0  0  0  0  0  2  0  0  0  0  0  0
  161.0880  205.1650  148.6710 C   0  0  1  0  0  3  0  0  0  0  0  0
  161.8510  204.5610  150.9980 C   0  0  1  0  0  3  0  0  0  0  0  0
  160.9570  205.7580  151.3770 C   0  0  1  0  0  3  0  0  0  0  0  0
  161.8260  203.5050  152.0150 N   0  0  0  0  0  2  0  0  0  0  0  0
  161.5310  204.0180  149.5820 C   0  0  1  0  0  3  0  0  0  0  0  0
  161.2190  206.2020  152.8250 C   0  0  0  0  0  2  0  0  0  0  0  0
  161.3080  207.2950  147.9340 C   0  0  0  0  0  2  0  0  0  0  0  0
  162.3350  208.9240  150.0640 O   0  0  0  0  0  0  0  0  0  0  0  0
  161.0370  206.9000  150.2990 C   0  0  2  0  0  3  0  0  0  0  0  0
  160.7240  207.6180  153.0620 C   0  0  1  0  0  3  0  0  0  0  0  0
  159.9210  207.1670  155.2680 O   0  0  0  0  0  1  0  0  0  0  0  0
  160.8290  207.9420  154.5480 C   0  0  0  0  0  2  0  0  0  0  0  0
  161.0220  210.8920  152.6310 C   0  0  0  0  0  1  0  0  0  0  0  0
  162.0560  209.7830  152.7210 C   0  0  0  0  0  2  0  0  0  0  0  0
  160.0570  206.6720  145.8650 C   0  0  0  0  0  2  0  0  0  0  0  0
  160.2540  206.2520  144.5500 O   0  0  0  0  0  1  0  0  0  0  0  0
  162.6410  204.4120  146.9410 N   0  0  0  0  0  2  0  0  0  0  0  0
  162.5880  203.7550  145.6440 C   0  0  0  0  0  2  0  0  0  0  0  0
  161.1860  203.2250  145.3860 C   0  0  0  0  0  2  0  0  0  0  0  0
  160.8820  202.0240  146.2690 C   0  0  0  0  0  2  0  0  0  0  0  0
  160.6020  200.7910  145.4180 C   0  0  0  0  0  2  0  0  0  0  0  0
  160.9290  199.4980  146.1580 C   0  0  2  0  0  3  0  0  0  0  0  0
  161.7880  199.7480  147.2300 O   0  0  0  0  0  1  0  0  0  0  0  0
  161.5440  198.4700  145.2260 C   0  0  0  0  0  1  0  0  0  0  0  0
  1 15  1  6  0  0  0
  1 17  1  0  0  0  0
  2  3  2  0  0  0  0
  3 12  1  0  0  0  0
  4  5  1  0  0  0  0
  5 22  1  0  0  0  0
  5 18  1  0  0  0  0
  6 23  1  1  0  0  0
  6  7  1  0  0  0  0
  6 15  1  0  0  0  0
  7 25  1  1  0  0  0
  7  9  1  0  0  0  0
  8  2  1  0  0  0  0
  9  1  1  0  0  0  0
  9 13  1  0  0  0  0
 10 11  1  0  0  0  0
 10 12  1  0  0  0  0
 11 14  1  0  0  0  0
 13  8  1  0  0  0  0
 13 10  1  0  0  0  0
 14 18  1  0  0  0  0
 16  4  2  0  0  0  0
 17  4  1  0  0  0  0
 17 11  1  0  0  0  0
 18 20  1  0  0  0  0
 20 19  1  0  0  0  0
 21 22  1  0  0  0  0
 24 23  1  0  0  0  0
 26 25  1  0  0  0  0
 27 26  1  0  0  0  0
 27 28  1  0  0  0  0
 29 30  1  0  0  0  0
 29 28  1  0  0  0  0
 30 31  1  0  0  0  0
 32 30  1  0  0  0  0
M  END
>  <MODEL>
1

>  <REMARK>
 VINA RESULT:      -7.1      0.000      0.000
  Name = 
  9 active torsions:
  status: ('A' for Active; 'I' for Inactive)
    1  A    between atoms: C_1  and  C_24
    2  A    between atoms: C_2  and  C_10
    3  A    between atoms: C_2  and  C_12
    4  A    between atoms: N_7  and  C_22
    5  A    between atoms: C_8  and  C_19
    6  A    between atoms: C_9  and  N_21
    7  A    between atoms: C_10  and  C_24
    8  A    between atoms: C_12  and  N_21
    9  A    between atoms: C_30  and  C_32
                            x       y       z     vdW  Elec       q    Type
                         _______ _______ _______ _____ _____    ______ ____

>  <TORSDO>
F 9

$$$$
=
 OpenBabel11062410453D

 32 35  0  0  1  0  0  0  0  0999 V2000
  162.0190  208.6680  151.2320 N   0  0  1  0  0  0  0  0  0  0  0  0
  160.3570  204.0930  150.7280 C   0  0  0  0  0  3  0  0  0  0  0  0
  160.7680  203.8290  151.9660 C   0  0  0  0  0  3  0  0  0  0  0  0
  161.7880  209.5900  153.5240 C   0  0  0  0  0  0  0  0  0  0  0  0
  161.3560  209.4350  154.8860 N   0  0  0  0  0  0  0  0  0  0  0  0
  162.1420  209.5920  149.0190 C   0  0  2  0  0  3  0  0  0  0  0  0
  161.9460  208.0890  148.9120 C   0  0  2  0  0  3  0  0  0  0  0  0
  160.3910  205.4900  150.1930 C   0  0  0  0  0  2  0  0  0  0  0  0
  161.4240  207.7330  150.2890 C   0  0  1  0  0  3  0  0  0  0  0  0
  161.6490  206.2000  152.2800 C   0  0  1  0  0  3  0  0  0  0  0  0
  160.7880  207.2880  152.9520 C   0  0  1  0  0  3  0  0  0  0  0  0
  161.3390  204.8580  152.7810 N   0  0  0  0  0  2  0  0  0  0  0  0
  161.5850  206.2770  150.7340 C   0  0  1  0  0  3  0  0  0  0  0  0
  160.7820  207.1170  154.4790 C   0  0  0  0  0  2  0  0  0  0  0  0
  161.9480  209.9260  150.4960 C   0  0  0  0  0  2  0  0  0  0  0  0
  162.6370  210.4740  153.2290 O   0  0  0  0  0  0  0  0  0  0  0  0
  161.1720  208.7240  152.4390 C   0  0  2  0  0  3  0  0  0  0  0  0
  160.3560  208.3990  155.1730 C   0  0  1  0  0  3  0  0  0  0  0  0
  160.0730  206.7550  156.8850 O   0  0  0  0  0  1  0  0  0  0  0  0
  160.1790  208.1270  156.6620 C   0  0  0  0  0  2  0  0  0  0  0  0
  161.0160  211.5480  156.0720 C   0  0  0  0  0  1  0  0  0  0  0  0
  161.8870  210.3130  155.9290 C   0  0  0  0  0  2  0  0  0  0  0  0
  161.1030  210.3110  148.1790 C   0  0  0  0  0  2  0  0  0  0  0  0
  161.5030  211.6280  147.9520 O   0  0  0  0  0  1  0  0  0  0  0  0
  163.2370  207.4580  148.6740 N   0  0  0  0  0  2  0  0  0  0  0  0
  163.0140  206.3650  147.7410 C   0  0  0  0  0  2  0  0  0  0  0  0
  161.7190  206.5890  146.9750 C   0  0  0  0  0  2  0  0  0  0  0  0
  161.7500  205.8840  145.6270 C   0  0  0  0  0  2  0  0  0  0  0  0
  162.5620  204.5960  145.7150 C   0  0  0  0  0  2  0  0  0  0  0  0
  161.6730  203.3570  145.6940 C   0  0  2  0  0  3  0  0  0  0  0  0
  160.5470  203.5720  144.8980 O   0  0  0  0  0  1  0  0  0  0  0  0
  161.2510  202.9580  147.0960 C   0  0  0  0  0  1  0  0  0  0  0  0
  1 15  1  6  0  0  0
  1 17  1  0  0  0  0
  2  3  2  0  0  0  0
  3 12  1  0  0  0  0
  4  5  1  0  0  0  0
  5 18  1  0  0  0  0
  5 22  1  0  0  0  0
  6 23  1  6  0  0  0
  6 15  1  0  0  0  0
  7 25  1  1  0  0  0
  7  6  1  0  0  0  0
  7  9  1  0  0  0  0
  8  2  1  0  0  0  0
  8 13  1  0  0  0  0
  9 13  1  0  0  0  0
  9  1  1  0  0  0  0
 10 12  1  0  0  0  0
 10 11  1  0  0  0  0
 11 14  1  0  0  0  0
 13 10  1  0  0  0  0
 14 18  1  0  0  0  0
 16  4  2  0  0  0  0
 17 11  1  0  0  0  0
 17  4  1  0  0  0  0
 18 20  1  0  0  0  0
 20 19  1  0  0  0  0
 22 21  1  0  0  0  0
 24 23  1  0  0  0  0
 26 25  1  0  0  0  0
 27 26  1  0  0  0  0
 28 29  1  0  0  0  0
 28 27  1  0  0  0  0
 30 29  1  0  0  0  0
 30 32  1  0  0  0  0
 31 30  1  0  0  0  0
M  END
>  <MODEL>
2

>  <REMARK>
 VINA RESULT:      -6.7      2.134      3.389
  Name = 
  9 active torsions:
  status: ('A' for Active; 'I' for Inactive)
    1  A    between atoms: C_1  and  C_24
    2  A    between atoms: C_2  and  C_10
    3  A    between atoms: C_2  and  C_12
    4  A    between atoms: N_7  and  C_22
    5  A    between atoms: C_8  and  C_19
    6  A    between atoms: C_9  and  N_21
    7  A    between atoms: C_10  and  C_24
    8  A    between atoms: C_12  and  N_21
    9  A    between atoms: C_30  and  C_32
                            x       y       z     vdW  Elec       q    Type
                         _______ _______ _______ _____ _____    ______ ____

>  <TORSDO>
F 9

$$$$
=
 OpenBabel11062410453D

 32 35  0  0  1  0  0  0  0  0999 V2000
  160.9800  205.4200  150.5610 N   0  0  1  0  0  0  0  0  0  0  0  0
  161.9540  204.9230  145.7910 C   0  0  0  0  0  3  0  0  0  0  0  0
  161.3980  206.1120  145.5740 C   0  0  0  0  0  3  0  0  0  0  0  0
  161.1450  207.7500  151.3980 C   0  0  0  0  0  0  0  0  0  0  0  0
  161.4240  209.1390  151.1550 N   0  0  0  0  0  0  0  0  0  0  0  0
  161.1990  203.2330  151.5290 C   0  0  2  0  0  3  0  0  0  0  0  0
  161.1690  203.0980  150.0160 C   0  0  2  0  0  3  0  0  0  0  0  0
  162.1840  204.4290  147.1850 C   0  0  0  0  0  2  0  0  0  0  0  0
  161.5050  204.5040  149.5600 C   0  0  1  0  0  3  0  0  0  0  0  0
  160.8690  206.4210  148.0490 C   0  0  1  0  0  3  0  0  0  0  0  0
  161.8240  207.1970  148.9780 C   0  0  1  0  0  3  0  0  0  0  0  0
  160.9230  206.9060  146.6670 N   0  0  0  0  0  2  0  0  0  0  0  0
  161.0820  204.8890  148.1410 C   0  0  1  0  0  3  0  0  0  0  0  0
  161.6670  208.7130  148.7830 C   0  0  0  0  0  2  0  0  0  0  0  0
  161.3090  204.7310  151.8050 C   0  0  0  0  0  2  0  0  0  0  0  0
  160.4710  207.4100  152.4080 O   0  0  0  0  0  0  0  0  0  0  0  0
  161.7140  206.6960  150.4640 C   0  0  2  0  0  3  0  0  0  0  0  0
  162.2220  209.4790  149.9710 C   0  0  1  0  0  3  0  0  0  0  0  0
  161.9930  211.1620  148.2890 O   0  0  0  0  0  1  0  0  0  0  0  0
  162.2210  210.9690  149.6500 C   0  0  0  0  0  2  0  0  0  0  0  0
  161.8870  210.2770  153.2710 C   0  0  0  0  0  1  0  0  0  0  0  0
  160.9430  210.1580  152.0880 C   0  0  0  0  0  2  0  0  0  0  0  0
  162.4070  202.5070  152.0910 C   0  0  0  0  0  2  0  0  0  0  0  0
  162.2920  201.1380  151.8530 O   0  0  0  0  0  1  0  0  0  0  0  0
  159.8230  202.7310  149.5980 N   0  0  0  0  0  2  0  0  0  0  0  0
  159.8600  201.3290  149.2150 C   0  0  0  0  0  2  0  0  0  0  0  0
  161.2320  200.9760  148.6610 C   0  0  0  0  0  2  0  0  0  0  0  0
  161.1360  200.5020  147.2190 C   0  0  0  0  0  2  0  0  0  0  0  0
  160.9260  201.6840  146.2790 C   0  0  0  0  0  2  0  0  0  0  0  0
  159.7780  201.4440  145.3050 C   0  0  2  0  0  3  0  0  0  0  0  0
  160.0260  200.3170  144.5190 O   0  0  0  0  0  1  0  0  0  0  0  0
  159.5450  202.6550  144.4190 C   0  0  0  0  0  1  0  0  0  0  0  0
  1 15  1  1  0  0  0
  2  8  1  0  0  0  0
  3  2  2  0  0  0  0
  3 12  1  0  0  0  0
  4 16  2  0  0  0  0
  5  4  1  0  0  0  0
  5 22  1  0  0  0  0
  6 15  1  0  0  0  0
  6 23  1  6  0  0  0
  7 25  1  6  0  0  0
  7  6  1  0  0  0  0
  8 13  1  0  0  0  0
  9  7  1  0  0  0  0
  9  1  1  0  0  0  0
 10 13  1  0  0  0  0
 10 11  1  0  0  0  0
 11 17  1  0  0  0  0
 12 10  1  0  0  0  0
 13  9  1  0  0  0  0
 14 11  1  0  0  0  0
 14 18  1  0  0  0  0
 17  1  1  0  0  0  0
 17  4  1  0  0  0  0
 18  5  1  0  0  0  0
 19 20  1  0  0  0  0
 20 18  1  0  0  0  0
 22 21  1  0  0  0  0
 24 23  1  0  0  0  0
 26 25  1  0  0  0  0
 27 26  1  0  0  0  0
 28 27  1  0  0  0  0
 29 28  1  0  0  0  0
 30 29  1  0  0  0  0
 31 30  1  0  0  0  0
 32 30  1  0  0  0  0
M  END
>  <MODEL>
3

>  <REMARK>
 VINA RESULT:      -6.4      2.016      4.490
  Name = 
  9 active torsions:
  status: ('A' for Active; 'I' for Inactive)
    1  A    between atoms: C_1  and  C_24
    2  A    between atoms: C_2  and  C_10
    3  A    between atoms: C_2  and  C_12
    4  A    between atoms: N_7  and  C_22
    5  A    between atoms: C_8  and  C_19
    6  A    between atoms: C_9  and  N_21
    7  A    between atoms: C_10  and  C_24
    8  A    between atoms: C_12  and  N_21
    9  A    between atoms: C_30  and  C_32
                            x       y       z     vdW  Elec       q    Type
                         _______ _______ _______ _____ _____    ______ ____

>  <TORSDO>
F 9

$$$$
=
 OpenBabel11062410453D

 32 35  0  0  1  0  0  0  0  0999 V2000
  161.3340  209.1340  149.9410 N   0  0  1  0  0  0  0  0  0  0  0  0
  161.7650  210.1060  154.7170 C   0  0  0  0  0  3  0  0  0  0  0  0
  161.0340  209.0270  154.9830 C   0  0  0  0  0  3  0  0  0  0  0  0
  161.2910  206.7140  149.3930 C   0  0  0  0  0  0  0  0  0  0  0  0
  161.3510  205.3430  149.8220 N   0  0  0  0  0  0  0  0  0  0  0  0
  161.9590  211.1410  148.7810 C   0  0  2  0  0  3  0  0  0  0  0  0
  161.7600  211.4670  150.2510 C   0  0  2  0  0  3  0  0  0  0  0  0
  162.2300  210.3920  153.3240 C   0  0  0  0  0  2  0  0  0  0  0  0
  161.8470  210.1000  150.9000 C   0  0  1  0  0  3  0  0  0  0  0  0
  160.7800  208.4750  152.5060 C   0  0  1  0  0  3  0  0  0  0  0  0
  161.7320  207.4820  151.8090 C   0  0  1  0  0  3  0  0  0  0  0  0
  160.5970  208.1630  153.9280 N   0  0  0  0  0  2  0  0  0  0  0  0
  161.2040  209.9480  152.2800 C   0  0  1  0  0  3  0  0  0  0  0  0
  161.3520  206.0310  152.1440 C   0  0  0  0  0  2  0  0  0  0  0  0
  161.9030  209.6180  148.6880 C   0  0  0  0  0  2  0  0  0  0  0  0
  160.7990  207.0020  148.2680 O   0  0  0  0  0  0  0  0  0  0  0  0
  161.8750  207.8030  150.2770 C   0  0  2  0  0  3  0  0  0  0  0  0
  161.9440  205.0630  151.1350 C   0  0  1  0  0  3  0  0  0  0  0  0
  160.5950  203.5950  152.4530 O   0  0  0  0  0  1  0  0  0  0  0  0
  161.7060  203.6350  151.6120 C   0  0  0  0  0  2  0  0  0  0  0  0
  161.8360  204.0370  147.8100 C   0  0  0  0  0  1  0  0  0  0  0  0
  160.8600  204.2790  148.9470 C   0  0  0  0  0  2  0  0  0  0  0  0
  163.3130  211.6450  148.3170 C   0  0  0  0  0  2  0  0  0  0  0  0
  163.1860  212.9280  147.7860 O   0  0  0  0  0  1  0  0  0  0  0  0
  160.4330  212.0380  150.4360 N   0  0  0  0  0  2  0  0  0  0  0  0
  160.5090  213.4360  150.0430 C   0  0  0  0  0  2  0  0  0  0  0  0
  159.8040  214.3060  151.0730 C   0  0  0  0  0  2  0  0  0  0  0  0
  158.4650  213.7060  151.4730 C   0  0  0  0  0  2  0  0  0  0  0  0
  158.2940  213.7400  152.9880 C   0  0  0  0  0  2  0  0  0  0  0  0
  159.0880  212.6360  153.6790 C   0  0  2  0  0  3  0  0  0  0  0  0
  158.3760  211.4350  153.6650 O   0  0  0  0  0  1  0  0  0  0  0  0
  159.4360  213.0190  155.1060 C   0  0  0  0  0  1  0  0  0  0  0  0
  1 15  1  6  0  0  0
  1 17  1  0  0  0  0
  1  9  1  0  0  0  0
  2  3  2  0  0  0  0
  4  5  1  0  0  0  0
  4 17  1  0  0  0  0
  5 18  1  0  0  0  0
  6 23  1  1  0  0  0
  6  7  1  0  0  0  0
  7 25  1  6  0  0  0
  7  9  1  0  0  0  0
  8  2  1  0  0  0  0
  9 13  1  0  0  0  0
 10 12  1  0  0  0  0
 11 14  1  0  0  0  0
 11 10  1  0  0  0  0
 12  3  1  0  0  0  0
 13 10  1  0  0  0  0
 13  8  1  0  0  0  0
 15  6  1  0  0  0  0
 16  4  2  0  0  0  0
 17 11  1  0  0  0  0
 18 20  1  0  0  0  0
 18 14  1  0  0  0  0
 20 19  1  0  0  0  0
 21 22  1  0  0  0  0
 22  5  1  0  0  0  0
 24 23  1  0  0  0  0
 26 25  1  0  0  0  0
 26 27  1  0  0  0  0
 27 28  1  0  0  0  0
 28 29  1  0  0  0  0
 29 30  1  0  0  0  0
 30 32  1  0  0  0  0
 31 30  1  0  0  0  0
M  END
>  <MODEL>
4

>  <REMARK>
 VINA RESULT:      -6.0      2.833      8.344
  Name = 
  9 active torsions:
  status: ('A' for Active; 'I' for Inactive)
    1  A    between atoms: C_1  and  C_24
    2  A    between atoms: C_2  and  C_10
    3  A    between atoms: C_2  and  C_12
    4  A    between atoms: N_7  and  C_22
    5  A    between atoms: C_8  and  C_19
    6  A    between atoms: C_9  and  N_21
    7  A    between atoms: C_10  and  C_24
    8  A    between atoms: C_12  and  N_21
    9  A    between atoms: C_30  and  C_32
                            x       y       z     vdW  Elec       q    Type
                         _______ _______ _______ _____ _____    ______ ____

>  <TORSDO>
F 9

$$$$
=
 OpenBabel11062410453D

 32 35  0  0  1  0  0  0  0  0999 V2000
  161.3850  209.1020  149.8880 N   0  0  1  0  0  0  0  0  0  0  0  0
  161.8510  210.0420  154.6680 C   0  0  0  0  0  3  0  0  0  0  0  0
  161.1040  208.9730  154.9310 C   0  0  0  0  0  3  0  0  0  0  0  0
  161.3020  206.6870  149.3280 C   0  0  0  0  0  0  0  0  0  0  0  0
  161.3430  205.3130  149.7490 N   0  0  0  0  0  0  0  0  0  0  0  0
  162.0360  211.1060  148.7360 C   0  0  2  0  0  3  0  0  0  0  0  0
  161.8480  211.4270  150.2090 C   0  0  2  0  0  3  0  0  0  0  0  0
  162.3140  210.3280  153.2740 C   0  0  0  0  0  2  0  0  0  0  0  0
  161.9170  210.0550  150.8500 C   0  0  1  0  0  3  0  0  0  0  0  0
  160.8320  208.4380  152.4530 C   0  0  1  0  0  3  0  0  0  0  0  0
  161.7640  207.4350  151.7460 C   0  0  1  0  0  3  0  0  0  0  0  0
  160.6500  208.1220  153.8730 N   0  0  0  0  0  2  0  0  0  0  0  0
  161.2770  209.9060  152.2320 C   0  0  1  0  0  3  0  0  0  0  0  0
  161.3640  205.9880  152.0750 C   0  0  0  0  0  2  0  0  0  0  0  0
  161.9560  209.5840  148.6350 C   0  0  0  0  0  2  0  0  0  0  0  0
  160.8100  206.9880  148.2060 O   0  0  0  0  0  0  0  0  0  0  0  0
  161.9060  207.7610  150.2150 C   0  0  2  0  0  3  0  0  0  0  0  0
  161.9370  205.0160  151.0580 C   0  0  1  0  0  3  0  0  0  0  0  0
  160.6530  203.5790  152.4730 O   0  0  0  0  0  1  0  0  0  0  0  0
  161.6780  203.5900  151.5290 C   0  0  0  0  0  2  0  0  0  0  0  0
  161.8360  203.9520  147.7760 C   0  0  0  0  0  1  0  0  0  0  0  0
  160.8310  204.2600  148.8710 C   0  0  0  0  0  2  0  0  0  0  0  0
  163.3960  211.5910  148.2690 C   0  0  0  0  0  2  0  0  0  0  0  0
  163.3110  212.9200  147.8570 O   0  0  0  0  0  1  0  0  0  0  0  0
  160.5310  212.0180  150.4030 N   0  0  0  0  0  2  0  0  0  0  0  0
  160.5330  213.3020  149.7210 C   0  0  0  0  0  2  0  0  0  0  0  0
  159.1090  213.7080  149.3700 C   0  0  0  0  0  2  0  0  0  0  0  0
  159.0050  214.1370  147.9140 C   0  0  0  0  0  2  0  0  0  0  0  0
  159.4350  213.0030  146.9900 C   0  0  0  0  0  2  0  0  0  0  0  0
  158.4860  212.8370  145.8080 C   0  0  2  0  0  3  0  0  0  0  0  0
  158.4620  213.9950  145.0280 O   0  0  0  0  0  1  0  0  0  0  0  0
  157.0820  212.4930  146.2720 C   0  0  0  0  0  1  0  0  0  0  0  0
  1 15  1  6  0  0  0
  1 17  1  0  0  0  0
  1  9  1  0  0  0  0
  2  3  2  0  0  0  0
  4  5  1  0  0  0  0
  4 17  1  0  0  0  0
  5 18  1  0  0  0  0
  6 23  1  1  0  0  0
  6  7  1  0  0  0  0
  7 25  1  6  0  0  0
  7  9  1  0  0  0  0
  8  2  1  0  0  0  0
  9 13  1  0  0  0  0
 10 12  1  0  0  0  0
 11 14  1  0  0  0  0
 11 10  1  0  0  0  0
 12  3  1  0  0  0  0
 13 10  1  0  0  0  0
 13  8  1  0  0  0  0
 15  6  1  0  0  0  0
 16  4  2  0  0  0  0
 17 11  1  0  0  0  0
 18 20  1  0  0  0  0
 18 14  1  0  0  0  0
 20 19  1  0  0  0  0
 21 22  1  0  0  0  0
 22  5  1  0  0  0  0
 24 23  1  0  0  0  0
 26 25  1  0  0  0  0
 27 26  1  0  0  0  0
 28 27  1  0  0  0  0
 29 28  1  0  0  0  0
 30 32  1  0  0  0  0
 30 29  1  0  0  0  0
 31 30  1  0  0  0  0
M  END
>  <MODEL>
5

>  <REMARK>
 VINA RESULT:      -5.9      3.553      7.873
  Name = 
  9 active torsions:
  status: ('A' for Active; 'I' for Inactive)
    1  A    between atoms: C_1  and  C_24
    2  A    between atoms: C_2  and  C_10
    3  A    between atoms: C_2  and  C_12
    4  A    between atoms: N_7  and  C_22
    5  A    between atoms: C_8  and  C_19
    6  A    between atoms: C_9  and  N_21
    7  A    between atoms: C_10  and  C_24
    8  A    between atoms: C_12  and  N_21
    9  A    between atoms: C_30  and  C_32
                            x       y       z     vdW  Elec       q    Type
                         _______ _______ _______ _____ _____    ______ ____

>  <TORSDO>
F 9

$$$$
=
 OpenBabel11062410453D

 32 35  0  0  1  0  0  0  0  0999 V2000
  161.3710  207.2990  152.7990 N   0  0  1  0  0  0  0  0  0  0  0  0
  160.8610  211.8280  151.0190 C   0  0  0  0  0  3  0  0  0  0  0  0
  161.5580  211.4640  149.9460 C   0  0  0  0  0  3  0  0  0  0  0  0
  161.3620  205.5180  151.0720 C   0  0  0  0  0  0  0  0  0  0  0  0
  161.2560  205.1270  149.6920 N   0  0  0  0  0  0  0  0  0  0  0  0
  160.8250  207.4220  155.1350 C   0  0  2  0  0  3  0  0  0  0  0  0
  161.0000  208.8330  154.5970 C   0  0  2  0  0  3  0  0  0  0  0  0
  160.4350  210.8160  152.0360 C   0  0  0  0  0  2  0  0  0  0  0  0
  160.8630  208.6280  153.1020 C   0  0  1  0  0  3  0  0  0  0  0  0
  161.8510  209.0890  150.8280 C   0  0  1  0  0  3  0  0  0  0  0  0
  160.8890  207.9590  150.4100 C   0  0  1  0  0  3  0  0  0  0  0  0
  161.9950  210.1100  149.7850 N   0  0  0  0  0  2  0  0  0  0  0  0
  161.4710  209.7030  152.1990 C   0  0  1  0  0  3  0  0  0  0  0  0
  161.2230  207.4480  149.0000 C   0  0  0  0  0  2  0  0  0  0  0  0
  160.8430  206.5120  153.9090 C   0  0  0  0  0  2  0  0  0  0  0  0
  161.8860  204.7350  151.9100 O   0  0  0  0  0  0  0  0  0  0  0  0
  160.7880  206.8510  151.5210 C   0  0  2  0  0  3  0  0  0  0  0  0
  160.6280  206.0720  148.7610 C   0  0  1  0  0  3  0  0  0  0  0  0
  161.9330  206.3470  146.7770 O   0  0  0  0  0  1  0  0  0  0  0  0
  160.8180  205.6920  147.2970 C   0  0  0  0  0  2  0  0  0  0  0  0
  160.6570  202.7670  149.4520 C   0  0  0  0  0  1  0  0  0  0  0  0
  161.7390  203.8150  149.2620 C   0  0  0  0  0  2  0  0  0  0  0  0
  159.4950  207.3040  155.8560 C   0  0  0  0  0  2  0  0  0  0  0  0
  159.7060  206.9540  157.1890 O   0  0  0  0  0  1  0  0  0  0  0  0
  162.3380  209.3050  154.9290 N   0  0  0  0  0  2  0  0  0  0  0  0
  162.2060  210.6770  155.3920 C   0  0  0  0  0  2  0  0  0  0  0  0
  160.9360  210.8290  156.2150 C   0  0  0  0  0  2  0  0  0  0  0  0
  160.1000  212.0010  155.7220 C   0  0  0  0  0  2  0  0  0  0  0  0
  158.7070  211.5330  155.3180 C   0  0  0  0  0  2  0  0  0  0  0  0
  157.8320  212.6860  154.8370 C   0  0  2  0  0  3  0  0  0  0  0  0
  156.6630  212.2040  154.2450 O   0  0  0  0  0  1  0  0  0  0  0  0
  158.5810  213.5760  153.8610 C   0  0  0  0  0  1  0  0  0  0  0  0
  1  9  1  0  0  0  0
  1 15  1  1  0  0  0
  2  8  1  0  0  0  0
  3  2  2  0  0  0  0
  4 17  1  0  0  0  0
  4 16  2  0  0  0  0
  5  4  1  0  0  0  0
  6 23  1  6  0  0  0
  7 25  1  6  0  0  0
  7  6  1  0  0  0  0
  8 13  1  0  0  0  0
  9  7  1  0  0  0  0
 10 13  1  0  0  0  0
 11 10  1  0  0  0  0
 11 17  1  0  0  0  0
 12  3  1  0  0  0  0
 12 10  1  0  0  0  0
 13  9  1  0  0  0  0
 14 11  1  0  0  0  0
 15  6  1  0  0  0  0
 17  1  1  0  0  0  0
 18 14  1  0  0  0  0
 18  5  1  0  0  0  0
 19 20  1  0  0  0  0
 20 18  1  0  0  0  0
 22 21  1  0  0  0  0
 22  5  1  0  0  0  0
 23 24  1  0  0  0  0
 25 26  1  0  0  0  0
 26 27  1  0  0  0  0
 28 27  1  0  0  0  0
 29 28  1  0  0  0  0
 30 29  1  0  0  0  0
 31 30  1  0  0  0  0
 32 30  1  0  0  0  0
M  END
>  <MODEL>
6

>  <REMARK>
 VINA RESULT:      -5.8      2.674      9.375
  Name = 
  9 active torsions:
  status: ('A' for Active; 'I' for Inactive)
    1  A    between atoms: C_1  and  C_24
    2  A    between atoms: C_2  and  C_10
    3  A    between atoms: C_2  and  C_12
    4  A    between atoms: N_7  and  C_22
    5  A    between atoms: C_8  and  C_19
    6  A    between atoms: C_9  and  N_21
    7  A    between atoms: C_10  and  C_24
    8  A    between atoms: C_12  and  N_21
    9  A    between atoms: C_30  and  C_32
                            x       y       z     vdW  Elec       q    Type
                         _______ _______ _______ _____ _____    ______ ____

>  <TORSDO>
F 9

$$$$
=
 OpenBabel11062410453D

 32 35  0  0  1  0  0  0  0  0999 V2000
  160.8670  206.8160  152.6010 N   0  0  1  0  0  0  0  0  0  0  0  0
  162.3890  210.0150  149.2250 C   0  0  0  0  0  3  0  0  0  0  0  0
  161.8230  210.9940  149.9270 C   0  0  0  0  0  3  0  0  0  0  0  0
  160.8620  207.7040  154.9180 C   0  0  0  0  0  0  0  0  0  0  0  0
  161.1220  208.7800  155.8350 N   0  0  0  0  0  0  0  0  0  0  0  0
  161.0450  204.6400  151.6020 C   0  0  2  0  0  3  0  0  0  0  0  0
  161.1910  205.6910  150.5150 C   0  0  2  0  0  3  0  0  0  0  0  0
  162.4760  208.6280  149.7790 C   0  0  0  0  0  2  0  0  0  0  0  0
  161.5300  206.9340  151.3120 C   0  0  1  0  0  3  0  0  0  0  0  0
  161.0090  209.3690  151.7140 C   0  0  1  0  0  3  0  0  0  0  0  0
  161.8270  209.1180  152.9960 C   0  0  1  0  0  3  0  0  0  0  0  0
  161.2030  210.7240  151.1880 N   0  0  0  0  0  2  0  0  0  0  0  0
  161.2590  208.2820  150.6390 C   0  0  1  0  0  3  0  0  0  0  0  0
  161.6450  210.2690  153.9980 C   0  0  0  0  0  2  0  0  0  0  0  0
  161.0750  205.4080  152.9210 C   0  0  0  0  0  2  0  0  0  0  0  0
  160.0890  206.7650  155.2510 O   0  0  0  0  0  0  0  0  0  0  0  0
  161.5660  207.6790  153.5720 C   0  0  2  0  0  3  0  0  0  0  0  0
  162.0380  209.8420  155.4010 C   0  0  1  0  0  3  0  0  0  0  0  0
  163.1770  211.0760  157.1020 O   0  0  0  0  0  1  0  0  0  0  0  0
  162.0250  211.0610  156.3170 C   0  0  0  0  0  2  0  0  0  0  0  0
  159.2900  209.6860  157.1810 C   0  0  0  0  0  1  0  0  0  0  0  0
  160.5070  208.7780  157.1620 C   0  0  0  0  0  2  0  0  0  0  0  0
  162.2050  203.6630  151.5380 C   0  0  0  0  0  2  0  0  0  0  0  0
  161.7290  202.3540  151.6080 O   0  0  0  0  0  1  0  0  0  0  0  0
  159.9130  205.8520  149.8350 N   0  0  0  0  0  2  0  0  0  0  0  0
  160.1870  205.8780  148.4070 C   0  0  0  0  0  2  0  0  0  0  0  0
  161.6160  205.4290  148.1430 C   0  0  0  0  0  2  0  0  0  0  0  0
  161.6600  204.3330  147.0870 C   0  0  0  0  0  2  0  0  0  0  0  0
  162.2980  204.8520  145.8040 C   0  0  0  0  0  2  0  0  0  0  0  0
  161.2760  205.0280  144.6860 C   0  0  2  0  0  3  0  0  0  0  0  0
  160.6090  206.2470  144.8150 O   0  0  0  0  0  1  0  0  0  0  0  0
  160.2750  203.8860  144.6700 C   0  0  0  0  0  1  0  0  0  0  0  0
  1 15  1  1  0  0  0
  1 17  1  0  0  0  0
  2  8  1  0  0  0  0
  2  3  2  0  0  0  0
  3 12  1  0  0  0  0
  4 16  2  0  0  0  0
  4  5  1  0  0  0  0
  5 22  1  0  0  0  0
  6 23  1  1  0  0  0
  6 15  1  0  0  0  0
  7 25  1  1  0  0  0
  7  9  1  0  0  0  0
  7  6  1  0  0  0  0
  8 13  1  0  0  0  0
  9  1  1  0  0  0  0
 10 11  1  0  0  0  0
 11 17  1  0  0  0  0
 11 14  1  0  0  0  0
 12 10  1  0  0  0  0
 13  9  1  0  0  0  0
 13 10  1  0  0  0  0
 14 18  1  0  0  0  0
 17  4  1  0  0  0  0
 18  5  1  0  0  0  0
 18 20  1  0  0  0  0
 20 19  1  0  0  0  0
 22 21  1  0  0  0  0
 23 24  1  0  0  0  0
 26 25  1  0  0  0  0
 27 26  1  0  0  0  0
 28 27  1  0  0  0  0
 29 28  1  0  0  0  0
 30 31  1  0  0  0  0
 30 29  1  0  0  0  0
 32 30  1  0  0  0  0
M  END
>  <MODEL>
7

>  <REMARK>
 VINA RESULT:      -5.5      2.595      5.282
  Name = 
  9 active torsions:
  status: ('A' for Active; 'I' for Inactive)
    1  A    between atoms: C_1  and  C_24
    2  A    between atoms: C_2  and  C_10
    3  A    between atoms: C_2  and  C_12
    4  A    between atoms: N_7  and  C_22
    5  A    between atoms: C_8  and  C_19
    6  A    between atoms: C_9  and  N_21
    7  A    between atoms: C_10  and  C_24
    8  A    between atoms: C_12  and  N_21
    9  A    between atoms: C_30  and  C_32
                            x       y       z     vdW  Elec       q    Type
                         _______ _______ _______ _____ _____    ______ ____

>  <TORSDO>
F 9

$$$$
=
 OpenBabel11062410453D

 32 35  0  0  1  0  0  0  0  0999 V2000
  161.1230  207.5770  149.0870 N   0  0  1  0  0  0  0  0  0  0  0  0
  161.7580  204.7660  153.0410 C   0  0  0  0  0  3  0  0  0  0  0  0
  161.0200  203.8210  152.4640 C   0  0  0  0  0  3  0  0  0  0  0  0
  161.0180  206.3220  146.9500 C   0  0  0  0  0  0  0  0  0  0  0  0
  161.0720  205.0730  146.2400 N   0  0  0  0  0  0  0  0  0  0  0  0
  161.7360  209.8070  149.7350 C   0  0  2  0  0  3  0  0  0  0  0  0
  161.6010  208.9540  150.9850 C   0  0  2  0  0  3  0  0  0  0  0  0
  162.1730  205.9850  152.2800 C   0  0  0  0  0  2  0  0  0  0  0  0
  161.6900  207.5480  150.4270 C   0  0  1  0  0  3  0  0  0  0  0  0
  160.6600  205.2460  150.3800 C   0  0  1  0  0  3  0  0  0  0  0  0
  161.5660  205.0920  149.1430 C   0  0  1  0  0  3  0  0  0  0  0  0
  160.5270  203.9930  151.1310 N   0  0  0  0  0  2  0  0  0  0  0  0
  161.0990  206.4260  151.2830 C   0  0  1  0  0  3  0  0  0  0  0  0
  161.1760  203.8490  148.3280 C   0  0  0  0  0  2  0  0  0  0  0  0
  161.6510  208.8330  148.5630 C   0  0  0  0  0  2  0  0  0  0  0  0
  160.4870  207.3310  146.4100 O   0  0  0  0  0  0  0  0  0  0  0  0
  161.6540  206.4320  148.3250 C   0  0  2  0  0  3  0  0  0  0  0  0
  161.7110  203.9330  146.9100 C   0  0  1  0  0  3  0  0  0  0  0  0
  160.8270  201.7180  147.0660 O   0  0  0  0  0  1  0  0  0  0  0  0
  161.4680  202.6050  146.2030 C   0  0  0  0  0  2  0  0  0  0  0  0
  161.5520  205.4510  143.8710 C   0  0  0  0  0  1  0  0  0  0  0  0
  160.5290  204.9740  144.8860 C   0  0  0  0  0  2  0  0  0  0  0  0
  163.0790  210.5130  149.7330 C   0  0  0  0  0  2  0  0  0  0  0  0
  163.0840  211.5250  148.7730 O   0  0  0  0  0  1  0  0  0  0  0  0
  160.2910  209.1870  151.5790 N   0  0  0  0  0  2  0  0  0  0  0  0
  160.4520  210.2360  152.5730 C   0  0  0  0  0  2  0  0  0  0  0  0
  161.7960  210.0910  153.2710 C   0  0  0  0  0  2  0  0  0  0  0  0
  161.6530  210.2670  154.7760 C   0  0  0  0  0  2  0  0  0  0  0  0
  160.3510  209.6440  155.2670 C   0  0  0  0  0  2  0  0  0  0  0  0
  160.5860  208.6300  156.3820 C   0  0  2  0  0  3  0  0  0  0  0  0
  161.9510  208.3940  156.5540 O   0  0  0  0  0  1  0  0  0  0  0  0
  159.8630  207.3250  156.1020 C   0  0  0  0  0  1  0  0  0  0  0  0
  1 15  1  6  0  0  0
  1  9  1  0  0  0  0
  3  2  2  0  0  0  0
  4 17  1  0  0  0  0
  5 18  1  0  0  0  0
  5  4  1  0  0  0  0
  6 23  1  1  0  0  0
  6  7  1  0  0  0  0
  7 25  1  6  0  0  0
  8  2  1  0  0  0  0
  9  7  1  0  0  0  0
  9 13  1  0  0  0  0
 10 12  1  0  0  0  0
 10 13  1  0  0  0  0
 11 10  1  0  0  0  0
 12  3  1  0  0  0  0
 13  8  1  0  0  0  0
 14 11  1  0  0  0  0
 15  6  1  0  0  0  0
 16  4  2  0  0  0  0
 17  1  1  0  0  0  0
 17 11  1  0  0  0  0
 18 14  1  0  0  0  0
 20 18  1  0  0  0  0
 20 19  1  0  0  0  0
 21 22  1  0  0  0  0
 22  5  1  0  0  0  0
 24 23  1  0  0  0  0
 25 26  1  0  0  0  0
 26 27  1  0  0  0  0
 27 28  1  0  0  0  0
 28 29  1  0  0  0  0
 29 30  1  0  0  0  0
 30 31  1  0  0  0  0
 32 30  1  0  0  0  0
M  END
>  <MODEL>
8

>  <REMARK>
 VINA RESULT:      -5.5      1.833      7.690
  Name = 
  9 active torsions:
  status: ('A' for Active; 'I' for Inactive)
    1  A    between atoms: C_1  and  C_24
    2  A    between atoms: C_2  and  C_10
    3  A    between atoms: C_2  and  C_12
    4  A    between atoms: N_7  and  C_22
    5  A    between atoms: C_8  and  C_19
    6  A    between atoms: C_9  and  N_21
    7  A    between atoms: C_10  and  C_24
    8  A    between atoms: C_12  and  N_21
    9  A    between atoms: C_30  and  C_32
                            x       y       z     vdW  Elec       q    Type
                         _______ _______ _______ _____ _____    ______ ____

>  <TORSDO>
F 9

$$$$
=
 OpenBabel11062410453D

 32 35  0  0  1  0  0  0  0  0999 V2000
  160.9460  205.6920  152.2020 N   0  0  1  0  0  0  0  0  0  0  0  0
  162.6730  207.9730  148.2320 C   0  0  0  0  0  3  0  0  0  0  0  0
  162.0840  209.0930  148.6430 C   0  0  0  0  0  3  0  0  0  0  0  0
  160.8340  207.1180  154.2290 C   0  0  0  0  0  0  0  0  0  0  0  0
  161.0600  208.3860  154.8690 N   0  0  0  0  0  0  0  0  0  0  0  0
  161.1490  203.3380  151.7740 C   0  0  2  0  0  3  0  0  0  0  0  0
  161.3610  204.0920  150.4720 C   0  0  2  0  0  3  0  0  0  0  0  0
  162.7160  206.7630  149.1110 C   0  0  0  0  0  2  0  0  0  0  0  0
  161.6750  205.4930  150.9590 C   0  0  1  0  0  3  0  0  0  0  0  0
  161.1610  207.9520  150.7290 C   0  0  1  0  0  3  0  0  0  0  0  0
  161.9110  208.0220  152.0740 C   0  0  1  0  0  3  0  0  0  0  0  0
  161.3970  209.1380  149.8990 N   0  0  0  0  0  2  0  0  0  0  0  0
  161.4530  206.6360  149.9650 C   0  0  1  0  0  3  0  0  0  0  0  0
  161.6920  209.3820  152.7540 C   0  0  0  0  0  2  0  0  0  0  0  0
  161.1220  204.4050  152.8660 C   0  0  0  0  0  2  0  0  0  0  0  0
  160.0350  206.2880  154.7410 O   0  0  0  0  0  0  0  0  0  0  0  0
  161.6050  206.7660  152.9690 C   0  0  2  0  0  3  0  0  0  0  0  0
  162.0080  209.3110  154.2370 C   0  0  1  0  0  3  0  0  0  0  0  0
  162.9860  210.8710  155.7620 O   0  0  0  0  0  1  0  0  0  0  0  0
  161.9640  210.7160  154.8260 C   0  0  0  0  0  2  0  0  0  0  0  0
  159.1730  209.5890  155.8570 C   0  0  0  0  0  1  0  0  0  0  0  0
  160.3790  208.7070  156.1230 C   0  0  0  0  0  2  0  0  0  0  0  0
  162.2990  202.3770  152.0090 C   0  0  0  0  0  2  0  0  0  0  0  0
  162.0710  201.1850  151.3220 O   0  0  0  0  0  1  0  0  0  0  0  0
  160.1210  204.0810  149.7080 N   0  0  0  0  0  2  0  0  0  0  0  0
  160.0330  202.7850  149.0540 C   0  0  0  0  0  2  0  0  0  0  0  0
  161.2480  202.5650  148.1660 C   0  0  0  0  0  2  0  0  0  0  0  0
  160.8330  202.1400  146.7650 C   0  0  0  0  0  2  0  0  0  0  0  0
  161.2730  203.1780  145.7390 C   0  0  0  0  0  2  0  0  0  0  0  0
  161.8050  204.4460  146.3970 C   0  0  2  0  0  3  0  0  0  0  0  0
  161.0050  205.5430  146.0730 O   0  0  0  0  0  1  0  0  0  0  0  0
  163.2440  204.7130  145.9950 C   0  0  0  0  0  1  0  0  0  0  0  0
  1 15  1  1  0  0  0
  1 17  1  0  0  0  0
  2  3  2  0  0  0  0
  2  8  1  0  0  0  0
  3 12  1  0  0  0  0
  4 16  2  0  0  0  0
  4  5  1  0  0  0  0
  5 22  1  0  0  0  0
  6 23  1  1  0  0  0
  6 15  1  0  0  0  0
  7 25  1  6  0  0  0
  7  9  1  0  0  0  0
  7  6  1  0  0  0  0
  8 13  1  0  0  0  0
  9  1  1  0  0  0  0
 10 11  1  0  0  0  0
 11 14  1  0  0  0  0
 11 17  1  0  0  0  0
 12 10  1  0  0  0  0
 13 10  1  0  0  0  0
 13  9  1  0  0  0  0
 14 18  1  0  0  0  0
 17  4  1  0  0  0  0
 18 20  1  0  0  0  0
 18  5  1  0  0  0  0
 20 19  1  0  0  0  0
 21 22  1  0  0  0  0
 24 23  1  0  0  0  0
 26 25  1  0  0  0  0
 27 26  1  0  0  0  0
 28 27  1  0  0  0  0
 29 30  1  0  0  0  0
 29 28  1  0  0  0  0
 31 30  1  0  0  0  0
 32 30  1  0  0  0  0
M  END
>  <MODEL>
9

>  <REMARK>
 VINA RESULT:      -5.4      2.160      4.717
  Name = 
  9 active torsions:
  status: ('A' for Active; 'I' for Inactive)
    1  A    between atoms: C_1  and  C_24
    2  A    between atoms: C_2  and  C_10
    3  A    between atoms: C_2  and  C_12
    4  A    between atoms: N_7  and  C_22
    5  A    between atoms: C_8  and  C_19
    6  A    between atoms: C_9  and  N_21
    7  A    between atoms: C_10  and  C_24
    8  A    between atoms: C_12  and  N_21
    9  A    between atoms: C_30  and  C_32
                            x       y       z     vdW  Elec       q    Type
                         _______ _______ _______ _____ _____    ______ ____

>  <TORSDO>
F 9

$$$$
