=
 OpenBabel11062410373D

 32 38  0  0  1  0  0  0  0  0999 V2000
  160.3790  209.5250  154.6940 C   0  0  0  0  0  3  0  0  0  0  0  0
  161.2380  206.5720  150.3480 C   0  0  0  0  0  0  0  0  0  0  0  0
  160.9010  202.1090  152.3040 C   0  0  0  0  0  3  0  0  0  0  0  0
  160.8610  201.5500  151.0270 C   0  0  0  0  0  3  0  0  0  0  0  0
  161.2740  206.8290  147.7970 C   0  0  0  0  0  0  0  0  0  0  0  0
  161.2130  206.1150  146.5240 C   0  0  0  0  0  0  0  0  0  0  0  0
  161.7210  208.5260  151.8900 C   0  0  2  0  0  3  0  0  0  0  0  0
  161.2900  206.3080  152.8860 C   0  0  0  0  0  2  0  0  0  0  0  0
  161.0700  204.2660  145.1470 C   0  0  0  0  0  0  0  0  0  0  0  0
  161.2180  208.3230  154.3400 C   0  0  0  0  0  2  0  0  0  0  0  0
  161.0020  203.4920  152.4560 C   0  0  0  0  0  3  0  0  0  0  0  0
  161.1600  205.7330  151.4900 C   0  0  0  0  0  0  0  0  0  0  0  0
  161.0640  204.3380  151.3340 C   0  0  0  0  0  0  0  0  0  0  0  0
  161.0910  204.5860  148.9040 C   0  0  0  0  0  0  0  0  0  0  0  0
  161.1670  205.4760  144.2730 C   0  0  0  0  0  2  0  0  0  0  0  0
  160.2240  210.5050  152.3710 C   0  0  0  0  0  2  0  0  0  0  0  0
  160.9160  207.7790  152.9530 C   0  0  1  0  0  3  0  0  0  0  0  0
  161.2560  206.6000  145.2860 C   0  0  0  0  0  3  0  0  0  0  0  0
  161.6330  210.0510  152.0120 C   0  0  0  0  0  2  0  0  0  0  0  0
  159.9670  210.5070  153.8620 C   0  0  0  0  0  0  0  0  0  0  0  0
  160.9210  202.3750  149.9020 C   0  0  0  0  0  3  0  0  0  0  0  0
  161.0230  203.7680  150.0410 C   0  0  0  0  0  0  0  0  0  0  0  0
  161.0450  203.9730  147.5940 N   0  0  0  0  0  0  0  0  0  0  0  0
  161.2430  208.0770  150.5170 C   0  0  0  0  0  2  0  0  0  0  0  0
  161.3920  208.0830  147.8110 O   0  0  0  0  0  0  0  0  0  0  0  0
  160.9780  203.0760  144.7470 O   0  0  0  0  0  0  0  0  0  0  0  0
  161.2010  206.0030  149.0470 C   0  0  0  0  0  0  0  0  0  0  0  0
  161.1010  204.6940  146.5180 C   0  0  0  0  0  0  0  0  0  0  0  0
  157.8070  211.3210  154.8170 C   0  0  0  0  0  0  0  0  0  0  0  0
  159.2510  211.6920  154.4560 C   0  0  1  0  0  3  0  0  0  0  0  0
  156.6510  211.0740  154.5170 O   0  0  0  0  0  0  0  0  0  0  0  0
  158.9290  211.4740  155.8360 C   0  0  0  0  0  2  0  0  0  0  0  0
  2 24  1  0  0  0  0
  2 12  1  0  0  0  0
  3 11  2  0  0  0  0
  4  3  1  0  0  0  0
  5 25  2  0  0  0  0
  5 27  1  0  0  0  0
  6  5  1  0  0  0  0
  7 24  1  6  0  0  0
  7 19  1  0  0  0  0
  7 17  1  0  0  0  0
  9 28  1  0  0  0  0
 10  1  1  0  0  0  0
 12  8  1  0  0  0  0
 13 12  2  0  0  0  0
 13 11  1  0  0  0  0
 14 27  1  0  0  0  0
 14 22  2  0  0  0  0
 15  9  1  0  0  0  0
 15 18  1  0  0  0  0
 16 20  1  0  0  0  0
 17  8  1  1  0  0  0
 17 10  1  0  0  0  0
 18  6  2  0  0  0  0
 19 16  1  0  0  0  0
 20  1  2  0  0  0  0
 21 22  1  0  0  0  0
 21  4  2  0  0  0  0
 22 13  1  0  0  0  0
 23 14  1  0  0  0  0
 26  9  2  0  0  0  0
 27  2  2  0  0  0  0
 28  6  1  0  0  0  0
 28 23  2  0  0  0  0
 29 32  1  0  0  0  0
 30 20  1  6  0  0  0
 30 29  1  0  0  0  0
 30 32  1  0  0  0  0
 31 29  2  0  0  0  0
M  END
>  <MODEL>
1

>  <REMARK>
 VINA RESULT:     -10.6      0.000      0.000
  Name = 
  1 active torsions:
  status: ('A' for Active; 'I' for Inactive)
    1  A    between atoms: C_10  and  C_24
                            x       y       z     vdW  Elec       q    Type
                         _______ _______ _______ _____ _____    ______ ____

>  <TORSDO>
F 1

$$$$
=
 OpenBabel11062410373D

 32 38  0  0  1  0  0  0  0  0999 V2000
  161.2940  203.7480  148.4220 C   0  0  0  0  0  3  0  0  0  0  0  0
  161.3010  207.9950  151.6340 C   0  0  0  0  0  0  0  0  0  0  0  0
  161.8770  211.5350  148.3180 C   0  0  0  0  0  3  0  0  0  0  0  0
  161.5690  212.4930  149.2840 C   0  0  0  0  0  3  0  0  0  0  0  0
  160.6720  208.6150  154.0410 C   0  0  0  0  0  0  0  0  0  0  0  0
  160.3590  209.7170  154.9470 C   0  0  0  0  0  0  0  0  0  0  0  0
  161.9750  205.6340  151.0000 C   0  0  2  0  0  3  0  0  0  0  0  0
  162.0130  207.3850  149.2590 C   0  0  0  0  0  2  0  0  0  0  0  0
  160.0450  211.9230  155.5570 C   0  0  0  0  0  0  0  0  0  0  0  0
  162.1240  204.9980  148.5760 C   0  0  0  0  0  2  0  0  0  0  0  0
  161.8860  210.1820  148.6570 C   0  0  0  0  0  3  0  0  0  0  0  0
  161.5900  208.3990  150.3040 C   0  0  0  0  0  0  0  0  0  0  0  0
  161.5860  209.7650  149.9660 C   0  0  0  0  0  0  0  0  0  0  0  0
  160.9800  210.3530  152.2580 C   0  0  0  0  0  0  0  0  0  0  0  0
  159.8090  211.0800  156.7690 C   0  0  0  0  0  2  0  0  0  0  0  0
  160.4720  203.6110  150.8070 C   0  0  0  0  0  2  0  0  0  0  0  0
  161.5350  205.9790  149.5770 C   0  0  1  0  0  3  0  0  0  0  0  0
  160.0450  209.6790  156.2400 C   0  0  0  0  0  3  0  0  0  0  0  0
  161.7820  204.1580  151.3610 C   0  0  0  0  0  2  0  0  0  0  0  0
  160.5990  203.1060  149.3860 C   0  0  0  0  0  0  0  0  0  0  0  0
  161.2690  212.0970  150.5880 C   0  0  0  0  0  3  0  0  0  0  0  0
  161.2750  210.7380  150.9430 C   0  0  0  0  0  0  0  0  0  0  0  0
  160.6630  211.3720  153.2360 N   0  0  0  0  0  0  0  0  0  0  0  0
  161.2110  206.5220  151.9710 C   0  0  0  0  0  2  0  0  0  0  0  0
  160.6740  207.4300  154.4670 O   0  0  0  0  0  0  0  0  0  0  0  0
  159.9650  213.1780  155.5080 O   0  0  0  0  0  0  0  0  0  0  0  0
  160.9910  208.9700  152.6190 C   0  0  0  0  0  0  0  0  0  0  0  0
  160.3800  211.0570  154.4600 C   0  0  0  0  0  0  0  0  0  0  0  0
  161.0080  200.7660  148.6130 C   0  0  0  0  0  0  0  0  0  0  0  0
  159.9500  201.7910  149.0410 C   0  0  1  0  0  3  0  0  0  0  0  0
  161.8050  200.3120  147.8090 O   0  0  0  0  0  0  0  0  0  0  0  0
  160.3170  200.7630  149.9710 C   0  0  0  0  0  2  0  0  0  0  0  0
  1 10  1  0  0  0  0
  1 20  2  0  0  0  0
  2 24  1  0  0  0  0
  2 27  1  0  0  0  0
  3 11  2  0  0  0  0
  3  4  1  0  0  0  0
  4 21  2  0  0  0  0
  5 25  2  0  0  0  0
  5  6  1  0  0  0  0
  6 18  2  0  0  0  0
  7 19  1  1  0  0  0
  7 24  1  0  0  0  0
  8 17  1  0  0  0  0
  8 12  1  0  0  0  0
  9 15  1  0  0  0  0
 11 13  1  0  0  0  0
 12  2  2  0  0  0  0
 13 12  1  0  0  0  0
 13 22  2  0  0  0  0
 14 27  2  0  0  0  0
 14 23  1  0  0  0  0
 16 19  1  0  0  0  0
 17 10  1  6  0  0  0
 17  7  1  0  0  0  0
 18 15  1  0  0  0  0
 20 16  1  0  0  0  0
 21 22  1  0  0  0  0
 22 14  1  0  0  0  0
 23 28  2  0  0  0  0
 26  9  2  0  0  0  0
 27  5  1  0  0  0  0
 28  6  1  0  0  0  0
 28  9  1  0  0  0  0
 29 30  1  0  0  0  0
 29 32  1  0  0  0  0
 30 20  1  1  0  0  0
 30 32  1  0  0  0  0
 31 29  2  0  0  0  0
M  END
>  <MODEL>
2

>  <REMARK>
 VINA RESULT:      -9.7      2.819      8.950
  Name = 
  1 active torsions:
  status: ('A' for Active; 'I' for Inactive)
    1  A    between atoms: C_10  and  C_24
                            x       y       z     vdW  Elec       q    Type
                         _______ _______ _______ _____ _____    ______ ____

>  <TORSDO>
F 1

$$$$
=
 OpenBabel11062410373D

 32 38  0  0  1  0  0  0  0  0999 V2000
  161.2010  212.6200  150.1320 C   0  0  0  0  0  3  0  0  0  0  0  0
  161.6240  207.3800  149.2890 C   0  0  0  0  0  0  0  0  0  0  0  0
  160.9970  205.7570  153.8530 C   0  0  0  0  0  3  0  0  0  0  0  0
  160.8550  204.4560  153.3730 C   0  0  0  0  0  3  0  0  0  0  0  0
  161.5740  205.7120  147.3420 C   0  0  0  0  0  0  0  0  0  0  0  0
  161.4000  204.3090  146.9760 C   0  0  0  0  0  0  0  0  0  0  0  0
  162.3350  209.7920  148.9580 C   0  0  2  0  0  3  0  0  0  0  0  0
  161.7610  209.0270  151.2350 C   0  0  0  0  0  2  0  0  0  0  0  0
  161.0440  202.0580  147.3550 C   0  0  0  0  0  0  0  0  0  0  0  0
  161.9200  211.4650  150.7820 C   0  0  0  0  0  2  0  0  0  0  0  0
  161.2200  206.8080  152.9620 C   0  0  0  0  0  3  0  0  0  0  0  0
  161.5250  207.6360  150.6820 C   0  0  0  0  0  0  0  0  0  0  0  0
  161.3050  206.5740  151.5780 C   0  0  0  0  0  0  0  0  0  0  0  0
  161.2510  204.9880  149.7210 C   0  0  0  0  0  0  0  0  0  0  0  0
  161.2050  202.2500  145.8810 C   0  0  0  0  0  2  0  0  0  0  0  0
  161.0320  211.6300  147.8140 C   0  0  0  0  0  2  0  0  0  0  0  0
  161.5160  210.1180  150.2070 C   0  0  1  0  0  3  0  0  0  0  0  0
  161.4310  203.7450  145.7710 C   0  0  0  0  0  3  0  0  0  0  0  0
  162.3810  210.9350  147.9390 C   0  0  0  0  0  2  0  0  0  0  0  0
  160.8390  212.7300  148.8340 C   0  0  0  0  0  0  0  0  0  0  0  0
  160.9380  204.2050  152.0020 C   0  0  0  0  0  3  0  0  0  0  0  0
  161.1620  205.2520  151.0950 C   0  0  0  0  0  0  0  0  0  0  0  0
  161.0980  203.6250  149.2570 N   0  0  0  0  0  0  0  0  0  0  0  0
  161.7630  208.5350  148.3190 C   0  0  0  0  0  2  0  0  0  0  0  0
  161.7980  206.5740  146.4500 O   0  0  0  0  0  0  0  0  0  0  0  0
  160.8350  200.9610  147.9360 O   0  0  0  0  0  0  0  0  0  0  0  0
  161.4850  206.0540  148.8000 C   0  0  0  0  0  0  0  0  0  0  0  0
  161.1680  203.3390  147.9950 C   0  0  0  0  0  0  0  0  0  0  0  0
  158.8180  213.8280  147.8580 C   0  0  0  0  0  0  0  0  0  0  0  0
  160.2510  214.0360  148.3670 C   0  0  1  0  0  3  0  0  0  0  0  0
  158.0160  213.4420  147.0240 O   0  0  0  0  0  0  0  0  0  0  0  0
  159.1640  214.4530  149.2040 C   0  0  0  0  0  2  0  0  0  0  0  0
  1 10  1  0  0  0  0
  2 12  1  0  0  0  0
  4  3  1  0  0  0  0
  5 27  1  0  0  0  0
  6  5  1  0  0  0  0
  6 28  1  0  0  0  0
  7 19  1  6  0  0  0
  7 17  1  0  0  0  0
  9 26  2  0  0  0  0
  9 28  1  0  0  0  0
 11  3  2  0  0  0  0
 12  8  1  0  0  0  0
 12 13  2  0  0  0  0
 13 11  1  0  0  0  0
 14 22  2  0  0  0  0
 15  9  1  0  0  0  0
 16 19  1  0  0  0  0
 16 20  1  0  0  0  0
 17 10  1  1  0  0  0
 17  8  1  0  0  0  0
 18 15  1  0  0  0  0
 18  6  2  0  0  0  0
 20  1  2  0  0  0  0
 21  4  2  0  0  0  0
 22 13  1  0  0  0  0
 22 21  1  0  0  0  0
 23 14  1  0  0  0  0
 24  7  1  0  0  0  0
 24  2  1  0  0  0  0
 25  5  2  0  0  0  0
 27  2  2  0  0  0  0
 27 14  1  0  0  0  0
 28 23  2  0  0  0  0
 29 30  1  0  0  0  0
 29 32  1  0  0  0  0
 30 20  1  1  0  0  0
 30 32  1  0  0  0  0
 31 29  2  0  0  0  0
M  END
>  <MODEL>
3

>  <REMARK>
 VINA RESULT:      -8.7      2.834      3.983
  Name = 
  1 active torsions:
  status: ('A' for Active; 'I' for Inactive)
    1  A    between atoms: C_10  and  C_24
                            x       y       z     vdW  Elec       q    Type
                         _______ _______ _______ _____ _____    ______ ____

>  <TORSDO>
F 1

$$$$
=
 OpenBabel11062410373D

 32 38  0  0  1  0  0  0  0  0999 V2000
  161.2490  203.2810  146.9930 C   0  0  0  0  0  3  0  0  0  0  0  0
  161.4030  206.5430  151.1970 C   0  0  0  0  0  0  0  0  0  0  0  0
  161.9630  210.8190  148.9030 C   0  0  0  0  0  3  0  0  0  0  0  0
  161.6930  211.4950  150.0920 C   0  0  0  0  0  3  0  0  0  0  0  0
  160.8390  206.5220  153.6990 C   0  0  0  0  0  0  0  0  0  0  0  0
  160.5660  207.3520  154.8680 C   0  0  0  0  0  0  0  0  0  0  0  0
  162.0210  204.4220  149.9530 C   0  0  2  0  0  3  0  0  0  0  0  0
  162.0490  206.5660  148.7280 C   0  0  0  0  0  2  0  0  0  0  0  0
  160.3040  209.3260  156.0390 C   0  0  0  0  0  0  0  0  0  0  0  0
  162.1040  204.4380  147.4440 C   0  0  0  0  0  2  0  0  0  0  0  0
  161.9560  209.4240  148.8780 C   0  0  0  0  0  3  0  0  0  0  0  0
  161.6680  207.2770  150.0110 C   0  0  0  0  0  0  0  0  0  0  0  0
  161.6790  208.6830  150.0400 C   0  0  0  0  0  0  0  0  0  0  0  0
  161.1360  208.6600  152.4220 C   0  0  0  0  0  0  0  0  0  0  0  0
  160.0810  208.1990  156.9950 C   0  0  0  0  0  2  0  0  0  0  0  0
  160.4800  202.5350  149.2810 C   0  0  0  0  0  2  0  0  0  0  0  0
  161.5550  205.1310  148.6810 C   0  0  1  0  0  3  0  0  0  0  0  0
  160.2810  206.9820  156.1140 C   0  0  0  0  0  3  0  0  0  0  0  0
  161.8110  202.9050  149.9230 C   0  0  0  0  0  2  0  0  0  0  0  0
  160.5650  202.4160  147.7740 C   0  0  0  0  0  0  0  0  0  0  0  0
  161.4170  210.7760  151.2560 C   0  0  0  0  0  3  0  0  0  0  0  0
  161.4070  209.3720  151.2450 C   0  0  0  0  0  0  0  0  0  0  0  0
  160.8580  209.3930  153.6390 N   0  0  0  0  0  0  0  0  0  0  0  0
  161.2950  205.0340  151.1420 C   0  0  0  0  0  2  0  0  0  0  0  0
  160.8310  205.2660  153.8010 O   0  0  0  0  0  0  0  0  0  0  0  0
  160.2440  210.5520  156.3200 O   0  0  0  0  0  0  0  0  0  0  0  0
  161.1320  207.2310  152.4090 C   0  0  0  0  0  0  0  0  0  0  0  0
  160.5980  208.7730  154.7460 C   0  0  0  0  0  0  0  0  0  0  0  0
  160.0130  201.3380  145.5900 C   0  0  0  0  0  0  0  0  0  0  0  0
  159.8860  201.2440  147.1160 C   0  0  1  0  0  3  0  0  0  0  0  0
  159.7060  201.8160  144.5110 O   0  0  0  0  0  0  0  0  0  0  0  0
  160.8310  200.3900  146.4580 C   0  0  0  0  0  2  0  0  0  0  0  0
  1 10  1  0  0  0  0
  1 20  2  0  0  0  0
  2 27  1  0  0  0  0
  3  4  1  0  0  0  0
  4 21  2  0  0  0  0
  5 25  2  0  0  0  0
  5  6  1  0  0  0  0
  6 18  2  0  0  0  0
  7 19  1  6  0  0  0
  7 24  1  0  0  0  0
  8 12  1  0  0  0  0
  9 26  2  0  0  0  0
  9 15  1  0  0  0  0
 11  3  2  0  0  0  0
 11 13  1  0  0  0  0
 12 13  1  0  0  0  0
 12  2  2  0  0  0  0
 13 22  2  0  0  0  0
 14 23  1  0  0  0  0
 16 19  1  0  0  0  0
 17 10  1  6  0  0  0
 17  8  1  0  0  0  0
 17  7  1  0  0  0  0
 18 15  1  0  0  0  0
 20 16  1  0  0  0  0
 22 21  1  0  0  0  0
 22 14  1  0  0  0  0
 23 28  2  0  0  0  0
 24  2  1  0  0  0  0
 27 14  2  0  0  0  0
 27  5  1  0  0  0  0
 28  6  1  0  0  0  0
 28  9  1  0  0  0  0
 29 32  1  0  0  0  0
 29 30  1  0  0  0  0
 30 20  1  1  0  0  0
 31 29  2  0  0  0  0
 32 30  1  0  0  0  0
M  END
>  <MODEL>
4

>  <REMARK>
 VINA RESULT:      -7.9      2.651      8.958
  Name = 
  1 active torsions:
  status: ('A' for Active; 'I' for Inactive)
    1  A    between atoms: C_10  and  C_24
                            x       y       z     vdW  Elec       q    Type
                         _______ _______ _______ _____ _____    ______ ____

>  <TORSDO>
F 1

$$$$
