=
 OpenBabel11062407513D

 34 39  0  0  1  0  0  0  0  0999 V2000
  161.9680  209.9260  149.1410 C   0  0  0  0  0  0  0  0  0  0  0  0
  161.0590  211.4730  150.7820 C   0  0  0  0  0  0  0  0  0  0  0  0
  161.4130  209.0430  151.3420 C   0  0  0  0  0  0  0  0  0  0  0  0
  161.4560  207.9580  153.6090 C   0  0  1  0  0  3  0  0  0  0  0  0
  161.8870  212.2940  148.6530 C   0  0  0  0  0  3  0  0  0  0  0  0
  161.3000  212.5280  149.8960 C   0  0  0  0  0  3  0  0  0  0  0  0
  161.8560  210.3150  153.5290 C   0  0  0  0  0  2  0  0  0  0  0  0
  161.4920  210.1610  150.4590 C   0  0  0  0  0  0  0  0  0  0  0  0
  160.8590  208.4030  155.2520 S   0  0  0  0  0  0  0  0  0  0  0  0
  162.1950  210.9920  148.2680 C   0  0  0  0  0  3  0  0  0  0  0  0
  161.4750  207.7400  150.7940 C   0  0  0  0  0  0  0  0  0  0  0  0
  162.1730  208.6620  148.6980 N   0  0  0  0  0  0  0  0  0  0  0  0
  160.3060  211.7430  151.9140 O   0  0  0  0  0  1  0  0  0  0  0  0
  160.6590  206.8340  152.9820 C   0  0  0  0  0  2  0  0  0  0  0  0
  161.1580  206.5940  151.6260 N   0  0  0  0  0  0  0  0  0  0  0  0
  161.5690  210.0730  155.0110 C   0  0  2  0  0  3  0  0  0  0  0  0
  161.3930  209.1550  152.7880 N   0  0  0  0  0  0  0  0  0  0  0  0
  161.9080  207.5830  149.4730 C   0  0  0  0  0  3  0  0  0  0  0  0
  161.1280  203.6250  149.3230 C   0  0  0  0  0  0  0  0  0  0  0  0
  161.1060  202.5740  150.2420 C   0  0  0  0  0  3  0  0  0  0  0  0
  161.1650  205.2350  151.1480 C   0  0  0  0  0  0  0  0  0  0  0  0
  161.1050  202.8470  151.6130 C   0  0  0  0  0  3  0  0  0  0  0  0
  161.1530  204.9480  149.7730 C   0  0  0  0  0  3  0  0  0  0  0  0
  161.1300  204.1690  152.0620 C   0  0  0  0  0  3  0  0  0  0  0  0
  161.1200  203.2870  147.6060 Cl  0  0  0  0  0  0  0  0  0  0  0  0
  160.7030  211.1100  155.5710 N   0  0  0  0  0  2  0  0  0  0  0  0
  159.3690  210.8160  155.2400 N   0  0  0  0  0  2  0  0  0  0  0  0
  156.5550  210.8030  155.3780 C   0  0  0  0  0  1  0  0  0  0  0  0
  158.7270  212.0740  154.8820 C   0  0  1  0  0  3  0  0  0  0  0  0
  157.2830  212.1370  155.4210 C   0  0  2  0  0  3  0  0  0  0  0  0
  157.4350  214.0670  156.5760 C   0  0  0  0  0  2  0  0  0  0  0  0
  158.7050  214.4530  155.7900 C   0  0  0  0  0  2  0  0  0  0  0  0
  159.5610  213.2310  155.4510 C   0  0  0  0  0  2  0  0  0  0  0  0
  157.2730  212.6710  156.7180 O   0  0  0  0  0  0  0  0  0  0  0  0
  1  8  1  0  0  0  0
  2 13  1  0  0  0  0
  3 17  1  0  0  0  0
  4 14  1  6  0  0  0
  4  9  1  0  0  0  0
  5  6  1  0  0  0  0
  6  2  2  0  0  0  0
  7 16  1  0  0  0  0
  8  2  1  0  0  0  0
  8  3  2  0  0  0  0
 10  5  2  0  0  0  0
 10  1  1  0  0  0  0
 11  3  1  0  0  0  0
 11 15  1  0  0  0  0
 12  1  2  0  0  0  0
 12 18  1  0  0  0  0
 15 14  1  0  0  0  0
 16  9  1  0  0  0  0
 16 26  1  6  0  0  0
 17  7  1  0  0  0  0
 17  4  1  0  0  0  0
 18 11  2  0  0  0  0
 19 23  2  0  0  0  0
 19 20  1  0  0  0  0
 20 22  2  0  0  0  0
 21 15  1  0  0  0  0
 21 24  2  0  0  0  0
 22 24  1  0  0  0  0
 23 21  1  0  0  0  0
 25 19  1  0  0  0  0
 27 26  1  0  0  0  0
 29 27  1  1  0  0  0
 29 30  1  0  0  0  0
 29 33  1  0  0  0  0
 30 28  1  1  0  0  0
 30 34  1  0  0  0  0
 31 34  1  0  0  0  0
 32 31  1  0  0  0  0
 33 32  1  0  0  0  0
M  END
>  <MODEL>
1

>  <REMARK>
 VINA RESULT:      -7.9      0.000      0.000
  Name = 
  4 active torsions:
  status: ('A' for Active; 'I' for Inactive)
    1  A    between atoms: N_3  and  C_13
    2  A    between atoms: N_3  and  N_17
    3  A    between atoms: C_12  and  N_28
    4  A    between atoms: N_17  and  C_29
                            x       y       z     vdW  Elec       q    Type
                         _______ _______ _______ _____ _____    ______ ____

>  <TORSDO>
F 4

$$$$
=
 OpenBabel11062407513D

 34 39  0  0  1  0  0  0  0  0999 V2000
  160.4150  212.5830  150.5510 C   0  0  0  0  0  0  0  0  0  0  0  0
  161.9490  210.7110  150.3270 C   0  0  0  0  0  0  0  0  0  0  0  0
  160.5420  211.0000  152.3970 C   0  0  0  0  0  0  0  0  0  0  0  0
  160.0460  209.3100  154.1910 C   0  0  1  0  0  3  0  0  0  0  0  0
  161.5510  212.1970  148.4510 C   0  0  0  0  0  3  0  0  0  0  0  0
  162.1980  211.0940  149.0060 C   0  0  0  0  0  3  0  0  0  0  0  0
  160.7540  208.4610  152.0690 C   0  0  0  0  0  2  0  0  0  0  0  0
  160.9650  211.3900  151.0910 C   0  0  0  0  0  0  0  0  0  0  0  0
  160.8040  207.7690  154.7410 S   0  0  0  0  0  0  0  0  0  0  0  0
  160.6820  212.9540  149.2310 C   0  0  0  0  0  3  0  0  0  0  0  0
  159.8890  211.9540  153.2120 C   0  0  0  0  0  0  0  0  0  0  0  0
  159.6540  213.4000  151.3190 N   0  0  0  0  0  0  0  0  0  0  0  0
  162.7590  209.7280  150.8760 O   0  0  0  0  0  1  0  0  0  0  0  0
  160.2390  210.4410  155.1780 C   0  0  0  0  0  2  0  0  0  0  0  0
  159.6670  211.6670  154.6170 N   0  0  0  0  0  0  0  0  0  0  0  0
  160.9220  207.2510  152.9890 C   0  0  2  0  0  3  0  0  0  0  0  0
  160.6320  209.6430  152.9040 N   0  0  0  0  0  0  0  0  0  0  0  0
  159.4130  213.1310  152.6250 C   0  0  0  0  0  3  0  0  0  0  0  0
  157.0420  213.5420  156.5450 C   0  0  0  0  0  0  0  0  0  0  0  0
  157.8310  214.4450  157.2610 C   0  0  0  0  0  3  0  0  0  0  0  0
  159.0380  212.5880  155.5300 C   0  0  0  0  0  0  0  0  0  0  0  0
  159.2200  214.4310  157.1090 C   0  0  0  0  0  3  0  0  0  0  0  0
  157.6420  212.6220  155.6820 C   0  0  0  0  0  3  0  0  0  0  0  0
  159.8190  213.5100  156.2450 C   0  0  0  0  0  3  0  0  0  0  0  0
  155.3020  213.5640  156.7270 Cl  0  0  0  0  0  0  0  0  0  0  0  0
  162.1720  206.5390  152.7240 N   0  0  0  0  0  2  0  0  0  0  0  0
  162.2000  206.1580  151.3710 N   0  0  0  0  0  2  0  0  0  0  0  0
  160.7540  206.5880  148.9920 C   0  0  0  0  0  1  0  0  0  0  0  0
  161.0820  205.2500  151.1560 C   0  0  1  0  0  3  0  0  0  0  0  0
  160.6540  205.2330  149.6740 C   0  0  2  0  0  3  0  0  0  0  0  0
  160.8130  203.0150  149.2990 C   0  0  0  0  0  2  0  0  0  0  0  0
  160.7850  202.7430  150.8180 C   0  0  0  0  0  2  0  0  0  0  0  0
  161.4970  203.8420  151.6080 C   0  0  0  0  0  2  0  0  0  0  0  0
  161.3860  204.2640  148.9700 O   0  0  0  0  0  0  0  0  0  0  0  0
  1  8  2  0  0  0  0
  1 12  1  0  0  0  0
  2 13  1  0  0  0  0
  2  8  1  0  0  0  0
  3 17  1  0  0  0  0
  3 11  2  0  0  0  0
  4  9  1  0  0  0  0
  4 14  1  1  0  0  0
  5  6  1  0  0  0  0
  5 10  2  0  0  0  0
  6  2  2  0  0  0  0
  7 17  1  0  0  0  0
  7 16  1  0  0  0  0
  8  3  1  0  0  0  0
 10  1  1  0  0  0  0
 11 15  1  0  0  0  0
 12 18  2  0  0  0  0
 15 14  1  0  0  0  0
 15 21  1  0  0  0  0
 16 26  1  1  0  0  0
 16  9  1  0  0  0  0
 17  4  1  0  0  0  0
 18 11  1  0  0  0  0
 19 25  1  0  0  0  0
 19 20  1  0  0  0  0
 21 23  1  0  0  0  0
 21 24  2  0  0  0  0
 22 20  2  0  0  0  0
 23 19  2  0  0  0  0
 24 22  1  0  0  0  0
 27 26  1  0  0  0  0
 29 27  1  6  0  0  0
 29 33  1  0  0  0  0
 30 28  1  6  0  0  0
 30 29  1  0  0  0  0
 31 32  1  0  0  0  0
 32 33  1  0  0  0  0
 34 31  1  0  0  0  0
 34 30  1  0  0  0  0
M  END
>  <MODEL>
2

>  <REMARK>
 VINA RESULT:      -7.8      3.263      8.040
  Name = 
  4 active torsions:
  status: ('A' for Active; 'I' for Inactive)
    1  A    between atoms: N_3  and  C_13
    2  A    between atoms: N_3  and  N_17
    3  A    between atoms: C_12  and  N_28
    4  A    between atoms: N_17  and  C_29
                            x       y       z     vdW  Elec       q    Type
                         _______ _______ _______ _____ _____    ______ ____

>  <TORSDO>
F 4

$$$$
=
 OpenBabel11062407513D

 34 39  0  0  1  0  0  0  0  0999 V2000
  162.0550  209.0750  148.9540 C   0  0  0  0  0  0  0  0  0  0  0  0
  161.1730  209.8680  151.0750 C   0  0  0  0  0  0  0  0  0  0  0  0
  161.4630  207.4070  150.6260 C   0  0  0  0  0  0  0  0  0  0  0  0
  161.4630  205.5120  152.2780 C   0  0  1  0  0  3  0  0  0  0  0  0
  162.0360  211.4440  149.4440 C   0  0  0  0  0  3  0  0  0  0  0  0
  161.4460  211.1810  150.6790 C   0  0  0  0  0  3  0  0  0  0  0  0
  161.9210  207.6970  153.1370 C   0  0  0  0  0  2  0  0  0  0  0  0
  161.5760  208.7800  150.2580 C   0  0  0  0  0  0  0  0  0  0  0  0
  160.8650  205.2850  153.9650 S   0  0  0  0  0  0  0  0  0  0  0  0
  162.3150  210.3930  148.5730 C   0  0  0  0  0  3  0  0  0  0  0  0
  161.4970  206.4260  149.6070 C   0  0  0  0  0  0  0  0  0  0  0  0
  162.2320  208.0840  148.0460 N   0  0  0  0  0  0  0  0  0  0  0  0
  160.4180  209.6870  152.2250 O   0  0  0  0  0  1  0  0  0  0  0  0
  160.6440  204.7480  151.2600 C   0  0  0  0  0  2  0  0  0  0  0  0
  161.1460  205.0530  149.9190 N   0  0  0  0  0  0  0  0  0  0  0  0
  161.6180  206.8960  154.4030 C   0  0  2  0  0  3  0  0  0  0  0  0
  161.4360  206.9370  151.9990 N   0  0  0  0  0  0  0  0  0  0  0  0
  161.9360  206.7940  148.3310 C   0  0  0  0  0  3  0  0  0  0  0  0
  161.3180  203.2230  146.6410 C   0  0  0  0  0  0  0  0  0  0  0  0
  161.0020  201.9240  147.0440 C   0  0  0  0  0  3  0  0  0  0  0  0
  161.1230  203.9940  148.9410 C   0  0  0  0  0  0  0  0  0  0  0  0
  160.7380  201.6550  148.3900 C   0  0  0  0  0  3  0  0  0  0  0  0
  161.3740  204.2520  147.5840 C   0  0  0  0  0  3  0  0  0  0  0  0
  160.7950  202.6860  149.3320 C   0  0  0  0  0  3  0  0  0  0  0  0
  161.6390  203.5620  144.9550 Cl  0  0  0  0  0  0  0  0  0  0  0  0
  160.7730  207.6470  155.3300 N   0  0  0  0  0  2  0  0  0  0  0  0
  161.5960  208.3790  156.2050 N   0  0  0  0  0  2  0  0  0  0  0  0
  163.1920  210.6820  156.4930 C   0  0  0  0  0  1  0  0  0  0  0  0
  160.8720  209.5910  156.5640 C   0  0  1  0  0  3  0  0  0  0  0  0
  161.7020  210.8520  156.2460 C   0  0  2  0  0  3  0  0  0  0  0  0
  160.2060  211.9250  154.9450 C   0  0  0  0  0  2  0  0  0  0  0  0
  159.0690  211.0420  155.5010 C   0  0  0  0  0  2  0  0  0  0  0  0
  159.5440  209.6180  155.7940 C   0  0  0  0  0  2  0  0  0  0  0  0
  161.4580  211.2720  154.9290 O   0  0  0  0  0  0  0  0  0  0  0  0
  1  8  1  0  0  0  0
  2 13  1  0  0  0  0
  3 17  1  0  0  0  0
  4 14  1  6  0  0  0
  4  9  1  0  0  0  0
  5  6  2  0  0  0  0
  6  2  1  0  0  0  0
  7 16  1  0  0  0  0
  8  3  1  0  0  0  0
  8  2  2  0  0  0  0
  9 16  1  0  0  0  0
 10  1  2  0  0  0  0
 10  5  1  0  0  0  0
 11 15  1  0  0  0  0
 11  3  2  0  0  0  0
 12 18  2  0  0  0  0
 12  1  1  0  0  0  0
 15 14  1  0  0  0  0
 16 26  1  1  0  0  0
 17  4  1  0  0  0  0
 17  7  1  0  0  0  0
 18 11  1  0  0  0  0
 19 20  2  0  0  0  0
 19 23  1  0  0  0  0
 20 22  1  0  0  0  0
 21 24  1  0  0  0  0
 21 15  1  0  0  0  0
 22 24  2  0  0  0  0
 23 21  2  0  0  0  0
 25 19  1  0  0  0  0
 26 27  1  0  0  0  0
 29 27  1  6  0  0  0
 30 28  1  6  0  0  0
 30 29  1  0  0  0  0
 31 32  1  0  0  0  0
 32 33  1  0  0  0  0
 33 29  1  0  0  0  0
 34 31  1  0  0  0  0
 34 30  1  0  0  0  0
M  END
>  <MODEL>
3

>  <REMARK>
 VINA RESULT:      -7.8      2.014      2.990
  Name = 
  4 active torsions:
  status: ('A' for Active; 'I' for Inactive)
    1  A    between atoms: N_3  and  C_13
    2  A    between atoms: N_3  and  N_17
    3  A    between atoms: C_12  and  N_28
    4  A    between atoms: N_17  and  C_29
                            x       y       z     vdW  Elec       q    Type
                         _______ _______ _______ _____ _____    ______ ____

>  <TORSDO>
F 4

$$$$
=
 OpenBabel11062407513D

 34 39  0  0  1  0  0  0  0  0999 V2000
  161.1690  204.6060  152.7440 C   0  0  0  0  0  0  0  0  0  0  0  0
  160.8330  204.5790  150.3370 C   0  0  0  0  0  0  0  0  0  0  0  0
  161.2990  206.7300  151.5600 C   0  0  0  0  0  0  0  0  0  0  0  0
  162.0140  208.9420  150.6030 C   0  0  1  0  0  3  0  0  0  0  0  0
  160.9840  202.4970  151.5750 C   0  0  0  0  0  3  0  0  0  0  0  0
  160.8090  203.1810  150.3730 C   0  0  0  0  0  3  0  0  0  0  0  0
  162.4120  207.0020  149.2610 C   0  0  0  0  0  2  0  0  0  0  0  0
  161.1230  205.3150  151.5140 C   0  0  0  0  0  0  0  0  0  0  0  0
  161.9560  209.7090  148.9720 S   0  0  0  0  0  0  0  0  0  0  0  0
  161.1360  203.2100  152.7610 C   0  0  0  0  0  3  0  0  0  0  0  0
  161.1670  207.3900  152.8050 C   0  0  0  0  0  0  0  0  0  0  0  0
  161.2060  205.2740  153.9230 N   0  0  0  0  0  0  0  0  0  0  0  0
  160.4670  205.1980  149.1510 O   0  0  0  0  0  1  0  0  0  0  0  0
  161.0440  209.5720  151.5800 C   0  0  0  0  0  2  0  0  0  0  0  0
  161.1000  208.8390  152.8470 N   0  0  0  0  0  0  0  0  0  0  0  0
  162.5880  208.1450  148.2610 C   0  0  2  0  0  3  0  0  0  0  0  0
  161.7240  207.5290  150.4270 N   0  0  0  0  0  0  0  0  0  0  0  0
  161.1730  206.6270  153.9770 C   0  0  0  0  0  3  0  0  0  0  0  0
  161.8690  210.6480  156.0490 C   0  0  0  0  0  0  0  0  0  0  0  0
  160.5860  211.0070  156.4680 C   0  0  0  0  0  3  0  0  0  0  0  0
  160.9370  209.5950  154.0630 C   0  0  0  0  0  0  0  0  0  0  0  0
  159.4770  210.6560  155.6950 C   0  0  0  0  0  3  0  0  0  0  0  0
  162.0430  209.9430  154.8560 C   0  0  0  0  0  3  0  0  0  0  0  0
  159.6510  209.9510  154.5010 C   0  0  0  0  0  3  0  0  0  0  0  0
  163.2600  211.0780  157.0210 Cl  0  0  0  0  0  0  0  0  0  0  0  0
  161.9530  207.8440  146.9780 N   0  0  0  0  0  2  0  0  0  0  0  0
  161.3460  206.5780  147.0560 N   0  0  0  0  0  2  0  0  0  0  0  0
  163.4560  204.7240  146.8300 C   0  0  0  0  0  1  0  0  0  0  0  0
  161.4830  205.9540  145.7470 C   0  0  1  0  0  3  0  0  0  0  0  0
  162.3120  204.6560  145.8310 C   0  0  2  0  0  3  0  0  0  0  0  0
  160.8310  203.2440  144.8860 C   0  0  0  0  0  2  0  0  0  0  0  0
  160.0640  204.4350  144.2750 C   0  0  0  0  0  2  0  0  0  0  0  0
  160.0810  205.6570  145.1950 C   0  0  0  0  0  2  0  0  0  0  0  0
  161.4750  203.5630  146.1020 O   0  0  0  0  0  0  0  0  0  0  0  0
  1 10  1  0  0  0  0
  1 12  1  0  0  0  0
  2  6  2  0  0  0  0
  2  8  1  0  0  0  0
  3 11  2  0  0  0  0
  4 14  1  1  0  0  0
  5 10  2  0  0  0  0
  6  5  1  0  0  0  0
  7 17  1  0  0  0  0
  8  3  1  0  0  0  0
  8  1  2  0  0  0  0
  9  4  1  0  0  0  0
 11 15  1  0  0  0  0
 11 18  1  0  0  0  0
 12 18  2  0  0  0  0
 13  2  1  0  0  0  0
 14 15  1  0  0  0  0
 15 21  1  0  0  0  0
 16 26  1  6  0  0  0
 16  9  1  0  0  0  0
 16  7  1  0  0  0  0
 17  4  1  0  0  0  0
 17  3  1  0  0  0  0
 19 20  1  0  0  0  0
 19 25  1  0  0  0  0
 21 24  2  0  0  0  0
 21 23  1  0  0  0  0
 22 20  2  0  0  0  0
 23 19  2  0  0  0  0
 24 22  1  0  0  0  0
 26 27  1  0  0  0  0
 29 30  1  0  0  0  0
 29 27  1  1  0  0  0
 30 34  1  0  0  0  0
 30 28  1  1  0  0  0
 31 34  1  0  0  0  0
 32 31  1  0  0  0  0
 32 33  1  0  0  0  0
 33 29  1  0  0  0  0
M  END
>  <MODEL>
4

>  <REMARK>
 VINA RESULT:      -7.4      3.884      8.975
  Name = 
  4 active torsions:
  status: ('A' for Active; 'I' for Inactive)
    1  A    between atoms: N_3  and  C_13
    2  A    between atoms: N_3  and  N_17
    3  A    between atoms: C_12  and  N_28
    4  A    between atoms: N_17  and  C_29
                            x       y       z     vdW  Elec       q    Type
                         _______ _______ _______ _____ _____    ______ ____

>  <TORSDO>
F 4

$$$$
=
 OpenBabel11062407513D

 34 39  0  0  1  0  0  0  0  0999 V2000
  161.3280  205.2570  150.6550 C   0  0  0  0  0  0  0  0  0  0  0  0
  160.9500  206.4880  148.5940 C   0  0  0  0  0  0  0  0  0  0  0  0
  161.2400  207.6870  150.7900 C   0  0  0  0  0  0  0  0  0  0  0  0
  161.7310  210.1200  151.1830 C   0  0  1  0  0  3  0  0  0  0  0  0
  161.3150  204.0900  148.5360 C   0  0  0  0  0  3  0  0  0  0  0  0
  161.0550  205.2910  147.8780 C   0  0  0  0  0  3  0  0  0  0  0  0
  162.2790  209.2390  149.0270 C   0  0  0  0  0  2  0  0  0  0  0  0
  161.1940  206.5060  149.9910 C   0  0  0  0  0  0  0  0  0  0  0  0
  161.5720  211.6310  150.2100 S   0  0  0  0  0  0  0  0  0  0  0  0
  161.4240  204.0700  149.9240 C   0  0  0  0  0  3  0  0  0  0  0  0
  161.0730  207.5660  152.1900 C   0  0  0  0  0  0  0  0  0  0  0  0
  161.3260  205.1930  152.0090 N   0  0  0  0  0  0  0  0  0  0  0  0
  160.5060  207.6100  147.9090 O   0  0  0  0  0  1  0  0  0  0  0  0
  160.7270  210.0440  152.3130 C   0  0  0  0  0  2  0  0  0  0  0  0
  160.8730  208.7570  152.9950 N   0  0  0  0  0  0  0  0  0  0  0  0
  162.3310  210.7500  148.7960 C   0  0  2  0  0  3  0  0  0  0  0  0
  161.5690  209.0010  150.2710 N   0  0  0  0  0  0  0  0  0  0  0  0
  161.1700  206.2990  152.7750 C   0  0  0  0  0  3  0  0  0  0  0  0
  159.8170  209.7470  156.4630 C   0  0  0  0  0  0  0  0  0  0  0  0
  160.3370  208.6900  157.2120 C   0  0  0  0  0  3  0  0  0  0  0  0
  160.6650  208.7300  154.4210 C   0  0  0  0  0  0  0  0  0  0  0  0
  161.0280  207.6560  156.5750 C   0  0  0  0  0  3  0  0  0  0  0  0
  159.9840  209.7690  155.0760 C   0  0  0  0  0  3  0  0  0  0  0  0
  161.1940  207.6790  155.1870 C   0  0  0  0  0  3  0  0  0  0  0  0
  158.9600  211.0470  157.2610 Cl  0  0  0  0  0  0  0  0  0  0  0  0
  161.7020  211.1250  147.5310 N   0  0  0  0  0  2  0  0  0  0  0  0
  162.2250  212.3610  147.1110 N   0  0  0  0  0  2  0  0  0  0  0  0
  162.8080  213.5290  144.6150 C   0  0  0  0  0  1  0  0  0  0  0  0
  161.1300  213.1100  146.5090 C   0  0  1  0  0  3  0  0  0  0  0  0
  161.3540  213.3040  144.9950 C   0  0  2  0  0  3  0  0  0  0  0  0
  159.4140  212.4300  144.2500 C   0  0  0  0  0  2  0  0  0  0  0  0
  158.7900  212.5830  145.6530 C   0  0  0  0  0  2  0  0  0  0  0  0
  159.8180  212.3540  146.7620 C   0  0  0  0  0  2  0  0  0  0  0  0
  160.8110  212.2240  144.2830 O   0  0  0  0  0  0  0  0  0  0  0  0
  1 12  1  0  0  0  0
  2  8  1  0  0  0  0
  3 11  2  0  0  0  0
  4 14  1  1  0  0  0
  5 10  2  0  0  0  0
  6  5  1  0  0  0  0
  6  2  2  0  0  0  0
  7 17  1  0  0  0  0
  8  1  2  0  0  0  0
  8  3  1  0  0  0  0
  9  4  1  0  0  0  0
 10  1  1  0  0  0  0
 11 18  1  0  0  0  0
 11 15  1  0  0  0  0
 12 18  2  0  0  0  0
 13  2  1  0  0  0  0
 14 15  1  0  0  0  0
 15 21  1  0  0  0  0
 16 26  1  6  0  0  0
 16  7  1  0  0  0  0
 16  9  1  0  0  0  0
 17  3  1  0  0  0  0
 17  4  1  0  0  0  0
 19 20  1  0  0  0  0
 19 25  1  0  0  0  0
 21 23  1  0  0  0  0
 21 24  2  0  0  0  0
 22 20  2  0  0  0  0
 23 19  2  0  0  0  0
 24 22  1  0  0  0  0
 27 26  1  0  0  0  0
 29 33  1  0  0  0  0
 29 27  1  6  0  0  0
 30 28  1  1  0  0  0
 30 29  1  0  0  0  0
 31 34  1  0  0  0  0
 31 32  1  0  0  0  0
 32 33  1  0  0  0  0
 34 30  1  0  0  0  0
M  END
>  <MODEL>
5

>  <REMARK>
 VINA RESULT:      -7.4      3.831      7.567
  Name = 
  4 active torsions:
  status: ('A' for Active; 'I' for Inactive)
    1  A    between atoms: N_3  and  C_13
    2  A    between atoms: N_3  and  N_17
    3  A    between atoms: C_12  and  N_28
    4  A    between atoms: N_17  and  C_29
                            x       y       z     vdW  Elec       q    Type
                         _______ _______ _______ _____ _____    ______ ____

>  <TORSDO>
F 4

$$$$
=
 OpenBabel11062407513D

 34 39  0  0  1  0  0  0  0  0999 V2000
  160.9980  207.8560  154.4470 C   0  0  0  0  0  0  0  0  0  0  0  0
  162.1180  209.8480  153.6180 C   0  0  0  0  0  0  0  0  0  0  0  0
  161.5140  207.9560  152.0690 C   0  0  0  0  0  0  0  0  0  0  0  0
  161.4170  207.9700  149.5580 C   0  0  1  0  0  3  0  0  0  0  0  0
  161.3250  209.7560  155.9090 C   0  0  0  0  0  3  0  0  0  0  0  0
  161.9700  210.4360  154.8780 C   0  0  0  0  0  3  0  0  0  0  0  0
  161.2770  210.0890  150.6580 C   0  0  0  0  0  2  0  0  0  0  0  0
  161.5340  208.5830  153.3500 C   0  0  0  0  0  0  0  0  0  0  0  0
  162.1070  209.0110  148.2560 S   0  0  0  0  0  0  0  0  0  0  0  0
  160.8650  208.4580  155.7000 C   0  0  0  0  0  3  0  0  0  0  0  0
  161.2930  206.5600  152.0010 C   0  0  0  0  0  0  0  0  0  0  0  0
  160.6420  206.5570  154.3040 N   0  0  0  0  0  0  0  0  0  0  0  0
  162.9290  210.4950  152.6970 O   0  0  0  0  0  1  0  0  0  0  0  0
  162.0670  206.6030  149.6180 C   0  0  0  0  0  2  0  0  0  0  0  0
  161.5060  205.8590  150.7480 N   0  0  0  0  0  0  0  0  0  0  0  0
  161.5780  210.4800  149.2110 C   0  0  2  0  0  3  0  0  0  0  0  0
  161.5880  208.6790  150.8140 N   0  0  0  0  0  0  0  0  0  0  0  0
  160.8080  205.8970  153.1330 C   0  0  0  0  0  3  0  0  0  0  0  0
  160.8340  202.4980  149.2060 C   0  0  0  0  0  0  0  0  0  0  0  0
  160.9330  201.6670  150.3240 C   0  0  0  0  0  3  0  0  0  0  0  0
  161.3350  204.4360  150.5900 C   0  0  0  0  0  0  0  0  0  0  0  0
  161.2230  202.2140  151.5760 C   0  0  0  0  0  3  0  0  0  0  0  0
  161.0300  203.8750  149.3390 C   0  0  0  0  0  3  0  0  0  0  0  0
  161.4190  203.5920  151.7090 C   0  0  0  0  0  3  0  0  0  0  0  0
  160.4620  201.8160  147.6380 Cl  0  0  0  0  0  0  0  0  0  0  0  0
  162.5690  211.5530  149.1360 N   0  0  0  0  0  2  0  0  0  0  0  0
  161.9470  212.7140  148.6450 N   0  0  0  0  0  2  0  0  0  0  0  0
  159.2380  213.1610  148.0120 C   0  0  0  0  0  1  0  0  0  0  0  0
  161.5860  212.4560  147.2580 C   0  0  1  0  0  3  0  0  0  0  0  0
  160.2600  213.1520  146.8870 C   0  0  2  0  0  3  0  0  0  0  0  0
  160.9790  214.3230  145.1000 C   0  0  0  0  0  2  0  0  0  0  0  0
  162.2170  213.4100  144.9820 C   0  0  0  0  0  2  0  0  0  0  0  0
  162.7220  212.9540  146.3520 C   0  0  0  0  0  2  0  0  0  0  0  0
  160.5090  214.4530  146.4260 O   0  0  0  0  0  0  0  0  0  0  0  0
  1 10  2  0  0  0  0
  2  6  1  0  0  0  0
  3  8  1  0  0  0  0
  4 14  1  1  0  0  0
  4 17  1  0  0  0  0
  6  5  2  0  0  0  0
  7 17  1  0  0  0  0
  8  2  2  0  0  0  0
  8  1  1  0  0  0  0
  9 16  1  0  0  0  0
  9  4  1  0  0  0  0
 10  5  1  0  0  0  0
 11  3  2  0  0  0  0
 11 18  1  0  0  0  0
 12  1  1  0  0  0  0
 13  2  1  0  0  0  0
 14 15  1  0  0  0  0
 15 11  1  0  0  0  0
 16 26  1  1  0  0  0
 16  7  1  0  0  0  0
 17  3  1  0  0  0  0
 18 12  2  0  0  0  0
 19 23  2  0  0  0  0
 19 20  1  0  0  0  0
 20 22  2  0  0  0  0
 21 15  1  0  0  0  0
 21 24  2  0  0  0  0
 22 24  1  0  0  0  0
 23 21  1  0  0  0  0
 25 19  1  0  0  0  0
 27 26  1  0  0  0  0
 29 27  1  1  0  0  0
 30 29  1  0  0  0  0
 30 28  1  1  0  0  0
 31 34  1  0  0  0  0
 32 31  1  0  0  0  0
 32 33  1  0  0  0  0
 33 29  1  0  0  0  0
 34 30  1  0  0  0  0
M  END
>  <MODEL>
6

>  <REMARK>
 VINA RESULT:      -7.3      3.089      5.982
  Name = 
  4 active torsions:
  status: ('A' for Active; 'I' for Inactive)
    1  A    between atoms: N_3  and  C_13
    2  A    between atoms: N_3  and  N_17
    3  A    between atoms: C_12  and  N_28
    4  A    between atoms: N_17  and  C_29
                            x       y       z     vdW  Elec       q    Type
                         _______ _______ _______ _____ _____    ______ ____

>  <TORSDO>
F 4

$$$$
=
 OpenBabel11062407513D

 34 39  0  0  1  0  0  0  0  0999 V2000
  161.9960  209.3930  149.4190 C   0  0  0  0  0  0  0  0  0  0  0  0
  160.9520  210.5970  151.2540 C   0  0  0  0  0  0  0  0  0  0  0  0
  161.3110  208.1060  151.3690 C   0  0  0  0  0  0  0  0  0  0  0  0
  161.2190  206.6120  153.3880 C   0  0  1  0  0  3  0  0  0  0  0  0
  161.9070  211.8100  149.3820 C   0  0  0  0  0  3  0  0  0  0  0  0
  161.2330  211.8010  150.6020 C   0  0  0  0  0  3  0  0  0  0  0  0
  161.5820  208.9430  153.7830 C   0  0  0  0  0  2  0  0  0  0  0  0
  161.4290  209.3710  150.7210 C   0  0  0  0  0  0  0  0  0  0  0  0
  160.5050  206.7340  155.0400 S   0  0  0  0  0  0  0  0  0  0  0  0
  162.2630  210.6060  148.7800 C   0  0  0  0  0  3  0  0  0  0  0  0
  161.4330  206.9310  150.5910 C   0  0  0  0  0  0  0  0  0  0  0  0
  162.2530  208.2360  148.7610 N   0  0  0  0  0  0  0  0  0  0  0  0
  160.1190  210.6430  152.3620 O   0  0  0  0  0  1  0  0  0  0  0  0
  160.4870  205.6220  152.5070 C   0  0  0  0  0  2  0  0  0  0  0  0
  161.0800  205.6470  151.1680 N   0  0  0  0  0  0  0  0  0  0  0  0
  161.2000  208.4230  155.1690 C   0  0  2  0  0  3  0  0  0  0  0  0
  161.1910  207.9420  152.8060 N   0  0  0  0  0  0  0  0  0  0  0  0
  161.9560  207.0290  149.2980 C   0  0  0  0  0  3  0  0  0  0  0  0
  161.2060  203.1650  148.3490 C   0  0  0  0  0  0  0  0  0  0  0  0
  161.1950  201.9600  149.0540 C   0  0  0  0  0  3  0  0  0  0  0  0
  161.1440  204.4020  150.4440 C   0  0  0  0  0  0  0  0  0  0  0  0
  161.1510  201.9690  150.4500 C   0  0  0  0  0  3  0  0  0  0  0  0
  161.1760  204.3790  149.0400 C   0  0  0  0  0  3  0  0  0  0  0  0
  161.1210  203.1830  151.1400 C   0  0  0  0  0  3  0  0  0  0  0  0
  161.2520  203.1560  146.6000 Cl  0  0  0  0  0  0  0  0  0  0  0  0
  160.2800  209.3310  155.8520 N   0  0  0  0  0  2  0  0  0  0  0  0
  160.1440  210.5030  155.0880 N   0  0  0  0  0  2  0  0  0  0  0  0
  160.7560  212.5790  156.8910 C   0  0  0  0  0  1  0  0  0  0  0  0
  158.9930  211.2270  155.6100 C   0  0  1  0  0  3  0  0  0  0  0  0
  159.4090  212.5960  156.1870 C   0  0  2  0  0  3  0  0  0  0  0  0
  158.0240  213.9070  154.9850 C   0  0  0  0  0  2  0  0  0  0  0  0
  157.1430  212.6870  154.6440 C   0  0  0  0  0  2  0  0  0  0  0  0
  157.9730  211.4130  154.4770 C   0  0  0  0  0  2  0  0  0  0  0  0
  159.3830  213.5730  155.1810 O   0  0  0  0  0  0  0  0  0  0  0  0
  1  8  1  0  0  0  0
  2 13  1  0  0  0  0
  3 17  1  0  0  0  0
  4 14  1  6  0  0  0
  4  9  1  0  0  0  0
  5  6  1  0  0  0  0
  6  2  2  0  0  0  0
  7 16  1  0  0  0  0
  8  2  1  0  0  0  0
  8  3  2  0  0  0  0
  9 16  1  0  0  0  0
 10  5  2  0  0  0  0
 10  1  1  0  0  0  0
 11 15  1  0  0  0  0
 11  3  1  0  0  0  0
 12 18  1  0  0  0  0
 12  1  2  0  0  0  0
 15 14  1  0  0  0  0
 16 26  1  6  0  0  0
 17  4  1  0  0  0  0
 17  7  1  0  0  0  0
 18 11  2  0  0  0  0
 19 23  2  0  0  0  0
 19 20  1  0  0  0  0
 20 22  2  0  0  0  0
 21 24  2  0  0  0  0
 21 15  1  0  0  0  0
 22 24  1  0  0  0  0
 23 21  1  0  0  0  0
 25 19  1  0  0  0  0
 27 26  1  0  0  0  0
 29 27  1  6  0  0  0
 29 30  1  0  0  0  0
 30 28  1  6  0  0  0
 31 34  1  0  0  0  0
 32 31  1  0  0  0  0
 33 32  1  0  0  0  0
 33 29  1  0  0  0  0
 34 30  1  0  0  0  0
M  END
>  <MODEL>
7

>  <REMARK>
 VINA RESULT:      -6.8      1.158      1.627
  Name = 
  4 active torsions:
  status: ('A' for Active; 'I' for Inactive)
    1  A    between atoms: N_3  and  C_13
    2  A    between atoms: N_3  and  N_17
    3  A    between atoms: C_12  and  N_28
    4  A    between atoms: N_17  and  C_29
                            x       y       z     vdW  Elec       q    Type
                         _______ _______ _______ _____ _____    ______ ____

>  <TORSDO>
F 4

$$$$
=
 OpenBabel11062407513D

 34 39  0  0  1  0  0  0  0  0999 V2000
  161.2900  206.1800  148.5560 C   0  0  0  0  0  0  0  0  0  0  0  0
  161.7190  205.5300  150.8580 C   0  0  0  0  0  0  0  0  0  0  0  0
  161.5170  207.9540  150.2080 C   0  0  0  0  0  0  0  0  0  0  0  0
  161.1690  209.9440  151.7050 C   0  0  1  0  0  3  0  0  0  0  0  0
  161.2180  203.8450  149.1850 C   0  0  0  0  0  3  0  0  0  0  0  0
  161.5400  204.1910  150.4960 C   0  0  0  0  0  3  0  0  0  0  0  0
  160.5530  207.8060  152.5850 C   0  0  0  0  0  2  0  0  0  0  0  0
  161.4890  206.5600  149.9100 C   0  0  0  0  0  0  0  0  0  0  0  0
  161.4060  210.2810  153.4610 S   0  0  0  0  0  0  0  0  0  0  0  0
  161.1200  204.8370  148.2120 C   0  0  0  0  0  3  0  0  0  0  0  0
  161.6900  208.8720  149.1450 C   0  0  0  0  0  0  0  0  0  0  0  0
  161.2990  207.1120  147.5720 N   0  0  0  0  0  0  0  0  0  0  0  0
  162.2200  205.7920  152.1250 O   0  0  0  0  0  1  0  0  0  0  0  0
  162.1780  210.6600  150.8320 C   0  0  0  0  0  2  0  0  0  0  0  0
  161.9640  210.2670  149.4370 N   0  0  0  0  0  0  0  0  0  0  0  0
  160.5860  208.6870  153.8340 C   0  0  2  0  0  3  0  0  0  0  0  0
  161.2600  208.5050  151.5250 N   0  0  0  0  0  0  0  0  0  0  0  0
  161.5250  208.4220  147.8310 C   0  0  0  0  0  3  0  0  0  0  0  0
  161.3600  212.6670  146.6090 C   0  0  0  0  0  0  0  0  0  0  0  0
  162.6490  213.1620  146.3990 C   0  0  0  0  0  3  0  0  0  0  0  0
  162.1820  211.2660  148.4220 C   0  0  0  0  0  0  0  0  0  0  0  0
  163.7080  212.7080  147.1890 C   0  0  0  0  0  3  0  0  0  0  0  0
  161.1290  211.7220  147.6120 C   0  0  0  0  0  3  0  0  0  0  0  0
  163.4760  211.7620  148.1920 C   0  0  0  0  0  3  0  0  0  0  0  0
  160.0340  213.2280  145.6140 Cl  0  0  0  0  0  0  0  0  0  0  0  0
  161.2240  208.0060  154.9590 N   0  0  0  0  0  2  0  0  0  0  0  0
  162.0550  208.9190  155.6330 N   0  0  0  0  0  2  0  0  0  0  0  0
  163.3350  210.9460  157.1120 C   0  0  0  0  0  1  0  0  0  0  0  0
  161.3180  209.3940  156.7960 C   0  0  1  0  0  3  0  0  0  0  0  0
  161.8320  210.7730  157.2580 C   0  0  2  0  0  3  0  0  0  0  0  0
  159.8790  211.8980  157.2100 C   0  0  0  0  0  2  0  0  0  0  0  0
  159.0970  210.5680  157.2160 C   0  0  0  0  0  2  0  0  0  0  0  0
  159.8270  209.4730  156.4360 C   0  0  0  0  0  2  0  0  0  0  0  0
  161.1440  211.7960  156.5880 O   0  0  0  0  0  0  0  0  0  0  0  0
  1  8  1  0  0  0  0
  2 13  1  0  0  0  0
  3 17  1  0  0  0  0
  4 14  1  6  0  0  0
  4  9  1  0  0  0  0
  5  6  2  0  0  0  0
  6  2  1  0  0  0  0
  7 16  1  0  0  0  0
  8  3  1  0  0  0  0
  8  2  2  0  0  0  0
  9 16  1  0  0  0  0
 10  1  2  0  0  0  0
 10  5  1  0  0  0  0
 11 15  1  0  0  0  0
 11  3  2  0  0  0  0
 12 18  2  0  0  0  0
 12  1  1  0  0  0  0
 15 14  1  0  0  0  0
 16 26  1  1  0  0  0
 17  4  1  0  0  0  0
 17  7  1  0  0  0  0
 18 11  1  0  0  0  0
 19 23  1  0  0  0  0
 20 19  2  0  0  0  0
 20 22  1  0  0  0  0
 21 15  1  0  0  0  0
 22 24  2  0  0  0  0
 23 21  2  0  0  0  0
 24 21  1  0  0  0  0
 25 19  1  0  0  0  0
 26 27  1  0  0  0  0
 29 27  1  6  0  0  0
 29 30  1  0  0  0  0
 30 28  1  6  0  0  0
 31 32  1  0  0  0  0
 33 29  1  0  0  0  0
 33 32  1  0  0  0  0
 34 31  1  0  0  0  0
 34 30  1  0  0  0  0
M  END
>  <MODEL>
8

>  <REMARK>
 VINA RESULT:      -6.3      2.782      5.845
  Name = 
  4 active torsions:
  status: ('A' for Active; 'I' for Inactive)
    1  A    between atoms: N_3  and  C_13
    2  A    between atoms: N_3  and  N_17
    3  A    between atoms: C_12  and  N_28
    4  A    between atoms: N_17  and  C_29
                            x       y       z     vdW  Elec       q    Type
                         _______ _______ _______ _____ _____    ______ ____

>  <TORSDO>
F 4

$$$$
=
 OpenBabel11062407513D

 34 39  0  0  1  0  0  0  0  0999 V2000
  160.6190  212.9350  150.0820 C   0  0  0  0  0  0  0  0  0  0  0  0
  162.0180  211.6590  148.5570 C   0  0  0  0  0  0  0  0  0  0  0  0
  161.2090  210.6610  150.7230 C   0  0  0  0  0  0  0  0  0  0  0  0
  161.1830  208.2430  151.4090 C   0  0  1  0  0  3  0  0  0  0  0  0
  161.1580  213.8320  147.9000 C   0  0  0  0  0  3  0  0  0  0  0  0
  161.9160  212.6950  147.6230 C   0  0  0  0  0  3  0  0  0  0  0  0
  161.2980  208.7020  149.0640 C   0  0  0  0  0  2  0  0  0  0  0  0
  161.2780  211.7160  149.7660 C   0  0  0  0  0  0  0  0  0  0  0  0
  162.0410  206.7500  150.8700 S   0  0  0  0  0  0  0  0  0  0  0  0
  160.5340  213.9620  149.1380 C   0  0  0  0  0  3  0  0  0  0  0  0
  160.8050  210.9680  152.0440 C   0  0  0  0  0  0  0  0  0  0  0  0
  160.0970  213.1350  151.3160 N   0  0  0  0  0  0  0  0  0  0  0  0
  162.9330  210.6490  148.3000 O   0  0  0  0  0  1  0  0  0  0  0  0
  161.6420  208.7210  152.7710 C   0  0  0  0  0  2  0  0  0  0  0  0
  160.9560  209.9750  153.0910 N   0  0  0  0  0  0  0  0  0  0  0  0
  161.6880  207.2250  149.1380 C   0  0  2  0  0  3  0  0  0  0  0  0
  161.4130  209.2620  150.4000 N   0  0  0  0  0  0  0  0  0  0  0  0
  160.2050  212.2060  152.2960 C   0  0  0  0  0  3  0  0  0  0  0  0
  158.9950  210.9110  156.1570 C   0  0  0  0  0  0  0  0  0  0  0  0
  159.9540  210.7240  157.1550 C   0  0  0  0  0  3  0  0  0  0  0  0
  160.6010  210.2070  154.4690 C   0  0  0  0  0  0  0  0  0  0  0  0
  161.2380  210.2880  156.8160 C   0  0  0  0  0  3  0  0  0  0  0  0
  159.3180  210.6580  154.8210 C   0  0  0  0  0  3  0  0  0  0  0  0
  161.5590  210.0350  155.4800 C   0  0  0  0  0  3  0  0  0  0  0  0
  157.3900  211.4650  156.5790 Cl  0  0  0  0  0  0  0  0  0  0  0  0
  162.8150  206.9190  148.2580 N   0  0  0  0  0  2  0  0  0  0  0  0
  162.3210  206.5550  146.9940 N   0  0  0  0  0  2  0  0  0  0  0  0
  160.4580  206.1990  144.9100 C   0  0  0  0  0  1  0  0  0  0  0  0
  161.3600  205.4790  147.2010 C   0  0  1  0  0  3  0  0  0  0  0  0
  160.7100  205.0470  145.8700 C   0  0  2  0  0  3  0  0  0  0  0  0
  161.1960  202.8480  145.9520 C   0  0  0  0  0  2  0  0  0  0  0  0
  161.4600  202.9490  147.4700 C   0  0  0  0  0  2  0  0  0  0  0  0
  162.0840  204.2920  147.8520 C   0  0  0  0  0  2  0  0  0  0  0  0
  161.4790  204.0450  145.2590 O   0  0  0  0  0  0  0  0  0  0  0  0
  1 12  1  0  0  0  0
  2  8  1  0  0  0  0
  3 11  2  0  0  0  0
  4 14  1  1  0  0  0
  5 10  2  0  0  0  0
  6  5  1  0  0  0  0
  6  2  2  0  0  0  0
  7 16  1  0  0  0  0
  7 17  1  0  0  0  0
  8  1  2  0  0  0  0
  8  3  1  0  0  0  0
  9  4  1  0  0  0  0
 10  1  1  0  0  0  0
 11 18  1  0  0  0  0
 11 15  1  0  0  0  0
 12 18  2  0  0  0  0
 13  2  1  0  0  0  0
 14 15  1  0  0  0  0
 15 21  1  0  0  0  0
 16 26  1  6  0  0  0
 16  9  1  0  0  0  0
 17  3  1  0  0  0  0
 17  4  1  0  0  0  0
 19 25  1  0  0  0  0
 19 20  1  0  0  0  0
 21 23  1  0  0  0  0
 21 24  2  0  0  0  0
 22 20  2  0  0  0  0
 23 19  2  0  0  0  0
 24 22  1  0  0  0  0
 27 26  1  0  0  0  0
 29 27  1  6  0  0  0
 29 33  1  0  0  0  0
 30 28  1  6  0  0  0
 30 29  1  0  0  0  0
 31 32  1  0  0  0  0
 32 33  1  0  0  0  0
 34 30  1  0  0  0  0
 34 31  1  0  0  0  0
M  END
>  <MODEL>
9

>  <REMARK>
 VINA RESULT:      -6.1      3.681      8.181
  Name = 
  4 active torsions:
  status: ('A' for Active; 'I' for Inactive)
    1  A    between atoms: N_3  and  C_13
    2  A    between atoms: N_3  and  N_17
    3  A    between atoms: C_12  and  N_28
    4  A    between atoms: N_17  and  C_29
                            x       y       z     vdW  Elec       q    Type
                         _______ _______ _______ _____ _____    ______ ____

>  <TORSDO>
F 4

$$$$
