=
 OpenBabel11052421593D

 30 35  0  0  1  0  0  0  0  0999 V2000
  160.9690  210.0440  151.9010 C   0  0  0  0  0  0  0  0  0  0  0  0
  161.2180  211.5610  149.8570 C   0  0  1  0  0  3  0  0  0  0  0  0
  158.7190  212.5850  152.6510 C   0  0  1  0  0  3  0  0  0  0  0  0
  161.0030  209.8230  153.2950 C   0  0  0  0  0  0  0  0  0  0  0  0
  160.8990  208.9380  151.0350 C   0  0  0  0  0  3  0  0  0  0  0  0
  160.9840  205.9880  153.3000 C   0  0  0  0  0  2  0  0  0  0  0  0
  161.9870  208.2860  156.0650 C   0  0  0  0  0  3  0  0  0  0  0  0
  160.9160  207.4270  152.9190 C   0  0  0  0  0  0  0  0  0  0  0  0
  160.8650  206.1870  150.5330 S   0  0  0  0  0  0  0  0  0  0  0  0
  159.9900  211.8320  156.2040 C   0  0  0  0  0  2  0  0  0  0  0  0
  159.5720  212.8230  153.8990 C   0  0  1  0  0  3  0  0  0  0  0  0
  160.9100  207.6480  151.5510 C   0  0  0  0  0  0  0  0  0  0  0  0
  160.8860  208.5110  153.8170 C   0  0  0  0  0  0  0  0  0  0  0  0
  160.9600  212.8770  149.1230 C   0  0  0  0  0  3  0  0  0  0  0  0
  160.2260  210.5660  157.0190 C   0  0  0  0  0  2  0  0  0  0  0  0
  162.3620  209.2450  156.9200 C   0  0  0  0  0  3  0  0  0  0  0  0
  162.2020  204.3290  151.9890 C   0  0  0  0  0  2  0  0  0  0  0  0
  162.6790  211.1980  149.6560 C   0  0  0  0  0  1  0  0  0  0  0  0
  159.3990  213.3320  151.5270 C   0  0  2  0  0  3  0  0  0  0  0  0
  159.9170  213.7350  149.2290 C   0  0  0  0  0  3  0  0  0  0  0  0
  161.2590  205.2650  152.0210 C   0  0  0  0  0  0  0  0  0  0  0  0
  160.8320  211.4560  151.3650 C   0  0  1  0  0  3  0  0  0  0  0  0
  161.1950  210.9890  154.2160 C   0  0  0  0  0  2  0  0  0  0  0  0
  158.9380  213.7910  154.6840 O   0  0  0  0  0  1  0  0  0  0  0  0
  159.8680  211.5440  154.7020 C   0  0  1  0  0  3  0  0  0  0  0  0
  161.6200  210.3900  157.2610 O   0  0  0  0  0  0  0  0  0  0  0  0
  159.5420  207.0730  155.8190 Cl  0  0  0  0  0  0  0  0  0  0  0  0
  158.7680  213.6120  150.1960 C   0  0  0  0  0  2  0  0  0  0  0  0
  159.3710  211.8240  151.4990 C   0  0  1  0  0  3  0  0  0  0  0  0
  160.7080  208.3240  155.3050 C   0  0  1  0  0  3  0  0  0  0  0  0
  1  4  1  0  0  0  0
  2 18  1  1  0  0  0
  2 22  1  0  0  0  0
  3 11  1  0  0  0  0
  4 13  2  0  0  0  0
  4 23  1  0  0  0  0
  5 12  1  0  0  0  0
  5  1  2  0  0  0  0
  7 16  2  0  0  0  0
  8  6  1  0  0  0  0
  8 13  1  0  0  0  0
  9 12  1  0  0  0  0
  9 21  1  0  0  0  0
 10 15  1  0  0  0  0
 11 24  1  0  0  0  0
 11 25  1  0  0  0  0
 12  8  2  0  0  0  0
 13 30  1  0  0  0  0
 14 20  2  0  0  0  0
 14  2  1  0  0  0  0
 15 26  1  0  0  0  0
 16 26  1  0  0  0  0
 17 21  2  0  0  0  0
 19  3  1  0  0  0  0
 20 28  1  0  0  0  0
 21  6  1  0  0  0  0
 22 29  1  0  0  0  0
 22  1  1  0  0  0  0
 23 25  1  0  0  0  0
 25 10  1  0  0  0  0
 28 19  1  0  0  0  0
 29 19  1  0  0  0  0
 29  3  1  0  0  0  0
 30 27  1  0  0  0  0
 30  7  1  0  0  0  0
M  END
>  <MODEL>
1

>  <REMARK>
 VINA RESULT:      -5.6      0.000      0.000
  Name = 
  0 active torsions:
  status: ('A' for Active; 'I' for Inactive)
                            x       y       z     vdW  Elec       q    Type
                         _______ _______ _______ _____ _____    ______ ____

>  <TORSDO>
F 0

$$$$
=
 OpenBabel11052421593D

 30 35  0  0  1  0  0  0  0  0999 V2000
  160.1890  210.3200  152.7940 C   0  0  0  0  0  0  0  0  0  0  0  0
  161.0410  208.3950  154.2470 C   0  0  1  0  0  3  0  0  0  0  0  0
  161.0450  207.9660  150.3840 C   0  0  1  0  0  3  0  0  0  0  0  0
  160.3600  211.2670  151.7610 C   0  0  0  0  0  0  0  0  0  0  0  0
  159.0820  210.4390  153.6540 C   0  0  0  0  0  3  0  0  0  0  0  0
  157.3550  213.5290  152.5070 C   0  0  0  0  0  2  0  0  0  0  0  0
  160.3750  214.3190  150.4620 C   0  0  0  0  0  3  0  0  0  0  0  0
  158.3500  212.4200  152.4810 C   0  0  0  0  0  0  0  0  0  0  0  0
  156.7960  211.7610  154.5750 S   0  0  0  0  0  0  0  0  0  0  0  0
  162.0210  211.1640  148.4810 C   0  0  0  0  0  2  0  0  0  0  0  0
  162.0160  209.0230  149.8540 C   0  0  1  0  0  3  0  0  0  0  0  0
  158.2010  211.5040  153.5100 C   0  0  0  0  0  0  0  0  0  0  0  0
  159.3900  212.2750  151.5420 C   0  0  0  0  0  0  0  0  0  0  0  0
  161.7490  207.0500  154.4120 C   0  0  0  0  0  3  0  0  0  0  0  0
  161.3580  212.5130  148.2290 C   0  0  0  0  0  2  0  0  0  0  0  0
  161.5400  214.4530  149.8180 C   0  0  0  0  0  3  0  0  0  0  0  0
  156.4580  214.4530  154.5800 C   0  0  0  0  0  2  0  0  0  0  0  0
  161.5570  209.3260  155.3310 C   0  0  0  0  0  1  0  0  0  0  0  0
  161.7600  207.2680  151.5180 C   0  0  2  0  0  3  0  0  0  0  0  0
  161.8400  206.0100  153.5480 C   0  0  0  0  0  3  0  0  0  0  0  0
  156.6510  213.3810  153.8170 C   0  0  0  0  0  0  0  0  0  0  0  0
  161.0880  209.1000  152.8550 C   0  0  1  0  0  3  0  0  0  0  0  0
  161.5970  211.2120  150.9170 C   0  0  0  0  0  2  0  0  0  0  0  0
  162.5880  208.5380  148.6730 O   0  0  0  0  0  1  0  0  0  0  0  0
  161.3750  210.4070  149.6490 C   0  0  1  0  0  3  0  0  0  0  0  0
  162.0840  213.5480  148.8890 O   0  0  0  0  0  0  0  0  0  0  0  0
  157.9540  213.5060  149.4680 Cl  0  0  0  0  0  0  0  0  0  0  0  0
  161.3030  205.9820  152.1410 C   0  0  0  0  0  2  0  0  0  0  0  0
  160.5600  208.1280  151.8230 C   0  0  1  0  0  3  0  0  0  0  0  0
  159.4870  213.1350  150.3050 C   0  0  1  0  0  3  0  0  0  0  0  0
  1 22  1  0  0  0  0
  1  5  1  0  0  0  0
  2 14  1  0  0  0  0
  2 18  1  1  0  0  0
  3 19  1  0  0  0  0
  3 29  1  0  0  0  0
  4  1  2  0  0  0  0
  6 21  1  0  0  0  0
  8  6  1  0  0  0  0
  8 12  1  0  0  0  0
 10 25  1  0  0  0  0
 11  3  1  0  0  0  0
 12  5  2  0  0  0  0
 12  9  1  0  0  0  0
 13  4  1  0  0  0  0
 13  8  2  0  0  0  0
 15 10  1  0  0  0  0
 15 26  1  0  0  0  0
 16  7  2  0  0  0  0
 19 29  1  0  0  0  0
 19 28  1  0  0  0  0
 20 14  2  0  0  0  0
 21  9  1  0  0  0  0
 21 17  2  0  0  0  0
 22  2  1  0  0  0  0
 23  4  1  0  0  0  0
 24 11  1  0  0  0  0
 25 11  1  0  0  0  0
 25 23  1  0  0  0  0
 26 16  1  0  0  0  0
 27 30  1  0  0  0  0
 28 20  1  0  0  0  0
 29 22  1  0  0  0  0
 30  7  1  0  0  0  0
 30 13  1  0  0  0  0
M  END
>  <MODEL>
2

>  <REMARK>
 VINA RESULT:      -5.4      3.272      7.083
  Name = 
  0 active torsions:
  status: ('A' for Active; 'I' for Inactive)
                            x       y       z     vdW  Elec       q    Type
                         _______ _______ _______ _____ _____    ______ ____

>  <TORSDO>
F 0

$$$$
=
 OpenBabel11052421593D

 30 35  0  0  1  0  0  0  0  0999 V2000
  159.1510  212.8290  151.4770 C   0  0  0  0  0  0  0  0  0  0  0  0
  160.1690  213.7060  149.3010 C   0  0  1  0  0  3  0  0  0  0  0  0
  156.3300  213.1250  149.4670 C   0  0  1  0  0  3  0  0  0  0  0  0
  158.2470  212.9360  152.5570 C   0  0  0  0  0  0  0  0  0  0  0  0
  160.1780  211.8710  151.5370 C   0  0  0  0  0  3  0  0  0  0  0  0
  159.7580  210.2780  154.8730 C   0  0  0  0  0  2  0  0  0  0  0  0
  157.4060  213.0350  155.7640 C   0  0  0  0  0  3  0  0  0  0  0  0
  159.4230  211.1580  153.7180 C   0  0  0  0  0  0  0  0  0  0  0  0
  161.6160  209.8650  152.8510 S   0  0  0  0  0  0  0  0  0  0  0  0
  154.7710  214.0990  152.8470 C   0  0  0  0  0  2  0  0  0  0  0  0
  155.8120  214.1000  150.5260 C   0  0  1  0  0  3  0  0  0  0  0  0
  160.3230  211.0750  152.6670 C   0  0  0  0  0  0  0  0  0  0  0  0
  158.3250  212.0370  153.6490 C   0  0  0  0  0  0  0  0  0  0  0  0
  160.0320  214.3080  147.9020 C   0  0  0  0  0  3  0  0  0  0  0  0
  154.8170  213.5290  154.2600 C   0  0  0  0  0  2  0  0  0  0  0  0
  156.6170  214.1050  155.9180 C   0  0  0  0  0  3  0  0  0  0  0  0
  162.0530  209.7700  155.5270 C   0  0  0  0  0  2  0  0  0  0  0  0
  161.2810  214.4510  150.0190 C   0  0  0  0  0  1  0  0  0  0  0  0
  157.2300  213.9280  148.5590 C   0  0  2  0  0  3  0  0  0  0  0  0
  159.0260  214.1840  147.0020 C   0  0  0  0  0  3  0  0  0  0  0  0
  161.1260  209.7570  154.5740 C   0  0  0  0  0  0  0  0  0  0  0  0
  158.9000  213.6170  150.2050 C   0  0  1  0  0  3  0  0  0  0  0  0
  157.2250  214.0310  152.5500 C   0  0  0  0  0  2  0  0  0  0  0  0
  154.5010  214.4530  150.1910 O   0  0  0  0  0  1  0  0  0  0  0  0
  155.9050  213.5610  151.9650 C   0  0  1  0  0  3  0  0  0  0  0  0
  155.4970  214.4300  155.1310 O   0  0  0  0  0  0  0  0  0  0  0  0
  156.6900  210.4360  155.2750 Cl  0  0  0  0  0  0  0  0  0  0  0  0
  157.7280  213.4530  147.2260 C   0  0  0  0  0  2  0  0  0  0  0  0
  157.8340  212.8640  149.4400 C   0  0  1  0  0  3  0  0  0  0  0  0
  157.2210  212.0330  154.6800 C   0  0  1  0  0  3  0  0  0  0  0  0
  1  5  2  0  0  0  0
  1  4  1  0  0  0  0
  2 18  1  1  0  0  0
  2 22  1  0  0  0  0
  3 11  1  0  0  0  0
  4 13  2  0  0  0  0
  5 12  1  0  0  0  0
  7 16  2  0  0  0  0
  8  6  1  0  0  0  0
  9 21  1  0  0  0  0
 10 15  1  0  0  0  0
 11 25  1  0  0  0  0
 12  9  1  0  0  0  0
 12  8  2  0  0  0  0
 13  8  1  0  0  0  0
 13 30  1  0  0  0  0
 14  2  1  0  0  0  0
 15 26  1  0  0  0  0
 19 29  1  0  0  0  0
 19  3  1  0  0  0  0
 20 28  1  0  0  0  0
 20 14  2  0  0  0  0
 21  6  1  0  0  0  0
 21 17  2  0  0  0  0
 22  1  1  0  0  0  0
 23  4  1  0  0  0  0
 24 11  1  0  0  0  0
 25 23  1  0  0  0  0
 25 10  1  0  0  0  0
 26 16  1  0  0  0  0
 28 19  1  0  0  0  0
 29  3  1  0  0  0  0
 29 22  1  0  0  0  0
 30 27  1  0  0  0  0
 30  7  1  0  0  0  0
M  END
>  <MODEL>
3

>  <REMARK>
 VINA RESULT:      -4.1      2.969      4.838
  Name = 
  0 active torsions:
  status: ('A' for Active; 'I' for Inactive)
                            x       y       z     vdW  Elec       q    Type
                         _______ _______ _______ _____ _____    ______ ____

>  <TORSDO>
F 0

$$$$
