=
 OpenBabel11062410483D

 32 37  0  0  1  0  0  0  0  0999 V2000
  161.1760  205.0220  146.8800 C   0  0  0  0  0  0  0  0  0  0  0  0
  160.7920  204.7110  150.4110 O   0  0  0  0  0  0  0  0  0  0  0  0
  161.7710  209.1330  152.5270 C   0  0  0  0  0  0  0  0  0  0  0  0
  159.9740  208.3100  157.0170 C   0  0  0  0  0  3  0  0  0  0  0  0
  159.9400  209.6840  157.2610 C   0  0  0  0  0  3  0  0  0  0  0  0
  162.2430  207.3760  150.9980 C   0  0  0  0  0  0  0  0  0  0  0  0
  161.1620  206.8700  153.0980 C   0  0  0  0  0  3  0  0  0  0  0  0
  160.8160  204.4070  148.1010 N   0  0  0  0  0  0  0  0  0  0  0  0
  161.6350  204.9830  151.5300 C   0  0  0  0  0  2  0  0  0  0  0  0
  160.3700  207.8300  155.7660 C   0  0  0  0  0  3  0  0  0  0  0  0
  161.2070  208.2270  153.4360 C   0  0  0  0  0  0  0  0  0  0  0  0
  160.7300  208.7240  154.7450 C   0  0  0  0  0  0  0  0  0  0  0  0
  160.9800  211.1070  153.8950 C   0  0  1  0  0  3  0  0  0  0  0  0
  162.0030  206.5890  147.0250 S   0  0  0  0  0  0  0  0  0  0  0  0
  161.5610  206.5520  148.7970 C   0  0  2  0  0  3  0  0  0  0  0  0
  160.9100  204.4950  145.7690 O   0  0  0  0  0  0  0  0  0  0  0  0
  161.6680  206.4390  151.8710 C   0  0  0  0  0  0  0  0  0  0  0  0
  162.7450  206.9600  149.6560 C   0  0  0  0  0  2  0  0  0  0  0  0
  161.0600  205.1650  149.1130 C   0  0  0  0  0  0  0  0  0  0  0  0
  160.2910  210.5830  156.2510 C   0  0  0  0  0  3  0  0  0  0  0  0
  160.6870  210.1140  154.9930 C   0  0  0  0  0  0  0  0  0  0  0  0
  162.2750  208.6910  151.3430 N   0  0  0  0  0  0  0  0  0  0  0  0
  161.8250  210.5250  152.8530 N   0  0  0  0  0  2  0  0  0  0  0  0
  158.4810  213.3900  151.2190 C   0  0  2  0  0  3  0  0  0  0  0  0
  158.0130  214.3430  152.3180 C   0  0  0  0  0  2  0  0  0  0  0  0
  158.5810  212.8510  154.2700 C   0  0  0  0  0  2  0  0  0  0  0  0
  156.8240  214.4530  154.3830 O   0  0  0  0  0  1  0  0  0  0  0  0
  157.4660  213.5700  153.5180 C   0  0  1  0  0  3  0  0  0  0  0  0
  159.7450  212.6450  151.6330 C   0  0  0  0  0  2  0  0  0  0  0  0
  158.7360  214.1110  150.0680 F   0  0  0  0  0  0  0  0  0  0  0  0
  158.5150  210.5300  152.8420 O   0  0  0  0  0  0  0  0  0  0  0  0
  159.4260  211.6980  153.1500 P   0  0  1  0  0  0  0  0  0  0  0  0
  1 14  1  0  0  0  0
  1  8  1  0  0  0  0
  2  9  1  0  0  0  0
  3 23  1  0  0  0  0
  3 11  1  0  0  0  0
  4  5  1  0  0  0  0
  6 22  1  0  0  0  0
  6 17  2  0  0  0  0
  7 11  2  0  0  0  0
  8 19  2  0  0  0  0
  9 17  1  0  0  0  0
 10  4  2  0  0  0  0
 11 12  1  0  0  0  0
 12 21  2  0  0  0  0
 12 10  1  0  0  0  0
 13 23  1  6  0  0  0
 13 21  1  0  0  0  0
 14 15  1  0  0  0  0
 15 19  1  0  0  0  0
 15 18  1  1  0  0  0
 16  1  2  0  0  0  0
 17  7  1  0  0  0  0
 18  6  1  0  0  0  0
 19  2  1  0  0  0  0
 20  5  2  0  0  0  0
 21 20  1  0  0  0  0
 22  3  2  0  0  0  0
 24 30  1  6  0  0  0
 24 29  1  0  0  0  0
 24 25  1  0  0  0  0
 25 28  1  0  0  0  0
 28 26  1  0  0  0  0
 28 27  1  1  0  0  0
 29 32  1  0  0  0  0
 32 31  2  6  0  0  0
 32 13  1  0  0  0  0
 32 26  1  0  0  0  0
M  END
>  <MODEL>
1

>  <REMARK>
 VINA RESULT:      -8.5      0.000      0.000
  Name = 
  1 active torsions:
  status: ('A' for Active; 'I' for Inactive)
    1  A    between atoms: C_16  and  P_32
                            x       y       z     vdW  Elec       q    Type
                         _______ _______ _______ _____ _____    ______ ____

>  <TORSDO>
F 1

$$$$
=
 OpenBabel11062410483D

 32 37  0  0  1  0  0  0  0  0999 V2000
  161.1680  203.9260  149.5970 C   0  0  0  0  0  0  0  0  0  0  0  0
  160.7680  205.1770  152.9120 O   0  0  0  0  0  0  0  0  0  0  0  0
  161.1050  210.1640  152.7970 C   0  0  0  0  0  0  0  0  0  0  0  0
  159.3560  211.2080  157.2600 C   0  0  0  0  0  3  0  0  0  0  0  0
  159.1330  212.5290  156.8690 C   0  0  0  0  0  3  0  0  0  0  0  0
  161.8360  207.9860  152.1880 C   0  0  0  0  0  0  0  0  0  0  0  0
  160.7960  208.3360  154.3400 C   0  0  0  0  0  3  0  0  0  0  0  0
  160.8730  203.8810  150.9790 N   0  0  0  0  0  0  0  0  0  0  0  0
  161.5460  206.0260  153.7540 C   0  0  0  0  0  2  0  0  0  0  0  0
  159.8350  210.2750  156.3360 C   0  0  0  0  0  3  0  0  0  0  0  0
  160.6520  209.6940  154.0380 C   0  0  0  0  0  0  0  0  0  0  0  0
  160.0900  210.6570  155.0100 C   0  0  0  0  0  0  0  0  0  0  0  0
  160.0310  212.4210  153.1790 C   0  0  1  0  0  3  0  0  0  0  0  0
  161.7750  205.4860  148.9930 S   0  0  0  0  0  0  0  0  0  0  0  0
  161.3100  206.1870  150.6150 C   0  0  2  0  0  3  0  0  0  0  0  0
  160.9950  202.9300  148.8480 O   0  0  0  0  0  0  0  0  0  0  0  0
  161.3780  207.4720  153.4120 C   0  0  0  0  0  0  0  0  0  0  0  0
  162.4130  207.0830  151.1500 C   0  0  0  0  0  2  0  0  0  0  0  0
  160.9950  205.0350  151.5360 C   0  0  0  0  0  0  0  0  0  0  0  0
  159.3780  212.9200  155.5500 C   0  0  0  0  0  3  0  0  0  0  0  0
  159.8560  211.9940  154.6150 C   0  0  0  0  0  0  0  0  0  0  0  0
  161.6850  209.3090  151.9120 N   0  0  0  0  0  0  0  0  0  0  0  0
  160.9660  211.5490  152.4680 N   0  0  0  0  0  2  0  0  0  0  0  0
  157.1680  213.4360  150.1140 C   0  0  2  0  0  3  0  0  0  0  0  0
  156.3790  214.3720  151.0300 C   0  0  0  0  0  2  0  0  0  0  0  0
  157.2180  213.4310  153.2140 C   0  0  0  0  0  2  0  0  0  0  0  0
  155.0760  214.4520  153.0270 O   0  0  0  0  0  1  0  0  0  0  0  0
  155.9970  213.6700  152.3330 C   0  0  1  0  0  3  0  0  0  0  0  0
  158.5610  213.1630  150.6700 C   0  0  0  0  0  2  0  0  0  0  0  0
  157.2830  214.0110  148.8640 F   0  0  0  0  0  0  0  0  0  0  0  0
  157.9050  210.9980  152.1960 O   0  0  0  0  0  0  0  0  0  0  0  0
  158.4260  212.4130  152.3180 P   0  0  1  0  0  0  0  0  0  0  0  0
  1  8  1  0  0  0  0
  2  9  1  0  0  0  0
  3 11  1  0  0  0  0
  5  4  1  0  0  0  0
  6 17  2  0  0  0  0
  8 19  2  0  0  0  0
 10  4  2  0  0  0  0
 11  7  2  0  0  0  0
 11 12  1  0  0  0  0
 12 10  1  0  0  0  0
 13 23  1  6  0  0  0
 13 21  1  0  0  0  0
 14  1  1  0  0  0  0
 14 15  1  0  0  0  0
 15 18  1  1  0  0  0
 15 19  1  0  0  0  0
 16  1  2  0  0  0  0
 17  9  1  0  0  0  0
 17  7  1  0  0  0  0
 18  6  1  0  0  0  0
 19  2  1  0  0  0  0
 20  5  2  0  0  0  0
 21 12  2  0  0  0  0
 21 20  1  0  0  0  0
 22  6  1  0  0  0  0
 22  3  2  0  0  0  0
 23  3  1  0  0  0  0
 24 30  1  6  0  0  0
 24 29  1  0  0  0  0
 24 25  1  0  0  0  0
 25 28  1  0  0  0  0
 28 27  1  1  0  0  0
 28 26  1  0  0  0  0
 29 32  1  0  0  0  0
 32 31  2  6  0  0  0
 32 13  1  0  0  0  0
 32 26  1  0  0  0  0
M  END
>  <MODEL>
2

>  <REMARK>
 VINA RESULT:      -6.0      1.637      2.139
  Name = 
  1 active torsions:
  status: ('A' for Active; 'I' for Inactive)
    1  A    between atoms: C_16  and  P_32
                            x       y       z     vdW  Elec       q    Type
                         _______ _______ _______ _____ _____    ______ ____

>  <TORSDO>
F 1

$$$$
