=
 OpenBabel11062408223D

 32 37  0  0  1  0  0  0  0  0999 V2000
  161.0770  207.3800  150.1380 C   0  0  2  0  0  3  0  0  0  0  0  0
  161.2800  208.7430  152.2090 C   0  0  0  0  0  0  0  0  0  0  0  0
  161.7540  207.1770  148.7810 C   0  0  0  0  0  2  0  0  0  0  0  0
  161.7600  208.5690  150.8140 C   0  0  2  0  0  3  0  0  0  0  0  0
  161.1920  210.0230  152.7670 C   0  0  0  0  0  0  0  0  0  0  0  0
  159.8180  206.7800  156.4110 C   0  0  0  0  0  2  0  0  0  0  0  0
  161.0330  207.5990  152.9750 C   0  0  0  0  0  0  0  0  0  0  0  0
  160.3630  209.1410  156.2690 O   0  0  0  0  0  0  0  0  0  0  0  0
  160.6520  209.0230  154.9060 C   0  0  0  0  0  0  0  0  0  0  0  0
  161.5340  209.8480  150.0130 C   0  0  1  0  0  3  0  0  0  0  0  0
  160.8720  210.1630  154.1230 C   0  0  0  0  0  3  0  0  0  0  0  0
  162.1240  210.9400  150.6920 O   0  0  0  0  0  0  0  0  0  0  0  0
  162.1670  209.6720  148.6330 C   0  0  0  0  0  2  0  0  0  0  0  0
  161.0570  206.3070  152.3420 N   0  0  0  0  0  0  0  0  0  0  0  0
  161.1150  206.1550  151.0450 C   0  0  0  0  0  0  0  0  0  0  0  0
  160.7070  207.7410  154.3290 C   0  0  0  0  0  0  0  0  0  0  0  0
  161.3830  211.2300  151.8740 C   0  0  1  0  0  3  0  0  0  0  0  0
  161.5870  208.4390  147.9260 C   0  0  0  0  0  2  0  0  0  0  0  0
  160.4010  208.0000  157.1270 C   0  0  0  0  0  2  0  0  0  0  0  0
  160.4250  206.6270  155.1260 O   0  0  0  0  0  0  0  0  0  0  0  0
  160.8520  202.3700  150.7590 C   0  0  0  0  0  0  0  0  0  0  0  0
  160.6930  201.2790  151.5460 F   0  0  0  0  0  0  0  0  0  0  0  0
  161.0580  204.7810  150.4980 C   0  0  0  0  0  0  0  0  0  0  0  0
  160.9810  202.2090  149.3780 C   0  0  0  0  0  3  0  0  0  0  0  0
  161.2020  204.6010  149.1150 C   0  0  0  0  0  3  0  0  0  0  0  0
  160.9020  203.6500  151.3260 C   0  0  0  0  0  0  0  0  0  0  0  0
  160.8220  203.7820  152.7090 O   0  0  0  0  0  1  0  0  0  0  0  0
  161.1610  203.3250  148.5490 C   0  0  0  0  0  0  0  0  0  0  0  0
  161.6940  204.1960  146.3150 C   0  0  0  0  0  2  0  0  0  0  0  0
  161.3090  203.1920  147.0930 C   0  0  0  0  0  3  0  0  0  0  0  0
  160.0500  211.9020  151.5560 C   0  0  0  0  0  2  0  0  0  0  0  0
  160.2780  213.1510  150.7280 C   0  0  0  0  0  1  0  0  0  0  0  0
  1  3  1  6  0  0  0
  1  4  1  0  0  0  0
  1 15  1  0  0  0  0
  2  5  2  0  0  0  0
  2  7  1  0  0  0  0
  4  2  1  1  0  0  0
  5 11  1  0  0  0  0
  6 19  1  0  0  0  0
  7 16  2  0  0  0  0
  8 19  1  0  0  0  0
  9  8  1  0  0  0  0
 10 13  1  6  0  0  0
 10 12  1  0  0  0  0
 10  4  1  0  0  0  0
 11  9  2  0  0  0  0
 12 17  1  0  0  0  0
 14  7  1  0  0  0  0
 15 14  2  0  0  0  0
 16  9  1  0  0  0  0
 16 20  1  0  0  0  0
 17 31  1  6  0  0  0
 17  5  1  0  0  0  0
 18 13  1  0  0  0  0
 18  3  1  0  0  0  0
 20  6  1  0  0  0  0
 21 26  1  0  0  0  0
 21 22  1  0  0  0  0
 23 15  1  0  0  0  0
 23 26  2  0  0  0  0
 24 21  2  0  0  0  0
 25 23  1  0  0  0  0
 26 27  1  0  0  0  0
 28 25  2  0  0  0  0
 28 24  1  0  0  0  0
 29 30  2  0  0  0  0
 30 28  1  0  0  0  0
 32 31  1  0  0  0  0
M  END
>  <MODEL>
1

>  <REMARK>
 VINA RESULT:      -8.7      0.000      0.000
  Name = 
  3 active torsions:
  status: ('A' for Active; 'I' for Inactive)
    1  A    between atoms: C_13  and  C_29
    2  A    between atoms: C_15  and  C_26
    3  A    between atoms: C_16  and  C_27
                            x       y       z     vdW  Elec       q    Type
                         _______ _______ _______ _____ _____    ______ ____

>  <TORSDO>
F 3

$$$$
=
 OpenBabel11062408223D

 32 37  0  0  1  0  0  0  0  0999 V2000
  160.9060  205.4100  150.7980 C   0  0  2  0  0  3  0  0  0  0  0  0
  161.2600  204.0820  148.7250 C   0  0  0  0  0  0  0  0  0  0  0  0
  161.3470  205.4630  152.2630 C   0  0  0  0  0  2  0  0  0  0  0  0
  161.4980  204.1390  150.1910 C   0  0  2  0  0  3  0  0  0  0  0  0
  161.0680  202.8490  148.0930 C   0  0  0  0  0  0  0  0  0  0  0  0
  160.9350  206.3640  144.4430 C   0  0  0  0  0  2  0  0  0  0  0  0
  161.3480  205.2690  147.9910 C   0  0  0  0  0  0  0  0  0  0  0  0
  161.0520  203.9420  144.5520 O   0  0  0  0  0  0  0  0  0  0  0  0
  161.1010  203.9770  145.9490 C   0  0  0  0  0  0  0  0  0  0  0  0
  160.9230  202.8980  150.8680 C   0  0  1  0  0  3  0  0  0  0  0  0
  160.9840  202.7980  146.6960 C   0  0  0  0  0  3  0  0  0  0  0  0
  161.4410  201.7380  150.2470 O   0  0  0  0  0  0  0  0  0  0  0  0
  161.3120  202.9310  152.3460 C   0  0  0  0  0  2  0  0  0  0  0  0
  161.4660  206.5220  148.6870 N   0  0  0  0  0  0  0  0  0  0  0  0
  161.3100  206.6320  149.9810 C   0  0  0  0  0  0  0  0  0  0  0  0
  161.2580  205.2160  146.5950 C   0  0  0  0  0  0  0  0  0  0  0  0
  160.8920  201.6070  148.9380 C   0  0  1  0  0  3  0  0  0  0  0  0
  160.8210  204.2280  153.0050 C   0  0  0  0  0  2  0  0  0  0  0  0
  161.4320  205.0790  143.7770 C   0  0  0  0  0  2  0  0  0  0  0  0
  161.3120  206.3800  145.8220 O   0  0  0  0  0  0  0  0  0  0  0  0
  161.9110  210.3550  150.4840 C   0  0  0  0  0  0  0  0  0  0  0  0
  162.3710  211.4330  149.8040 F   0  0  0  0  0  0  0  0  0  0  0  0
  161.3780  207.9820  150.5820 C   0  0  0  0  0  0  0  0  0  0  0  0
  161.4930  210.5030  151.8080 C   0  0  0  0  0  3  0  0  0  0  0  0
  160.9770  208.1450  151.9160 C   0  0  0  0  0  3  0  0  0  0  0  0
  161.8680  209.0970  149.8700 C   0  0  0  0  0  0  0  0  0  0  0  0
  162.3360  208.9630  148.5670 O   0  0  0  0  0  1  0  0  0  0  0  0
  161.0280  209.3980  152.5320 C   0  0  0  0  0  0  0  0  0  0  0  0
  160.6960  208.5240  154.8040 C   0  0  0  0  0  2  0  0  0  0  0  0
  160.5880  209.5160  153.9290 C   0  0  0  0  0  3  0  0  0  0  0  0
  159.4320  201.1640  148.9780 C   0  0  0  0  0  2  0  0  0  0  0  0
  159.1000  200.5730  150.3340 C   0  0  0  0  0  1  0  0  0  0  0  0
  1  3  1  1  0  0  0
  3 18  1  0  0  0  0
  4  2  1  6  0  0  0
  4  1  1  0  0  0  0
  4 10  1  0  0  0  0
  5  2  1  0  0  0  0
  5 17  1  0  0  0  0
  6 20  1  0  0  0  0
  7 14  1  0  0  0  0
  7  2  2  0  0  0  0
  8  9  1  0  0  0  0
  9 16  2  0  0  0  0
  9 11  1  0  0  0  0
 10 13  1  1  0  0  0
 11  5  2  0  0  0  0
 12 10  1  0  0  0  0
 13 18  1  0  0  0  0
 14 15  2  0  0  0  0
 15 23  1  0  0  0  0
 15  1  1  0  0  0  0
 16  7  1  0  0  0  0
 17 31  1  1  0  0  0
 17 12  1  0  0  0  0
 19  6  1  0  0  0  0
 19  8  1  0  0  0  0
 20 16  1  0  0  0  0
 21 24  1  0  0  0  0
 22 21  1  0  0  0  0
 23 25  2  0  0  0  0
 24 28  2  0  0  0  0
 25 28  1  0  0  0  0
 26 21  2  0  0  0  0
 26 23  1  0  0  0  0
 27 26  1  0  0  0  0
 28 30  1  0  0  0  0
 30 29  2  0  0  0  0
 31 32  1  0  0  0  0
M  END
>  <MODEL>
2

>  <REMARK>
 VINA RESULT:      -8.7      3.055      8.425
  Name = 
  3 active torsions:
  status: ('A' for Active; 'I' for Inactive)
    1  A    between atoms: C_13  and  C_29
    2  A    between atoms: C_15  and  C_26
    3  A    between atoms: C_16  and  C_27
                            x       y       z     vdW  Elec       q    Type
                         _______ _______ _______ _____ _____    ______ ____

>  <TORSDO>
F 3

$$$$
=
 OpenBabel11062408223D

 32 37  0  0  1  0  0  0  0  0999 V2000
  161.5740  206.7370  151.4330 C   0  0  2  0  0  3  0  0  0  0  0  0
  161.1220  209.1800  151.5600 C   0  0  0  0  0  0  0  0  0  0  0  0
  161.0690  205.4060  151.9950 C   0  0  0  0  0  2  0  0  0  0  0  0
  160.8170  207.8520  152.1540 C   0  0  2  0  0  3  0  0  0  0  0  0
  161.1440  210.3210  152.3690 C   0  0  0  0  0  0  0  0  0  0  0  0
  162.0460  211.9020  147.6380 C   0  0  0  0  0  2  0  0  0  0  0  0
  161.2680  209.2700  150.1720 C   0  0  0  0  0  0  0  0  0  0  0  0
  161.5300  212.9370  149.7720 O   0  0  0  0  0  0  0  0  0  0  0  0
  161.4120  211.6850  150.3850 C   0  0  0  0  0  0  0  0  0  0  0  0
  161.1450  207.8510  153.6440 C   0  0  1  0  0  3  0  0  0  0  0  0
  161.2950  211.5810  151.7760 C   0  0  0  0  0  3  0  0  0  0  0  0
  160.4800  208.9290  154.2740 O   0  0  0  0  0  0  0  0  0  0  0  0
  160.6870  206.5190  154.2390 C   0  0  0  0  0  2  0  0  0  0  0  0
  161.3180  208.0650  149.3880 N   0  0  0  0  0  0  0  0  0  0  0  0
  161.4200  206.8750  149.9220 C   0  0  0  0  0  0  0  0  0  0  0  0
  161.4240  210.5300  149.5830 C   0  0  0  0  0  0  0  0  0  0  0  0
  161.0700  210.1610  153.8710 C   0  0  1  0  0  3  0  0  0  0  0  0
  161.3460  205.3440  153.5020 C   0  0  0  0  0  2  0  0  0  0  0  0
  161.3830  213.0780  148.3590 C   0  0  0  0  0  2  0  0  0  0  0  0
  161.6020  210.6660  148.2020 O   0  0  0  0  0  0  0  0  0  0  0  0
  162.1630  204.6870  146.9000 C   0  0  0  0  0  0  0  0  0  0  0  0
  162.6800  204.7840  145.6510 F   0  0  0  0  0  0  0  0  0  0  0  0
  161.5390  205.7100  149.0180 C   0  0  0  0  0  0  0  0  0  0  0  0
  161.7090  203.4510  147.3630 C   0  0  0  0  0  3  0  0  0  0  0  0
  161.0740  204.4640  149.4620 C   0  0  0  0  0  3  0  0  0  0  0  0
  162.0700  205.8210  147.7160 C   0  0  0  0  0  0  0  0  0  0  0  0
  162.4820  207.0530  147.2150 O   0  0  0  0  0  1  0  0  0  0  0  0
  161.1580  203.3340  148.6460 C   0  0  0  0  0  0  0  0  0  0  0  0
  161.0900  200.8790  148.7040 C   0  0  0  0  0  2  0  0  0  0  0  0
  160.6640  202.0500  149.1620 C   0  0  0  0  0  3  0  0  0  0  0  0
  162.4340  210.3750  154.5210 C   0  0  0  0  0  2  0  0  0  0  0  0
  162.2800  210.5460  156.0190 C   0  0  0  0  0  1  0  0  0  0  0  0
  1  3  1  1  0  0  0
  1  4  1  0  0  0  0
  2  5  1  0  0  0  0
  3 18  1  0  0  0  0
  4  2  1  6  0  0  0
  4 10  1  0  0  0  0
  5 17  1  0  0  0  0
  6 20  1  0  0  0  0
  6 19  1  0  0  0  0
  7  2  2  0  0  0  0
  8  9  1  0  0  0  0
  9 11  1  0  0  0  0
 10 13  1  1  0  0  0
 10 12  1  0  0  0  0
 11  5  2  0  0  0  0
 14 15  2  0  0  0  0
 14  7  1  0  0  0  0
 15  1  1  0  0  0  0
 16  7  1  0  0  0  0
 16  9  2  0  0  0  0
 17 12  1  0  0  0  0
 17 31  1  6  0  0  0
 18 13  1  0  0  0  0
 19  8  1  0  0  0  0
 20 16  1  0  0  0  0
 21 24  2  0  0  0  0
 21 26  1  0  0  0  0
 22 21  1  0  0  0  0
 23 25  1  0  0  0  0
 23 15  1  0  0  0  0
 24 28  1  0  0  0  0
 26 23  2  0  0  0  0
 27 26  1  0  0  0  0
 28 30  1  0  0  0  0
 28 25  2  0  0  0  0
 29 30  2  0  0  0  0
 31 32  1  0  0  0  0
M  END
>  <MODEL>
3

>  <REMARK>
 VINA RESULT:      -8.3      2.198      4.991
  Name = 
  3 active torsions:
  status: ('A' for Active; 'I' for Inactive)
    1  A    between atoms: C_13  and  C_29
    2  A    between atoms: C_15  and  C_26
    3  A    between atoms: C_16  and  C_27
                            x       y       z     vdW  Elec       q    Type
                         _______ _______ _______ _____ _____    ______ ____

>  <TORSDO>
F 3

$$$$
=
 OpenBabel11062408223D

 32 37  0  0  1  0  0  0  0  0999 V2000
  160.8310  208.5250  152.5090 C   0  0  2  0  0  3  0  0  0  0  0  0
  161.7210  209.0740  150.2520 C   0  0  0  0  0  0  0  0  0  0  0  0
  161.1060  207.6060  153.7010 C   0  0  0  0  0  2  0  0  0  0  0  0
  161.8010  208.1290  151.3960 C   0  0  2  0  0  3  0  0  0  0  0  0
  161.9330  208.6160  148.9470 C   0  0  0  0  0  0  0  0  0  0  0  0
  161.1710  213.6150  148.6000 C   0  0  0  0  0  2  0  0  0  0  0  0
  161.5470  210.4350  150.5240 C   0  0  0  0  0  0  0  0  0  0  0  0
  161.9370  211.8440  147.1280 O   0  0  0  0  0  0  0  0  0  0  0  0
  161.8480  210.9050  148.1600 C   0  0  0  0  0  0  0  0  0  0  0  0
  161.5290  206.7040  150.9250 C   0  0  1  0  0  3  0  0  0  0  0  0
  161.9920  209.5380  147.8950 C   0  0  0  0  0  3  0  0  0  0  0  0
  162.3990  206.3860  149.8560 O   0  0  0  0  0  0  0  0  0  0  0  0
  161.7590  205.7540  152.1010 C   0  0  0  0  0  2  0  0  0  0  0  0
  161.2540  210.8540  151.8690 N   0  0  0  0  0  0  0  0  0  0  0  0
  160.9570  210.0120  152.8250 C   0  0  0  0  0  0  0  0  0  0  0  0
  161.6000  211.3540  149.4700 C   0  0  0  0  0  0  0  0  0  0  0  0
  162.0270  207.1270  148.6970 C   0  0  1  0  0  3  0  0  0  0  0  0
  160.8750  206.1460  153.2920 C   0  0  0  0  0  2  0  0  0  0  0  0
  162.0590  213.2380  147.4130 C   0  0  0  0  0  2  0  0  0  0  0  0
  161.4030  212.7210  149.6920 O   0  0  0  0  0  0  0  0  0  0  0  0
  161.1830  211.4350  156.3460 C   0  0  0  0  0  0  0  0  0  0  0  0
  162.1150  211.7960  157.2610 F   0  0  0  0  0  0  0  0  0  0  0  0
  160.5980  210.5580  154.1520 C   0  0  0  0  0  0  0  0  0  0  0  0
  159.8280  211.5650  156.6560 C   0  0  0  0  0  3  0  0  0  0  0  0
  159.2420  210.6800  154.4850 C   0  0  0  0  0  3  0  0  0  0  0  0
  161.5740  210.9210  155.1030 C   0  0  0  0  0  0  0  0  0  0  0  0
  162.9300  210.7540  154.8350 O   0  0  0  0  0  1  0  0  0  0  0  0
  158.8500  211.1840  155.7280 C   0  0  0  0  0  0  0  0  0  0  0  0
  156.4720  211.0010  155.1380 C   0  0  0  0  0  2  0  0  0  0  0  0
  157.4150  211.3000  156.0230 C   0  0  0  0  0  3  0  0  0  0  0  0
  160.7470  206.5860  148.0650 C   0  0  0  0  0  2  0  0  0  0  0  0
  160.9890  206.2330  146.6110 C   0  0  0  0  0  1  0  0  0  0  0  0
  1 15  1  0  0  0  0
  1  3  1  1  0  0  0
  2  7  1  0  0  0  0
  4  2  1  6  0  0  0
  4  1  1  0  0  0  0
  5  2  2  0  0  0  0
  6 20  1  0  0  0  0
  7 14  1  0  0  0  0
  8 19  1  0  0  0  0
  8  9  1  0  0  0  0
  9 16  1  0  0  0  0
 10  4  1  0  0  0  0
 10 13  1  1  0  0  0
 11  9  2  0  0  0  0
 11  5  1  0  0  0  0
 12 10  1  0  0  0  0
 13 18  1  0  0  0  0
 14 15  2  0  0  0  0
 15 23  1  0  0  0  0
 16 20  1  0  0  0  0
 16  7  2  0  0  0  0
 17 31  1  1  0  0  0
 17  5  1  0  0  0  0
 17 12  1  0  0  0  0
 18  3  1  0  0  0  0
 19  6  1  0  0  0  0
 21 24  1  0  0  0  0
 21 22  1  0  0  0  0
 23 25  2  0  0  0  0
 23 26  1  0  0  0  0
 25 28  1  0  0  0  0
 26 21  2  0  0  0  0
 27 26  1  0  0  0  0
 28 30  1  0  0  0  0
 28 24  2  0  0  0  0
 29 30  2  0  0  0  0
 32 31  1  0  0  0  0
M  END
>  <MODEL>
4

>  <REMARK>
 VINA RESULT:      -8.0      3.274      7.769
  Name = 
  3 active torsions:
  status: ('A' for Active; 'I' for Inactive)
    1  A    between atoms: C_13  and  C_29
    2  A    between atoms: C_15  and  C_26
    3  A    between atoms: C_16  and  C_27
                            x       y       z     vdW  Elec       q    Type
                         _______ _______ _______ _____ _____    ______ ____

>  <TORSDO>
F 3

$$$$
=
 OpenBabel11062408223D

 32 37  0  0  1  0  0  0  0  0999 V2000
  159.7860  209.4190  154.0440 C   0  0  2  0  0  3  0  0  0  0  0  0
  161.3430  209.0980  152.1310 C   0  0  0  0  0  0  0  0  0  0  0  0
  159.6760  209.1390  155.5440 C   0  0  0  0  0  2  0  0  0  0  0  0
  161.0640  208.7440  153.5470 C   0  0  2  0  0  3  0  0  0  0  0  0
  161.9640  208.1710  151.2860 C   0  0  0  0  0  0  0  0  0  0  0  0
  161.3020  212.3850  148.5480 C   0  0  0  0  0  2  0  0  0  0  0  0
  161.0770  210.4030  151.7070 C   0  0  0  0  0  0  0  0  0  0  0  0
  162.5150  210.2970  148.3020 O   0  0  0  0  0  0  0  0  0  0  0  0
  162.1110  209.8770  149.5720 C   0  0  0  0  0  0  0  0  0  0  0  0
  160.9710  207.2300  153.7060 C   0  0  1  0  0  3  0  0  0  0  0  0
  162.3460  208.5640  149.9970 C   0  0  0  0  0  3  0  0  0  0  0  0
  162.1400  206.6280  153.1830 O   0  0  0  0  0  0  0  0  0  0  0  0
  160.8240  206.9080  155.1930 C   0  0  0  0  0  2  0  0  0  0  0  0
  160.3660  211.2980  152.5800 N   0  0  0  0  0  0  0  0  0  0  0  0
  159.7890  210.9010  153.6840 C   0  0  0  0  0  0  0  0  0  0  0  0
  161.4540  210.7910  150.4160 C   0  0  0  0  0  0  0  0  0  0  0  0
  162.1490  206.7480  151.7640 C   0  0  1  0  0  3  0  0  0  0  0  0
  159.6010  207.6250  155.7820 C   0  0  0  0  0  2  0  0  0  0  0  0
  162.5260  211.6830  147.9560 C   0  0  0  0  0  2  0  0  0  0  0  0
  161.1830  212.0780  149.9390 O   0  0  0  0  0  0  0  0  0  0  0  0
  158.8250  213.5470  156.2430 C   0  0  0  0  0  0  0  0  0  0  0  0
  159.3730  214.2540  157.2600 F   0  0  0  0  0  0  0  0  0  0  0  0
  159.0200  211.8930  154.4680 C   0  0  0  0  0  0  0  0  0  0  0  0
  157.4820  213.7400  155.9160 C   0  0  0  0  0  3  0  0  0  0  0  0
  157.6650  212.0870  154.1630 C   0  0  0  0  0  3  0  0  0  0  0  0
  159.5960  212.6180  155.5320 C   0  0  0  0  0  0  0  0  0  0  0  0
  160.9190  212.4060  155.9080 O   0  0  0  0  0  1  0  0  0  0  0  0
  156.8930  213.0070  154.8770 C   0  0  0  0  0  0  0  0  0  0  0  0
  155.0940  213.8210  153.4150 C   0  0  0  0  0  2  0  0  0  0  0  0
  155.4810  213.1790  154.5110 C   0  0  0  0  0  3  0  0  0  0  0  0
  161.1430  205.8050  151.1080 C   0  0  0  0  0  2  0  0  0  0  0  0
  161.4400  204.3700  151.4950 C   0  0  0  0  0  1  0  0  0  0  0  0
  1  3  1  1  0  0  0
  3 18  1  0  0  0  0
  4  2  1  6  0  0  0
  4 10  1  0  0  0  0
  4  1  1  0  0  0  0
  5 17  1  0  0  0  0
  5  2  2  0  0  0  0
  6 20  1  0  0  0  0
  7  2  1  0  0  0  0
  7 14  1  0  0  0  0
  8  9  1  0  0  0  0
  9 11  2  0  0  0  0
  9 16  1  0  0  0  0
 10 13  1  1  0  0  0
 11  5  1  0  0  0  0
 12 10  1  0  0  0  0
 13 18  1  0  0  0  0
 14 15  2  0  0  0  0
 15  1  1  0  0  0  0
 15 23  1  0  0  0  0
 16  7  2  0  0  0  0
 17 31  1  6  0  0  0
 17 12  1  0  0  0  0
 19  8  1  0  0  0  0
 19  6  1  0  0  0  0
 20 16  1  0  0  0  0
 21 22  1  0  0  0  0
 23 26  1  0  0  0  0
 24 21  1  0  0  0  0
 25 23  2  0  0  0  0
 25 28  1  0  0  0  0
 26 27  1  0  0  0  0
 26 21  2  0  0  0  0
 28 24  2  0  0  0  0
 29 30  2  0  0  0  0
 30 28  1  0  0  0  0
 31 32  1  0  0  0  0
M  END
>  <MODEL>
5

>  <REMARK>
 VINA RESULT:      -8.0      3.726      8.454
  Name = 
  3 active torsions:
  status: ('A' for Active; 'I' for Inactive)
    1  A    between atoms: C_13  and  C_29
    2  A    between atoms: C_15  and  C_26
    3  A    between atoms: C_16  and  C_27
                            x       y       z     vdW  Elec       q    Type
                         _______ _______ _______ _____ _____    ______ ____

>  <TORSDO>
F 3

$$$$
=
 OpenBabel11062408223D

 32 37  0  0  1  0  0  0  0  0999 V2000
  161.0180  209.2560  154.2260 C   0  0  2  0  0  3  0  0  0  0  0  0
  159.4030  211.1290  154.4850 C   0  0  0  0  0  0  0  0  0  0  0  0
  161.3590  207.8910  154.8280 C   0  0  0  0  0  2  0  0  0  0  0  0
  159.9150  209.8710  155.0870 C   0  0  2  0  0  3  0  0  0  0  0  0
  158.9570  212.1690  155.3090 C   0  0  0  0  0  0  0  0  0  0  0  0
  158.1990  213.6990  150.5360 C   0  0  0  0  0  2  0  0  0  0  0  0
  159.2710  211.1970  153.0950 C   0  0  0  0  0  0  0  0  0  0  0  0
  157.5530  214.4530  152.7510 O   0  0  0  0  0  0  0  0  0  0  0  0
  158.1860  213.3560  153.3430 C   0  0  0  0  0  0  0  0  0  0  0  0
  160.4160  210.1270  156.5050 C   0  0  1  0  0  3  0  0  0  0  0  0
  158.3490  213.2910  154.7320 C   0  0  0  0  0  3  0  0  0  0  0  0
  159.3950  210.7500  157.2600 O   0  0  0  0  0  0  0  0  0  0  0  0
  160.8010  208.7870  157.1310 C   0  0  0  0  0  2  0  0  0  0  0  0
  159.8140  210.1410  152.2830 N   0  0  0  0  0  0  0  0  0  0  0  0
  160.5910  209.2050  152.7640 C   0  0  0  0  0  0  0  0  0  0  0  0
  158.6690  212.3220  152.5200 C   0  0  0  0  0  0  0  0  0  0  0  0
  159.2020  212.0850  156.7990 C   0  0  1  0  0  3  0  0  0  0  0  0
  161.8500  208.0700  156.2690 C   0  0  0  0  0  2  0  0  0  0  0  0
  157.1440  214.4130  151.3830 C   0  0  0  0  0  2  0  0  0  0  0  0
  158.5430  212.4460  151.1330 O   0  0  0  0  0  0  0  0  0  0  0  0
  162.2920  207.6100  149.7570 C   0  0  0  0  0  0  0  0  0  0  0  0
  162.8960  207.9650  148.5980 F   0  0  0  0  0  0  0  0  0  0  0  0
  161.1540  208.2110  151.8230 C   0  0  0  0  0  0  0  0  0  0  0  0
  162.1760  206.2580  150.0870 C   0  0  0  0  0  3  0  0  0  0  0  0
  161.0320  206.8490  152.1310 C   0  0  0  0  0  3  0  0  0  0  0  0
  161.7730  208.5890  150.6130 C   0  0  0  0  0  0  0  0  0  0  0  0
  161.8540  209.9280  150.2400 O   0  0  0  0  0  1  0  0  0  0  0  0
  161.5420  205.8700  151.2740 C   0  0  0  0  0  0  0  0  0  0  0  0
  161.1970  203.4940  150.7560 C   0  0  0  0  0  2  0  0  0  0  0  0
  161.3960  204.4570  151.6480 C   0  0  0  0  0  3  0  0  0  0  0  0
  160.3420  213.0040  157.2290 C   0  0  0  0  0  2  0  0  0  0  0  0
  159.8950  214.4510  157.1810 C   0  0  0  0  0  1  0  0  0  0  0  0
  1  3  1  1  0  0  0
  1  4  1  0  0  0  0
  2  5  1  0  0  0  0
  3 18  1  0  0  0  0
  4  2  1  6  0  0  0
  4 10  1  0  0  0  0
  5 17  1  0  0  0  0
  6 20  1  0  0  0  0
  6 19  1  0  0  0  0
  7  2  2  0  0  0  0
  8  9  1  0  0  0  0
  9 11  1  0  0  0  0
 10 13  1  1  0  0  0
 10 12  1  0  0  0  0
 11  5  2  0  0  0  0
 14 15  2  0  0  0  0
 14  7  1  0  0  0  0
 15  1  1  0  0  0  0
 16  7  1  0  0  0  0
 16  9  2  0  0  0  0
 17 31  1  6  0  0  0
 17 12  1  0  0  0  0
 18 13  1  0  0  0  0
 19  8  1  0  0  0  0
 20 16  1  0  0  0  0
 21 24  2  0  0  0  0
 21 26  1  0  0  0  0
 22 21  1  0  0  0  0
 23 25  1  0  0  0  0
 23 15  1  0  0  0  0
 24 28  1  0  0  0  0
 26 23  2  0  0  0  0
 27 26  1  0  0  0  0
 28 30  1  0  0  0  0
 28 25  2  0  0  0  0
 29 30  2  0  0  0  0
 32 31  1  0  0  0  0
M  END
>  <MODEL>
6

>  <REMARK>
 VINA RESULT:      -7.9      2.907      5.883
  Name = 
  3 active torsions:
  status: ('A' for Active; 'I' for Inactive)
    1  A    between atoms: C_13  and  C_29
    2  A    between atoms: C_15  and  C_26
    3  A    between atoms: C_16  and  C_27
                            x       y       z     vdW  Elec       q    Type
                         _______ _______ _______ _____ _____    ______ ____

>  <TORSDO>
F 3

$$$$
=
 OpenBabel11062408223D

 32 37  0  0  1  0  0  0  0  0999 V2000
  161.7030  207.7950  150.7020 C   0  0  2  0  0  3  0  0  0  0  0  0
  161.1360  205.8210  149.2990 C   0  0  0  0  0  0  0  0  0  0  0  0
  161.4490  209.3020  150.7860 C   0  0  0  0  0  2  0  0  0  0  0  0
  161.0830  207.3030  149.3940 C   0  0  2  0  0  3  0  0  0  0  0  0
  161.2890  205.2030  148.0530 C   0  0  0  0  0  0  0  0  0  0  0  0
  160.8400  201.4720  151.4550 C   0  0  0  0  0  2  0  0  0  0  0  0
  160.9150  205.0720  150.4590 C   0  0  0  0  0  0  0  0  0  0  0  0
  160.8210  201.6600  149.0350 O   0  0  0  0  0  0  0  0  0  0  0  0
  160.9480  203.0510  149.1120 C   0  0  0  0  0  0  0  0  0  0  0  0
  161.7810  207.9350  148.1940 C   0  0  1  0  0  3  0  0  0  0  0  0
  161.1980  203.8080  147.9610 C   0  0  0  0  0  3  0  0  0  0  0  0
  161.2290  207.4160  146.9990 O   0  0  0  0  0  0  0  0  0  0  0  0
  161.5810  209.4490  148.2610 C   0  0  0  0  0  2  0  0  0  0  0  0
  160.8430  205.7430  151.7300 N   0  0  0  0  0  0  0  0  0  0  0  0
  161.1580  207.0030  151.8840 C   0  0  0  0  0  0  0  0  0  0  0  0
  160.8310  203.6780  150.3660 C   0  0  0  0  0  0  0  0  0  0  0  0
  161.6130  206.0530  146.8440 C   0  0  1  0  0  3  0  0  0  0  0  0
  162.1060  210.0050  149.5920 C   0  0  0  0  0  2  0  0  0  0  0  0
  160.3070  200.9090  150.1350 C   0  0  0  0  0  2  0  0  0  0  0  0
  160.6400  202.8870  151.5030 O   0  0  0  0  0  0  0  0  0  0  0  0
  160.9530  207.3480  155.6680 C   0  0  0  0  0  0  0  0  0  0  0  0
  160.8310  206.5760  156.7740 F   0  0  0  0  0  0  0  0  0  0  0  0
  161.1190  207.5710  153.2500 C   0  0  0  0  0  0  0  0  0  0  0  0
  161.0330  208.7350  155.8020 C   0  0  0  0  0  3  0  0  0  0  0  0
  161.1840  208.9630  153.4010 C   0  0  0  0  0  3  0  0  0  0  0  0
  160.9820  206.7610  154.3960 C   0  0  0  0  0  0  0  0  0  0  0  0
  160.8490  205.3800  154.2840 O   0  0  0  0  0  1  0  0  0  0  0  0
  161.1450  209.5510  154.6670 C   0  0  0  0  0  0  0  0  0  0  0  0
  160.4380  211.8280  154.0770 C   0  0  0  0  0  2  0  0  0  0  0  0
  161.2250  211.0140  154.7710 C   0  0  0  0  0  3  0  0  0  0  0  0
  163.0810  205.9190  146.4470 C   0  0  0  0  0  2  0  0  0  0  0  0
  163.2790  204.6910  145.5820 C   0  0  0  0  0  1  0  0  0  0  0  0
  1  3  1  1  0  0  0
  1 15  1  0  0  0  0
  2  7  1  0  0  0  0
  4  2  1  6  0  0  0
  4  1  1  0  0  0  0
  5  2  2  0  0  0  0
  6 20  1  0  0  0  0
  7 14  1  0  0  0  0
  8  9  1  0  0  0  0
  8 19  1  0  0  0  0
  9 16  1  0  0  0  0
 10 13  1  6  0  0  0
 10  4  1  0  0  0  0
 11  5  1  0  0  0  0
 11  9  2  0  0  0  0
 12 10  1  0  0  0  0
 13 18  1  0  0  0  0
 14 15  2  0  0  0  0
 15 23  1  0  0  0  0
 16  7  2  0  0  0  0
 16 20  1  0  0  0  0
 17 31  1  1  0  0  0
 17 12  1  0  0  0  0
 17  5  1  0  0  0  0
 18  3  1  0  0  0  0
 19  6  1  0  0  0  0
 21 24  1  0  0  0  0
 21 22  1  0  0  0  0
 23 25  2  0  0  0  0
 23 26  1  0  0  0  0
 25 28  1  0  0  0  0
 26 21  2  0  0  0  0
 27 26  1  0  0  0  0
 28 30  1  0  0  0  0
 28 24  2  0  0  0  0
 29 30  2  0  0  0  0
 32 31  1  0  0  0  0
M  END
>  <MODEL>
7

>  <REMARK>
 VINA RESULT:      -7.6      2.200      6.641
  Name = 
  3 active torsions:
  status: ('A' for Active; 'I' for Inactive)
    1  A    between atoms: C_13  and  C_29
    2  A    between atoms: C_15  and  C_26
    3  A    between atoms: C_16  and  C_27
                            x       y       z     vdW  Elec       q    Type
                         _______ _______ _______ _____ _____    ______ ____

>  <TORSDO>
F 3

$$$$
=
 OpenBabel11062408223D

 32 37  0  0  1  0  0  0  0  0999 V2000
  160.9080  208.4680  152.5170 C   0  0  2  0  0  3  0  0  0  0  0  0
  161.7550  209.0290  150.2470 C   0  0  0  0  0  0  0  0  0  0  0  0
  161.1950  207.5310  153.6930 C   0  0  0  0  0  2  0  0  0  0  0  0
  161.8460  208.0700  151.3780 C   0  0  2  0  0  3  0  0  0  0  0  0
  161.9300  208.5820  148.9330 C   0  0  0  0  0  0  0  0  0  0  0  0
  161.2370  213.5950  148.6570 C   0  0  0  0  0  2  0  0  0  0  0  0
  161.6080  210.3890  150.5370 C   0  0  0  0  0  0  0  0  0  0  0  0
  161.9430  211.8300  147.1480 O   0  0  0  0  0  0  0  0  0  0  0  0
  161.8630  210.8810  148.1720 C   0  0  0  0  0  0  0  0  0  0  0  0
  161.5430  206.6540  150.8980 C   0  0  1  0  0  3  0  0  0  0  0  0
  161.9800  209.5150  147.8890 C   0  0  0  0  0  3  0  0  0  0  0  0
  162.3830  206.3360  149.8060 O   0  0  0  0  0  0  0  0  0  0  0  0
  161.7840  205.6880  152.0570 C   0  0  0  0  0  2  0  0  0  0  0  0
  161.3510  210.7970  151.8930 N   0  0  0  0  0  0  0  0  0  0  0  0
  161.0630  209.9480  152.8460 C   0  0  0  0  0  0  0  0  0  0  0  0
  161.6510  211.3190  149.4930 C   0  0  0  0  0  0  0  0  0  0  0  0
  161.9970  207.0940  148.6630 C   0  0  1  0  0  3  0  0  0  0  0  0
  160.9320  206.0800  153.2730 C   0  0  0  0  0  2  0  0  0  0  0  0
  162.0930  213.2180  147.4460 C   0  0  0  0  0  2  0  0  0  0  0  0
  161.4800  212.6860  149.7330 O   0  0  0  0  0  0  0  0  0  0  0  0
  159.1710  211.2960  155.8590 C   0  0  0  0  0  0  0  0  0  0  0  0
  157.9040  211.5850  156.2440 F   0  0  0  0  0  0  0  0  0  0  0  0
  160.7420  210.4850  154.1870 C   0  0  0  0  0  0  0  0  0  0  0  0
  160.2270  211.5200  156.7440 C   0  0  0  0  0  3  0  0  0  0  0  0
  161.7930  210.7300  155.0820 C   0  0  0  0  0  3  0  0  0  0  0  0
  159.4220  210.7920  154.5770 C   0  0  0  0  0  0  0  0  0  0  0  0
  158.3590  210.6250  153.6940 O   0  0  0  0  0  1  0  0  0  0  0  0
  161.5450  211.2410  156.3580 C   0  0  0  0  0  0  0  0  0  0  0  0
  163.9260  211.1260  156.9530 C   0  0  0  0  0  2  0  0  0  0  0  0
  162.6810  211.4720  157.2610 C   0  0  0  0  0  3  0  0  0  0  0  0
  160.6950  206.5800  148.0550 C   0  0  0  0  0  2  0  0  0  0  0  0
  160.9130  206.1850  146.6080 C   0  0  0  0  0  1  0  0  0  0  0  0
  1 15  1  0  0  0  0
  1  3  1  1  0  0  0
  2  7  1  0  0  0  0
  4  2  1  6  0  0  0
  4  1  1  0  0  0  0
  5  2  2  0  0  0  0
  6 20  1  0  0  0  0
  7 14  1  0  0  0  0
  8 19  1  0  0  0  0
  8  9  1  0  0  0  0
  9 16  1  0  0  0  0
 10  4  1  0  0  0  0
 10 13  1  1  0  0  0
 11  9  2  0  0  0  0
 11  5  1  0  0  0  0
 12 10  1  0  0  0  0
 13 18  1  0  0  0  0
 14 15  2  0  0  0  0
 15 23  1  0  0  0  0
 16 20  1  0  0  0  0
 16  7  2  0  0  0  0
 17 31  1  1  0  0  0
 17  5  1  0  0  0  0
 17 12  1  0  0  0  0
 18  3  1  0  0  0  0
 19  6  1  0  0  0  0
 21 22  1  0  0  0  0
 21 24  1  0  0  0  0
 23 26  1  0  0  0  0
 23 25  2  0  0  0  0
 25 28  1  0  0  0  0
 26 21  2  0  0  0  0
 27 26  1  0  0  0  0
 28 24  2  0  0  0  0
 28 30  1  0  0  0  0
 29 30  2  0  0  0  0
 32 31  1  0  0  0  0
M  END
>  <MODEL>
8

>  <REMARK>
 VINA RESULT:      -7.5      3.219      7.792
  Name = 
  3 active torsions:
  status: ('A' for Active; 'I' for Inactive)
    1  A    between atoms: C_13  and  C_29
    2  A    between atoms: C_15  and  C_26
    3  A    between atoms: C_16  and  C_27
                            x       y       z     vdW  Elec       q    Type
                         _______ _______ _______ _____ _____    ______ ____

>  <TORSDO>
F 3

$$$$
=
 OpenBabel11062408223D

 32 37  0  0  1  0  0  0  0  0999 V2000
  161.5130  205.6610  150.9260 C   0  0  2  0  0  3  0  0  0  0  0  0
  161.1180  208.0490  151.5030 C   0  0  0  0  0  0  0  0  0  0  0  0
  160.9450  204.2660  151.1950 C   0  0  0  0  0  2  0  0  0  0  0  0
  160.7480  206.6430  151.8130 C   0  0  2  0  0  3  0  0  0  0  0  0
  161.1270  209.0120  152.5180 C   0  0  0  0  0  0  0  0  0  0  0  0
  162.3190  211.4400  148.2320 C   0  0  0  0  0  2  0  0  0  0  0  0
  161.3400  208.3990  150.1680 C   0  0  0  0  0  0  0  0  0  0  0  0
  161.7180  212.0620  150.4990 O   0  0  0  0  0  0  0  0  0  0  0  0
  161.5350  210.7220  150.8510 C   0  0  0  0  0  0  0  0  0  0  0  0
  160.9960  206.3440  153.2880 C   0  0  1  0  0  3  0  0  0  0  0  0
  161.3410  210.3560  152.1890 C   0  0  0  0  0  3  0  0  0  0  0  0
  160.3260  207.3030  154.0840 O   0  0  0  0  0  0  0  0  0  0  0  0
  160.4730  204.9400  153.5910 C   0  0  0  0  0  2  0  0  0  0  0  0
  161.4000  207.3660  149.1680 N   0  0  0  0  0  0  0  0  0  0  0  0
  161.4430  206.0930  149.4650 C   0  0  0  0  0  0  0  0  0  0  0  0
  161.5600  209.7420  149.8420 C   0  0  0  0  0  0  0  0  0  0  0  0
  160.9690  208.5680  153.9560 C   0  0  1  0  0  3  0  0  0  0  0  0
  161.1390  203.9060  152.6730 C   0  0  0  0  0  2  0  0  0  0  0  0
  161.6500  212.4780  149.1350 C   0  0  0  0  0  2  0  0  0  0  0  0
  161.8140  210.1350  148.5240 O   0  0  0  0  0  0  0  0  0  0  0  0
  162.1240  204.5430  146.0580 C   0  0  0  0  0  0  0  0  0  0  0  0
  162.5440  204.9010  144.8210 F   0  0  0  0  0  0  0  0  0  0  0  0
  161.5800  205.1200  148.3590 C   0  0  0  0  0  0  0  0  0  0  0  0
  161.7910  203.2110  146.3130 C   0  0  0  0  0  3  0  0  0  0  0  0
  161.2350  203.7820  148.5940 C   0  0  0  0  0  3  0  0  0  0  0  0
  162.0090  205.5030  147.0710 C   0  0  0  0  0  0  0  0  0  0  0  0
  162.2980  206.8330  146.7810 O   0  0  0  0  0  1  0  0  0  0  0  0
  161.3410  202.8250  147.5830 C   0  0  0  0  0  0  0  0  0  0  0  0
  160.9310  200.9530  149.1210 C   0  0  0  0  0  2  0  0  0  0  0  0
  160.9750  201.4340  147.8840 C   0  0  0  0  0  3  0  0  0  0  0  0
  162.3020  208.6040  154.6990 C   0  0  0  0  0  2  0  0  0  0  0  0
  162.0720  208.8600  156.1750 C   0  0  0  0  0  1  0  0  0  0  0  0
  1  3  1  6  0  0  0
  1  4  1  0  0  0  0
  2  5  1  0  0  0  0
  3 18  1  0  0  0  0
  4  2  1  6  0  0  0
  4 10  1  0  0  0  0
  5 17  1  0  0  0  0
  6 20  1  0  0  0  0
  6 19  1  0  0  0  0
  7  2  2  0  0  0  0
  8  9  1  0  0  0  0
  9 11  1  0  0  0  0
 10 13  1  1  0  0  0
 10 12  1  0  0  0  0
 11  5  2  0  0  0  0
 14 15  2  0  0  0  0
 14  7  1  0  0  0  0
 15  1  1  0  0  0  0
 16  7  1  0  0  0  0
 16  9  2  0  0  0  0
 17 12  1  0  0  0  0
 17 31  1  6  0  0  0
 18 13  1  0  0  0  0
 19  8  1  0  0  0  0
 20 16  1  0  0  0  0
 21 24  2  0  0  0  0
 21 26  1  0  0  0  0
 22 21  1  0  0  0  0
 23 25  1  0  0  0  0
 23 15  1  0  0  0  0
 24 28  1  0  0  0  0
 26 23  2  0  0  0  0
 27 26  1  0  0  0  0
 28 30  1  0  0  0  0
 28 25  2  0  0  0  0
 30 29  2  0  0  0  0
 31 32  1  0  0  0  0
M  END
>  <MODEL>
9

>  <REMARK>
 VINA RESULT:      -7.5      2.214      5.042
  Name = 
  3 active torsions:
  status: ('A' for Active; 'I' for Inactive)
    1  A    between atoms: C_13  and  C_29
    2  A    between atoms: C_15  and  C_26
    3  A    between atoms: C_16  and  C_27
                            x       y       z     vdW  Elec       q    Type
                         _______ _______ _______ _____ _____    ______ ____

>  <TORSDO>
F 3

$$$$
