=
 OpenBabel11062410413D

 32 37  0  0  1  0  0  0  0  0999 V2000
  157.2060  212.2660  156.0000 C   0  0  2  0  0  3  0  0  0  0  0  0
  160.4380  212.3660  155.8710 C   0  0  0  0  0  2  0  0  0  0  0  0
  160.6360  207.5460  153.6420 C   0  0  0  0  0  2  0  0  0  0  0  0
  161.7590  211.2950  149.2120 C   0  0  0  0  0  3  0  0  0  0  0  0
  162.2420  210.1240  148.5950 C   0  0  0  0  0  3  0  0  0  0  0  0
  160.2850  209.4420  155.3370 C   0  0  2  0  0  3  0  0  0  0  0  0
  161.6080  210.7560  153.7070 C   0  0  0  0  0  2  0  0  0  0  0  0
  158.2570  213.0520  156.7790 C   0  0  0  0  0  2  0  0  0  0  0  0
  161.6380  211.4270  155.9780 C   0  0  0  0  0  2  0  0  0  0  0  0
  161.3700  211.2780  150.5610 C   0  0  0  0  0  3  0  0  0  0  0  0
  161.0840  209.7750  152.6630 C   0  0  1  0  0  3  0  0  0  0  0  0
  161.4940  210.0820  151.2680 C   0  0  0  0  0  0  0  0  0  0  0  0
  161.9590  207.8420  151.5630 N   0  0  0  0  0  0  0  0  0  0  0  0
  157.6390  210.8090  156.0000 C   0  0  0  0  0  2  0  0  0  0  0  0
  158.7980  210.7420  156.9700 C   0  0  1  0  0  3  0  0  0  0  0  0
  157.1480  212.7320  154.6880 O   0  0  0  0  0  1  0  0  0  0  0  0
  161.5070  210.2600  155.0950 N   0  0  1  0  0  0  0  0  0  0  0  0
  159.7400  209.5520  156.7650 C   0  0  0  0  0  2  0  0  0  0  0  0
  159.4360  212.1240  156.9960 C   0  0  1  0  0  3  0  0  0  0  0  0
  162.3340  208.9260  149.3220 C   0  0  0  0  0  3  0  0  0  0  0  0
  161.9420  208.9370  150.6610 C   0  0  0  0  0  0  0  0  0  0  0  0
  160.6100  207.9580  155.1140 C   0  0  0  0  0  2  0  0  0  0  0  0
  161.6610  208.3730  152.8920 C   0  0  2  0  0  3  0  0  0  0  0  0
  162.6880  206.5990  151.3330 C   0  0  0  0  0  2  0  0  0  0  0  0
  161.5450  204.4930  151.7080 C   0  0  0  0  0  3  0  0  0  0  0  0
  160.5810  203.3880  151.4250 C   0  0  1  0  0  3  0  0  0  0  0  0
  160.7950  204.6660  148.7260 C   0  0  0  0  0  3  0  0  0  0  0  0
  160.9850  203.2260  148.9800 C   0  0  0  0  0  3  0  0  0  0  0  0
  160.9360  202.6480  150.1800 C   0  0  0  0  0  3  0  0  0  0  0  0
  160.5650  202.5100  152.4920 F   0  0  0  0  0  0  0  0  0  0  0  0
  161.1260  205.6620  149.5560 C   0  0  0  0  0  3  0  0  0  0  0  0
  161.7550  205.5240  150.8870 C   0  0  0  0  0  0  0  0  0  0  0  0
  1 16  1  6  0  0  0
  1 14  1  0  0  0  0
  1  8  1  0  0  0  0
  2  9  1  0  0  0  0
  3 22  1  0  0  0  0
  4 10  1  0  0  0  0
  5  4  2  0  0  0  0
  5 20  1  0  0  0  0
  6 22  1  1  0  0  0
  6 18  1  0  0  0  0
  8 19  1  0  0  0  0
 10 12  2  0  0  0  0
 11 23  1  0  0  0  0
 11  7  1  1  0  0  0
 12 11  1  0  0  0  0
 13 23  1  0  0  0  0
 15 14  1  6  0  0  0
 15 19  1  0  0  0  0
 17  7  1  6  0  0  0
 17  6  1  0  0  0  0
 17  9  1  0  0  0  0
 18 15  1  0  0  0  0
 19  2  1  6  0  0  0
 20 21  2  0  0  0  0
 21 12  1  0  0  0  0
 21 13  1  0  0  0  0
 23  3  1  6  0  0  0
 24 13  1  0  0  0  0
 26 25  1  0  0  0  0
 26 30  1  1  0  0  0
 27 28  1  0  0  0  0
 27 31  2  0  0  0  0
 28 29  2  0  0  0  0
 29 26  1  0  0  0  0
 31 32  1  0  0  0  0
 32 24  1  0  0  0  0
 32 25  2  0  0  0  0
M  END
>  <MODEL>
1

>  <REMARK>
 VINA RESULT:      -8.5      0.000      0.000
  Name = 
  2 active torsions:
  status: ('A' for Active; 'I' for Inactive)
    1  A    between atoms: N_16  and  C_27
    2  A    between atoms: C_27  and  C_32
                            x       y       z     vdW  Elec       q    Type
                         _______ _______ _______ _____ _____    ______ ____

>  <TORSDO>
F 2

$$$$
=
 OpenBabel11062410413D

 32 37  0  0  1  0  0  0  0  0999 V2000
  155.4450  212.1490  155.6350 C   0  0  2  0  0  3  0  0  0  0  0  0
  158.3820  213.5060  155.7000 C   0  0  0  0  0  2  0  0  0  0  0  0
  160.4890  209.4020  153.0620 C   0  0  0  0  0  2  0  0  0  0  0  0
  160.1340  213.7360  149.0580 C   0  0  0  0  0  3  0  0  0  0  0  0
  161.0470  212.9150  148.3670 C   0  0  0  0  0  3  0  0  0  0  0  0
  159.3940  210.8250  154.8970 C   0  0  2  0  0  3  0  0  0  0  0  0
  160.1260  212.7120  153.4700 C   0  0  0  0  0  2  0  0  0  0  0  0
  156.0900  213.1940  156.5390 C   0  0  0  0  0  2  0  0  0  0  0  0
  159.8520  213.1000  155.7910 C   0  0  0  0  0  2  0  0  0  0  0  0
  159.7580  213.4290  150.3750 C   0  0  0  0  0  3  0  0  0  0  0  0
  160.0460  211.7200  152.3140 C   0  0  1  0  0  3  0  0  0  0  0  0
  160.3280  212.3060  150.9780 C   0  0  0  0  0  0  0  0  0  0  0  0
  161.6270  210.4040  151.0970 N   0  0  0  0  0  0  0  0  0  0  0  0
  156.4130  210.9820  155.5280 C   0  0  0  0  0  2  0  0  0  0  0  0
  157.4890  211.2680  156.5530 C   0  0  1  0  0  3  0  0  0  0  0  0
  155.2320  212.6910  154.3680 O   0  0  0  0  0  1  0  0  0  0  0  0
  160.2030  212.0720  154.8000 N   0  0  1  0  0  0  0  0  0  0  0  0
  158.8240  210.5640  156.2960 C   0  0  0  0  0  2  0  0  0  0  0  0
  157.5350  212.7780  156.7390 C   0  0  1  0  0  3  0  0  0  0  0  0
  161.5870  211.7770  148.9880 C   0  0  0  0  0  3  0  0  0  0  0  0
  161.1980  211.4950  150.2980 C   0  0  0  0  0  0  0  0  0  0  0  0
  160.2770  209.6150  154.5610 C   0  0  0  0  0  2  0  0  0  0  0  0
  161.1220  210.6350  152.4490 C   0  0  2  0  0  3  0  0  0  0  0  0
  162.7870  209.5710  150.7990 C   0  0  0  0  0  2  0  0  0  0  0  0
  161.8600  208.1530  149.0650 C   0  0  0  0  0  3  0  0  0  0  0  0
  161.4590  206.8710  148.4120 C   0  0  1  0  0  3  0  0  0  0  0  0
  161.6830  206.0120  151.2720 C   0  0  0  0  0  3  0  0  0  0  0  0
  160.5010  205.7710  150.4230 C   0  0  0  0  0  3  0  0  0  0  0  0
  160.3680  206.1840  149.1630 C   0  0  0  0  0  3  0  0  0  0  0  0
  161.0370  207.1270  147.1220 F   0  0  0  0  0  0  0  0  0  0  0  0
  162.4880  207.0790  151.2150 C   0  0  0  0  0  3  0  0  0  0  0  0
  162.3540  208.2340  150.3020 C   0  0  0  0  0  0  0  0  0  0  0  0
  1 16  1  6  0  0  0
  1  8  1  0  0  0  0
  2  9  1  0  0  0  0
  3 22  1  0  0  0  0
  4 10  1  0  0  0  0
  5 20  1  0  0  0  0
  5  4  2  0  0  0  0
  6 22  1  1  0  0  0
  6 18  1  0  0  0  0
  8 19  1  0  0  0  0
 10 12  2  0  0  0  0
 11 23  1  0  0  0  0
 11  7  1  1  0  0  0
 12 11  1  0  0  0  0
 13 23  1  0  0  0  0
 14  1  1  0  0  0  0
 15 14  1  6  0  0  0
 15 19  1  0  0  0  0
 17  7  1  6  0  0  0
 17  6  1  0  0  0  0
 17  9  1  0  0  0  0
 18 15  1  0  0  0  0
 19  2  1  6  0  0  0
 20 21  2  0  0  0  0
 21 12  1  0  0  0  0
 21 13  1  0  0  0  0
 23  3  1  6  0  0  0
 24 13  1  0  0  0  0
 25 32  2  0  0  0  0
 26 30  1  6  0  0  0
 26 25  1  0  0  0  0
 26 29  1  0  0  0  0
 28 27  1  0  0  0  0
 29 28  2  0  0  0  0
 31 27  2  0  0  0  0
 32 24  1  0  0  0  0
 32 31  1  0  0  0  0
M  END
>  <MODEL>
2

>  <REMARK>
 VINA RESULT:      -6.3      2.034      2.893
  Name = 
  2 active torsions:
  status: ('A' for Active; 'I' for Inactive)
    1  A    between atoms: N_16  and  C_27
    2  A    between atoms: C_27  and  C_32
                            x       y       z     vdW  Elec       q    Type
                         _______ _______ _______ _____ _____    ______ ____

>  <TORSDO>
F 2

$$$$
=
 OpenBabel11062410413D

 32 37  0  0  1  0  0  0  0  0999 V2000
  158.4920  213.2810  145.4680 C   0  0  2  0  0  3  0  0  0  0  0  0
  161.6570  212.9870  146.0770 C   0  0  0  0  0  2  0  0  0  0  0  0
  160.7030  211.7240  151.1500 C   0  0  0  0  0  2  0  0  0  0  0  0
  162.1690  206.6070  148.5810 C   0  0  0  0  0  3  0  0  0  0  0  0
  162.3560  206.2070  149.9180 C   0  0  0  0  0  3  0  0  0  0  0  0
  160.8810  213.0350  148.9500 C   0  0  2  0  0  3  0  0  0  0  0  0
  162.2950  211.1240  148.2600 C   0  0  0  0  0  2  0  0  0  0  0  0
  159.7400  213.8440  144.7940 C   0  0  0  0  0  2  0  0  0  0  0  0
  162.6510  213.2180  147.2140 C   0  0  0  0  0  2  0  0  0  0  0  0
  161.9000  207.9500  148.2720 C   0  0  0  0  0  3  0  0  0  0  0  0
  161.5000  210.3140  149.2790 C   0  0  1  0  0  3  0  0  0  0  0  0
  161.8430  208.8680  149.3210 C   0  0  0  0  0  0  0  0  0  0  0  0
  161.8770  209.5690  151.5180 N   0  0  0  0  0  0  0  0  0  0  0  0
  158.6250  213.5420  146.9590 C   0  0  0  0  0  2  0  0  0  0  0  0
  159.8260  214.4530  147.0940 C   0  0  1  0  0  3  0  0  0  0  0  0
  158.4170  211.9070  145.2430 O   0  0  0  0  0  1  0  0  0  0  0  0
  162.2160  212.5840  148.4670 N   0  0  1  0  0  0  0  0  0  0  0  0
  160.4910  214.4390  148.4730 C   0  0  0  0  0  2  0  0  0  0  0  0
  160.7260  214.1830  145.8970 C   0  0  1  0  0  3  0  0  0  0  0  0
  162.2690  207.1460  150.9580 C   0  0  0  0  0  3  0  0  0  0  0  0
  162.0020  208.4740  150.6240 C   0  0  0  0  0  0  0  0  0  0  0  0
  160.8840  213.0890  150.4840 C   0  0  0  0  0  2  0  0  0  0  0  0
  161.8040  210.7830  150.7070 C   0  0  2  0  0  3  0  0  0  0  0  0
  162.3220  209.5510  152.9080 C   0  0  0  0  0  2  0  0  0  0  0  0
  160.5830  210.1270  154.4960 C   0  0  0  0  0  3  0  0  0  0  0  0
  159.3960  209.8950  155.3730 C   0  0  1  0  0  3  0  0  0  0  0  0
  160.3660  207.0920  154.9680 C   0  0  0  0  0  3  0  0  0  0  0  0
  160.0960  207.6940  156.2870 C   0  0  0  0  0  3  0  0  0  0  0  0
  159.7070  208.9520  156.4870 C   0  0  0  0  0  3  0  0  0  0  0  0
  158.9720  211.1010  155.8980 F   0  0  0  0  0  0  0  0  0  0  0  0
  160.8400  207.7320  153.8920 C   0  0  0  0  0  3  0  0  0  0  0  0
  161.1980  209.1630  153.8080 C   0  0  0  0  0  0  0  0  0  0  0  0
  1 16  1  1  0  0  0
  1 14  1  0  0  0  0
  2  9  1  0  0  0  0
  4  5  1  0  0  0  0
  5 20  2  0  0  0  0
  6 18  1  6  0  0  0
  6 22  1  0  0  0  0
  7 17  1  0  0  0  0
  8  1  1  0  0  0  0
 10  4  2  0  0  0  0
 10 12  1  0  0  0  0
 11  7  1  6  0  0  0
 11 12  1  0  0  0  0
 11 23  1  0  0  0  0
 12 21  2  0  0  0  0
 13 24  1  0  0  0  0
 15 14  1  1  0  0  0
 15 18  1  0  0  0  0
 17  9  1  6  0  0  0
 17  6  1  0  0  0  0
 19  8  1  6  0  0  0
 19  2  1  0  0  0  0
 19 15  1  0  0  0  0
 21 20  1  0  0  0  0
 21 13  1  0  0  0  0
 22  3  1  0  0  0  0
 23  3  1  1  0  0  0
 23 13  1  0  0  0  0
 24 32  1  0  0  0  0
 25 26  1  0  0  0  0
 26 30  1  1  0  0  0
 26 29  1  0  0  0  0
 27 28  1  0  0  0  0
 28 29  2  0  0  0  0
 31 27  2  0  0  0  0
 32 31  1  0  0  0  0
 32 25  2  0  0  0  0
M  END
>  <MODEL>
3

>  <REMARK>
 VINA RESULT:      -5.5      3.503      7.286
  Name = 
  2 active torsions:
  status: ('A' for Active; 'I' for Inactive)
    1  A    between atoms: N_16  and  C_27
    2  A    between atoms: C_27  and  C_32
                            x       y       z     vdW  Elec       q    Type
                         _______ _______ _______ _____ _____    ______ ____

>  <TORSDO>
F 2

$$$$
