=
 OpenBabel11062410363D

 32 37  0  0  1  0  0  0  0  0999 V2000
  162.1370  203.5560  147.3710 C   0  0  0  0  0  3  0  0  0  0  0  0
  161.1260  207.2390  150.7100 C   0  0  0  0  0  0  0  0  0  0  0  0
  161.9040  211.3270  147.9220 C   0  0  0  0  0  2  0  0  0  0  0  0
  162.8280  211.8190  149.0380 C   0  0  0  0  0  2  0  0  0  0  0  0
  161.1510  207.9030  153.2310 C   0  0  0  0  0  0  0  0  0  0  0  0
  161.1590  206.7120  154.0960 C   0  0  0  0  0  0  0  0  0  0  0  0
  160.8120  205.0240  149.7170 C   0  0  0  0  0  0  0  0  0  0  0  0
  161.2150  207.0380  148.2660 C   0  0  0  0  0  3  0  0  0  0  0  0
  161.1660  209.3140  155.2160 N   0  0  0  0  0  0  0  0  0  0  0  0
  162.1320  204.8640  147.6280 C   0  0  0  0  0  3  0  0  0  0  0  0
  161.7310  209.8440  148.0310 C   0  0  0  0  0  2  0  0  0  0  0  0
  161.2710  207.8220  149.3550 C   0  0  0  0  0  0  0  0  0  0  0  0
  161.4680  209.2890  149.2210 C   0  0  0  0  0  0  0  0  0  0  0  0
  161.3020  209.4970  151.6980 N   0  0  0  0  0  0  0  0  0  0  0  0
  160.8010  208.1660  156.0560 C   0  0  0  0  0  2  0  0  0  0  0  0
  160.4150  202.6790  148.9340 C   0  0  0  0  0  3  0  0  0  0  0  0
  161.0020  205.5500  148.3180 C   0  0  1  0  0  3  0  0  0  0  0  0
  161.0640  206.8740  155.3870 N   0  0  0  0  0  0  0  0  0  0  0  0
  160.4970  203.7500  149.9490 C   0  0  0  0  0  3  0  0  0  0  0  0
  161.0940  202.5910  147.7760 C   0  0  0  0  0  0  0  0  0  0  0  0
  162.4300  211.2950  150.4330 C   0  0  0  0  0  2  0  0  0  0  0  0
  161.3320  210.2130  150.4200 C   0  0  0  0  0  0  0  0  0  0  0  0
  161.2840  210.1080  152.8760 N   0  0  0  0  0  0  0  0  0  0  0  0
  160.8900  205.9350  150.8650 C   0  0  0  0  0  3  0  0  0  0  0  0
  161.4280  205.4150  153.5800 N   0  0  0  0  0  1  0  0  0  0  0  0
  161.2480  210.6380  155.8070 C   0  0  0  0  0  1  0  0  0  0  0  0
  161.2040  208.1560  151.8620 C   0  0  0  0  0  0  0  0  0  0  0  0
  161.1950  209.1380  153.8010 C   0  0  0  0  0  0  0  0  0  0  0  0
  160.4350  201.4090  145.5890 C   0  0  0  0  0  0  0  0  0  0  0  0
  160.9310  201.4400  146.9330 N   0  0  0  0  0  2  0  0  0  0  0  0
  160.1250  202.4670  144.9790 O   0  0  0  0  0  0  0  0  0  0  0  0
  160.2930  200.1020  144.8960 C   0  0  0  0  0  1  0  0  0  0  0  0
  1 10  2  0  0  0  0
  1 20  1  0  0  0  0
  2 24  2  0  0  0  0
  2 27  1  0  0  0  0
  3 11  1  0  0  0  0
  3  4  1  0  0  0  0
  4 21  1  0  0  0  0
  5 28  1  0  0  0  0
  5  6  1  0  0  0  0
  6 18  2  0  0  0  0
  7 19  2  0  0  0  0
  7 24  1  0  0  0  0
  8 17  1  0  0  0  0
  8 12  2  0  0  0  0
  9 26  1  0  0  0  0
  9 15  1  0  0  0  0
 11 13  1  0  0  0  0
 12  2  1  0  0  0  0
 13 12  1  0  0  0  0
 13 22  2  0  0  0  0
 14 27  1  0  0  0  0
 14 23  1  0  0  0  0
 16 19  1  0  0  0  0
 17 10  1  1  0  0  0
 17  7  1  0  0  0  0
 18 15  1  0  0  0  0
 20 16  2  0  0  0  0
 22 21  1  0  0  0  0
 22 14  1  0  0  0  0
 23 28  2  0  0  0  0
 25  6  1  0  0  0  0
 27  5  2  0  0  0  0
 28  9  1  0  0  0  0
 29 30  1  0  0  0  0
 30 20  1  0  0  0  0
 31 29  2  0  0  0  0
 32 29  1  0  0  0  0
M  END
>  <MODEL>
1

>  <REMARK>
 VINA RESULT:      -7.8      0.000      0.000
  Name = 
  1 active torsions:
  status: ('A' for Active; 'I' for Inactive)
    1  A    between atoms: N_10  and  C_24
                            x       y       z     vdW  Elec       q    Type
                         _______ _______ _______ _____ _____    ______ ____

>  <TORSDO>
F 1

$$$$
=
 OpenBabel11062410363D

 32 37  0  0  1  0  0  0  0  0999 V2000
  161.0420  205.8560  148.9920 C   0  0  0  0  0  3  0  0  0  0  0  0
  160.8260  209.3350  152.6770 C   0  0  0  0  0  0  0  0  0  0  0  0
  161.0940  206.4500  156.7630 C   0  0  0  0  0  2  0  0  0  0  0  0
  159.8380  207.1690  157.2590 C   0  0  0  0  0  2  0  0  0  0  0  0
  159.9170  211.6850  153.3450 C   0  0  0  0  0  0  0  0  0  0  0  0
  159.6010  212.4930  152.1560 C   0  0  0  0  0  0  0  0  0  0  0  0
  161.4610  208.5170  150.4600 C   0  0  2  0  0  3  0  0  0  0  0  0
  161.6030  207.0170  152.4730 C   0  0  0  0  0  3  0  0  0  0  0  0
  159.2090  213.5370  154.7600 N   0  0  0  0  0  0  0  0  0  0  0  0
  160.9620  206.0970  150.3000 C   0  0  0  0  0  3  0  0  0  0  0  0
  161.2120  206.6140  155.2800 C   0  0  0  0  0  2  0  0  0  0  0  0
  161.1690  208.0160  153.2590 C   0  0  0  0  0  0  0  0  0  0  0  0
  161.0380  207.8200  154.7260 C   0  0  0  0  0  0  0  0  0  0  0  0
  160.3210  210.1970  154.9370 N   0  0  0  0  0  0  0  0  0  0  0  0
  159.2500  214.4530  153.6120 C   0  0  0  0  0  2  0  0  0  0  0  0
  162.1010  207.9250  148.1120 C   0  0  0  0  0  3  0  0  0  0  0  0
  161.7790  207.1410  150.9840 C   0  0  0  0  0  0  0  0  0  0  0  0
  159.2360  213.7340  152.3200 N   0  0  0  0  0  0  0  0  0  0  0  0
  161.6710  208.8460  149.1850 C   0  0  0  0  0  3  0  0  0  0  0  0
  161.8730  206.6020  148.0240 C   0  0  0  0  0  0  0  0  0  0  0  0
  159.7170  208.6150  156.7370 C   0  0  0  0  0  2  0  0  0  0  0  0
  160.7460  208.9890  155.6510 C   0  0  0  0  0  0  0  0  0  0  0  0
  159.9250  211.3060  155.5510 N   0  0  0  0  0  0  0  0  0  0  0  0
  160.9880  209.5640  151.3730 C   0  0  0  0  0  3  0  0  0  0  0  0
  159.5260  211.9160  150.8580 N   0  0  0  0  0  1  0  0  0  0  0  0
  158.9290  214.0610  156.0850 C   0  0  0  0  0  1  0  0  0  0  0  0
  160.3500  210.3850  153.5960 C   0  0  0  0  0  0  0  0  0  0  0  0
  159.6790  212.2030  154.5810 C   0  0  0  0  0  0  0  0  0  0  0  0
  161.5950  205.6390  145.6560 C   0  0  0  0  0  0  0  0  0  0  0  0
  162.3180  205.8720  146.8720 N   0  0  0  0  0  2  0  0  0  0  0  0
  160.4510  206.1320  145.4690 O   0  0  0  0  0  0  0  0  0  0  0  0
  162.2130  204.8090  144.5900 C   0  0  0  0  0  1  0  0  0  0  0  0
  1 10  1  0  0  0  0
  2 12  1  0  0  0  0
  2 27  1  0  0  0  0
  3  4  1  0  0  0  0
  5 27  2  0  0  0  0
  5 28  1  0  0  0  0
  6 18  2  0  0  0  0
  6  5  1  0  0  0  0
  7 19  1  1  0  0  0
  7 17  1  0  0  0  0
  7 24  1  0  0  0  0
  8 12  2  0  0  0  0
  9 26  1  0  0  0  0
 10 17  2  0  0  0  0
 11  3  1  0  0  0  0
 12 13  1  0  0  0  0
 13 11  1  0  0  0  0
 13 22  2  0  0  0  0
 14 23  1  0  0  0  0
 14 22  1  0  0  0  0
 15  9  1  0  0  0  0
 16 19  2  0  0  0  0
 17  8  1  0  0  0  0
 18 15  1  0  0  0  0
 20 16  1  0  0  0  0
 20  1  2  0  0  0  0
 21  4  1  0  0  0  0
 22 21  1  0  0  0  0
 24  2  2  0  0  0  0
 25  6  1  0  0  0  0
 27 14  1  0  0  0  0
 28  9  1  0  0  0  0
 28 23  2  0  0  0  0
 29 30  1  0  0  0  0
 30 20  1  0  0  0  0
 31 29  2  0  0  0  0
 32 29  1  0  0  0  0
M  END
>  <MODEL>
2

>  <REMARK>
 VINA RESULT:      -6.7      2.570      5.399
  Name = 
  1 active torsions:
  status: ('A' for Active; 'I' for Inactive)
    1  A    between atoms: N_10  and  C_24
                            x       y       z     vdW  Elec       q    Type
                         _______ _______ _______ _____ _____    ______ ____

>  <TORSDO>
F 1

$$$$
=
 OpenBabel11062410363D

 32 37  0  0  1  0  0  0  0  0999 V2000
  160.8080  212.1970  146.1760 C   0  0  0  0  0  3  0  0  0  0  0  0
  160.8310  211.6320  151.2170 C   0  0  0  0  0  0  0  0  0  0  0  0
  162.5300  206.9420  151.6680 C   0  0  0  0  0  2  0  0  0  0  0  0
  161.3140  206.6690  152.5560 C   0  0  0  0  0  2  0  0  0  0  0  0
  159.6990  212.3530  153.4530 C   0  0  0  0  0  0  0  0  0  0  0  0
  158.9830  213.6300  153.3000 C   0  0  0  0  0  0  0  0  0  0  0  0
  161.0760  212.9150  149.1470 C   0  0  2  0  0  3  0  0  0  0  0  0
  161.9360  210.5570  149.3090 C   0  0  0  0  0  3  0  0  0  0  0  0
  159.0180  212.2780  155.7900 N   0  0  0  0  0  0  0  0  0  0  0  0
  160.9880  211.3750  147.2100 C   0  0  0  0  0  3  0  0  0  0  0  0
  162.2750  208.1550  150.8290 C   0  0  0  0  0  2  0  0  0  0  0  0
  161.5250  210.4850  150.5860 C   0  0  0  0  0  0  0  0  0  0  0  0
  161.7690  209.2600  151.3900 C   0  0  0  0  0  0  0  0  0  0  0  0
  160.7120  210.3840  153.3470 N   0  0  0  0  0  0  0  0  0  0  0  0
  158.6340  213.6950  155.7410 C   0  0  0  0  0  2  0  0  0  0  0  0
  161.2560  214.4330  147.1650 C   0  0  0  0  0  3  0  0  0  0  0  0
  161.7420  211.7660  148.4350 C   0  0  0  0  0  0  0  0  0  0  0  0
  158.4520  214.1810  154.3570 N   0  0  0  0  0  0  0  0  0  0  0  0
  160.9270  214.1060  148.5670 C   0  0  0  0  0  3  0  0  0  0  0  0
  161.2500  213.6060  146.1040 C   0  0  0  0  0  0  0  0  0  0  0  0
  160.8240  207.9160  153.3190 C   0  0  0  0  0  2  0  0  0  0  0  0
  161.4950  209.2350  152.8850 C   0  0  0  0  0  0  0  0  0  0  0  0
  160.2780  210.5180  154.5940 N   0  0  0  0  0  0  0  0  0  0  0  0
  160.6470  212.7690  150.5430 C   0  0  0  0  0  3  0  0  0  0  0  0
  158.7150  214.1890  152.0210 N   0  0  0  0  0  1  0  0  0  0  0  0
  158.9610  211.5620  157.0520 C   0  0  0  0  0  1  0  0  0  0  0  0
  160.4000  211.4840  152.6200 C   0  0  0  0  0  0  0  0  0  0  0  0
  159.6630  211.7100  154.6520 C   0  0  0  0  0  0  0  0  0  0  0  0
  162.6530  213.7730  143.9550 C   0  0  0  0  0  0  0  0  0  0  0  0
  161.5420  214.1140  144.7940 N   0  0  0  0  0  2  0  0  0  0  0  0
  163.4950  212.9040  144.3030 O   0  0  0  0  0  0  0  0  0  0  0  0
  162.8080  214.4510  142.6420 C   0  0  0  0  0  1  0  0  0  0  0  0
  1 10  1  0  0  0  0
  2 27  1  0  0  0  0
  3  4  1  0  0  0  0
  4 21  1  0  0  0  0
  5 28  1  0  0  0  0
  6  5  1  0  0  0  0
  6 18  2  0  0  0  0
  7 19  1  1  0  0  0
  7 24  1  0  0  0  0
  8 12  2  0  0  0  0
  9 26  1  0  0  0  0
 10 17  2  0  0  0  0
 11 13  1  0  0  0  0
 11  3  1  0  0  0  0
 12  2  1  0  0  0  0
 12 13  1  0  0  0  0
 13 22  2  0  0  0  0
 14 23  1  0  0  0  0
 15  9  1  0  0  0  0
 16 19  2  0  0  0  0
 17  7  1  0  0  0  0
 17  8  1  0  0  0  0
 18 15  1  0  0  0  0
 20  1  2  0  0  0  0
 20 16  1  0  0  0  0
 22 21  1  0  0  0  0
 22 14  1  0  0  0  0
 23 28  2  0  0  0  0
 24  2  2  0  0  0  0
 25  6  1  0  0  0  0
 27 14  1  0  0  0  0
 27  5  2  0  0  0  0
 28  9  1  0  0  0  0
 29 31  2  0  0  0  0
 29 30  1  0  0  0  0
 30 20  1  0  0  0  0
 32 29  1  0  0  0  0
M  END
>  <MODEL>
3

>  <REMARK>
 VINA RESULT:      -6.2      4.540      7.463
  Name = 
  1 active torsions:
  status: ('A' for Active; 'I' for Inactive)
    1  A    between atoms: N_10  and  C_24
                            x       y       z     vdW  Elec       q    Type
                         _______ _______ _______ _____ _____    ______ ____

>  <TORSDO>
F 1

$$$$
=
 OpenBabel11062410363D

 32 37  0  0  0  0  0  0  0  0999 V2000
  161.0140  211.4560  146.9760 C   0  0  0  0  0  3  0  0  0  0  0  0
  161.4780  208.8990  151.3310 C   0  0  0  0  0  0  0  0  0  0  0  0
  161.5010  204.1660  149.6880 C   0  0  0  0  0  2  0  0  0  0  0  0
  160.3890  203.8900  150.7010 C   0  0  0  0  0  2  0  0  0  0  0  0
  160.9550  208.9170  153.8850 C   0  0  0  0  0  0  0  0  0  0  0  0
  160.7080  210.2850  154.3690 C   0  0  0  0  0  0  0  0  0  0  0  0
  161.8850  210.7970  149.8420 C   0  0  0  0  0  0  0  0  0  0  0  0
  161.8950  208.4440  148.9570 C   0  0  0  0  0  2  0  0  0  0  0  0
  160.5910  208.0790  156.1430 N   0  0  0  0  0  0  0  0  0  0  0  0
  161.0280  210.2690  147.5800 C   0  0  0  0  0  3  0  0  0  0  0  0
  161.5760  205.6360  149.4140 C   0  0  0  0  0  2  0  0  0  0  0  0
  161.6480  207.9700  150.1890 C   0  0  0  0  0  0  0  0  0  0  0  0
  161.5560  206.5060  150.4310 C   0  0  0  0  0  0  0  0  0  0  0  0
  161.2070  206.9710  152.8540 N   0  0  0  0  0  0  0  0  0  0  0  0
  160.7150  209.4380  156.6860 C   0  0  0  0  0  2  0  0  0  0  0  0
  162.3240  212.8840  148.5310 C   0  0  0  0  0  3  0  0  0  0  0  0
  162.0200  209.9080  148.6340 C   0  0  0  0  0  0  0  0  0  0  0  0
  160.5380  210.4760  155.6480 N   0  0  0  0  0  0  0  0  0  0  0  0
  162.0830  212.1140  149.7680 C   0  0  0  0  0  3  0  0  0  0  0  0
  161.9010  212.5970  147.2870 C   0  0  0  0  0  0  0  0  0  0  0  0
  160.4580  204.7980  151.9460 C   0  0  0  0  0  2  0  0  0  0  0  0
  161.4810  205.9470  151.8410 C   0  0  0  0  0  0  0  0  0  0  0  0
  161.0070  206.6940  154.1360 N   0  0  0  0  0  0  0  0  0  0  0  0
  161.6120  210.2150  151.1610 C   0  0  0  0  0  3  0  0  0  0  0  0
  160.4910  211.3670  153.4730 N   0  0  0  0  0  1  0  0  0  0  0  0
  160.4510  206.9540  157.0510 C   0  0  0  0  0  1  0  0  0  0  0  0
  161.2030  208.3110  152.6560 C   0  0  0  0  0  0  0  0  0  0  0  0
  160.8520  207.8760  154.7560 C   0  0  0  0  0  0  0  0  0  0  0  0
  161.6520  213.4510  144.8740 C   0  0  0  0  0  0  0  0  0  0  0  0
  162.1810  213.4980  146.2050 N   0  0  0  0  0  2  0  0  0  0  0  0
  160.8030  212.5850  144.5360 O   0  0  0  0  0  0  0  0  0  0  0  0
  162.1060  214.4530  143.8750 C   0  0  0  0  0  1  0  0  0  0  0  0
  1 20  2  0  0  0  0
  1 10  1  0  0  0  0
  2 27  1  0  0  0  0
  3  4  1  0  0  0  0
  4 21  1  0  0  0  0
  5  6  1  0  0  0  0
  5 28  1  0  0  0  0
  6 18  2  0  0  0  0
  7 24  2  0  0  0  0
  8 12  1  0  0  0  0
  9 15  1  0  0  0  0
  9 26  1  0  0  0  0
 10 17  2  0  0  0  0
 11  3  1  0  0  0  0
 11 13  1  0  0  0  0
 12 13  1  0  0  0  0
 12  2  2  0  0  0  0
 13 22  2  0  0  0  0
 14 23  1  0  0  0  0
 16 19  2  0  0  0  0
 17  8  1  0  0  0  0
 17  7  1  0  0  0  0
 18 15  1  0  0  0  0
 19  7  1  0  0  0  0
 20 16  1  0  0  0  0
 22 21  1  0  0  0  0
 22 14  1  0  0  0  0
 23 28  2  0  0  0  0
 24  2  1  0  0  0  0
 25  6  1  0  0  0  0
 27 14  1  0  0  0  0
 27  5  2  0  0  0  0
 28  9  1  0  0  0  0
 29 30  1  0  0  0  0
 30 20  1  0  0  0  0
 31 29  2  0  0  0  0
 32 29  1  0  0  0  0
M  END
>  <MODEL>
4

>  <REMARK>
 VINA RESULT:      -6.1      3.027      6.607
  Name = 
  1 active torsions:
  status: ('A' for Active; 'I' for Inactive)
    1  A    between atoms: N_10  and  C_24
                            x       y       z     vdW  Elec       q    Type
                         _______ _______ _______ _____ _____    ______ ____

>  <TORSDO>
F 1

$$$$
