=
 OpenBabel11062410373D

 32 37  0  0  1  0  0  0  0  0999 V2000
  160.7520  203.2750  151.3100 C   0  0  0  0  0  2  0  0  0  0  0  0
  161.9350  208.5010  151.3450 C   0  0  1  0  0  3  0  0  0  0  0  0
  160.1800  207.2540  155.8410 C   0  0  0  0  0  2  0  0  0  0  0  0
  159.1430  208.3260  155.5060 C   0  0  0  0  0  2  0  0  0  0  0  0
  161.6920  210.8700  150.5500 C   0  0  0  0  0  0  0  0  0  0  0  0
  160.9770  212.0950  150.6820 N   0  0  0  0  0  0  0  0  0  0  0  0
  161.2030  206.2990  150.3920 C   0  0  1  0  0  3  0  0  0  0  0  0
  162.7410  206.3290  152.3820 C   0  0  0  0  0  2  0  0  0  0  0  0
  159.1150  213.2780  151.2360 C   0  0  0  0  0  0  0  0  0  0  0  0
  162.0000  204.1430  151.4750 C   0  0  0  0  0  2  0  0  0  0  0  0
  160.9300  206.8420  154.5780 C   0  0  0  0  0  2  0  0  0  0  0  0
  162.3900  207.8000  152.6390 C   0  0  2  0  0  3  0  0  0  0  0  0
  161.5080  208.0800  153.8860 C   0  0  1  0  0  3  0  0  0  0  0  0
  160.9230  210.3030  152.8760 C   0  0  2  0  0  3  0  0  0  0  0  0
  159.5560  213.7310  149.9580 N   0  0  0  0  0  0  0  0  0  0  0  0
  160.5560  204.2970  149.0640 C   0  0  0  0  0  2  0  0  0  0  0  0
  161.5870  205.5920  151.7040 C   0  0  2  0  0  3  0  0  0  0  0  0
  160.6100  213.0260  149.6570 C   0  0  0  0  0  3  0  0  0  0  0  0
  160.0560  205.5980  149.6760 C   0  0  0  0  0  2  0  0  0  0  0  0
  160.2740  203.1400  149.9230 N   0  0  0  0  0  0  0  0  0  0  0  0
  159.7970  209.4940  154.9150 N   0  0  0  0  0  2  0  0  0  0  0  0
  160.3810  209.0930  153.6350 C   0  0  2  0  0  3  0  0  0  0  0  0
  159.8620  211.3690  152.6860 C   0  0  0  0  0  3  0  0  0  0  0  0
  160.7920  207.7390  150.6760 C   0  0  0  0  0  2  0  0  0  0  0  0
  162.3920  210.6380  149.5280 O   0  0  0  0  0  0  0  0  0  0  0  0
  158.0910  213.7060  151.8310 O   0  0  0  0  0  0  0  0  0  0  0  0
  161.5400  209.8910  151.5930 N   0  0  0  0  0  0  0  0  0  0  0  0
  160.0010  212.2390  151.6890 C   0  0  0  0  0  0  0  0  0  0  0  0
  160.9570  201.9940  149.3390 C   0  0  0  0  0  2  0  0  0  0  0  0
  161.3340  202.2820  147.8920 C   0  0  0  0  0  2  0  0  0  0  0  0
  160.4800  201.7250  145.6140 C   0  0  0  0  0  1  0  0  0  0  0  0
  160.8700  201.1650  146.9700 C   0  0  0  0  0  2  0  0  0  0  0  0
  1 10  1  0  0  0  0
  2 24  1  1  0  0  0
  2 27  1  0  0  0  0
  2 12  1  0  0  0  0
  4  3  1  0  0  0  0
  5  6  1  0  0  0  0
  5 27  1  0  0  0  0
  6 28  1  0  0  0  0
  7 19  1  1  0  0  0
  7 24  1  0  0  0  0
  7 17  1  0  0  0  0
  9 28  1  0  0  0  0
  9 26  2  0  0  0  0
 11  3  1  0  0  0  0
 12  8  1  6  0  0  0
 12 13  1  0  0  0  0
 13 11  1  6  0  0  0
 14 23  1  6  0  0  0
 14 22  1  0  0  0  0
 15  9  1  0  0  0  0
 16 19  1  0  0  0  0
 16 20  1  0  0  0  0
 17 10  1  6  0  0  0
 17  8  1  0  0  0  0
 18 15  2  0  0  0  0
 18  6  1  0  0  0  0
 20  1  1  0  0  0  0
 21  4  1  0  0  0  0
 22 13  1  0  0  0  0
 22 21  1  1  0  0  0
 25  5  2  0  0  0  0
 27 14  1  0  0  0  0
 28 23  2  0  0  0  0
 29 20  1  0  0  0  0
 30 29  1  0  0  0  0
 31 32  1  0  0  0  0
 32 30  1  0  0  0  0
M  END
>  <MODEL>
1

>  <REMARK>
 VINA RESULT:      -6.5      0.000      0.000
  Name = 
  3 active torsions:
  status: ('A' for Active; 'I' for Inactive)
    1  A    between atoms: C_1  and  C_10
    2  A    between atoms: C_1  and  C_20
    3  A    between atoms: C_10  and  N_24
                            x       y       z     vdW  Elec       q    Type
                         _______ _______ _______ _____ _____    ______ ____

>  <TORSDO>
F 3

$$$$
=
 OpenBabel11062410373D

 32 37  0  0  1  0  0  0  0  0999 V2000
  160.6960  203.9860  151.8190 C   0  0  0  0  0  2  0  0  0  0  0  0
  162.0740  209.0460  150.7160 C   0  0  1  0  0  3  0  0  0  0  0  0
  160.0580  208.9220  155.2730 C   0  0  0  0  0  2  0  0  0  0  0  0
  159.0790  209.9130  154.6420 C   0  0  0  0  0  2  0  0  0  0  0  0
  161.9600  211.1710  149.3840 C   0  0  0  0  0  0  0  0  0  0  0  0
  161.2870  212.4110  149.1900 N   0  0  0  0  0  0  0  0  0  0  0  0
  161.3060  206.7020  150.2560 C   0  0  1  0  0  3  0  0  0  0  0  0
  162.7460  207.1530  152.2680 C   0  0  0  0  0  2  0  0  0  0  0  0
  159.4460  213.7370  149.3510 C   0  0  0  0  0  0  0  0  0  0  0  0
  161.9670  204.8370  151.8500 C   0  0  0  0  0  2  0  0  0  0  0  0
  160.8520  208.2090  154.1820 C   0  0  0  0  0  2  0  0  0  0  0  0
  162.4390  208.6530  152.1600 C   0  0  2  0  0  3  0  0  0  0  0  0
  161.5090  209.2370  153.2570 C   0  0  1  0  0  3  0  0  0  0  0  0
  161.0590  211.1790  151.7310 C   0  0  2  0  0  3  0  0  0  0  0  0
  159.9660  213.8710  148.0300 N   0  0  0  0  0  0  0  0  0  0  0  0
  160.6480  204.4640  149.3920 C   0  0  0  0  0  2  0  0  0  0  0  0
  161.5990  206.3090  151.7150 C   0  0  2  0  0  3  0  0  0  0  0  0
  161.0060  213.0880  147.9590 C   0  0  0  0  0  3  0  0  0  0  0  0
  160.1690  205.8840  149.6580 C   0  0  0  0  0  2  0  0  0  0  0  0
  160.2820  203.5450  150.4760 N   0  0  0  0  0  0  0  0  0  0  0  0
  159.8050  210.8950  153.8360 N   0  0  0  0  0  2  0  0  0  0  0  0
  160.4340  210.1930  152.7170 C   0  0  2  0  0  3  0  0  0  0  0  0
  160.0490  212.1990  151.2420 C   0  0  0  0  0  3  0  0  0  0  0  0
  160.9360  208.1790  150.1780 C   0  0  0  0  0  2  0  0  0  0  0  0
  162.6990  210.6890  148.4830 O   0  0  0  0  0  0  0  0  0  0  0  0
  158.4120  214.3180  149.7740 O   0  0  0  0  0  0  0  0  0  0  0  0
  161.7210  210.4640  150.6140 N   0  0  0  0  0  0  0  0  0  0  0  0
  160.2690  212.8100  150.0800 C   0  0  0  0  0  0  0  0  0  0  0  0
  160.9470  202.2780  150.2120 C   0  0  0  0  0  2  0  0  0  0  0  0
  160.1840  201.4880  149.1580 C   0  0  0  0  0  2  0  0  0  0  0  0
  160.8350  201.6440  146.7540 C   0  0  0  0  0  1  0  0  0  0  0  0
  161.1180  200.9610  148.0790 C   0  0  0  0  0  2  0  0  0  0  0  0
  1 10  1  0  0  0  0
  2 24  1  1  0  0  0
  2 12  1  0  0  0  0
  4  3  1  0  0  0  0
  5 27  1  0  0  0  0
  6  5  1  0  0  0  0
  6 28  1  0  0  0  0
  7 19  1  1  0  0  0
  7 17  1  0  0  0  0
  9 26  2  0  0  0  0
  9 28  1  0  0  0  0
 11  3  1  0  0  0  0
 12  8  1  6  0  0  0
 12 13  1  0  0  0  0
 13 11  1  6  0  0  0
 14 23  1  6  0  0  0
 14 22  1  0  0  0  0
 15  9  1  0  0  0  0
 16 19  1  0  0  0  0
 16 20  1  0  0  0  0
 17 10  1  6  0  0  0
 17  8  1  0  0  0  0
 18 15  2  0  0  0  0
 18  6  1  0  0  0  0
 20  1  1  0  0  0  0
 21  4  1  0  0  0  0
 22 13  1  0  0  0  0
 22 21  1  1  0  0  0
 24  7  1  0  0  0  0
 25  5  2  0  0  0  0
 27  2  1  0  0  0  0
 27 14  1  0  0  0  0
 28 23  2  0  0  0  0
 29 20  1  0  0  0  0
 30 29  1  0  0  0  0
 31 32  1  0  0  0  0
 32 30  1  0  0  0  0
M  END
>  <MODEL>
2

>  <REMARK>
 VINA RESULT:      -6.3      1.137      1.346
  Name = 
  3 active torsions:
  status: ('A' for Active; 'I' for Inactive)
    1  A    between atoms: C_1  and  C_10
    2  A    between atoms: C_1  and  C_20
    3  A    between atoms: C_10  and  N_24
                            x       y       z     vdW  Elec       q    Type
                         _______ _______ _______ _____ _____    ______ ____

>  <TORSDO>
F 3

$$$$
=
 OpenBabel11062410373D

 32 37  0  0  1  0  0  0  0  0999 V2000
  159.5300  210.7670  153.4210 C   0  0  0  0  0  2  0  0  0  0  0  0
  161.2160  213.5790  149.1830 C   0  0  1  0  0  3  0  0  0  0  0  0
  156.2350  213.7210  149.2850 C   0  0  0  0  0  2  0  0  0  0  0  0
  156.3940  213.0910  147.9010 C   0  0  0  0  0  2  0  0  0  0  0  0
  162.4040  213.8480  146.9870 C   0  0  0  0  0  0  0  0  0  0  0  0
  162.3070  213.7470  145.5690 N   0  0  0  0  0  0  0  0  0  0  0  0
  161.2520  211.7800  150.9310 C   0  0  1  0  0  3  0  0  0  0  0  0
  160.0780  213.9500  151.4210 C   0  0  0  0  0  2  0  0  0  0  0  0
  161.3840  212.8770  143.6820 C   0  0  0  0  0  0  0  0  0  0  0  0
  160.0720  212.1710  153.1470 C   0  0  0  0  0  2  0  0  0  0  0  0
  157.5490  213.6260  150.0540 C   0  0  0  0  0  2  0  0  0  0  0  0
  160.0690  214.2900  149.9250 C   0  0  2  0  0  3  0  0  0  0  0  0
  158.6860  214.2230  149.2200 C   0  0  1  0  0  3  0  0  0  0  0  0
  159.8980  214.0630  147.0280 C   0  0  2  0  0  3  0  0  0  0  0  0
  162.8010  212.8230  143.5390 N   0  0  0  0  0  0  0  0  0  0  0  0
  161.7020  209.9530  152.5580 C   0  0  0  0  0  2  0  0  0  0  0  0
  160.0600  212.4390  151.6480 C   0  0  2  0  0  3  0  0  0  0  0  0
  163.3050  213.3090  144.6390 C   0  0  0  0  0  3  0  0  0  0  0  0
  161.2800  210.2700  151.1310 C   0  0  0  0  0  2  0  0  0  0  0  0
  160.5500  209.7040  153.4330 N   0  0  0  0  0  0  0  0  0  0  0  0
  157.4530  213.7710  147.1560 N   0  0  0  0  0  2  0  0  0  0  0  0
  158.7220  213.5360  147.8470 C   0  0  2  0  0  3  0  0  0  0  0  0
  159.9170  213.4770  145.6300 C   0  0  0  0  0  3  0  0  0  0  0  0
  161.1880  212.0720  149.4370 C   0  0  0  0  0  2  0  0  0  0  0  0
  163.5270  213.8830  147.5570 O   0  0  0  0  0  0  0  0  0  0  0  0
  160.5630  212.4520  142.8260 O   0  0  0  0  0  0  0  0  0  0  0  0
  161.1800  213.8500  147.7430 N   0  0  0  0  0  0  0  0  0  0  0  0
  161.0700  213.4470  144.9650 C   0  0  0  0  0  0  0  0  0  0  0  0
  161.0550  209.6030  154.7940 C   0  0  0  0  0  2  0  0  0  0  0  0
  161.4330  208.1630  155.1140 C   0  0  0  0  0  2  0  0  0  0  0  0
  161.2570  206.2110  153.5700 C   0  0  0  0  0  1  0  0  0  0  0  0
  160.4840  207.1820  154.4430 C   0  0  0  0  0  2  0  0  0  0  0  0
  1 20  1  0  0  0  0
  2 24  1  6  0  0  0
  2 12  1  0  0  0  0
  3 11  1  0  0  0  0
  4  3  1  0  0  0  0
  5 25  2  0  0  0  0
  5 27  1  0  0  0  0
  6  5  1  0  0  0  0
  7 24  1  6  0  0  0
  7 19  1  0  0  0  0
  7 17  1  0  0  0  0
  9 28  1  0  0  0  0
 10  1  1  0  0  0  0
 12  8  1  1  0  0  0
 13 12  1  0  0  0  0
 13 11  1  1  0  0  0
 14 23  1  6  0  0  0
 14 27  1  0  0  0  0
 14 22  1  0  0  0  0
 15  9  1  0  0  0  0
 15 18  2  0  0  0  0
 16 20  1  0  0  0  0
 17  8  1  1  0  0  0
 17 10  1  0  0  0  0
 18  6  1  0  0  0  0
 19 16  1  0  0  0  0
 20 29  1  0  0  0  0
 21  4  1  0  0  0  0
 22 21  1  6  0  0  0
 22 13  1  0  0  0  0
 26  9  2  0  0  0  0
 27  2  1  0  0  0  0
 28  6  1  0  0  0  0
 28 23  2  0  0  0  0
 29 30  1  0  0  0  0
 31 32  1  0  0  0  0
 32 30  1  0  0  0  0
M  END
>  <MODEL>
3

>  <REMARK>
 VINA RESULT:      -4.8      3.932      7.547
  Name = 
  3 active torsions:
  status: ('A' for Active; 'I' for Inactive)
    1  A    between atoms: C_1  and  C_10
    2  A    between atoms: C_1  and  C_20
    3  A    between atoms: C_10  and  N_24
                            x       y       z     vdW  Elec       q    Type
                         _______ _______ _______ _____ _____    ______ ____

>  <TORSDO>
F 3

$$$$
=
 OpenBabel11062410373D

 32 37  0  0  1  0  0  0  0  0999 V2000
  161.2050  208.6710  151.3330 C   0  0  0  0  0  2  0  0  0  0  0  0
  161.8430  212.5080  147.6460 C   0  0  1  0  0  3  0  0  0  0  0  0
  157.7920  213.5790  150.3470 C   0  0  0  0  0  2  0  0  0  0  0  0
  157.1150  213.5130  148.9780 C   0  0  0  0  0  2  0  0  0  0  0  0
  162.0050  213.3630  145.2910 C   0  0  0  0  0  0  0  0  0  0  0  0
  161.2920  213.8370  144.1530 N   0  0  0  0  0  0  0  0  0  0  0  0
  161.9570  210.2050  148.6360 C   0  0  1  0  0  3  0  0  0  0  0  0
  161.9700  212.2040  150.1630 C   0  0  0  0  0  2  0  0  0  0  0  0
  159.4150  213.9620  142.8740 C   0  0  0  0  0  0  0  0  0  0  0  0
  162.0480  209.9360  151.1610 C   0  0  0  0  0  2  0  0  0  0  0  0
  159.1750  212.9380  150.2750 C   0  0  0  0  0  2  0  0  0  0  0  0
  161.4570  213.0890  149.0200 C   0  0  2  0  0  3  0  0  0  0  0  0
  159.9860  213.5720  149.1420 C   0  0  1  0  0  3  0  0  0  0  0  0
  160.0150  214.0350  146.6750 C   0  0  2  0  0  3  0  0  0  0  0  0
  160.5150  213.6900  142.0090 N   0  0  0  0  0  0  0  0  0  0  0  0
  162.3550  207.8430  149.3040 C   0  0  0  0  0  2  0  0  0  0  0  0
  161.5050  210.7580  150.0000 C   0  0  2  0  0  3  0  0  0  0  0  0
  161.5720  213.6050  142.7670 C   0  0  0  0  0  3  0  0  0  0  0  0
  161.5180  208.7620  148.4270 C   0  0  0  0  0  2  0  0  0  0  0  0
  161.6730  207.5080  150.5610 N   0  0  0  0  0  0  0  0  0  0  0  0
  157.9290  214.2040  147.9790 N   0  0  0  0  0  2  0  0  0  0  0  0
  159.1900  213.4760  147.8320 C   0  0  2  0  0  3  0  0  0  0  0  0
  159.2310  214.0420  145.3770 C   0  0  0  0  0  3  0  0  0  0  0  0
  161.3810  211.0570  147.5110 C   0  0  0  0  0  2  0  0  0  0  0  0
  163.1920  212.9530  145.1850 O   0  0  0  0  0  0  0  0  0  0  0  0
  158.2190  214.0710  142.4960 O   0  0  0  0  0  0  0  0  0  0  0  0
  161.3050  213.3150  146.5470 N   0  0  0  0  0  0  0  0  0  0  0  0
  159.9000  214.0430  144.2260 C   0  0  0  0  0  0  0  0  0  0  0  0
  162.6290  206.7920  151.3930 C   0  0  0  0  0  2  0  0  0  0  0  0
  161.9810  205.5580  152.0050 C   0  0  0  0  0  2  0  0  0  0  0  0
  161.0930  203.6330  150.6900 C   0  0  0  0  0  1  0  0  0  0  0  0
  160.8310  205.0560  151.1460 C   0  0  0  0  0  2  0  0  0  0  0  0
  2 24  1  1  0  0  0
  2 12  1  0  0  0  0
  4  3  1  0  0  0  0
  5 27  1  0  0  0  0
  6 28  1  0  0  0  0
  6  5  1  0  0  0  0
  7 24  1  6  0  0  0
  7 17  1  0  0  0  0
  9 28  1  0  0  0  0
 10  1  1  0  0  0  0
 11  3  1  0  0  0  0
 12 13  1  0  0  0  0
 12  8  1  1  0  0  0
 13 11  1  1  0  0  0
 14 23  1  6  0  0  0
 14 22  1  0  0  0  0
 15 18  2  0  0  0  0
 15  9  1  0  0  0  0
 16 20  1  0  0  0  0
 17  8  1  1  0  0  0
 17 10  1  0  0  0  0
 18  6  1  0  0  0  0
 19  7  1  0  0  0  0
 19 16  1  0  0  0  0
 20  1  1  0  0  0  0
 20 29  1  0  0  0  0
 21  4  1  0  0  0  0
 22 21  1  1  0  0  0
 22 13  1  0  0  0  0
 25  5  2  0  0  0  0
 26  9  2  0  0  0  0
 27 14  1  0  0  0  0
 27  2  1  0  0  0  0
 28 23  2  0  0  0  0
 29 30  1  0  0  0  0
 31 32  1  0  0  0  0
 32 30  1  0  0  0  0
M  END
>  <MODEL>
4

>  <REMARK>
 VINA RESULT:      -4.7      3.839      6.598
  Name = 
  3 active torsions:
  status: ('A' for Active; 'I' for Inactive)
    1  A    between atoms: C_1  and  C_10
    2  A    between atoms: C_1  and  C_20
    3  A    between atoms: C_10  and  N_24
                            x       y       z     vdW  Elec       q    Type
                         _______ _______ _______ _____ _____    ______ ____

>  <TORSDO>
F 3

$$$$
=
 OpenBabel11062410373D

 32 37  0  0  1  0  0  0  0  0999 V2000
  158.7510  213.1820  153.6040 C   0  0  0  0  0  2  0  0  0  0  0  0
  161.4140  208.5620  153.0750 C   0  0  1  0  0  3  0  0  0  0  0  0
  162.2670  211.3420  149.0260 C   0  0  0  0  0  2  0  0  0  0  0  0
  161.6610  210.1290  148.3190 C   0  0  0  0  0  2  0  0  0  0  0  0
  161.5730  206.0620  152.8990 C   0  0  0  0  0  0  0  0  0  0  0  0
  161.5280  204.9310  152.0350 N   0  0  0  0  0  0  0  0  0  0  0  0
  159.5780  210.1050  153.8120 C   0  0  1  0  0  3  0  0  0  0  0  0
  161.8790  211.0350  153.4010 C   0  0  0  0  0  2  0  0  0  0  0  0
  160.8540  203.8970  150.1250 C   0  0  0  0  0  0  0  0  0  0  0  0
  160.0700  212.5830  154.0940 C   0  0  0  0  0  2  0  0  0  0  0  0
  161.9620  211.2790  150.5200 C   0  0  0  0  0  2  0  0  0  0  0  0
  162.2610  209.7680  152.6260 C   0  0  2  0  0  3  0  0  0  0  0  0
  162.4130  209.9310  151.0890 C   0  0  1  0  0  3  0  0  0  0  0  0
  162.1440  207.4440  150.8770 C   0  0  2  0  0  3  0  0  0  0  0  0
  160.6020  203.0110  151.2130 N   0  0  0  0  0  0  0  0  0  0  0  0
  157.6600  211.3250  154.8220 C   0  0  0  0  0  2  0  0  0  0  0  0
  160.3810  211.3180  153.3050 C   0  0  2  0  0  3  0  0  0  0  0  0
  160.9780  203.6340  152.2940 C   0  0  0  0  0  3  0  0  0  0  0  0
  158.0750  210.3400  153.7380 C   0  0  0  0  0  2  0  0  0  0  0  0
  157.5530  212.6960  154.3090 N   0  0  0  0  0  0  0  0  0  0  0  0
  162.2030  208.8930  148.8830 N   0  0  0  0  0  2  0  0  0  0  0  0
  161.7680  208.7970  150.2770 C   0  0  2  0  0  3  0  0  0  0  0  0
  161.6020  206.2930  150.0520 C   0  0  0  0  0  3  0  0  0  0  0  0
  159.9200  208.8710  152.9850 C   0  0  0  0  0  2  0  0  0  0  0  0
  161.4300  205.9290  154.1450 O   0  0  0  0  0  0  0  0  0  0  0  0
  160.5760  203.6480  148.9220 O   0  0  0  0  0  0  0  0  0  0  0  0
  161.7290  207.3600  152.2980 N   0  0  0  0  0  0  0  0  0  0  0  0
  161.4260  205.1120  150.6400 C   0  0  0  0  0  0  0  0  0  0  0  0
  157.3410  213.5690  155.4550 C   0  0  0  0  0  2  0  0  0  0  0  0
  156.8680  212.7620  156.6570 C   0  0  0  0  0  2  0  0  0  0  0  0
  155.0150  214.3900  156.2810 C   0  0  0  0  0  1  0  0  0  0  0  0
  155.5040  213.2350  157.1340 C   0  0  0  0  0  2  0  0  0  0  0  0
  1 10  1  0  0  0  0
  1 20  1  0  0  0  0
  2 24  1  6  0  0  0
  3 11  1  0  0  0  0
  4 21  1  0  0  0  0
  4  3  1  0  0  0  0
  5 25  2  0  0  0  0
  6 18  1  0  0  0  0
  6  5  1  0  0  0  0
  7 24  1  6  0  0  0
  9 28  1  0  0  0  0
  9 15  1  0  0  0  0
 12  2  1  0  0  0  0
 12  8  1  6  0  0  0
 13 11  1  6  0  0  0
 13 12  1  0  0  0  0
 14 23  1  6  0  0  0
 14 27  1  0  0  0  0
 15 18  2  0  0  0  0
 17  8  1  1  0  0  0
 17  7  1  0  0  0  0
 17 10  1  0  0  0  0
 19  7  1  0  0  0  0
 19 16  1  0  0  0  0
 20 16  1  0  0  0  0
 20 29  1  0  0  0  0
 22 21  1  6  0  0  0
 22 14  1  0  0  0  0
 22 13  1  0  0  0  0
 23 28  2  0  0  0  0
 26  9  2  0  0  0  0
 27  5  1  0  0  0  0
 27  2  1  0  0  0  0
 28  6  1  0  0  0  0
 29 30  1  0  0  0  0
 30 32  1  0  0  0  0
 31 32  1  0  0  0  0
M  END
>  <MODEL>
5

>  <REMARK>
 VINA RESULT:      -4.7      3.153      8.678
  Name = 
  3 active torsions:
  status: ('A' for Active; 'I' for Inactive)
    1  A    between atoms: C_1  and  C_10
    2  A    between atoms: C_1  and  C_20
    3  A    between atoms: C_10  and  N_24
                            x       y       z     vdW  Elec       q    Type
                         _______ _______ _______ _____ _____    ______ ____

>  <TORSDO>
F 3

$$$$
=
 OpenBabel11062410373D

 32 37  0  0  1  0  0  0  0  0999 V2000
  160.9650  205.4880  153.2700 C   0  0  0  0  0  2  0  0  0  0  0  0
  161.5500  210.4510  151.3350 C   0  0  1  0  0  3  0  0  0  0  0  0
  158.5590  210.6570  155.3170 C   0  0  0  0  0  2  0  0  0  0  0  0
  157.5870  211.2540  154.2990 C   0  0  0  0  0  2  0  0  0  0  0  0
  161.3460  212.2140  149.5580 C   0  0  0  0  0  0  0  0  0  0  0  0
  160.5100  213.2000  148.9600 N   0  0  0  0  0  0  0  0  0  0  0  0
  161.3890  207.9480  151.2790 C   0  0  1  0  0  3  0  0  0  0  0  0
  162.1850  209.0850  153.3770 C   0  0  0  0  0  2  0  0  0  0  0  0
  158.4620  214.0490  148.4530 C   0  0  0  0  0  0  0  0  0  0  0  0
  161.9990  206.6130  153.3530 C   0  0  0  0  0  2  0  0  0  0  0  0
  159.7160  209.9740  154.5940 C   0  0  0  0  0  2  0  0  0  0  0  0
  161.6260  210.4220  152.8730 C   0  0  2  0  0  3  0  0  0  0  0  0
  160.3620  210.9500  153.6060 C   0  0  1  0  0  3  0  0  0  0  0  0
  159.9220  212.4220  151.6210 C   0  0  2  0  0  3  0  0  0  0  0  0
  159.2480  214.0660  147.2640 N   0  0  0  0  0  0  0  0  0  0  0  0
  161.4110  205.5010  150.8350 C   0  0  0  0  0  2  0  0  0  0  0  0
  161.3930  207.9040  152.8180 C   0  0  2  0  0  3  0  0  0  0  0  0
  160.4070  213.5580  147.5770 C   0  0  0  0  0  3  0  0  0  0  0  0
  160.6130  206.7860  150.6730 C   0  0  0  0  0  2  0  0  0  0  0  0
  160.9810  204.7290  152.0080 N   0  0  0  0  0  0  0  0  0  0  0  0
  158.2790  212.2220  153.4480 N   0  0  0  0  0  2  0  0  0  0  0  0
  159.2840  211.5050  152.6630 C   0  0  2  0  0  3  0  0  0  0  0  0
  158.8800  213.0630  150.7250 C   0  0  0  0  0  3  0  0  0  0  0  0
  160.7680  209.2540  150.7970 C   0  0  0  0  0  2  0  0  0  0  0  0
  162.3600  211.7730  148.9530 O   0  0  0  0  0  0  0  0  0  0  0  0
  157.2630  214.4280  148.5230 O   0  0  0  0  0  0  0  0  0  0  0  0
  160.9610  211.7010  150.8460 N   0  0  0  0  0  0  0  0  0  0  0  0
  159.2500  213.4920  149.5200 C   0  0  0  0  0  0  0  0  0  0  0  0
  161.9260  203.6340  152.1730 C   0  0  0  0  0  2  0  0  0  0  0  0
  161.3520  202.3460  151.5960 C   0  0  0  0  0  2  0  0  0  0  0  0
  160.2240  201.2800  149.6430 C   0  0  0  0  0  1  0  0  0  0  0  0
  160.8610  202.5520  150.1720 C   0  0  0  0  0  2  0  0  0  0  0  0
  1 10  1  0  0  0  0
  2 24  1  1  0  0  0
  2 12  1  0  0  0  0
  4  3  1  0  0  0  0
  5 27  1  0  0  0  0
  6 28  1  0  0  0  0
  6  5  1  0  0  0  0
  7 19  1  6  0  0  0
  7 17  1  0  0  0  0
  9 26  2  0  0  0  0
  9 28  1  0  0  0  0
 11  3  1  0  0  0  0
 12  8  1  1  0  0  0
 12 13  1  0  0  0  0
 13 11  1  6  0  0  0
 14 23  1  6  0  0  0
 14 22  1  0  0  0  0
 15 18  2  0  0  0  0
 15  9  1  0  0  0  0
 16 20  1  0  0  0  0
 17 10  1  6  0  0  0
 17  8  1  0  0  0  0
 18  6  1  0  0  0  0
 19 16  1  0  0  0  0
 20 29  1  0  0  0  0
 20  1  1  0  0  0  0
 21  4  1  0  0  0  0
 22 21  1  1  0  0  0
 22 13  1  0  0  0  0
 24  7  1  0  0  0  0
 25  5  2  0  0  0  0
 27  2  1  0  0  0  0
 27 14  1  0  0  0  0
 28 23  2  0  0  0  0
 30 29  1  0  0  0  0
 31 32  1  0  0  0  0
 32 30  1  0  0  0  0
M  END
>  <MODEL>
6

>  <REMARK>
 VINA RESULT:      -4.6      1.828      2.829
  Name = 
  3 active torsions:
  status: ('A' for Active; 'I' for Inactive)
    1  A    between atoms: C_1  and  C_10
    2  A    between atoms: C_1  and  C_20
    3  A    between atoms: C_10  and  N_24
                            x       y       z     vdW  Elec       q    Type
                         _______ _______ _______ _____ _____    ______ ____

>  <TORSDO>
F 3

$$$$
=
 OpenBabel11062410373D

 32 37  0  0  1  0  0  0  0  0999 V2000
  161.1950  204.0620  151.0570 C   0  0  0  0  0  2  0  0  0  0  0  0
  161.4800  209.3390  151.9450 C   0  0  1  0  0  3  0  0  0  0  0  0
  160.2300  207.0900  156.2150 C   0  0  0  0  0  2  0  0  0  0  0  0
  159.0090  208.0030  156.0980 C   0  0  0  0  0  2  0  0  0  0  0  0
  160.7930  211.7260  151.5720 C   0  0  0  0  0  0  0  0  0  0  0  0
  159.8920  212.7680  151.9320 N   0  0  0  0  0  0  0  0  0  0  0  0
  161.0740  207.2270  150.6540 C   0  0  1  0  0  3  0  0  0  0  0  0
  162.7000  207.2040  152.5730 C   0  0  0  0  0  2  0  0  0  0  0  0
  157.8930  213.4980  152.7350 C   0  0  0  0  0  0  0  0  0  0  0  0
  162.2860  205.0990  151.3310 C   0  0  0  0  0  2  0  0  0  0  0  0
  160.9620  207.0270  154.8780 C   0  0  0  0  0  2  0  0  0  0  0  0
  162.1220  208.5290  153.0870 C   0  0  2  0  0  3  0  0  0  0  0  0
  161.2810  208.4430  154.3900 C   0  0  1  0  0  3  0  0  0  0  0  0
  160.2710  210.6620  153.7900 C   0  0  2  0  0  3  0  0  0  0  0  0
  158.1740  214.2230  151.5400 N   0  0  0  0  0  0  0  0  0  0  0  0
  160.6970  205.3850  149.0260 C   0  0  0  0  0  2  0  0  0  0  0  0
  161.6490  206.3950  151.8150 C   0  0  2  0  0  3  0  0  0  0  0  0
  159.3130  213.7730  151.0920 C   0  0  0  0  0  3  0  0  0  0  0  0
  160.0210  206.4600  149.8640 C   0  0  0  0  0  2  0  0  0  0  0  0
  160.6650  204.0720  149.6830 N   0  0  0  0  0  0  0  0  0  0  0  0
  159.4200  209.3480  155.6950 N   0  0  0  0  0  2  0  0  0  0  0  0
  159.9860  209.2690  154.3480 C   0  0  2  0  0  3  0  0  0  0  0  0
  159.0350  211.5410  153.8160 C   0  0  0  0  0  3  0  0  0  0  0  0
  160.4440  208.5060  151.1920 C   0  0  0  0  0  2  0  0  0  0  0  0
  161.4610  211.7890  150.5050 O   0  0  0  0  0  0  0  0  0  0  0  0
  156.8490  213.6360  153.4250 O   0  0  0  0  0  0  0  0  0  0  0  0
  160.8710  210.5790  152.4370 N   0  0  0  0  0  0  0  0  0  0  0  0
  158.9670  212.5720  152.9770 C   0  0  0  0  0  0  0  0  0  0  0  0
  161.4950  203.1750  148.8930 C   0  0  0  0  0  2  0  0  0  0  0  0
  160.6310  202.3370  147.9590 C   0  0  0  0  0  2  0  0  0  0  0  0
  160.8610  200.8060  149.9160 C   0  0  0  0  0  1  0  0  0  0  0  0
  160.0400  201.1380  148.6840 C   0  0  0  0  0  2  0  0  0  0  0  0
  1 10  1  0  0  0  0
  2 24  1  1  0  0  0
  2 27  1  0  0  0  0
  2 12  1  0  0  0  0
  4  3  1  0  0  0  0
  5  6  1  0  0  0  0
  5 27  1  0  0  0  0
  6 28  1  0  0  0  0
  7 19  1  1  0  0  0
  7 24  1  0  0  0  0
  7 17  1  0  0  0  0
  9 28  1  0  0  0  0
  9 26  2  0  0  0  0
 11  3  1  0  0  0  0
 12  8  1  6  0  0  0
 12 13  1  0  0  0  0
 13 11  1  6  0  0  0
 14 23  1  6  0  0  0
 14 22  1  0  0  0  0
 15  9  1  0  0  0  0
 16 20  1  0  0  0  0
 16 19  1  0  0  0  0
 17 10  1  6  0  0  0
 17  8  1  0  0  0  0
 18 15  2  0  0  0  0
 18  6  1  0  0  0  0
 20  1  1  0  0  0  0
 21  4  1  0  0  0  0
 22 13  1  0  0  0  0
 22 21  1  1  0  0  0
 25  5  2  0  0  0  0
 27 14  1  0  0  0  0
 28 23  2  0  0  0  0
 29 20  1  0  0  0  0
 30 32  1  0  0  0  0
 30 29  1  0  0  0  0
 32 31  1  0  0  0  0
M  END
>  <MODEL>
7

>  <REMARK>
 VINA RESULT:      -3.8      1.257      1.502
  Name = 
  3 active torsions:
  status: ('A' for Active; 'I' for Inactive)
    1  A    between atoms: C_1  and  C_10
    2  A    between atoms: C_1  and  C_20
    3  A    between atoms: C_10  and  N_24
                            x       y       z     vdW  Elec       q    Type
                         _______ _______ _______ _____ _____    ______ ____

>  <TORSDO>
F 3

$$$$
