=
 OpenBabel11052422363D

 31 35  0  0  0  0  0  0  0  0999 V2000
  161.3260  205.4700  149.9550 C   0  0  0  0  0  0  0  0  0  0  0  0
  161.1970  204.1100  150.3130 C   0  0  0  0  0  0  0  0  0  0  0  0
  160.6620  201.7950  149.7940 C   0  0  0  0  0  0  0  0  0  0  0  0
  161.0920  205.9990  148.6030 C   0  0  0  0  0  0  0  0  0  0  0  0
  160.7920  206.4770  146.4540 C   0  0  0  0  0  0  0  0  0  0  0  0
  160.7760  203.1310  149.4000 C   0  0  0  0  0  3  0  0  0  0  0  0
  161.8680  207.8990  150.6180 C   0  0  0  0  0  0  0  0  0  0  0  0
  161.9190  204.6510  152.5410 N   0  0  0  0  0  0  0  0  0  0  0  0
  160.2550  200.8590  148.9040 F   0  0  0  0  0  0  0  0  0  0  0  0
  161.7250  208.2390  149.1890 N   0  0  0  0  0  4  0  0  0  0  0  0
  161.7510  206.4080  150.9240 C   0  0  0  0  0  0  0  0  0  0  0  0
  160.7620  205.4010  147.4680 C   0  0  0  0  0  3  0  0  0  0  0  0
  160.9700  201.4240  151.1050 C   0  0  0  0  0  3  0  0  0  0  0  0
  161.3370  207.3740  148.3060 C   0  0  0  0  0  0  0  0  0  0  0  0
  161.1490  207.6320  146.9290 N   0  0  0  0  0  0  0  0  0  0  0  0
  162.0440  205.9630  152.2160 C   0  0  0  0  0  3  0  0  0  0  0  0
  161.5060  203.7240  151.6390 C   0  0  0  0  0  0  0  0  0  0  0  0
  161.3910  202.3860  152.0260 C   0  0  0  0  0  3  0  0  0  0  0  0
  162.4310  210.0380  152.4050 O   0  0  0  0  0  0  0  0  0  0  0  0
  161.2200  209.7140  152.2660 C   0  0  0  0  0  0  0  0  0  0  0  0
  160.8770  208.6340  151.3920 N   0  0  0  0  0  2  0  0  0  0  0  0
  158.1090  211.8450  154.2820 C   0  0  0  0  0  0  0  0  0  0  0  0
  159.4220  211.4160  152.3160 C   0  0  0  0  0  3  0  0  0  0  0  0
  160.5180  209.1600  155.1800 C   0  0  0  0  0  1  0  0  0  0  0  0
  157.0280  212.5900  154.9760 C   0  0  0  0  0  1  0  0  0  0  0  0
  158.4030  212.1250  152.9500 C   0  0  0  0  0  3  0  0  0  0  0  0
  159.8130  210.1820  154.3550 C   0  0  0  0  0  0  0  0  0  0  0  0
  160.1470  210.4330  153.0000 C   0  0  0  0  0  0  0  0  0  0  0  0
  158.8120  210.8910  154.9460 N   0  0  0  0  0  0  0  0  0  0  0  0
  160.5280  206.2570  145.0060 C   0  0  0  0  0  2  0  0  0  0  0  0
  160.7700  204.9220  144.6830 O   0  0  0  0  0  1  0  0  0  0  0  0
  1  2  2  0  0  0  0
  1 11  1  0  0  0  0
  2 17  1  0  0  0  0
  3 13  1  0  0  0  0
  4  1  1  0  0  0  0
  5 15  2  0  0  0  0
  5 12  1  0  0  0  0
  6  3  2  0  0  0  0
  6  2  1  0  0  0  0
  7 11  1  0  0  0  0
  7 21  1  0  0  0  0
  9  3  1  0  0  0  0
 10  7  2  0  0  0  0
 11 16  2  0  0  0  0
 12  4  2  0  0  0  0
 13 18  2  0  0  0  0
 14  4  1  0  0  0  0
 14 10  2  0  0  0  0
 15 14  1  0  0  0  0
 16  8  1  0  0  0  0
 17 18  1  0  0  0  0
 17  8  2  0  0  0  0
 20 19  2  0  0  0  0
 20 28  1  0  0  0  0
 21 20  1  0  0  0  0
 22 29  1  0  0  0  0
 22 25  1  0  0  0  0
 23 26  1  0  0  0  0
 23 28  2  0  0  0  0
 26 22  2  0  0  0  0
 27 29  2  0  0  0  0
 27 24  1  0  0  0  0
 28 27  1  0  0  0  0
 30  5  1  0  0  0  0
 31 30  1  0  0  0  0
M  END
>  <MODEL>
1

>  <REMARK>
 VINA RESULT:      -9.2      0.000      0.000
  Name = 
  3 active torsions:
  status: ('A' for Active; 'I' for Inactive)
    1  A    between atoms: C_2  and  CA_13
    2  A    between atoms: C_9  and  C_22
    3  A    between atoms: C_15  and  N_23
                            x       y       z     vdW  Elec       q    Type
                         _______ _______ _______ _____ _____    ______ ____

>  <TORSDO>
F 3

$$$$
=
 OpenBabel11052422363D

 31 35  0  0  0  0  0  0  0  0999 V2000
  161.3700  205.5620  149.9130 C   0  0  0  0  0  0  0  0  0  0  0  0
  161.2030  204.2250  150.3350 C   0  0  0  0  0  0  0  0  0  0  0  0
  160.5830  201.9080  149.9300 C   0  0  0  0  0  0  0  0  0  0  0  0
  161.1290  206.0370  148.5420 C   0  0  0  0  0  0  0  0  0  0  0  0
  160.8070  206.4280  146.3790 C   0  0  0  0  0  0  0  0  0  0  0  0
  160.7340  203.2200  149.4740 C   0  0  0  0  0  3  0  0  0  0  0  0
  162.0020  207.9990  150.4560 C   0  0  0  0  0  0  0  0  0  0  0  0
  161.9820  204.8400  152.5240 N   0  0  0  0  0  0  0  0  0  0  0  0
  160.1300  200.9470  149.0900 F   0  0  0  0  0  0  0  0  0  0  0  0
  161.8450  208.2790  149.0150 N   0  0  0  0  0  4  0  0  0  0  0  0
  161.8420  206.5280  150.8320 C   0  0  0  0  0  0  0  0  0  0  0  0
  160.7600  205.4000  147.4410 C   0  0  0  0  0  3  0  0  0  0  0  0
  160.9020  201.5850  151.2520 C   0  0  0  0  0  3  0  0  0  0  0  0
  161.4140  207.3880  148.1790 C   0  0  0  0  0  0  0  0  0  0  0  0
  161.2100  207.5900  146.7950 N   0  0  0  0  0  0  0  0  0  0  0  0
  162.1440  206.1320  152.1370 C   0  0  0  0  0  3  0  0  0  0  0  0
  161.5230  203.8880  151.6710 C   0  0  0  0  0  0  0  0  0  0  0  0
  161.3710  202.5730  152.1210 C   0  0  0  0  0  3  0  0  0  0  0  0
  162.6750  210.1270  152.2170 O   0  0  0  0  0  0  0  0  0  0  0  0
  161.4490  209.8710  152.0740 C   0  0  0  0  0  0  0  0  0  0  0  0
  161.0500  208.8010  151.2120 N   0  0  0  0  0  2  0  0  0  0  0  0
  158.4700  212.0650  154.2180 C   0  0  0  0  0  0  0  0  0  0  0  0
  159.9570  210.1880  154.0260 C   0  0  0  0  0  3  0  0  0  0  0  0
  160.2680  212.4630  150.9880 C   0  0  0  0  0  1  0  0  0  0  0  0
  157.4360  212.8220  154.9680 C   0  0  0  0  0  1  0  0  0  0  0  0
  158.9870  210.8840  154.7450 C   0  0  0  0  0  3  0  0  0  0  0  0
  159.8580  211.8670  152.2930 C   0  0  0  0  0  0  0  0  0  0  0  0
  160.4140  210.6610  152.7890 C   0  0  0  0  0  0  0  0  0  0  0  0
  158.9130  212.5250  153.0190 N   0  0  0  0  0  0  0  0  0  0  0  0
  160.5100  206.1520  144.9470 C   0  0  0  0  0  2  0  0  0  0  0  0
  161.3410  205.1320  144.4840 O   0  0  0  0  0  1  0  0  0  0  0  0
  1  2  2  0  0  0  0
  1 11  1  0  0  0  0
  2 17  1  0  0  0  0
  3 13  1  0  0  0  0
  4  1  1  0  0  0  0
  5 15  2  0  0  0  0
  5 12  1  0  0  0  0
  6  3  2  0  0  0  0
  6  2  1  0  0  0  0
  7 11  1  0  0  0  0
  7 21  1  0  0  0  0
  9  3  1  0  0  0  0
 10  7  2  0  0  0  0
 11 16  2  0  0  0  0
 12  4  2  0  0  0  0
 13 18  2  0  0  0  0
 14  4  1  0  0  0  0
 14 10  2  0  0  0  0
 15 14  1  0  0  0  0
 16  8  1  0  0  0  0
 17 18  1  0  0  0  0
 17  8  2  0  0  0  0
 20 19  2  0  0  0  0
 20 28  1  0  0  0  0
 21 20  1  0  0  0  0
 22 26  1  0  0  0  0
 22 25  1  0  0  0  0
 23 26  2  0  0  0  0
 24 27  1  0  0  0  0
 27 28  2  0  0  0  0
 27 29  1  0  0  0  0
 28 23  1  0  0  0  0
 29 22  2  0  0  0  0
 30  5  1  0  0  0  0
 31 30  1  0  0  0  0
M  END
>  <MODEL>
2

>  <REMARK>
 VINA RESULT:      -8.8      0.664      1.316
  Name = 
  3 active torsions:
  status: ('A' for Active; 'I' for Inactive)
    1  A    between atoms: C_2  and  CA_13
    2  A    between atoms: C_9  and  C_22
    3  A    between atoms: C_15  and  N_23
                            x       y       z     vdW  Elec       q    Type
                         _______ _______ _______ _____ _____    ______ ____

>  <TORSDO>
F 3

$$$$
=
 OpenBabel11052422363D

 31 35  0  0  0  0  0  0  0  0999 V2000
  161.5020  208.0820  151.2550 C   0  0  0  0  0  0  0  0  0  0  0  0
  161.2710  208.2010  152.6430 C   0  0  0  0  0  0  0  0  0  0  0  0
  160.5870  207.2880  154.7910 C   0  0  0  0  0  0  0  0  0  0  0  0
  161.3330  206.8380  150.4880 C   0  0  0  0  0  0  0  0  0  0  0  0
  161.1120  204.8000  149.6310 C   0  0  0  0  0  0  0  0  0  0  0  0
  160.8010  207.1300  153.4190 C   0  0  0  0  0  3  0  0  0  0  0  0
  162.1970  209.1550  149.0190 C   0  0  0  0  0  0  0  0  0  0  0  0
  161.9820  210.4950  152.5420 N   0  0  0  0  0  0  0  0  0  0  0  0
  160.1340  206.2480  155.5300 F   0  0  0  0  0  0  0  0  0  0  0  0
  162.1070  207.8040  148.4320 N   0  0  0  0  0  4  0  0  0  0  0  0
  161.9700  209.2010  150.5290 C   0  0  0  0  0  0  0  0  0  0  0  0
  160.9860  205.6140  150.8590 C   0  0  0  0  0  3  0  0  0  0  0  0
  160.8400  208.5190  155.4010 C   0  0  0  0  0  3  0  0  0  0  0  0
  161.6800  206.7830  149.1040 C   0  0  0  0  0  0  0  0  0  0  0  0
  161.5380  205.4690  148.6030 N   0  0  0  0  0  0  0  0  0  0  0  0
  162.2040  210.4000  151.2070 C   0  0  0  0  0  3  0  0  0  0  0  0
  161.5240  209.4430  153.2700 C   0  0  0  0  0  0  0  0  0  0  0  0
  161.3080  209.5950  154.6430 C   0  0  0  0  0  3  0  0  0  0  0  0
  162.7570  211.7800  148.0790 O   0  0  0  0  0  0  0  0  0  0  0  0
  161.5890  211.3440  147.8920 C   0  0  0  0  0  0  0  0  0  0  0  0
  161.2430  210.0350  148.3570 N   0  0  0  0  0  2  0  0  0  0  0  0
  158.6590  213.6540  145.8040 C   0  0  0  0  0  0  0  0  0  0  0  0
  160.2470  211.8540  145.8730 C   0  0  0  0  0  3  0  0  0  0  0  0
  160.1520  213.6870  149.2090 C   0  0  0  0  0  1  0  0  0  0  0  0
  157.6430  214.4530  145.0730 C   0  0  0  0  0  1  0  0  0  0  0  0
  159.2960  212.5910  145.1700 C   0  0  0  0  0  3  0  0  0  0  0  0
  159.8920  213.2600  147.8030 C   0  0  0  0  0  0  0  0  0  0  0  0
  160.5660  212.1690  147.2000 C   0  0  0  0  0  0  0  0  0  0  0  0
  158.9670  213.9610  147.0910 N   0  0  0  0  0  0  0  0  0  0  0  0
  160.8640  203.3340  149.5820 C   0  0  0  0  0  2  0  0  0  0  0  0
  161.1470  202.8520  148.3040 O   0  0  0  0  0  1  0  0  0  0  0  0
  1  2  1  0  0  0  0
  2 17  2  0  0  0  0
  2  6  1  0  0  0  0
  3 13  1  0  0  0  0
  3  9  1  0  0  0  0
  4 12  2  0  0  0  0
  4  1  1  0  0  0  0
  5 12  1  0  0  0  0
  6  3  2  0  0  0  0
  7 11  1  0  0  0  0
  8 17  1  0  0  0  0
 10  7  2  0  0  0  0
 10 14  2  0  0  0  0
 11 16  1  0  0  0  0
 11  1  2  0  0  0  0
 14  4  1  0  0  0  0
 15 14  1  0  0  0  0
 15  5  2  0  0  0  0
 16  8  2  0  0  0  0
 17 18  1  0  0  0  0
 18 13  2  0  0  0  0
 20 19  2  0  0  0  0
 20 21  1  0  0  0  0
 21  7  1  0  0  0  0
 22 29  1  0  0  0  0
 23 28  2  0  0  0  0
 25 22  1  0  0  0  0
 26 22  2  0  0  0  0
 26 23  1  0  0  0  0
 27 24  1  0  0  0  0
 28 27  1  0  0  0  0
 28 20  1  0  0  0  0
 29 27  2  0  0  0  0
 30  5  1  0  0  0  0
 31 30  1  0  0  0  0
M  END
>  <MODEL>
3

>  <REMARK>
 VINA RESULT:      -8.0      3.864      5.847
  Name = 
  3 active torsions:
  status: ('A' for Active; 'I' for Inactive)
    1  A    between atoms: C_2  and  CA_13
    2  A    between atoms: C_9  and  C_22
    3  A    between atoms: C_15  and  N_23
                            x       y       z     vdW  Elec       q    Type
                         _______ _______ _______ _____ _____    ______ ____

>  <TORSDO>
F 3

$$$$
=
 OpenBabel11052422363D

 31 35  0  0  0  0  0  0  0  0999 V2000
  161.3980  207.4870  151.6860 C   0  0  0  0  0  0  0  0  0  0  0  0
  161.2100  206.1630  151.2310 C   0  0  0  0  0  0  0  0  0  0  0  0
  160.9480  204.5200  149.4570 C   0  0  0  0  0  0  0  0  0  0  0  0
  161.5850  208.6500  150.8060 C   0  0  0  0  0  0  0  0  0  0  0  0
  161.9630  210.1790  149.2380 C   0  0  0  0  0  0  0  0  0  0  0  0
  161.1340  205.8430  149.8670 C   0  0  0  0  0  3  0  0  0  0  0  0
  161.6160  209.1540  153.6370 C   0  0  0  0  0  0  0  0  0  0  0  0
  161.1710  205.4070  153.5130 N   0  0  0  0  0  0  0  0  0  0  0  0
  160.8770  204.2240  148.1380 F   0  0  0  0  0  0  0  0  0  0  0  0
  161.9200  210.1820  152.6220 N   0  0  0  0  0  4  0  0  0  0  0  0
  161.4610  207.7430  153.0750 C   0  0  0  0  0  0  0  0  0  0  0  0
  161.6520  208.7550  149.4870 C   0  0  0  0  0  3  0  0  0  0  0  0
  160.8380  203.5030  150.4080 C   0  0  0  0  0  3  0  0  0  0  0  0
  161.8630  209.9400  151.3510 C   0  0  0  0  0  0  0  0  0  0  0  0
  162.1100  210.8770  150.3230 N   0  0  0  0  0  0  0  0  0  0  0  0
  161.3460  206.6740  153.9680 C   0  0  0  0  0  3  0  0  0  0  0  0
  161.0970  205.1250  152.1860 C   0  0  0  0  0  0  0  0  0  0  0  0
  160.9130  203.8040  151.7700 C   0  0  0  0  0  3  0  0  0  0  0  0
  160.7940  211.8170  154.2050 O   0  0  0  0  0  0  0  0  0  0  0  0
  160.0370  210.8880  154.6000 C   0  0  0  0  0  0  0  0  0  0  0  0
  160.4060  209.5270  154.3570 N   0  0  0  0  0  2  0  0  0  0  0  0
  156.3330  211.6960  156.5780 C   0  0  0  0  0  0  0  0  0  0  0  0
  157.5670  210.7660  154.7390 C   0  0  0  0  0  3  0  0  0  0  0  0
  159.9250  212.3710  157.2610 C   0  0  0  0  0  1  0  0  0  0  0  0
  155.0430  211.9740  157.2600 C   0  0  0  0  0  1  0  0  0  0  0  0
  156.3460  211.0160  155.3630 C   0  0  0  0  0  3  0  0  0  0  0  0
  158.7080  211.8760  156.5550 C   0  0  0  0  0  0  0  0  0  0  0  0
  158.7710  211.1870  155.3170 C   0  0  0  0  0  0  0  0  0  0  0  0
  157.5010  212.1050  157.1400 N   0  0  0  0  0  0  0  0  0  0  0  0
  162.1780  210.7540  147.8830 C   0  0  0  0  0  2  0  0  0  0  0  0
  161.9620  212.1320  147.9190 O   0  0  0  0  0  1  0  0  0  0  0  0
  1 11  1  0  0  0  0
  2  1  2  0  0  0  0
  2 17  1  0  0  0  0
  3  6  2  0  0  0  0
  3 13  1  0  0  0  0
  4 14  1  0  0  0  0
  4  1  1  0  0  0  0
  5 12  1  0  0  0  0
  5 15  2  0  0  0  0
  6  2  1  0  0  0  0
  7 21  1  0  0  0  0
  8 16  1  0  0  0  0
  9  3  1  0  0  0  0
 10  7  2  0  0  0  0
 11  7  1  0  0  0  0
 11 16  2  0  0  0  0
 12  4  2  0  0  0  0
 13 18  2  0  0  0  0
 14 10  2  0  0  0  0
 15 14  1  0  0  0  0
 17  8  2  0  0  0  0
 18 17  1  0  0  0  0
 19 20  2  0  0  0  0
 20 28  1  0  0  0  0
 21 20  1  0  0  0  0
 22 29  1  0  0  0  0
 22 25  1  0  0  0  0
 23 28  2  0  0  0  0
 23 26  1  0  0  0  0
 26 22  2  0  0  0  0
 27 29  2  0  0  0  0
 27 24  1  0  0  0  0
 28 27  1  0  0  0  0
 30 31  1  0  0  0  0
 30  5  1  0  0  0  0
M  END
>  <MODEL>
4

>  <REMARK>
 VINA RESULT:      -7.4      2.624      3.499
  Name = 
  3 active torsions:
  status: ('A' for Active; 'I' for Inactive)
    1  A    between atoms: C_2  and  CA_13
    2  A    between atoms: C_9  and  C_22
    3  A    between atoms: C_15  and  N_23
                            x       y       z     vdW  Elec       q    Type
                         _______ _______ _______ _____ _____    ______ ____

>  <TORSDO>
F 3

$$$$
=
 OpenBabel11052422363D

 31 35  0  0  0  0  0  0  0  0999 V2000
  161.6230  205.6140  149.8070 C   0  0  0  0  0  0  0  0  0  0  0  0
  161.3530  204.3970  150.4720 C   0  0  0  0  0  0  0  0  0  0  0  0
  160.5870  202.0890  150.4970 C   0  0  0  0  0  0  0  0  0  0  0  0
  161.4510  205.8280  148.3630 C   0  0  0  0  0  0  0  0  0  0  0  0
  161.2130  205.8100  146.1530 C   0  0  0  0  0  0  0  0  0  0  0  0
  160.8390  203.2760  149.8030 C   0  0  0  0  0  3  0  0  0  0  0  0
  162.4060  208.0660  149.8960 C   0  0  0  0  0  0  0  0  0  0  0  0
  162.1150  205.3770  152.5300 N   0  0  0  0  0  0  0  0  0  0  0  0
  160.0910  201.0140  149.8400 F   0  0  0  0  0  0  0  0  0  0  0  0
  162.3060  208.0690  148.4230 N   0  0  0  0  0  4  0  0  0  0  0  0
  162.1360  206.7090  150.5410 C   0  0  0  0  0  0  0  0  0  0  0  0
  161.0680  205.0130  147.3910 C   0  0  0  0  0  3  0  0  0  0  0  0
  160.8480  202.0110  151.8670 C   0  0  0  0  0  3  0  0  0  0  0  0
  161.8370  207.0620  147.7580 C   0  0  0  0  0  0  0  0  0  0  0  0
  161.6830  207.0030  146.3540 N   0  0  0  0  0  0  0  0  0  0  0  0
  162.3750  206.5560  151.9090 C   0  0  0  0  0  3  0  0  0  0  0  0
  161.6140  204.3080  151.8590 C   0  0  0  0  0  0  0  0  0  0  0  0
  161.3610  203.1180  152.5470 C   0  0  0  0  0  3  0  0  0  0  0  0
  163.0530  209.9610  151.9150 O   0  0  0  0  0  0  0  0  0  0  0  0
  161.8800  209.9970  151.4530 C   0  0  0  0  0  0  0  0  0  0  0  0
  161.4910  209.0570  150.4460 N   0  0  0  0  0  2  0  0  0  0  0  0
  159.0410  212.9170  152.7520 C   0  0  0  0  0  0  0  0  0  0  0  0
  160.3870  211.9270  151.0270 C   0  0  0  0  0  3  0  0  0  0  0  0
  160.9120  210.1250  154.3400 C   0  0  0  0  0  1  0  0  0  0  0  0
  158.0550  213.9350  153.1970 C   0  0  0  0  0  1  0  0  0  0  0  0
  159.4610  212.8890  151.4250 C   0  0  0  0  0  3  0  0  0  0  0  0
  160.4390  211.0630  153.2820 C   0  0  0  0  0  0  0  0  0  0  0  0
  160.8950  210.9960  151.9420 C   0  0  0  0  0  0  0  0  0  0  0  0
  159.5330  212.0140  153.6400 N   0  0  0  0  0  0  0  0  0  0  0  0
  160.9350  205.2800  144.7910 C   0  0  0  0  0  2  0  0  0  0  0  0
  161.2950  206.2300  143.8360 O   0  0  0  0  0  1  0  0  0  0  0  0
  1  2  2  0  0  0  0
  1 11  1  0  0  0  0
  2 17  1  0  0  0  0
  3 13  1  0  0  0  0
  4  1  1  0  0  0  0
  5 15  2  0  0  0  0
  5 12  1  0  0  0  0
  6  2  1  0  0  0  0
  6  3  2  0  0  0  0
  7 21  1  0  0  0  0
  7 11  1  0  0  0  0
  9  3  1  0  0  0  0
 10  7  2  0  0  0  0
 11 16  2  0  0  0  0
 12  4  2  0  0  0  0
 13 18  2  0  0  0  0
 14  4  1  0  0  0  0
 14 10  2  0  0  0  0
 15 14  1  0  0  0  0
 16  8  1  0  0  0  0
 17  8  2  0  0  0  0
 17 18  1  0  0  0  0
 20 19  2  0  0  0  0
 20 28  1  0  0  0  0
 21 20  1  0  0  0  0
 22 25  1  0  0  0  0
 22 29  1  0  0  0  0
 23 26  1  0  0  0  0
 23 28  2  0  0  0  0
 26 22  2  0  0  0  0
 27 29  2  0  0  0  0
 27 24  1  0  0  0  0
 28 27  1  0  0  0  0
 30  5  1  0  0  0  0
 31 30  1  0  0  0  0
M  END
>  <MODEL>
5

>  <REMARK>
 VINA RESULT:      -7.2      1.102      1.195
  Name = 
  3 active torsions:
  status: ('A' for Active; 'I' for Inactive)
    1  A    between atoms: C_2  and  CA_13
    2  A    between atoms: C_9  and  C_22
    3  A    between atoms: C_15  and  N_23
                            x       y       z     vdW  Elec       q    Type
                         _______ _______ _______ _____ _____    ______ ____

>  <TORSDO>
F 3

$$$$
=
 OpenBabel11052422363D

 31 35  0  0  0  0  0  0  0  0999 V2000
  160.6770  210.2600  152.5350 C   0  0  0  0  0  0  0  0  0  0  0  0
  160.4860  211.3360  151.6400 C   0  0  0  0  0  0  0  0  0  0  0  0
  159.4430  213.4400  151.0050 C   0  0  0  0  0  0  0  0  0  0  0  0
  160.0310  210.1490  153.8510 C   0  0  0  0  0  0  0  0  0  0  0  0
  159.0140  210.3200  155.8200 C   0  0  0  0  0  0  0  0  0  0  0  0
  159.6030  212.3920  151.9160 C   0  0  0  0  0  3  0  0  0  0  0  0
  161.7980  208.0100  153.0930 C   0  0  0  0  0  0  0  0  0  0  0  0
  162.0750  210.3410  150.1370 N   0  0  0  0  0  0  0  0  0  0  0  0
  158.5890  214.4530  151.2820 F   0  0  0  0  0  0  0  0  0  0  0  0
  161.1760  208.1200  154.4270 N   0  0  0  0  0  4  0  0  0  0  0  0
  161.5770  209.2240  152.1950 C   0  0  0  0  0  0  0  0  0  0  0  0
  159.2060  210.9580  154.4990 C   0  0  0  0  0  3  0  0  0  0  0  0
  160.1640  213.4430  149.8090 C   0  0  0  0  0  3  0  0  0  0  0  0
  160.3540  209.0730  154.7320 C   0  0  0  0  0  0  0  0  0  0  0  0
  159.6980  209.2280  155.9750 N   0  0  0  0  0  0  0  0  0  0  0  0
  162.2670  209.2960  150.9820 C   0  0  0  0  0  3  0  0  0  0  0  0
  161.2120  211.3490  150.4260 C   0  0  0  0  0  0  0  0  0  0  0  0
  161.0470  212.4000  149.5200 C   0  0  0  0  0  3  0  0  0  0  0  0
  163.3910  206.1540  151.6420 O   0  0  0  0  0  0  0  0  0  0  0  0
  162.1560  205.9080  151.7210 C   0  0  0  0  0  0  0  0  0  0  0  0
  161.3010  206.8140  152.4250 N   0  0  0  0  0  2  0  0  0  0  0  0
  160.5070  202.3560  150.0050 C   0  0  0  0  0  0  0  0  0  0  0  0
  161.4930  203.5250  151.8570 C   0  0  0  0  0  3  0  0  0  0  0  0
  161.1440  205.8320  148.8470 C   0  0  0  0  0  1  0  0  0  0  0  0
  159.9350  201.1190  149.4140 C   0  0  0  0  0  1  0  0  0  0  0  0
  160.9600  202.3540  151.3210 C   0  0  0  0  0  3  0  0  0  0  0  0
  161.1030  204.6490  149.7550 C   0  0  0  0  0  0  0  0  0  0  0  0
  161.5770  204.6940  151.0900 C   0  0  0  0  0  0  0  0  0  0  0  0
  160.5870  203.4900  149.2600 N   0  0  0  0  0  0  0  0  0  0  0  0
  158.1890  210.9070  156.9100 C   0  0  0  0  0  2  0  0  0  0  0  0
  157.3390  211.8800  156.3830 O   0  0  0  0  0  1  0  0  0  0  0  0
  1  4  1  0  0  0  0
  2  6  1  0  0  0  0
  2  1  2  0  0  0  0
  3  9  1  0  0  0  0
  3  6  2  0  0  0  0
  4 12  2  0  0  0  0
  4 14  1  0  0  0  0
  5 15  2  0  0  0  0
  5 30  1  0  0  0  0
  7 10  2  0  0  0  0
  8 17  2  0  0  0  0
  8 16  1  0  0  0  0
 10 14  2  0  0  0  0
 11  1  1  0  0  0  0
 11  7  1  0  0  0  0
 12  5  1  0  0  0  0
 13  3  1  0  0  0  0
 14 15  1  0  0  0  0
 16 11  2  0  0  0  0
 17  2  1  0  0  0  0
 18 13  2  0  0  0  0
 18 17  1  0  0  0  0
 19 20  2  0  0  0  0
 20 21  1  0  0  0  0
 21  7  1  0  0  0  0
 22 26  1  0  0  0  0
 24 27  1  0  0  0  0
 25 22  1  0  0  0  0
 26 23  2  0  0  0  0
 27 28  2  0  0  0  0
 28 20  1  0  0  0  0
 28 23  1  0  0  0  0
 29 27  1  0  0  0  0
 29 22  2  0  0  0  0
 31 30  1  0  0  0  0
M  END
>  <MODEL>
6

>  <REMARK>
 VINA RESULT:      -7.2      3.381      8.755
  Name = 
  3 active torsions:
  status: ('A' for Active; 'I' for Inactive)
    1  A    between atoms: C_2  and  CA_13
    2  A    between atoms: C_9  and  C_22
    3  A    between atoms: C_15  and  N_23
                            x       y       z     vdW  Elec       q    Type
                         _______ _______ _______ _____ _____    ______ ____

>  <TORSDO>
F 3

$$$$
=
 OpenBabel11052422363D

 31 35  0  0  0  0  0  0  0  0999 V2000
  161.7400  206.5650  149.7970 C   0  0  0  0  0  0  0  0  0  0  0  0
  161.4500  205.9470  151.0340 C   0  0  0  0  0  0  0  0  0  0  0  0
  160.8720  204.0060  152.3800 C   0  0  0  0  0  0  0  0  0  0  0  0
  161.8180  205.8550  148.5120 C   0  0  0  0  0  0  0  0  0  0  0  0
  161.9870  204.5010  146.7570 C   0  0  0  0  0  0  0  0  0  0  0  0
  161.1530  204.5790  151.1370 C   0  0  0  0  0  3  0  0  0  0  0  0
  162.3040  208.6890  148.4550 C   0  0  0  0  0  0  0  0  0  0  0  0
  161.7470  208.0630  152.1360 N   0  0  0  0  0  0  0  0  0  0  0  0
  160.5880  202.6850  152.4670 F   0  0  0  0  0  0  0  0  0  0  0  0
  162.4720  207.8100  147.2820 N   0  0  0  0  0  4  0  0  0  0  0  0
  162.0260  207.9490  149.7610 C   0  0  0  0  0  0  0  0  0  0  0  0
  161.6820  204.5740  148.2030 C   0  0  0  0  0  3  0  0  0  0  0  0
  160.8850  204.7940  153.5330 C   0  0  0  0  0  3  0  0  0  0  0  0
  162.2110  206.5420  147.3230 C   0  0  0  0  0  0  0  0  0  0  0  0
  162.3200  205.6430  146.2370 N   0  0  0  0  0  0  0  0  0  0  0  0
  162.0240  208.6740  150.9560 C   0  0  0  0  0  3  0  0  0  0  0  0
  161.4600  206.7370  152.2080 C   0  0  0  0  0  0  0  0  0  0  0  0
  161.1790  206.1570  153.4470 C   0  0  0  0  0  3  0  0  0  0  0  0
  162.6460  211.4770  148.0080 O   0  0  0  0  0  0  0  0  0  0  0  0
  161.4660  211.0320  147.9640 C   0  0  0  0  0  0  0  0  0  0  0  0
  161.2300  209.6400  148.1970 N   0  0  0  0  0  2  0  0  0  0  0  0
  158.1550  213.5730  147.0380 C   0  0  0  0  0  0  0  0  0  0  0  0
  159.6770  211.8140  146.4400 C   0  0  0  0  0  3  0  0  0  0  0  0
  160.4430  213.1210  149.9330 C   0  0  0  0  0  1  0  0  0  0  0  0
  157.0040  214.4530  146.7100 C   0  0  0  0  0  1  0  0  0  0  0  0
  158.5950  212.6300  146.1130 C   0  0  0  0  0  3  0  0  0  0  0  0
  159.8360  212.9070  148.5880 C   0  0  0  0  0  0  0  0  0  0  0  0
  160.3200  211.9320  147.6790 C   0  0  0  0  0  0  0  0  0  0  0  0
  158.7770  213.6890  148.2400 N   0  0  0  0  0  0  0  0  0  0  0  0
  162.0030  203.2340  145.9780 C   0  0  0  0  0  2  0  0  0  0  0  0
  160.7840  202.5730  146.1320 O   0  0  0  0  0  1  0  0  0  0  0  0
  1  2  1  0  0  0  0
  2  6  2  0  0  0  0
  2 17  1  0  0  0  0
  3  9  1  0  0  0  0
  3 13  2  0  0  0  0
  4  1  1  0  0  0  0
  5 12  1  0  0  0  0
  6  3  1  0  0  0  0
  7 11  1  0  0  0  0
  8 17  1  0  0  0  0
 10 14  2  0  0  0  0
 10  7  2  0  0  0  0
 11  1  2  0  0  0  0
 11 16  1  0  0  0  0
 12  4  2  0  0  0  0
 14  4  1  0  0  0  0
 15  5  2  0  0  0  0
 15 14  1  0  0  0  0
 16  8  2  0  0  0  0
 17 18  2  0  0  0  0
 18 13  1  0  0  0  0
 20 19  2  0  0  0  0
 20 21  1  0  0  0  0
 21  7  1  0  0  0  0
 22 29  1  0  0  0  0
 23 28  2  0  0  0  0
 25 22  1  0  0  0  0
 26 23  1  0  0  0  0
 26 22  2  0  0  0  0
 27 24  1  0  0  0  0
 28 20  1  0  0  0  0
 28 27  1  0  0  0  0
 29 27  2  0  0  0  0
 30 31  1  0  0  0  0
 30  5  1  0  0  0  0
M  END
>  <MODEL>
7

>  <REMARK>
 VINA RESULT:      -6.5      3.296      4.331
  Name = 
  3 active torsions:
  status: ('A' for Active; 'I' for Inactive)
    1  A    between atoms: C_2  and  CA_13
    2  A    between atoms: C_9  and  C_22
    3  A    between atoms: C_15  and  N_23
                            x       y       z     vdW  Elec       q    Type
                         _______ _______ _______ _____ _____    ______ ____

>  <TORSDO>
F 3

$$$$
=
 OpenBabel11052422363D

 31 35  0  0  0  0  0  0  0  0999 V2000
  159.8420  210.8330  153.0780 C   0  0  0  0  0  0  0  0  0  0  0  0
  158.8030  211.7880  153.1350 C   0  0  0  0  0  0  0  0  0  0  0  0
  156.8700  212.7940  154.2150 C   0  0  0  0  0  0  0  0  0  0  0  0
  160.1090  209.8320  154.1210 C   0  0  0  0  0  0  0  0  0  0  0  0
  160.3400  208.5280  155.9050 C   0  0  0  0  0  0  0  0  0  0  0  0
  157.8830  211.8320  154.1940 C   0  0  0  0  0  3  0  0  0  0  0  0
  161.8490  209.8090  151.8310 C   0  0  0  0  0  0  0  0  0  0  0  0
  159.5690  212.7150  151.0540 N   0  0  0  0  0  0  0  0  0  0  0  0
  155.9880  212.8260  155.2420 F   0  0  0  0  0  0  0  0  0  0  0  0
  162.0590  208.9640  153.0230 N   0  0  0  0  0  4  0  0  0  0  0  0
  160.7330  210.8400  151.9800 C   0  0  0  0  0  0  0  0  0  0  0  0
  159.5280  209.5990  155.2880 C   0  0  0  0  0  3  0  0  0  0  0  0
  156.7660  213.7230  153.1770 C   0  0  0  0  0  3  0  0  0  0  0  0
  161.2400  208.9650  154.0260 C   0  0  0  0  0  0  0  0  0  0  0  0
  161.3570  208.1640  155.1850 N   0  0  0  0  0  0  0  0  0  0  0  0
  160.5700  211.8010  150.9790 C   0  0  0  0  0  3  0  0  0  0  0  0
  158.6890  212.7330  152.0890 C   0  0  0  0  0  0  0  0  0  0  0  0
  157.6740  213.6930  152.1160 C   0  0  0  0  0  3  0  0  0  0  0  0
  163.0400  207.2740  151.3360 O   0  0  0  0  0  0  0  0  0  0  0  0
  162.1990  207.6850  150.4900 C   0  0  0  0  0  0  0  0  0  0  0  0
  161.5780  208.9610  150.6780 N   0  0  0  0  0  2  0  0  0  0  0  0
  161.2410  205.4090  147.0000 C   0  0  0  0  0  0  0  0  0  0  0  0
  162.2580  207.3200  148.0410 C   0  0  0  0  0  3  0  0  0  0  0  0
  160.6310  205.0760  150.6520 C   0  0  0  0  0  1  0  0  0  0  0  0
  160.9120  204.6240  145.7830 C   0  0  0  0  0  1  0  0  0  0  0  0
  161.9590  206.5970  146.8870 C   0  0  0  0  0  3  0  0  0  0  0  0
  161.1190  205.6530  149.3650 C   0  0  0  0  0  0  0  0  0  0  0  0
  161.8470  206.8670  149.3010 C   0  0  0  0  0  0  0  0  0  0  0  0
  160.8430  204.9690  148.2210 N   0  0  0  0  0  0  0  0  0  0  0  0
  160.0810  207.9710  157.2610 C   0  0  0  0  0  2  0  0  0  0  0  0
  160.2190  206.5830  157.2320 O   0  0  0  0  0  1  0  0  0  0  0  0
  1  2  1  0  0  0  0
  1  4  1  0  0  0  0
  2  6  1  0  0  0  0
  3  9  1  0  0  0  0
  4 12  2  0  0  0  0
  5 30  1  0  0  0  0
  6  3  2  0  0  0  0
  7 11  1  0  0  0  0
  7 10  2  0  0  0  0
  8 17  1  0  0  0  0
 10 14  2  0  0  0  0
 11  1  2  0  0  0  0
 12  5  1  0  0  0  0
 13  3  1  0  0  0  0
 14  4  1  0  0  0  0
 14 15  1  0  0  0  0
 15  5  2  0  0  0  0
 16  8  2  0  0  0  0
 16 11  1  0  0  0  0
 17 18  1  0  0  0  0
 17  2  2  0  0  0  0
 18 13  2  0  0  0  0
 20 21  1  0  0  0  0
 20 19  2  0  0  0  0
 21  7  1  0  0  0  0
 22 29  1  0  0  0  0
 23 28  2  0  0  0  0
 25 22  1  0  0  0  0
 26 22  2  0  0  0  0
 26 23  1  0  0  0  0
 27 24  1  0  0  0  0
 28 27  1  0  0  0  0
 28 20  1  0  0  0  0
 29 27  2  0  0  0  0
 31 30  1  0  0  0  0
M  END
>  <MODEL>
8

>  <REMARK>
 VINA RESULT:      -6.4      3.480      8.759
  Name = 
  3 active torsions:
  status: ('A' for Active; 'I' for Inactive)
    1  A    between atoms: C_2  and  CA_13
    2  A    between atoms: C_9  and  C_22
    3  A    between atoms: C_15  and  N_23
                            x       y       z     vdW  Elec       q    Type
                         _______ _______ _______ _____ _____    ______ ____

>  <TORSDO>
F 3

$$$$
