=
 OpenBabel11052422373D

 31 35  0  0  1  0  0  0  0  0999 V2000
  160.8800  207.8880  156.0660 C   0  0  0  0  0  0  0  0  0  0  0  0
  161.0180  207.5970  152.3080 N   0  0  0  0  0  0  0  0  0  0  0  0
  160.9840  206.2910  151.7510 C   0  0  0  0  0  0  0  0  0  0  0  0
  160.9780  203.9430  151.7430 C   0  0  0  0  0  0  0  0  0  0  0  0
  161.4280  207.9780  153.6570 C   0  0  2  0  0  3  0  0  0  0  0  0
  161.3600  209.1260  156.2590 C   0  0  0  0  0  3  0  0  0  0  0  0
  160.9280  205.1200  152.4350 N   0  0  0  0  0  2  0  0  0  0  0  0
  161.5500  209.7250  151.3150 C   0  0  0  0  0  0  0  0  0  0  0  0
  160.8420  206.9270  157.2030 C   0  0  0  0  0  1  0  0  0  0  0  0
  161.8620  208.0670  148.6670 C   0  0  0  0  0  1  0  0  0  0  0  0
  160.9090  202.8510  152.3630 O   0  0  0  0  0  0  0  0  0  0  0  0
  161.5840  210.2740  152.6920 C   0  0  0  0  0  3  0  0  0  0  0  0
  161.2640  208.4230  151.1680 C   0  0  0  0  0  0  0  0  0  0  0  0
  160.4530  207.4350  154.6970 C   0  0  0  0  0  2  0  0  0  0  0  0
  161.1130  203.9440  150.3380 C   0  0  0  0  0  3  0  0  0  0  0  0
  161.4990  209.4920  153.7790 C   0  0  0  0  0  0  0  0  0  0  0  0
  161.4590  210.1360  155.1390 C   0  0  0  0  0  2  0  0  0  0  0  0
  161.2660  207.6770  149.9360 N   0  0  0  0  0  0  0  0  0  0  0  0
  161.1180  206.3330  150.3860 C   0  0  0  0  0  0  0  0  0  0  0  0
  161.1960  205.1600  149.6400 C   0  0  0  0  0  3  0  0  0  0  0  0
  160.4630  212.3880  150.7680 O   0  0  0  0  0  0  0  0  0  0  0  0
  161.2270  211.8570  149.9200 C   0  0  0  0  0  0  0  0  0  0  0  0
  161.7780  210.5540  150.1660 N   0  0  0  0  0  2  0  0  0  0  0  0
  162.3840  213.8400  146.2830 C   0  0  0  0  0  0  0  0  0  0  0  0
  162.8670  212.3780  148.1430 C   0  0  0  0  0  3  0  0  0  0  0  0
  159.0320  213.7370  148.4810 Cl  0  0  0  0  0  0  0  0  0  0  0  0
  162.7720  214.4530  145.1390 F   0  0  0  0  0  0  0  0  0  0  0  0
  163.2700  213.0080  146.9650 C   0  0  0  0  0  3  0  0  0  0  0  0
  160.6790  213.4120  147.9590 C   0  0  0  0  0  0  0  0  0  0  0  0
  161.5750  212.5640  148.6610 C   0  0  0  0  0  0  0  0  0  0  0  0
  161.0960  214.0390  146.7780 C   0  0  0  0  0  3  0  0  0  0  0  0
  1  6  2  0  0  0  0
  1  9  1  0  0  0  0
  2  5  1  0  0  0  0
  3  2  1  0  0  0  0
  3  7  1  0  0  0  0
  4 11  2  0  0  0  0
  4  7  1  0  0  0  0
  5 16  1  0  0  0  0
  5 14  1  1  0  0  0
  8 12  1  0  0  0  0
 10 18  1  0  0  0  0
 12 16  2  0  0  0  0
 13  8  2  0  0  0  0
 13  2  1  0  0  0  0
 14  1  1  0  0  0  0
 15  4  1  0  0  0  0
 16 17  1  0  0  0  0
 17  6  1  0  0  0  0
 18 19  1  0  0  0  0
 18 13  1  0  0  0  0
 19  3  2  0  0  0  0
 20 15  2  0  0  0  0
 20 19  1  0  0  0  0
 22 23  1  0  0  0  0
 22 21  2  0  0  0  0
 23  8  1  0  0  0  0
 24 31  2  0  0  0  0
 24 28  1  0  0  0  0
 25 30  1  0  0  0  0
 27 24  1  0  0  0  0
 28 25  2  0  0  0  0
 29 26  1  0  0  0  0
 29 30  2  0  0  0  0
 30 22  1  0  0  0  0
 31 29  1  0  0  0  0
M  END
>  <MODEL>
1

>  <REMARK>
 VINA RESULT:      -8.6      0.000      0.000
  Name = 
  2 active torsions:
  status: ('A' for Active; 'I' for Inactive)
    1  A    between atoms: C_9  and  C_22
    2  A    between atoms: C_15  and  N_23
                            x       y       z     vdW  Elec       q    Type
                         _______ _______ _______ _____ _____    ______ ____

>  <TORSDO>
F 2

$$$$
=
 OpenBabel11052422373D

 31 35  0  0  1  0  0  0  0  0999 V2000
  161.0530  210.3750  154.8870 C   0  0  0  0  0  0  0  0  0  0  0  0
  161.6740  209.2110  151.3540 N   0  0  0  0  0  0  0  0  0  0  0  0
  161.7330  210.2030  150.3380 C   0  0  0  0  0  0  0  0  0  0  0  0
  161.5800  212.3520  149.4030 C   0  0  0  0  0  0  0  0  0  0  0  0
  161.0210  209.3090  152.6560 C   0  0  2  0  0  3  0  0  0  0  0  0
  160.6290  209.2440  155.4740 C   0  0  0  0  0  3  0  0  0  0  0  0
  161.5660  211.5400  150.5020 N   0  0  0  0  0  2  0  0  0  0  0  0
  161.5050  206.8140  151.2110 C   0  0  0  0  0  0  0  0  0  0  0  0
  160.7900  211.6870  155.5410 C   0  0  0  0  0  1  0  0  0  0  0  0
  161.6330  207.2940  148.1110 C   0  0  0  0  0  1  0  0  0  0  0  0
  161.4440  213.5940  149.5420 O   0  0  0  0  0  0  0  0  0  0  0  0
  161.2250  206.8230  152.6680 C   0  0  0  0  0  3  0  0  0  0  0  0
  161.7250  207.9920  150.6090 C   0  0  0  0  0  0  0  0  0  0  0  0
  161.7210  210.3370  153.5410 C   0  0  0  0  0  2  0  0  0  0  0  0
  161.7370  211.8040  148.1110 C   0  0  0  0  0  3  0  0  0  0  0  0
  161.0300  207.9590  153.3540 C   0  0  0  0  0  0  0  0  0  0  0  0
  160.8330  207.8850  154.8440 C   0  0  0  0  0  2  0  0  0  0  0  0
  161.9260  208.2130  149.2010 N   0  0  0  0  0  0  0  0  0  0  0  0
  161.8870  209.6340  149.1000 C   0  0  0  0  0  0  0  0  0  0  0  0
  161.8830  210.4170  147.9480 C   0  0  0  0  0  3  0  0  0  0  0  0
  159.7360  204.4870  151.3900 O   0  0  0  0  0  0  0  0  0  0  0  0
  160.6960  204.4610  150.5750 C   0  0  0  0  0  0  0  0  0  0  0  0
  161.5750  205.5910  150.4640 N   0  0  0  0  0  2  0  0  0  0  0  0
  161.3740  200.9230  148.2250 C   0  0  0  0  0  0  0  0  0  0  0  0
  160.9570  202.0120  150.3390 C   0  0  0  0  0  3  0  0  0  0  0  0
  161.1290  204.8390  147.3970 Cl  0  0  0  0  0  0  0  0  0  0  0  0
  161.5860  199.7940  147.5070 F   0  0  0  0  0  0  0  0  0  0  0  0
  161.1750  200.8470  149.6020 C   0  0  0  0  0  3  0  0  0  0  0  0
  161.1360  203.3380  148.3140 C   0  0  0  0  0  0  0  0  0  0  0  0
  160.9340  203.2710  149.7170 C   0  0  0  0  0  0  0  0  0  0  0  0
  161.3540  202.1630  147.5860 C   0  0  0  0  0  3  0  0  0  0  0  0
  1  6  2  0  0  0  0
  1  9  1  0  0  0  0
  2  5  1  0  0  0  0
  3  7  1  0  0  0  0
  3  2  1  0  0  0  0
  4 11  2  0  0  0  0
  4  7  1  0  0  0  0
  5 16  1  0  0  0  0
  5 14  1  1  0  0  0
  8 12  1  0  0  0  0
 10 18  1  0  0  0  0
 12 16  2  0  0  0  0
 13  8  2  0  0  0  0
 13  2  1  0  0  0  0
 14  1  1  0  0  0  0
 15  4  1  0  0  0  0
 16 17  1  0  0  0  0
 17  6  1  0  0  0  0
 18 13  1  0  0  0  0
 19 18  1  0  0  0  0
 19  3  2  0  0  0  0
 20 15  2  0  0  0  0
 20 19  1  0  0  0  0
 22 21  2  0  0  0  0
 23 22  1  0  0  0  0
 23  8  1  0  0  0  0
 24 28  1  0  0  0  0
 26 29  1  0  0  0  0
 27 24  1  0  0  0  0
 28 25  2  0  0  0  0
 29 30  2  0  0  0  0
 30 25  1  0  0  0  0
 30 22  1  0  0  0  0
 31 24  2  0  0  0  0
 31 29  1  0  0  0  0
M  END
>  <MODEL>
2

>  <REMARK>
 VINA RESULT:      -8.5      3.551      7.378
  Name = 
  2 active torsions:
  status: ('A' for Active; 'I' for Inactive)
    1  A    between atoms: C_9  and  C_22
    2  A    between atoms: C_15  and  N_23
                            x       y       z     vdW  Elec       q    Type
                         _______ _______ _______ _____ _____    ______ ____

>  <TORSDO>
F 2

$$$$
=
 OpenBabel11052422373D

 31 35  0  0  1  0  0  0  0  0999 V2000
  161.4690  212.9990  149.4020 C   0  0  0  0  0  0  0  0  0  0  0  0
  161.0160  209.8610  151.4440 N   0  0  0  0  0  0  0  0  0  0  0  0
  160.8670  210.0100  152.8490 C   0  0  0  0  0  0  0  0  0  0  0  0
  160.8090  211.1320  154.9100 C   0  0  0  0  0  0  0  0  0  0  0  0
  161.6390  210.7960  150.5120 C   0  0  2  0  0  3  0  0  0  0  0  0
  162.0010  212.5120  148.2700 C   0  0  0  0  0  3  0  0  0  0  0  0
  160.8930  211.1730  153.5470 N   0  0  0  0  0  2  0  0  0  0  0  0
  161.4340  207.9090  150.0980 C   0  0  0  0  0  0  0  0  0  0  0  0
  161.5870  214.4530  149.7040 C   0  0  0  0  0  1  0  0  0  0  0  0
  161.2940  206.3690  152.8300 C   0  0  0  0  0  1  0  0  0  0  0  0
  160.8140  212.2040  155.5690 O   0  0  0  0  0  0  0  0  0  0  0  0
  161.6930  208.8360  148.9690 C   0  0  0  0  0  3  0  0  0  0  0  0
  161.1000  208.4430  151.2820 C   0  0  0  0  0  0  0  0  0  0  0  0
  160.8260  212.0830  150.4050 C   0  0  0  0  0  2  0  0  0  0  0  0
  160.7250  209.8950  155.5860 C   0  0  0  0  0  3  0  0  0  0  0  0
  161.7610  210.1660  149.1340 C   0  0  0  0  0  0  0  0  0  0  0  0
  161.9470  211.0410  147.9240 C   0  0  0  0  0  2  0  0  0  0  0  0
  160.8950  207.7330  152.5170 N   0  0  0  0  0  0  0  0  0  0  0  0
  160.7880  208.7890  153.4690 C   0  0  0  0  0  0  0  0  0  0  0  0
  160.7250  208.6950  154.8570 C   0  0  0  0  0  3  0  0  0  0  0  0
  160.0060  206.2490  148.1530 O   0  0  0  0  0  0  0  0  0  0  0  0
  160.7830  205.6930  148.9740 C   0  0  0  0  0  0  0  0  0  0  0  0
  161.4990  206.4850  149.9350 N   0  0  0  0  0  2  0  0  0  0  0  0
  161.3020  201.4260  149.0980 C   0  0  0  0  0  0  0  0  0  0  0  0
  160.7630  203.5240  150.1630 C   0  0  0  0  0  3  0  0  0  0  0  0
  161.6550  204.2150  146.2390 Cl  0  0  0  0  0  0  0  0  0  0  0  0
  161.4600  200.0820  149.1630 F   0  0  0  0  0  0  0  0  0  0  0  0
  160.9240  202.1400  150.2330 C   0  0  0  0  0  3  0  0  0  0  0  0
  161.3590  203.4840  147.8100 C   0  0  0  0  0  0  0  0  0  0  0  0
  160.9750  204.2210  148.9620 C   0  0  0  0  0  0  0  0  0  0  0  0
  161.5180  202.0960  147.8940 C   0  0  0  0  0  3  0  0  0  0  0  0
  1  9  1  0  0  0  0
  1 14  1  0  0  0  0
  2  3  1  0  0  0  0
  3 19  2  0  0  0  0
  3  7  1  0  0  0  0
  4 11  2  0  0  0  0
  4 15  1  0  0  0  0
  5 14  1  6  0  0  0
  5  2  1  0  0  0  0
  6  1  2  0  0  0  0
  7  4  1  0  0  0  0
  8 13  2  0  0  0  0
 12 16  2  0  0  0  0
 12  8  1  0  0  0  0
 13  2  1  0  0  0  0
 13 18  1  0  0  0  0
 16  5  1  0  0  0  0
 17  6  1  0  0  0  0
 17 16  1  0  0  0  0
 18 10  1  0  0  0  0
 18 19  1  0  0  0  0
 19 20  1  0  0  0  0
 20 15  2  0  0  0  0
 21 22  2  0  0  0  0
 22 23  1  0  0  0  0
 23  8  1  0  0  0  0
 24 27  1  0  0  0  0
 24 28  1  0  0  0  0
 25 28  2  0  0  0  0
 26 29  1  0  0  0  0
 29 31  1  0  0  0  0
 29 30  2  0  0  0  0
 30 22  1  0  0  0  0
 30 25  1  0  0  0  0
 31 24  2  0  0  0  0
M  END
>  <MODEL>
3

>  <REMARK>
 VINA RESULT:      -8.4      3.810      7.836
  Name = 
  2 active torsions:
  status: ('A' for Active; 'I' for Inactive)
    1  A    between atoms: C_9  and  C_22
    2  A    between atoms: C_15  and  N_23
                            x       y       z     vdW  Elec       q    Type
                         _______ _______ _______ _____ _____    ______ ____

>  <TORSDO>
F 2

$$$$
=
 OpenBabel11052422373D

 31 35  0  0  1  0  0  0  0  0999 V2000
  161.1500  209.9240  154.7900 C   0  0  0  0  0  0  0  0  0  0  0  0
  161.6710  209.0240  151.1650 N   0  0  0  0  0  0  0  0  0  0  0  0
  161.7220  210.0900  150.2270 C   0  0  0  0  0  0  0  0  0  0  0  0
  161.5820  212.3050  149.4610 C   0  0  0  0  0  0  0  0  0  0  0  0
  161.0490  209.0320  152.4860 C   0  0  2  0  0  3  0  0  0  0  0  0
  160.7220  208.7580  155.3000 C   0  0  0  0  0  3  0  0  0  0  0  0
  161.5810  211.4130  150.4950 N   0  0  0  0  0  2  0  0  0  0  0  0
  161.4590  206.6470  150.8450 C   0  0  0  0  0  0  0  0  0  0  0  0
  160.9240  211.1860  155.5480 C   0  0  0  0  0  1  0  0  0  0  0  0
  161.5240  207.3600  147.7890 C   0  0  0  0  0  1  0  0  0  0  0  0
  161.4700  213.5350  149.6970 O   0  0  0  0  0  0  0  0  0  0  0  0
  161.2130  206.5490  152.3040 C   0  0  0  0  0  3  0  0  0  0  0  0
  161.6850  207.8640  150.3290 C   0  0  0  0  0  0  0  0  0  0  0  0
  161.7860  209.9790  153.4290 C   0  0  0  0  0  2  0  0  0  0  0  0
  161.7010  211.8550  148.1280 C   0  0  0  0  0  3  0  0  0  0  0  0
  161.0530  207.6330  153.0800 C   0  0  0  0  0  0  0  0  0  0  0  0
  160.8880  207.4480  154.5640 C   0  0  0  0  0  2  0  0  0  0  0  0
  161.8570  208.1890  148.9370 N   0  0  0  0  0  0  0  0  0  0  0  0
  161.8380  209.6140  148.9450 C   0  0  0  0  0  0  0  0  0  0  0  0
  161.8210  210.4820  147.8570 C   0  0  0  0  0  3  0  0  0  0  0  0
  160.0860  204.0930  151.2480 O   0  0  0  0  0  0  0  0  0  0  0  0
  160.8120  204.2390  150.2300 C   0  0  0  0  0  0  0  0  0  0  0  0
  161.4930  205.4840  150.0060 N   0  0  0  0  0  2  0  0  0  0  0  0
  161.2820  201.1610  147.2640 C   0  0  0  0  0  0  0  0  0  0  0  0
  161.0540  203.4820  147.8880 C   0  0  0  0  0  3  0  0  0  0  0  0
  160.9750  201.1830  151.2620 Cl  0  0  0  0  0  0  0  0  0  0  0  0
  161.4290  200.2100  146.3100 F   0  0  0  0  0  0  0  0  0  0  0  0
  161.2060  202.5050  146.9030 C   0  0  0  0  0  3  0  0  0  0  0  0
  161.0540  201.7660  149.6050 C   0  0  0  0  0  0  0  0  0  0  0  0
  160.9750  203.1380  149.2470 C   0  0  0  0  0  0  0  0  0  0  0  0
  161.2060  200.7950  148.6070 C   0  0  0  0  0  3  0  0  0  0  0  0
  1  6  2  0  0  0  0
  1  9  1  0  0  0  0
  2  5  1  0  0  0  0
  3  7  1  0  0  0  0
  3  2  1  0  0  0  0
  4 11  2  0  0  0  0
  4  7  1  0  0  0  0
  5 16  1  0  0  0  0
  5 14  1  1  0  0  0
  8 12  1  0  0  0  0
 10 18  1  0  0  0  0
 12 16  2  0  0  0  0
 13  8  2  0  0  0  0
 13  2  1  0  0  0  0
 14  1  1  0  0  0  0
 15  4  1  0  0  0  0
 16 17  1  0  0  0  0
 17  6  1  0  0  0  0
 18 19  1  0  0  0  0
 18 13  1  0  0  0  0
 19  3  2  0  0  0  0
 20 15  2  0  0  0  0
 20 19  1  0  0  0  0
 22 21  2  0  0  0  0
 23 22  1  0  0  0  0
 23  8  1  0  0  0  0
 24 31  1  0  0  0  0
 25 30  2  0  0  0  0
 27 24  1  0  0  0  0
 28 24  2  0  0  0  0
 28 25  1  0  0  0  0
 29 26  1  0  0  0  0
 30 29  1  0  0  0  0
 30 22  1  0  0  0  0
 31 29  2  0  0  0  0
M  END
>  <MODEL>
4

>  <REMARK>
 VINA RESULT:      -8.4      3.893      7.516
  Name = 
  2 active torsions:
  status: ('A' for Active; 'I' for Inactive)
    1  A    between atoms: C_9  and  C_22
    2  A    between atoms: C_15  and  N_23
                            x       y       z     vdW  Elec       q    Type
                         _______ _______ _______ _____ _____    ______ ____

>  <TORSDO>
F 2

$$$$
=
 OpenBabel11052422373D

 31 35  0  0  1  0  0  0  0  0999 V2000
  160.8490  201.5750  149.9830 C   0  0  0  0  0  0  0  0  0  0  0  0
  161.0190  205.3380  149.8090 N   0  0  0  0  0  0  0  0  0  0  0  0
  161.1310  205.9300  148.5220 C   0  0  0  0  0  0  0  0  0  0  0  0
  161.3850  205.9990  146.1890 C   0  0  0  0  0  0  0  0  0  0  0  0
  161.3850  203.9790  150.1970 C   0  0  2  0  0  3  0  0  0  0  0  0
  161.1890  201.3480  151.2620 C   0  0  0  0  0  3  0  0  0  0  0  0
  161.2050  205.2770  147.3340 N   0  0  0  0  0  2  0  0  0  0  0  0
  161.3110  206.2740  152.0080 C   0  0  0  0  0  0  0  0  0  0  0  0
  160.9190  200.4630  148.9940 C   0  0  0  0  0  1  0  0  0  0  0  0
  161.8050  208.9630  150.4660 C   0  0  0  0  0  1  0  0  0  0  0  0
  161.4390  205.4080  145.0800 O   0  0  0  0  0  0  0  0  0  0  0  0
  161.2840  204.8830  152.5210 C   0  0  0  0  0  3  0  0  0  0  0  0
  161.1720  206.4560  150.6870 C   0  0  0  0  0  0  0  0  0  0  0  0
  160.4760  202.9560  149.5220 C   0  0  0  0  0  2  0  0  0  0  0  0
  161.5200  207.4040  146.2420 C   0  0  0  0  0  3  0  0  0  0  0  0
  161.2870  203.8170  151.7060 C   0  0  0  0  0  0  0  0  0  0  0  0
  161.1760  202.4410  152.3050 C   0  0  0  0  0  2  0  0  0  0  0  0
  161.2570  207.7070  149.9780 N   0  0  0  0  0  0  0  0  0  0  0  0
  161.2590  207.2930  148.6150 C   0  0  0  0  0  0  0  0  0  0  0  0
  161.4670  208.0690  147.4780 C   0  0  0  0  0  3  0  0  0  0  0  0
  160.0830  206.6660  154.6370 O   0  0  0  0  0  0  0  0  0  0  0  0
  160.8270  207.5700  154.1720 C   0  0  0  0  0  0  0  0  0  0  0  0
  161.4460  207.4000  152.8870 N   0  0  0  0  0  2  0  0  0  0  0  0
  161.6400  211.0900  156.5060 C   0  0  0  0  0  0  0  0  0  0  0  0
  161.8020  208.7090  156.1390 C   0  0  0  0  0  3  0  0  0  0  0  0
  159.7280  210.3920  153.0510 Cl  0  0  0  0  0  0  0  0  0  0  0  0
  161.9080  212.1830  157.2590 F   0  0  0  0  0  0  0  0  0  0  0  0
  162.0810  209.8330  156.9170 C   0  0  0  0  0  3  0  0  0  0  0  0
  160.6360  210.1000  154.5280 C   0  0  0  0  0  0  0  0  0  0  0  0
  161.0810  208.8160  154.9390 C   0  0  0  0  0  0  0  0  0  0  0  0
  160.9220  211.2200  155.3180 C   0  0  0  0  0  3  0  0  0  0  0  0
  1  6  2  0  0  0  0
  2  5  1  0  0  0  0
  2 13  1  0  0  0  0
  3 19  2  0  0  0  0
  3  2  1  0  0  0  0
  4 15  1  0  0  0  0
  4  7  1  0  0  0  0
  5 14  1  6  0  0  0
  5 16  1  0  0  0  0
  6 17  1  0  0  0  0
  7  3  1  0  0  0  0
  8 12  1  0  0  0  0
  8 23  1  0  0  0  0
  9  1  1  0  0  0  0
 11  4  2  0  0  0  0
 13  8  2  0  0  0  0
 14  1  1  0  0  0  0
 15 20  2  0  0  0  0
 16 17  1  0  0  0  0
 16 12  2  0  0  0  0
 18 10  1  0  0  0  0
 18 13  1  0  0  0  0
 19 18  1  0  0  0  0
 20 19  1  0  0  0  0
 22 21  2  0  0  0  0
 22 30  1  0  0  0  0
 23 22  1  0  0  0  0
 24 28  1  0  0  0  0
 24 27  1  0  0  0  0
 25 28  2  0  0  0  0
 26 29  1  0  0  0  0
 29 30  2  0  0  0  0
 29 31  1  0  0  0  0
 30 25  1  0  0  0  0
 31 24  2  0  0  0  0
M  END
>  <MODEL>
5

>  <REMARK>
 VINA RESULT:      -7.1      3.851      6.879
  Name = 
  2 active torsions:
  status: ('A' for Active; 'I' for Inactive)
    1  A    between atoms: C_9  and  C_22
    2  A    between atoms: C_15  and  N_23
                            x       y       z     vdW  Elec       q    Type
                         _______ _______ _______ _____ _____    ______ ____

>  <TORSDO>
F 2

$$$$
=
 OpenBabel11052422373D

 31 35  0  0  1  0  0  0  0  0999 V2000
  161.2630  205.3850  144.9730 C   0  0  0  0  0  0  0  0  0  0  0  0
  161.2880  204.2840  148.5800 N   0  0  0  0  0  0  0  0  0  0  0  0
  161.2970  202.8870  148.8380 C   0  0  0  0  0  0  0  0  0  0  0  0
  161.2130  200.5950  148.3370 C   0  0  0  0  0  0  0  0  0  0  0  0
  160.8310  204.9620  147.3700 C   0  0  2  0  0  3  0  0  0  0  0  0
  160.8230  206.6480  145.0780 C   0  0  0  0  0  3  0  0  0  0  0  0
  161.2760  201.8930  147.9150 N   0  0  0  0  0  2  0  0  0  0  0  0
  160.8850  206.1570  150.0380 C   0  0  0  0  0  0  0  0  0  0  0  0
  161.2120  204.6950  143.6540 C   0  0  0  0  0  1  0  0  0  0  0  0
  160.6320  203.9710  152.2760 C   0  0  0  0  0  1  0  0  0  0  0  0
  161.2100  199.6630  147.4920 O   0  0  0  0  0  0  0  0  0  0  0  0
  160.8090  206.9950  148.8160 C   0  0  0  0  0  3  0  0  0  0  0  0
  161.1270  204.8480  149.8840 C   0  0  0  0  0  0  0  0  0  0  0  0
  161.7350  204.6330  146.1860 C   0  0  0  0  0  2  0  0  0  0  0  0
  161.1420  200.2930  149.7140 C   0  0  0  0  0  3  0  0  0  0  0  0
  160.8130  206.4670  147.5830 C   0  0  0  0  0  0  0  0  0  0  0  0
  160.8150  207.3910  146.3950 C   0  0  0  0  0  2  0  0  0  0  0  0
  161.1530  203.8510  150.9230 N   0  0  0  0  0  0  0  0  0  0  0  0
  161.2280  202.6340  150.1850 C   0  0  0  0  0  0  0  0  0  0  0  0
  161.1390  201.3290  150.6620 C   0  0  0  0  0  3  0  0  0  0  0  0
  162.3330  208.4250  151.1930 O   0  0  0  0  0  0  0  0  0  0  0  0
  161.4700  207.8330  151.8940 C   0  0  0  0  0  0  0  0  0  0  0  0
  160.7420  206.7210  151.3490 N   0  0  0  0  0  2  0  0  0  0  0  0
  160.6720  208.9510  155.9700 C   0  0  0  0  0  0  0  0  0  0  0  0
  161.2220  207.3000  154.2970 C   0  0  0  0  0  3  0  0  0  0  0  0
  160.8140  210.9390  152.4900 Cl  0  0  0  0  0  0  0  0  0  0  0  0
  160.4240  209.2770  157.2610 F   0  0  0  0  0  0  0  0  0  0  0  0
  160.9670  207.6330  155.6280 C   0  0  0  0  0  3  0  0  0  0  0  0
  160.8880  209.6130  153.6430 C   0  0  0  0  0  0  0  0  0  0  0  0
  161.1880  208.2730  153.2850 C   0  0  0  0  0  0  0  0  0  0  0  0
  160.6330  209.9340  154.9820 C   0  0  0  0  0  3  0  0  0  0  0  0
  1  6  2  0  0  0  0
  1 14  1  0  0  0  0
  2  3  1  0  0  0  0
  2 13  1  0  0  0  0
  3 19  2  0  0  0  0
  4 15  1  0  0  0  0
  5 14  1  6  0  0  0
  5 16  1  0  0  0  0
  5  2  1  0  0  0  0
  6 17  1  0  0  0  0
  7  4  1  0  0  0  0
  7  3  1  0  0  0  0
  8 23  1  0  0  0  0
  9  1  1  0  0  0  0
 11  4  2  0  0  0  0
 12  8  1  0  0  0  0
 13  8  2  0  0  0  0
 13 18  1  0  0  0  0
 15 20  2  0  0  0  0
 16 12  2  0  0  0  0
 17 16  1  0  0  0  0
 18 10  1  0  0  0  0
 19 20  1  0  0  0  0
 19 18  1  0  0  0  0
 21 22  2  0  0  0  0
 22 30  1  0  0  0  0
 23 22  1  0  0  0  0
 24 27  1  0  0  0  0
 25 28  2  0  0  0  0
 26 29  1  0  0  0  0
 28 24  1  0  0  0  0
 29 31  1  0  0  0  0
 30 29  2  0  0  0  0
 30 25  1  0  0  0  0
 31 24  2  0  0  0  0
M  END
>  <MODEL>
6

>  <REMARK>
 VINA RESULT:      -7.1      4.223      7.453
  Name = 
  2 active torsions:
  status: ('A' for Active; 'I' for Inactive)
    1  A    between atoms: C_9  and  C_22
    2  A    between atoms: C_15  and  N_23
                            x       y       z     vdW  Elec       q    Type
                         _______ _______ _______ _____ _____    ______ ____

>  <TORSDO>
F 2

$$$$
=
 OpenBabel11052422373D

 31 35  0  0  1  0  0  0  0  0999 V2000
  161.2450  200.4370  147.8860 C   0  0  0  0  0  0  0  0  0  0  0  0
  160.7930  204.1620  148.2640 N   0  0  0  0  0  0  0  0  0  0  0  0
  160.9090  204.9580  147.0930 C   0  0  0  0  0  0  0  0  0  0  0  0
  161.3380  205.4310  144.8340 C   0  0  0  0  0  0  0  0  0  0  0  0
  161.3490  202.8320  148.4930 C   0  0  2  0  0  3  0  0  0  0  0  0
  161.5120  200.0680  149.1480 C   0  0  0  0  0  3  0  0  0  0  0  0
  161.1890  204.5190  145.8400 N   0  0  0  0  0  2  0  0  0  0  0  0
  160.7430  204.7760  150.5920 C   0  0  0  0  0  0  0  0  0  0  0  0
  161.5810  199.5180  146.7630 C   0  0  0  0  0  1  0  0  0  0  0  0
  160.9020  207.7170  149.5060 C   0  0  0  0  0  1  0  0  0  0  0  0
  161.5810  205.0370  143.6640 O   0  0  0  0  0  0  0  0  0  0  0  0
  160.9080  203.3340  150.8970 C   0  0  0  0  0  3  0  0  0  0  0  0
  160.6840  205.1390  149.3030 C   0  0  0  0  0  0  0  0  0  0  0  0
  160.6840  201.8000  147.5880 C   0  0  0  0  0  2  0  0  0  0  0  0
  161.2300  206.8140  145.0990 C   0  0  0  0  0  3  0  0  0  0  0  0
  161.1560  202.4220  149.9450 C   0  0  0  0  0  0  0  0  0  0  0  0
  161.2300  200.9690  150.3280 C   0  0  0  0  0  2  0  0  0  0  0  0
  160.6150  206.4830  148.7910 N   0  0  0  0  0  0  0  0  0  0  0  0
  160.7980  206.2930  147.3900 C   0  0  0  0  0  0  0  0  0  0  0  0
  160.9650  207.2610  146.4030 C   0  0  0  0  0  3  0  0  0  0  0  0
  162.8780  206.1910  152.0110 O   0  0  0  0  0  0  0  0  0  0  0  0
  161.6800  206.4330  152.3150 C   0  0  0  0  0  0  0  0  0  0  0  0
  160.6140  205.7570  151.6310 N   0  0  0  0  0  2  0  0  0  0  0  0
  160.6660  209.1640  155.4800 C   0  0  0  0  0  0  0  0  0  0  0  0
  160.7790  206.9330  154.5640 C   0  0  0  0  0  3  0  0  0  0  0  0
  162.2860  209.5680  151.8340 Cl  0  0  0  0  0  0  0  0  0  0  0  0
  160.3370  210.0030  156.4910 F   0  0  0  0  0  0  0  0  0  0  0  0
  160.4400  207.7940  155.6080 C   0  0  0  0  0  3  0  0  0  0  0  0
  161.5770  208.8150  153.2560 C   0  0  0  0  0  0  0  0  0  0  0  0
  161.3490  207.4190  153.3760 C   0  0  0  0  0  0  0  0  0  0  0  0
  161.2320  209.6690  154.3090 C   0  0  0  0  0  3  0  0  0  0  0  0
  1  6  2  0  0  0  0
  2  5  1  0  0  0  0
  2 13  1  0  0  0  0
  3 19  2  0  0  0  0
  3  2  1  0  0  0  0
  4 15  1  0  0  0  0
  4  7  1  0  0  0  0
  5 14  1  6  0  0  0
  5 16  1  0  0  0  0
  6 17  1  0  0  0  0
  7  3  1  0  0  0  0
  8 12  1  0  0  0  0
  8 23  1  0  0  0  0
  9  1  1  0  0  0  0
 11  4  2  0  0  0  0
 13  8  2  0  0  0  0
 14  1  1  0  0  0  0
 15 20  2  0  0  0  0
 16 17  1  0  0  0  0
 16 12  2  0  0  0  0
 18 13  1  0  0  0  0
 18 10  1  0  0  0  0
 19 18  1  0  0  0  0
 20 19  1  0  0  0  0
 21 22  2  0  0  0  0
 22 30  1  0  0  0  0
 23 22  1  0  0  0  0
 24 28  1  0  0  0  0
 24 27  1  0  0  0  0
 25 28  2  0  0  0  0
 26 29  1  0  0  0  0
 29 30  2  0  0  0  0
 29 31  1  0  0  0  0
 30 25  1  0  0  0  0
 31 24  2  0  0  0  0
M  END
>  <MODEL>
7

>  <REMARK>
 VINA RESULT:      -7.0      4.182      7.790
  Name = 
  2 active torsions:
  status: ('A' for Active; 'I' for Inactive)
    1  A    between atoms: C_9  and  C_22
    2  A    between atoms: C_15  and  N_23
                            x       y       z     vdW  Elec       q    Type
                         _______ _______ _______ _____ _____    ______ ____

>  <TORSDO>
F 2

$$$$
=
 OpenBabel11052422373D

 31 35  0  0  1  0  0  0  0  0999 V2000
  160.2760  209.3270  155.8960 C   0  0  0  0  0  0  0  0  0  0  0  0
  161.0940  209.8990  152.2590 N   0  0  0  0  0  0  0  0  0  0  0  0
  160.8660  211.1990  151.7330 C   0  0  0  0  0  0  0  0  0  0  0  0
  160.1350  213.4300  151.7240 C   0  0  0  0  0  0  0  0  0  0  0  0
  160.4690  209.2920  153.4310 C   0  0  2  0  0  3  0  0  0  0  0  0
  160.1770  207.9900  155.9440 C   0  0  0  0  0  3  0  0  0  0  0  0
  160.3610  212.2660  152.4020 N   0  0  0  0  0  2  0  0  0  0  0  0
  161.5530  207.8080  151.1570 C   0  0  0  0  0  0  0  0  0  0  0  0
  159.6960  210.1490  156.9940 C   0  0  0  0  0  1  0  0  0  0  0  0
  161.4760  209.5240  148.5300 C   0  0  0  0  0  1  0  0  0  0  0  0
  159.6830  214.4310  152.3350 O   0  0  0  0  0  0  0  0  0  0  0  0
  161.3160  207.1530  152.4670 C   0  0  0  0  0  3  0  0  0  0  0  0
  161.4430  209.1430  151.0970 C   0  0  0  0  0  0  0  0  0  0  0  0
  160.8980  210.0080  154.7090 C   0  0  0  0  0  2  0  0  0  0  0  0
  160.3990  213.5140  150.3390 C   0  0  0  0  0  3  0  0  0  0  0  0
  160.8480  207.8230  153.5310 C   0  0  0  0  0  0  0  0  0  0  0  0
  160.7120  207.1020  154.8440 C   0  0  0  0  0  2  0  0  0  0  0  0
  161.5460  209.9610  149.9160 N   0  0  0  0  0  0  0  0  0  0  0  0
  161.1340  211.2410  150.3880 C   0  0  0  0  0  0  0  0  0  0  0  0
  160.8980  212.3970  149.6490 C   0  0  0  0  0  3  0  0  0  0  0  0
  159.8520  206.0860  149.5080 O   0  0  0  0  0  0  0  0  0  0  0  0
  161.0680  206.2120  149.2040 C   0  0  0  0  0  0  0  0  0  0  0  0
  161.9220  207.0550  149.9930 N   0  0  0  0  0  2  0  0  0  0  0  0
  162.7480  204.2980  145.7380 C   0  0  0  0  0  0  0  0  0  0  0  0
  162.1820  206.2790  146.9970 C   0  0  0  0  0  3  0  0  0  0  0  0
  161.0150  202.9850  149.1070 Cl  0  0  0  0  0  0  0  0  0  0  0  0
  163.2830  203.7200  144.6360 F   0  0  0  0  0  0  0  0  0  0  0  0
  162.7340  205.6860  145.8600 C   0  0  0  0  0  3  0  0  0  0  0  0
  161.6560  204.0880  147.8970 C   0  0  0  0  0  0  0  0  0  0  0  0
  161.6360  205.5010  148.0300 C   0  0  0  0  0  0  0  0  0  0  0  0
  162.2120  203.5050  146.7520 C   0  0  0  0  0  3  0  0  0  0  0  0
  1  6  2  0  0  0  0
  1  9  1  0  0  0  0
  2  5  1  0  0  0  0
  3  2  1  0  0  0  0
  3  7  1  0  0  0  0
  4 11  2  0  0  0  0
  4  7  1  0  0  0  0
  5 16  1  0  0  0  0
  5 14  1  1  0  0  0
  8 12  1  0  0  0  0
 10 18  1  0  0  0  0
 12 16  2  0  0  0  0
 13  8  2  0  0  0  0
 13  2  1  0  0  0  0
 14  1  1  0  0  0  0
 15  4  1  0  0  0  0
 16 17  1  0  0  0  0
 17  6  1  0  0  0  0
 18 19  1  0  0  0  0
 18 13  1  0  0  0  0
 19  3  2  0  0  0  0
 20 15  2  0  0  0  0
 20 19  1  0  0  0  0
 22 21  2  0  0  0  0
 22 23  1  0  0  0  0
 23  8  1  0  0  0  0
 24 28  2  0  0  0  0
 24 31  1  0  0  0  0
 25 30  2  0  0  0  0
 27 24  1  0  0  0  0
 28 25  1  0  0  0  0
 29 30  1  0  0  0  0
 29 26  1  0  0  0  0
 30 22  1  0  0  0  0
 31 29  2  0  0  0  0
M  END
>  <MODEL>
8

>  <REMARK>
 VINA RESULT:      -6.7      3.435      6.464
  Name = 
  2 active torsions:
  status: ('A' for Active; 'I' for Inactive)
    1  A    between atoms: C_9  and  C_22
    2  A    between atoms: C_15  and  N_23
                            x       y       z     vdW  Elec       q    Type
                         _______ _______ _______ _____ _____    ______ ____

>  <TORSDO>
F 2

$$$$
=
 OpenBabel11052422373D

 31 35  0  0  1  0  0  0  0  0999 V2000
  160.9240  212.8350  150.5300 C   0  0  0  0  0  0  0  0  0  0  0  0
  160.8680  209.4650  152.2230 N   0  0  0  0  0  0  0  0  0  0  0  0
  160.8290  209.4460  153.6430 C   0  0  0  0  0  0  0  0  0  0  0  0
  160.8660  210.3270  155.8190 C   0  0  0  0  0  0  0  0  0  0  0  0
  161.3430  210.5440  151.3610 C   0  0  2  0  0  3  0  0  0  0  0  0
  161.3910  212.5180  149.3130 C   0  0  0  0  0  3  0  0  0  0  0  0
  160.8310  210.5240  154.4680 N   0  0  0  0  0  2  0  0  0  0  0  0
  161.3080  207.7120  150.6320 C   0  0  0  0  0  0  0  0  0  0  0  0
  160.9640  214.2510  150.9890 C   0  0  0  0  0  1  0  0  0  0  0  0
  161.5100  205.8760  153.1700 C   0  0  0  0  0  1  0  0  0  0  0  0
  160.8510  211.3170  156.5950 O   0  0  0  0  0  0  0  0  0  0  0  0
  161.4050  208.7760  149.6020 C   0  0  0  0  0  3  0  0  0  0  0  0
  161.0390  208.0850  151.8920 C   0  0  0  0  0  0  0  0  0  0  0  0
  160.4340  211.7650  151.4660 C   0  0  0  0  0  2  0  0  0  0  0  0
  160.9270  209.0210  156.3510 C   0  0  0  0  0  3  0  0  0  0  0  0
  161.3920  210.0810  149.9140 C   0  0  0  0  0  0  0  0  0  0  0  0
  161.4130  211.0960  148.8030 C   0  0  0  0  0  2  0  0  0  0  0  0
  160.9900  207.2290  153.0490 N   0  0  0  0  0  0  0  0  0  0  0  0
  160.8900  208.1620  154.1210 C   0  0  0  0  0  0  0  0  0  0  0  0
  160.9510  207.9120  155.4900 C   0  0  0  0  0  3  0  0  0  0  0  0
  159.7000  206.1140  148.7800 O   0  0  0  0  0  0  0  0  0  0  0  0
  160.6530  205.5620  149.3900 C   0  0  0  0  0  0  0  0  0  0  0  0
  161.4610  206.3250  150.3000 N   0  0  0  0  0  2  0  0  0  0  0  0
  161.5780  201.4320  148.6240 C   0  0  0  0  0  0  0  0  0  0  0  0
  161.3790  203.7270  147.9000 C   0  0  0  0  0  3  0  0  0  0  0  0
  160.3490  203.4830  151.8430 Cl  0  0  0  0  0  0  0  0  0  0  0  0
  161.8750  200.1380  148.3570 F   0  0  0  0  0  0  0  0  0  0  0  0
  161.6860  202.3940  147.6220 C   0  0  0  0  0  3  0  0  0  0  0  0
  160.8540  203.1370  150.1950 C   0  0  0  0  0  0  0  0  0  0  0  0
  160.9600  204.1240  149.1800 C   0  0  0  0  0  0  0  0  0  0  0  0
  161.1650  201.8040  149.9030 C   0  0  0  0  0  3  0  0  0  0  0  0
  1  9  1  0  0  0  0
  1 14  1  0  0  0  0
  2  3  1  0  0  0  0
  3 19  2  0  0  0  0
  3  7  1  0  0  0  0
  4 15  1  0  0  0  0
  4 11  2  0  0  0  0
  5 14  1  6  0  0  0
  5  2  1  0  0  0  0
  6  1  2  0  0  0  0
  7  4  1  0  0  0  0
  8 13  2  0  0  0  0
 12 16  2  0  0  0  0
 12  8  1  0  0  0  0
 13  2  1  0  0  0  0
 13 18  1  0  0  0  0
 16  5  1  0  0  0  0
 17  6  1  0  0  0  0
 17 16  1  0  0  0  0
 18 10  1  0  0  0  0
 18 19  1  0  0  0  0
 19 20  1  0  0  0  0
 20 15  2  0  0  0  0
 21 22  2  0  0  0  0
 22 23  1  0  0  0  0
 23  8  1  0  0  0  0
 24 31  1  0  0  0  0
 25 30  2  0  0  0  0
 27 24  1  0  0  0  0
 28 25  1  0  0  0  0
 28 24  2  0  0  0  0
 29 26  1  0  0  0  0
 30 22  1  0  0  0  0
 30 29  1  0  0  0  0
 31 29  2  0  0  0  0
M  END
>  <MODEL>
9

>  <REMARK>
 VINA RESULT:      -6.0      3.896      7.634
  Name = 
  2 active torsions:
  status: ('A' for Active; 'I' for Inactive)
    1  A    between atoms: C_9  and  C_22
    2  A    between atoms: C_15  and  N_23
                            x       y       z     vdW  Elec       q    Type
                         _______ _______ _______ _____ _____    ______ ____

>  <TORSDO>
F 2

$$$$
