=
 OpenBabel11062409413D

 34 37  0  0  1  0  0  0  0  0999 V2000
  160.0120  212.9700  146.8080 C   0  0  2  0  0  3  0  0  0  0  0  0
  159.2120  212.5870  143.1080 C   0  0  0  0  0  3  0  0  0  0  0  0
  157.9040  213.6760  144.8570 C   0  0  0  0  0  2  0  0  0  0  0  0
  158.1980  213.4920  148.4560 C   0  0  0  0  0  0  0  0  0  0  0  0
  159.2210  213.7300  149.5240 C   0  0  0  0  0  1  0  0  0  0  0  0
  157.4800  212.9940  146.1420 C   0  0  0  0  0  2  0  0  0  0  0  0
  158.5490  213.1750  147.1870 C   0  0  0  0  0  0  0  0  0  0  0  0
  156.7630  213.6810  148.8450 C   0  0  0  0  0  1  0  0  0  0  0  0
  160.4020  211.8180  142.6090 C   0  0  0  0  0  2  0  0  0  0  0  0
  161.6870  212.6130  142.5620 C   0  0  0  0  0  0  0  0  0  0  0  0
  162.1550  213.3520  143.5880 C   0  0  0  0  0  3  0  0  0  0  0  0
  159.1470  213.0130  144.3710 C   0  0  0  0  0  0  0  0  0  0  0  0
  161.4740  213.7010  144.8960 C   0  0  0  0  0  2  0  0  0  0  0  0
  160.3140  212.7910  145.3020 C   0  0  1  0  0  3  0  0  0  0  0  0
  162.5250  212.4430  141.3580 C   0  0  0  0  0  0  0  0  0  0  0  0
  162.6150  211.2000  140.7410 O   0  0  0  0  0  0  0  0  0  0  0  0
  163.1630  213.4090  140.8760 O   0  0  0  0  0  1  0  0  0  0  0  0
  161.8200  211.8950  148.2130 C   0  0  0  0  0  0  0  0  0  0  0  0
  160.5610  211.8350  147.5360 N   0  0  0  0  0  2  0  0  0  0  0  0
  162.4830  212.9610  148.2390 O   0  0  0  0  0  0  0  0  0  0  0  0
  162.3650  210.6760  148.8610 C   0  0  0  0  0  2  0  0  0  0  0  0
  161.6190  209.5590  148.4720 O   0  0  0  0  0  0  0  0  0  0  0  0
  162.0570  207.8920  150.1300 C   0  0  0  0  0  2  0  0  0  0  0  0
  162.1620  207.3380  147.7690 C   0  0  0  0  0  2  0  0  0  0  0  0
  160.6390  204.3200  150.2660 C   0  0  1  0  0  3  0  0  0  0  0  0
  161.4310  205.5210  150.8140 C   0  0  0  0  0  2  0  0  0  0  0  0
  161.3720  206.6040  149.7600 C   0  0  2  0  0  3  0  0  0  0  0  0
  161.1560  205.1680  147.9270 C   0  0  0  0  0  2  0  0  0  0  0  0
  162.0380  206.1360  148.5630 N   0  0  1  0  0  0  0  0  0  0  0  0
  161.0630  203.9340  148.8320 C   0  0  0  0  0  2  0  0  0  0  0  0
  162.4350  208.4660  148.7700 C   0  0  1  0  0  3  0  0  0  0  0  0
  160.7610  203.1420  151.1810 C   0  0  0  0  0  0  0  0  0  0  0  0
  160.7940  203.2980  152.4320 O   0  0  0  0  0  1  0  0  0  0  0  0
  160.8290  201.8640  150.6470 O   0  0  0  0  0  0  0  0  0  0  0  0
  1  7  1  0  0  0  0
  1 19  1  1  0  0  0
  2 12  2  0  0  0  0
  3  6  1  0  0  0  0
  4  8  1  0  0  0  0
  4  5  1  0  0  0  0
  6  7  1  0  0  0  0
  7  4  2  0  0  0  0
  9  2  1  0  0  0  0
 10  9  1  0  0  0  0
 10 11  2  0  0  0  0
 11 13  1  0  0  0  0
 12  3  1  0  0  0  0
 12 14  1  0  0  0  0
 14 13  1  6  0  0  0
 14  1  1  0  0  0  0
 15 10  1  0  0  0  0
 16 15  2  0  0  0  0
 17 15  1  0  0  0  0
 18 20  2  0  0  0  0
 18 21  1  0  0  0  0
 19 18  1  0  0  0  0
 22 21  1  0  0  0  0
 24 31  1  0  0  0  0
 25 26  1  0  0  0  0
 25 32  1  1  0  0  0
 27 23  1  1  0  0  0
 27 26  1  0  0  0  0
 28 29  1  0  0  0  0
 28 30  1  0  0  0  0
 29 24  1  6  0  0  0
 29 27  1  0  0  0  0
 30 25  1  0  0  0  0
 31 22  1  6  0  0  0
 31 23  1  0  0  0  0
 32 33  1  0  0  0  0
 34 32  2  0  0  0  0
M  END
>  <MODEL>
1

>  <REMARK>
 VINA RESULT:      -8.4      0.000      0.000
  Name = 
  6 active torsions:
  status: ('A' for Active; 'I' for Inactive)
    1  A    between atoms: C_1  and  N_9
    2  A    between atoms: C_3  and  C_25
    3  A    between atoms: C_7  and  C_11
    4  A    between atoms: C_8  and  C_18
    5  A    between atoms: C_18  and  O_30
    6  A    between atoms: O_30  and  C_31
                            x       y       z     vdW  Elec       q    Type
                         _______ _______ _______ _____ _____    ______ ____

>  <TORSDO>
F 6

$$$$
=
 OpenBabel11062409413D

 34 37  0  0  1  0  0  0  0  0999 V2000
  158.9860  212.1390  153.2850 C   0  0  2  0  0  3  0  0  0  0  0  0
  156.9530  213.8880  150.5870 C   0  0  0  0  0  3  0  0  0  0  0  0
  156.8140  214.1270  153.0110 C   0  0  0  0  0  2  0  0  0  0  0  0
  158.1580  212.0510  155.6490 C   0  0  0  0  0  0  0  0  0  0  0  0
  159.4770  211.5070  156.1030 C   0  0  0  0  0  1  0  0  0  0  0  0
  156.5970  212.9690  153.9640 C   0  0  0  0  0  2  0  0  0  0  0  0
  157.9270  212.3810  154.3550 C   0  0  0  0  0  0  0  0  0  0  0  0
  157.1200  212.2690  156.7080 C   0  0  0  0  0  1  0  0  0  0  0  0
  157.5170  213.2870  149.3310 C   0  0  0  0  0  2  0  0  0  0  0  0
  158.9200  213.7390  148.9960 C   0  0  0  0  0  0  0  0  0  0  0  0
  159.9440  213.7370  149.8750 C   0  0  0  0  0  3  0  0  0  0  0  0
  157.4700  213.5990  151.7820 C   0  0  0  0  0  0  0  0  0  0  0  0
  159.9150  213.4740  151.3660 C   0  0  0  0  0  2  0  0  0  0  0  0
  158.6910  212.7160  151.8820 C   0  0  1  0  0  3  0  0  0  0  0  0
  159.1880  214.0690  147.5830 C   0  0  0  0  0  0  0  0  0  0  0  0
  160.4960  214.2500  147.1450 O   0  0  0  0  0  1  0  0  0  0  0  0
  158.2500  214.1910  146.7600 O   0  0  0  0  0  0  0  0  0  0  0  0
  160.5770  210.1750  153.1820 C   0  0  0  0  0  0  0  0  0  0  0  0
  159.2520  210.7120  153.1600 N   0  0  0  0  0  2  0  0  0  0  0  0
  161.5700  210.9240  153.3570 O   0  0  0  0  0  0  0  0  0  0  0  0
  160.7850  208.7220  152.9610 C   0  0  0  0  0  2  0  0  0  0  0  0
  160.5520  208.4080  151.6180 O   0  0  0  0  0  0  0  0  0  0  0  0
  161.2550  206.1330  151.8320 C   0  0  0  0  0  2  0  0  0  0  0  0
  161.6100  207.3410  149.7570 C   0  0  0  0  0  2  0  0  0  0  0  0
  160.6550  203.2700  149.3340 C   0  0  1  0  0  3  0  0  0  0  0  0
  161.1310  203.8700  150.6700 C   0  0  0  0  0  2  0  0  0  0  0  0
  160.8930  205.3620  150.5920 C   0  0  2  0  0  3  0  0  0  0  0  0
  161.1010  205.5340  148.2680 C   0  0  0  0  0  2  0  0  0  0  0  0
  161.7100  205.9160  149.5330 N   0  0  1  0  0  0  0  0  0  0  0  0
  161.2330  204.0140  148.1110 C   0  0  0  0  0  2  0  0  0  0  0  0
  161.5700  207.5170  151.2790 C   0  0  1  0  0  3  0  0  0  0  0  0
  160.9840  201.8120  149.2620 C   0  0  0  0  0  0  0  0  0  0  0  0
  161.0830  201.1210  150.3120 O   0  0  0  0  0  1  0  0  0  0  0  0
  161.1710  201.2120  148.0260 O   0  0  0  0  0  0  0  0  0  0  0  0
  1 19  1  6  0  0  0
  1  7  1  0  0  0  0
  2 12  2  0  0  0  0
  3  6  1  0  0  0  0
  4  5  1  0  0  0  0
  4  8  1  0  0  0  0
  6  7  1  0  0  0  0
  7  4  2  0  0  0  0
  9  2  1  0  0  0  0
 10  9  1  0  0  0  0
 10 11  2  0  0  0  0
 11 13  1  0  0  0  0
 12 14  1  0  0  0  0
 12  3  1  0  0  0  0
 14 13  1  1  0  0  0
 14  1  1  0  0  0  0
 15 10  1  0  0  0  0
 16 15  1  0  0  0  0
 17 15  2  0  0  0  0
 18 20  2  0  0  0  0
 19 18  1  0  0  0  0
 21 18  1  0  0  0  0
 22 21  1  0  0  0  0
 24 31  1  0  0  0  0
 25 32  1  6  0  0  0
 25 26  1  0  0  0  0
 27 26  1  1  0  0  0
 27 23  1  0  0  0  0
 29 28  1  6  0  0  0
 29 24  1  0  0  0  0
 29 27  1  0  0  0  0
 30 28  1  0  0  0  0
 30 25  1  0  0  0  0
 31 22  1  6  0  0  0
 31 23  1  0  0  0  0
 32 33  1  0  0  0  0
 34 32  2  0  0  0  0
M  END
>  <MODEL>
2

>  <REMARK>
 VINA RESULT:      -7.9      3.509      5.691
  Name = 
  6 active torsions:
  status: ('A' for Active; 'I' for Inactive)
    1  A    between atoms: C_1  and  N_9
    2  A    between atoms: C_3  and  C_25
    3  A    between atoms: C_7  and  C_11
    4  A    between atoms: C_8  and  C_18
    5  A    between atoms: C_18  and  O_30
    6  A    between atoms: O_30  and  C_31
                            x       y       z     vdW  Elec       q    Type
                         _______ _______ _______ _____ _____    ______ ____

>  <TORSDO>
F 6

$$$$
=
 OpenBabel11062409413D

 34 37  0  0  1  0  0  0  0  0999 V2000
  160.1620  211.8480  153.2750 C   0  0  2  0  0  3  0  0  0  0  0  0
  157.4970  213.9070  151.5050 C   0  0  0  0  0  3  0  0  0  0  0  0
  158.3380  214.1200  153.7850 C   0  0  0  0  0  2  0  0  0  0  0  0
  160.3060  211.8330  155.7770 C   0  0  0  0  0  0  0  0  0  0  0  0
  161.6140  211.1050  155.7090 C   0  0  0  0  0  1  0  0  0  0  0  0
  158.3540  212.9850  154.7900 C   0  0  0  0  0  2  0  0  0  0  0  0
  159.6400  212.2140  154.6610 C   0  0  0  0  0  0  0  0  0  0  0  0
  159.7970  212.1720  157.1450 C   0  0  0  0  0  1  0  0  0  0  0  0
  157.4470  213.2570  150.1520 C   0  0  0  0  0  2  0  0  0  0  0  0
  158.6590  213.5180  149.2860 C   0  0  0  0  0  0  0  0  0  0  0  0
  159.9320  213.3600  149.7030 C   0  0  0  0  0  3  0  0  0  0  0  0
  158.3930  213.5280  152.4190 C   0  0  0  0  0  0  0  0  0  0  0  0
  160.4470  213.0770  151.0990 C   0  0  0  0  0  2  0  0  0  0  0  0
  159.4270  212.4850  152.0730 C   0  0  1  0  0  3  0  0  0  0  0  0
  158.4010  213.8330  147.8670 C   0  0  0  0  0  0  0  0  0  0  0  0
  157.0950  213.9060  147.3950 O   0  0  0  0  0  1  0  0  0  0  0  0
  159.3480  214.0400  147.0710 O   0  0  0  0  0  0  0  0  0  0  0  0
  161.3100  209.6870  152.6330 C   0  0  0  0  0  0  0  0  0  0  0  0
  160.1660  210.4010  153.1100 N   0  0  0  0  0  2  0  0  0  0  0  0
  162.3810  210.2910  152.3780 O   0  0  0  0  0  0  0  0  0  0  0  0
  161.2200  208.2230  152.4030 C   0  0  0  0  0  2  0  0  0  0  0  0
  161.8260  207.8960  151.1870 O   0  0  0  0  0  0  0  0  0  0  0  0
  161.1330  207.4320  148.9460 C   0  0  0  0  0  2  0  0  0  0  0  0
  160.7690  205.8030  150.7090 C   0  0  0  0  0  2  0  0  0  0  0  0
  161.7420  204.2020  146.9470 C   0  0  1  0  0  3  0  0  0  0  0  0
  161.2660  205.6550  147.1260 C   0  0  0  0  0  2  0  0  0  0  0  0
  161.4970  206.0190  148.5750 C   0  0  2  0  0  3  0  0  0  0  0  0
  161.2850  203.8490  149.4210 C   0  0  0  0  0  2  0  0  0  0  0  0
  160.6750  205.1710  149.4120 N   0  0  1  0  0  0  0  0  0  0  0  0
  161.1600  203.2520  148.0140 C   0  0  0  0  0  2  0  0  0  0  0  0
  160.8100  207.3100  150.4300 C   0  0  1  0  0  3  0  0  0  0  0  0
  161.4200  203.7050  145.5730 C   0  0  0  0  0  0  0  0  0  0  0  0
  161.5720  204.4480  144.5660 O   0  0  0  0  0  0  0  0  0  0  0  0
  160.9590  202.4070  145.4040 O   0  0  0  0  0  1  0  0  0  0  0  0
  1 19  1  6  0  0  0
  1  7  1  0  0  0  0
  2 12  2  0  0  0  0
  3  6  1  0  0  0  0
  4  8  1  0  0  0  0
  5  4  1  0  0  0  0
  7  6  1  0  0  0  0
  7  4  2  0  0  0  0
  9  2  1  0  0  0  0
 10 11  2  0  0  0  0
 10  9  1  0  0  0  0
 11 13  1  0  0  0  0
 12  3  1  0  0  0  0
 14 13  1  6  0  0  0
 14 12  1  0  0  0  0
 14  1  1  0  0  0  0
 15 10  1  0  0  0  0
 16 15  1  0  0  0  0
 17 15  2  0  0  0  0
 18 19  1  0  0  0  0
 20 18  2  0  0  0  0
 21 18  1  0  0  0  0
 22 21  1  0  0  0  0
 23 31  1  0  0  0  0
 25 32  1  6  0  0  0
 25 26  1  0  0  0  0
 25 30  1  0  0  0  0
 27 26  1  6  0  0  0
 27 23  1  0  0  0  0
 27 29  1  0  0  0  0
 29 28  1  1  0  0  0
 29 24  1  0  0  0  0
 30 28  1  0  0  0  0
 31 24  1  0  0  0  0
 31 22  1  1  0  0  0
 33 32  2  0  0  0  0
 34 32  1  0  0  0  0
M  END
>  <MODEL>
3

>  <REMARK>
 VINA RESULT:      -7.7      3.907      6.261
  Name = 
  6 active torsions:
  status: ('A' for Active; 'I' for Inactive)
    1  A    between atoms: C_1  and  N_9
    2  A    between atoms: C_3  and  C_25
    3  A    between atoms: C_7  and  C_11
    4  A    between atoms: C_8  and  C_18
    5  A    between atoms: C_18  and  O_30
    6  A    between atoms: O_30  and  C_31
                            x       y       z     vdW  Elec       q    Type
                         _______ _______ _______ _____ _____    ______ ____

>  <TORSDO>
F 6

$$$$
=
 OpenBabel11062409413D

 34 37  0  0  1  0  0  0  0  0999 V2000
  160.4460  211.5560  152.6570 C   0  0  2  0  0  3  0  0  0  0  0  0
  157.5940  213.6260  151.2230 C   0  0  0  0  0  3  0  0  0  0  0  0
  158.5180  213.6420  153.4810 C   0  0  0  0  0  2  0  0  0  0  0  0
  160.6980  211.2780  155.1340 C   0  0  0  0  0  0  0  0  0  0  0  0
  162.0410  210.6440  154.9380 C   0  0  0  0  0  1  0  0  0  0  0  0
  158.6420  212.4070  154.3520 C   0  0  0  0  0  2  0  0  0  0  0  0
  159.9640  211.7360  154.0920 C   0  0  0  0  0  0  0  0  0  0  0  0
  160.2280  211.4340  156.5490 C   0  0  0  0  0  1  0  0  0  0  0  0
  157.5240  213.1250  149.8090 C   0  0  0  0  0  2  0  0  0  0  0  0
  158.6800  213.5540  148.9350 C   0  0  0  0  0  0  0  0  0  0  0  0
  159.9770  213.4310  149.2850 C   0  0  0  0  0  3  0  0  0  0  0  0
  158.5480  213.2070  152.0570 C   0  0  0  0  0  0  0  0  0  0  0  0
  160.5660  213.0300  150.6220 C   0  0  0  0  0  2  0  0  0  0  0  0
  159.6260  212.2730  151.5600 C   0  0  1  0  0  3  0  0  0  0  0  0
  158.3450  214.0050  147.5700 C   0  0  0  0  0  0  0  0  0  0  0  0
  157.0410  214.3780  147.2600 O   0  0  0  0  0  1  0  0  0  0  0  0
  159.2220  214.0610  146.6750 O   0  0  0  0  0  0  0  0  0  0  0  0
  161.6730  209.5610  151.7000 C   0  0  0  0  0  0  0  0  0  0  0  0
  160.5270  210.1390  152.3310 N   0  0  0  0  0  2  0  0  0  0  0  0
  162.6830  210.2620  151.4400 O   0  0  0  0  0  0  0  0  0  0  0  0
  161.6560  208.1280  151.3150 C   0  0  0  0  0  2  0  0  0  0  0  0
  161.9650  207.9970  149.9580 O   0  0  0  0  0  0  0  0  0  0  0  0
  161.3990  206.4780  148.2010 C   0  0  0  0  0  2  0  0  0  0  0  0
  160.4950  206.1700  150.4330 C   0  0  0  0  0  2  0  0  0  0  0  0
  161.4150  202.6350  148.3550 C   0  0  1  0  0  3  0  0  0  0  0  0
  161.2810  203.9950  147.6470 C   0  0  0  0  0  2  0  0  0  0  0  0
  161.4520  205.0620  148.7060 C   0  0  2  0  0  3  0  0  0  0  0  0
  160.6540  203.7800  150.4920 C   0  0  0  0  0  2  0  0  0  0  0  0
  160.3780  204.9480  149.6690 N   0  0  1  0  0  0  0  0  0  0  0  0
  160.5260  202.5300  149.6120 C   0  0  0  0  0  2  0  0  0  0  0  0
  160.9170  207.2450  149.4250 C   0  0  1  0  0  3  0  0  0  0  0  0
  161.1160  201.5140  147.4090 C   0  0  0  0  0  0  0  0  0  0  0  0
  160.5110  201.7300  146.3240 O   0  0  0  0  0  0  0  0  0  0  0  0
  161.5200  200.2250  147.7250 O   0  0  0  0  0  1  0  0  0  0  0  0
  1 19  1  6  0  0  0
  1  7  1  0  0  0  0
  2 12  2  0  0  0  0
  3  6  1  0  0  0  0
  4  8  1  0  0  0  0
  5  4  1  0  0  0  0
  7  6  1  0  0  0  0
  7  4  2  0  0  0  0
  9  2  1  0  0  0  0
 10 11  2  0  0  0  0
 10  9  1  0  0  0  0
 11 13  1  0  0  0  0
 12  3  1  0  0  0  0
 14 13  1  1  0  0  0
 14 12  1  0  0  0  0
 14  1  1  0  0  0  0
 15 10  1  0  0  0  0
 16 15  1  0  0  0  0
 17 15  2  0  0  0  0
 18 19  1  0  0  0  0
 20 18  2  0  0  0  0
 21 18  1  0  0  0  0
 22 21  1  0  0  0  0
 23 27  1  0  0  0  0
 23 31  1  0  0  0  0
 25 32  1  6  0  0  0
 25 30  1  0  0  0  0
 26 25  1  0  0  0  0
 27 26  1  6  0  0  0
 27 29  1  0  0  0  0
 29 24  1  1  0  0  0
 29 28  1  0  0  0  0
 30 28  1  0  0  0  0
 31 22  1  1  0  0  0
 31 24  1  0  0  0  0
 32 34  1  0  0  0  0
 33 32  2  0  0  0  0
M  END
>  <MODEL>
4

>  <REMARK>
 VINA RESULT:      -7.7      3.713      5.852
  Name = 
  6 active torsions:
  status: ('A' for Active; 'I' for Inactive)
    1  A    between atoms: C_1  and  N_9
    2  A    between atoms: C_3  and  C_25
    3  A    between atoms: C_7  and  C_11
    4  A    between atoms: C_8  and  C_18
    5  A    between atoms: C_18  and  O_30
    6  A    between atoms: O_30  and  C_31
                            x       y       z     vdW  Elec       q    Type
                         _______ _______ _______ _____ _____    ______ ____

>  <TORSDO>
F 6

$$$$
=
 OpenBabel11062409413D

 34 37  0  0  1  0  0  0  0  0999 V2000
  161.2690  208.3360  153.3120 C   0  0  2  0  0  3  0  0  0  0  0  0
  158.8030  209.8410  155.7870 C   0  0  0  0  0  3  0  0  0  0  0  0
  159.8120  207.6200  155.7840 C   0  0  0  0  0  2  0  0  0  0  0  0
  161.5730  205.8520  153.1670 C   0  0  0  0  0  0  0  0  0  0  0  0
  162.7610  206.0390  152.2730 C   0  0  0  0  0  1  0  0  0  0  0  0
  159.7370  206.6590  154.6140 C   0  0  0  0  0  2  0  0  0  0  0  0
  160.8950  206.9050  153.6830 C   0  0  0  0  0  0  0  0  0  0  0  0
  161.2050  204.4410  153.5110 C   0  0  0  0  0  1  0  0  0  0  0  0
  158.5760  211.2090  155.2090 C   0  0  0  0  0  2  0  0  0  0  0  0
  159.7520  212.1480  155.3430 C   0  0  0  0  0  0  0  0  0  0  0  0
  161.0170  211.8290  154.9970 C   0  0  0  0  0  3  0  0  0  0  0  0
  159.6950  209.0060  155.2510 C   0  0  0  0  0  0  0  0  0  0  0  0
  161.5770  210.4830  154.5860 C   0  0  0  0  0  2  0  0  0  0  0  0
  160.5520  209.4600  154.0940 C   0  0  1  0  0  3  0  0  0  0  0  0
  159.4490  213.5340  155.7520 C   0  0  0  0  0  0  0  0  0  0  0  0
  158.4640  214.2570  155.0880 O   0  0  0  0  0  0  0  0  0  0  0  0
  160.0680  214.0770  156.6980 O   0  0  0  0  0  1  0  0  0  0  0  0
  162.0060  209.2580  151.0740 C   0  0  0  0  0  0  0  0  0  0  0  0
  161.0640  208.5510  151.8860 N   0  0  0  0  0  2  0  0  0  0  0  0
  163.0800  209.6850  151.5640 O   0  0  0  0  0  0  0  0  0  0  0  0
  161.6950  209.5190  149.6470 C   0  0  0  0  0  2  0  0  0  0  0  0
  162.2770  208.5320  148.8460 O   0  0  0  0  0  0  0  0  0  0  0  0
  161.6570  206.8890  147.2230 C   0  0  0  0  0  2  0  0  0  0  0  0
  160.7490  206.8020  149.4730 C   0  0  0  0  0  2  0  0  0  0  0  0
  161.5480  203.0750  147.7040 C   0  0  1  0  0  3  0  0  0  0  0  0
  161.4570  204.3740  146.8830 C   0  0  0  0  0  2  0  0  0  0  0  0
  161.6660  205.5200  147.8470 C   0  0  2  0  0  3  0  0  0  0  0  0
  160.8300  204.4210  149.7360 C   0  0  0  0  0  2  0  0  0  0  0  0
  160.5900  205.5240  148.8160 N   0  0  1  0  0  0  0  0  0  0  0  0
  160.6590  203.1070  148.9650 C   0  0  0  0  0  2  0  0  0  0  0  0
  161.2040  207.7730  148.3780 C   0  0  1  0  0  3  0  0  0  0  0  0
  161.2100  201.8880  146.8570 C   0  0  0  0  0  0  0  0  0  0  0  0
  160.7710  202.0370  145.6840 O   0  0  0  0  0  0  0  0  0  0  0  0
  161.3930  200.6100  147.3640 O   0  0  0  0  0  1  0  0  0  0  0  0
  1 19  1  6  0  0  0
  1  7  1  0  0  0  0
  1 14  1  0  0  0  0
  4  8  1  0  0  0  0
  4  7  2  0  0  0  0
  5  4  1  0  0  0  0
  6  3  1  0  0  0  0
  7  6  1  0  0  0  0
  9 10  1  0  0  0  0
  9  2  1  0  0  0  0
 10 15  1  0  0  0  0
 11 10  2  0  0  0  0
 12  3  1  0  0  0  0
 12  2  2  0  0  0  0
 13 11  1  0  0  0  0
 14 13  1  1  0  0  0
 14 12  1  0  0  0  0
 15 17  1  0  0  0  0
 16 15  2  0  0  0  0
 18 20  2  0  0  0  0
 18 19  1  0  0  0  0
 21 18  1  0  0  0  0
 22 21  1  0  0  0  0
 23 27  1  0  0  0  0
 23 31  1  0  0  0  0
 25 32  1  6  0  0  0
 25 30  1  0  0  0  0
 26 25  1  0  0  0  0
 27 26  1  6  0  0  0
 27 29  1  0  0  0  0
 29 24  1  1  0  0  0
 29 28  1  0  0  0  0
 30 28  1  0  0  0  0
 31 22  1  1  0  0  0
 31 24  1  0  0  0  0
 32 34  1  0  0  0  0
 33 32  2  0  0  0  0
M  END
>  <MODEL>
5

>  <REMARK>
 VINA RESULT:      -6.6      5.208      8.751
  Name = 
  6 active torsions:
  status: ('A' for Active; 'I' for Inactive)
    1  A    between atoms: C_1  and  N_9
    2  A    between atoms: C_3  and  C_25
    3  A    between atoms: C_7  and  C_11
    4  A    between atoms: C_8  and  C_18
    5  A    between atoms: C_18  and  O_30
    6  A    between atoms: O_30  and  C_31
                            x       y       z     vdW  Elec       q    Type
                         _______ _______ _______ _____ _____    ______ ____

>  <TORSDO>
F 6

$$$$
=
 OpenBabel11062409413D

 34 37  0  0  1  0  0  0  0  0999 V2000
  160.5020  211.4100  153.5490 C   0  0  2  0  0  3  0  0  0  0  0  0
  157.5540  213.7810  153.1480 C   0  0  0  0  0  3  0  0  0  0  0  0
  159.2340  213.7060  154.9160 C   0  0  0  0  0  2  0  0  0  0  0  0
  161.6090  211.1210  155.7790 C   0  0  0  0  0  0  0  0  0  0  0  0
  162.7150  210.3380  155.1400 C   0  0  0  0  0  1  0  0  0  0  0  0
  159.5380  212.4710  155.7400 C   0  0  0  0  0  2  0  0  0  0  0  0
  160.5980  211.6520  155.0520 C   0  0  0  0  0  0  0  0  0  0  0  0
  161.7060  211.3380  157.2580 C   0  0  0  0  0  1  0  0  0  0  0  0
  156.9220  213.2830  151.8790 C   0  0  0  0  0  2  0  0  0  0  0  0
  157.7180  213.5720  150.6270 C   0  0  0  0  0  0  0  0  0  0  0  0
  159.0340  213.3050  150.4900 C   0  0  0  0  0  3  0  0  0  0  0  0
  158.6970  213.2620  153.5990 C   0  0  0  0  0  0  0  0  0  0  0  0
  160.0240  212.8490  151.5410 C   0  0  0  0  0  2  0  0  0  0  0  0
  159.4180  212.2090  152.7910 C   0  0  1  0  0  3  0  0  0  0  0  0
  156.9570  214.0500  149.4560 C   0  0  0  0  0  0  0  0  0  0  0  0
  155.6260  214.4270  149.5970 O   0  0  0  0  0  1  0  0  0  0  0  0
  157.4940  214.1240  148.3250 O   0  0  0  0  0  0  0  0  0  0  0  0
  160.8700  209.3450  152.1360 C   0  0  0  0  0  0  0  0  0  0  0  0
  160.3120  209.9910  153.2840 N   0  0  0  0  0  2  0  0  0  0  0  0
  161.5910  209.9810  151.3290 O   0  0  0  0  0  0  0  0  0  0  0  0
  160.5650  207.9150  151.8780 C   0  0  0  0  0  2  0  0  0  0  0  0
  160.8470  207.1560  153.0180 O   0  0  0  0  0  0  0  0  0  0  0  0
  161.0110  204.7980  152.6590 C   0  0  0  0  0  2  0  0  0  0  0  0
  162.0040  206.3550  151.0840 C   0  0  0  0  0  2  0  0  0  0  0  0
  160.3320  202.8920  149.3880 C   0  0  1  0  0  3  0  0  0  0  0  0
  160.6520  203.0020  150.8900 C   0  0  0  0  0  2  0  0  0  0  0  0
  160.7460  204.4770  151.2130 C   0  0  2  0  0  3  0  0  0  0  0  0
  161.4330  205.1620  149.0850 C   0  0  0  0  0  2  0  0  0  0  0  0
  161.8510  205.0530  150.4750 N   0  0  1  0  0  0  0  0  0  0  0  0
  161.2770  203.7470  148.5160 C   0  0  0  0  0  2  0  0  0  0  0  0
  161.7060  206.1510  152.5730 C   0  0  1  0  0  3  0  0  0  0  0  0
  160.3620  201.4630  148.9440 C   0  0  0  0  0  0  0  0  0  0  0  0
  160.1840  200.5270  149.7700 O   0  0  0  0  0  1  0  0  0  0  0  0
  160.5760  201.1660  147.6060 O   0  0  0  0  0  0  0  0  0  0  0  0
  1 19  1  1  0  0  0
  1  7  1  0  0  0  0
  2 12  2  0  0  0  0
  3  6  1  0  0  0  0
  4  8  1  0  0  0  0
  5  4  1  0  0  0  0
  7  6  1  0  0  0  0
  7  4  2  0  0  0  0
  9  2  1  0  0  0  0
 10  9  1  0  0  0  0
 11 10  2  0  0  0  0
 11 13  1  0  0  0  0
 12  3  1  0  0  0  0
 14 13  1  6  0  0  0
 14  1  1  0  0  0  0
 14 12  1  0  0  0  0
 15 16  1  0  0  0  0
 15 10  1  0  0  0  0
 17 15  2  0  0  0  0
 18 19  1  0  0  0  0
 20 18  2  0  0  0  0
 21 18  1  0  0  0  0
 21 22  1  0  0  0  0
 24 31  1  0  0  0  0
 25 32  1  6  0  0  0
 25 26  1  0  0  0  0
 27 26  1  1  0  0  0
 27 23  1  0  0  0  0
 29 28  1  6  0  0  0
 29 24  1  0  0  0  0
 29 27  1  0  0  0  0
 30 28  1  0  0  0  0
 30 25  1  0  0  0  0
 31 23  1  0  0  0  0
 31 22  1  6  0  0  0
 32 33  1  0  0  0  0
 34 32  2  0  0  0  0
M  END
>  <MODEL>
6

>  <REMARK>
 VINA RESULT:      -6.5      4.908      6.930
  Name = 
  6 active torsions:
  status: ('A' for Active; 'I' for Inactive)
    1  A    between atoms: C_1  and  N_9
    2  A    between atoms: C_3  and  C_25
    3  A    between atoms: C_7  and  C_11
    4  A    between atoms: C_8  and  C_18
    5  A    between atoms: C_18  and  O_30
    6  A    between atoms: O_30  and  C_31
                            x       y       z     vdW  Elec       q    Type
                         _______ _______ _______ _____ _____    ______ ____

>  <TORSDO>
F 6

$$$$
=
 OpenBabel11062409413D

 34 37  0  0  1  0  0  0  0  0999 V2000
  161.1480  206.9550  150.6380 C   0  0  2  0  0  3  0  0  0  0  0  0
  161.6480  203.8920  148.4370 C   0  0  0  0  0  3  0  0  0  0  0  0
  160.9050  204.0100  150.7580 C   0  0  0  0  0  2  0  0  0  0  0  0
  161.0690  206.7310  153.1330 C   0  0  0  0  0  0  0  0  0  0  0  0
  160.6230  208.1560  153.2570 C   0  0  0  0  0  1  0  0  0  0  0  0
  161.6830  204.7020  151.8600 C   0  0  0  0  0  2  0  0  0  0  0  0
  161.2820  206.1520  151.9270 C   0  0  0  0  0  0  0  0  0  0  0  0
  161.2120  205.9580  154.4080 C   0  0  0  0  0  1  0  0  0  0  0  0
  162.1240  204.5050  147.1510 C   0  0  0  0  0  2  0  0  0  0  0  0
  161.0610  205.2590  146.3860 C   0  0  0  0  0  0  0  0  0  0  0  0
  160.2500  206.1870  146.9350 C   0  0  0  0  0  3  0  0  0  0  0  0
  161.2660  204.6530  149.4640 C   0  0  0  0  0  0  0  0  0  0  0  0
  160.0810  206.5550  148.3950 C   0  0  0  0  0  2  0  0  0  0  0  0
  161.2330  206.1560  149.3170 C   0  0  1  0  0  3  0  0  0  0  0  0
  161.0210  205.0460  144.9260 C   0  0  0  0  0  0  0  0  0  0  0  0
  160.3330  203.9580  144.3990 O   0  0  0  0  0  1  0  0  0  0  0  0
  161.6020  205.8340  144.1430 O   0  0  0  0  0  0  0  0  0  0  0  0
  161.7900  209.3990  150.7470 C   0  0  0  0  0  0  0  0  0  0  0  0
  162.1410  208.0190  150.6080 N   0  0  0  0  0  2  0  0  0  0  0  0
  160.5980  209.7400  150.9470 O   0  0  0  0  0  0  0  0  0  0  0  0
  162.8400  210.4410  150.6200 C   0  0  0  0  0  2  0  0  0  0  0  0
  162.3170  211.5640  149.9720 O   0  0  0  0  0  0  0  0  0  0  0  0
  161.2080  211.2420  147.8790 C   0  0  0  0  0  2  0  0  0  0  0  0
  163.2620  212.5310  147.9980 C   0  0  0  0  0  2  0  0  0  0  0  0
  160.4190  213.9170  145.2300 C   0  0  1  0  0  3  0  0  0  0  0  0
  160.3570  212.5040  145.8370 C   0  0  0  0  0  2  0  0  0  0  0  0
  161.1800  212.5320  147.1050 C   0  0  2  0  0  3  0  0  0  0  0  0
  162.6400  214.2290  146.4250 C   0  0  0  0  0  2  0  0  0  0  0  0
  162.5590  212.8160  146.7670 N   0  0  1  0  0  0  0  0  0  0  0  0
  161.8620  214.4530  145.1220 C   0  0  0  0  0  2  0  0  0  0  0  0
  162.5390  211.3280  148.6150 C   0  0  1  0  0  3  0  0  0  0  0  0
  159.7480  213.9490  143.8930 C   0  0  0  0  0  0  0  0  0  0  0  0
  160.4260  214.0440  142.8340 O   0  0  0  0  0  0  0  0  0  0  0  0
  158.3660  213.8610  143.8170 O   0  0  0  0  0  1  0  0  0  0  0  0
  1 19  1  6  0  0  0
  1  7  1  0  0  0  0
  2 12  2  0  0  0  0
  3  6  1  0  0  0  0
  4  5  1  0  0  0  0
  4  8  1  0  0  0  0
  6  7  1  0  0  0  0
  7  4  2  0  0  0  0
  9  2  1  0  0  0  0
 10 11  2  0  0  0  0
 10  9  1  0  0  0  0
 11 13  1  0  0  0  0
 12  3  1  0  0  0  0
 14 13  1  6  0  0  0
 14 12  1  0  0  0  0
 14  1  1  0  0  0  0
 15 10  1  0  0  0  0
 16 15  1  0  0  0  0
 17 15  2  0  0  0  0
 18 20  2  0  0  0  0
 19 18  1  0  0  0  0
 21 18  1  0  0  0  0
 22 21  1  0  0  0  0
 23 31  1  0  0  0  0
 24 31  1  0  0  0  0
 25 32  1  6  0  0  0
 25 26  1  0  0  0  0
 27 26  1  6  0  0  0
 27 23  1  0  0  0  0
 29 28  1  1  0  0  0
 29 27  1  0  0  0  0
 29 24  1  0  0  0  0
 30 25  1  0  0  0  0
 30 28  1  0  0  0  0
 31 22  1  1  0  0  0
 33 32  2  0  0  0  0
 34 32  1  0  0  0  0
M  END
>  <MODEL>
7

>  <REMARK>
 VINA RESULT:      -6.4      2.796      8.702
  Name = 
  6 active torsions:
  status: ('A' for Active; 'I' for Inactive)
    1  A    between atoms: C_1  and  N_9
    2  A    between atoms: C_3  and  C_25
    3  A    between atoms: C_7  and  C_11
    4  A    between atoms: C_8  and  C_18
    5  A    between atoms: C_18  and  O_30
    6  A    between atoms: O_30  and  C_31
                            x       y       z     vdW  Elec       q    Type
                         _______ _______ _______ _____ _____    ______ ____

>  <TORSDO>
F 6

$$$$
=
 OpenBabel11062409413D

 34 37  0  0  1  0  0  0  0  0999 V2000
  160.3960  213.5890  148.5090 C   0  0  2  0  0  3  0  0  0  0  0  0
  159.3810  212.8490  144.9180 C   0  0  0  0  0  3  0  0  0  0  0  0
  158.0540  213.8240  146.7180 C   0  0  0  0  0  2  0  0  0  0  0  0
  158.6560  213.9190  150.2820 C   0  0  0  0  0  0  0  0  0  0  0  0
  159.7070  214.3840  151.2420 C   0  0  0  0  0  1  0  0  0  0  0  0
  157.8490  213.1660  148.0680 C   0  0  0  0  0  2  0  0  0  0  0  0
  158.9540  213.5810  149.0040 C   0  0  0  0  0  0  0  0  0  0  0  0
  157.2450  213.9010  150.7860 C   0  0  0  0  0  1  0  0  0  0  0  0
  160.6380  212.2490  144.3540 C   0  0  0  0  0  2  0  0  0  0  0  0
  161.7670  213.2330  144.1550 C   0  0  0  0  0  0  0  0  0  0  0  0
  162.1870  214.1020  145.0980 C   0  0  0  0  0  3  0  0  0  0  0  0
  159.3460  213.3380  146.1580 C   0  0  0  0  0  0  0  0  0  0  0  0
  161.5630  214.4210  146.4410 C   0  0  0  0  0  2  0  0  0  0  0  0
  160.6040  213.3650  146.9930 C   0  0  1  0  0  3  0  0  0  0  0  0
  162.5240  213.1240  142.8920 C   0  0  0  0  0  0  0  0  0  0  0  0
  163.4500  214.1030  142.5470 O   0  0  0  0  0  1  0  0  0  0  0  0
  162.3460  212.1550  142.1160 O   0  0  0  0  0  0  0  0  0  0  0  0
  161.5310  211.3350  148.6820 C   0  0  0  0  0  0  0  0  0  0  0  0
  161.1800  212.6040  149.2410 N   0  0  0  0  0  2  0  0  0  0  0  0
  161.2060  211.0410  147.5050 O   0  0  0  0  0  0  0  0  0  0  0  0
  162.2560  210.3420  149.5130 C   0  0  0  0  0  2  0  0  0  0  0  0
  162.4170  209.1520  148.7980 O   0  0  0  0  0  0  0  0  0  0  0  0
  161.2050  207.1910  148.1650 C   0  0  0  0  0  2  0  0  0  0  0  0
  161.3520  207.8480  150.4980 C   0  0  0  0  0  2  0  0  0  0  0  0
  161.4120  203.7070  149.7830 C   0  0  1  0  0  3  0  0  0  0  0  0
  160.9430  204.7200  148.7220 C   0  0  0  0  0  2  0  0  0  0  0  0
  161.5160  206.0640  149.1130 C   0  0  2  0  0  3  0  0  0  0  0  0
  161.6010  205.6480  151.4130 C   0  0  0  0  0  2  0  0  0  0  0  0
  160.9600  206.4610  150.3900 N   0  0  1  0  0  0  0  0  0  0  0  0
  161.1500  204.1940  151.2240 C   0  0  0  0  0  2  0  0  0  0  0  0
  161.2670  208.4110  149.0750 C   0  0  1  0  0  3  0  0  0  0  0  0
  160.7750  202.3720  149.5590 C   0  0  0  0  0  0  0  0  0  0  0  0
  160.6600  201.5450  150.5040 O   0  0  0  0  0  1  0  0  0  0  0  0
  160.2950  202.0440  148.2990 O   0  0  0  0  0  0  0  0  0  0  0  0
  1  7  1  0  0  0  0
  1 19  1  1  0  0  0
  2 12  2  0  0  0  0
  3  6  1  0  0  0  0
  4  8  1  0  0  0  0
  4  5  1  0  0  0  0
  6  7  1  0  0  0  0
  7  4  2  0  0  0  0
  9  2  1  0  0  0  0
 10  9  1  0  0  0  0
 10 11  2  0  0  0  0
 11 13  1  0  0  0  0
 12  3  1  0  0  0  0
 12 14  1  0  0  0  0
 14 13  1  6  0  0  0
 14  1  1  0  0  0  0
 15 10  1  0  0  0  0
 16 15  1  0  0  0  0
 17 15  2  0  0  0  0
 18 19  1  0  0  0  0
 18 21  1  0  0  0  0
 20 18  2  0  0  0  0
 22 21  1  0  0  0  0
 23 31  1  0  0  0  0
 25 32  1  6  0  0  0
 25 30  1  0  0  0  0
 26 27  1  0  0  0  0
 26 25  1  0  0  0  0
 27 23  1  6  0  0  0
 27 29  1  0  0  0  0
 29 24  1  1  0  0  0
 29 28  1  0  0  0  0
 30 28  1  0  0  0  0
 31 22  1  6  0  0  0
 31 24  1  0  0  0  0
 32 33  1  0  0  0  0
 34 32  2  0  0  0  0
M  END
>  <MODEL>
8

>  <REMARK>
 VINA RESULT:      -6.4      1.323      2.026
  Name = 
  6 active torsions:
  status: ('A' for Active; 'I' for Inactive)
    1  A    between atoms: C_1  and  N_9
    2  A    between atoms: C_3  and  C_25
    3  A    between atoms: C_7  and  C_11
    4  A    between atoms: C_8  and  C_18
    5  A    between atoms: C_18  and  O_30
    6  A    between atoms: O_30  and  C_31
                            x       y       z     vdW  Elec       q    Type
                         _______ _______ _______ _____ _____    ______ ____

>  <TORSDO>
F 6

$$$$
=
 OpenBabel11062409413D

 34 37  0  0  1  0  0  0  0  0999 V2000
  161.0770  209.2010  152.5440 C   0  0  2  0  0  3  0  0  0  0  0  0
  160.0180  212.7250  151.5770 C   0  0  0  0  0  3  0  0  0  0  0  0
  160.4190  211.7970  153.7980 C   0  0  0  0  0  2  0  0  0  0  0  0
  160.7250  208.3610  154.8780 C   0  0  0  0  0  0  0  0  0  0  0  0
  161.5480  207.1460  154.5770 C   0  0  0  0  0  1  0  0  0  0  0  0
  159.7300  210.5580  154.3330 C   0  0  0  0  0  2  0  0  0  0  0  0
  160.5270  209.3360  153.9600 C   0  0  0  0  0  0  0  0  0  0  0  0
  160.1760  208.4730  156.2690 C   0  0  0  0  0  1  0  0  0  0  0  0
  159.9360  212.6270  150.0800 C   0  0  0  0  0  2  0  0  0  0  0  0
  161.2730  212.5100  149.3860 C   0  0  0  0  0  0  0  0  0  0  0  0
  162.2330  211.6310  149.7400 C   0  0  0  0  0  3  0  0  0  0  0  0
  160.4560  211.7010  152.3120 C   0  0  0  0  0  0  0  0  0  0  0  0
  162.2910  210.7260  150.9530 C   0  0  0  0  0  2  0  0  0  0  0  0
  160.9510  210.4450  151.6350 C   0  0  1  0  0  3  0  0  0  0  0  0
  161.4590  213.3230  148.1680 C   0  0  0  0  0  0  0  0  0  0  0  0
  160.3850  213.5570  147.3150 O   0  0  0  0  0  0  0  0  0  0  0  0
  162.5770  213.8130  147.8840 O   0  0  0  0  0  1  0  0  0  0  0  0
  161.1950  207.1790  151.0290 C   0  0  0  0  0  0  0  0  0  0  0  0
  160.4570  208.0660  151.8740 N   0  0  0  0  0  2  0  0  0  0  0  0
  162.4320  207.3260  150.8680 O   0  0  0  0  0  0  0  0  0  0  0  0
  160.4860  206.0930  150.3060 C   0  0  0  0  0  2  0  0  0  0  0  0
  160.5810  204.9010  151.0300 O   0  0  0  0  0  0  0  0  0  0  0  0
  160.9940  202.7470  150.0760 C   0  0  0  0  0  2  0  0  0  0  0  0
  161.7770  204.7570  148.9630 C   0  0  0  0  0  2  0  0  0  0  0  0
  160.4570  201.6820  146.4200 C   0  0  1  0  0  3  0  0  0  0  0  0
  160.7960  201.4380  147.9020 C   0  0  0  0  0  2  0  0  0  0  0  0
  160.7350  202.7810  148.5950 C   0  0  2  0  0  3  0  0  0  0  0  0
  161.2970  204.0620  146.7200 C   0  0  0  0  0  2  0  0  0  0  0  0
  161.7540  203.6460  148.0380 N   0  0  1  0  0  0  0  0  0  0  0  0
  161.2840  202.8320  145.8050 C   0  0  0  0  0  2  0  0  0  0  0  0
  161.5360  204.1450  150.3470 C   0  0  1  0  0  3  0  0  0  0  0  0
  160.6330  200.4280  145.6220 C   0  0  0  0  0  0  0  0  0  0  0  0
  160.0580  200.2860  144.5090 O   0  0  0  0  0  0  0  0  0  0  0  0
  161.4470  199.4160  146.1080 O   0  0  0  0  0  1  0  0  0  0  0  0
  1 19  1  6  0  0  0
  1  7  1  0  0  0  0
  2 12  2  0  0  0  0
  3  6  1  0  0  0  0
  4  8  1  0  0  0  0
  5  4  1  0  0  0  0
  7  6  1  0  0  0  0
  7  4  2  0  0  0  0
  9  2  1  0  0  0  0
 10 11  2  0  0  0  0
 10  9  1  0  0  0  0
 11 13  1  0  0  0  0
 12  3  1  0  0  0  0
 14 13  1  1  0  0  0
 14 12  1  0  0  0  0
 14  1  1  0  0  0  0
 15 10  1  0  0  0  0
 16 15  2  0  0  0  0
 17 15  1  0  0  0  0
 18 19  1  0  0  0  0
 20 18  2  0  0  0  0
 21 18  1  0  0  0  0
 21 22  1  0  0  0  0
 23 31  1  0  0  0  0
 24 31  1  0  0  0  0
 25 32  1  6  0  0  0
 25 26  1  0  0  0  0
 27 26  1  6  0  0  0
 27 23  1  0  0  0  0
 29 28  1  6  0  0  0
 29 27  1  0  0  0  0
 29 24  1  0  0  0  0
 30 25  1  0  0  0  0
 30 28  1  0  0  0  0
 31 22  1  6  0  0  0
 32 34  1  0  0  0  0
 33 32  2  0  0  0  0
M  END
>  <MODEL>
9

>  <REMARK>
 VINA RESULT:      -6.3      3.778      6.613
  Name = 
  6 active torsions:
  status: ('A' for Active; 'I' for Inactive)
    1  A    between atoms: C_1  and  N_9
    2  A    between atoms: C_3  and  C_25
    3  A    between atoms: C_7  and  C_11
    4  A    between atoms: C_8  and  C_18
    5  A    between atoms: C_18  and  O_30
    6  A    between atoms: O_30  and  C_31
                            x       y       z     vdW  Elec       q    Type
                         _______ _______ _______ _____ _____    ______ ____

>  <TORSDO>
F 6

$$$$
