=
 OpenBabel11062409003D

 55 56  0  0  1  0  0  0  0  0999 V2000
  162.5360  209.2480  151.8960 O   0  0  0  0  0  0  0  0  0  0  0  0
  161.4820  207.2640  151.2400 N   0  0  0  0  0  0  0  0  0  0  0  0
  161.7360  208.3190  152.1930 C   0  0  0  0  0  0  0  0  0  0  0  0
  161.7780  207.5040  149.8160 C   0  0  2  0  0  3  0  0  0  0  0  0
  162.0520  208.9810  149.5510 C   0  0  0  0  0  1  0  0  0  0  0  0
  160.1720  205.7650  149.4010 O   0  0  0  0  0  1  0  0  0  0  0  0
  160.7310  206.9210  148.8520 C   0  0  2  0  0  3  0  0  0  0  0  0
  161.3020  206.6130  147.4710 C   0  0  0  0  0  2  0  0  0  0  0  0
  160.5030  207.3290  146.3950 C   0  0  0  0  0  2  0  0  0  0  0  0
  160.1240  206.3600  145.2860 C   0  0  0  0  0  2  0  0  0  0  0  0
  161.3490  205.5790  144.8130 C   0  0  1  0  0  3  0  0  0  0  0  0
  162.0880  203.7760  146.3770 C   0  0  0  0  0  3  0  0  0  0  0  0
  161.2290  201.5080  146.2170 C   0  0  0  0  0  0  0  0  0  0  0  0
  160.4730  203.2140  144.6610 C   0  0  0  0  0  3  0  0  0  0  0  0
  160.4390  201.8960  145.1250 C   0  0  0  0  0  3  0  0  0  0  0  0
  162.0540  202.4580  146.8390 C   0  0  0  0  0  3  0  0  0  0  0  0
  161.2990  204.1590  145.2880 C   0  0  0  0  0  0  0  0  0  0  0  0
  161.1920  200.1550  146.6910 N   0  0  0  0  0  0  0  0  0  0  0  0
  161.3600  199.8870  148.0080 O   0  0  0  0  0  1  0  0  0  0  0  0
  160.9800  199.0920  145.8010 N   0  0  0  0  0  1  0  0  0  0  0  0
  161.7760  206.6970  142.7740 N   0  0  0  0  0  0  0  0  0  0  0  0
  161.4510  205.6190  143.3640 N   0  0  0  0  0  0  0  0  0  0  0  0
  162.5570  205.7480  140.6670 C   0  0  0  0  0  3  0  0  0  0  0  0
  161.4740  207.8960  139.2410 C   0  0  0  0  0  0  0  0  0  0  0  0
  161.3540  207.8500  140.6330 C   0  0  0  0  0  3  0  0  0  0  0  0
  162.6760  205.7950  139.2750 C   0  0  0  0  0  3  0  0  0  0  0  0
  161.8960  206.7730  141.3510 C   0  0  0  0  0  0  0  0  0  0  0  0
  160.9480  208.9360  138.5500 F   0  0  0  0  0  0  0  0  0  0  0  0
  162.1350  206.8680  138.5620 C   0  0  0  0  0  3  0  0  0  0  0  0
  160.9280  205.9820  151.6850 C   0  0  0  0  0  2  0  0  0  0  0  0
  161.2910  203.5170  151.4970 C   0  0  0  0  0  1  0  0  0  0  0  0
  161.9640  204.8710  151.6000 C   0  0  0  0  0  2  0  0  0  0  0  0
  161.0640  208.3770  153.5410 C   0  0  2  0  0  3  0  0  0  0  0  0
  162.0650  206.3100  154.2740 O   0  0  0  0  0  1  0  0  0  0  0  0
  160.8510  206.9930  154.1610 C   0  0  1  0  0  3  0  0  0  0  0  0
  161.0210  207.3220  156.6280 O   0  0  0  0  0  1  0  0  0  0  0  0
  160.2230  207.1030  155.5140 C   0  0  0  0  0  0  0  0  0  0  0  0
  158.9760  206.9930  155.6500 O   0  0  0  0  0  0  0  0  0  0  0  0
  159.7580  209.1760  153.4830 C   0  0  0  0  0  2  0  0  0  0  0  0
  159.8560  210.5480  154.1600 C   0  0  2  0  0  0  0  0  0  0  0  0
  159.5480  210.1390  156.5720 O   0  0  0  0  0  1  0  0  0  0  0  0
  160.4980  210.3030  155.5570 C   0  0  2  0  0  3  0  0  0  0  0  0
  161.5640  211.3350  155.9590 C   0  0  1  0  0  3  0  0  0  0  0  0
  161.1040  212.2490  157.0840 C   0  0  0  0  0  1  0  0  0  0  0  0
  162.8210  209.5480  156.9130 O   0  0  0  0  0  1  0  0  0  0  0  0
  162.8470  210.6590  156.3220 C   0  0  0  0  0  0  0  0  0  0  0  0
  164.0670  211.2620  156.0400 O   0  0  0  0  0  0  0  0  0  0  0  0
  158.4000  211.0540  154.2890 C   0  0  0  0  0  2  0  0  0  0  0  0
  158.1440  211.6730  155.5140 O   0  0  0  0  0  0  0  0  0  0  0  0
  157.6750  212.9400  155.1740 C   0  0  0  0  0  2  0  0  0  0  0  0
  156.3510  212.8110  154.4520 C   0  0  0  0  0  1  0  0  0  0  0  0
  160.6590  211.3680  153.3180 O   0  0  0  0  0  0  0  0  0  0  0  0
  159.8730  212.2390  152.5440 C   0  0  0  0  0  2  0  0  0  0  0  0
  160.3060  212.1720  151.0910 C   0  0  0  0  0  2  0  0  0  0  0  0
  160.0250  213.4920  150.4000 C   0  0  0  0  0  1  0  0  0  0  0  0
  1  3  2  0  0  0  0
  2 30  1  0  0  0  0
  2  3  1  0  0  0  0
  3 33  1  0  0  0  0
  4  5  1  1  0  0  0
  4  2  1  0  0  0  0
  7  6  1  1  0  0  0
  7  4  1  0  0  0  0
  8  7  1  0  0  0  0
  9  8  1  0  0  0  0
 10  9  1  0  0  0  0
 11 10  1  6  0  0  0
 11 17  1  0  0  0  0
 12 16  1  0  0  0  0
 13 18  1  0  0  0  0
 13 16  2  0  0  0  0
 14 15  2  0  0  0  0
 14 17  1  0  0  0  0
 15 13  1  0  0  0  0
 17 12  2  0  0  0  0
 18 19  1  0  0  0  0
 20 18  1  0  0  0  0
 21 22  2  0  0  0  0
 22 11  1  0  0  0  0
 23 27  1  0  0  0  0
 24 25  1  0  0  0  0
 25 27  2  0  0  0  0
 26 23  2  0  0  0  0
 27 21  1  0  0  0  0
 28 24  1  0  0  0  0
 29 24  2  0  0  0  0
 29 26  1  0  0  0  0
 31 32  1  0  0  0  0
 32 30  1  0  0  0  0
 33 39  1  6  0  0  0
 33 35  1  0  0  0  0
 35 34  1  1  0  0  0
 35 37  1  0  0  0  0
 37 38  2  0  0  0  0
 37 36  1  0  0  0  0
 40 39  1  6  0  0  0
 40 48  1  0  0  0  0
 40 42  1  0  0  0  0
 42 43  1  0  0  0  0
 42 41  1  1  0  0  0
 43 46  1  0  0  0  0
 43 44  1  1  0  0  0
 46 45  1  0  0  0  0
 47 46  2  0  0  0  0
 48 49  1  0  0  0  0
 50 49  1  0  0  0  0
 51 50  1  0  0  0  0
 52 40  1  0  0  0  0
 53 52  1  0  0  0  0
 54 53  1  0  0  0  0
 55 54  1  0  0  0  0
M  END
>  <MODEL>
1

>  <REMARK>
 VINA RESULT:      -3.5      0.000      0.000
  Name = 
  26 active torsions:
  status: ('A' for Active; 'I' for Inactive)
    1  A    between atoms: C_1  and  C_30
    2  A    between atoms: N_2  and  C_44
    3  A    between atoms: C_6  and  C_8
    4  A    between atoms: C_6  and  O_20
    5  A    between atoms: C_6  and  C_38
    6  A    between atoms: C_6  and  C_46
    7  A    between atoms: C_7  and  C_8
    8  A    between atoms: C_7  and  C_23
    9  A    between atoms: C_7  and  C_43
   10  A    between atoms: N_10  and  C_32
   11  A    between atoms: C_11  and  C_29
   12  A    between atoms: C_11  and  C_38
   13  A    between atoms: C_12  and  O_14
   14  A    between atoms: O_14  and  C_46
   15  A    between atoms: C_16  and  N_17
   16  A    between atoms: C_16  and  C_26
   17  A    between atoms: N_17  and  C_37
   18  A    between atoms: C_19  and  C_45
   19  A    between atoms: C_19  and  C_49
   20  A    between atoms: O_20  and  C_30
   21  A    between atoms: C_26  and  C_45
   22  A    between atoms: N_28  and  C_33
   23  A    between atoms: C_33  and  C_49
   24  A    between atoms: C_33  and  C_52
   25  A    between atoms: C_35  and  C_43
   26  A    between atoms: C_37  and  C_40
                            x       y       z     vdW  Elec       q    Type
                         _______ _______ _______ _____ _____    ______ ____

>  <TORSDO>
F 26

$$$$
=
 OpenBabel11062409003D

 55 56  0  0  1  0  0  0  0  0999 V2000
  162.5800  209.3540  151.8620 O   0  0  0  0  0  0  0  0  0  0  0  0
  161.4120  207.4220  151.2460 N   0  0  0  0  0  0  0  0  0  0  0  0
  161.7260  208.4820  152.1760 C   0  0  0  0  0  0  0  0  0  0  0  0
  161.7260  207.6120  149.8180 C   0  0  2  0  0  3  0  0  0  0  0  0
  161.9290  209.0880  149.4890 C   0  0  0  0  0  1  0  0  0  0  0  0
  160.3450  205.6950  149.3820 O   0  0  0  0  0  1  0  0  0  0  0  0
  160.7310  206.9310  148.8620 C   0  0  2  0  0  3  0  0  0  0  0  0
  161.2910  206.7490  147.4540 C   0  0  0  0  0  2  0  0  0  0  0  0
  160.3430  207.3420  146.4250 C   0  0  0  0  0  2  0  0  0  0  0  0
  160.1710  206.3870  145.2540 C   0  0  0  0  0  2  0  0  0  0  0  0
  161.4750  205.6440  144.9710 C   0  0  1  0  0  3  0  0  0  0  0  0
  162.1580  203.8900  146.6130 C   0  0  0  0  0  3  0  0  0  0  0  0
  161.3260  201.6100  146.4740 C   0  0  0  0  0  0  0  0  0  0  0  0
  160.6280  203.2690  144.8410 C   0  0  0  0  0  3  0  0  0  0  0  0
  160.5830  201.9620  145.3370 C   0  0  0  0  0  3  0  0  0  0  0  0
  162.1130  202.5840  147.1080 C   0  0  0  0  0  3  0  0  0  0  0  0
  161.4160  204.2370  145.4790 C   0  0  0  0  0  0  0  0  0  0  0  0
  161.2780  200.2690  146.9800 N   0  0  0  0  0  0  0  0  0  0  0  0
  161.2390  199.2180  146.1280 O   0  0  0  0  0  1  0  0  0  0  0  0
  161.2720  200.0270  148.3610 N   0  0  0  0  0  1  0  0  0  0  0  0
  161.5120  206.6790  142.8440 N   0  0  0  0  0  0  0  0  0  0  0  0
  161.7660  205.6500  143.5460 N   0  0  0  0  0  0  0  0  0  0  0  0
  162.5480  205.7010  140.8640 C   0  0  0  0  0  3  0  0  0  0  0  0
  161.5920  207.7910  139.2710 C   0  0  0  0  0  0  0  0  0  0  0  0
  161.3140  207.7740  140.6410 C   0  0  0  0  0  3  0  0  0  0  0  0
  162.8240  205.7190  139.4940 C   0  0  0  0  0  3  0  0  0  0  0  0
  161.7920  206.7260  141.4430 C   0  0  0  0  0  0  0  0  0  0  0  0
  161.1280  208.8020  138.4990 F   0  0  0  0  0  0  0  0  0  0  0  0
  162.3460  206.7620  138.6980 C   0  0  0  0  0  3  0  0  0  0  0  0
  160.7810  206.1870  151.7170 C   0  0  0  0  0  2  0  0  0  0  0  0
  161.0610  203.7110  151.9120 C   0  0  0  0  0  1  0  0  0  0  0  0
  161.7780  205.0370  151.7630 C   0  0  0  0  0  2  0  0  0  0  0  0
  161.0540  208.6100  153.5190 C   0  0  2  0  0  3  0  0  0  0  0  0
  162.0060  206.5380  154.3020 O   0  0  0  0  0  1  0  0  0  0  0  0
  160.8130  207.2570  154.1970 C   0  0  1  0  0  3  0  0  0  0  0  0
  161.0460  207.8170  156.6160 O   0  0  0  0  0  1  0  0  0  0  0  0
  160.2280  207.4400  155.5610 C   0  0  0  0  0  0  0  0  0  0  0  0
  158.9990  207.2470  155.7600 O   0  0  0  0  0  0  0  0  0  0  0  0
  159.7650  209.4320  153.4260 C   0  0  0  0  0  2  0  0  0  0  0  0
  159.8250  210.7460  154.2140 C   0  0  2  0  0  0  0  0  0  0  0  0
  157.4250  210.7200  153.6470 O   0  0  0  0  0  1  0  0  0  0  0  0
  158.3600  211.0770  154.6250 C   0  0  2  0  0  3  0  0  0  0  0  0
  158.1410  212.5240  155.0960 C   0  0  1  0  0  3  0  0  0  0  0  0
  157.4810  213.3940  154.0370 C   0  0  0  0  0  1  0  0  0  0  0  0
  157.4660  213.5390  157.1450 O   0  0  0  0  0  1  0  0  0  0  0  0
  157.3550  212.5560  156.3670 C   0  0  0  0  0  0  0  0  0  0  0  0
  156.5260  211.4950  156.7110 O   0  0  0  0  0  0  0  0  0  0  0  0
  160.3860  211.7980  153.2290 C   0  0  0  0  0  2  0  0  0  0  0  0
  159.8510  211.6830  151.9440 O   0  0  0  0  0  0  0  0  0  0  0  0
  160.3250  212.8040  151.2670 C   0  0  0  0  0  2  0  0  0  0  0  0
  159.1570  213.5830  150.7010 C   0  0  0  0  0  1  0  0  0  0  0  0
  160.6760  210.5190  155.3320 O   0  0  0  0  0  0  0  0  0  0  0  0
  160.7880  211.6660  156.1370 C   0  0  0  0  0  2  0  0  0  0  0  0
  162.1450  211.6900  156.8150 C   0  0  0  0  0  2  0  0  0  0  0  0
  163.0290  210.5920  156.2600 C   0  0  0  0  0  1  0  0  0  0  0  0
  1  3  2  0  0  0  0
  2 30  1  0  0  0  0
  2  3  1  0  0  0  0
  3 33  1  0  0  0  0
  4  5  1  6  0  0  0
  4  2  1  0  0  0  0
  7  6  1  1  0  0  0
  7  4  1  0  0  0  0
  8  7  1  0  0  0  0
  9  8  1  0  0  0  0
 10  9  1  0  0  0  0
 11 10  1  6  0  0  0
 11 17  1  0  0  0  0
 12 16  1  0  0  0  0
 13 18  1  0  0  0  0
 13 16  2  0  0  0  0
 14 15  2  0  0  0  0
 14 17  1  0  0  0  0
 15 13  1  0  0  0  0
 17 12  2  0  0  0  0
 18 20  1  0  0  0  0
 19 18  1  0  0  0  0
 21 22  2  0  0  0  0
 22 11  1  0  0  0  0
 23 27  1  0  0  0  0
 24 25  1  0  0  0  0
 25 27  2  0  0  0  0
 26 23  2  0  0  0  0
 27 21  1  0  0  0  0
 28 24  1  0  0  0  0
 29 24  2  0  0  0  0
 29 26  1  0  0  0  0
 30 32  1  0  0  0  0
 32 31  1  0  0  0  0
 33 39  1  6  0  0  0
 33 35  1  0  0  0  0
 35 34  1  1  0  0  0
 35 37  1  0  0  0  0
 37 38  2  0  0  0  0
 37 36  1  0  0  0  0
 39 40  1  0  0  0  0
 40 48  1  6  0  0  0
 40 42  1  0  0  0  0
 40 52  1  0  0  0  0
 42 41  1  6  0  0  0
 42 43  1  0  0  0  0
 43 44  1  6  0  0  0
 43 46  1  0  0  0  0
 46 47  2  0  0  0  0
 46 45  1  0  0  0  0
 49 48  1  0  0  0  0
 50 49  1  0  0  0  0
 51 50  1  0  0  0  0
 52 53  1  0  0  0  0
 53 54  1  0  0  0  0
 55 54  1  0  0  0  0
M  END
>  <MODEL>
2

>  <REMARK>
 VINA RESULT:      -3.1      0.921      2.628
  Name = 
  26 active torsions:
  status: ('A' for Active; 'I' for Inactive)
    1  A    between atoms: C_1  and  C_30
    2  A    between atoms: N_2  and  C_44
    3  A    between atoms: C_6  and  C_8
    4  A    between atoms: C_6  and  O_20
    5  A    between atoms: C_6  and  C_38
    6  A    between atoms: C_6  and  C_46
    7  A    between atoms: C_7  and  C_8
    8  A    between atoms: C_7  and  C_23
    9  A    between atoms: C_7  and  C_43
   10  A    between atoms: N_10  and  C_32
   11  A    between atoms: C_11  and  C_29
   12  A    between atoms: C_11  and  C_38
   13  A    between atoms: C_12  and  O_14
   14  A    between atoms: O_14  and  C_46
   15  A    between atoms: C_16  and  N_17
   16  A    between atoms: C_16  and  C_26
   17  A    between atoms: N_17  and  C_37
   18  A    between atoms: C_19  and  C_45
   19  A    between atoms: C_19  and  C_49
   20  A    between atoms: O_20  and  C_30
   21  A    between atoms: C_26  and  C_45
   22  A    between atoms: N_28  and  C_33
   23  A    between atoms: C_33  and  C_49
   24  A    between atoms: C_33  and  C_52
   25  A    between atoms: C_35  and  C_43
   26  A    between atoms: C_37  and  C_40
                            x       y       z     vdW  Elec       q    Type
                         _______ _______ _______ _____ _____    ______ ____

>  <TORSDO>
F 26

$$$$
=
 OpenBabel11062409003D

 55 56  0  0  1  0  0  0  0  0999 V2000
  159.9760  208.4560  152.0770 O   0  0  0  0  0  0  0  0  0  0  0  0
  161.8180  209.2800  150.8920 N   0  0  0  0  0  0  0  0  0  0  0  0
  160.9070  209.3030  152.0130 C   0  0  0  0  0  0  0  0  0  0  0  0
  161.9430  208.0420  150.1010 C   0  0  2  0  0  3  0  0  0  0  0  0
  162.9500  207.0840  150.7300 C   0  0  0  0  0  1  0  0  0  0  0  0
  161.0420  208.6840  147.9680 O   0  0  0  0  0  1  0  0  0  0  0  0
  162.2150  208.2790  148.6060 C   0  0  2  0  0  3  0  0  0  0  0  0
  162.7870  207.0500  147.9050 C   0  0  0  0  0  2  0  0  0  0  0  0
  161.8270  206.5540  146.8360 C   0  0  0  0  0  2  0  0  0  0  0  0
  162.0500  205.0730  146.5730 C   0  0  0  0  0  2  0  0  0  0  0  0
  161.0150  204.2330  147.3190 C   0  0  1  0  0  3  0  0  0  0  0  0
  160.6120  202.5760  145.4940 C   0  0  0  0  0  3  0  0  0  0  0  0
  160.9650  200.1940  145.8240 C   0  0  0  0  0  0  0  0  0  0  0  0
  161.3690  201.7540  147.6430 C   0  0  0  0  0  3  0  0  0  0  0  0
  161.3520  200.4460  147.1480 C   0  0  0  0  0  3  0  0  0  0  0  0
  160.5950  201.2680  145.0010 C   0  0  0  0  0  3  0  0  0  0  0  0
  160.9990  202.8240  146.8150 C   0  0  0  0  0  0  0  0  0  0  0  0
  160.9480  198.8510  145.3200 N   0  0  0  0  0  0  0  0  0  0  0  0
  159.7710  198.2340  145.0590 O   0  0  0  0  0  1  0  0  0  0  0  0
  162.1450  198.1600  145.0910 N   0  0  0  0  0  1  0  0  0  0  0  0
  160.3170  204.2960  149.5780 N   0  0  0  0  0  0  0  0  0  0  0  0
  161.2790  204.2510  148.7490 N   0  0  0  0  0  0  0  0  0  0  0  0
  160.4810  203.1000  151.6970 C   0  0  0  0  0  3  0  0  0  0  0  0
  161.0360  205.4810  153.0550 C   0  0  0  0  0  0  0  0  0  0  0  0
  160.8140  205.4990  151.6750 C   0  0  0  0  0  3  0  0  0  0  0  0
  160.7040  203.0830  153.0770 C   0  0  0  0  0  3  0  0  0  0  0  0
  160.5360  204.3060  150.9900 C   0  0  0  0  0  0  0  0  0  0  0  0
  161.3070  206.6340  153.7120 F   0  0  0  0  0  0  0  0  0  0  0  0
  160.9820  204.2720  153.7560 C   0  0  0  0  0  3  0  0  0  0  0  0
  162.6110  210.4660  150.5580 C   0  0  0  0  0  2  0  0  0  0  0  0
  162.4550  211.9210  148.5320 C   0  0  0  0  0  1  0  0  0  0  0  0
  161.7750  211.5020  149.8200 C   0  0  0  0  0  2  0  0  0  0  0  0
  161.0320  210.2950  153.1410 C   0  0  2  0  0  3  0  0  0  0  0  0
  162.6730  210.9340  154.7870 O   0  0  0  0  0  1  0  0  0  0  0  0
  162.0050  209.8390  154.2330 C   0  0  1  0  0  3  0  0  0  0  0  0
  162.0080  208.4650  156.3150 O   0  0  0  0  0  1  0  0  0  0  0  0
  161.2850  209.1030  155.3170 C   0  0  0  0  0  0  0  0  0  0  0  0
  160.0260  209.0530  155.3280 O   0  0  0  0  0  0  0  0  0  0  0  0
  159.6620  210.6600  153.7220 C   0  0  0  0  0  2  0  0  0  0  0  0
  159.2260  212.0930  153.3960 C   0  0  2  0  0  0  0  0  0  0  0  0
  160.3250  212.2830  155.5960 O   0  0  0  0  0  1  0  0  0  0  0  0
  159.8640  213.0020  154.4870 C   0  0  2  0  0  3  0  0  0  0  0  0
  158.9850  214.1870  154.9240 C   0  0  1  0  0  3  0  0  0  0  0  0
  157.7480  214.3530  154.0560 C   0  0  0  0  0  1  0  0  0  0  0  0
  159.4010  214.4500  157.2570 O   0  0  0  0  0  1  0  0  0  0  0  0
  158.6040  214.0610  156.3640 C   0  0  0  0  0  0  0  0  0  0  0  0
  157.3880  213.4920  156.7260 O   0  0  0  0  0  0  0  0  0  0  0  0
  157.6830  212.0930  153.4940 C   0  0  0  0  0  2  0  0  0  0  0  0
  157.1550  210.8330  153.7850 O   0  0  0  0  0  0  0  0  0  0  0  0
  155.8630  211.0920  154.2390 C   0  0  0  0  0  2  0  0  0  0  0  0
  155.8050  210.8920  155.7380 C   0  0  0  0  0  1  0  0  0  0  0  0
  159.7020  212.3820  152.0870 O   0  0  0  0  0  0  0  0  0  0  0  0
  159.3460  213.6810  151.6830 C   0  0  0  0  0  2  0  0  0  0  0  0
  158.7610  213.6450  150.2840 C   0  0  0  0  0  2  0  0  0  0  0  0
  157.3820  214.2740  150.2760 C   0  0  0  0  0  1  0  0  0  0  0  0
  2  3  1  0  0  0  0
  3  1  2  0  0  0  0
  3 33  1  0  0  0  0
  4  5  1  1  0  0  0
  4  2  1  0  0  0  0
  7  6  1  6  0  0  0
  7  4  1  0  0  0  0
  8  7  1  0  0  0  0
  9  8  1  0  0  0  0
 10  9  1  0  0  0  0
 11 10  1  6  0  0  0
 11 22  1  0  0  0  0
 12 17  1  0  0  0  0
 13 15  2  0  0  0  0
 15 14  1  0  0  0  0
 16 12  2  0  0  0  0
 16 13  1  0  0  0  0
 17 11  1  0  0  0  0
 17 14  2  0  0  0  0
 18 13  1  0  0  0  0
 19 18  1  0  0  0  0
 20 18  1  0  0  0  0
 21 27  1  0  0  0  0
 22 21  2  0  0  0  0
 23 26  1  0  0  0  0
 24 28  1  0  0  0  0
 24 29  1  0  0  0  0
 25 24  2  0  0  0  0
 26 29  2  0  0  0  0
 27 25  1  0  0  0  0
 27 23  2  0  0  0  0
 30  2  1  0  0  0  0
 31 32  1  0  0  0  0
 32 30  1  0  0  0  0
 33 39  1  1  0  0  0
 33 35  1  0  0  0  0
 35 34  1  1  0  0  0
 35 37  1  0  0  0  0
 37 38  2  0  0  0  0
 37 36  1  0  0  0  0
 40 48  1  1  0  0  0
 40 39  1  0  0  0  0
 40 42  1  0  0  0  0
 42 43  1  0  0  0  0
 42 41  1  1  0  0  0
 43 44  1  6  0  0  0
 43 46  1  0  0  0  0
 46 47  2  0  0  0  0
 46 45  1  0  0  0  0
 48 49  1  0  0  0  0
 49 50  1  0  0  0  0
 50 51  1  0  0  0  0
 52 40  1  0  0  0  0
 53 52  1  0  0  0  0
 54 53  1  0  0  0  0
 55 54  1  0  0  0  0
M  END
>  <MODEL>
3

>  <REMARK>
 VINA RESULT:      -2.7      3.699      5.797
  Name = 
  26 active torsions:
  status: ('A' for Active; 'I' for Inactive)
    1  A    between atoms: C_1  and  C_30
    2  A    between atoms: N_2  and  C_44
    3  A    between atoms: C_6  and  C_8
    4  A    between atoms: C_6  and  O_20
    5  A    between atoms: C_6  and  C_38
    6  A    between atoms: C_6  and  C_46
    7  A    between atoms: C_7  and  C_8
    8  A    between atoms: C_7  and  C_23
    9  A    between atoms: C_7  and  C_43
   10  A    between atoms: N_10  and  C_32
   11  A    between atoms: C_11  and  C_29
   12  A    between atoms: C_11  and  C_38
   13  A    between atoms: C_12  and  O_14
   14  A    between atoms: O_14  and  C_46
   15  A    between atoms: C_16  and  N_17
   16  A    between atoms: C_16  and  C_26
   17  A    between atoms: N_17  and  C_37
   18  A    between atoms: C_19  and  C_45
   19  A    between atoms: C_19  and  C_49
   20  A    between atoms: O_20  and  C_30
   21  A    between atoms: C_26  and  C_45
   22  A    between atoms: N_28  and  C_33
   23  A    between atoms: C_33  and  C_49
   24  A    between atoms: C_33  and  C_52
   25  A    between atoms: C_35  and  C_43
   26  A    between atoms: C_37  and  C_40
                            x       y       z     vdW  Elec       q    Type
                         _______ _______ _______ _____ _____    ______ ____

>  <TORSDO>
F 26

$$$$
=
 OpenBabel11062409003D

 55 56  0  0  1  0  0  0  0  0999 V2000
  162.5540  209.1370  151.5640 O   0  0  0  0  0  0  0  0  0  0  0  0
  161.6840  206.9810  151.2890 N   0  0  0  0  0  0  0  0  0  0  0  0
  161.8050  208.2270  152.0110 C   0  0  0  0  0  0  0  0  0  0  0  0
  162.0500  206.9480  149.8610 C   0  0  2  0  0  3  0  0  0  0  0  0
  163.0390  208.0580  149.5190 C   0  0  0  0  0  1  0  0  0  0  0  0
  159.8600  206.0710  149.4070 O   0  0  0  0  0  1  0  0  0  0  0  0
  160.8440  206.9250  148.9070 C   0  0  2  0  0  3  0  0  0  0  0  0
  161.2180  206.5060  147.4870 C   0  0  0  0  0  2  0  0  0  0  0  0
  160.3310  207.2120  146.4750 C   0  0  0  0  0  2  0  0  0  0  0  0
  160.1180  206.3290  145.2550 C   0  0  0  0  0  2  0  0  0  0  0  0
  161.4030  205.5810  144.9030 C   0  0  1  0  0  3  0  0  0  0  0  0
  162.1600  203.8020  146.4850 C   0  0  0  0  0  3  0  0  0  0  0  0
  161.2970  201.5330  146.3710 C   0  0  0  0  0  0  0  0  0  0  0  0
  160.5240  203.2150  144.7990 C   0  0  0  0  0  3  0  0  0  0  0  0
  160.4940  201.9040  145.2840 C   0  0  0  0  0  3  0  0  0  0  0  0
  162.1300  202.4910  146.9690 C   0  0  0  0  0  3  0  0  0  0  0  0
  161.3580  204.1690  145.4000 C   0  0  0  0  0  0  0  0  0  0  0  0
  161.2640  200.1870  146.8660 N   0  0  0  0  0  0  0  0  0  0  0  0
  161.3540  199.9450  148.1960 O   0  0  0  0  0  1  0  0  0  0  0  0
  161.1390  199.1050  145.9850 N   0  0  0  0  0  1  0  0  0  0  0  0
  161.5730  206.6950  142.8240 N   0  0  0  0  0  0  0  0  0  0  0  0
  161.6270  205.5990  143.4670 N   0  0  0  0  0  0  0  0  0  0  0  0
  162.4810  205.7080  140.7860 C   0  0  0  0  0  3  0  0  0  0  0  0
  161.5540  207.8650  139.2680 C   0  0  0  0  0  0  0  0  0  0  0  0
  161.3320  207.8350  140.6480 C   0  0  0  0  0  3  0  0  0  0  0  0
  162.7010  205.7380  139.4060 C   0  0  0  0  0  3  0  0  0  0  0  0
  161.7960  206.7540  141.4130 C   0  0  0  0  0  0  0  0  0  0  0  0
  161.1020  208.9090  138.5330 F   0  0  0  0  0  0  0  0  0  0  0  0
  162.2370  206.8150  138.6470 C   0  0  0  0  0  3  0  0  0  0  0  0
  161.1940  205.7780  151.9660 C   0  0  0  0  0  2  0  0  0  0  0  0
  161.1930  203.2790  151.9730 C   0  0  0  0  0  1  0  0  0  0  0  0
  161.8510  204.5230  151.4100 C   0  0  0  0  0  2  0  0  0  0  0  0
  161.0480  208.5040  153.2850 C   0  0  2  0  0  3  0  0  0  0  0  0
  161.9320  206.5330  154.3540 O   0  0  0  0  0  1  0  0  0  0  0  0
  160.7530  207.2370  154.0920 C   0  0  1  0  0  3  0  0  0  0  0  0
  158.8440  207.0220  155.6830 O   0  0  0  0  0  0  0  0  0  0  0  0
  160.0830  207.5710  155.3870 C   0  0  0  0  0  0  0  0  0  0  0  0
  160.6340  208.3510  156.2080 O   0  0  0  0  0  1  0  0  0  0  0  0
  159.7740  209.3120  153.0170 C   0  0  0  0  0  2  0  0  0  0  0  0
  159.8380  210.7440  153.5590 C   0  0  2  0  0  0  0  0  0  0  0  0
  160.3630  211.8010  151.3940 O   0  0  0  0  0  1  0  0  0  0  0  0
  159.3910  211.6740  152.3930 C   0  0  2  0  0  3  0  0  0  0  0  0
  158.8740  213.0520  152.8380 C   0  0  1  0  0  3  0  0  0  0  0  0
  159.9330  214.1390  152.7370 C   0  0  0  0  0  1  0  0  0  0  0  0
  157.7670  213.8560  150.8850 O   0  0  0  0  0  0  0  0  0  0  0  0
  157.6530  213.4350  152.0660 C   0  0  0  0  0  0  0  0  0  0  0  0
  156.3940  213.3590  152.6520 O   0  0  0  0  0  1  0  0  0  0  0  0
  161.3190  210.9830  153.9350 C   0  0  0  0  0  2  0  0  0  0  0  0
  161.4780  211.5120  155.2170 O   0  0  0  0  0  0  0  0  0  0  0  0
  162.2500  210.5690  155.8910 C   0  0  0  0  0  2  0  0  0  0  0  0
  163.5970  211.1690  156.2320 C   0  0  0  0  0  1  0  0  0  0  0  0
  158.9610  210.8010  154.6790 O   0  0  0  0  0  0  0  0  0  0  0  0
  157.6230  210.6110  154.2970 C   0  0  0  0  0  2  0  0  0  0  0  0
  156.7070  210.8520  155.4830 C   0  0  0  0  0  2  0  0  0  0  0  0
  156.6680  212.3280  155.8230 C   0  0  0  0  0  1  0  0  0  0  0  0
  1  3  2  0  0  0  0
  2 30  1  0  0  0  0
  2  3  1  0  0  0  0
  3 33  1  0  0  0  0
  4  5  1  6  0  0  0
  4  2  1  0  0  0  0
  7  6  1  1  0  0  0
  7  4  1  0  0  0  0
  8  7  1  0  0  0  0
  9  8  1  0  0  0  0
 10  9  1  0  0  0  0
 11 10  1  6  0  0  0
 11 17  1  0  0  0  0
 12 16  1  0  0  0  0
 13 18  1  0  0  0  0
 13 16  2  0  0  0  0
 14 15  2  0  0  0  0
 14 17  1  0  0  0  0
 15 13  1  0  0  0  0
 17 12  2  0  0  0  0
 18 19  1  0  0  0  0
 20 18  1  0  0  0  0
 21 22  2  0  0  0  0
 22 11  1  0  0  0  0
 23 27  1  0  0  0  0
 24 25  1  0  0  0  0
 25 27  2  0  0  0  0
 26 23  2  0  0  0  0
 27 21  1  0  0  0  0
 28 24  1  0  0  0  0
 29 24  2  0  0  0  0
 29 26  1  0  0  0  0
 32 30  1  0  0  0  0
 32 31  1  0  0  0  0
 33 39  1  6  0  0  0
 33 35  1  0  0  0  0
 35 34  1  1  0  0  0
 35 37  1  0  0  0  0
 37 36  2  0  0  0  0
 37 38  1  0  0  0  0
 40 39  1  6  0  0  0
 40 48  1  0  0  0  0
 40 52  1  0  0  0  0
 42 41  1  6  0  0  0
 42 43  1  0  0  0  0
 42 40  1  0  0  0  0
 43 44  1  6  0  0  0
 45 46  2  0  0  0  0
 46 47  1  0  0  0  0
 46 43  1  0  0  0  0
 48 49  1  0  0  0  0
 49 50  1  0  0  0  0
 50 51  1  0  0  0  0
 53 52  1  0  0  0  0
 53 54  1  0  0  0  0
 54 55  1  0  0  0  0
M  END
>  <MODEL>
4

>  <REMARK>
 VINA RESULT:      -2.6      1.165      3.039
  Name = 
  26 active torsions:
  status: ('A' for Active; 'I' for Inactive)
    1  A    between atoms: C_1  and  C_30
    2  A    between atoms: N_2  and  C_44
    3  A    between atoms: C_6  and  C_8
    4  A    between atoms: C_6  and  O_20
    5  A    between atoms: C_6  and  C_38
    6  A    between atoms: C_6  and  C_46
    7  A    between atoms: C_7  and  C_8
    8  A    between atoms: C_7  and  C_23
    9  A    between atoms: C_7  and  C_43
   10  A    between atoms: N_10  and  C_32
   11  A    between atoms: C_11  and  C_29
   12  A    between atoms: C_11  and  C_38
   13  A    between atoms: C_12  and  O_14
   14  A    between atoms: O_14  and  C_46
   15  A    between atoms: C_16  and  N_17
   16  A    between atoms: C_16  and  C_26
   17  A    between atoms: N_17  and  C_37
   18  A    between atoms: C_19  and  C_45
   19  A    between atoms: C_19  and  C_49
   20  A    between atoms: O_20  and  C_30
   21  A    between atoms: C_26  and  C_45
   22  A    between atoms: N_28  and  C_33
   23  A    between atoms: C_33  and  C_49
   24  A    between atoms: C_33  and  C_52
   25  A    between atoms: C_35  and  C_43
   26  A    between atoms: C_37  and  C_40
                            x       y       z     vdW  Elec       q    Type
                         _______ _______ _______ _____ _____    ______ ____

>  <TORSDO>
F 26

$$$$
=
 OpenBabel11062409003D

 55 56  0  0  1  0  0  0  0  0999 V2000
  162.2550  208.1880  148.6520 O   0  0  0  0  0  0  0  0  0  0  0  0
  161.5230  208.9700  150.7330 N   0  0  0  0  0  0  0  0  0  0  0  0
  161.6750  207.9310  149.7410 C   0  0  0  0  0  0  0  0  0  0  0  0
  162.4110  210.1450  150.6740 C   0  0  2  0  0  3  0  0  0  0  0  0
  163.1850  210.3190  151.9770 C   0  0  0  0  0  1  0  0  0  0  0  0
  160.5630  211.6450  151.0090 O   0  0  0  0  0  1  0  0  0  0  0  0
  161.7070  211.4400  150.2340 C   0  0  2  0  0  3  0  0  0  0  0  0
  161.3350  211.4420  148.7540 C   0  0  0  0  0  2  0  0  0  0  0  0
  162.4880  211.9710  147.9180 C   0  0  0  0  0  2  0  0  0  0  0  0
  162.6200  213.4750  148.0930 C   0  0  0  0  0  2  0  0  0  0  0  0
  161.6830  214.2110  147.1360 C   0  0  1  0  0  3  0  0  0  0  0  0
  162.9920  214.1050  145.0120 C   0  0  0  0  0  3  0  0  0  0  0  0
  162.2240  212.8230  143.0950 C   0  0  0  0  0  0  0  0  0  0  0  0
  160.9000  212.8900  145.1320 C   0  0  0  0  0  3  0  0  0  0  0  0
  161.0850  212.4420  143.8200 C   0  0  0  0  0  3  0  0  0  0  0  0
  163.1750  213.6570  143.7000 C   0  0  0  0  0  3  0  0  0  0  0  0
  161.8560  213.7240  145.7310 C   0  0  0  0  0  0  0  0  0  0  0  0
  162.4100  212.3610  141.7500 N   0  0  0  0  0  0  0  0  0  0  0  0
  161.9200  211.1590  141.3660 O   0  0  0  0  0  1  0  0  0  0  0  0
  163.1000  213.1450  140.8150 N   0  0  0  0  0  1  0  0  0  0  0  0
  159.9430  214.3890  148.7280 N   0  0  0  0  0  0  0  0  0  0  0  0
  160.3000  214.0540  147.5550 N   0  0  0  0  0  0  0  0  0  0  0  0
  157.5780  214.0580  148.2280 C   0  0  0  0  0  3  0  0  0  0  0  0
  156.9370  214.1710  150.9480 C   0  0  0  0  0  0  0  0  0  0  0  0
  158.2650  214.3140  150.5370 C   0  0  0  0  0  3  0  0  0  0  0  0
  156.2500  213.9150  148.6410 C   0  0  0  0  0  3  0  0  0  0  0  0
  158.5910  214.2570  149.1730 C   0  0  0  0  0  0  0  0  0  0  0  0
  156.6260  214.2230  152.2650 F   0  0  0  0  0  0  0  0  0  0  0  0
  155.9290  213.9700  149.9990 C   0  0  0  0  0  3  0  0  0  0  0  0
  160.5110  208.8470  151.7850 C   0  0  0  0  0  2  0  0  0  0  0  0
  159.9160  209.8500  153.9960 C   0  0  0  0  0  1  0  0  0  0  0  0
  161.0440  209.3290  153.1260 C   0  0  0  0  0  2  0  0  0  0  0  0
  161.1830  206.5220  149.9580 C   0  0  2  0  0  3  0  0  0  0  0  0
  159.7540  205.3630  151.5150 O   0  0  0  0  0  1  0  0  0  0  0  0
  160.8490  206.2260  151.4230 C   0  0  1  0  0  3  0  0  0  0  0  0
  163.2890  206.1320  151.9320 O   0  0  0  0  0  0  0  0  0  0  0  0
  162.0180  205.6110  152.1250 C   0  0  0  0  0  0  0  0  0  0  0  0
  161.8580  204.6200  152.8850 O   0  0  0  0  0  1  0  0  0  0  0  0
  162.1600  205.4920  149.3830 C   0  0  0  0  0  2  0  0  0  0  0  0
  161.6420  204.8090  148.1110 C   0  0  2  0  0  0  0  0  0  0  0  0
  161.1730  202.5170  147.3330 O   0  0  0  0  0  1  0  0  0  0  0  0
  161.5580  203.2880  148.4350 C   0  0  2  0  0  3  0  0  0  0  0  0
  160.7100  202.9460  149.6720 C   0  0  1  0  0  3  0  0  0  0  0  0
  159.2680  202.6100  149.3220 C   0  0  0  0  0  1  0  0  0  0  0  0
  161.8170  202.0640  151.5900 O   0  0  0  0  0  1  0  0  0  0  0  0
  161.3340  201.8330  150.4510 C   0  0  0  0  0  0  0  0  0  0  0  0
  161.4110  200.5530  149.9160 O   0  0  0  0  0  0  0  0  0  0  0  0
  162.7020  205.0960  147.0220 C   0  0  0  0  0  2  0  0  0  0  0  0
  162.5760  204.2660  145.9060 O   0  0  0  0  0  0  0  0  0  0  0  0
  163.5590  204.7130  145.0260 C   0  0  0  0  0  2  0  0  0  0  0  0
  162.9600  205.7220  144.0700 C   0  0  0  0  0  1  0  0  0  0  0  0
  160.3730  205.3840  147.8210 O   0  0  0  0  0  0  0  0  0  0  0  0
  160.4530  206.3000  146.7570 C   0  0  0  0  0  2  0  0  0  0  0  0
  159.3920  205.9810  145.7200 C   0  0  0  0  0  2  0  0  0  0  0  0
  159.9260  204.9820  144.7140 C   0  0  0  0  0  1  0  0  0  0  0  0
  1  3  2  0  0  0  0
  2 30  1  0  0  0  0
  3 33  1  0  0  0  0
  3  2  1  0  0  0  0
  4  2  1  0  0  0  0
  4  5  1  1  0  0  0
  7  4  1  0  0  0  0
  7  6  1  1  0  0  0
  8  7  1  0  0  0  0
  9 10  1  0  0  0  0
  9  8  1  0  0  0  0
 11 22  1  0  0  0  0
 11 10  1  1  0  0  0
 12 17  1  0  0  0  0
 13 16  1  0  0  0  0
 13 15  2  0  0  0  0
 14 17  2  0  0  0  0
 15 14  1  0  0  0  0
 16 12  2  0  0  0  0
 17 11  1  0  0  0  0
 18 13  1  0  0  0  0
 19 18  1  0  0  0  0
 20 18  1  0  0  0  0
 21 27  1  0  0  0  0
 22 21  2  0  0  0  0
 23 26  2  0  0  0  0
 23 27  1  0  0  0  0
 24 28  1  0  0  0  0
 25 24  1  0  0  0  0
 26 29  1  0  0  0  0
 27 25  2  0  0  0  0
 29 24  2  0  0  0  0
 30 32  1  0  0  0  0
 32 31  1  0  0  0  0
 33 39  1  1  0  0  0
 33 35  1  0  0  0  0
 35 34  1  6  0  0  0
 35 37  1  0  0  0  0
 36 37  2  0  0  0  0
 37 38  1  0  0  0  0
 40 48  1  6  0  0  0
 40 42  1  0  0  0  0
 40 39  1  0  0  0  0
 42 41  1  6  0  0  0
 42 43  1  0  0  0  0
 43 44  1  6  0  0  0
 43 46  1  0  0  0  0
 46 45  1  0  0  0  0
 47 46  2  0  0  0  0
 49 48  1  0  0  0  0
 50 49  1  0  0  0  0
 51 50  1  0  0  0  0
 52 40  1  0  0  0  0
 53 52  1  0  0  0  0
 54 53  1  0  0  0  0
 55 54  1  0  0  0  0
M  END
>  <MODEL>
5

>  <REMARK>
 VINA RESULT:      -2.5      4.316      9.698
  Name = 
  26 active torsions:
  status: ('A' for Active; 'I' for Inactive)
    1  A    between atoms: C_1  and  C_30
    2  A    between atoms: N_2  and  C_44
    3  A    between atoms: C_6  and  C_8
    4  A    between atoms: C_6  and  O_20
    5  A    between atoms: C_6  and  C_38
    6  A    between atoms: C_6  and  C_46
    7  A    between atoms: C_7  and  C_8
    8  A    between atoms: C_7  and  C_23
    9  A    between atoms: C_7  and  C_43
   10  A    between atoms: N_10  and  C_32
   11  A    between atoms: C_11  and  C_29
   12  A    between atoms: C_11  and  C_38
   13  A    between atoms: C_12  and  O_14
   14  A    between atoms: O_14  and  C_46
   15  A    between atoms: C_16  and  N_17
   16  A    between atoms: C_16  and  C_26
   17  A    between atoms: N_17  and  C_37
   18  A    between atoms: C_19  and  C_45
   19  A    between atoms: C_19  and  C_49
   20  A    between atoms: O_20  and  C_30
   21  A    between atoms: C_26  and  C_45
   22  A    between atoms: N_28  and  C_33
   23  A    between atoms: C_33  and  C_49
   24  A    between atoms: C_33  and  C_52
   25  A    between atoms: C_35  and  C_43
   26  A    between atoms: C_37  and  C_40
                            x       y       z     vdW  Elec       q    Type
                         _______ _______ _______ _____ _____    ______ ____

>  <TORSDO>
F 26

$$$$
=
 OpenBabel11062409003D

 55 56  0  0  1  0  0  0  0  0999 V2000
  163.0250  207.8470  151.1210 O   0  0  0  0  0  0  0  0  0  0  0  0
  161.4010  206.1760  150.8930 N   0  0  0  0  0  0  0  0  0  0  0  0
  161.9880  207.3000  151.5860 C   0  0  0  0  0  0  0  0  0  0  0  0
  161.7220  205.9720  149.4690 C   0  0  2  0  0  3  0  0  0  0  0  0
  163.2100  206.1820  149.2020 C   0  0  0  0  0  1  0  0  0  0  0  0
  159.5520  206.2320  148.4700 O   0  0  0  0  0  1  0  0  0  0  0  0
  160.8350  206.7800  148.5060 C   0  0  2  0  0  3  0  0  0  0  0  0
  161.4060  206.8510  147.0920 C   0  0  0  0  0  2  0  0  0  0  0  0
  160.3730  207.4150  146.1310 C   0  0  0  0  0  2  0  0  0  0  0  0
  160.0980  206.4230  145.0110 C   0  0  0  0  0  2  0  0  0  0  0  0
  161.3710  205.6630  144.6420 C   0  0  1  0  0  3  0  0  0  0  0  0
  160.4170  203.3540  144.6350 C   0  0  0  0  0  3  0  0  0  0  0  0
  161.2420  201.6210  146.1260 C   0  0  0  0  0  0  0  0  0  0  0  0
  162.2090  203.8490  146.1870 C   0  0  0  0  0  3  0  0  0  0  0  0
  162.1620  202.5340  146.6610 C   0  0  0  0  0  3  0  0  0  0  0  0
  160.3710  202.0400  145.1090 C   0  0  0  0  0  3  0  0  0  0  0  0
  161.3350  204.2620  145.1710 C   0  0  0  0  0  0  0  0  0  0  0  0
  161.1960  200.2730  146.6140 N   0  0  0  0  0  0  0  0  0  0  0  0
  160.9990  199.2420  145.7570 O   0  0  0  0  0  1  0  0  0  0  0  0
  161.3540  200.0020  147.9800 N   0  0  0  0  0  1  0  0  0  0  0  0
  161.6750  206.7410  142.5590 N   0  0  0  0  0  0  0  0  0  0  0  0
  161.5570  205.6500  143.2000 N   0  0  0  0  0  0  0  0  0  0  0  0
  162.5470  205.7120  140.5270 C   0  0  0  0  0  3  0  0  0  0  0  0
  161.5740  207.8270  138.9790 C   0  0  0  0  0  0  0  0  0  0  0  0
  161.3820  207.8290  140.3630 C   0  0  0  0  0  3  0  0  0  0  0  0
  162.7380  205.7110  139.1430 C   0  0  0  0  0  3  0  0  0  0  0  0
  161.8680  206.7690  141.1440 C   0  0  0  0  0  0  0  0  0  0  0  0
  161.1010  208.8500  138.2290 F   0  0  0  0  0  0  0  0  0  0  0  0
  162.2510  206.7670  138.3680 C   0  0  0  0  0  3  0  0  0  0  0  0
  160.4940  205.2650  151.5960 C   0  0  0  0  0  2  0  0  0  0  0  0
  160.6200  203.1910  150.2070 C   0  0  0  0  0  1  0  0  0  0  0  0
  160.9920  203.8280  151.5310 C   0  0  0  0  0  2  0  0  0  0  0  0
  161.3970  207.8750  152.8480 C   0  0  2  0  0  3  0  0  0  0  0  0
  161.9270  205.8210  153.9950 O   0  0  0  0  0  1  0  0  0  0  0  0
  160.9410  206.7980  153.8370 C   0  0  1  0  0  3  0  0  0  0  0  0
  161.6570  207.7910  156.0110 O   0  0  0  0  0  1  0  0  0  0  0  0
  160.6260  207.3970  155.1710 C   0  0  0  0  0  0  0  0  0  0  0  0
  159.4300  207.5400  155.5410 O   0  0  0  0  0  0  0  0  0  0  0  0
  160.2750  208.8710  152.5400 C   0  0  0  0  0  2  0  0  0  0  0  0
  160.7580  210.3250  152.4660 C   0  0  2  0  0  0  0  0  0  0  0  0
  163.0160  210.7610  151.5770 O   0  0  0  0  0  1  0  0  0  0  0  0
  161.7050  210.4090  151.2340 C   0  0  2  0  0  3  0  0  0  0  0  0
  161.1810  211.2870  150.0850 C   0  0  1  0  0  3  0  0  0  0  0  0
  161.0610  212.7530  150.4720 C   0  0  0  0  0  1  0  0  0  0  0  0
  162.3100  209.9810  148.4400 O   0  0  0  0  0  1  0  0  0  0  0  0
  162.0350  211.1330  148.8680 C   0  0  0  0  0  0  0  0  0  0  0  0
  162.5520  212.2500  148.2220 O   0  0  0  0  0  0  0  0  0  0  0  0
  161.5240  210.5780  153.7860 C   0  0  0  0  0  2  0  0  0  0  0  0
  160.7010  210.5270  154.9130 O   0  0  0  0  0  0  0  0  0  0  0  0
  161.3620  211.3040  155.8630 C   0  0  0  0  0  2  0  0  0  0  0  0
  160.4460  212.4130  156.3320 C   0  0  0  0  0  1  0  0  0  0  0  0
  159.5980  211.1380  152.3290 O   0  0  0  0  0  0  0  0  0  0  0  0
  158.6160  210.8010  153.2770 C   0  0  0  0  0  2  0  0  0  0  0  0
  157.8400  212.0410  153.6800 C   0  0  0  0  0  2  0  0  0  0  0  0
  158.6230  213.2890  153.3250 C   0  0  0  0  0  1  0  0  0  0  0  0
  1  3  2  0  0  0  0
  2  3  1  0  0  0  0
  2 30  1  0  0  0  0
  3 33  1  0  0  0  0
  4  5  1  1  0  0  0
  4  2  1  0  0  0  0
  7  6  1  6  0  0  0
  7  4  1  0  0  0  0
  8  7  1  0  0  0  0
  9  8  1  0  0  0  0
 10  9  1  0  0  0  0
 11 10  1  6  0  0  0
 11 17  1  0  0  0  0
 12 16  2  0  0  0  0
 12 17  1  0  0  0  0
 13 18  1  0  0  0  0
 13 15  2  0  0  0  0
 14 15  1  0  0  0  0
 16 13  1  0  0  0  0
 17 14  2  0  0  0  0
 18 20  1  0  0  0  0
 19 18  1  0  0  0  0
 21 22  2  0  0  0  0
 22 11  1  0  0  0  0
 23 27  1  0  0  0  0
 24 25  1  0  0  0  0
 25 27  2  0  0  0  0
 26 23  2  0  0  0  0
 27 21  1  0  0  0  0
 28 24  1  0  0  0  0
 29 24  2  0  0  0  0
 29 26  1  0  0  0  0
 31 32  1  0  0  0  0
 32 30  1  0  0  0  0
 33 39  1  6  0  0  0
 33 35  1  0  0  0  0
 35 34  1  1  0  0  0
 35 37  1  0  0  0  0
 37 38  2  0  0  0  0
 37 36  1  0  0  0  0
 40 39  1  1  0  0  0
 40 48  1  0  0  0  0
 42 41  1  1  0  0  0
 42 40  1  0  0  0  0
 43 44  1  1  0  0  0
 43 42  1  0  0  0  0
 45 46  1  0  0  0  0
 46 43  1  0  0  0  0
 47 46  2  0  0  0  0
 48 49  1  0  0  0  0
 49 50  1  0  0  0  0
 50 51  1  0  0  0  0
 52 40  1  0  0  0  0
 52 53  1  0  0  0  0
 53 54  1  0  0  0  0
 55 54  1  0  0  0  0
M  END
>  <MODEL>
6

>  <REMARK>
 VINA RESULT:      -2.4      1.349      2.962
  Name = 
  26 active torsions:
  status: ('A' for Active; 'I' for Inactive)
    1  A    between atoms: C_1  and  C_30
    2  A    between atoms: N_2  and  C_44
    3  A    between atoms: C_6  and  C_8
    4  A    between atoms: C_6  and  O_20
    5  A    between atoms: C_6  and  C_38
    6  A    between atoms: C_6  and  C_46
    7  A    between atoms: C_7  and  C_8
    8  A    between atoms: C_7  and  C_23
    9  A    between atoms: C_7  and  C_43
   10  A    between atoms: N_10  and  C_32
   11  A    between atoms: C_11  and  C_29
   12  A    between atoms: C_11  and  C_38
   13  A    between atoms: C_12  and  O_14
   14  A    between atoms: O_14  and  C_46
   15  A    between atoms: C_16  and  N_17
   16  A    between atoms: C_16  and  C_26
   17  A    between atoms: N_17  and  C_37
   18  A    between atoms: C_19  and  C_45
   19  A    between atoms: C_19  and  C_49
   20  A    between atoms: O_20  and  C_30
   21  A    between atoms: C_26  and  C_45
   22  A    between atoms: N_28  and  C_33
   23  A    between atoms: C_33  and  C_49
   24  A    between atoms: C_33  and  C_52
   25  A    between atoms: C_35  and  C_43
   26  A    between atoms: C_37  and  C_40
                            x       y       z     vdW  Elec       q    Type
                         _______ _______ _______ _____ _____    ______ ____

>  <TORSDO>
F 26

$$$$
=
 OpenBabel11062409003D

 55 56  0  0  1  0  0  0  0  0999 V2000
  161.5510  208.3620  148.9360 O   0  0  0  0  0  0  0  0  0  0  0  0
  161.6140  208.8180  151.2310 N   0  0  0  0  0  0  0  0  0  0  0  0
  161.4560  207.9180  150.1130 C   0  0  0  0  0  0  0  0  0  0  0  0
  162.3150  210.0970  151.0210 C   0  0  2  0  0  3  0  0  0  0  0  0
  163.3930  210.3160  152.0790 C   0  0  0  0  0  1  0  0  0  0  0  0
  160.2450  211.1270  151.6780 O   0  0  0  0  0  1  0  0  0  0  0  0
  161.3780  211.3090  150.8830 C   0  0  2  0  0  3  0  0  0  0  0  0
  160.9590  211.5740  149.4390 C   0  0  0  0  0  2  0  0  0  0  0  0
  162.1730  211.5810  148.5270 C   0  0  0  0  0  2  0  0  0  0  0  0
  162.5810  213.0090  148.2010 C   0  0  0  0  0  2  0  0  0  0  0  0
  161.4590  213.7300  147.4530 C   0  0  1  0  0  3  0  0  0  0  0  0
  162.4380  213.3800  145.1820 C   0  0  0  0  0  3  0  0  0  0  0  0
  161.1830  212.3140  143.3940 C   0  0  0  0  0  0  0  0  0  0  0  0
  160.1700  212.6300  145.5800 C   0  0  0  0  0  3  0  0  0  0  0  0
  160.0900  212.1710  144.2620 C   0  0  0  0  0  3  0  0  0  0  0  0
  162.3570  212.9220  143.8640 C   0  0  0  0  0  3  0  0  0  0  0  0
  161.3470  213.2360  146.0440 C   0  0  0  0  0  0  0  0  0  0  0  0
  161.0970  211.8430  142.0420 N   0  0  0  0  0  0  0  0  0  0  0  0
  159.8940  211.5340  141.5010 O   0  0  0  0  0  1  0  0  0  0  0  0
  162.2530  211.6950  141.2630 N   0  0  0  0  0  1  0  0  0  0  0  0
  159.7780  214.4490  148.9530 N   0  0  0  0  0  0  0  0  0  0  0  0
  160.1930  213.5590  148.1460 N   0  0  0  0  0  0  0  0  0  0  0  0
  157.3670  214.0860  148.9130 C   0  0  0  0  0  3  0  0  0  0  0  0
  157.2410  214.2780  151.6990 C   0  0  0  0  0  0  0  0  0  0  0  0
  158.4680  214.4170  151.0440 C   0  0  0  0  0  3  0  0  0  0  0  0
  156.1410  213.9460  149.5690 C   0  0  0  0  0  3  0  0  0  0  0  0
  158.5350  214.3210  149.6460 C   0  0  0  0  0  0  0  0  0  0  0  0
  157.1800  214.3680  153.0500 F   0  0  0  0  0  0  0  0  0  0  0  0
  156.0770  214.0410  150.9610 C   0  0  0  0  0  3  0  0  0  0  0  0
  161.0950  208.4550  152.5530 C   0  0  0  0  0  2  0  0  0  0  0  0
  160.7780  209.2210  154.9110 C   0  0  0  0  0  1  0  0  0  0  0  0
  161.5210  209.4620  153.6110 C   0  0  0  0  0  2  0  0  0  0  0  0
  161.1980  206.4430  150.2870 C   0  0  2  0  0  3  0  0  0  0  0  0
  160.1560  205.2250  152.0880 O   0  0  0  0  0  1  0  0  0  0  0  0
  161.2740  205.9920  151.7480 C   0  0  1  0  0  3  0  0  0  0  0  0
  163.6150  205.7930  152.5860 O   0  0  0  0  0  1  0  0  0  0  0  0
  162.5120  205.1910  151.9970 C   0  0  0  0  0  0  0  0  0  0  0  0
  162.5630  203.9750  151.6710 O   0  0  0  0  0  0  0  0  0  0  0  0
  162.1120  205.6030  149.3890 C   0  0  0  0  0  2  0  0  0  0  0  0
  161.3510  204.8070  148.3220 C   0  0  2  0  0  0  0  0  0  0  0  0
  159.7470  206.5850  147.7330 O   0  0  0  0  0  1  0  0  0  0  0  0
  160.8450  205.8460  147.2790 C   0  0  2  0  0  3  0  0  0  0  0  0
  160.5790  205.2660  145.8790 C   0  0  1  0  0  3  0  0  0  0  0  0
  159.2920  205.7890  145.2600 C   0  0  0  0  0  1  0  0  0  0  0  0
  161.5870  205.4310  143.7250 O   0  0  0  0  0  0  0  0  0  0  0  0
  161.7390  205.5180  144.9710 C   0  0  0  0  0  0  0  0  0  0  0  0
  162.9920  205.8190  145.4930 O   0  0  0  0  0  1  0  0  0  0  0  0
  160.1730  204.1340  149.0650 C   0  0  0  0  0  2  0  0  0  0  0  0
  160.5710  203.0530  149.8540 O   0  0  0  0  0  0  0  0  0  0  0  0
  159.3780  202.4550  150.2550 C   0  0  0  0  0  2  0  0  0  0  0  0
  159.1040  201.2450  149.3890 C   0  0  0  0  0  1  0  0  0  0  0  0
  162.2700  203.8710  147.7710 O   0  0  0  0  0  0  0  0  0  0  0  0
  161.7560  202.5640  147.8020 C   0  0  0  0  0  2  0  0  0  0  0  0
  161.7570  201.9750  146.4030 C   0  0  0  0  0  2  0  0  0  0  0  0
  160.3800  202.0960  145.7830 C   0  0  0  0  0  1  0  0  0  0  0  0
  1  3  2  0  0  0  0
  2 30  1  0  0  0  0
  3 33  1  0  0  0  0
  3  2  1  0  0  0  0
  4  2  1  0  0  0  0
  4  5  1  1  0  0  0
  7  4  1  0  0  0  0
  7  6  1  1  0  0  0
  8  7  1  0  0  0  0
  9  8  1  0  0  0  0
 10  9  1  0  0  0  0
 11 22  1  0  0  0  0
 11 10  1  1  0  0  0
 12 17  1  0  0  0  0
 13 16  1  0  0  0  0
 13 15  2  0  0  0  0
 14 17  2  0  0  0  0
 15 14  1  0  0  0  0
 16 12  2  0  0  0  0
 17 11  1  0  0  0  0
 18 13  1  0  0  0  0
 19 18  1  0  0  0  0
 20 18  1  0  0  0  0
 21 27  1  0  0  0  0
 22 21  2  0  0  0  0
 23 26  2  0  0  0  0
 23 27  1  0  0  0  0
 24 28  1  0  0  0  0
 25 24  1  0  0  0  0
 26 29  1  0  0  0  0
 27 25  2  0  0  0  0
 29 24  2  0  0  0  0
 30 32  1  0  0  0  0
 32 31  1  0  0  0  0
 33 39  1  6  0  0  0
 33 35  1  0  0  0  0
 35 37  1  0  0  0  0
 35 34  1  6  0  0  0
 37 36  1  0  0  0  0
 38 37  2  0  0  0  0
 40 48  1  1  0  0  0
 40 39  1  0  0  0  0
 42 41  1  1  0  0  0
 42 40  1  0  0  0  0
 43 44  1  6  0  0  0
 43 42  1  0  0  0  0
 45 46  2  0  0  0  0
 46 47  1  0  0  0  0
 46 43  1  0  0  0  0
 48 49  1  0  0  0  0
 49 50  1  0  0  0  0
 51 50  1  0  0  0  0
 52 53  1  0  0  0  0
 52 40  1  0  0  0  0
 54 53  1  0  0  0  0
 55 54  1  0  0  0  0
M  END
>  <MODEL>
7

>  <REMARK>
 VINA RESULT:      -1.5      4.314      9.784
  Name = 
  26 active torsions:
  status: ('A' for Active; 'I' for Inactive)
    1  A    between atoms: C_1  and  C_30
    2  A    between atoms: N_2  and  C_44
    3  A    between atoms: C_6  and  C_8
    4  A    between atoms: C_6  and  O_20
    5  A    between atoms: C_6  and  C_38
    6  A    between atoms: C_6  and  C_46
    7  A    between atoms: C_7  and  C_8
    8  A    between atoms: C_7  and  C_23
    9  A    between atoms: C_7  and  C_43
   10  A    between atoms: N_10  and  C_32
   11  A    between atoms: C_11  and  C_29
   12  A    between atoms: C_11  and  C_38
   13  A    between atoms: C_12  and  O_14
   14  A    between atoms: O_14  and  C_46
   15  A    between atoms: C_16  and  N_17
   16  A    between atoms: C_16  and  C_26
   17  A    between atoms: N_17  and  C_37
   18  A    between atoms: C_19  and  C_45
   19  A    between atoms: C_19  and  C_49
   20  A    between atoms: O_20  and  C_30
   21  A    between atoms: C_26  and  C_45
   22  A    between atoms: N_28  and  C_33
   23  A    between atoms: C_33  and  C_49
   24  A    between atoms: C_33  and  C_52
   25  A    between atoms: C_35  and  C_43
   26  A    between atoms: C_37  and  C_40
                            x       y       z     vdW  Elec       q    Type
                         _______ _______ _______ _____ _____    ______ ____

>  <TORSDO>
F 26

$$$$
=
 OpenBabel11062409003D

 55 56  0  0  1  0  0  0  0  0999 V2000
  162.2560  207.8640  146.9690 O   0  0  0  0  0  0  0  0  0  0  0  0
  161.7030  208.0140  149.2380 N   0  0  0  0  0  0  0  0  0  0  0  0
  161.8880  207.2660  148.0160 C   0  0  0  0  0  0  0  0  0  0  0  0
  162.3600  209.3270  149.3760 C   0  0  2  0  0  3  0  0  0  0  0  0
  162.6320  209.6580  150.8400 C   0  0  0  0  0  1  0  0  0  0  0  0
  160.9160  209.9580  147.5620 O   0  0  0  0  0  1  0  0  0  0  0  0
  161.6370  210.4690  148.6420 C   0  0  2  0  0  3  0  0  0  0  0  0
  162.5880  211.5600  148.1580 C   0  0  0  0  0  2  0  0  0  0  0  0
  161.9030  212.9160  148.1970 C   0  0  0  0  0  2  0  0  0  0  0  0
  162.5140  213.8450  147.1580 C   0  0  0  0  0  2  0  0  0  0  0  0
  161.4270  214.4330  146.2600 C   0  0  1  0  0  3  0  0  0  0  0  0
  162.5790  213.6490  144.1870 C   0  0  0  0  0  3  0  0  0  0  0  0
  161.3910  212.4610  142.4300 C   0  0  0  0  0  0  0  0  0  0  0  0
  160.2100  213.2020  144.4200 C   0  0  0  0  0  3  0  0  0  0  0  0
  160.2080  212.5620  143.1770 C   0  0  0  0  0  3  0  0  0  0  0  0
  162.5760  213.0090  142.9440 C   0  0  0  0  0  3  0  0  0  0  0  0
  161.3980  213.7480  144.9290 C   0  0  0  0  0  0  0  0  0  0  0  0
  161.3850  211.8030  141.1560 N   0  0  0  0  0  0  0  0  0  0  0  0
  160.6910  212.3290  140.1180 O   0  0  0  0  0  1  0  0  0  0  0  0
  162.0960  210.6110  140.9640 N   0  0  0  0  0  1  0  0  0  0  0  0
  160.0370  214.3070  148.1700 N   0  0  0  0  0  0  0  0  0  0  0  0
  160.1260  214.3350  146.9020 N   0  0  0  0  0  0  0  0  0  0  0  0
  157.6260  213.9500  148.0880 C   0  0  0  0  0  3  0  0  0  0  0  0
  157.4320  214.2910  150.8570 C   0  0  0  0  0  0  0  0  0  0  0  0
  158.6750  214.3910  150.2260 C   0  0  0  0  0  3  0  0  0  0  0  0
  156.3830  213.8490  148.7200 C   0  0  0  0  0  3  0  0  0  0  0  0
  158.7760  214.2210  148.8370 C   0  0  0  0  0  0  0  0  0  0  0  0
  157.3390  214.4530  152.1980 F   0  0  0  0  0  0  0  0  0  0  0  0
  156.2860  214.0180  150.1040 C   0  0  0  0  0  3  0  0  0  0  0  0
  160.8850  207.4680  150.3240 C   0  0  0  0  0  2  0  0  0  0  0  0
  160.3950  207.7740  152.7560 C   0  0  0  0  0  1  0  0  0  0  0  0
  160.7140  208.4760  151.4510 C   0  0  0  0  0  2  0  0  0  0  0  0
  161.6790  205.7750  147.9370 C   0  0  2  0  0  3  0  0  0  0  0  0
  160.0710  206.2130  146.1950 O   0  0  0  0  0  1  0  0  0  0  0  0
  161.0720  205.3280  146.6030 C   0  0  1  0  0  3  0  0  0  0  0  0
  161.7850  205.5200  144.2210 O   0  0  0  0  0  0  0  0  0  0  0  0
  162.1200  205.2480  145.5390 C   0  0  0  0  0  0  0  0  0  0  0  0
  163.3030  204.9280  145.8310 O   0  0  0  0  0  1  0  0  0  0  0  0
  160.8670  205.2580  149.1280 C   0  0  0  0  0  2  0  0  0  0  0  0
  161.0220  203.7510  149.3600 C   0  0  2  0  0  0  0  0  0  0  0  0
  161.9050  202.2550  151.1110 O   0  0  0  0  0  1  0  0  0  0  0  0
  161.7670  203.5910  150.7180 C   0  0  2  0  0  3  0  0  0  0  0  0
  161.1980  204.4470  151.8620 C   0  0  1  0  0  3  0  0  0  0  0  0
  160.6150  203.6100  152.9900 C   0  0  0  0  0  1  0  0  0  0  0  0
  163.1750  205.7610  151.6390 O   0  0  0  0  0  0  0  0  0  0  0  0
  162.2350  205.3870  152.3880 C   0  0  0  0  0  0  0  0  0  0  0  0
  162.1860  205.8280  153.7050 O   0  0  0  0  0  1  0  0  0  0  0  0
  161.8800  203.2330  148.1820 C   0  0  0  0  0  2  0  0  0  0  0  0
  161.6610  201.8830  147.8990 O   0  0  0  0  0  0  0  0  0  0  0  0
  161.1130  201.8790  146.6180 C   0  0  0  0  0  2  0  0  0  0  0  0
  161.0060  200.4540  146.1190 C   0  0  0  0  0  1  0  0  0  0  0  0
  159.7100  203.1990  149.3800 O   0  0  0  0  0  0  0  0  0  0  0  0
  159.7420  201.7940  149.3860 C   0  0  0  0  0  2  0  0  0  0  0  0
  158.3880  201.2480  149.8020 C   0  0  0  0  0  2  0  0  0  0  0  0
  157.6560  200.6900  148.5980 C   0  0  0  0  0  1  0  0  0  0  0  0
  1  3  2  0  0  0  0
  2  4  1  0  0  0  0
  2 30  1  0  0  0  0
  3  2  1  0  0  0  0
  4  5  1  1  0  0  0
  7  6  1  6  0  0  0
  7  4  1  0  0  0  0
  8  9  1  0  0  0  0
  8  7  1  0  0  0  0
 10  9  1  0  0  0  0
 11 22  1  0  0  0  0
 11 10  1  1  0  0  0
 12 17  1  0  0  0  0
 13 16  1  0  0  0  0
 13 15  2  0  0  0  0
 14 17  2  0  0  0  0
 15 14  1  0  0  0  0
 16 12  2  0  0  0  0
 17 11  1  0  0  0  0
 18 13  1  0  0  0  0
 19 18  1  0  0  0  0
 20 18  1  0  0  0  0
 21 27  1  0  0  0  0
 22 21  2  0  0  0  0
 23 26  2  0  0  0  0
 23 27  1  0  0  0  0
 24 28  1  0  0  0  0
 25 24  1  0  0  0  0
 26 29  1  0  0  0  0
 27 25  2  0  0  0  0
 29 24  2  0  0  0  0
 30 32  1  0  0  0  0
 32 31  1  0  0  0  0
 33  3  1  0  0  0  0
 33 39  1  1  0  0  0
 35 34  1  6  0  0  0
 35 33  1  0  0  0  0
 36 37  2  0  0  0  0
 37 38  1  0  0  0  0
 37 35  1  0  0  0  0
 39 40  1  0  0  0  0
 40 48  1  6  0  0  0
 40 52  1  0  0  0  0
 40 42  1  0  0  0  0
 42 41  1  1  0  0  0
 42 43  1  0  0  0  0
 43 46  1  0  0  0  0
 43 44  1  1  0  0  0
 45 46  2  0  0  0  0
 46 47  1  0  0  0  0
 49 48  1  0  0  0  0
 50 49  1  0  0  0  0
 51 50  1  0  0  0  0
 52 53  1  0  0  0  0
 53 54  1  0  0  0  0
 55 54  1  0  0  0  0
M  END
>  <MODEL>
8

>  <REMARK>
 VINA RESULT:      -1.2      4.487      9.826
  Name = 
  26 active torsions:
  status: ('A' for Active; 'I' for Inactive)
    1  A    between atoms: C_1  and  C_30
    2  A    between atoms: N_2  and  C_44
    3  A    between atoms: C_6  and  C_8
    4  A    between atoms: C_6  and  O_20
    5  A    between atoms: C_6  and  C_38
    6  A    between atoms: C_6  and  C_46
    7  A    between atoms: C_7  and  C_8
    8  A    between atoms: C_7  and  C_23
    9  A    between atoms: C_7  and  C_43
   10  A    between atoms: N_10  and  C_32
   11  A    between atoms: C_11  and  C_29
   12  A    between atoms: C_11  and  C_38
   13  A    between atoms: C_12  and  O_14
   14  A    between atoms: O_14  and  C_46
   15  A    between atoms: C_16  and  N_17
   16  A    between atoms: C_16  and  C_26
   17  A    between atoms: N_17  and  C_37
   18  A    between atoms: C_19  and  C_45
   19  A    between atoms: C_19  and  C_49
   20  A    between atoms: O_20  and  C_30
   21  A    between atoms: C_26  and  C_45
   22  A    between atoms: N_28  and  C_33
   23  A    between atoms: C_33  and  C_49
   24  A    between atoms: C_33  and  C_52
   25  A    between atoms: C_35  and  C_43
   26  A    between atoms: C_37  and  C_40
                            x       y       z     vdW  Elec       q    Type
                         _______ _______ _______ _____ _____    ______ ____

>  <TORSDO>
F 26

$$$$
=
 OpenBabel11062409003D

 55 56  0  0  1  0  0  0  0  0999 V2000
  162.2930  211.2300  152.4040 O   0  0  0  0  0  0  0  0  0  0  0  0
  161.3540  209.2690  151.5380 N   0  0  0  0  0  0  0  0  0  0  0  0
  161.3170  210.4310  152.3940 C   0  0  0  0  0  0  0  0  0  0  0  0
  162.2760  209.2620  150.3870 C   0  0  2  0  0  3  0  0  0  0  0  0
  162.0570  210.4810  149.4960 C   0  0  0  0  0  1  0  0  0  0  0  0
  163.5740  207.6150  149.2130 O   0  0  0  0  0  1  0  0  0  0  0  0
  162.2720  207.9460  149.5900 C   0  0  2  0  0  3  0  0  0  0  0  0
  161.3760  208.0030  148.3560 C   0  0  0  0  0  2  0  0  0  0  0  0
  160.6280  206.6920  148.1820 C   0  0  0  0  0  2  0  0  0  0  0  0
  161.2260  205.8920  147.0340 C   0  0  0  0  0  2  0  0  0  0  0  0
  161.9900  204.6800  147.5660 C   0  0  1  0  0  3  0  0  0  0  0  0
  162.3300  204.8040  150.0370 C   0  0  0  0  0  3  0  0  0  0  0  0
  160.7970  203.7440  151.5970 C   0  0  0  0  0  0  0  0  0  0  0  0
  160.4130  203.5810  149.2040 C   0  0  0  0  0  3  0  0  0  0  0  0
  160.0320  203.2840  150.5160 C   0  0  0  0  0  3  0  0  0  0  0  0
  161.9480  204.5060  151.3480 C   0  0  0  0  0  3  0  0  0  0  0  0
  161.5650  204.3440  148.9610 C   0  0  0  0  0  0  0  0  0  0  0  0
  160.4030  203.4380  152.9420 N   0  0  0  0  0  0  0  0  0  0  0  0
  160.6530  204.3150  153.9440 O   0  0  0  0  0  1  0  0  0  0  0  0
  159.7560  202.2310  153.2390 N   0  0  0  0  0  1  0  0  0  0  0  0
  160.9440  202.6380  146.9890 N   0  0  0  0  0  0  0  0  0  0  0  0
  161.7970  203.5330  146.6930 N   0  0  0  0  0  0  0  0  0  0  0  0
  159.9290  201.6430  145.0070 C   0  0  0  0  0  3  0  0  0  0  0  0
  161.0610  199.1590  145.6130 C   0  0  0  0  0  0  0  0  0  0  0  0
  161.2860  200.2530  146.4540 C   0  0  0  0  0  3  0  0  0  0  0  0
  159.7060  200.5490  144.1670 C   0  0  0  0  0  3  0  0  0  0  0  0
  160.7200  201.5020  146.1520 C   0  0  0  0  0  0  0  0  0  0  0  0
  161.6110  197.9570  145.9060 F   0  0  0  0  0  0  0  0  0  0  0  0
  160.2710  199.3080  144.4690 C   0  0  0  0  0  3  0  0  0  0  0  0
  160.4800  208.1240  151.8050 C   0  0  0  0  0  2  0  0  0  0  0  0
  162.1490  207.0210  153.3030 C   0  0  0  0  0  1  0  0  0  0  0  0
  160.7310  207.5450  153.1900 C   0  0  0  0  0  2  0  0  0  0  0  0
  160.1390  210.7520  153.2780 C   0  0  2  0  0  3  0  0  0  0  0  0
  157.7370  210.9460  153.2050 O   0  0  0  0  0  1  0  0  0  0  0  0
  158.9070  211.2070  152.4880 C   0  0  1  0  0  3  0  0  0  0  0  0
  160.0850  213.1800  151.5180 O   0  0  0  0  0  0  0  0  0  0  0  0
  158.9790  212.6690  152.1810 C   0  0  0  0  0  0  0  0  0  0  0  0
  158.0450  213.4400  152.5250 O   0  0  0  0  0  1  0  0  0  0  0  0
  160.5130  211.7600  154.3690 C   0  0  0  0  0  2  0  0  0  0  0  0
  159.6320  211.6570  155.6190 C   0  0  2  0  0  0  0  0  0  0  0  0
  159.2580  214.0890  155.4530 O   0  0  0  0  0  1  0  0  0  0  0  0
  158.6260  212.8430  155.5440 C   0  0  2  0  0  3  0  0  0  0  0  0
  157.5590  212.8460  156.6520 C   0  0  1  0  0  3  0  0  0  0  0  0
  157.2870  214.2360  157.2040 C   0  0  0  0  0  1  0  0  0  0  0  0
  155.8740  212.4630  155.0090 O   0  0  0  0  0  0  0  0  0  0  0  0
  156.2920  212.2150  156.1700 C   0  0  0  0  0  0  0  0  0  0  0  0
  155.5570  211.3800  157.0040 O   0  0  0  0  0  1  0  0  0  0  0  0
  160.5930  211.8070  156.8210 C   0  0  0  0  0  2  0  0  0  0  0  0
  161.6860  210.9410  156.7580 O   0  0  0  0  0  0  0  0  0  0  0  0
  162.7960  211.7830  156.7130 C   0  0  0  0  0  2  0  0  0  0  0  0
  164.0390  210.9990  157.0730 C   0  0  0  0  0  1  0  0  0  0  0  0
  158.9930  210.3860  155.5710 O   0  0  0  0  0  0  0  0  0  0  0  0
  159.3300  209.5960  156.6840 C   0  0  0  0  0  2  0  0  0  0  0  0
  160.1990  208.4320  156.2470 C   0  0  0  0  0  2  0  0  0  0  0  0
  159.9110  207.2140  157.1020 C   0  0  0  0  0  1  0  0  0  0  0  0
  2 30  1  0  0  0  0
  2  3  1  0  0  0  0
  3  1  2  0  0  0  0
  3 33  1  0  0  0  0
  4  5  1  6  0  0  0
  4  2  1  0  0  0  0
  7  6  1  6  0  0  0
  7  4  1  0  0  0  0
  8  7  1  0  0  0  0
  9  8  1  0  0  0  0
 10  9  1  0  0  0  0
 11 10  1  6  0  0  0
 11 17  1  0  0  0  0
 12 16  1  0  0  0  0
 13 18  1  0  0  0  0
 14 15  2  0  0  0  0
 15 13  1  0  0  0  0
 16 13  2  0  0  0  0
 17 14  1  0  0  0  0
 17 12  2  0  0  0  0
 18 20  1  0  0  0  0
 18 19  1  0  0  0  0
 22 21  2  0  0  0  0
 22 11  1  0  0  0  0
 23 27  1  0  0  0  0
 24 28  1  0  0  0  0
 24 25  1  0  0  0  0
 26 29  1  0  0  0  0
 26 23  2  0  0  0  0
 27 25  2  0  0  0  0
 27 21  1  0  0  0  0
 29 24  2  0  0  0  0
 30 32  1  0  0  0  0
 32 31  1  0  0  0  0
 33 39  1  1  0  0  0
 35 34  1  1  0  0  0
 35 33  1  0  0  0  0
 36 37  2  0  0  0  0
 37 35  1  0  0  0  0
 37 38  1  0  0  0  0
 40 39  1  6  0  0  0
 40 48  1  0  0  0  0
 42 41  1  1  0  0  0
 42 40  1  0  0  0  0
 42 43  1  0  0  0  0
 43 44  1  6  0  0  0
 45 46  2  0  0  0  0
 46 43  1  0  0  0  0
 46 47  1  0  0  0  0
 49 48  1  0  0  0  0
 50 49  1  0  0  0  0
 50 51  1  0  0  0  0
 52 40  1  0  0  0  0
 52 53  1  0  0  0  0
 54 53  1  0  0  0  0
 54 55  1  0  0  0  0
M  END
>  <MODEL>
9

>  <REMARK>
 VINA RESULT:      -1.1      3.685      5.806
  Name = 
  26 active torsions:
  status: ('A' for Active; 'I' for Inactive)
    1  A    between atoms: C_1  and  C_30
    2  A    between atoms: N_2  and  C_44
    3  A    between atoms: C_6  and  C_8
    4  A    between atoms: C_6  and  O_20
    5  A    between atoms: C_6  and  C_38
    6  A    between atoms: C_6  and  C_46
    7  A    between atoms: C_7  and  C_8
    8  A    between atoms: C_7  and  C_23
    9  A    between atoms: C_7  and  C_43
   10  A    between atoms: N_10  and  C_32
   11  A    between atoms: C_11  and  C_29
   12  A    between atoms: C_11  and  C_38
   13  A    between atoms: C_12  and  O_14
   14  A    between atoms: O_14  and  C_46
   15  A    between atoms: C_16  and  N_17
   16  A    between atoms: C_16  and  C_26
   17  A    between atoms: N_17  and  C_37
   18  A    between atoms: C_19  and  C_45
   19  A    between atoms: C_19  and  C_49
   20  A    between atoms: O_20  and  C_30
   21  A    between atoms: C_26  and  C_45
   22  A    between atoms: N_28  and  C_33
   23  A    between atoms: C_33  and  C_49
   24  A    between atoms: C_33  and  C_52
   25  A    between atoms: C_35  and  C_43
   26  A    between atoms: C_37  and  C_40
                            x       y       z     vdW  Elec       q    Type
                         _______ _______ _______ _____ _____    ______ ____

>  <TORSDO>
F 26

$$$$
