=
 OpenBabel11052422003D

 30 32  0  0  1  0  0  0  0  0999 V2000
  158.3850  213.4200  151.0480 C   0  0  0  0  0  0  0  0  0  0  0  0
  160.2950  213.3300  149.4870 C   0  0  0  0  0  2  0  0  0  0  0  0
  161.6700  208.7950  151.0380 C   0  0  0  0  0  2  0  0  0  0  0  0
  160.7430  207.5730  152.9660 C   0  0  0  0  0  2  0  0  0  0  0  0
  157.7930  213.0280  152.2900 N   0  0  0  0  0  2  0  0  0  0  0  0
  157.7140  211.7210  154.4770 C   0  0  2  0  0  3  0  0  0  0  0  0
  160.0760  212.7630  153.6500 S   0  0  0  0  0  0  0  0  0  0  0  0
  161.2900  209.1550  154.8460 C   0  0  1  0  0  0  0  0  0  0  0  0
  162.3580  209.9990  155.0580 C   0  0  0  0  0  0  0  0  0  0  0  0
  158.4920  212.4130  153.3830 C   0  0  0  0  0  0  0  0  0  0  0  0
  158.2830  210.3410  154.8050 C   0  0  0  0  0  2  0  0  0  0  0  0
  161.5480  212.4950  149.3140 C   0  0  0  0  0  2  0  0  0  0  0  0
  160.2480  209.1940  155.9700 C   0  0  1  0  0  3  0  0  0  0  0  0
  157.7260  214.1420  150.2510 O   0  0  0  0  0  0  0  0  0  0  0  0
  162.3400  209.9860  150.7500 O   0  0  0  0  0  0  0  0  0  0  0  0
  161.1610  211.0690  148.9700 C   0  0  0  0  0  2  0  0  0  0  0  0
  159.6570  212.9620  150.7010 O   0  0  0  0  0  0  0  0  0  0  0  0
  160.8510  209.0330  153.3720 C   0  0  1  0  0  3  0  0  0  0  0  0
  162.8780  211.1440  155.1070 O   0  0  0  0  0  0  0  0  0  0  0  0
  162.4440  208.5050  155.1930 O   0  0  0  0  0  0  0  0  0  0  0  0
  158.6620  210.6560  157.2610 C   0  0  0  0  0  1  0  0  0  0  0  0
  162.2720  210.1070  149.3590 C   0  0  0  0  0  2  0  0  0  0  0  0
  161.9120  208.4010  152.4810 C   0  0  2  0  0  3  0  0  0  0  0  0
  159.3280  210.4240  155.9140 C   0  0  2  0  0  3  0  0  0  0  0  0
  158.5510  207.5940  155.5030 O   0  0  0  0  0  0  0  0  0  0  0  0
  160.0280  206.9290  157.2000 C   0  0  0  0  0  1  0  0  0  0  0  0
  159.5330  207.8830  156.1700 C   0  0  0  0  0  0  0  0  0  0  0  0
  156.2090  211.6370  154.2060 C   0  0  0  0  0  2  0  0  0  0  0  0
  155.2230  211.3750  156.4640 C   0  0  0  0  0  1  0  0  0  0  0  0
  155.4960  210.6770  155.1490 C   0  0  0  0  0  2  0  0  0  0  0  0
  1  5  1  0  0  0  0
  2 17  1  0  0  0  0
  5 10  1  0  0  0  0
  6 28  1  6  0  0  0
  6 11  1  0  0  0  0
  8  9  1  1  0  0  0
  8 20  1  0  0  0  0
  8 13  1  0  0  0  0
  9 19  2  0  0  0  0
  9 20  1  0  0  0  0
 10  7  2  0  0  0  0
 10  6  1  0  0  0  0
 11 24  1  0  0  0  0
 12  2  1  0  0  0  0
 13 27  1  6  0  0  0
 14  1  2  0  0  0  0
 15  3  1  0  0  0  0
 16 12  1  0  0  0  0
 16 22  1  0  0  0  0
 17  1  1  0  0  0  0
 18  4  1  1  0  0  0
 18  8  1  0  0  0  0
 22 15  1  0  0  0  0
 23  3  1  6  0  0  0
 23  4  1  0  0  0  0
 23 18  1  0  0  0  0
 24 13  1  0  0  0  0
 24 21  1  1  0  0  0
 25 27  2  0  0  0  0
 27 26  1  0  0  0  0
 28 30  1  0  0  0  0
 30 29  1  0  0  0  0
M  END
>  <MODEL>
1

>  <REMARK>
 VINA RESULT:      -1.5      0.000      0.000
  Name = 
  3 active torsions:
  status: ('A' for Active; 'I' for Inactive)
    1  A    between atoms: C_6  and  C_8
    2  A    between atoms: C_6  and  C_21
    3  A    between atoms: C_15  and  C_26
                            x       y       z     vdW  Elec       q    Type
                         _______ _______ _______ _____ _____    ______ ____

>  <TORSDO>
F 3

$$$$
=
 OpenBabel11052422003D

 30 32  0  0  1  0  0  0  0  0999 V2000
  161.8720  209.4350  149.8090 C   0  0  0  0  0  0  0  0  0  0  0  0
  162.9750  207.2770  150.2730 C   0  0  0  0  0  2  0  0  0  0  0  0
  160.1750  206.4310  154.3120 C   0  0  0  0  0  2  0  0  0  0  0  0
  158.6170  208.0240  155.3620 C   0  0  0  0  0  2  0  0  0  0  0  0
  161.1860  210.5940  150.2920 N   0  0  0  0  0  2  0  0  0  0  0  0
  160.0700  212.0090  152.0950 C   0  0  2  0  0  3  0  0  0  0  0  0
  162.3380  210.6530  152.7010 S   0  0  0  0  0  0  0  0  0  0  0  0
  160.1830  209.8960  155.9730 C   0  0  1  0  0  0  0  0  0  0  0  0
  161.5000  209.9000  156.3830 C   0  0  0  0  0  0  0  0  0  0  0  0
  161.1050  210.9950  151.6680 C   0  0  0  0  0  0  0  0  0  0  0  0
  159.3110  211.5650  153.3460 C   0  0  0  0  0  2  0  0  0  0  0  0
  163.0700  206.3060  151.4330 C   0  0  0  0  0  2  0  0  0  0  0  0
  159.5710  211.2980  155.8740 C   0  0  1  0  0  3  0  0  0  0  0  0
  162.0580  209.3000  148.5690 O   0  0  0  0  0  0  0  0  0  0  0  0
  161.5320  206.3060  154.0070 O   0  0  0  0  0  0  0  0  0  0  0  0
  161.7040  205.6990  151.6980 C   0  0  0  0  0  2  0  0  0  0  0  0
  162.2800  208.4400  150.6980 O   0  0  0  0  0  0  0  0  0  0  0  0
  159.8400  208.8140  154.9280 C   0  0  1  0  0  3  0  0  0  0  0  0
  162.7250  210.1070  156.1860 O   0  0  0  0  0  0  0  0  0  0  0  0
  160.3600  209.4650  157.2610 O   0  0  0  0  0  0  0  0  0  0  0  0
  159.7600  213.5600  154.7930 C   0  0  0  0  0  1  0  0  0  0  0  0
  161.6050  205.2160  153.1350 C   0  0  0  0  0  2  0  0  0  0  0  0
  159.9890  207.3960  155.4640 C   0  0  2  0  0  3  0  0  0  0  0  0
  159.9940  212.0690  154.6140 C   0  0  2  0  0  3  0  0  0  0  0  0
  157.3100  210.6580  155.5020 O   0  0  0  0  0  0  0  0  0  0  0  0
  157.5750  212.1880  157.2600 C   0  0  0  0  0  1  0  0  0  0  0  0
  158.0910  211.3270  156.1610 C   0  0  0  0  0  0  0  0  0  0  0  0
  159.0960  212.4030  150.9810 C   0  0  0  0  0  2  0  0  0  0  0  0
  157.3020  214.0390  151.4780 C   0  0  0  0  0  1  0  0  0  0  0  0
  158.7350  213.8820  151.0150 C   0  0  0  0  0  2  0  0  0  0  0  0
  1  5  1  0  0  0  0
  1 17  1  0  0  0  0
  2 17  1  0  0  0  0
  2 12  1  0  0  0  0
  4 23  1  0  0  0  0
  5 10  1  0  0  0  0
  6 28  1  6  0  0  0
  6 11  1  0  0  0  0
  8  9  1  6  0  0  0
  8 20  1  0  0  0  0
  9 20  1  0  0  0  0
 10  6  1  0  0  0  0
 10  7  2  0  0  0  0
 11 24  1  0  0  0  0
 12 16  1  0  0  0  0
 13  8  1  0  0  0  0
 13 27  1  6  0  0  0
 14  1  2  0  0  0  0
 15  3  1  0  0  0  0
 16 22  1  0  0  0  0
 18  4  1  1  0  0  0
 18 23  1  0  0  0  0
 18  8  1  0  0  0  0
 19  9  2  0  0  0  0
 22 15  1  0  0  0  0
 23  3  1  6  0  0  0
 24 21  1  1  0  0  0
 24 13  1  0  0  0  0
 25 27  2  0  0  0  0
 27 26  1  0  0  0  0
 28 30  1  0  0  0  0
 30 29  1  0  0  0  0
M  END
>  <MODEL>
2

>  <REMARK>
 VINA RESULT:      -1.3      2.510      4.443
  Name = 
  3 active torsions:
  status: ('A' for Active; 'I' for Inactive)
    1  A    between atoms: C_6  and  C_8
    2  A    between atoms: C_6  and  C_21
    3  A    between atoms: C_15  and  C_26
                            x       y       z     vdW  Elec       q    Type
                         _______ _______ _______ _____ _____    ______ ____

>  <TORSDO>
F 3

$$$$
