=
 OpenBabel11062409033D

 37 42  0  0  1  0  0  0  0  0999 V2000
  160.3410  206.8760  150.5490 O   0  0  0  0  0  1  0  0  0  0  0  0
  160.5420  209.0810  152.0420 N   0  0  1  0  0  0  0  0  0  0  0  0
  160.6510  212.7060  151.3380 O   0  0  0  0  0  0  0  0  0  0  0  0
  162.5250  207.3770  151.3470 C   0  0  0  0  0  2  0  0  0  0  0  0
  161.0670  210.3470  151.4540 C   0  0  2  0  0  3  0  0  0  0  0  0
  161.5520  208.0510  152.2900 C   0  0  1  0  0  0  0  0  0  0  0  0
  160.0190  211.4810  151.5690 C   0  0  1  0  0  3  0  0  0  0  0  0
  160.8710  206.8650  154.4490 C   0  0  0  0  0  1  0  0  0  0  0  0
  160.9560  210.4510  154.2020 C   0  0  0  0  0  2  0  0  0  0  0  0
  161.5300  208.0710  153.7920 C   0  0  2  0  0  3  0  0  0  0  0  0
  160.8020  212.7960  149.9460 C   0  0  1  0  0  3  0  0  0  0  0  0
  160.4690  209.1430  153.5480 C   0  0  2  0  0  3  0  0  0  0  0  0
  161.3460  210.3040  149.9270 C   0  0  1  0  0  3  0  0  0  0  0  0
  161.1960  206.7050  151.6410 C   0  0  1  0  0  3  0  0  0  0  0  0
  159.1340  211.5110  152.8210 C   0  0  1  0  0  3  0  0  0  0  0  0
  161.3110  214.1840  149.6030 C   0  0  0  0  0  1  0  0  0  0  0  0
  161.7610  211.7070  149.4180 C   0  0  1  0  0  3  0  0  0  0  0  0
  159.9070  211.5530  154.1330 C   0  0  0  0  0  2  0  0  0  0  0  0
  157.7870  213.2440  151.5620 C   0  0  0  0  0  3  0  0  0  0  0  0
  158.0580  212.5490  152.7510 C   0  0  0  0  0  0  0  0  0  0  0  0
  157.2910  212.8070  153.8930 C   0  0  0  0  0  3  0  0  0  0  0  0
  155.3120  214.0740  155.2870 Cl  0  0  0  0  0  0  0  0  0  0  0  0
  156.0020  214.4510  152.6680 C   0  0  0  0  0  3  0  0  0  0  0  0
  156.2680  213.7570  153.8520 C   0  0  0  0  0  0  0  0  0  0  0  0
  156.7630  214.1940  151.5210 C   0  0  0  0  0  3  0  0  0  0  0  0
  161.7740  211.7260  147.8940 C   0  0  0  0  0  2  0  0  0  0  0  0
  160.7180  212.7030  147.3670 C   0  0  1  0  0  3  0  0  0  0  0  0
  162.6560  213.4200  145.8890 C   0  0  0  0  0  1  0  0  0  0  0  0
  161.2060  213.6610  146.2750 C   0  0  0  0  0  2  0  0  0  0  0  0
  159.4460  212.1360  147.1150 O   0  0  0  0  0  0  0  0  0  0  0  0
  157.3340  212.9310  147.8800 C   0  0  0  0  0  2  0  0  0  0  0  0
  158.5010  213.1610  146.9430 C   0  0  0  0  0  3  0  0  0  0  0  0
  157.2120  212.5610  146.4190 C   0  0  0  0  0  2  0  0  0  0  0  0
  162.3460  209.3940  149.5870 O   0  0  0  0  0  0  0  0  0  0  0  0
  161.8770  208.7670  148.4280 C   0  0  0  0  0  2  0  0  0  0  0  0
  162.7030  207.5320  148.1410 C   0  0  0  0  0  2  0  0  0  0  0  0
  161.8640  206.5340  147.3750 C   0  0  0  0  0  1  0  0  0  0  0  0
  1 14  1  0  0  0  0
  2  6  1  0  0  0  0
  2 12  1  0  0  0  0
  3  7  1  0  0  0  0
  4 14  1  0  0  0  0
  4  6  1  0  0  0  0
  5  7  1  0  0  0  0
  5  2  1  0  0  0  0
  6 10  1  0  0  0  0
  7 15  1  0  0  0  0
 10  8  1  0  0  0  0
 11  3  1  0  0  0  0
 12 10  1  0  0  0  0
 12  9  1  0  0  0  0
 13  5  1  0  0  0  0
 14  6  1  0  0  0  0
 15 18  1  0  0  0  0
 16 11  1  0  0  0  0
 17 13  1  0  0  0  0
 17 11  1  0  0  0  0
 18  9  1  0  0  0  0
 19 20  1  0  0  0  0
 20 15  1  0  0  0  0
 20 21  2  0  0  0  0
 23 24  2  0  0  0  0
 24 21  1  0  0  0  0
 24 22  1  0  0  0  0
 25 19  2  0  0  0  0
 25 23  1  0  0  0  0
 26 17  1  0  0  0  0
 27 26  1  0  0  0  0
 28 29  1  0  0  0  0
 29 27  1  0  0  0  0
 30 27  1  0  0  0  0
 32 30  1  0  0  0  0
 32 31  1  0  0  0  0
 33 32  1  0  0  0  0
 33 31  1  0  0  0  0
 34 13  1  0  0  0  0
 35 34  1  0  0  0  0
 36 35  1  0  0  0  0
 37 36  1  0  0  0  0
M  END
>  <MODEL>
1

>  <REMARK>
 VINA RESULT:      -5.0      0.000      0.000
  Name = 
  9 active torsions:
  status: ('A' for Active; 'I' for Inactive)
    1  A    between atoms: C_1  and  C_5
    2  A    between atoms: C_1  and  C_36
    3  A    between atoms: C_5  and  O_17
    4  A    between atoms: C_5  and  C_23
    5  A    between atoms: C_6  and  C_31
    6  A    between atoms: O_17  and  C_26
    7  A    between atoms: O_20  and  C_25
    8  A    between atoms: O_20  and  C_29
    9  A    between atoms: C_21  and  C_25
                            x       y       z     vdW  Elec       q    Type
                         _______ _______ _______ _____ _____    ______ ____

>  <TORSDO>
F 9

$$$$
=
 OpenBabel11062409033D

 37 42  0  0  1  0  0  0  0  0999 V2000
  156.0710  210.5050  155.3770 O   0  0  0  0  0  1  0  0  0  0  0  0
  157.7590  212.1620  154.1380 N   0  0  1  0  0  0  0  0  0  0  0  0
  160.5300  211.7440  151.7310 O   0  0  0  0  0  0  0  0  0  0  0  0
  157.8800  211.3020  156.7000 C   0  0  0  0  0  2  0  0  0  0  0  0
  159.0720  211.6670  153.6330 C   0  0  2  0  0  3  0  0  0  0  0  0
  157.6740  212.3110  155.5910 C   0  0  1  0  0  0  0  0  0  0  0  0
  159.1910  211.8880  152.1050 C   0  0  1  0  0  3  0  0  0  0  0  0
  156.2410  214.3820  156.0300 C   0  0  0  0  0  1  0  0  0  0  0  0
  158.9460  214.4150  153.6610 C   0  0  0  0  0  2  0  0  0  0  0  0
  157.6040  213.8100  155.6600 C   0  0  2  0  0  3  0  0  0  0  0  0
  160.7630  210.3600  151.6890 C   0  0  1  0  0  3  0  0  0  0  0  0
  157.6850  213.6690  154.1410 C   0  0  2  0  0  3  0  0  0  0  0  0
  159.3000  210.1370  153.7670 C   0  0  1  0  0  3  0  0  0  0  0  0
  156.4740  211.5650  156.1930 C   0  0  1  0  0  3  0  0  0  0  0  0
  158.5570  213.1540  151.5160 C   0  0  1  0  0  3  0  0  0  0  0  0
  162.1430  210.1190  151.1080 C   0  0  0  0  0  1  0  0  0  0  0  0
  160.6360  209.7320  153.0950 C   0  0  1  0  0  3  0  0  0  0  0  0
  159.0500  214.4510  152.1420 C   0  0  0  0  0  2  0  0  0  0  0  0
  157.4400  212.9650  149.2530 C   0  0  0  0  0  3  0  0  0  0  0  0
  158.5950  213.1830  150.0200 C   0  0  0  0  0  0  0  0  0  0  0  0
  159.8080  213.4640  149.3800 C   0  0  0  0  0  3  0  0  0  0  0  0
  161.3930  213.8690  147.1910 Cl  0  0  0  0  0  0  0  0  0  0  0  0
  158.7190  213.2950  147.2230 C   0  0  0  0  0  3  0  0  0  0  0  0
  159.8710  213.5170  147.9850 C   0  0  0  0  0  0  0  0  0  0  0  0
  157.5030  213.0190  147.8580 C   0  0  0  0  0  3  0  0  0  0  0  0
  160.7290  208.2140  152.9920 C   0  0  0  0  0  2  0  0  0  0  0  0
  161.5350  207.8150  151.7510 C   0  0  1  0  0  3  0  0  0  0  0  0
  161.9810  205.5650  152.8450 C   0  0  0  0  0  1  0  0  0  0  0  0
  162.5350  206.6740  151.9640 C   0  0  0  0  0  2  0  0  0  0  0  0
  160.7870  207.7150  150.5540 O   0  0  0  0  0  0  0  0  0  0  0  0
  161.3510  207.4190  148.2580 C   0  0  0  0  0  2  0  0  0  0  0  0
  161.4440  206.8540  149.6610 C   0  0  0  0  0  3  0  0  0  0  0  0
  160.4320  206.2950  148.6800 C   0  0  0  0  0  2  0  0  0  0  0  0
  159.3240  209.7090  155.0950 O   0  0  0  0  0  0  0  0  0  0  0  0
  160.6200  209.9920  155.5350 C   0  0  0  0  0  2  0  0  0  0  0  0
  160.9960  209.0560  156.6640 C   0  0  0  0  0  2  0  0  0  0  0  0
  160.1470  207.8070  156.5820 C   0  0  0  0  0  1  0  0  0  0  0  0
  1 14  1  0  0  0  0
  2 12  1  0  0  0  0
  2  6  1  0  0  0  0
  3  7  1  0  0  0  0
  5 13  1  0  0  0  0
  5  2  1  0  0  0  0
  6 10  1  0  0  0  0
  6 14  1  0  0  0  0
  6  4  1  0  0  0  0
  7  5  1  0  0  0  0
  9 12  1  0  0  0  0
 10  8  1  0  0  0  0
 11  3  1  0  0  0  0
 11 17  1  0  0  0  0
 12 10  1  0  0  0  0
 13 34  1  0  0  0  0
 14  4  1  0  0  0  0
 15  7  1  0  0  0  0
 15 18  1  0  0  0  0
 16 11  1  0  0  0  0
 17 13  1  0  0  0  0
 18  9  1  0  0  0  0
 19 20  1  0  0  0  0
 20 15  1  0  0  0  0
 21 20  2  0  0  0  0
 22 24  1  0  0  0  0
 23 25  1  0  0  0  0
 23 24  2  0  0  0  0
 24 21  1  0  0  0  0
 25 19  2  0  0  0  0
 26 17  1  0  0  0  0
 27 29  1  0  0  0  0
 27 26  1  0  0  0  0
 29 28  1  0  0  0  0
 30 27  1  0  0  0  0
 31 33  1  0  0  0  0
 31 32  1  0  0  0  0
 32 30  1  0  0  0  0
 33 32  1  0  0  0  0
 34 35  1  0  0  0  0
 35 36  1  0  0  0  0
 37 36  1  0  0  0  0
M  END
>  <MODEL>
2

>  <REMARK>
 VINA RESULT:      -5.0      2.750      6.372
  Name = 
  9 active torsions:
  status: ('A' for Active; 'I' for Inactive)
    1  A    between atoms: C_1  and  C_5
    2  A    between atoms: C_1  and  C_36
    3  A    between atoms: C_5  and  O_17
    4  A    between atoms: C_5  and  C_23
    5  A    between atoms: C_6  and  C_31
    6  A    between atoms: O_17  and  C_26
    7  A    between atoms: O_20  and  C_25
    8  A    between atoms: O_20  and  C_29
    9  A    between atoms: C_21  and  C_25
                            x       y       z     vdW  Elec       q    Type
                         _______ _______ _______ _____ _____    ______ ____

>  <TORSDO>
F 9

$$$$
=
 OpenBabel11062409033D

 37 42  0  0  1  0  0  0  0  0999 V2000
  157.0260  209.8430  154.9830 O   0  0  0  0  0  1  0  0  0  0  0  0
  158.0520  211.9100  153.6380 N   0  0  1  0  0  0  0  0  0  0  0  0
  160.6430  212.3000  151.0340 O   0  0  0  0  0  0  0  0  0  0  0  0
  158.6050  211.1600  156.1780 C   0  0  0  0  0  2  0  0  0  0  0  0
  159.4130  211.8200  153.0360 C   0  0  2  0  0  3  0  0  0  0  0  0
  158.0300  212.0470  155.0950 C   0  0  1  0  0  0  0  0  0  0  0  0
  159.3520  212.0450  151.5050 C   0  0  1  0  0  3  0  0  0  0  0  0
  156.0810  213.6040  155.6520 C   0  0  0  0  0  1  0  0  0  0  0  0
  158.4780  214.4070  153.0950 C   0  0  0  0  0  2  0  0  0  0  0  0
  157.5230  213.4580  155.1800 C   0  0  2  0  0  3  0  0  0  0  0  0
  161.2730  211.0470  150.9650 C   0  0  1  0  0  3  0  0  0  0  0  0
  157.5330  213.3270  153.6590 C   0  0  2  0  0  3  0  0  0  0  0  0
  160.0940  210.4280  153.1410 C   0  0  1  0  0  3  0  0  0  0  0  0
  157.1520  210.9860  155.7760 C   0  0  1  0  0  3  0  0  0  0  0  0
  158.3290  213.0570  150.9730 C   0  0  1  0  0  3  0  0  0  0  0  0
  162.6170  211.2190  150.2830 C   0  0  0  0  0  1  0  0  0  0  0  0
  161.4390  210.4290  152.3710 C   0  0  1  0  0  3  0  0  0  0  0  0
  158.4580  214.4510  151.5720 C   0  0  0  0  0  2  0  0  0  0  0  0
  157.0430  212.8310  148.8050 C   0  0  0  0  0  3  0  0  0  0  0  0
  158.2510  213.0760  149.4780 C   0  0  0  0  0  0  0  0  0  0  0  0
  159.4050  213.3720  148.7440 C   0  0  0  0  0  3  0  0  0  0  0  0
  160.8060  213.7880  146.4360 Cl  0  0  0  0  0  0  0  0  0  0  0  0
  158.1540  213.1680  146.6790 C   0  0  0  0  0  3  0  0  0  0  0  0
  159.3570  213.4150  147.3480 C   0  0  0  0  0  0  0  0  0  0  0  0
  156.9960  212.8750  147.4090 C   0  0  0  0  0  3  0  0  0  0  0  0
  161.9710  209.0060  152.2490 C   0  0  0  0  0  2  0  0  0  0  0  0
  161.0090  208.1490  151.4200 C   0  0  1  0  0  3  0  0  0  0  0  0
  160.6430  206.8240  149.2830 C   0  0  0  0  0  1  0  0  0  0  0  0
  161.4150  207.9470  149.9560 C   0  0  0  0  0  2  0  0  0  0  0  0
  160.5430  206.9770  152.0610 O   0  0  0  0  0  0  0  0  0  0  0  0
  162.0200  205.1080  152.0360 C   0  0  0  0  0  2  0  0  0  0  0  0
  161.6010  206.3720  152.7580 C   0  0  0  0  0  3  0  0  0  0  0  0
  161.1460  205.0180  153.2670 C   0  0  0  0  0  2  0  0  0  0  0  0
  160.3390  210.0460  154.4600 O   0  0  0  0  0  0  0  0  0  0  0  0
  161.4520  210.7980  154.8470 C   0  0  0  0  0  2  0  0  0  0  0  0
  162.2450  210.0430  155.8920 C   0  0  0  0  0  2  0  0  0  0  0  0
  161.5860  208.7070  156.1520 C   0  0  0  0  0  1  0  0  0  0  0  0
  1 14  1  0  0  0  0
  2 12  1  0  0  0  0
  2  6  1  0  0  0  0
  3  7  1  0  0  0  0
  5 13  1  0  0  0  0
  5  2  1  0  0  0  0
  6 10  1  0  0  0  0
  6 14  1  0  0  0  0
  6  4  1  0  0  0  0
  7  5  1  0  0  0  0
  9 12  1  0  0  0  0
 10  8  1  0  0  0  0
 11  3  1  0  0  0  0
 11 17  1  0  0  0  0
 12 10  1  0  0  0  0
 13 34  1  0  0  0  0
 14  4  1  0  0  0  0
 15  7  1  0  0  0  0
 15 18  1  0  0  0  0
 16 11  1  0  0  0  0
 17 13  1  0  0  0  0
 18  9  1  0  0  0  0
 19 20  1  0  0  0  0
 20 15  1  0  0  0  0
 21 20  2  0  0  0  0
 22 24  1  0  0  0  0
 23 24  2  0  0  0  0
 23 25  1  0  0  0  0
 24 21  1  0  0  0  0
 25 19  2  0  0  0  0
 26 17  1  0  0  0  0
 27 30  1  0  0  0  0
 27 26  1  0  0  0  0
 28 29  1  0  0  0  0
 29 27  1  0  0  0  0
 30 32  1  0  0  0  0
 31 32  1  0  0  0  0
 31 33  1  0  0  0  0
 32 33  1  0  0  0  0
 34 35  1  0  0  0  0
 35 36  1  0  0  0  0
 36 37  1  0  0  0  0
M  END
>  <MODEL>
3

>  <REMARK>
 VINA RESULT:      -4.8      2.624      6.276
  Name = 
  9 active torsions:
  status: ('A' for Active; 'I' for Inactive)
    1  A    between atoms: C_1  and  C_5
    2  A    between atoms: C_1  and  C_36
    3  A    between atoms: C_5  and  O_17
    4  A    between atoms: C_5  and  C_23
    5  A    between atoms: C_6  and  C_31
    6  A    between atoms: O_17  and  C_26
    7  A    between atoms: O_20  and  C_25
    8  A    between atoms: O_20  and  C_29
    9  A    between atoms: C_21  and  C_25
                            x       y       z     vdW  Elec       q    Type
                         _______ _______ _______ _____ _____    ______ ____

>  <TORSDO>
F 9

$$$$
=
 OpenBabel11062409033D

 37 42  0  0  1  0  0  0  0  0999 V2000
  158.4220  212.9840  149.9560 O   0  0  0  0  0  1  0  0  0  0  0  0
  160.6520  211.5510  149.6250 N   0  0  1  0  0  0  0  0  0  0  0  0
  162.1070  208.5750  151.2580 O   0  0  0  0  0  0  0  0  0  0  0  0
  160.4000  213.9450  150.8620 C   0  0  0  0  0  2  0  0  0  0  0  0
  161.2000  210.7350  150.7460 C   0  0  2  0  0  3  0  0  0  0  0  0
  160.8390  212.9960  149.7670 C   0  0  1  0  0  0  0  0  0  0  0  0
  161.2850  209.2410  150.3450 C   0  0  1  0  0  3  0  0  0  0  0  0
  161.2870  213.9080  147.4210 C   0  0  0  0  0  1  0  0  0  0  0  0
  163.0110  211.0200  148.6940 C   0  0  0  0  0  2  0  0  0  0  0  0
  161.8320  213.2040  148.6590 C   0  0  2  0  0  3  0  0  0  0  0  0
  161.3130  208.3670  152.3980 C   0  0  1  0  0  3  0  0  0  0  0  0
  161.6400  211.6980  148.4940 C   0  0  2  0  0  3  0  0  0  0  0  0
  160.3190  210.6870  152.0240 C   0  0  1  0  0  3  0  0  0  0  0  0
  159.5250  213.7790  149.6340 C   0  0  1  0  0  3  0  0  0  0  0  0
  161.6460  208.9120  148.8910 C   0  0  1  0  0  3  0  0  0  0  0  0
  162.0770  207.4820  153.3640 C   0  0  0  0  0  1  0  0  0  0  0  0
  160.9300  209.7090  153.0600 C   0  0  1  0  0  3  0  0  0  0  0  0
  162.9580  209.5230  148.4180 C   0  0  0  0  0  2  0  0  0  0  0  0
  160.7140  206.6000  149.3270 C   0  0  0  0  0  3  0  0  0  0  0  0
  161.5440  207.4510  148.5810 C   0  0  0  0  0  0  0  0  0  0  0  0
  162.2750  206.9360  147.5040 C   0  0  0  0  0  3  0  0  0  0  0  0
  163.1030  204.9430  145.8290 Cl  0  0  0  0  0  0  0  0  0  0  0  0
  161.3610  204.7330  147.9260 C   0  0  0  0  0  3  0  0  0  0  0  0
  162.1850  205.5800  147.1790 C   0  0  0  0  0  0  0  0  0  0  0  0
  160.6240  205.2440  149.0010 C   0  0  0  0  0  3  0  0  0  0  0  0
  159.9370  209.4600  154.1900 C   0  0  0  0  0  2  0  0  0  0  0  0
  160.6050  209.7110  155.5460 C   0  0  1  0  0  3  0  0  0  0  0  0
  159.7910  207.3820  156.1550 C   0  0  0  0  0  1  0  0  0  0  0  0
  160.1740  208.7600  156.6680 C   0  0  0  0  0  2  0  0  0  0  0  0
  161.9980  209.9540  155.4950 O   0  0  0  0  0  0  0  0  0  0  0  0
  162.2470  211.5340  157.2610 C   0  0  0  0  0  2  0  0  0  0  0  0
  162.4950  210.1130  156.7990 C   0  0  0  0  0  3  0  0  0  0  0  0
  163.6210  211.1270  156.7770 C   0  0  0  0  0  2  0  0  0  0  0  0
  160.1740  211.9360  152.6260 O   0  0  0  0  0  0  0  0  0  0  0  0
  158.8630  211.9440  153.1150 C   0  0  0  0  0  2  0  0  0  0  0  0
  158.6880  213.0820  154.0970 C   0  0  0  0  0  2  0  0  0  0  0  0
  158.0930  212.5490  155.3810 C   0  0  0  0  0  1  0  0  0  0  0  0
  2  6  1  0  0  0  0
  2  5  1  0  0  0  0
  3 11  1  0  0  0  0
  5 13  1  0  0  0  0
  6  4  1  0  0  0  0
  7  5  1  0  0  0  0
  7  3  1  0  0  0  0
  8 10  1  0  0  0  0
 10  6  1  0  0  0  0
 11 17  1  0  0  0  0
 11 16  1  0  0  0  0
 12 10  1  0  0  0  0
 12  9  1  0  0  0  0
 12  2  1  0  0  0  0
 13 34  1  0  0  0  0
 13 17  1  0  0  0  0
 14  6  1  0  0  0  0
 14  1  1  0  0  0  0
 14  4  1  0  0  0  0
 15  7  1  0  0  0  0
 17 26  1  0  0  0  0
 18  9  1  0  0  0  0
 18 15  1  0  0  0  0
 20 15  1  0  0  0  0
 20 19  2  0  0  0  0
 21 20  1  0  0  0  0
 22 24  1  0  0  0  0
 23 25  2  0  0  0  0
 24 21  2  0  0  0  0
 24 23  1  0  0  0  0
 25 19  1  0  0  0  0
 26 27  1  0  0  0  0
 27 29  1  0  0  0  0
 28 29  1  0  0  0  0
 30 27  1  0  0  0  0
 30 32  1  0  0  0  0
 32 31  1  0  0  0  0
 33 32  1  0  0  0  0
 33 31  1  0  0  0  0
 34 35  1  0  0  0  0
 35 36  1  0  0  0  0
 36 37  1  0  0  0  0
M  END
>  <MODEL>
4

>  <REMARK>
 VINA RESULT:      -4.7      3.199      8.376
  Name = 
  9 active torsions:
  status: ('A' for Active; 'I' for Inactive)
    1  A    between atoms: C_1  and  C_5
    2  A    between atoms: C_1  and  C_36
    3  A    between atoms: C_5  and  O_17
    4  A    between atoms: C_5  and  C_23
    5  A    between atoms: C_6  and  C_31
    6  A    between atoms: O_17  and  C_26
    7  A    between atoms: O_20  and  C_25
    8  A    between atoms: O_20  and  C_29
    9  A    between atoms: C_21  and  C_25
                            x       y       z     vdW  Elec       q    Type
                         _______ _______ _______ _____ _____    ______ ____

>  <TORSDO>
F 9

$$$$
=
 OpenBabel11062409033D

 37 42  0  0  1  0  0  0  0  0999 V2000
  158.5040  213.3710  149.6020 O   0  0  0  0  0  1  0  0  0  0  0  0
  160.7170  211.8830  149.4590 N   0  0  1  0  0  0  0  0  0  0  0  0
  162.0530  209.0050  151.3500 O   0  0  0  0  0  0  0  0  0  0  0  0
  160.4640  214.3620  150.5150 C   0  0  0  0  0  2  0  0  0  0  0  0
  161.2060  211.1380  150.6540 C   0  0  2  0  0  3  0  0  0  0  0  0
  160.9260  213.3310  149.5070 C   0  0  1  0  0  0  0  0  0  0  0  0
  161.2780  209.6190  150.3610 C   0  0  1  0  0  3  0  0  0  0  0  0
  161.4790  214.0690  147.1230 C   0  0  0  0  0  1  0  0  0  0  0  0
  163.0990  211.2500  148.6590 C   0  0  0  0  0  2  0  0  0  0  0  0
  161.9630  213.4450  148.4260 C   0  0  2  0  0  3  0  0  0  0  0  0
  161.2130  208.8910  152.4690 C   0  0  1  0  0  3  0  0  0  0  0  0
  161.7500  211.9340  148.3600 C   0  0  2  0  0  3  0  0  0  0  0  0
  160.2780  211.1940  151.8970 C   0  0  1  0  0  3  0  0  0  0  0  0
  159.6320  214.1240  149.2680 C   0  0  1  0  0  3  0  0  0  0  0  0
  161.6880  209.1830  148.9490 C   0  0  1  0  0  3  0  0  0  0  0  0
  161.9230  208.0640  153.5240 C   0  0  0  0  0  1  0  0  0  0  0  0
  160.8300  210.2820  153.0210 C   0  0  1  0  0  3  0  0  0  0  0  0
  163.0280  209.7380  148.4860 C   0  0  0  0  0  2  0  0  0  0  0  0
  160.9040  206.8840  149.6600 C   0  0  0  0  0  3  0  0  0  0  0  0
  161.5710  207.7060  148.7380 C   0  0  0  0  0  0  0  0  0  0  0  0
  162.1170  207.1430  147.5780 C   0  0  0  0  0  3  0  0  0  0  0  0
  162.6930  205.0730  145.8910 Cl  0  0  0  0  0  0  0  0  0  0  0  0
  161.3440  204.9530  148.2670 C   0  0  0  0  0  3  0  0  0  0  0  0
  162.0070  205.7700  147.3450 C   0  0  0  0  0  0  0  0  0  0  0  0
  160.7930  205.5110  149.4250 C   0  0  0  0  0  3  0  0  0  0  0  0
  159.7910  210.1300  154.1260 C   0  0  0  0  0  2  0  0  0  0  0  0
  160.2980  210.7700  155.4230 C   0  0  1  0  0  3  0  0  0  0  0  0
  162.3790  210.4520  156.8470 C   0  0  0  0  0  1  0  0  0  0  0  0
  161.8190  210.9310  155.5170 C   0  0  0  0  0  2  0  0  0  0  0  0
  159.5660  211.8990  155.8620 O   0  0  0  0  0  0  0  0  0  0  0  0
  157.3360  211.3550  156.4980 C   0  0  0  0  0  2  0  0  0  0  0  0
  158.7660  211.5410  156.9590 C   0  0  0  0  0  3  0  0  0  0  0  0
  157.7410  212.6320  157.1980 C   0  0  0  0  0  2  0  0  0  0  0  0
  160.1330  212.4850  152.4040 O   0  0  0  0  0  0  0  0  0  0  0  0
  158.7640  212.6160  152.6580 C   0  0  0  0  0  2  0  0  0  0  0  0
  158.4930  213.9320  153.3540 C   0  0  0  0  0  2  0  0  0  0  0  0
  157.0320  214.0050  153.7380 C   0  0  0  0  0  1  0  0  0  0  0  0
  2  6  1  0  0  0  0
  2  5  1  0  0  0  0
  3 11  1  0  0  0  0
  5 13  1  0  0  0  0
  6  4  1  0  0  0  0
  7  5  1  0  0  0  0
  7  3  1  0  0  0  0
  8 10  1  0  0  0  0
 10  6  1  0  0  0  0
 11 17  1  0  0  0  0
 11 16  1  0  0  0  0
 12 10  1  0  0  0  0
 12  9  1  0  0  0  0
 12  2  1  0  0  0  0
 13 34  1  0  0  0  0
 13 17  1  0  0  0  0
 14  6  1  0  0  0  0
 14  1  1  0  0  0  0
 14  4  1  0  0  0  0
 15  7  1  0  0  0  0
 17 26  1  0  0  0  0
 18  9  1  0  0  0  0
 18 15  1  0  0  0  0
 20 15  1  0  0  0  0
 20 19  2  0  0  0  0
 21 20  1  0  0  0  0
 22 24  1  0  0  0  0
 23 25  2  0  0  0  0
 24 21  2  0  0  0  0
 24 23  1  0  0  0  0
 25 19  1  0  0  0  0
 26 27  1  0  0  0  0
 27 29  1  0  0  0  0
 27 30  1  0  0  0  0
 29 28  1  0  0  0  0
 30 32  1  0  0  0  0
 31 32  1  0  0  0  0
 31 33  1  0  0  0  0
 32 33  1  0  0  0  0
 34 35  1  0  0  0  0
 35 36  1  0  0  0  0
 36 37  1  0  0  0  0
M  END
>  <MODEL>
5

>  <REMARK>
 VINA RESULT:      -4.5      3.105      8.086
  Name = 
  9 active torsions:
  status: ('A' for Active; 'I' for Inactive)
    1  A    between atoms: C_1  and  C_5
    2  A    between atoms: C_1  and  C_36
    3  A    between atoms: C_5  and  O_17
    4  A    between atoms: C_5  and  C_23
    5  A    between atoms: C_6  and  C_31
    6  A    between atoms: O_17  and  C_26
    7  A    between atoms: O_20  and  C_25
    8  A    between atoms: O_20  and  C_29
    9  A    between atoms: C_21  and  C_25
                            x       y       z     vdW  Elec       q    Type
                         _______ _______ _______ _____ _____    ______ ____

>  <TORSDO>
F 9

$$$$
=
 OpenBabel11062409033D

 37 42  0  0  1  0  0  0  0  0999 V2000
  158.6890  213.4800  149.0470 O   0  0  0  0  0  1  0  0  0  0  0  0
  160.8080  211.8570  149.1660 N   0  0  1  0  0  0  0  0  0  0  0  0
  161.8940  209.1480  151.4310 O   0  0  0  0  0  0  0  0  0  0  0  0
  160.6770  214.4530  149.9180 C   0  0  0  0  0  2  0  0  0  0  0  0
  161.2080  211.2310  150.4580 C   0  0  2  0  0  3  0  0  0  0  0  0
  161.1060  213.2860  149.0550 C   0  0  1  0  0  0  0  0  0  0  0  0
  161.1930  209.6860  150.3470 C   0  0  1  0  0  3  0  0  0  0  0  0
  161.7840  213.7030  146.6260 C   0  0  0  0  0  1  0  0  0  0  0  0
  163.1690  210.9940  148.5430 C   0  0  0  0  0  2  0  0  0  0  0  0
  162.1840  213.2100  148.0120 C   0  0  2  0  0  3  0  0  0  0  0  0
  161.0120  209.2170  152.5210 C   0  0  1  0  0  3  0  0  0  0  0  0
  161.8780  211.7160  148.1110 C   0  0  2  0  0  3  0  0  0  0  0  0
  160.2440  211.4880  151.6480 C   0  0  1  0  0  3  0  0  0  0  0  0
  159.8740  214.1200  148.6740 C   0  0  1  0  0  3  0  0  0  0  0  0
  161.6210  209.0630  149.0130 C   0  0  1  0  0  3  0  0  0  0  0  0
  161.6320  208.4790  153.6920 C   0  0  0  0  0  1  0  0  0  0  0  0
  160.6990  210.6830  152.8920 C   0  0  1  0  0  3  0  0  0  0  0  0
  163.0090  209.4790  148.5430 C   0  0  0  0  0  2  0  0  0  0  0  0
  161.1660  206.9110  147.7610 C   0  0  0  0  0  3  0  0  0  0  0  0
  161.4170  207.5810  148.9690 C   0  0  0  0  0  0  0  0  0  0  0  0
  161.5090  206.8500  150.1590 C   0  0  0  0  0  3  0  0  0  0  0  0
  161.4590  204.5550  151.6400 Cl  0  0  0  0  0  0  0  0  0  0  0  0
  161.0880  204.7980  148.9420 C   0  0  0  0  0  3  0  0  0  0  0  0
  161.3420  205.4620  150.1460 C   0  0  0  0  0  0  0  0  0  0  0  0
  161.0000  205.5240  147.7480 C   0  0  0  0  0  3  0  0  0  0  0  0
  159.6170  210.7240  153.9640 C   0  0  0  0  0  2  0  0  0  0  0  0
  160.1980  211.2360  155.2860 C   0  0  1  0  0  3  0  0  0  0  0  0
  158.1320  211.9190  156.5970 C   0  0  0  0  0  1  0  0  0  0  0  0
  159.4200  212.3840  155.9370 C   0  0  0  0  0  2  0  0  0  0  0  0
  160.6140  210.2300  156.1900 O   0  0  0  0  0  0  0  0  0  0  0  0
  162.9150  210.8400  156.2810 C   0  0  0  0  0  2  0  0  0  0  0  0
  161.6070  210.7430  157.0390 C   0  0  0  0  0  3  0  0  0  0  0  0
  162.6810  209.6910  157.2360 C   0  0  0  0  0  2  0  0  0  0  0  0
  160.1650  212.8360  151.9960 O   0  0  0  0  0  0  0  0  0  0  0  0
  158.8050  213.0620  152.2350 C   0  0  0  0  0  2  0  0  0  0  0  0
  158.6330  214.2900  153.1030 C   0  0  0  0  0  2  0  0  0  0  0  0
  157.2350  214.3040  153.6800 C   0  0  0  0  0  1  0  0  0  0  0  0
  2  5  1  0  0  0  0
  3 11  1  0  0  0  0
  5 13  1  0  0  0  0
  6  2  1  0  0  0  0
  6  4  1  0  0  0  0
  7  5  1  0  0  0  0
  7  3  1  0  0  0  0
  8 10  1  0  0  0  0
  9 18  1  0  0  0  0
 10 12  1  0  0  0  0
 10  6  1  0  0  0  0
 11 17  1  0  0  0  0
 11 16  1  0  0  0  0
 12  9  1  0  0  0  0
 12  2  1  0  0  0  0
 13 34  1  0  0  0  0
 13 17  1  0  0  0  0
 14  1  1  0  0  0  0
 14  6  1  0  0  0  0
 14  4  1  0  0  0  0
 15  7  1  0  0  0  0
 17 26  1  0  0  0  0
 18 15  1  0  0  0  0
 19 20  1  0  0  0  0
 20 15  1  0  0  0  0
 20 21  2  0  0  0  0
 23 24  2  0  0  0  0
 24 21  1  0  0  0  0
 24 22  1  0  0  0  0
 25 19  2  0  0  0  0
 25 23  1  0  0  0  0
 26 27  1  0  0  0  0
 27 29  1  0  0  0  0
 27 30  1  0  0  0  0
 29 28  1  0  0  0  0
 30 32  1  0  0  0  0
 31 32  1  0  0  0  0
 31 33  1  0  0  0  0
 32 33  1  0  0  0  0
 34 35  1  0  0  0  0
 35 36  1  0  0  0  0
 36 37  1  0  0  0  0
M  END
>  <MODEL>
6

>  <REMARK>
 VINA RESULT:      -4.3      2.767      8.066
  Name = 
  9 active torsions:
  status: ('A' for Active; 'I' for Inactive)
    1  A    between atoms: C_1  and  C_5
    2  A    between atoms: C_1  and  C_36
    3  A    between atoms: C_5  and  O_17
    4  A    between atoms: C_5  and  C_23
    5  A    between atoms: C_6  and  C_31
    6  A    between atoms: O_17  and  C_26
    7  A    between atoms: O_20  and  C_25
    8  A    between atoms: O_20  and  C_29
    9  A    between atoms: C_21  and  C_25
                            x       y       z     vdW  Elec       q    Type
                         _______ _______ _______ _____ _____    ______ ____

>  <TORSDO>
F 9

$$$$
=
 OpenBabel11062409033D

 37 42  0  0  1  0  0  0  0  0999 V2000
  158.8050  206.9830  155.0120 O   0  0  0  0  0  1  0  0  0  0  0  0
  160.7190  208.5050  153.9360 N   0  0  1  0  0  0  0  0  0  0  0  0
  161.9660  209.0930  150.5100 O   0  0  0  0  0  0  0  0  0  0  0  0
  161.0230  206.1540  155.2410 C   0  0  0  0  0  2  0  0  0  0  0  0
  161.3140  208.1510  152.6170 C   0  0  2  0  0  3  0  0  0  0  0  0
  161.1360  207.6510  155.0500 C   0  0  1  0  0  0  0  0  0  0  0  0
  161.1140  209.3000  151.5980 C   0  0  1  0  0  3  0  0  0  0  0  0
  161.3280  209.1670  157.1000 C   0  0  0  0  0  1  0  0  0  0  0  0
  162.7930  210.0580  153.9390 C   0  0  0  0  0  2  0  0  0  0  0  0
  161.9560  208.6560  155.8080 C   0  0  2  0  0  3  0  0  0  0  0  0
  161.3450  208.1060  149.7280 C   0  0  1  0  0  3  0  0  0  0  0  0
  161.5220  209.5600  154.6570 C   0  0  2  0  0  3  0  0  0  0  0  0
  160.6540  206.9460  151.8930 C   0  0  1  0  0  3  0  0  0  0  0  0
  159.9460  207.0550  155.8160 C   0  0  1  0  0  3  0  0  0  0  0  0
  161.1840  210.7390  152.1240 C   0  0  1  0  0  3  0  0  0  0  0  0
  162.1170  207.9600  148.4300 C   0  0  0  0  0  1  0  0  0  0  0  0
  161.2740  206.7610  150.4840 C   0  0  1  0  0  3  0  0  0  0  0  0
  162.4780  211.0780  152.8530 C   0  0  0  0  0  2  0  0  0  0  0  0
  159.8050  212.6990  151.3110 C   0  0  0  0  0  3  0  0  0  0  0  0
  160.8210  211.7570  151.0880 C   0  0  0  0  0  0  0  0  0  0  0  0
  161.5350  211.7810  149.8840 C   0  0  0  0  0  3  0  0  0  0  0  0
  162.1290  212.7560  147.4020 Cl  0  0  0  0  0  0  0  0  0  0  0  0
  160.2160  213.6680  149.1300 C   0  0  0  0  0  3  0  0  0  0  0  0
  161.2310  212.7320  148.9060 C   0  0  0  0  0  0  0  0  0  0  0  0
  159.5020  213.6510  150.3330 C   0  0  0  0  0  3  0  0  0  0  0  0
  160.4510  205.7600  149.6800 C   0  0  0  0  0  2  0  0  0  0  0  0
  161.2640  205.2410  148.4890 C   0  0  1  0  0  3  0  0  0  0  0  0
  160.4610  202.8700  148.9230 C   0  0  0  0  0  1  0  0  0  0  0  0
  161.6390  203.7570  148.5560 C   0  0  0  0  0  2  0  0  0  0  0  0
  160.8090  205.6680  147.2190 O   0  0  0  0  0  0  0  0  0  0  0  0
  162.3340  205.7590  145.3910 C   0  0  0  0  0  2  0  0  0  0  0  0
  161.4110  204.8890  146.2190 C   0  0  0  0  0  3  0  0  0  0  0  0
  160.9650  205.3960  144.8620 C   0  0  0  0  0  2  0  0  0  0  0  0
  160.7920  205.7510  152.5980 O   0  0  0  0  0  0  0  0  0  0  0  0
  162.0630  205.2790  152.2530 C   0  0  0  0  0  2  0  0  0  0  0  0
  162.0080  203.7860  152.0110 C   0  0  0  0  0  2  0  0  0  0  0  0
  160.6380  203.2670  152.3860 C   0  0  0  0  0  1  0  0  0  0  0  0
  1 14  1  0  0  0  0
  2 12  1  0  0  0  0
  2  6  1  0  0  0  0
  3  7  1  0  0  0  0
  4 14  1  0  0  0  0
  5  2  1  0  0  0  0
  6  4  1  0  0  0  0
  6 10  1  0  0  0  0
  6 14  1  0  0  0  0
  7 15  1  0  0  0  0
  7  5  1  0  0  0  0
  9 12  1  0  0  0  0
 10  8  1  0  0  0  0
 11 17  1  0  0  0  0
 11  3  1  0  0  0  0
 12 10  1  0  0  0  0
 13 34  1  0  0  0  0
 13  5  1  0  0  0  0
 15 18  1  0  0  0  0
 16 11  1  0  0  0  0
 17 13  1  0  0  0  0
 18  9  1  0  0  0  0
 20 19  1  0  0  0  0
 20 15  1  0  0  0  0
 21 20  2  0  0  0  0
 22 24  1  0  0  0  0
 23 25  1  0  0  0  0
 24 23  2  0  0  0  0
 24 21  1  0  0  0  0
 25 19  2  0  0  0  0
 26 17  1  0  0  0  0
 27 29  1  0  0  0  0
 27 26  1  0  0  0  0
 29 28  1  0  0  0  0
 30 27  1  0  0  0  0
 31 32  1  0  0  0  0
 32 30  1  0  0  0  0
 33 31  1  0  0  0  0
 33 32  1  0  0  0  0
 35 34  1  0  0  0  0
 36 35  1  0  0  0  0
 36 37  1  0  0  0  0
M  END
>  <MODEL>
7

>  <REMARK>
 VINA RESULT:      -3.8      2.968      5.717
  Name = 
  9 active torsions:
  status: ('A' for Active; 'I' for Inactive)
    1  A    between atoms: C_1  and  C_5
    2  A    between atoms: C_1  and  C_36
    3  A    between atoms: C_5  and  O_17
    4  A    between atoms: C_5  and  C_23
    5  A    between atoms: C_6  and  C_31
    6  A    between atoms: O_17  and  C_26
    7  A    between atoms: O_20  and  C_25
    8  A    between atoms: O_20  and  C_29
    9  A    between atoms: C_21  and  C_25
                            x       y       z     vdW  Elec       q    Type
                         _______ _______ _______ _____ _____    ______ ____

>  <TORSDO>
F 9

$$$$
=
 OpenBabel11062409033D

 37 42  0  0  1  0  0  0  0  0999 V2000
  159.5600  204.8250  149.0110 O   0  0  0  0  0  1  0  0  0  0  0  0
  160.8950  205.8800  151.0700 N   0  0  1  0  0  0  0  0  0  0  0  0
  162.1450  209.2510  151.9160 O   0  0  0  0  0  0  0  0  0  0  0  0
  161.8990  204.3930  149.0440 C   0  0  0  0  0  2  0  0  0  0  0  0
  161.6900  207.1290  150.8960 C   0  0  2  0  0  3  0  0  0  0  0  0
  161.4900  204.6840  150.4720 C   0  0  1  0  0  0  0  0  0  0  0  0
  161.1840  208.2390  151.8510 C   0  0  1  0  0  3  0  0  0  0  0  0
  160.9530  202.7400  152.0430 C   0  0  0  0  0  1  0  0  0  0  0  0
  162.2750  205.8540  153.2620 C   0  0  0  0  0  2  0  0  0  0  0  0
  161.8310  203.9470  151.7360 C   0  0  2  0  0  3  0  0  0  0  0  0
  161.9850  209.9990  150.7380 C   0  0  1  0  0  3  0  0  0  0  0  0
  161.2060  205.1870  152.3730 C   0  0  2  0  0  3  0  0  0  0  0  0
  161.5660  207.8070  149.5040 C   0  0  1  0  0  3  0  0  0  0  0  0
  160.5270  203.9560  149.5220 C   0  0  1  0  0  3  0  0  0  0  0  0
  160.6930  207.8140  153.2400 C   0  0  1  0  0  3  0  0  0  0  0  0
  162.8680  211.2300  150.8230 C   0  0  0  0  0  1  0  0  0  0  0  0
  162.3300  209.1540  149.4920 C   0  0  1  0  0  3  0  0  0  0  0  0
  161.7140  207.0290  154.0530 C   0  0  0  0  0  2  0  0  0  0  0  0
  160.1210  208.9730  155.4160 C   0  0  0  0  0  3  0  0  0  0  0  0
  160.0840  208.9420  154.0130 C   0  0  0  0  0  0  0  0  0  0  0  0
  159.4910  209.9990  153.3140 C   0  0  0  0  0  3  0  0  0  0  0  0
  158.1910  212.3950  153.1250 Cl  0  0  0  0  0  0  0  0  0  0  0  0
  158.9660  211.1010  155.4060 C   0  0  0  0  0  3  0  0  0  0  0  0
  158.9310  211.0750  154.0090 C   0  0  0  0  0  0  0  0  0  0  0  0
  159.5620  210.0490  156.1100 C   0  0  0  0  0  3  0  0  0  0  0  0
  161.9890  209.9360  148.2290 C   0  0  0  0  0  2  0  0  0  0  0  0
  161.9790  211.4400  148.5230 C   0  0  1  0  0  3  0  0  0  0  0  0
  162.7060  212.9470  146.6100 C   0  0  0  0  0  1  0  0  0  0  0  0
  163.1250  212.2350  147.8860 C   0  0  0  0  0  2  0  0  0  0  0  0
  160.7130  212.0650  148.4220 O   0  0  0  0  0  0  0  0  0  0  0  0
  159.8860  213.3330  150.2600 C   0  0  0  0  0  2  0  0  0  0  0  0
  160.7650  213.3300  149.0270 C   0  0  0  0  0  3  0  0  0  0  0  0
  159.3850  213.9570  148.9770 C   0  0  0  0  0  2  0  0  0  0  0  0
  162.0570  207.0090  148.4700 O   0  0  0  0  0  0  0  0  0  0  0  0
  161.0550  207.0360  147.4950 C   0  0  0  0  0  2  0  0  0  0  0  0
  161.5050  206.2630  146.2740 C   0  0  0  0  0  2  0  0  0  0  0  0
  160.3740  206.2050  145.2710 C   0  0  0  0  0  1  0  0  0  0  0  0
  1 14  1  0  0  0  0
  2 12  1  0  0  0  0
  4 14  1  0  0  0  0
  4  6  1  0  0  0  0
  5  2  1  0  0  0  0
  5  7  1  0  0  0  0
  6  2  1  0  0  0  0
  6 10  1  0  0  0  0
  7  3  1  0  0  0  0
  7 15  1  0  0  0  0
  9 18  1  0  0  0  0
 10  8  1  0  0  0  0
 10 12  1  0  0  0  0
 11 16  1  0  0  0  0
 11  3  1  0  0  0  0
 12  9  1  0  0  0  0
 13  5  1  0  0  0  0
 14  6  1  0  0  0  0
 15 20  1  0  0  0  0
 15 18  1  0  0  0  0
 17 13  1  0  0  0  0
 17 11  1  0  0  0  0
 19 25  1  0  0  0  0
 20 19  2  0  0  0  0
 21 24  2  0  0  0  0
 21 20  1  0  0  0  0
 22 24  1  0  0  0  0
 23 25  2  0  0  0  0
 24 23  1  0  0  0  0
 26 27  1  0  0  0  0
 26 17  1  0  0  0  0
 28 29  1  0  0  0  0
 29 27  1  0  0  0  0
 30 27  1  0  0  0  0
 30 32  1  0  0  0  0
 32 31  1  0  0  0  0
 33 32  1  0  0  0  0
 33 31  1  0  0  0  0
 34 13  1  0  0  0  0
 35 34  1  0  0  0  0
 36 35  1  0  0  0  0
 37 36  1  0  0  0  0
M  END
>  <MODEL>
8

>  <REMARK>
 VINA RESULT:      -3.3      2.183      3.724
  Name = 
  9 active torsions:
  status: ('A' for Active; 'I' for Inactive)
    1  A    between atoms: C_1  and  C_5
    2  A    between atoms: C_1  and  C_36
    3  A    between atoms: C_5  and  O_17
    4  A    between atoms: C_5  and  C_23
    5  A    between atoms: C_6  and  C_31
    6  A    between atoms: O_17  and  C_26
    7  A    between atoms: O_20  and  C_25
    8  A    between atoms: O_20  and  C_29
    9  A    between atoms: C_21  and  C_25
                            x       y       z     vdW  Elec       q    Type
                         _______ _______ _______ _____ _____    ______ ____

>  <TORSDO>
F 9

$$$$
=
 OpenBabel11062409033D

 37 42  0  0  1  0  0  0  0  0999 V2000
  158.1000  213.1740  149.3790 O   0  0  0  0  0  1  0  0  0  0  0  0
  160.3350  211.7550  149.7380 N   0  0  1  0  0  0  0  0  0  0  0  0
  161.8430  209.9380  152.5790 O   0  0  0  0  0  0  0  0  0  0  0  0
  160.0880  214.4490  149.6660 C   0  0  0  0  0  2  0  0  0  0  0  0
  160.9090  211.5820  151.1030 C   0  0  2  0  0  3  0  0  0  0  0  0
  160.5130  213.0880  149.1600 C   0  0  1  0  0  0  0  0  0  0  0  0
  160.9990  210.0810  151.4740 C   0  0  1  0  0  3  0  0  0  0  0  0
  160.9110  212.7490  146.6570 C   0  0  0  0  0  1  0  0  0  0  0  0
  162.6800  210.8350  149.1330 C   0  0  0  0  0  2  0  0  0  0  0  0
  161.4830  212.7310  148.0690 C   0  0  2  0  0  3  0  0  0  0  0  0
  161.0720  210.3100  153.6920 C   0  0  1  0  0  3  0  0  0  0  0  0
  161.3010  211.3340  148.6580 C   0  0  2  0  0  3  0  0  0  0  0  0
  160.0540  212.1610  152.2620 C   0  0  1  0  0  3  0  0  0  0  0  0
  159.1910  213.7110  148.6900 C   0  0  1  0  0  3  0  0  0  0  0  0
  161.3350  209.0880  150.3540 C   0  0  1  0  0  3  0  0  0  0  0  0
  161.8610  210.0020  154.9510 C   0  0  0  0  0  1  0  0  0  0  0  0
  160.6900  211.8050  153.6300 C   0  0  1  0  0  3  0  0  0  0  0  0
  162.6340  209.3910  149.6180 C   0  0  0  0  0  2  0  0  0  0  0  0
  161.2390  207.3090  152.1510 C   0  0  0  0  0  3  0  0  0  0  0  0
  161.2390  207.6600  150.7920 C   0  0  0  0  0  0  0  0  0  0  0  0
  161.1190  206.6610  149.8200 C   0  0  0  0  0  3  0  0  0  0  0  0
  160.8590  204.0760  148.9750 Cl  0  0  0  0  0  0  0  0  0  0  0  0
  161.0130  204.9730  151.5540 C   0  0  0  0  0  3  0  0  0  0  0  0
  161.0090  205.3210  150.1990 C   0  0  0  0  0  0  0  0  0  0  0  0
  161.1280  205.9690  152.5300 C   0  0  0  0  0  3  0  0  0  0  0  0
  159.7210  212.1370  154.7580 C   0  0  0  0  0  2  0  0  0  0  0  0
  158.7790  210.9560  155.0130 C   0  0  1  0  0  3  0  0  0  0  0  0
  159.8920  210.5300  157.2570 C   0  0  0  0  0  1  0  0  0  0  0  0
  158.5830  210.5870  156.4870 C   0  0  0  0  0  2  0  0  0  0  0  0
  157.5850  210.9640  154.2520 O   0  0  0  0  0  0  0  0  0  0  0  0
  155.5790  209.8830  154.9470 C   0  0  0  0  0  2  0  0  0  0  0  0
  156.4820  211.0870  155.1120 C   0  0  0  0  0  3  0  0  0  0  0  0
  155.2190  211.1920  154.2820 C   0  0  0  0  0  2  0  0  0  0  0  0
  159.9090  213.5460  152.1870 O   0  0  0  0  0  0  0  0  0  0  0  0
  158.8120  213.8340  153.0040 C   0  0  0  0  0  2  0  0  0  0  0  0
  157.6900  214.4180  152.1730 C   0  0  0  0  0  2  0  0  0  0  0  0
  156.3630  214.0850  152.8160 C   0  0  0  0  0  1  0  0  0  0  0  0
  2  5  1  0  0  0  0
  3 11  1  0  0  0  0
  5  7  1  0  0  0  0
  5 13  1  0  0  0  0
  6  4  1  0  0  0  0
  6  2  1  0  0  0  0
  7  3  1  0  0  0  0
  8 10  1  0  0  0  0
  9 18  1  0  0  0  0
 10 12  1  0  0  0  0
 10  6  1  0  0  0  0
 11 16  1  0  0  0  0
 12  9  1  0  0  0  0
 12  2  1  0  0  0  0
 13 17  1  0  0  0  0
 14  6  1  0  0  0  0
 14  1  1  0  0  0  0
 14  4  1  0  0  0  0
 15 20  1  0  0  0  0
 15  7  1  0  0  0  0
 17 11  1  0  0  0  0
 17 26  1  0  0  0  0
 18 15  1  0  0  0  0
 19 25  1  0  0  0  0
 20 19  2  0  0  0  0
 21 24  2  0  0  0  0
 21 20  1  0  0  0  0
 22 24  1  0  0  0  0
 23 25  2  0  0  0  0
 24 23  1  0  0  0  0
 26 27  1  0  0  0  0
 27 29  1  0  0  0  0
 29 28  1  0  0  0  0
 30 27  1  0  0  0  0
 30 32  1  0  0  0  0
 31 32  1  0  0  0  0
 33 31  1  0  0  0  0
 33 32  1  0  0  0  0
 34 13  1  0  0  0  0
 34 35  1  0  0  0  0
 36 37  1  0  0  0  0
 36 35  1  0  0  0  0
M  END
>  <MODEL>
9

>  <REMARK>
 VINA RESULT:      -3.1      2.882      7.632
  Name = 
  9 active torsions:
  status: ('A' for Active; 'I' for Inactive)
    1  A    between atoms: C_1  and  C_5
    2  A    between atoms: C_1  and  C_36
    3  A    between atoms: C_5  and  O_17
    4  A    between atoms: C_5  and  C_23
    5  A    between atoms: C_6  and  C_31
    6  A    between atoms: O_17  and  C_26
    7  A    between atoms: O_20  and  C_25
    8  A    between atoms: O_20  and  C_29
    9  A    between atoms: C_21  and  C_25
                            x       y       z     vdW  Elec       q    Type
                         _______ _______ _______ _____ _____    ______ ____

>  <TORSDO>
F 9

$$$$
