=
 OpenBabel11052421433D

 30 36  0  0  1  0  0  0  0  0999 V2000
  161.7500  210.5050  148.8520 C   0  0  0  0  0  0  0  0  0  0  0  0
  162.8060  212.6790  148.0720 C   0  0  0  0  0  0  0  0  0  0  0  0
  159.8120  214.1450  150.0880 N   0  0  0  0  0  0  0  0  0  0  0  0
  161.4750  210.5840  150.2270 C   0  0  0  0  0  0  0  0  0  0  0  0
  161.9990  209.2630  148.2580 C   0  0  0  0  0  3  0  0  0  0  0  0
  161.6560  206.5670  151.1680 S   0  0  0  0  0  0  0  0  0  0  0  0
  161.3520  210.6850  153.2940 C   0  0  1  0  0  3  0  0  0  0  0  0
  161.6400  208.1760  150.3830 C   0  0  0  0  0  0  0  0  0  0  0  0
  162.2110  206.8180  148.5470 N   0  0  0  0  0  2  0  0  0  0  0  0
  160.5830  211.9100  153.0300 N   0  0  2  0  0  0  0  0  0  0  0  0
  159.7230  213.5210  151.3800 C   0  0  0  0  0  0  0  0  0  0  0  0
  161.9640  208.1160  149.0480 C   0  0  0  0  0  0  0  0  0  0  0  0
  161.3760  209.4110  151.0100 C   0  0  0  0  0  0  0  0  0  0  0  0
  162.6560  213.9840  147.5220 N   0  0  0  0  0  0  0  0  0  0  0  0
  159.4360  211.7380  153.8890 C   0  0  0  0  0  2  0  0  0  0  0  0
  161.1920  210.3550  154.6530 O   0  0  0  0  0  0  0  0  0  0  0  0
  160.9460  204.8390  149.1560 C   0  0  0  0  0  1  0  0  0  0  0  0
  163.9240  212.3110  148.5210 O   0  0  0  0  0  0  0  0  0  0  0  0
  160.0180  213.5700  148.9420 C   0  0  0  0  0  0  0  0  0  0  0  0
  161.4920  214.4530  147.1910 C   0  0  0  0  0  3  0  0  0  0  0  0
  162.0660  205.7770  149.5560 C   0  0  2  0  0  3  0  0  0  0  0  0
  161.6550  211.7220  147.9760 C   0  0  2  0  0  3  0  0  0  0  0  0
  161.2650  211.8400  150.7780 O   0  0  0  0  0  0  0  0  0  0  0  0
  159.2510  214.1980  152.3330 O   0  0  0  0  0  0  0  0  0  0  0  0
  160.1690  212.1010  151.6310 C   0  0  1  0  0  3  0  0  0  0  0  0
  159.9600  210.9150  155.0410 C   0  0  0  0  0  2  0  0  0  0  0  0
  160.2590  208.5750  152.9270 O   0  0  0  0  0  0  0  0  0  0  0  0
  160.1940  213.7080  147.4250 C   0  0  1  0  0  3  0  0  0  0  0  0
  160.2510  212.3780  147.9860 C   0  0  2  0  0  3  0  0  0  0  0  0
  160.9680  209.4920  152.4310 C   0  0  0  0  0  0  0  0  0  0  0  0
  1  4  1  0  0  0  0
  2 18  2  0  0  0  0
  3 11  1  0  0  0  0
  4 23  1  0  0  0  0
  4 13  2  0  0  0  0
  5  1  2  0  0  0  0
  5 12  1  0  0  0  0
  7 30  1  6  0  0  0
  7 16  1  0  0  0  0
  8 13  1  0  0  0  0
  8  6  1  0  0  0  0
  9 12  1  0  0  0  0
  9 21  1  0  0  0  0
 10  7  1  0  0  0  0
 10 15  1  1  0  0  0
 11 25  1  0  0  0  0
 11 24  2  0  0  0  0
 12  8  2  0  0  0  0
 13 30  1  0  0  0  0
 14  2  1  0  0  0  0
 15 26  1  0  0  0  0
 16 26  1  0  0  0  0
 19  3  2  0  0  0  0
 20 14  2  0  0  0  0
 21 17  1  6  0  0  0
 21  6  1  0  0  0  0
 22 29  1  0  0  0  0
 22  2  1  1  0  0  0
 22  1  1  0  0  0  0
 25 23  1  6  0  0  0
 25 10  1  0  0  0  0
 28 20  1  1  0  0  0
 28 29  1  0  0  0  0
 28 19  1  0  0  0  0
 29 19  1  1  0  0  0
 30 27  2  0  0  0  0
M  END
>  <MODEL>
1

>  <REMARK>
 VINA RESULT:      -5.6      0.000      0.000
  Name = 
  0 active torsions:
  status: ('A' for Active; 'I' for Inactive)
                            x       y       z     vdW  Elec       q    Type
                         _______ _______ _______ _____ _____    ______ ____

>  <TORSDO>
F 0

$$$$
=
 OpenBabel11052421433D

 30 36  0  0  1  0  0  0  0  0999 V2000
  159.8830  210.4690  154.8740 C   0  0  0  0  0  0  0  0  0  0  0  0
  161.3890  209.3110  156.5600 C   0  0  0  0  0  0  0  0  0  0  0  0
  161.4170  206.6040  153.7570 N   0  0  0  0  0  0  0  0  0  0  0  0
  160.4780  210.4210  153.6030 C   0  0  0  0  0  0  0  0  0  0  0  0
  159.0110  211.5140  155.2000 C   0  0  0  0  0  3  0  0  0  0  0  0
  158.7680  213.7950  151.9450 S   0  0  0  0  0  0  0  0  0  0  0  0
  162.0680  210.6710  150.9880 C   0  0  1  0  0  3  0  0  0  0  0  0
  159.2740  212.4240  152.9800 C   0  0  0  0  0  0  0  0  0  0  0  0
  157.8860  213.5920  154.4790 N   0  0  0  0  0  2  0  0  0  0  0  0
  162.1550  209.2090  151.1260 N   0  0  2  0  0  0  0  0  0  0  0  0
  161.6790  207.2080  152.4790 C   0  0  0  0  0  0  0  0  0  0  0  0
  158.7420  212.4930  154.2460 C   0  0  0  0  0  0  0  0  0  0  0  0
  160.1500  211.3800  152.6180 C   0  0  0  0  0  0  0  0  0  0  0  0
  161.7590  208.1270  157.2590 N   0  0  0  0  0  0  0  0  0  0  0  0
  161.7880  208.7570  149.8050 C   0  0  0  0  0  2  0  0  0  0  0  0
  162.4910  211.0100  149.6880 O   0  0  0  0  0  0  0  0  0  0  0  0
  156.2710  214.4480  152.8820 C   0  0  0  0  0  1  0  0  0  0  0  0
  162.1130  210.3390  156.6380 O   0  0  0  0  0  0  0  0  0  0  0  0
  160.6130  207.0290  154.6850 C   0  0  0  0  0  0  0  0  0  0  0  0
  161.1270  207.0070  157.0830 C   0  0  0  0  0  3  0  0  0  0  0  0
  157.7240  214.4500  153.3130 C   0  0  2  0  0  3  0  0  0  0  0  0
  160.0660  209.3440  155.8540 C   0  0  2  0  0  3  0  0  0  0  0  0
  161.3590  209.3830  153.3350 O   0  0  0  0  0  0  0  0  0  0  0  0
  162.2750  206.5170  151.6090 O   0  0  0  0  0  0  0  0  0  0  0  0
  161.2710  208.6230  152.1470 C   0  0  1  0  0  3  0  0  0  0  0  0
  162.2450  209.8710  148.8960 C   0  0  0  0  0  2  0  0  0  0  0  0
  159.9740  211.6050  150.2640 O   0  0  0  0  0  0  0  0  0  0  0  0
  160.0070  206.8290  156.0790 C   0  0  1  0  0  3  0  0  0  0  0  0
  159.5700  207.9770  155.3190 C   0  0  2  0  0  3  0  0  0  0  0  0
  160.6870  211.2550  151.2430 C   0  0  0  0  0  0  0  0  0  0  0  0
  1  5  1  0  0  0  0
  2 18  2  0  0  0  0
  2 14  1  0  0  0  0
  3 19  2  0  0  0  0
  4  1  2  0  0  0  0
  6  8  1  0  0  0  0
  6 21  1  0  0  0  0
  7 16  1  6  0  0  0
  7 10  1  0  0  0  0
  7 30  1  0  0  0  0
  8 12  1  0  0  0  0
 10 15  1  6  0  0  0
 10 25  1  0  0  0  0
 11  3  1  0  0  0  0
 12  9  1  0  0  0  0
 12  5  2  0  0  0  0
 13  8  2  0  0  0  0
 13  4  1  0  0  0  0
 19 28  1  0  0  0  0
 20 14  2  0  0  0  0
 21 17  1  6  0  0  0
 21  9  1  0  0  0  0
 22  1  1  6  0  0  0
 22  2  1  0  0  0  0
 23  4  1  0  0  0  0
 24 11  2  0  0  0  0
 25 11  1  1  0  0  0
 25 23  1  0  0  0  0
 26 16  1  0  0  0  0
 26 15  1  0  0  0  0
 27 30  2  0  0  0  0
 28 20  1  1  0  0  0
 29 19  1  6  0  0  0
 29 22  1  0  0  0  0
 29 28  1  0  0  0  0
 30 13  1  0  0  0  0
M  END
>  <MODEL>
2

>  <REMARK>
 VINA RESULT:      -4.8      3.106      7.627
  Name = 
  0 active torsions:
  status: ('A' for Active; 'I' for Inactive)
                            x       y       z     vdW  Elec       q    Type
                         _______ _______ _______ _____ _____    ______ ____

>  <TORSDO>
F 0

$$$$
=
 OpenBabel11052421433D

 30 36  0  0  1  0  0  0  0  0999 V2000
  161.1230  210.6100  152.8730 C   0  0  0  0  0  0  0  0  0  0  0  0
  161.0110  208.5250  154.3190 C   0  0  0  0  0  0  0  0  0  0  0  0
  159.9650  211.1710  156.9820 N   0  0  0  0  0  0  0  0  0  0  0  0
  159.9550  211.3700  153.0530 C   0  0  0  0  0  0  0  0  0  0  0  0
  161.8240  210.6810  151.6640 C   0  0  0  0  0  3  0  0  0  0  0  0
  159.8450  213.2900  149.3990 S   0  0  0  0  0  0  0  0  0  0  0  0
  157.1890  212.6980  153.1620 C   0  0  1  0  0  3  0  0  0  0  0  0
  160.2410  212.3060  150.8410 C   0  0  0  0  0  0  0  0  0  0  0  0
  161.9780  211.6500  149.3960 N   0  0  0  0  0  2  0  0  0  0  0  0
  157.4600  212.7000  154.6080 N   0  0  2  0  0  0  0  0  0  0  0  0
  158.9480  212.0390  156.4540 C   0  0  0  0  0  0  0  0  0  0  0  0
  161.3500  211.5160  150.6550 C   0  0  0  0  0  0  0  0  0  0  0  0
  159.5160  212.2640  152.0510 C   0  0  0  0  0  0  0  0  0  0  0  0
  161.3020  207.8750  155.5520 N   0  0  0  0  0  0  0  0  0  0  0  0
  157.1280  214.0550  154.9760 C   0  0  0  0  0  2  0  0  0  0  0  0
  156.0770  213.5290  152.9270 O   0  0  0  0  0  0  0  0  0  0  0  0
  162.2820  213.7510  148.2210 C   0  0  0  0  0  1  0  0  0  0  0  0
  160.2720  207.9610  153.4690 O   0  0  0  0  0  0  0  0  0  0  0  0
  161.0500  210.7690  156.3910 C   0  0  0  0  0  0  0  0  0  0  0  0
  161.9300  208.4830  156.5110 C   0  0  0  0  0  3  0  0  0  0  0  0
  161.3230  212.6190  148.5290 C   0  0  2  0  0  3  0  0  0  0  0  0
  161.7090  209.8160  154.0060 C   0  0  2  0  0  3  0  0  0  0  0  0
  159.2770  211.2440  154.2570 O   0  0  0  0  0  0  0  0  0  0  0  0
  158.1150  212.5330  157.2610 O   0  0  0  0  0  0  0  0  0  0  0  0
  158.8450  212.3750  154.9860 C   0  0  1  0  0  3  0  0  0  0  0  0
  156.0580  214.4530  153.9900 C   0  0  0  0  0  2  0  0  0  0  0  0
  158.3450  214.3100  151.8040 O   0  0  0  0  0  0  0  0  0  0  0  0
  162.3390  209.9400  156.4500 C   0  0  1  0  0  3  0  0  0  0  0  0
  162.0760  210.6820  155.2380 C   0  0  2  0  0  3  0  0  0  0  0  0
  158.3550  213.1490  152.2940 C   0  0  0  0  0  0  0  0  0  0  0  0
  1  4  1  0  0  0  0
  2 14  1  0  0  0  0
  4 23  1  0  0  0  0
  5  1  2  0  0  0  0
  6  8  1  0  0  0  0
  7 30  1  6  0  0  0
  7 10  1  0  0  0  0
  8 13  1  0  0  0  0
  9 12  1  0  0  0  0
 10 15  1  6  0  0  0
 10 25  1  0  0  0  0
 11  3  1  0  0  0  0
 11 24  2  0  0  0  0
 12  8  2  0  0  0  0
 12  5  1  0  0  0  0
 13 30  1  0  0  0  0
 13  4  2  0  0  0  0
 14 20  2  0  0  0  0
 16  7  1  0  0  0  0
 16 26  1  0  0  0  0
 18  2  2  0  0  0  0
 19 28  1  0  0  0  0
 19  3  2  0  0  0  0
 21 17  1  1  0  0  0
 21  9  1  0  0  0  0
 21  6  1  0  0  0  0
 22  1  1  6  0  0  0
 22  2  1  0  0  0  0
 22 29  1  0  0  0  0
 25 23  1  6  0  0  0
 25 11  1  0  0  0  0
 26 15  1  0  0  0  0
 27 30  2  0  0  0  0
 28 20  1  6  0  0  0
 29 19  1  1  0  0  0
 29 28  1  0  0  0  0
M  END
>  <MODEL>
3

>  <REMARK>
 VINA RESULT:      -4.7      3.204      6.363
  Name = 
  0 active torsions:
  status: ('A' for Active; 'I' for Inactive)
                            x       y       z     vdW  Elec       q    Type
                         _______ _______ _______ _____ _____    ______ ____

>  <TORSDO>
F 0

$$$$
=
 OpenBabel11052421433D

 30 36  0  0  1  0  0  0  0  0999 V2000
  161.1230  206.9070  152.7850 C   0  0  0  0  0  0  0  0  0  0  0  0
  162.4280  204.8060  152.2090 C   0  0  0  0  0  0  0  0  0  0  0  0
  161.0360  205.6490  148.6680 N   0  0  0  0  0  0  0  0  0  0  0  0
  161.4260  207.9170  151.8570 C   0  0  0  0  0  0  0  0  0  0  0  0
  160.7280  207.2450  154.0840 C   0  0  0  0  0  3  0  0  0  0  0  0
  160.6840  211.2240  154.2180 S   0  0  0  0  0  0  0  0  0  0  0  0
  162.5070  210.1740  150.0770 C   0  0  1  0  0  3  0  0  0  0  0  0
  160.8760  209.5870  153.5190 C   0  0  0  0  0  0  0  0  0  0  0  0
  160.2580  209.0350  155.7220 N   0  0  0  0  0  2  0  0  0  0  0  0
  162.1190  209.2490  149.0010 N   0  0  2  0  0  0  0  0  0  0  0  0
  161.2500  207.0370  148.3620 C   0  0  0  0  0  0  0  0  0  0  0  0
  160.6370  208.5900  154.4350 C   0  0  0  0  0  0  0  0  0  0  0  0
  161.2690  209.2790  152.2000 C   0  0  0  0  0  0  0  0  0  0  0  0
  162.4980  203.5570  151.5290 N   0  0  0  0  0  0  0  0  0  0  0  0
  161.3900  210.1150  148.1060 C   0  0  0  0  0  2  0  0  0  0  0  0
  162.7770  211.4280  149.4960 O   0  0  0  0  0  0  0  0  0  0  0  0
  158.7670  210.8980  156.1550 C   0  0  0  0  0  1  0  0  0  0  0  0
  163.4580  205.2810  152.7590 O   0  0  0  0  0  0  0  0  0  0  0  0
  160.6040  205.1400  149.7830 C   0  0  0  0  0  0  0  0  0  0  0  0
  161.5040  203.1100  150.8230 C   0  0  0  0  0  3  0  0  0  0  0  0
  160.1870  210.4860  155.8290 C   0  0  2  0  0  3  0  0  0  0  0  0
  161.0900  205.4630  152.3690 C   0  0  2  0  0  3  0  0  0  0  0  0
  161.8420  207.5340  150.5910 O   0  0  0  0  0  0  0  0  0  0  0  0
  161.4100  207.3580  147.1530 O   0  0  0  0  0  0  0  0  0  0  0  0
  161.2900  208.1090  149.4240 C   0  0  1  0  0  3  0  0  0  0  0  0
  162.0230  211.4700  148.3080 C   0  0  0  0  0  2  0  0  0  0  0  0
  160.7570  211.3710  151.2090 O   0  0  0  0  0  0  0  0  0  0  0  0
  160.2280  203.8910  150.5890 C   0  0  1  0  0  3  0  0  0  0  0  0
  160.0740  205.1740  151.2340 C   0  0  2  0  0  3  0  0  0  0  0  0
  161.4740  210.3350  151.1820 C   0  0  0  0  0  0  0  0  0  0  0  0
  1  5  1  0  0  0  0
  2 18  2  0  0  0  0
  3 19  2  0  0  0  0
  4 13  1  0  0  0  0
  4  1  2  0  0  0  0
  5 12  2  0  0  0  0
  6 21  1  0  0  0  0
  7 16  1  6  0  0  0
  7 30  1  0  0  0  0
  8  6  1  0  0  0  0
  8 12  1  0  0  0  0
  9 21  1  0  0  0  0
 10 15  1  6  0  0  0
 10 25  1  0  0  0  0
 10  7  1  0  0  0  0
 11  3  1  0  0  0  0
 12  9  1  0  0  0  0
 13  8  2  0  0  0  0
 14  2  1  0  0  0  0
 15 26  1  0  0  0  0
 19 28  1  0  0  0  0
 20 14  2  0  0  0  0
 21 17  1  6  0  0  0
 22  2  1  6  0  0  0
 22  1  1  0  0  0  0
 23  4  1  0  0  0  0
 24 11  2  0  0  0  0
 25 11  1  6  0  0  0
 25 23  1  0  0  0  0
 26 16  1  0  0  0  0
 28 20  1  1  0  0  0
 28 29  1  0  0  0  0
 29 19  1  6  0  0  0
 29 22  1  0  0  0  0
 30 27  2  0  0  0  0
 30 13  1  0  0  0  0
M  END
>  <MODEL>
4

>  <REMARK>
 VINA RESULT:      -4.7      2.667      7.080
  Name = 
  0 active torsions:
  status: ('A' for Active; 'I' for Inactive)
                            x       y       z     vdW  Elec       q    Type
                         _______ _______ _______ _____ _____    ______ ____

>  <TORSDO>
F 0

$$$$
=
 OpenBabel11052421433D

 30 36  0  0  1  0  0  0  0  0999 V2000
  161.4760  206.7800  147.8800 C   0  0  0  0  0  0  0  0  0  0  0  0
  160.3850  206.1020  145.6890 C   0  0  0  0  0  0  0  0  0  0  0  0
  161.9560  202.6750  146.6740 N   0  0  0  0  0  0  0  0  0  0  0  0
  161.1590  205.8370  148.8730 C   0  0  0  0  0  0  0  0  0  0  0  0
  161.7480  208.1050  148.2350 C   0  0  0  0  0  3  0  0  0  0  0  0
  161.4660  208.2590  152.2040 S   0  0  0  0  0  0  0  0  0  0  0  0
  160.0330  203.9940  151.0540 C   0  0  1  0  0  3  0  0  0  0  0  0
  161.4550  207.5410  150.5640 C   0  0  0  0  0  0  0  0  0  0  0  0
  161.9560  209.7810  150.0400 N   0  0  0  0  0  2  0  0  0  0  0  0
  160.5680  202.9440  150.1740 N   0  0  2  0  0  0  0  0  0  0  0  0
  161.6540  202.3590  148.0440 C   0  0  0  0  0  0  0  0  0  0  0  0
  161.7070  208.4680  149.5790 C   0  0  0  0  0  0  0  0  0  0  0  0
  161.1830  206.1960  150.2390 C   0  0  0  0  0  0  0  0  0  0  0  0
  160.4650  205.4140  144.4450 N   0  0  0  0  0  0  0  0  0  0  0  0
  161.2890  202.1080  151.1030 C   0  0  0  0  0  2  0  0  0  0  0  0
  159.7060  203.4000  152.2890 O   0  0  0  0  0  0  0  0  0  0  0  0
  163.2600  210.3280  152.0110 C   0  0  0  0  0  1  0  0  0  0  0  0
  159.2850  206.5780  146.0750 O   0  0  0  0  0  0  0  0  0  0  0  0
  162.3460  203.8150  146.1900 C   0  0  0  0  0  0  0  0  0  0  0  0
  161.5380  204.7790  144.0850 C   0  0  0  0  0  3  0  0  0  0  0  0
  161.9030  209.8990  151.4910 C   0  0  2  0  0  3  0  0  0  0  0  0
  161.6530  206.3610  146.4480 C   0  0  2  0  0  3  0  0  0  0  0  0
  160.8670  204.5420  148.4710 O   0  0  0  0  0  0  0  0  0  0  0  0
  161.5560  201.1440  148.3640 O   0  0  0  0  0  0  0  0  0  0  0  0
  161.4530  203.4200  149.0990 C   0  0  1  0  0  3  0  0  0  0  0  0
  160.5370  202.2690  152.4020 C   0  0  0  0  0  2  0  0  0  0  0  0
  161.5970  205.2540  152.3750 O   0  0  0  0  0  0  0  0  0  0  0  0
  162.7620  204.6410  144.9660 C   0  0  1  0  0  3  0  0  0  0  0  0
  162.7670  205.3010  146.2520 C   0  0  2  0  0  3  0  0  0  0  0  0
  160.9680  205.1710  151.2860 C   0  0  0  0  0  0  0  0  0  0  0  0
  1  5  2  0  0  0  0
  1  4  1  0  0  0  0
  2 18  2  0  0  0  0
  3 11  1  0  0  0  0
  4 13  2  0  0  0  0
  5 12  1  0  0  0  0
  7 30  1  1  0  0  0
  7 16  1  0  0  0  0
  8  6  1  0  0  0  0
  9 21  1  0  0  0  0
 10  7  1  0  0  0  0
 10 15  1  1  0  0  0
 11 24  2  0  0  0  0
 12  9  1  0  0  0  0
 12  8  2  0  0  0  0
 13  8  1  0  0  0  0
 13 30  1  0  0  0  0
 14  2  1  0  0  0  0
 15 26  1  0  0  0  0
 16 26  1  0  0  0  0
 19  3  2  0  0  0  0
 20 14  2  0  0  0  0
 21 17  1  1  0  0  0
 21  6  1  0  0  0  0
 22  2  1  1  0  0  0
 22  1  1  0  0  0  0
 23  4  1  0  0  0  0
 23 25  1  0  0  0  0
 25 11  1  6  0  0  0
 25 10  1  0  0  0  0
 28 20  1  6  0  0  0
 28 19  1  0  0  0  0
 28 29  1  0  0  0  0
 29 19  1  1  0  0  0
 29 22  1  0  0  0  0
 30 27  2  0  0  0  0
M  END
>  <MODEL>
5

>  <REMARK>
 VINA RESULT:      -4.5      4.251      7.677
  Name = 
  0 active torsions:
  status: ('A' for Active; 'I' for Inactive)
                            x       y       z     vdW  Elec       q    Type
                         _______ _______ _______ _____ _____    ______ ____

>  <TORSDO>
F 0

$$$$
=
 OpenBabel11052421433D

 30 36  0  0  1  0  0  0  0  0999 V2000
  161.6230  208.1810  150.2750 C   0  0  0  0  0  0  0  0  0  0  0  0
  160.7240  205.8070  150.2320 C   0  0  0  0  0  0  0  0  0  0  0  0
  161.4320  206.1220  154.0510 N   0  0  0  0  0  0  0  0  0  0  0  0
  160.9940  208.9020  151.3040 C   0  0  0  0  0  0  0  0  0  0  0  0
  162.1040  208.8510  149.1440 C   0  0  0  0  0  3  0  0  0  0  0  0
  161.3270  212.7100  149.7400 S   0  0  0  0  0  0  0  0  0  0  0  0
  159.2390  210.5010  153.2510 C   0  0  1  0  0  3  0  0  0  0  0  0
  161.3940  210.9560  150.0890 C   0  0  0  0  0  0  0  0  0  0  0  0
  162.3980  211.0000  147.9610 N   0  0  0  0  0  2  0  0  0  0  0  0
  159.6680  209.4560  154.1930 N   0  0  2  0  0  0  0  0  0  0  0  0
  160.8910  207.3520  154.5620 C   0  0  0  0  0  0  0  0  0  0  0  0
  161.9560  210.2330  149.0620 C   0  0  0  0  0  0  0  0  0  0  0  0
  160.9050  210.3120  151.2440 C   0  0  0  0  0  0  0  0  0  0  0  0
  160.8310  204.4500  150.6530 N   0  0  0  0  0  0  0  0  0  0  0  0
  160.0750  210.2300  155.3400 C   0  0  0  0  0  2  0  0  0  0  0  0
  158.6380  211.5350  153.9940 O   0  0  0  0  0  0  0  0  0  0  0  0
  163.5080  213.1510  148.1310 C   0  0  0  0  0  1  0  0  0  0  0  0
  159.6990  206.1930  149.6090 O   0  0  0  0  0  0  0  0  0  0  0  0
  162.1030  205.9450  152.9530 C   0  0  0  0  0  0  0  0  0  0  0  0
  161.7950  204.0520  151.4260 C   0  0  0  0  0  3  0  0  0  0  0  0
  162.1750  212.4300  148.1300 C   0  0  2  0  0  3  0  0  0  0  0  0
  161.9040  206.7130  150.4230 C   0  0  2  0  0  3  0  0  0  0  0  0
  160.5060  208.1930  152.3910 O   0  0  0  0  0  0  0  0  0  0  0  0
  160.5100  207.3770  155.7630 O   0  0  0  0  0  0  0  0  0  0  0  0
  160.7670  208.5980  153.7190 C   0  0  1  0  0  3  0  0  0  0  0  0
  159.2030  211.4610  155.2820 C   0  0  0  0  0  2  0  0  0  0  0  0
  160.8310  212.2050  152.6690 O   0  0  0  0  0  0  0  0  0  0  0  0
  162.8360  204.9820  152.0110 C   0  0  1  0  0  3  0  0  0  0  0  0
  162.8000  206.3790  151.6430 C   0  0  2  0  0  3  0  0  0  0  0  0
  160.3510  211.0750  152.3860 C   0  0  0  0  0  0  0  0  0  0  0  0
  1 22  1  0  0  0  0
  1  4  1  0  0  0  0
  2 14  1  0  0  0  0
  3 11  1  0  0  0  0
  4 23  1  0  0  0  0
  5  1  2  0  0  0  0
  6  8  1  0  0  0  0
  7 30  1  1  0  0  0
  7 16  1  0  0  0  0
  7 10  1  0  0  0  0
  8 13  1  0  0  0  0
  9 21  1  0  0  0  0
  9 12  1  0  0  0  0
 10 15  1  1  0  0  0
 11 24  2  0  0  0  0
 12  5  1  0  0  0  0
 12  8  2  0  0  0  0
 13  4  2  0  0  0  0
 13 30  1  0  0  0  0
 14 20  2  0  0  0  0
 16 26  1  0  0  0  0
 18  2  2  0  0  0  0
 19  3  2  0  0  0  0
 21 17  1  1  0  0  0
 21  6  1  0  0  0  0
 22  2  1  1  0  0  0
 22 29  1  0  0  0  0
 25 23  1  6  0  0  0
 25 10  1  0  0  0  0
 25 11  1  0  0  0  0
 26 15  1  0  0  0  0
 28 20  1  6  0  0  0
 28 19  1  0  0  0  0
 29 28  1  0  0  0  0
 29 19  1  1  0  0  0
 30 27  2  0  0  0  0
M  END
>  <MODEL>
6

>  <REMARK>
 VINA RESULT:      -4.4      2.547      6.023
  Name = 
  0 active torsions:
  status: ('A' for Active; 'I' for Inactive)
                            x       y       z     vdW  Elec       q    Type
                         _______ _______ _______ _____ _____    ______ ____

>  <TORSDO>
F 0

$$$$
=
 OpenBabel11052421433D

 30 36  0  0  1  0  0  0  0  0999 V2000
  159.5480  210.9100  154.2450 C   0  0  0  0  0  0  0  0  0  0  0  0
  161.3120  209.9330  155.7880 C   0  0  0  0  0  0  0  0  0  0  0  0
  161.8940  207.6580  152.6780 N   0  0  0  0  0  0  0  0  0  0  0  0
  160.1110  211.1510  152.9800 C   0  0  0  0  0  0  0  0  0  0  0  0
  158.4690  211.6830  154.6880 C   0  0  0  0  0  3  0  0  0  0  0  0
  157.6460  214.2200  151.7320 S   0  0  0  0  0  0  0  0  0  0  0  0
  161.5470  212.0660  150.4250 C   0  0  1  0  0  3  0  0  0  0  0  0
  158.4710  212.8870  152.5960 C   0  0  0  0  0  0  0  0  0  0  0  0
  156.8860  213.5210  154.2160 N   0  0  0  0  0  2  0  0  0  0  0  0
  161.9660  210.6570  150.3860 N   0  0  2  0  0  0  0  0  0  0  0  0
  161.9860  208.4540  151.4840 C   0  0  0  0  0  0  0  0  0  0  0  0
  157.9640  212.6810  153.8580 C   0  0  0  0  0  0  0  0  0  0  0  0
  159.5530  212.1210  152.1170 C   0  0  0  0  0  0  0  0  0  0  0  0
  161.9560  208.7900  156.3400 N   0  0  0  0  0  0  0  0  0  0  0  0
  161.6840  210.2940  149.0180 C   0  0  0  0  0  2  0  0  0  0  0  0
  161.8540  212.6450  149.1790 O   0  0  0  0  0  0  0  0  0  0  0  0
  155.0860  214.1710  152.7250 C   0  0  0  0  0  1  0  0  0  0  0  0
  161.7850  211.0830  155.9940 O   0  0  0  0  0  0  0  0  0  0  0  0
  161.0350  207.7750  153.6450 C   0  0  0  0  0  0  0  0  0  0  0  0
  161.5910  207.5850  156.0260 C   0  0  0  0  0  3  0  0  0  0  0  0
  156.5090  214.4530  153.1620 C   0  0  2  0  0  3  0  0  0  0  0  0
  160.0020  209.7480  155.0820 C   0  0  2  0  0  3  0  0  0  0  0  0
  161.1990  210.3810  152.5950 O   0  0  0  0  0  0  0  0  0  0  0  0
  162.7040  208.0250  150.5410 O   0  0  0  0  0  0  0  0  0  0  0  0
  161.2600  209.7680  151.3230 C   0  0  1  0  0  3  0  0  0  0  0  0
  161.8560  211.5840  148.2530 C   0  0  0  0  0  2  0  0  0  0  0  0
  159.2820  212.5780  149.8060 O   0  0  0  0  0  0  0  0  0  0  0  0
  160.5200  207.2770  155.0010 C   0  0  1  0  0  3  0  0  0  0  0  0
  159.8180  208.3780  154.3820 C   0  0  2  0  0  3  0  0  0  0  0  0
  160.0750  212.2860  150.7410 C   0  0  0  0  0  0  0  0  0  0  0  0
  1  5  1  0  0  0  0
  2 18  2  0  0  0  0
  2 14  1  0  0  0  0
  3 19  2  0  0  0  0
  4  1  2  0  0  0  0
  6  8  1  0  0  0  0
  6 21  1  0  0  0  0
  7 16  1  6  0  0  0
  7 30  1  0  0  0  0
  8 12  1  0  0  0  0
 10 15  1  6  0  0  0
 10  7  1  0  0  0  0
 10 25  1  0  0  0  0
 11  3  1  0  0  0  0
 12  9  1  0  0  0  0
 12  5  2  0  0  0  0
 13  8  2  0  0  0  0
 13  4  1  0  0  0  0
 19 28  1  0  0  0  0
 20 14  2  0  0  0  0
 21 17  1  6  0  0  0
 21  9  1  0  0  0  0
 22  1  1  6  0  0  0
 22  2  1  0  0  0  0
 23  4  1  0  0  0  0
 24 11  2  0  0  0  0
 25 11  1  1  0  0  0
 25 23  1  0  0  0  0
 26 15  1  0  0  0  0
 26 16  1  0  0  0  0
 27 30  2  0  0  0  0
 28 20  1  1  0  0  0
 29 19  1  6  0  0  0
 29 28  1  0  0  0  0
 29 22  1  0  0  0  0
 30 13  1  0  0  0  0
M  END
>  <MODEL>
7

>  <REMARK>
 VINA RESULT:      -4.3      2.986      7.309
  Name = 
  0 active torsions:
  status: ('A' for Active; 'I' for Inactive)
                            x       y       z     vdW  Elec       q    Type
                         _______ _______ _______ _____ _____    ______ ____

>  <TORSDO>
F 0

$$$$
=
 OpenBabel11052421433D

 30 36  0  0  1  0  0  0  0  0999 V2000
  160.8490  210.4960  153.5780 C   0  0  0  0  0  0  0  0  0  0  0  0
  161.9630  209.7790  155.7440 C   0  0  0  0  0  0  0  0  0  0  0  0
  160.8310  206.2810  154.4540 N   0  0  0  0  0  0  0  0  0  0  0  0
  161.2960  209.6780  152.5270 C   0  0  0  0  0  0  0  0  0  0  0  0
  160.4290  211.8050  153.3160 C   0  0  0  0  0  3  0  0  0  0  0  0
  160.7780  212.3020  149.3810 S   0  0  0  0  0  0  0  0  0  0  0  0
  162.6800  208.1560  150.2480 C   0  0  1  0  0  3  0  0  0  0  0  0
  160.8370  211.4640  150.9620 C   0  0  0  0  0  0  0  0  0  0  0  0
  160.0640  213.5810  151.6370 N   0  0  0  0  0  2  0  0  0  0  0  0
  162.2530  206.9850  151.0300 N   0  0  2  0  0  0  0  0  0  0  0  0
  161.1980  206.1120  153.0750 C   0  0  0  0  0  0  0  0  0  0  0  0
  160.4560  212.2750  152.0050 C   0  0  0  0  0  0  0  0  0  0  0  0
  161.2590  210.1380  151.1910 C   0  0  0  0  0  0  0  0  0  0  0  0
  161.9390  208.9900  156.9300 N   0  0  0  0  0  0  0  0  0  0  0  0
  161.6570  206.1460  150.0180 C   0  0  0  0  0  2  0  0  0  0  0  0
  163.1020  207.7030  148.9830 O   0  0  0  0  0  0  0  0  0  0  0  0
  158.7470  214.1270  149.6740 C   0  0  0  0  0  1  0  0  0  0  0  0
  163.0080  210.4090  155.4300 O   0  0  0  0  0  0  0  0  0  0  0  0
  160.2980  207.3260  155.0110 C   0  0  0  0  0  0  0  0  0  0  0  0
  160.9400  208.2090  157.2070 C   0  0  0  0  0  3  0  0  0  0  0  0
  160.1340  213.8190  150.2020 C   0  0  2  0  0  3  0  0  0  0  0  0
  160.6910  209.9480  154.9680 C   0  0  2  0  0  3  0  0  0  0  0  0
  161.7310  208.3980  152.8390 O   0  0  0  0  0  0  0  0  0  0  0  0
  161.4460  204.9450  152.6670 O   0  0  0  0  0  0  0  0  0  0  0  0
  161.2950  207.2690  152.1100 C   0  0  1  0  0  3  0  0  0  0  0  0
  162.4130  206.4950  148.7590 C   0  0  0  0  0  2  0  0  0  0  0  0
  161.0070  209.3250  148.9790 O   0  0  0  0  0  0  0  0  0  0  0  0
  159.7610  207.9990  156.2800 C   0  0  1  0  0  3  0  0  0  0  0  0
  159.7060  208.7540  155.0490 C   0  0  2  0  0  3  0  0  0  0  0  0
  161.6170  209.2300  150.0780 C   0  0  0  0  0  0  0  0  0  0  0  0
  2 14  1  0  0  0  0
  3 19  2  0  0  0  0
  4 23  1  0  0  0  0
  4  1  2  0  0  0  0
  5  1  1  0  0  0  0
  6 21  1  0  0  0  0
  6  8  1  0  0  0  0
  7 16  1  6  0  0  0
  7 10  1  0  0  0  0
  8 13  2  0  0  0  0
  8 12  1  0  0  0  0
  9 12  1  0  0  0  0
 10 15  1  6  0  0  0
 10 25  1  0  0  0  0
 11  3  1  0  0  0  0
 12  5  2  0  0  0  0
 13  4  1  0  0  0  0
 14 20  2  0  0  0  0
 18  2  2  0  0  0  0
 19 28  1  0  0  0  0
 21 17  1  6  0  0  0
 21  9  1  0  0  0  0
 22  1  1  6  0  0  0
 22 29  1  0  0  0  0
 22  2  1  0  0  0  0
 24 11  2  0  0  0  0
 25 23  1  1  0  0  0
 25 11  1  0  0  0  0
 26 16  1  0  0  0  0
 26 15  1  0  0  0  0
 27 30  2  0  0  0  0
 28 20  1  1  0  0  0
 29 19  1  6  0  0  0
 29 28  1  0  0  0  0
 30  7  1  0  0  0  0
 30 13  1  0  0  0  0
M  END
>  <MODEL>
8

>  <REMARK>
 VINA RESULT:      -4.0      2.782      7.170
  Name = 
  0 active torsions:
  status: ('A' for Active; 'I' for Inactive)
                            x       y       z     vdW  Elec       q    Type
                         _______ _______ _______ _____ _____    ______ ____

>  <TORSDO>
F 0

$$$$
=
 OpenBabel11052421433D

 30 36  0  0  1  0  0  0  0  0999 V2000
  161.3160  211.9500  148.9030 C   0  0  0  0  0  0  0  0  0  0  0  0
  162.0940  213.5270  147.0700 C   0  0  0  0  0  0  0  0  0  0  0  0
  158.2630  213.6170  146.3650 N   0  0  0  0  0  0  0  0  0  0  0  0
  160.2340  212.5270  149.5890 C   0  0  0  0  0  0  0  0  0  0  0  0
  162.1570  211.0440  149.5570 C   0  0  0  0  0  3  0  0  0  0  0  0
  160.7020  210.6600  153.2430 S   0  0  0  0  0  0  0  0  0  0  0  0
  158.2060  214.0640  151.3070 C   0  0  1  0  0  3  0  0  0  0  0  0
  160.8110  211.2350  151.5510 C   0  0  0  0  0  0  0  0  0  0  0  0
  162.6940  209.8260  151.6390 N   0  0  0  0  0  2  0  0  0  0  0  0
  157.5150  214.2110  150.0170 N   0  0  2  0  0  0  0  0  0  0  0  0
  157.5330  213.8350  147.5840 C   0  0  0  0  0  0  0  0  0  0  0  0
  161.9000  210.7210  150.8870 C   0  0  0  0  0  0  0  0  0  0  0  0
  159.9410  212.1460  150.9180 C   0  0  0  0  0  0  0  0  0  0  0  0
  162.0260  213.9540  145.7130 N   0  0  0  0  0  0  0  0  0  0  0  0
  156.1610  213.8410  150.3550 C   0  0  0  0  0  2  0  0  0  0  0  0
  157.3140  214.4530  152.3250 O   0  0  0  0  0  0  0  0  0  0  0  0
  161.8220  208.1540  153.1660 C   0  0  0  0  0  1  0  0  0  0  0  0
  162.7330  214.2110  147.9130 O   0  0  0  0  0  0  0  0  0  0  0  0
  159.2640  212.8120  146.1730 C   0  0  0  0  0  0  0  0  0  0  0  0
  161.2550  213.3640  144.8520 C   0  0  0  0  0  3  0  0  0  0  0  0
  162.1950  209.6120  152.9910 C   0  0  2  0  0  3  0  0  0  0  0  0
  161.5130  212.1930  147.4330 C   0  0  2  0  0  3  0  0  0  0  0  0
  159.4460  213.4440  148.9090 O   0  0  0  0  0  0  0  0  0  0  0  0
  156.4310  214.4430  147.5140 O   0  0  0  0  0  0  0  0  0  0  0  0
  158.0350  213.3670  148.9290 C   0  0  1  0  0  3  0  0  0  0  0  0
  156.0220  214.2390  151.8040 C   0  0  0  0  0  2  0  0  0  0  0  0
  158.1010  211.9250  152.3980 O   0  0  0  0  0  0  0  0  0  0  0  0
  160.3110  212.2360  145.2110 C   0  0  1  0  0  3  0  0  0  0  0  0
  160.3070  211.7430  146.5690 C   0  0  2  0  0  3  0  0  0  0  0  0
  158.7300  212.6650  151.5950 C   0  0  0  0  0  0  0  0  0  0  0  0
  1  5  2  0  0  0  0
  1  4  1  0  0  0  0
  2 18  2  0  0  0  0
  3 11  1  0  0  0  0
  4 13  2  0  0  0  0
  5 12  1  0  0  0  0
  7 30  1  1  0  0  0
  7 16  1  0  0  0  0
  8  6  1  0  0  0  0
  9 21  1  0  0  0  0
 10 15  1  1  0  0  0
 10  7  1  0  0  0  0
 12  8  2  0  0  0  0
 12  9  1  0  0  0  0
 13  8  1  0  0  0  0
 13 30  1  0  0  0  0
 14  2  1  0  0  0  0
 15 26  1  0  0  0  0
 19  3  2  0  0  0  0
 20 14  2  0  0  0  0
 21 17  1  6  0  0  0
 21  6  1  0  0  0  0
 22  2  1  1  0  0  0
 22  1  1  0  0  0  0
 23 25  1  0  0  0  0
 23  4  1  0  0  0  0
 24 11  2  0  0  0  0
 25 11  1  6  0  0  0
 25 10  1  0  0  0  0
 26 16  1  0  0  0  0
 28 20  1  1  0  0  0
 28 19  1  0  0  0  0
 28 29  1  0  0  0  0
 29 19  1  1  0  0  0
 29 22  1  0  0  0  0
 30 27  2  0  0  0  0
M  END
>  <MODEL>
9

>  <REMARK>
 VINA RESULT:      -3.5      2.692      3.868
  Name = 
  0 active torsions:
  status: ('A' for Active; 'I' for Inactive)
                            x       y       z     vdW  Elec       q    Type
                         _______ _______ _______ _____ _____    ______ ____

>  <TORSDO>
F 0

$$$$
