=
 OpenBabel11052423143D

 27 29  0  0  1  0  0  0  0  0999 V2000
  161.5580  206.4240  149.7640 C   0  0  2  0  0  3  0  0  0  0  0  0
  160.9390  202.2570  150.6430 C   0  0  0  0  0  3  0  0  0  0  0  0
  161.3550  204.9630  150.0450 C   0  0  0  0  0  0  0  0  0  0  0  0
  160.8770  204.0850  149.0590 C   0  0  0  0  0  3  0  0  0  0  0  0
  160.6730  202.7360  149.3580 C   0  0  0  0  0  3  0  0  0  0  0  0
  161.4100  203.1280  151.6300 C   0  0  0  0  0  3  0  0  0  0  0  0
  161.6150  204.4780  151.3320 C   0  0  0  0  0  3  0  0  0  0  0  0
  162.6700  206.7120  148.3400 S   0  0  0  0  0  0  0  0  0  0  0  0
  161.8580  204.5060  144.8810 C   0  0  0  0  0  2  0  0  0  0  0  0
  160.8700  205.5150  144.3040 C   0  0  0  0  0  2  0  0  0  0  0  0
  161.6830  205.7430  147.1430 C   0  0  1  0  0  3  0  0  0  0  0  0
  163.6900  204.4850  146.4530 C   0  0  0  0  0  2  0  0  0  0  0  0
  159.8960  205.9720  145.3820 C   0  0  0  0  0  2  0  0  0  0  0  0
  160.6660  206.6800  146.4910 C   0  0  0  0  0  2  0  0  0  0  0  0
  162.5420  205.0610  146.0980 C   0  0  0  0  0  0  0  0  0  0  0  0
  162.0210  207.1430  150.9410 N   0  0  0  0  0  2  0  0  0  0  0  0
  160.9790  208.0940  151.2910 C   0  0  0  0  0  2  0  0  0  0  0  0
  160.8350  207.2890  154.9800 C   0  0  0  0  0  3  0  0  0  0  0  0
  160.9260  208.6820  156.9410 O   0  0  0  0  0  1  0  0  0  0  0  0
  161.0470  209.6950  154.7460 C   0  0  0  0  0  0  0  0  0  0  0  0
  161.1390  210.9110  155.3440 F   0  0  0  0  0  0  0  0  0  0  0  0
  161.0520  209.5640  153.3360 C   0  0  0  0  0  0  0  0  0  0  0  0
  160.9360  208.5570  155.5560 C   0  0  0  0  0  0  0  0  0  0  0  0
  160.9460  208.2790  152.7720 C   0  0  0  0  0  0  0  0  0  0  0  0
  160.8410  207.1500  153.5920 C   0  0  0  0  0  3  0  0  0  0  0  0
  160.1720  211.6760  152.3240 C   0  0  0  0  0  1  0  0  0  0  0  0
  161.1590  210.6650  152.4690 O   0  0  0  0  0  0  0  0  0  0  0  0
  1  8  1  6  0  0  0
  1  3  1  0  0  0  0
  1 16  1  0  0  0  0
  2  6  1  0  0  0  0
  3  7  1  0  0  0  0
  4  5  1  0  0  0  0
  4  3  2  0  0  0  0
  5  2  2  0  0  0  0
  7  6  2  0  0  0  0
  9 15  1  0  0  0  0
 10  9  1  0  0  0  0
 10 13  1  0  0  0  0
 11  8  1  1  0  0  0
 13 14  1  0  0  0  0
 14 11  1  0  0  0  0
 15 12  2  0  0  0  0
 15 11  1  0  0  0  0
 16 17  1  0  0  0  0
 17 24  1  0  0  0  0
 18 23  1  0  0  0  0
 20 21  1  0  0  0  0
 20 23  2  0  0  0  0
 22 20  1  0  0  0  0
 23 19  1  0  0  0  0
 24 22  2  0  0  0  0
 24 25  1  0  0  0  0
 25 18  2  0  0  0  0
 26 27  1  0  0  0  0
 27 22  1  0  0  0  0
M  END
>  <MODEL>
1

>  <REMARK>
 VINA RESULT:      -8.3      0.000      0.000
  Name = 
  7 active torsions:
  status: ('A' for Active; 'I' for Inactive)
    1  A    between atoms: S_1  and  C_15
    2  A    between atoms: S_1  and  C_18
    3  A    between atoms: N_2  and  C_6
    4  A    between atoms: N_2  and  C_15
    5  A    between atoms: C_6  and  C_17
    6  A    between atoms: C_9  and  C_15
    7  A    between atoms: C_14  and  O_19
                            x       y       z     vdW  Elec       q    Type
                         _______ _______ _______ _____ _____    ______ ____

>  <TORSDO>
F 7

$$$$
=
 OpenBabel11052423143D

 27 29  0  0  1  0  0  0  0  0999 V2000
  160.7280  204.9500  149.7400 C   0  0  2  0  0  3  0  0  0  0  0  0
  161.1040  200.7030  149.1550 C   0  0  0  0  0  3  0  0  0  0  0  0
  160.8790  203.4740  149.5150 C   0  0  0  0  0  0  0  0  0  0  0  0
  160.8870  202.9250  148.2220 C   0  0  0  0  0  3  0  0  0  0  0  0
  161.0020  201.5440  148.0440 C   0  0  0  0  0  3  0  0  0  0  0  0
  161.0910  201.2430  150.4440 C   0  0  0  0  0  3  0  0  0  0  0  0
  160.9760  202.6250  150.6230 C   0  0  0  0  0  3  0  0  0  0  0  0
  161.9350  205.9290  148.7740 S   0  0  0  0  0  0  0  0  0  0  0  0
  162.1930  204.9600  144.7150 C   0  0  0  0  0  2  0  0  0  0  0  0
  161.1870  206.0120  144.2590 C   0  0  0  0  0  2  0  0  0  0  0  0
  161.3750  205.3380  147.1370 C   0  0  1  0  0  3  0  0  0  0  0  0
  163.6570  204.5720  146.5940 C   0  0  0  0  0  2  0  0  0  0  0  0
  159.9580  205.9890  145.1580 C   0  0  0  0  0  2  0  0  0  0  0  0
  160.3680  206.3460  146.5820 C   0  0  0  0  0  2  0  0  0  0  0  0
  162.5230  205.1290  146.1700 C   0  0  0  0  0  0  0  0  0  0  0  0
  160.7920  205.2920  151.1530 N   0  0  0  0  0  2  0  0  0  0  0  0
  161.5170  206.5470  151.2500 C   0  0  0  0  0  2  0  0  0  0  0  0
  160.7960  207.0570  154.9250 C   0  0  0  0  0  3  0  0  0  0  0  0
  160.3200  209.0310  156.2170 O   0  0  0  0  0  1  0  0  0  0  0  0
  160.7070  209.2240  153.8360 C   0  0  0  0  0  0  0  0  0  0  0  0
  160.5130  210.5640  153.9420 F   0  0  0  0  0  0  0  0  0  0  0  0
  160.9970  208.6170  152.5900 C   0  0  0  0  0  0  0  0  0  0  0  0
  160.6070  208.4390  154.9930 C   0  0  0  0  0  0  0  0  0  0  0  0
  161.1800  207.2220  152.5380 C   0  0  0  0  0  0  0  0  0  0  0  0
  161.0830  206.4510  153.7020 C   0  0  0  0  0  3  0  0  0  0  0  0
  162.2380  210.1270  151.0280 C   0  0  0  0  0  1  0  0  0  0  0  0
  161.1080  209.3480  151.3940 O   0  0  0  0  0  0  0  0  0  0  0  0
  1  8  1  6  0  0  0
  1 16  1  0  0  0  0
  2  6  1  0  0  0  0
  3  1  1  0  0  0  0
  3  7  1  0  0  0  0
  4  3  2  0  0  0  0
  5  4  1  0  0  0  0
  5  2  2  0  0  0  0
  6  7  2  0  0  0  0
  9 15  1  0  0  0  0
 10  9  1  0  0  0  0
 10 13  1  0  0  0  0
 11  8  1  1  0  0  0
 13 14  1  0  0  0  0
 14 11  1  0  0  0  0
 15 12  2  0  0  0  0
 15 11  1  0  0  0  0
 16 17  1  0  0  0  0
 17 24  1  0  0  0  0
 18 23  1  0  0  0  0
 20 21  1  0  0  0  0
 20 23  2  0  0  0  0
 22 20  1  0  0  0  0
 23 19  1  0  0  0  0
 24 22  2  0  0  0  0
 24 25  1  0  0  0  0
 25 18  2  0  0  0  0
 26 27  1  0  0  0  0
 27 22  1  0  0  0  0
M  END
>  <MODEL>
2

>  <REMARK>
 VINA RESULT:      -8.1      1.158      1.425
  Name = 
  7 active torsions:
  status: ('A' for Active; 'I' for Inactive)
    1  A    between atoms: S_1  and  C_15
    2  A    between atoms: S_1  and  C_18
    3  A    between atoms: N_2  and  C_6
    4  A    between atoms: N_2  and  C_15
    5  A    between atoms: C_6  and  C_17
    6  A    between atoms: C_9  and  C_15
    7  A    between atoms: C_14  and  O_19
                            x       y       z     vdW  Elec       q    Type
                         _______ _______ _______ _____ _____    ______ ____

>  <TORSDO>
F 7

$$$$
=
 OpenBabel11052423143D

 27 29  0  0  1  0  0  0  0  0999 V2000
  161.6590  206.2110  148.5450 C   0  0  2  0  0  3  0  0  0  0  0  0
  161.4630  205.4220  144.3190 C   0  0  0  0  0  3  0  0  0  0  0  0
  161.5800  205.9630  147.0670 C   0  0  0  0  0  0  0  0  0  0  0  0
  160.4480  206.3270  146.3200 C   0  0  0  0  0  3  0  0  0  0  0  0
  160.3920  206.0590  144.9500 C   0  0  0  0  0  3  0  0  0  0  0  0
  162.5900  205.0520  145.0580 C   0  0  0  0  0  3  0  0  0  0  0  0
  162.6470  205.3200  146.4290 C   0  0  0  0  0  3  0  0  0  0  0  0
  160.2870  205.4170  149.4580 S   0  0  0  0  0  0  0  0  0  0  0  0
  161.2340  201.3450  149.5370 C   0  0  0  0  0  2  0  0  0  0  0  0
  160.9980  201.1780  151.0350 C   0  0  0  0  0  2  0  0  0  0  0  0
  161.2160  203.9030  149.8960 C   0  0  1  0  0  3  0  0  0  0  0  0
  160.5570  202.8410  147.7680 C   0  0  0  0  0  2  0  0  0  0  0  0
  161.6600  202.3160  151.8010 C   0  0  0  0  0  2  0  0  0  0  0  0
  161.0240  203.6390  151.3890 C   0  0  0  0  0  2  0  0  0  0  0  0
  160.7950  202.7030  149.0720 C   0  0  0  0  0  0  0  0  0  0  0  0
  161.7360  207.6310  148.8530 N   0  0  0  0  0  2  0  0  0  0  0  0
  162.7090  207.7780  149.9210 C   0  0  0  0  0  2  0  0  0  0  0  0
  160.9290  207.7980  153.2540 C   0  0  0  0  0  3  0  0  0  0  0  0
  160.1830  209.5920  154.6750 O   0  0  0  0  0  1  0  0  0  0  0  0
  161.2890  210.1020  152.5840 C   0  0  0  0  0  0  0  0  0  0  0  0
  161.1420  211.4240  152.8610 F   0  0  0  0  0  0  0  0  0  0  0  0
  161.9130  209.6640  151.3910 C   0  0  0  0  0  0  0  0  0  0  0  0
  160.8000  209.1660  153.5050 C   0  0  0  0  0  0  0  0  0  0  0  0
  162.0310  208.2820  151.1520 C   0  0  0  0  0  0  0  0  0  0  0  0
  161.5430  207.3580  152.0820 C   0  0  0  0  0  3  0  0  0  0  0  0
  161.6250  211.3140  149.5310 C   0  0  0  0  0  1  0  0  0  0  0  0
  162.4220  210.5520  150.4270 O   0  0  0  0  0  0  0  0  0  0  0  0
  1 16  1  6  0  0  0
  1  8  1  0  0  0  0
  2  5  2  0  0  0  0
  2  6  1  0  0  0  0
  3  1  1  0  0  0  0
  4  3  2  0  0  0  0
  5  4  1  0  0  0  0
  6  7  2  0  0  0  0
  7  3  1  0  0  0  0
  9 10  1  0  0  0  0
 10 13  1  0  0  0  0
 11  8  1  6  0  0  0
 11 14  1  0  0  0  0
 12 15  2  0  0  0  0
 14 13  1  0  0  0  0
 15  9  1  0  0  0  0
 15 11  1  0  0  0  0
 16 17  1  0  0  0  0
 17 24  1  0  0  0  0
 18 23  1  0  0  0  0
 20 21  1  0  0  0  0
 20 23  2  0  0  0  0
 22 20  1  0  0  0  0
 23 19  1  0  0  0  0
 24 22  2  0  0  0  0
 24 25  1  0  0  0  0
 25 18  2  0  0  0  0
 26 27  1  0  0  0  0
 27 22  1  0  0  0  0
M  END
>  <MODEL>
3

>  <REMARK>
 VINA RESULT:      -8.0      1.548      4.217
  Name = 
  7 active torsions:
  status: ('A' for Active; 'I' for Inactive)
    1  A    between atoms: S_1  and  C_15
    2  A    between atoms: S_1  and  C_18
    3  A    between atoms: N_2  and  C_6
    4  A    between atoms: N_2  and  C_15
    5  A    between atoms: C_6  and  C_17
    6  A    between atoms: C_9  and  C_15
    7  A    between atoms: C_14  and  O_19
                            x       y       z     vdW  Elec       q    Type
                         _______ _______ _______ _____ _____    ______ ____

>  <TORSDO>
F 7

$$$$
=
 OpenBabel11052423143D

 27 29  0  0  1  0  0  0  0  0999 V2000
  161.7420  206.1680  148.5540 C   0  0  2  0  0  3  0  0  0  0  0  0
  161.4380  205.4760  144.3180 C   0  0  0  0  0  3  0  0  0  0  0  0
  161.6260  205.9540  147.0730 C   0  0  0  0  0  0  0  0  0  0  0  0
  160.4790  206.3440  146.3630 C   0  0  0  0  0  3  0  0  0  0  0  0
  160.3880  206.1070  144.9890 C   0  0  0  0  0  3  0  0  0  0  0  0
  162.5800  205.0800  145.0210 C   0  0  0  0  0  3  0  0  0  0  0  0
  162.6710  205.3170  146.3960 C   0  0  0  0  0  3  0  0  0  0  0  0
  160.3580  205.4070  149.4790 S   0  0  0  0  0  0  0  0  0  0  0  0
  161.2090  201.3130  149.4840 C   0  0  0  0  0  2  0  0  0  0  0  0
  160.9550  201.1220  150.9760 C   0  0  0  0  0  2  0  0  0  0  0  0
  161.2470  203.8640  149.8940 C   0  0  1  0  0  3  0  0  0  0  0  0
  160.5840  202.8610  147.7390 C   0  0  0  0  0  2  0  0  0  0  0  0
  161.6360  202.2290  151.7700 C   0  0  0  0  0  2  0  0  0  0  0  0
  161.0350  203.5740  151.3800 C   0  0  0  0  0  2  0  0  0  0  0  0
  160.8060  202.6910  149.0430 C   0  0  0  0  0  0  0  0  0  0  0  0
  161.8790  207.5770  148.8890 N   0  0  0  0  0  2  0  0  0  0  0  0
  162.4960  207.6400  150.2040 C   0  0  0  0  0  2  0  0  0  0  0  0
  161.5050  211.1320  151.2520 C   0  0  0  0  0  3  0  0  0  0  0  0
  160.1650  211.9510  153.0760 O   0  0  0  0  0  1  0  0  0  0  0  0
  160.5280  209.5710  152.8320 C   0  0  0  0  0  0  0  0  0  0  0  0
  159.7720  209.3710  153.9430 F   0  0  0  0  0  0  0  0  0  0  0  0
  161.1100  208.4870  152.1300 C   0  0  0  0  0  0  0  0  0  0  0  0
  160.7320  210.8840  152.3880 C   0  0  0  0  0  0  0  0  0  0  0  0
  161.8900  208.7550  150.9890 C   0  0  0  0  0  0  0  0  0  0  0  0
  162.0810  210.0710  150.5540 C   0  0  0  0  0  3  0  0  0  0  0  0
  161.4750  206.5870  153.7170 C   0  0  0  0  0  1  0  0  0  0  0  0
  160.9450  207.1480  152.5250 O   0  0  0  0  0  0  0  0  0  0  0  0
  1 16  1  6  0  0  0
  1  8  1  0  0  0  0
  2  5  2  0  0  0  0
  2  6  1  0  0  0  0
  3  1  1  0  0  0  0
  4  3  2  0  0  0  0
  5  4  1  0  0  0  0
  6  7  2  0  0  0  0
  7  3  1  0  0  0  0
  9 10  1  0  0  0  0
 10 13  1  0  0  0  0
 11  8  1  6  0  0  0
 11 14  1  0  0  0  0
 12 15  2  0  0  0  0
 14 13  1  0  0  0  0
 15  9  1  0  0  0  0
 15 11  1  0  0  0  0
 16 17  1  0  0  0  0
 17 24  1  0  0  0  0
 18 23  1  0  0  0  0
 20 21  1  0  0  0  0
 22 27  1  0  0  0  0
 22 20  1  0  0  0  0
 23 20  2  0  0  0  0
 23 19  1  0  0  0  0
 24 22  2  0  0  0  0
 25 24  1  0  0  0  0
 25 18  2  0  0  0  0
 27 26  1  0  0  0  0
M  END
>  <MODEL>
4

>  <REMARK>
 VINA RESULT:      -8.0      1.632      4.616
  Name = 
  7 active torsions:
  status: ('A' for Active; 'I' for Inactive)
    1  A    between atoms: S_1  and  C_15
    2  A    between atoms: S_1  and  C_18
    3  A    between atoms: N_2  and  C_6
    4  A    between atoms: N_2  and  C_15
    5  A    between atoms: C_6  and  C_17
    6  A    between atoms: C_9  and  C_15
    7  A    between atoms: C_14  and  O_19
                            x       y       z     vdW  Elec       q    Type
                         _______ _______ _______ _____ _____    ______ ____

>  <TORSDO>
F 7

$$$$
=
 OpenBabel11052423143D

 27 29  0  0  1  0  0  0  0  0999 V2000
  161.3530  209.2500  153.5700 C   0  0  2  0  0  3  0  0  0  0  0  0
  160.4720  207.2210  157.2610 C   0  0  0  0  0  3  0  0  0  0  0  0
  161.0430  208.5170  154.8420 C   0  0  0  0  0  0  0  0  0  0  0  0
  159.9770  207.6070  154.9240 C   0  0  0  0  0  3  0  0  0  0  0  0
  159.6950  206.9600  156.1290 C   0  0  0  0  0  3  0  0  0  0  0  0
  161.5310  208.1300  157.1870 C   0  0  0  0  0  3  0  0  0  0  0  0
  161.8130  208.7780  155.9810 C   0  0  0  0  0  3  0  0  0  0  0  0
  161.1100  211.0560  153.7290 S   0  0  0  0  0  0  0  0  0  0  0  0
  157.0860  212.0540  154.2750 C   0  0  0  0  0  2  0  0  0  0  0  0
  157.2440  212.4670  155.7350 C   0  0  0  0  0  2  0  0  0  0  0  0
  159.4180  210.9490  154.4140 C   0  0  1  0  0  3  0  0  0  0  0  0
  158.4730  211.8300  152.3120 C   0  0  0  0  0  2  0  0  0  0  0  0
  158.0700  211.4330  156.4870 C   0  0  0  0  0  2  0  0  0  0  0  0
  159.4690  211.3680  155.8840 C   0  0  0  0  0  2  0  0  0  0  0  0
  158.4230  211.7930  153.6430 C   0  0  0  0  0  0  0  0  0  0  0  0
  160.6000  208.7200  152.4420 N   0  0  0  0  0  2  0  0  0  0  0  0
  161.5730  208.2550  151.4680 C   0  0  0  0  0  2  0  0  0  0  0  0
  161.2180  204.5560  152.1580 C   0  0  0  0  0  3  0  0  0  0  0  0
  160.8120  202.6770  150.7120 O   0  0  0  0  0  1  0  0  0  0  0  0
  160.9730  204.8990  149.7690 C   0  0  0  0  0  0  0  0  0  0  0  0
  160.7620  204.3620  148.5390 F   0  0  0  0  0  0  0  0  0  0  0  0
  161.1700  206.2910  149.9420 C   0  0  0  0  0  0  0  0  0  0  0  0
  161.0010  204.0430  150.8780 C   0  0  0  0  0  0  0  0  0  0  0  0
  161.3920  206.7910  151.2390 C   0  0  0  0  0  0  0  0  0  0  0  0
  161.4120  205.9260  152.3390 C   0  0  0  0  0  3  0  0  0  0  0  0
  162.1980  207.3410  147.9160 C   0  0  0  0  0  1  0  0  0  0  0  0
  161.1550  207.2010  148.8700 O   0  0  0  0  0  0  0  0  0  0  0  0
  1 16  1  6  0  0  0
  1  8  1  0  0  0  0
  1  3  1  0  0  0  0
  3  4  2  0  0  0  0
  3  7  1  0  0  0  0
  4  5  1  0  0  0  0
  5  2  2  0  0  0  0
  6  2  1  0  0  0  0
  7  6  2  0  0  0  0
  9 10  1  0  0  0  0
 10 13  1  0  0  0  0
 11  8  1  6  0  0  0
 11 14  1  0  0  0  0
 12 15  2  0  0  0  0
 14 13  1  0  0  0  0
 15  9  1  0  0  0  0
 15 11  1  0  0  0  0
 17 16  1  0  0  0  0
 18 25  1  0  0  0  0
 19 23  1  0  0  0  0
 20 22  2  0  0  0  0
 20 23  1  0  0  0  0
 21 20  1  0  0  0  0
 22 24  1  0  0  0  0
 23 18  2  0  0  0  0
 24 17  1  0  0  0  0
 24 25  2  0  0  0  0
 26 27  1  0  0  0  0
 27 22  1  0  0  0  0
M  END
>  <MODEL>
5

>  <REMARK>
 VINA RESULT:      -7.7      3.545      7.954
  Name = 
  7 active torsions:
  status: ('A' for Active; 'I' for Inactive)
    1  A    between atoms: S_1  and  C_15
    2  A    between atoms: S_1  and  C_18
    3  A    between atoms: N_2  and  C_6
    4  A    between atoms: N_2  and  C_15
    5  A    between atoms: C_6  and  C_17
    6  A    between atoms: C_9  and  C_15
    7  A    between atoms: C_14  and  O_19
                            x       y       z     vdW  Elec       q    Type
                         _______ _______ _______ _____ _____    ______ ____

>  <TORSDO>
F 7

$$$$
=
 OpenBabel11052423143D

 27 29  0  0  1  0  0  0  0  0999 V2000
  160.8520  205.4270  149.7550 C   0  0  2  0  0  3  0  0  0  0  0  0
  161.0820  201.1390  150.0350 C   0  0  0  0  0  3  0  0  0  0  0  0
  160.9510  203.9310  149.8300 C   0  0  0  0  0  0  0  0  0  0  0  0
  160.8420  203.1300  148.6810 C   0  0  0  0  0  3  0  0  0  0  0  0
  160.9100  201.7390  148.7850 C   0  0  0  0  0  3  0  0  0  0  0  0
  161.1850  201.9310  151.1820 C   0  0  0  0  0  3  0  0  0  0  0  0
  161.1170  203.3230  151.0790 C   0  0  0  0  0  3  0  0  0  0  0  0
  162.1270  206.1560  148.6650 S   0  0  0  0  0  0  0  0  0  0  0  0
  162.1490  204.7990  144.7100 C   0  0  0  0  0  2  0  0  0  0  0  0
  161.1820  205.8600  144.1950 C   0  0  0  0  0  2  0  0  0  0  0  0
  161.4630  205.4480  147.1150 C   0  0  1  0  0  3  0  0  0  0  0  0
  163.6740  204.5040  146.5580 C   0  0  0  0  0  2  0  0  0  0  0  0
  159.9950  205.9920  145.1410 C   0  0  0  0  0  2  0  0  0  0  0  0
  160.4880  206.4570  146.5070 C   0  0  0  0  0  2  0  0  0  0  0  0
  162.5530  205.0840  146.1280 C   0  0  0  0  0  0  0  0  0  0  0  0
  160.8840  206.0380  151.0760 N   0  0  0  0  0  2  0  0  0  0  0  0
  162.0370  206.9220  151.1030 C   0  0  0  0  0  2  0  0  0  0  0  0
  161.5130  210.6620  151.2290 C   0  0  0  0  0  3  0  0  0  0  0  0
  160.4390  212.0870  152.8430 O   0  0  0  0  0  1  0  0  0  0  0  0
  160.5290  209.7000  153.2280 C   0  0  0  0  0  0  0  0  0  0  0  0
  159.8630  209.8920  154.3960 F   0  0  0  0  0  0  0  0  0  0  0  0
  160.9300  208.4080  152.8100 C   0  0  0  0  0  0  0  0  0  0  0  0
  160.8260  210.8170  152.4350 C   0  0  0  0  0  0  0  0  0  0  0  0
  161.6240  208.2700  151.5940 C   0  0  0  0  0  0  0  0  0  0  0  0
  161.9100  209.3930  150.8090 C   0  0  0  0  0  3  0  0  0  0  0  0
  160.9260  207.1090  154.9500 C   0  0  0  0  0  1  0  0  0  0  0  0
  160.6640  207.2490  153.5610 O   0  0  0  0  0  0  0  0  0  0  0  0
  1  8  1  6  0  0  0
  1  3  1  0  0  0  0
  1 16  1  0  0  0  0
  2  6  1  0  0  0  0
  3  7  1  0  0  0  0
  4  5  1  0  0  0  0
  4  3  2  0  0  0  0
  5  2  2  0  0  0  0
  7  6  2  0  0  0  0
  9 15  1  0  0  0  0
 10  9  1  0  0  0  0
 10 13  1  0  0  0  0
 11  8  1  1  0  0  0
 13 14  1  0  0  0  0
 14 11  1  0  0  0  0
 15 12  2  0  0  0  0
 15 11  1  0  0  0  0
 16 17  1  0  0  0  0
 17 24  1  0  0  0  0
 18 23  1  0  0  0  0
 20 21  1  0  0  0  0
 22 20  1  0  0  0  0
 22 27  1  0  0  0  0
 23 19  1  0  0  0  0
 23 20  2  0  0  0  0
 24 22  2  0  0  0  0
 25 18  2  0  0  0  0
 25 24  1  0  0  0  0
 27 26  1  0  0  0  0
M  END
>  <MODEL>
6

>  <REMARK>
 VINA RESULT:      -7.7      1.220      2.365
  Name = 
  7 active torsions:
  status: ('A' for Active; 'I' for Inactive)
    1  A    between atoms: S_1  and  C_15
    2  A    between atoms: S_1  and  C_18
    3  A    between atoms: N_2  and  C_6
    4  A    between atoms: N_2  and  C_15
    5  A    between atoms: C_6  and  C_17
    6  A    between atoms: C_9  and  C_15
    7  A    between atoms: C_14  and  O_19
                            x       y       z     vdW  Elec       q    Type
                         _______ _______ _______ _____ _____    ______ ____

>  <TORSDO>
F 7

$$$$
=
 OpenBabel11052423143D

 27 29  0  0  1  0  0  0  0  0999 V2000
  161.9260  206.7550  148.2850 C   0  0  2  0  0  3  0  0  0  0  0  0
  161.4990  204.8120  144.4690 C   0  0  0  0  0  3  0  0  0  0  0  0
  161.7710  206.1030  146.9420 C   0  0  0  0  0  0  0  0  0  0  0  0
  160.6740  206.3860  146.1110 C   0  0  0  0  0  3  0  0  0  0  0  0
  160.5420  205.7440  144.8780 C   0  0  0  0  0  3  0  0  0  0  0  0
  162.5900  204.5220  145.2940 C   0  0  0  0  0  3  0  0  0  0  0  0
  162.7230  205.1650  146.5290 C   0  0  0  0  0  3  0  0  0  0  0  0
  160.4520  206.5280  149.3440 S   0  0  0  0  0  0  0  0  0  0  0  0
  161.2460  203.0190  151.4740 C   0  0  0  0  0  2  0  0  0  0  0  0
  160.8290  203.5830  152.8280 C   0  0  0  0  0  2  0  0  0  0  0  0
  161.2710  205.4350  150.5600 C   0  0  1  0  0  3  0  0  0  0  0  0
  160.8350  203.4670  149.1380 C   0  0  0  0  0  2  0  0  0  0  0  0
  161.4330  204.9660  153.0300 C   0  0  0  0  0  2  0  0  0  0  0  0
  160.8940  205.9120  151.9630 C   0  0  0  0  0  2  0  0  0  0  0  0
  160.9110  203.9770  150.3670 C   0  0  0  0  0  0  0  0  0  0  0  0
  162.2710  208.1630  148.1670 N   0  0  0  0  0  2  0  0  0  0  0  0
  162.3330  208.6960  149.5180 C   0  0  0  0  0  2  0  0  0  0  0  0
  161.7580  212.2230  148.2870 C   0  0  0  0  0  3  0  0  0  0  0  0
  160.8110  214.1660  149.3440 O   0  0  0  0  0  1  0  0  0  0  0  0
  160.9780  212.0940  150.5810 C   0  0  0  0  0  0  0  0  0  0  0  0
  160.4170  212.7190  151.6480 F   0  0  0  0  0  0  0  0  0  0  0  0
  161.3600  210.7320  150.6410 C   0  0  0  0  0  0  0  0  0  0  0  0
  161.1820  212.8280  149.4050 C   0  0  0  0  0  0  0  0  0  0  0  0
  161.9440  210.1370  149.5060 C   0  0  0  0  0  0  0  0  0  0  0  0
  162.1370  210.8810  148.3370 C   0  0  0  0  0  3  0  0  0  0  0  0
  161.8800  210.1290  153.0140 C   0  0  0  0  0  1  0  0  0  0  0  0
  161.1840  209.9410  151.7900 O   0  0  0  0  0  0  0  0  0  0  0  0
  1 16  1  6  0  0  0
  1  8  1  0  0  0  0
  2  5  2  0  0  0  0
  2  6  1  0  0  0  0
  3  1  1  0  0  0  0
  4  3  2  0  0  0  0
  5  4  1  0  0  0  0
  6  7  2  0  0  0  0
  7  3  1  0  0  0  0
  9 10  1  0  0  0  0
 10 13  1  0  0  0  0
 11  8  1  6  0  0  0
 11 14  1  0  0  0  0
 12 15  2  0  0  0  0
 14 13  1  0  0  0  0
 15 11  1  0  0  0  0
 15  9  1  0  0  0  0
 16 17  1  0  0  0  0
 18 25  2  0  0  0  0
 18 23  1  0  0  0  0
 19 23  1  0  0  0  0
 20 22  1  0  0  0  0
 20 21  1  0  0  0  0
 22 27  1  0  0  0  0
 23 20  2  0  0  0  0
 24 17  1  0  0  0  0
 24 22  2  0  0  0  0
 25 24  1  0  0  0  0
 27 26  1  0  0  0  0
M  END
>  <MODEL>
7

>  <REMARK>
 VINA RESULT:      -7.6      2.292      5.387
  Name = 
  7 active torsions:
  status: ('A' for Active; 'I' for Inactive)
    1  A    between atoms: S_1  and  C_15
    2  A    between atoms: S_1  and  C_18
    3  A    between atoms: N_2  and  C_6
    4  A    between atoms: N_2  and  C_15
    5  A    between atoms: C_6  and  C_17
    6  A    between atoms: C_9  and  C_15
    7  A    between atoms: C_14  and  O_19
                            x       y       z     vdW  Elec       q    Type
                         _______ _______ _______ _____ _____    ______ ____

>  <TORSDO>
F 7

$$$$
=
 OpenBabel11052423143D

 27 29  0  0  1  0  0  0  0  0999 V2000
  161.8030  209.7300  150.0920 C   0  0  2  0  0  3  0  0  0  0  0  0
  161.8910  213.5430  148.1000 C   0  0  0  0  0  3  0  0  0  0  0  0
  161.8360  211.0460  149.3710 C   0  0  0  0  0  0  0  0  0  0  0  0
  162.7850  211.3120  148.3710 C   0  0  0  0  0  3  0  0  0  0  0  0
  162.8100  212.5560  147.7370 C   0  0  0  0  0  3  0  0  0  0  0  0
  160.9470  213.2870  149.0990 C   0  0  0  0  0  3  0  0  0  0  0  0
  160.9220  212.0420  149.7340 C   0  0  0  0  0  3  0  0  0  0  0  0
  162.6390  209.8040  151.7170 S   0  0  0  0  0  0  0  0  0  0  0  0
  160.0690  208.9840  154.9120 C   0  0  0  0  0  2  0  0  0  0  0  0
  160.6170  207.5840  155.1730 C   0  0  0  0  0  2  0  0  0  0  0  0
  161.3050  208.9630  152.6430 C   0  0  1  0  0  3  0  0  0  0  0  0
  160.8080  211.0380  153.8820 C   0  0  0  0  0  2  0  0  0  0  0  0
  160.7630  206.8250  153.8610 C   0  0  0  0  0  2  0  0  0  0  0  0
  161.7710  207.5440  152.9710 C   0  0  0  0  0  2  0  0  0  0  0  0
  160.9090  209.7090  153.9010 C   0  0  0  0  0  0  0  0  0  0  0  0
  162.3430  208.6520  149.2770 N   0  0  0  0  0  2  0  0  0  0  0  0
  161.2220  208.0570  148.5690 C   0  0  0  0  0  2  0  0  0  0  0  0
  160.8660  204.7910  150.4380 C   0  0  0  0  0  3  0  0  0  0  0  0
  160.9500  202.4990  149.7110 O   0  0  0  0  0  1  0  0  0  0  0  0
  161.2560  204.2770  148.0990 C   0  0  0  0  0  0  0  0  0  0  0  0
  161.4090  203.3350  147.1320 F   0  0  0  0  0  0  0  0  0  0  0  0
  161.3350  205.6590  147.8020 C   0  0  0  0  0  0  0  0  0  0  0  0
  161.0250  203.8550  149.4150 C   0  0  0  0  0  0  0  0  0  0  0  0
  161.1770  206.5900  148.8450 C   0  0  0  0  0  0  0  0  0  0  0  0
  160.9400  206.1550  150.1540 C   0  0  0  0  0  3  0  0  0  0  0  0
  160.6180  206.1110  145.4470 C   0  0  0  0  0  1  0  0  0  0  0  0
  161.5670  206.1470  146.5040 O   0  0  0  0  0  0  0  0  0  0  0  0
  1 16  1  6  0  0  0
  1  8  1  0  0  0  0
  2  6  1  0  0  0  0
  3  7  1  0  0  0  0
  3  1  1  0  0  0  0
  4  3  2  0  0  0  0
  5  2  2  0  0  0  0
  5  4  1  0  0  0  0
  6  7  2  0  0  0  0
  9 10  1  0  0  0  0
 11  8  1  1  0  0  0
 11 14  1  0  0  0  0
 11 15  1  0  0  0  0
 12 15  2  0  0  0  0
 13 10  1  0  0  0  0
 14 13  1  0  0  0  0
 15  9  1  0  0  0  0
 17 24  1  0  0  0  0
 17 16  1  0  0  0  0
 20 23  1  0  0  0  0
 21 20  1  0  0  0  0
 22 20  2  0  0  0  0
 22 24  1  0  0  0  0
 23 19  1  0  0  0  0
 23 18  2  0  0  0  0
 24 25  2  0  0  0  0
 25 18  1  0  0  0  0
 26 27  1  0  0  0  0
 27 22  1  0  0  0  0
M  END
>  <MODEL>
8

>  <REMARK>
 VINA RESULT:      -7.4      3.895      8.006
  Name = 
  7 active torsions:
  status: ('A' for Active; 'I' for Inactive)
    1  A    between atoms: S_1  and  C_15
    2  A    between atoms: S_1  and  C_18
    3  A    between atoms: N_2  and  C_6
    4  A    between atoms: N_2  and  C_15
    5  A    between atoms: C_6  and  C_17
    6  A    between atoms: C_9  and  C_15
    7  A    between atoms: C_14  and  O_19
                            x       y       z     vdW  Elec       q    Type
                         _______ _______ _______ _____ _____    ______ ____

>  <TORSDO>
F 7

$$$$
=
 OpenBabel11052423143D

 27 29  0  0  1  0  0  0  0  0999 V2000
  160.8090  204.6640  148.2700 C   0  0  2  0  0  3  0  0  0  0  0  0
  161.2030  201.7850  151.4440 C   0  0  0  0  0  3  0  0  0  0  0  0
  160.9310  203.6780  149.3950 C   0  0  0  0  0  0  0  0  0  0  0  0
  161.2920  204.0830  150.6900 C   0  0  0  0  0  3  0  0  0  0  0  0
  161.4240  203.1390  151.7110 C   0  0  0  0  0  3  0  0  0  0  0  0
  160.8490  201.3760  150.1560 C   0  0  0  0  0  3  0  0  0  0  0  0
  160.7160  202.3200  149.1330 C   0  0  0  0  0  3  0  0  0  0  0  0
  162.3360  204.7720  147.2690 S   0  0  0  0  0  0  0  0  0  0  0  0
  159.7450  203.7610  144.1480 C   0  0  0  0  0  2  0  0  0  0  0  0
  159.3130  202.4290  144.7530 C   0  0  0  0  0  2  0  0  0  0  0  0
  161.6880  203.8190  145.8500 C   0  0  1  0  0  3  0  0  0  0  0  0
  160.6740  205.8580  144.8980 C   0  0  0  0  0  2  0  0  0  0  0  0
  160.5290  201.6620  145.2560 C   0  0  0  0  0  2  0  0  0  0  0  0
  161.2080  202.4620  146.3630 C   0  0  0  0  0  2  0  0  0  0  0  0
  160.5790  204.5470  145.1180 C   0  0  0  0  0  0  0  0  0  0  0  0
  160.4020  205.9780  148.7440 N   0  0  0  0  0  2  0  0  0  0  0  0
  161.6030  206.7940  148.8070 C   0  0  0  0  0  2  0  0  0  0  0  0
  161.2140  207.7640  152.4380 C   0  0  0  0  0  3  0  0  0  0  0  0
  161.5680  209.8410  153.6010 O   0  0  0  0  0  1  0  0  0  0  0  0
  161.9500  209.7250  151.2140 C   0  0  0  0  0  0  0  0  0  0  0  0
  162.2940  211.0390  151.2350 F   0  0  0  0  0  0  0  0  0  0  0  0
  161.9550  208.9790  150.0100 C   0  0  0  0  0  0  0  0  0  0  0  0
  161.5780  209.1110  152.4180 C   0  0  0  0  0  0  0  0  0  0  0  0
  161.5820  207.6230  150.0480 C   0  0  0  0  0  0  0  0  0  0  0  0
  161.2170  207.0210  151.2580 C   0  0  0  0  0  3  0  0  0  0  0  0
  161.8470  210.7840  148.2790 C   0  0  0  0  0  1  0  0  0  0  0  0
  162.3170  209.5370  148.7710 O   0  0  0  0  0  0  0  0  0  0  0  0
  1  8  1  1  0  0  0
  1 16  1  0  0  0  0
  1  3  1  0  0  0  0
  2  5  1  0  0  0  0
  3  4  1  0  0  0  0
  4  5  2  0  0  0  0
  6  2  2  0  0  0  0
  7  3  2  0  0  0  0
  7  6  1  0  0  0  0
  9 10  1  0  0  0  0
  9 15  1  0  0  0  0
 10 13  1  0  0  0  0
 11 14  1  0  0  0  0
 11  8  1  1  0  0  0
 12 15  2  0  0  0  0
 13 14  1  0  0  0  0
 15 11  1  0  0  0  0
 16 17  1  0  0  0  0
 17 24  1  0  0  0  0
 20 21  1  0  0  0  0
 20 23  2  0  0  0  0
 22 24  2  0  0  0  0
 22 20  1  0  0  0  0
 23 18  1  0  0  0  0
 23 19  1  0  0  0  0
 24 25  1  0  0  0  0
 25 18  2  0  0  0  0
 26 27  1  0  0  0  0
 27 22  1  0  0  0  0
M  END
>  <MODEL>
9

>  <REMARK>
 VINA RESULT:      -7.3      2.105      3.097
  Name = 
  7 active torsions:
  status: ('A' for Active; 'I' for Inactive)
    1  A    between atoms: S_1  and  C_15
    2  A    between atoms: S_1  and  C_18
    3  A    between atoms: N_2  and  C_6
    4  A    between atoms: N_2  and  C_15
    5  A    between atoms: C_6  and  C_17
    6  A    between atoms: C_9  and  C_15
    7  A    between atoms: C_14  and  O_19
                            x       y       z     vdW  Elec       q    Type
                         _______ _______ _______ _____ _____    ______ ____

>  <TORSDO>
F 7

$$$$
