=
 OpenBabel11052422003D

 30 34  0  0  1  0  0  0  0  0999 V2000
  158.7630  210.2370  155.2410 C   0  0  1  0  0  3  0  0  0  0  0  0
  156.8810  211.8200  155.9000 C   0  0  1  0  0  3  0  0  0  0  0  0
  158.8730  213.2690  153.2920 C   0  0  0  0  0  2  0  0  0  0  0  0
  159.5950  209.6220  154.0680 C   0  0  2  0  0  3  0  0  0  0  0  0
  159.5070  210.3730  156.4360 O   0  0  0  0  0  0  0  0  0  0  0  0
  160.7660  207.0390  152.5560 C   0  0  0  0  0  2  0  0  0  0  0  0
  161.1940  208.7470  155.8690 C   0  0  1  0  0  3  0  0  0  0  0  0
  161.7000  211.0740  151.9810 C   0  0  0  0  0  2  0  0  0  0  0  0
  159.9850  212.7570  152.3600 C   0  0  2  0  0  3  0  0  0  0  0  0
  159.9970  209.0980  156.7610 C   0  0  0  0  0  2  0  0  0  0  0  0
  161.0680  209.4370  154.5030 C   0  0  1  0  0  3  0  0  0  0  0  0
  156.3140  213.2090  155.6540 C   0  0  0  0  0  2  0  0  0  0  0  0
  162.0750  209.5740  152.0500 C   0  0  2  0  0  3  0  0  0  0  0  0
  160.8380  207.6030  151.1680 C   0  0  0  0  0  3  0  0  0  0  0  0
  155.7740  210.7980  155.7140 C   0  0  0  0  0  1  0  0  0  0  0  0
  158.9890  212.7440  154.7220 C   0  0  2  0  0  3  0  0  0  0  0  0
  157.3440  214.3010  155.9600 C   0  0  0  0  0  2  0  0  0  0  0  0
  158.0230  211.5470  154.9130 C   0  0  1  0  0  3  0  0  0  0  0  0
  159.4910  210.4100  152.7600 C   0  0  0  0  0  2  0  0  0  0  0  0
  159.4890  212.7620  150.9180 C   0  0  0  0  0  1  0  0  0  0  0  0
  160.5190  211.4500  152.7720 N   0  0  1  0  0  0  0  0  0  0  0  0
  161.4150  208.7880  150.9440 C   0  0  0  0  0  3  0  0  0  0  0  0
  161.9560  207.4090  153.3220 N   0  0  0  0  0  2  0  0  0  0  0  0
  158.8050  213.8830  155.7350 C   0  0  1  0  0  3  0  0  0  0  0  0
  159.4520  213.5230  157.0590 C   0  0  0  0  0  1  0  0  0  0  0  0
  162.0380  208.8720  153.4420 C   0  0  2  0  0  3  0  0  0  0  0  0
  162.3750  209.1560  156.4910 O   0  0  0  0  0  0  0  0  0  0  0  0
  162.5410  210.4880  156.1040 C   0  0  0  0  0  2  0  0  0  0  0  0
  162.8840  211.2960  157.2610 N   0  0  0  0  0  2  0  0  0  0  0  0
  164.3280  211.4540  157.2580 C   0  0  0  0  0  1  0  0  0  0  0  0
  1  5  1  1  0  0  0
  2 15  1  6  0  0  0
  3 16  1  0  0  0  0
  4 19  1  6  0  0  0
  4 11  1  0  0  0  0
  4  1  1  0  0  0  0
  5 10  1  0  0  0  0
  6 23  1  0  0  0  0
  7 27  1  1  0  0  0
  7 10  1  0  0  0  0
  8 13  1  0  0  0  0
  8 21  1  0  0  0  0
  9 20  1  6  0  0  0
  9 21  1  0  0  0  0
  9  3  1  0  0  0  0
 11  7  1  0  0  0  0
 12  2  1  0  0  0  0
 12 17  1  0  0  0  0
 13 26  1  0  0  0  0
 14  6  1  0  0  0  0
 16 18  1  0  0  0  0
 16 24  1  0  0  0  0
 18  1  1  0  0  0  0
 18  2  1  0  0  0  0
 19 21  1  0  0  0  0
 22 14  2  0  0  0  0
 22 13  1  0  0  0  0
 23 26  1  0  0  0  0
 24 17  1  0  0  0  0
 24 25  1  0  0  0  0
 26 11  1  0  0  0  0
 28 27  1  0  0  0  0
 28 29  1  0  0  0  0
 30 29  1  0  0  0  0
M  END
>  <MODEL>
1

>  <REMARK>
 VINA RESULT:      -3.5      0.000      0.000
  Name = 
  3 active torsions:
  status: ('A' for Active; 'I' for Inactive)
    1  A    between atoms: O_6  and  C_8
    2  A    between atoms: O_6  and  C_21
    3  A    between atoms: N_9  and  C_21
                            x       y       z     vdW  Elec       q    Type
                         _______ _______ _______ _____ _____    ______ ____

>  <TORSDO>
F 3

$$$$
=
 OpenBabel11052422003D

 30 34  0  0  1  0  0  0  0  0999 V2000
  162.0140  211.5110  149.3910 C   0  0  1  0  0  3  0  0  0  0  0  0
  162.2700  213.2590  147.5590 C   0  0  1  0  0  3  0  0  0  0  0  0
  159.3120  213.8960  149.4860 C   0  0  0  0  0  2  0  0  0  0  0  0
  161.6330  211.2350  150.8830 C   0  0  2  0  0  3  0  0  0  0  0  0
  161.7080  210.4290  148.5330 O   0  0  0  0  0  0  0  0  0  0  0  0
  162.3610  209.9540  153.7390 C   0  0  0  0  0  2  0  0  0  0  0  0
  161.6330  208.7500  150.2620 C   0  0  1  0  0  3  0  0  0  0  0  0
  158.7210  211.5230  152.4100 C   0  0  0  0  0  2  0  0  0  0  0  0
  158.7300  213.3470  150.7990 C   0  0  2  0  0  3  0  0  0  0  0  0
  162.3770  209.3030  149.0390 C   0  0  0  0  0  2  0  0  0  0  0  0
  160.9000  209.8790  151.0010 C   0  0  1  0  0  3  0  0  0  0  0  0
  161.5890  214.4530  146.9100 C   0  0  0  0  0  2  0  0  0  0  0  0
  159.5660  210.5040  153.2100 C   0  0  2  0  0  3  0  0  0  0  0  0
  161.5840  210.8930  154.6130 C   0  0  0  0  0  3  0  0  0  0  0  0
  163.6860  213.6500  147.9410 C   0  0  0  0  0  1  0  0  0  0  0  0
  159.9470  212.8200  148.6060 C   0  0  2  0  0  3  0  0  0  0  0  0
  160.2020  214.0890  146.3720 C   0  0  0  0  0  2  0  0  0  0  0  0
  161.4840  212.8320  148.8040 C   0  0  1  0  0  3  0  0  0  0  0  0
  160.8310  212.3650  151.5320 C   0  0  0  0  0  2  0  0  0  0  0  0
  158.7140  214.4500  151.8540 C   0  0  0  0  0  1  0  0  0  0  0  0
  159.4130  212.1300  151.2610 N   0  0  1  0  0  0  0  0  0  0  0  0
  160.3030  211.1690  154.3460 C   0  0  0  0  0  3  0  0  0  0  0  0
  161.4940  208.8910  153.2310 N   0  0  0  0  0  2  0  0  0  0  0  0
  159.4900  212.9710  147.1480 C   0  0  1  0  0  3  0  0  0  0  0  0
  159.6330  211.6530  146.4100 C   0  0  0  0  0  1  0  0  0  0  0  0
  160.4200  209.4710  152.4120 C   0  0  2  0  0  3  0  0  0  0  0  0
  160.7100  207.7870  149.8490 O   0  0  0  0  0  0  0  0  0  0  0  0
  161.4190  206.9640  148.9700 C   0  0  0  0  0  2  0  0  0  0  0  0
  160.4910  206.1720  148.1820 N   0  0  0  0  0  2  0  0  0  0  0  0
  160.9190  206.2620  146.7970 C   0  0  0  0  0  1  0  0  0  0  0  0
  1  5  1  6  0  0  0
  1  4  1  0  0  0  0
  2 15  1  1  0  0  0
  2 18  1  0  0  0  0
  3  9  1  0  0  0  0
  4 11  1  0  0  0  0
  4 19  1  6  0  0  0
  5 10  1  0  0  0  0
  6 14  1  0  0  0  0
  7 27  1  6  0  0  0
  7 11  1  0  0  0  0
  8 13  1  0  0  0  0
  9 21  1  0  0  0  0
  9 20  1  1  0  0  0
 10  7  1  0  0  0  0
 11 26  1  0  0  0  0
 12  2  1  0  0  0  0
 13 22  1  0  0  0  0
 16 18  1  0  0  0  0
 16  3  1  0  0  0  0
 17 12  1  0  0  0  0
 17 24  1  0  0  0  0
 18  1  1  0  0  0  0
 21 19  1  0  0  0  0
 21  8  1  0  0  0  0
 22 14  2  0  0  0  0
 23  6  1  0  0  0  0
 24 16  1  0  0  0  0
 25 24  1  0  0  0  0
 26 13  1  0  0  0  0
 26 23  1  0  0  0  0
 28 27  1  0  0  0  0
 29 28  1  0  0  0  0
 30 29  1  0  0  0  0
M  END
>  <MODEL>
2

>  <REMARK>
 VINA RESULT:      -3.0      3.438      6.948
  Name = 
  3 active torsions:
  status: ('A' for Active; 'I' for Inactive)
    1  A    between atoms: O_6  and  C_8
    2  A    between atoms: O_6  and  C_21
    3  A    between atoms: N_9  and  C_21
                            x       y       z     vdW  Elec       q    Type
                         _______ _______ _______ _____ _____    ______ ____

>  <TORSDO>
F 3

$$$$
=
 OpenBabel11052422003D

 30 34  0  0  1  0  0  0  0  0999 V2000
  161.0050  210.1970  140.6500 C   0  0  1  0  0  3  0  0  0  0  0  0
  161.3440  207.9540  139.4970 C   0  0  1  0  0  3  0  0  0  0  0  0
  163.5530  210.4170  138.1080 C   0  0  0  0  0  2  0  0  0  0  0  0
  161.6900  211.4720  141.2440 C   0  0  2  0  0  3  0  0  0  0  0  0
  159.7240  210.4580  140.1110 O   0  0  0  0  0  0  0  0  0  0  0  0
  162.0840  213.5240  143.6860 C   0  0  0  0  0  2  0  0  0  0  0  0
  159.3440  212.4980  141.3380 C   0  0  1  0  0  3  0  0  0  0  0  0
  163.3850  213.8630  139.7270 C   0  0  0  0  0  2  0  0  0  0  0  0
  163.9610  211.8500  138.4880 C   0  0  2  0  0  3  0  0  0  0  0  0
  158.9550  211.0280  141.1380 C   0  0  0  0  0  2  0  0  0  0  0  0
  160.8180  212.7190  140.9690 C   0  0  1  0  0  3  0  0  0  0  0  0
  162.0920  207.2650  138.3660 C   0  0  0  0  0  2  0  0  0  0  0  0
  162.8270  214.4530  141.0440 C   0  0  2  0  0  3  0  0  0  0  0  0
  163.4890  213.9590  143.3920 C   0  0  0  0  0  3  0  0  0  0  0  0
  161.5710  207.1740  140.7790 C   0  0  0  0  0  1  0  0  0  0  0  0
  162.0640  210.1350  138.3090 C   0  0  2  0  0  3  0  0  0  0  0  0
  161.7960  207.9190  137.0130 C   0  0  0  0  0  2  0  0  0  0  0  0
  161.8570  209.3910  139.6530 C   0  0  1  0  0  3  0  0  0  0  0  0
  163.1290  211.6760  140.7670 C   0  0  0  0  0  2  0  0  0  0  0  0
  165.4360  211.8770  138.8780 C   0  0  0  0  0  1  0  0  0  0  0  0
  163.0910  212.4370  139.5190 N   0  0  1  0  0  0  0  0  0  0  0  0
  163.8350  214.3560  142.1630 C   0  0  0  0  0  3  0  0  0  0  0  0
  161.1310  214.3000  142.8930 N   0  0  0  0  0  2  0  0  0  0  0  0
  161.4760  209.4200  137.0850 C   0  0  1  0  0  3  0  0  0  0  0  0
  159.9760  209.6360  137.0160 C   0  0  0  0  0  1  0  0  0  0  0  0
  161.3730  214.0750  141.4610 C   0  0  2  0  0  3  0  0  0  0  0  0
  158.5370  213.3070  140.5360 O   0  0  0  0  0  0  0  0  0  0  0  0
  157.7690  214.0510  141.4370 C   0  0  0  0  0  2  0  0  0  0  0  0
  156.4190  214.2010  140.9240 N   0  0  0  0  0  2  0  0  0  0  0  0
  156.2390  213.1940  139.8920 C   0  0  0  0  0  1  0  0  0  0  0  0
  1  5  1  6  0  0  0
  1  4  1  0  0  0  0
  2 18  1  0  0  0  0
  2 15  1  1  0  0  0
  3 16  1  0  0  0  0
  3  9  1  0  0  0  0
  4 19  1  6  0  0  0
  5 10  1  0  0  0  0
  7 27  1  6  0  0  0
  8 13  1  0  0  0  0
  9 20  1  1  0  0  0
  9 21  1  0  0  0  0
 10  7  1  0  0  0  0
 11  4  1  0  0  0  0
 11  7  1  0  0  0  0
 11 26  1  0  0  0  0
 12  2  1  0  0  0  0
 13 26  1  0  0  0  0
 13 22  1  0  0  0  0
 14  6  1  0  0  0  0
 16 18  1  0  0  0  0
 17 24  1  0  0  0  0
 17 12  1  0  0  0  0
 18  1  1  0  0  0  0
 21  8  1  0  0  0  0
 21 19  1  0  0  0  0
 22 14  2  0  0  0  0
 23  6  1  0  0  0  0
 24 16  1  0  0  0  0
 25 24  1  0  0  0  0
 26 23  1  0  0  0  0
 27 28  1  0  0  0  0
 29 28  1  0  0  0  0
 30 29  1  0  0  0  0
M  END
>  <MODEL>
3

>  <REMARK>
 VINA RESULT:      -1.4     12.131     15.508
  Name = 
  3 active torsions:
  status: ('A' for Active; 'I' for Inactive)
    1  A    between atoms: O_6  and  C_8
    2  A    between atoms: O_6  and  C_21
    3  A    between atoms: N_9  and  C_21
                            x       y       z     vdW  Elec       q    Type
                         _______ _______ _______ _____ _____    ______ ____

>  <TORSDO>
F 3

$$$$
