=
 OpenBabel11062409273D

 34 38  0  0  1  0  0  0  0  0999 V2000
  161.4780  210.3390  151.1060 C   0  0  0  0  0  0  0  0  0  0  0  0
  161.1730  209.1740  154.6660 C   0  0  0  0  0  3  0  0  0  0  0  0
  160.9270  208.0020  152.6600 O   0  0  0  0  0  0  0  0  0  0  0  0
  161.6170  211.2190  148.8130 C   0  0  0  0  0  0  0  0  0  0  0  0
  161.3350  211.3610  150.2490 C   0  0  0  0  0  3  0  0  0  0  0  0
  162.1000  208.8970  149.1260 C   0  0  0  0  0  0  0  0  0  0  0  0
  162.4170  207.8070  148.5810 O   0  0  0  0  0  0  0  0  0  0  0  0
  161.9460  210.0650  148.3140 N   0  0  0  0  0  0  0  0  0  0  0  0
  161.4780  212.3660  147.9650 N   0  0  0  0  0  2  0  0  0  0  0  0
  161.2480  207.8820  151.3050 C   0  0  0  0  0  0  0  0  0  0  0  0
  162.0060  209.0000  150.6320 C   0  0  2  0  0  3  0  0  0  0  0  0
  160.9740  206.8140  150.6970 O   0  0  0  0  0  0  0  0  0  0  0  0
  161.4550  210.3660  155.5150 C   0  0  0  0  0  2  0  0  0  0  0  0
  160.3450  211.3620  155.4480 C   0  0  0  0  0  0  0  0  0  0  0  0
  160.0370  211.9700  154.3000 C   0  0  0  0  0  3  0  0  0  0  0  0
  161.0550  209.2190  153.3380 C   0  0  0  0  0  0  0  0  0  0  0  0
  160.6000  211.6560  152.9730 C   0  0  0  0  0  3  0  0  0  0  0  0
  161.0950  210.4800  152.5380 C   0  0  0  0  0  0  0  0  0  0  0  0
  163.0300  213.3570  144.6520 C   0  0  0  0  0  2  0  0  0  0  0  0
  160.3820  212.5180  145.7660 C   0  0  0  0  0  2  0  0  0  0  0  0
  160.8430  213.3150  141.5530 C   0  0  0  0  0  0  0  0  0  0  0  0
  161.9350  213.4890  142.4150 C   0  0  0  0  0  3  0  0  0  0  0  0
  161.8110  213.2270  143.7830 C   0  0  0  0  0  0  0  0  0  0  0  0
  159.4930  212.5910  143.4380 C   0  0  0  0  0  3  0  0  0  0  0  0
  160.5830  212.7540  144.2960 C   0  0  0  0  0  0  0  0  0  0  0  0
  159.6230  212.8660  142.0740 C   0  0  0  0  0  3  0  0  0  0  0  0
  161.7050  212.3750  146.5220 C   0  0  1  0  0  3  0  0  0  0  0  0
  162.6740  213.4840  146.1290 C   0  0  0  0  0  2  0  0  0  0  0  0
  160.9790  213.6010  140.1130 C   0  0  0  0  0  0  0  0  0  0  0  0
  162.0790  213.9970  139.6450 O   0  0  0  0  0  0  0  0  0  0  0  0
  159.8690  213.4350  139.2360 N   0  0  0  0  0  1  0  0  0  0  0  0
  159.6680  211.7560  156.6960 C   0  0  0  0  0  0  0  0  0  0  0  0
  158.7090  210.9240  157.2610 O   0  0  0  0  0  0  0  0  0  0  0  0
  159.9460  212.8490  157.2610 O   0  0  0  0  0  1  0  0  0  0  0  0
  1 18  1  0  0  0  0
  2 13  1  0  0  0  0
  3 16  1  0  0  0  0
  4  5  1  0  0  0  0
  5  1  2  0  0  0  0
  7  6  2  0  0  0  0
  8  4  2  0  0  0  0
  8  6  1  0  0  0  0
  9  4  1  0  0  0  0
 10  3  1  0  0  0  0
 11  6  1  6  0  0  0
 11  1  1  0  0  0  0
 11 10  1  0  0  0  0
 12 10  2  0  0  0  0
 14 13  1  0  0  0  0
 14 32  1  0  0  0  0
 15 14  2  0  0  0  0
 16  2  2  0  0  0  0
 17 15  1  0  0  0  0
 18 17  2  0  0  0  0
 18 16  1  0  0  0  0
 19 28  1  0  0  0  0
 20 27  1  0  0  0  0
 21 26  2  0  0  0  0
 21 22  1  0  0  0  0
 22 23  2  0  0  0  0
 23 25  1  0  0  0  0
 23 19  1  0  0  0  0
 24 25  2  0  0  0  0
 25 20  1  0  0  0  0
 26 24  1  0  0  0  0
 27  9  1  1  0  0  0
 28 27  1  0  0  0  0
 29 21  1  0  0  0  0
 30 29  2  0  0  0  0
 31 29  1  0  0  0  0
 32 33  2  0  0  0  0
 32 34  1  0  0  0  0
M  END
>  <MODEL>
1

>  <REMARK>
 VINA RESULT:      -7.1      0.000      0.000
  Name = 
  3 active torsions:
  status: ('A' for Active; 'I' for Inactive)
    1  A    between atoms: C_3  and  C_25
    2  A    between atoms: C_7  and  C_11
    3  A    between atoms: N_18  and  C_30
                            x       y       z     vdW  Elec       q    Type
                         _______ _______ _______ _____ _____    ______ ____

>  <TORSDO>
F 3

$$$$
=
 OpenBabel11062409273D

 34 38  0  0  1  0  0  0  0  0999 V2000
  160.9430  207.7030  151.6340 C   0  0  0  0  0  0  0  0  0  0  0  0
  161.2370  211.2610  152.8100 C   0  0  0  0  0  3  0  0  0  0  0  0
  162.0380  210.2320  150.8710 O   0  0  0  0  0  0  0  0  0  0  0  0
  160.7670  205.3340  150.9940 C   0  0  0  0  0  0  0  0  0  0  0  0
  160.8440  206.4130  151.9890 C   0  0  0  0  0  3  0  0  0  0  0  0
  161.0060  206.9310  149.2280 C   0  0  0  0  0  0  0  0  0  0  0  0
  161.1020  207.1180  147.9860 O   0  0  0  0  0  0  0  0  0  0  0  0
  160.8680  205.5960  149.7250 N   0  0  0  0  0  0  0  0  0  0  0  0
  160.6250  203.9830  151.4500 N   0  0  0  0  0  2  0  0  0  0  0  0
  161.9080  209.2120  149.9250 C   0  0  0  0  0  0  0  0  0  0  0  0
  160.9100  208.1070  150.1730 C   0  0  2  0  0  3  0  0  0  0  0  0
  162.5630  209.2780  148.8510 O   0  0  0  0  0  0  0  0  0  0  0  0
  160.5120  211.3250  154.1100 C   0  0  0  0  0  2  0  0  0  0  0  0
  161.2550  210.6100  155.1890 C   0  0  0  0  0  0  0  0  0  0  0  0
  161.4710  209.2940  155.1160 C   0  0  0  0  0  3  0  0  0  0  0  0
  161.4680  210.1270  152.1440 C   0  0  0  0  0  0  0  0  0  0  0  0
  161.1720  208.4270  153.9600 C   0  0  0  0  0  3  0  0  0  0  0  0
  161.1160  208.7700  152.6580 C   0  0  0  0  0  0  0  0  0  0  0  0
  161.4040  200.5020  150.1670 C   0  0  0  0  0  2  0  0  0  0  0  0
  160.6910  203.2110  149.1140 C   0  0  0  0  0  2  0  0  0  0  0  0
  161.2590  199.8850  146.4270 C   0  0  0  0  0  0  0  0  0  0  0  0
  161.4490  199.7050  147.8040 C   0  0  0  0  0  3  0  0  0  0  0  0
  161.2610  200.7660  148.6950 C   0  0  0  0  0  0  0  0  0  0  0  0
  160.6680  202.2060  146.8320 C   0  0  0  0  0  3  0  0  0  0  0  0
  160.8460  202.0240  148.2050 C   0  0  0  0  0  0  0  0  0  0  0  0
  160.8690  201.1430  145.9480 C   0  0  0  0  0  3  0  0  0  0  0  0
  160.5530  202.8090  150.5830 C   0  0  1  0  0  3  0  0  0  0  0  0
  161.6160  201.7840  150.9650 C   0  0  0  0  0  2  0  0  0  0  0  0
  161.4680  198.7640  145.4940 C   0  0  0  0  0  0  0  0  0  0  0  0
  162.6320  198.3600  145.2350 O   0  0  0  0  0  0  0  0  0  0  0  0
  160.3550  198.1250  144.8740 N   0  0  0  0  0  1  0  0  0  0  0  0
  161.6460  211.3540  156.3980 C   0  0  0  0  0  0  0  0  0  0  0  0
  162.8740  211.1090  157.0000 O   0  0  0  0  0  1  0  0  0  0  0  0
  160.8740  212.2170  156.9000 O   0  0  0  0  0  0  0  0  0  0  0  0
  1  5  2  0  0  0  0
  1 18  1  0  0  0  0
  2 13  1  0  0  0  0
  3 16  1  0  0  0  0
  4  9  1  0  0  0  0
  4  5  1  0  0  0  0
  6  8  1  0  0  0  0
  7  6  2  0  0  0  0
  8  4  2  0  0  0  0
 10 11  1  0  0  0  0
 10  3  1  0  0  0  0
 11  6  1  6  0  0  0
 11  1  1  0  0  0  0
 12 10  2  0  0  0  0
 13 14  1  0  0  0  0
 14 32  1  0  0  0  0
 15 14  2  0  0  0  0
 16 18  1  0  0  0  0
 16  2  2  0  0  0  0
 17 15  1  0  0  0  0
 18 17  2  0  0  0  0
 19 28  1  0  0  0  0
 20 27  1  0  0  0  0
 21 22  1  0  0  0  0
 22 23  2  0  0  0  0
 23 19  1  0  0  0  0
 24 25  2  0  0  0  0
 25 23  1  0  0  0  0
 25 20  1  0  0  0  0
 26 21  2  0  0  0  0
 26 24  1  0  0  0  0
 27 28  1  0  0  0  0
 27  9  1  1  0  0  0
 29 21  1  0  0  0  0
 30 29  2  0  0  0  0
 31 29  1  0  0  0  0
 32 34  2  0  0  0  0
 32 33  1  0  0  0  0
M  END
>  <MODEL>
2

>  <REMARK>
 VINA RESULT:      -6.4      5.560      8.824
  Name = 
  3 active torsions:
  status: ('A' for Active; 'I' for Inactive)
    1  A    between atoms: C_3  and  C_25
    2  A    between atoms: C_7  and  C_11
    3  A    between atoms: N_18  and  C_30
                            x       y       z     vdW  Elec       q    Type
                         _______ _______ _______ _____ _____    ______ ____

>  <TORSDO>
F 3

$$$$
=
 OpenBabel11062409273D

 34 38  0  0  1  0  0  0  0  0999 V2000
  161.5700  205.7950  148.9840 C   0  0  0  0  0  0  0  0  0  0  0  0
  161.8280  203.9830  145.7020 C   0  0  0  0  0  3  0  0  0  0  0  0
  161.1930  206.1810  146.1760 O   0  0  0  0  0  0  0  0  0  0  0  0
  161.3520  206.8650  151.1890 C   0  0  0  0  0  0  0  0  0  0  0  0
  161.3260  205.6940  150.3000 C   0  0  0  0  0  3  0  0  0  0  0  0
  161.7820  208.2910  149.3170 C   0  0  0  0  0  0  0  0  0  0  0  0
  161.9550  209.4710  148.9120 O   0  0  0  0  0  0  0  0  0  0  0  0
  161.5420  208.0570  150.7080 N   0  0  0  0  0  0  0  0  0  0  0  0
  161.1190  206.6730  152.5900 N   0  0  0  0  0  2  0  0  0  0  0  0
  161.2730  207.2840  147.0300 C   0  0  0  0  0  0  0  0  0  0  0  0
  161.9520  207.1260  148.3680 C   0  0  2  0  0  3  0  0  0  0  0  0
  160.8530  208.4040  146.6330 O   0  0  0  0  0  0  0  0  0  0  0  0
  162.3020  202.6080  146.0270 C   0  0  0  0  0  2  0  0  0  0  0  0
  161.2410  201.8090  146.7070 C   0  0  0  0  0  0  0  0  0  0  0  0
  160.7670  202.1720  147.9010 C   0  0  0  0  0  3  0  0  0  0  0  0
  161.4870  204.8880  146.6220 C   0  0  0  0  0  0  0  0  0  0  0  0
  161.0810  203.4250  148.6140 C   0  0  0  0  0  3  0  0  0  0  0  0
  161.4430  204.6120  148.0880 C   0  0  0  0  0  0  0  0  0  0  0  0
  160.3480  208.4040  155.8730 C   0  0  0  0  0  2  0  0  0  0  0  0
  160.6310  209.0560  152.9660 C   0  0  0  0  0  2  0  0  0  0  0  0
  159.7670  212.1520  155.8420 C   0  0  0  0  0  0  0  0  0  0  0  0
  159.8770  210.8210  156.2680 C   0  0  0  0  0  3  0  0  0  0  0  0
  160.1660  209.8020  155.3550 C   0  0  0  0  0  0  0  0  0  0  0  0
  160.2590  211.4470  153.5710 C   0  0  0  0  0  3  0  0  0  0  0  0
  160.3800  210.1210  153.9960 C   0  0  0  0  0  0  0  0  0  0  0  0
  159.9590  212.4570  154.4880 C   0  0  0  0  0  3  0  0  0  0  0  0
  161.0970  207.7390  153.5900 C   0  0  1  0  0  3  0  0  0  0  0  0
  160.2120  207.3580  154.7720 C   0  0  0  0  0  2  0  0  0  0  0  0
  159.4540  213.2190  156.8090 C   0  0  0  0  0  0  0  0  0  0  0  0
  160.3690  213.9570  157.2610 O   0  0  0  0  0  0  0  0  0  0  0  0
  158.1130  213.4260  157.2450 N   0  0  0  0  0  1  0  0  0  0  0  0
  160.8030  200.5410  146.0960 C   0  0  0  0  0  0  0  0  0  0  0  0
  159.8000  200.5410  145.1350 O   0  0  0  0  0  0  0  0  0  0  0  0
  161.3300  199.4480  146.4380 O   0  0  0  0  0  1  0  0  0  0  0  0
  1  5  2  0  0  0  0
  2 13  1  0  0  0  0
  2 16  2  0  0  0  0
  3 16  1  0  0  0  0
  3 10  1  0  0  0  0
  4  9  1  0  0  0  0
  5  4  1  0  0  0  0
  6  8  1  0  0  0  0
  7  6  2  0  0  0  0
  8  4  2  0  0  0  0
 11 10  1  6  0  0  0
 11  1  1  0  0  0  0
 11  6  1  0  0  0  0
 12 10  2  0  0  0  0
 13 14  1  0  0  0  0
 14 15  2  0  0  0  0
 15 17  1  0  0  0  0
 16 18  1  0  0  0  0
 18 17  2  0  0  0  0
 18  1  1  0  0  0  0
 20 27  1  0  0  0  0
 20 25  1  0  0  0  0
 21 22  1  0  0  0  0
 21 29  1  0  0  0  0
 23 19  1  0  0  0  0
 23 22  2  0  0  0  0
 24 25  2  0  0  0  0
 24 26  1  0  0  0  0
 25 23  1  0  0  0  0
 26 21  2  0  0  0  0
 27  9  1  6  0  0  0
 27 28  1  0  0  0  0
 28 19  1  0  0  0  0
 29 31  1  0  0  0  0
 29 30  2  0  0  0  0
 32 34  1  0  0  0  0
 32 14  1  0  0  0  0
 33 32  2  0  0  0  0
M  END
>  <MODEL>
3

>  <REMARK>
 VINA RESULT:      -6.3      5.155     10.924
  Name = 
  3 active torsions:
  status: ('A' for Active; 'I' for Inactive)
    1  A    between atoms: C_3  and  C_25
    2  A    between atoms: C_7  and  C_11
    3  A    between atoms: N_18  and  C_30
                            x       y       z     vdW  Elec       q    Type
                         _______ _______ _______ _____ _____    ______ ____

>  <TORSDO>
F 3

$$$$
=
 OpenBabel11062409273D

 34 38  0  0  1  0  0  0  0  0999 V2000
  160.6720  213.2910  145.2550 C   0  0  0  0  0  0  0  0  0  0  0  0
  160.0210  214.3930  141.7220 C   0  0  0  0  0  3  0  0  0  0  0  0
  158.5450  214.0460  143.4990 O   0  0  0  0  0  0  0  0  0  0  0  0
  161.1930  212.4840  147.5210 C   0  0  0  0  0  0  0  0  0  0  0  0
  161.4510  212.5700  146.0760 C   0  0  0  0  0  3  0  0  0  0  0  0
  159.2290  213.8240  147.2610 C   0  0  0  0  0  0  0  0  0  0  0  0
  158.2310  214.3470  147.8240 O   0  0  0  0  0  0  0  0  0  0  0  0
  160.1470  213.0530  148.0410 N   0  0  0  0  0  0  0  0  0  0  0  0
  162.0920  211.7240  148.3390 N   0  0  0  0  0  2  0  0  0  0  0  0
  158.3330  214.0100  144.8800 C   0  0  0  0  0  0  0  0  0  0  0  0
  159.5210  214.1110  145.8050 C   0  0  2  0  0  3  0  0  0  0  0  0
  157.1550  213.9790  145.3240 O   0  0  0  0  0  0  0  0  0  0  0  0
  161.3540  214.4530  141.0580 C   0  0  0  0  0  2  0  0  0  0  0  0
  161.9140  213.0890  140.8280 C   0  0  0  0  0  0  0  0  0  0  0  0
  162.2100  212.2870  141.8550 C   0  0  0  0  0  3  0  0  0  0  0  0
  159.8260  213.9120  142.9510 C   0  0  0  0  0  0  0  0  0  0  0  0
  161.8980  212.5430  143.2740 C   0  0  0  0  0  3  0  0  0  0  0  0
  160.8950  213.2850  143.7840 C   0  0  0  0  0  0  0  0  0  0  0  0
  162.0120  209.8910  151.6550 C   0  0  0  0  0  2  0  0  0  0  0  0
  160.6780  212.2000  150.2960 C   0  0  0  0  0  2  0  0  0  0  0  0
  159.6680  211.1550  154.3570 C   0  0  0  0  0  0  0  0  0  0  0  0
  160.6020  210.3810  153.6530 C   0  0  0  0  0  3  0  0  0  0  0  0
  160.9520  210.7070  152.3390 C   0  0  0  0  0  0  0  0  0  0  0  0
  159.4440  212.6080  152.4240 C   0  0  0  0  0  3  0  0  0  0  0  0
  160.3820  211.8440  151.7260 C   0  0  0  0  0  0  0  0  0  0  0  0
  159.0920  212.2690  153.7320 C   0  0  0  0  0  3  0  0  0  0  0  0
  161.9560  211.5340  149.7810 C   0  0  1  0  0  3  0  0  0  0  0  0
  161.9760  210.0520  150.1400 C   0  0  0  0  0  2  0  0  0  0  0  0
  159.2990  210.8000  155.7390 C   0  0  0  0  0  0  0  0  0  0  0  0
  159.7570  209.7550  156.2710 O   0  0  0  0  0  0  0  0  0  0  0  0
  158.4180  211.6330  156.4870 N   0  0  0  0  0  1  0  0  0  0  0  0
  162.2510  212.6790  139.4540 C   0  0  0  0  0  0  0  0  0  0  0  0
  163.3250  211.8280  139.2250 O   0  0  0  0  0  1  0  0  0  0  0  0
  161.5750  213.0960  138.4750 O   0  0  0  0  0  0  0  0  0  0  0  0
  1 11  1  0  0  0  0
  1  5  2  0  0  0  0
  2 16  2  0  0  0  0
  3 10  1  0  0  0  0
  4  8  2  0  0  0  0
  4  9  1  0  0  0  0
  5  4  1  0  0  0  0
  6  7  2  0  0  0  0
  6  8  1  0  0  0  0
 10 12  2  0  0  0  0
 11 10  1  6  0  0  0
 11  6  1  0  0  0  0
 13  2  1  0  0  0  0
 14 13  1  0  0  0  0
 14 15  2  0  0  0  0
 15 17  1  0  0  0  0
 16  3  1  0  0  0  0
 16 18  1  0  0  0  0
 17 18  2  0  0  0  0
 18  1  1  0  0  0  0
 19 23  1  0  0  0  0
 20 25  1  0  0  0  0
 21 29  1  0  0  0  0
 22 21  2  0  0  0  0
 23 22  1  0  0  0  0
 24 26  2  0  0  0  0
 25 23  2  0  0  0  0
 25 24  1  0  0  0  0
 26 21  1  0  0  0  0
 27  9  1  6  0  0  0
 27 28  1  0  0  0  0
 27 20  1  0  0  0  0
 28 19  1  0  0  0  0
 29 30  2  0  0  0  0
 29 31  1  0  0  0  0
 32 14  1  0  0  0  0
 33 32  1  0  0  0  0
 34 32  2  0  0  0  0
M  END
>  <MODEL>
4

>  <REMARK>
 VINA RESULT:      -5.1      2.895     11.249
  Name = 
  3 active torsions:
  status: ('A' for Active; 'I' for Inactive)
    1  A    between atoms: C_3  and  C_25
    2  A    between atoms: C_7  and  C_11
    3  A    between atoms: N_18  and  C_30
                            x       y       z     vdW  Elec       q    Type
                         _______ _______ _______ _____ _____    ______ ____

>  <TORSDO>
F 3

$$$$
