=
 OpenBabel11052422493D

 28 31  0  0  1  0  0  0  0  0999 V2000
  160.9500  203.6730  149.3450 C   0  0  0  0  0  0  0  0  0  0  0  0
  160.8080  205.0720  152.8970 C   0  0  0  0  0  2  0  0  0  0  0  0
  161.2970  207.0090  150.5730 C   0  0  0  0  0  2  0  0  0  0  0  0
  161.4010  202.8350  151.9860 C   0  0  0  0  0  3  0  0  0  0  0  0
  160.2800  205.9670  150.1190 C   0  0  0  0  0  2  0  0  0  0  0  0
  161.5970  201.9460  150.9310 C   0  0  0  0  0  3  0  0  0  0  0  0
  161.7890  206.1460  152.8120 N   0  0  0  0  0  2  0  0  0  0  0  0
  160.9760  204.1420  151.7380 C   0  0  0  0  0  0  0  0  0  0  0  0
  161.1850  207.2510  152.0740 C   0  0  1  0  0  3  0  0  0  0  0  0
  161.3720  202.3630  149.6190 C   0  0  0  0  0  3  0  0  0  0  0  0
  160.7500  204.5690  150.4120 C   0  0  0  0  0  0  0  0  0  0  0  0
  160.7150  204.1100  148.0300 O   0  0  0  0  0  0  0  0  0  0  0  0
  161.6680  204.1090  146.9630 C   0  0  1  0  0  3  0  0  0  0  0  0
  161.8020  205.1750  144.2310 C   0  0  0  0  0  2  0  0  0  0  0  0
  161.1770  203.3080  145.7450 C   0  0  0  0  0  2  0  0  0  0  0  0
  162.6360  206.2710  147.6900 F   0  0  0  0  0  0  0  0  0  0  0  0
  162.2050  205.4940  146.6640 C   0  0  0  0  0  0  0  0  0  0  0  0
  162.2290  205.9900  145.4180 C   0  0  0  0  0  3  0  0  0  0  0  0
  160.6890  204.2120  144.6160 C   0  0  0  0  0  2  0  0  0  0  0  0
  161.9010  208.5520  152.4190 C   0  0  0  0  0  2  0  0  0  0  0  0
  160.2810  210.4880  152.2730 C   0  0  0  0  0  2  0  0  0  0  0  0
  162.0050  210.4150  154.4710 S   0  0  0  0  0  0  0  0  0  0  0  0
  159.6760  212.3630  153.8050 C   0  0  2  0  0  3  0  0  0  0  0  0
  161.0280  209.5320  153.2030 C   0  0  2  0  0  3  0  0  0  0  0  0
  159.8670  212.0020  155.2800 C   0  0  0  0  0  2  0  0  0  0  0  0
  160.5380  210.6500  155.5220 C   0  0  0  0  0  2  0  0  0  0  0  0
  158.7310  213.5420  153.7000 C   0  0  0  0  0  1  0  0  0  0  0  0
  159.1360  211.2030  152.9790 C   0  0  0  0  0  2  0  0  0  0  0  0
  1 10  2  0  0  0  0
  1 11  1  0  0  0  0
  3  9  1  0  0  0  0
  5 11  1  0  0  0  0
  5  3  1  0  0  0  0
  6  4  2  0  0  0  0
  7  2  1  0  0  0  0
  8  4  1  0  0  0  0
  8  2  1  0  0  0  0
  9 20  1  6  0  0  0
  9  7  1  0  0  0  0
 10  6  1  0  0  0  0
 11  8  2  0  0  0  0
 12  1  1  0  0  0  0
 13 12  1  1  0  0  0
 14 19  1  0  0  0  0
 14 18  1  0  0  0  0
 15 13  1  0  0  0  0
 17 13  1  0  0  0  0
 17 16  1  0  0  0  0
 18 17  2  0  0  0  0
 19 15  1  0  0  0  0
 21 28  1  0  0  0  0
 21 24  1  0  0  0  0
 22 26  1  0  0  0  0
 23 27  1  1  0  0  0
 23 25  1  0  0  0  0
 24 20  1  6  0  0  0
 24 22  1  0  0  0  0
 25 26  1  0  0  0  0
 28 23  1  0  0  0  0
M  END
>  <MODEL>
1

>  <REMARK>
 VINA RESULT:      -8.7      0.000      0.000
  Name = 
  4 active torsions:
  status: ('A' for Active; 'I' for Inactive)
    1  A    between atoms: C_1  and  O_2
    2  A    between atoms: O_2  and  C_3
    3  A    between atoms: C_10  and  C_13
    4  A    between atoms: C_10  and  C_25
                            x       y       z     vdW  Elec       q    Type
                         _______ _______ _______ _____ _____    ______ ____

>  <TORSDO>
F 4

$$$$
=
 OpenBabel11052422493D

 28 31  0  0  1  0  0  0  0  0999 V2000
  160.9010  204.2640  149.7100 C   0  0  0  0  0  0  0  0  0  0  0  0
  160.7640  206.1390  153.0350 C   0  0  0  0  0  2  0  0  0  0  0  0
  161.5080  207.6930  150.5010 C   0  0  0  0  0  2  0  0  0  0  0  0
  161.1820  203.7560  152.4570 C   0  0  0  0  0  3  0  0  0  0  0  0
  160.4160  206.6910  150.1420 C   0  0  0  0  0  2  0  0  0  0  0  0
  161.3320  202.7190  151.5380 C   0  0  0  0  0  3  0  0  0  0  0  0
  161.8420  207.1040  152.8550 N   0  0  0  0  0  2  0  0  0  0  0  0
  160.8870  205.0490  152.0180 C   0  0  0  0  0  0  0  0  0  0  0  0
  161.3670  208.1450  151.9500 C   0  0  1  0  0  3  0  0  0  0  0  0
  161.1920  202.9710  150.1740 C   0  0  0  0  0  3  0  0  0  0  0  0
  160.7460  205.3100  150.6380 C   0  0  0  0  0  0  0  0  0  0  0  0
  160.7530  204.5360  148.3390 O   0  0  0  0  0  0  0  0  0  0  0  0
  161.7450  204.3270  147.3300 C   0  0  1  0  0  3  0  0  0  0  0  0
  161.9770  204.8130  144.4440 C   0  0  0  0  0  2  0  0  0  0  0  0
  161.3020  203.2890  146.2850 C   0  0  0  0  0  2  0  0  0  0  0  0
  162.6780  206.6040  147.6330 F   0  0  0  0  0  0  0  0  0  0  0  0
  162.2880  205.6280  146.7740 C   0  0  0  0  0  0  0  0  0  0  0  0
  162.3570  205.8590  145.4540 C   0  0  0  0  0  3  0  0  0  0  0  0
  160.8540  203.9380  144.9780 C   0  0  0  0  0  2  0  0  0  0  0  0
  162.1860  209.4150  152.1530 C   0  0  0  0  0  2  0  0  0  0  0  0
  161.6740  209.9930  154.5600 C   0  0  0  0  0  2  0  0  0  0  0  0
  159.7800  210.7070  152.6340 S   0  0  0  0  0  0  0  0  0  0  0  0
  159.8660  211.2970  155.6850 C   0  0  2  0  0  3  0  0  0  0  0  0
  161.5240  210.4160  153.1000 C   0  0  2  0  0  3  0  0  0  0  0  0
  159.2920  212.3970  154.7910 C   0  0  0  0  0  2  0  0  0  0  0  0
  159.8070  212.3790  153.3510 C   0  0  0  0  0  2  0  0  0  0  0  0
  159.5420  211.6110  157.1300 C   0  0  0  0  0  1  0  0  0  0  0  0
  161.3720  211.1330  155.5250 C   0  0  0  0  0  2  0  0  0  0  0  0
  1 10  2  0  0  0  0
  1 11  1  0  0  0  0
  3  9  1  0  0  0  0
  5  3  1  0  0  0  0
  5 11  1  0  0  0  0
  6  4  2  0  0  0  0
  7  2  1  0  0  0  0
  8  4  1  0  0  0  0
  8  2  1  0  0  0  0
  9 20  1  6  0  0  0
  9  7  1  0  0  0  0
 10  6  1  0  0  0  0
 11  8  2  0  0  0  0
 12  1  1  0  0  0  0
 13 12  1  1  0  0  0
 14 19  1  0  0  0  0
 14 18  1  0  0  0  0
 15 13  1  0  0  0  0
 17 13  1  0  0  0  0
 17 16  1  0  0  0  0
 18 17  2  0  0  0  0
 19 15  1  0  0  0  0
 21 28  1  0  0  0  0
 22 24  1  0  0  0  0
 22 26  1  0  0  0  0
 23 27  1  1  0  0  0
 24 20  1  6  0  0  0
 24 21  1  0  0  0  0
 25 23  1  0  0  0  0
 26 25  1  0  0  0  0
 28 23  1  0  0  0  0
M  END
>  <MODEL>
2

>  <REMARK>
 VINA RESULT:      -8.6      0.996      1.573
  Name = 
  4 active torsions:
  status: ('A' for Active; 'I' for Inactive)
    1  A    between atoms: C_1  and  O_2
    2  A    between atoms: O_2  and  C_3
    3  A    between atoms: C_10  and  C_13
    4  A    between atoms: C_10  and  C_25
                            x       y       z     vdW  Elec       q    Type
                         _______ _______ _______ _____ _____    ______ ____

>  <TORSDO>
F 4

$$$$
=
 OpenBabel11052422493D

 28 31  0  0  1  0  0  0  0  0999 V2000
  161.4460  205.9990  151.9680 C   0  0  0  0  0  0  0  0  0  0  0  0
  160.6300  209.7300  152.0290 C   0  0  0  0  0  2  0  0  0  0  0  0
  162.2810  208.6250  149.6960 C   0  0  0  0  0  2  0  0  0  0  0  0
  160.8540  208.0210  153.8230 C   0  0  0  0  0  3  0  0  0  0  0  0
  161.2080  207.6000  150.0470 C   0  0  0  0  0  2  0  0  0  0  0  0
  161.1120  206.7250  154.2650 C   0  0  0  0  0  3  0  0  0  0  0  0
  161.8390  210.2890  151.4380 N   0  0  0  0  0  2  0  0  0  0  0  0
  160.8830  208.3190  152.4580 C   0  0  0  0  0  0  0  0  0  0  0  0
  161.7970  210.0380  150.0020 C   0  0  1  0  0  3  0  0  0  0  0  0
  161.4050  205.7210  153.3430 C   0  0  0  0  0  3  0  0  0  0  0  0
  161.1820  207.3070  151.5220 C   0  0  0  0  0  0  0  0  0  0  0  0
  161.7370  204.9980  151.0240 O   0  0  0  0  0  0  0  0  0  0  0  0
  160.7820  204.1520  150.3780 C   0  0  1  0  0  3  0  0  0  0  0  0
  160.8700  201.8440  148.5660 C   0  0  0  0  0  2  0  0  0  0  0  0
  160.8080  204.3100  148.8480 C   0  0  0  0  0  2  0  0  0  0  0  0
  160.8340  202.5060  152.2300 F   0  0  0  0  0  0  0  0  0  0  0  0
  160.8290  202.7270  150.8900 C   0  0  0  0  0  0  0  0  0  0  0  0
  160.9070  201.6770  150.0580 C   0  0  0  0  0  3  0  0  0  0  0  0
  161.5260  203.1540  148.1580 C   0  0  0  0  0  2  0  0  0  0  0  0
  162.6950  211.0350  149.2780 C   0  0  0  0  0  2  0  0  0  0  0  0
  160.8850  211.3370  147.5380 C   0  0  0  0  0  2  0  0  0  0  0  0
  163.0540  213.0970  147.4580 S   0  0  0  0  0  0  0  0  0  0  0  0
  160.4400  213.0480  145.7760 C   0  0  2  0  0  3  0  0  0  0  0  0
  161.9190  212.0350  148.4210 C   0  0  2  0  0  3  0  0  0  0  0  0
  160.9930  214.4260  146.1440 C   0  0  0  0  0  2  0  0  0  0  0  0
  161.8420  214.4530  147.4150 C   0  0  0  0  0  2  0  0  0  0  0  0
  159.3750  213.2070  144.7120 C   0  0  0  0  0  1  0  0  0  0  0  0
  159.8570  212.3090  146.9740 C   0  0  0  0  0  2  0  0  0  0  0  0
  1 10  1  0  0  0  0
  2  8  1  0  0  0  0
  3  9  1  0  0  0  0
  3  5  1  0  0  0  0
  4  6  1  0  0  0  0
  5 11  1  0  0  0  0
  7  2  1  0  0  0  0
  8  4  2  0  0  0  0
  9 20  1  6  0  0  0
  9  7  1  0  0  0  0
 10  6  2  0  0  0  0
 11  1  2  0  0  0  0
 11  8  1  0  0  0  0
 12  1  1  0  0  0  0
 13 17  1  0  0  0  0
 13 12  1  1  0  0  0
 14 18  1  0  0  0  0
 15 13  1  0  0  0  0
 17 16  1  0  0  0  0
 18 17  2  0  0  0  0
 19 14  1  0  0  0  0
 19 15  1  0  0  0  0
 21 24  1  0  0  0  0
 22 24  1  0  0  0  0
 23 27  1  6  0  0  0
 23 25  1  0  0  0  0
 23 28  1  0  0  0  0
 24 20  1  6  0  0  0
 25 26  1  0  0  0  0
 26 22  1  0  0  0  0
 28 21  1  0  0  0  0
M  END
>  <MODEL>
3

>  <REMARK>
 VINA RESULT:      -8.4      4.017      5.550
  Name = 
  4 active torsions:
  status: ('A' for Active; 'I' for Inactive)
    1  A    between atoms: C_1  and  O_2
    2  A    between atoms: O_2  and  C_3
    3  A    between atoms: C_10  and  C_13
    4  A    between atoms: C_10  and  C_25
                            x       y       z     vdW  Elec       q    Type
                         _______ _______ _______ _____ _____    ______ ____

>  <TORSDO>
F 4

$$$$
=
 OpenBabel11052422493D

 28 31  0  0  1  0  0  0  0  0999 V2000
  160.5790  209.9460  154.9740 C   0  0  0  0  0  0  0  0  0  0  0  0
  161.7380  206.8980  152.9840 C   0  0  0  0  0  2  0  0  0  0  0  0
  161.4330  209.5760  151.5260 C   0  0  0  0  0  2  0  0  0  0  0  0
  160.3730  207.1470  155.0480 C   0  0  0  0  0  3  0  0  0  0  0  0
  162.0090  209.8510  152.9110 C   0  0  0  0  0  2  0  0  0  0  0  0
  159.7470  207.9180  156.0270 C   0  0  0  0  0  3  0  0  0  0  0  0
  161.1110  207.1540  151.6940 N   0  0  0  0  0  2  0  0  0  0  0  0
  161.1080  207.7610  154.0310 C   0  0  0  0  0  0  0  0  0  0  0  0
  161.8700  208.2040  151.0240 C   0  0  1  0  0  3  0  0  0  0  0  0
  159.8500  209.3080  155.9900 C   0  0  0  0  0  3  0  0  0  0  0  0
  161.2130  209.1680  153.9880 C   0  0  0  0  0  0  0  0  0  0  0  0
  160.6970  211.3460  154.9220 O   0  0  0  0  0  0  0  0  0  0  0  0
  159.7270  212.2500  154.3850 C   0  0  1  0  0  3  0  0  0  0  0  0
  156.8840  212.8320  154.8350 C   0  0  0  0  0  2  0  0  0  0  0  0
  158.6090  211.5180  153.6240 C   0  0  0  0  0  2  0  0  0  0  0  0
  160.1920  213.9470  156.1300 F   0  0  0  0  0  0  0  0  0  0  0  0
  159.2650  213.2760  155.4010 C   0  0  0  0  0  0  0  0  0  0  0  0
  157.9640  213.5110  155.6290 C   0  0  0  0  0  3  0  0  0  0  0  0
  157.3180  211.4300  154.4320 C   0  0  0  0  0  2  0  0  0  0  0  0
  161.6340  208.1310  149.5190 C   0  0  0  0  0  2  0  0  0  0  0  0
  162.1130  206.7480  147.4580 C   0  0  0  0  0  2  0  0  0  0  0  0
  160.3310  205.6900  149.3320 S   0  0  0  0  0  0  0  0  0  0  0  0
  161.4930  204.4410  146.7330 C   0  0  2  0  0  3  0  0  0  0  0  0
  161.7920  206.7200  148.9510 C   0  0  2  0  0  3  0  0  0  0  0  0
  161.2810  203.4920  147.9140 C   0  0  0  0  0  2  0  0  0  0  0  0
  161.3220  204.1650  149.2870 C   0  0  0  0  0  2  0  0  0  0  0  0
  161.7510  203.6280  145.4820 C   0  0  0  0  0  1  0  0  0  0  0  0
  162.6460  205.4110  146.9570 C   0  0  0  0  0  2  0  0  0  0  0  0
  1 10  1  0  0  0  0
  2  8  1  0  0  0  0
  3  5  1  0  0  0  0
  4  6  1  0  0  0  0
  5 11  1  0  0  0  0
  7  2  1  0  0  0  0
  8  4  2  0  0  0  0
  9 20  1  6  0  0  0
  9  3  1  0  0  0  0
  9  7  1  0  0  0  0
 10  6  2  0  0  0  0
 11  8  1  0  0  0  0
 11  1  2  0  0  0  0
 12  1  1  0  0  0  0
 13 12  1  1  0  0  0
 13 17  1  0  0  0  0
 14 18  1  0  0  0  0
 15 13  1  0  0  0  0
 15 19  1  0  0  0  0
 17 18  2  0  0  0  0
 17 16  1  0  0  0  0
 19 14  1  0  0  0  0
 21 24  1  0  0  0  0
 23 27  1  6  0  0  0
 23 28  1  0  0  0  0
 23 25  1  0  0  0  0
 24 22  1  0  0  0  0
 24 20  1  6  0  0  0
 25 26  1  0  0  0  0
 26 22  1  0  0  0  0
 28 21  1  0  0  0  0
M  END
>  <MODEL>
4

>  <REMARK>
 VINA RESULT:      -7.8      3.544      8.943
  Name = 
  4 active torsions:
  status: ('A' for Active; 'I' for Inactive)
    1  A    between atoms: C_1  and  O_2
    2  A    between atoms: O_2  and  C_3
    3  A    between atoms: C_10  and  C_13
    4  A    between atoms: C_10  and  C_25
                            x       y       z     vdW  Elec       q    Type
                         _______ _______ _______ _____ _____    ______ ____

>  <TORSDO>
F 4

$$$$
=
 OpenBabel11052422493D

 28 31  0  0  1  0  0  0  0  0999 V2000
  159.0320  212.4230  152.9090 C   0  0  0  0  0  0  0  0  0  0  0  0
  161.6720  210.4740  154.8640 C   0  0  0  0  0  2  0  0  0  0  0  0
  160.4560  209.1940  152.3600 C   0  0  0  0  0  2  0  0  0  0  0  0
  160.0480  212.2400  155.5200 C   0  0  0  0  0  3  0  0  0  0  0  0
  160.6480  210.6820  152.0890 C   0  0  0  0  0  2  0  0  0  0  0  0
  159.0150  213.1320  155.2350 C   0  0  0  0  0  3  0  0  0  0  0  0
  161.1920  209.1080  154.6940 N   0  0  0  0  0  2  0  0  0  0  0  0
  160.5860  211.4390  154.5090 C   0  0  0  0  0  0  0  0  0  0  0  0
  161.5110  208.6840  153.3350 C   0  0  1  0  0  3  0  0  0  0  0  0
  158.5110  213.2230  153.9380 C   0  0  0  0  0  3  0  0  0  0  0  0
  160.0770  211.5250  153.1960 C   0  0  0  0  0  0  0  0  0  0  0  0
  158.5390  212.5030  151.5950 O   0  0  0  0  0  0  0  0  0  0  0  0
  158.6430  213.6360  150.7280 C   0  0  1  0  0  3  0  0  0  0  0  0
  159.8380  214.2040  148.1070 C   0  0  0  0  0  2  0  0  0  0  0  0
  160.0950  214.1200  150.5760 C   0  0  0  0  0  2  0  0  0  0  0  0
  156.5950  213.0010  149.4850 F   0  0  0  0  0  0  0  0  0  0  0  0
  157.8750  213.4490  149.4350 C   0  0  0  0  0  0  0  0  0  0  0  0
  158.4390  213.6740  148.2380 C   0  0  0  0  0  3  0  0  0  0  0  0
  160.7110  213.6960  149.2450 C   0  0  0  0  0  2  0  0  0  0  0  0
  161.5530  207.1620  153.2670 C   0  0  0  0  0  2  0  0  0  0  0  0
  161.1620  205.0820  151.8830 C   0  0  0  0  0  2  0  0  0  0  0  0
  162.3310  207.2760  150.6080 S   0  0  0  0  0  0  0  0  0  0  0  0
  161.4040  204.5410  149.4580 C   0  0  2  0  0  3  0  0  0  0  0  0
  161.2050  206.6090  151.8840 C   0  0  2  0  0  3  0  0  0  0  0  0
  161.2050  205.7640  148.5610 C   0  0  0  0  0  2  0  0  0  0  0  0
  161.0670  207.0880  149.3120 C   0  0  0  0  0  2  0  0  0  0  0  0
  161.2040  203.2840  148.6380 C   0  0  0  0  0  1  0  0  0  0  0  0
  160.4580  204.5260  150.6520 C   0  0  0  0  0  2  0  0  0  0  0  0
  1 11  2  0  0  0  0
  1 10  1  0  0  0  0
  3  9  1  0  0  0  0
  5  3  1  0  0  0  0
  5 11  1  0  0  0  0
  6  4  1  0  0  0  0
  7  2  1  0  0  0  0
  8  2  1  0  0  0  0
  8  4  2  0  0  0  0
  9 20  1  1  0  0  0
  9  7  1  0  0  0  0
 10  6  2  0  0  0  0
 11  8  1  0  0  0  0
 12  1  1  0  0  0  0
 13 12  1  6  0  0  0
 14 18  1  0  0  0  0
 14 19  1  0  0  0  0
 15 13  1  0  0  0  0
 17 16  1  0  0  0  0
 17 13  1  0  0  0  0
 18 17  2  0  0  0  0
 19 15  1  0  0  0  0
 21 24  1  0  0  0  0
 22 24  1  0  0  0  0
 23 27  1  6  0  0  0
 23 28  1  0  0  0  0
 24 20  1  1  0  0  0
 25 26  1  0  0  0  0
 25 23  1  0  0  0  0
 26 22  1  0  0  0  0
 28 21  1  0  0  0  0
M  END
>  <MODEL>
5

>  <REMARK>
 VINA RESULT:      -7.7      3.536      8.414
  Name = 
  4 active torsions:
  status: ('A' for Active; 'I' for Inactive)
    1  A    between atoms: C_1  and  O_2
    2  A    between atoms: O_2  and  C_3
    3  A    between atoms: C_10  and  C_13
    4  A    between atoms: C_10  and  C_25
                            x       y       z     vdW  Elec       q    Type
                         _______ _______ _______ _____ _____    ______ ____

>  <TORSDO>
F 4

$$$$
=
 OpenBabel11052422493D

 28 31  0  0  1  0  0  0  0  0999 V2000
  161.8620  206.1710  149.6230 C   0  0  0  0  0  0  0  0  0  0  0  0
  161.9570  209.1480  152.0140 C   0  0  0  0  0  2  0  0  0  0  0  0
  161.0510  206.4270  153.0910 C   0  0  0  0  0  2  0  0  0  0  0  0
  161.6830  208.9710  149.5480 C   0  0  0  0  0  3  0  0  0  0  0  0
  162.1960  206.1940  152.1130 C   0  0  0  0  0  2  0  0  0  0  0  0
  161.5790  208.2350  148.3690 C   0  0  0  0  0  3  0  0  0  0  0  0
  160.8150  208.8550  152.8690 N   0  0  0  0  0  2  0  0  0  0  0  0
  161.8820  208.3230  150.7690 C   0  0  0  0  0  0  0  0  0  0  0  0
  161.1970  207.7800  153.7790 C   0  0  1  0  0  3  0  0  0  0  0  0
  161.6680  206.8440  148.4070 C   0  0  0  0  0  3  0  0  0  0  0  0
  161.9700  206.9150  150.8120 C   0  0  0  0  0  0  0  0  0  0  0  0
  161.9580  204.7690  149.6790 O   0  0  0  0  0  0  0  0  0  0  0  0
  160.8840  203.8460  149.4780 C   0  0  1  0  0  3  0  0  0  0  0  0
  160.6260  200.9880  148.8560 C   0  0  0  0  0  2  0  0  0  0  0  0
  160.8310  203.3220  148.0330 C   0  0  0  0  0  2  0  0  0  0  0  0
  160.8830  203.1710  151.8630 F   0  0  0  0  0  0  0  0  0  0  0  0
  160.8180  202.7890  150.5620 C   0  0  0  0  0  0  0  0  0  0  0  0
  160.7370  201.4820  150.2710 C   0  0  0  0  0  3  0  0  0  0  0  0
  161.3850  201.9060  147.9090 C   0  0  0  0  0  2  0  0  0  0  0  0
  160.3010  207.8070  155.0120 C   0  0  0  0  0  2  0  0  0  0  0  0
  159.2480  210.0970  155.2080 C   0  0  0  0  0  2  0  0  0  0  0  0
  161.9900  209.8940  155.7070 S   0  0  0  0  0  0  0  0  0  0  0  0
  160.0720  212.3260  155.9720 C   0  0  2  0  0  3  0  0  0  0  0  0
  160.3200  209.1490  155.7430 C   0  0  2  0  0  3  0  0  0  0  0  0
  161.1850  212.2150  157.0150 C   0  0  0  0  0  2  0  0  0  0  0  0
  161.6860  210.7910  157.2610 C   0  0  0  0  0  2  0  0  0  0  0  0
  159.4490  213.7040  156.0540 C   0  0  0  0  0  1  0  0  0  0  0  0
  158.9910  211.2680  156.1480 C   0  0  0  0  0  2  0  0  0  0  0  0
  1 12  1  0  0  0  0
  1 11  1  0  0  0  0
  2  7  1  0  0  0  0
  3  9  1  0  0  0  0
  4  8  1  0  0  0  0
  5  3  1  0  0  0  0
  6 10  1  0  0  0  0
  6  4  2  0  0  0  0
  7  9  1  0  0  0  0
  8 11  2  0  0  0  0
  8  2  1  0  0  0  0
  9 20  1  1  0  0  0
 10  1  2  0  0  0  0
 11  5  1  0  0  0  0
 13 12  1  6  0  0  0
 13 17  1  0  0  0  0
 14 18  1  0  0  0  0
 15 13  1  0  0  0  0
 17 16  1  0  0  0  0
 18 17  2  0  0  0  0
 19 15  1  0  0  0  0
 19 14  1  0  0  0  0
 21 24  1  0  0  0  0
 21 28  1  0  0  0  0
 22 24  1  0  0  0  0
 22 26  1  0  0  0  0
 23 27  1  1  0  0  0
 23 28  1  0  0  0  0
 23 25  1  0  0  0  0
 24 20  1  6  0  0  0
 25 26  1  0  0  0  0
M  END
>  <MODEL>
6

>  <REMARK>
 VINA RESULT:      -7.7      2.263      3.887
  Name = 
  4 active torsions:
  status: ('A' for Active; 'I' for Inactive)
    1  A    between atoms: C_1  and  O_2
    2  A    between atoms: O_2  and  C_3
    3  A    between atoms: C_10  and  C_13
    4  A    between atoms: C_10  and  C_25
                            x       y       z     vdW  Elec       q    Type
                         _______ _______ _______ _____ _____    ______ ____

>  <TORSDO>
F 4

$$$$
=
 OpenBabel11052422493D

 28 31  0  0  1  0  0  0  0  0999 V2000
  160.1900  209.5180  155.0500 C   0  0  0  0  0  0  0  0  0  0  0  0
  161.9560  206.8020  153.0250 C   0  0  0  0  0  2  0  0  0  0  0  0
  161.2030  209.4220  151.6260 C   0  0  0  0  0  2  0  0  0  0  0  0
  160.5060  206.7280  155.0450 C   0  0  0  0  0  3  0  0  0  0  0  0
  161.6750  209.7550  153.0370 C   0  0  0  0  0  2  0  0  0  0  0  0
  159.7180  207.3380  156.0200 C   0  0  0  0  0  3  0  0  0  0  0  0
  161.3320  206.9780  151.7200 N   0  0  0  0  0  2  0  0  0  0  0  0
  161.1450  207.4990  154.0710 C   0  0  0  0  0  0  0  0  0  0  0  0
  161.9030  208.1720  151.1050 C   0  0  1  0  0  3  0  0  0  0  0  0
  159.5620  208.7240  156.0220 C   0  0  0  0  0  3  0  0  0  0  0  0
  160.9870  208.9020  154.0680 C   0  0  0  0  0  0  0  0  0  0  0  0
  160.0460  210.9160  155.0380 O   0  0  0  0  0  0  0  0  0  0  0  0
  158.8120  211.6320  154.9320 C   0  0  1  0  0  3  0  0  0  0  0  0
  157.9890  214.3530  154.1980 C   0  0  0  0  0  2  0  0  0  0  0  0
  158.7060  212.7650  155.9680 C   0  0  0  0  0  2  0  0  0  0  0  0
  158.5800  211.0780  152.5270 F   0  0  0  0  0  0  0  0  0  0  0  0
  158.4870  212.0170  153.5030 C   0  0  0  0  0  0  0  0  0  0  0  0
  158.1480  213.2710  153.1680 C   0  0  0  0  0  3  0  0  0  0  0  0
  158.9580  214.1380  155.3520 C   0  0  0  0  0  2  0  0  0  0  0  0
  161.7300  208.1040  149.5920 C   0  0  0  0  0  2  0  0  0  0  0  0
  162.2220  206.6880  147.5560 C   0  0  0  0  0  2  0  0  0  0  0  0
  160.3130  205.7320  149.3580 S   0  0  0  0  0  0  0  0  0  0  0  0
  161.5150  204.4120  146.8130 C   0  0  2  0  0  3  0  0  0  0  0  0
  161.8400  206.6840  149.0350 C   0  0  2  0  0  3  0  0  0  0  0  0
  161.2060  203.4810  147.9870 C   0  0  0  0  0  2  0  0  0  0  0  0
  161.2260  204.1580  149.3580 C   0  0  0  0  0  2  0  0  0  0  0  0
  161.7820  203.5810  145.5760 C   0  0  0  0  0  1  0  0  0  0  0  0
  162.7050  205.3230  147.0810 C   0  0  0  0  0  2  0  0  0  0  0  0
  1 10  1  0  0  0  0
  2  8  1  0  0  0  0
  3  5  1  0  0  0  0
  4  6  1  0  0  0  0
  5 11  1  0  0  0  0
  6 10  2  0  0  0  0
  7  2  1  0  0  0  0
  8  4  2  0  0  0  0
  9 20  1  6  0  0  0
  9  3  1  0  0  0  0
  9  7  1  0  0  0  0
 11  8  1  0  0  0  0
 11  1  2  0  0  0  0
 12  1  1  0  0  0  0
 13 12  1  6  0  0  0
 13 15  1  0  0  0  0
 14 19  1  0  0  0  0
 16 17  1  0  0  0  0
 17 13  1  0  0  0  0
 18 17  2  0  0  0  0
 18 14  1  0  0  0  0
 19 15  1  0  0  0  0
 21 24  1  0  0  0  0
 23 27  1  6  0  0  0
 23 28  1  0  0  0  0
 23 25  1  0  0  0  0
 24 22  1  0  0  0  0
 24 20  1  6  0  0  0
 25 26  1  0  0  0  0
 26 22  1  0  0  0  0
 28 21  1  0  0  0  0
M  END
>  <MODEL>
7

>  <REMARK>
 VINA RESULT:      -7.6      3.128      8.796
  Name = 
  4 active torsions:
  status: ('A' for Active; 'I' for Inactive)
    1  A    between atoms: C_1  and  O_2
    2  A    between atoms: O_2  and  C_3
    3  A    between atoms: C_10  and  C_13
    4  A    between atoms: C_10  and  C_25
                            x       y       z     vdW  Elec       q    Type
                         _______ _______ _______ _____ _____    ______ ____

>  <TORSDO>
F 4

$$$$
=
 OpenBabel11052422493D

 28 31  0  0  1  0  0  0  0  0999 V2000
  160.9160  204.4450  149.8750 C   0  0  0  0  0  0  0  0  0  0  0  0
  160.8980  207.0500  152.6700 C   0  0  0  0  0  2  0  0  0  0  0  0
  161.5870  207.9530  149.8240 C   0  0  0  0  0  2  0  0  0  0  0  0
  161.2700  204.5910  152.6560 C   0  0  0  0  0  3  0  0  0  0  0  0
  160.4730  206.9150  149.7370 C   0  0  0  0  0  2  0  0  0  0  0  0
  161.3810  203.3640  152.0040 C   0  0  0  0  0  3  0  0  0  0  0  0
  161.9810  207.9250  152.2410 N   0  0  0  0  0  2  0  0  0  0  0  0
  160.9770  205.7500  151.9340 C   0  0  0  0  0  0  0  0  0  0  0  0
  161.4940  208.7350  151.1290 C   0  0  1  0  0  3  0  0  0  0  0  0
  161.2040  203.2920  150.6220 C   0  0  0  0  0  3  0  0  0  0  0  0
  160.8010  205.6830  150.5350 C   0  0  0  0  0  0  0  0  0  0  0  0
  160.7310  204.3920  148.4830 O   0  0  0  0  0  0  0  0  0  0  0  0
  161.7320  204.0590  147.5160 C   0  0  1  0  0  3  0  0  0  0  0  0
  162.0480  204.3150  144.6080 C   0  0  0  0  0  2  0  0  0  0  0  0
  161.2580  202.9690  146.5400 C   0  0  0  0  0  2  0  0  0  0  0  0
  162.7740  206.3020  147.6730 F   0  0  0  0  0  0  0  0  0  0  0  0
  162.3520  205.2850  146.8780 C   0  0  0  0  0  0  0  0  0  0  0  0
  162.4600  205.4130  145.5470 C   0  0  0  0  0  3  0  0  0  0  0  0
  160.8700  203.5390  145.1790 C   0  0  0  0  0  2  0  0  0  0  0  0
  162.3340  210.0010  151.0070 C   0  0  0  0  0  2  0  0  0  0  0  0
  160.3370  211.1510  152.0480 C   0  0  0  0  0  2  0  0  0  0  0  0
  160.9610  211.8000  149.4030 S   0  0  0  0  0  0  0  0  0  0  0  0
  158.8070  212.9800  151.3080 C   0  0  2  0  0  3  0  0  0  0  0  0
  161.5040  211.2840  151.0710 C   0  0  2  0  0  3  0  0  0  0  0  0
  159.4850  213.9600  150.3490 C   0  0  0  0  0  2  0  0  0  0  0  0
  160.8880  213.5480  149.9040 C   0  0  0  0  0  2  0  0  0  0  0  0
  157.5900  213.6420  151.9180 C   0  0  0  0  0  1  0  0  0  0  0  0
  159.7360  212.5020  152.4170 C   0  0  0  0  0  2  0  0  0  0  0  0
  1 11  2  0  0  0  0
  1 10  1  0  0  0  0
  3  9  1  0  0  0  0
  5  3  1  0  0  0  0
  5 11  1  0  0  0  0
  6  4  1  0  0  0  0
  7  2  1  0  0  0  0
  8  4  2  0  0  0  0
  8  2  1  0  0  0  0
  9 20  1  6  0  0  0
  9  7  1  0  0  0  0
 10  6  2  0  0  0  0
 11  8  1  0  0  0  0
 12  1  1  0  0  0  0
 13 12  1  6  0  0  0
 14 19  1  0  0  0  0
 14 18  1  0  0  0  0
 15 13  1  0  0  0  0
 17 13  1  0  0  0  0
 17 16  1  0  0  0  0
 18 17  2  0  0  0  0
 19 15  1  0  0  0  0
 21 28  1  0  0  0  0
 22 26  1  0  0  0  0
 22 24  1  0  0  0  0
 23 27  1  1  0  0  0
 23 28  1  0  0  0  0
 24 20  1  6  0  0  0
 24 21  1  0  0  0  0
 25 23  1  0  0  0  0
 26 25  1  0  0  0  0
M  END
>  <MODEL>
8

>  <REMARK>
 VINA RESULT:      -7.4      1.828      2.347
  Name = 
  4 active torsions:
  status: ('A' for Active; 'I' for Inactive)
    1  A    between atoms: C_1  and  O_2
    2  A    between atoms: O_2  and  C_3
    3  A    between atoms: C_10  and  C_13
    4  A    between atoms: C_10  and  C_25
                            x       y       z     vdW  Elec       q    Type
                         _______ _______ _______ _____ _____    ______ ____

>  <TORSDO>
F 4

$$$$
=
 OpenBabel11052422493D

 28 31  0  0  1  0  0  0  0  0999 V2000
  161.5820  205.0190  150.4660 C   0  0  0  0  0  0  0  0  0  0  0  0
  160.7950  208.4740  151.8930 C   0  0  0  0  0  2  0  0  0  0  0  0
  162.3210  208.2910  149.2420 C   0  0  0  0  0  2  0  0  0  0  0  0
  161.0950  206.2410  152.9460 C   0  0  0  0  0  3  0  0  0  0  0  0
  161.2590  207.1970  149.2560 C   0  0  0  0  0  2  0  0  0  0  0  0
  161.3670  204.8750  152.8840 C   0  0  0  0  0  3  0  0  0  0  0  0
  161.9770  209.2200  151.4820 N   0  0  0  0  0  2  0  0  0  0  0  0
  161.0590  207.0060  151.7780 C   0  0  0  0  0  0  0  0  0  0  0  0
  161.8620  209.4970  150.0540 C   0  0  1  0  0  3  0  0  0  0  0  0
  161.6080  204.2680  151.6520 C   0  0  0  0  0  3  0  0  0  0  0  0
  161.3050  206.3970  150.5290 C   0  0  0  0  0  0  0  0  0  0  0  0
  161.8200  204.4240  149.2150 O   0  0  0  0  0  0  0  0  0  0  0  0
  160.8330  203.8210  148.3720 C   0  0  1  0  0  3  0  0  0  0  0  0
  160.8320  202.0390  146.0390 C   0  0  0  0  0  2  0  0  0  0  0  0
  160.8950  204.3560  146.9310 C   0  0  0  0  0  2  0  0  0  0  0  0
  160.7630  201.7640  149.7520 F   0  0  0  0  0  0  0  0  0  0  0  0
  160.7950  202.3130  148.5110 C   0  0  0  0  0  0  0  0  0  0  0  0
  160.8330  201.5020  147.4420 C   0  0  0  0  0  3  0  0  0  0  0  0
  161.5640  203.3710  145.9760 C   0  0  0  0  0  2  0  0  0  0  0  0
  162.7300  210.6970  149.6910 C   0  0  0  0  0  2  0  0  0  0  0  0
  160.7220  212.1430  150.2140 C   0  0  0  0  0  2  0  0  0  0  0  0
  161.4310  211.8470  147.5270 S   0  0  0  0  0  0  0  0  0  0  0  0
  159.2420  213.6170  148.8470 C   0  0  2  0  0  3  0  0  0  0  0  0
  161.9180  211.9290  149.2870 C   0  0  2  0  0  3  0  0  0  0  0  0
  159.9620  214.2080  147.6340 C   0  0  0  0  0  2  0  0  0  0  0  0
  161.3710  213.6620  147.4000 C   0  0  0  0  0  2  0  0  0  0  0  0
  158.0190  214.4530  149.1560 C   0  0  0  0  0  1  0  0  0  0  0  0
  160.1320  213.5410  150.0810 C   0  0  0  0  0  2  0  0  0  0  0  0
  1 11  2  0  0  0  0
  1 10  1  0  0  0  0
  3  5  1  0  0  0  0
  3  9  1  0  0  0  0
  5 11  1  0  0  0  0
  6  4  1  0  0  0  0
  7  2  1  0  0  0  0
  8  2  1  0  0  0  0
  8  4  2  0  0  0  0
  9 20  1  6  0  0  0
  9  7  1  0  0  0  0
 10  6  2  0  0  0  0
 11  8  1  0  0  0  0
 12  1  1  0  0  0  0
 13 17  1  0  0  0  0
 13 12  1  1  0  0  0
 14 18  1  0  0  0  0
 15 13  1  0  0  0  0
 17 16  1  0  0  0  0
 18 17  2  0  0  0  0
 19 14  1  0  0  0  0
 19 15  1  0  0  0  0
 22 24  1  0  0  0  0
 23 27  1  1  0  0  0
 23 28  1  0  0  0  0
 24 20  1  1  0  0  0
 24 21  1  0  0  0  0
 25 23  1  0  0  0  0
 26 22  1  0  0  0  0
 26 25  1  0  0  0  0
 28 21  1  0  0  0  0
M  END
>  <MODEL>
9

>  <REMARK>
 VINA RESULT:      -7.3      3.187      4.137
  Name = 
  4 active torsions:
  status: ('A' for Active; 'I' for Inactive)
    1  A    between atoms: C_1  and  O_2
    2  A    between atoms: O_2  and  C_3
    3  A    between atoms: C_10  and  C_13
    4  A    between atoms: C_10  and  C_25
                            x       y       z     vdW  Elec       q    Type
                         _______ _______ _______ _____ _____    ______ ____

>  <TORSDO>
F 4

$$$$
