=
 OpenBabel11062410213D

 43 48  0  0  1  0  0  0  0  0999 V2000
  160.8020  211.8680  152.8680 C   0  0  0  0  0  2  0  0  0  0  0  0
  156.4310  211.7180  155.5470 C   0  0  0  0  0  0  0  0  0  0  0  0
  159.2370  213.5420  151.7440 C   0  0  0  0  0  0  0  0  0  0  0  0
  157.2070  212.9140  153.5880 C   0  0  0  0  0  0  0  0  0  0  0  0
  157.6720  211.0860  155.6580 C   0  0  0  0  0  3  0  0  0  0  0  0
  155.3530  211.4120  156.5230 C   0  0  0  0  0  1  0  0  0  0  0  0
  158.4710  212.2880  153.6990 C   0  0  0  0  0  0  0  0  0  0  0  0
  156.1990  212.6300  154.5130 C   0  0  0  0  0  3  0  0  0  0  0  0
  158.6850  211.3690  154.7410 C   0  0  0  0  0  3  0  0  0  0  0  0
  159.4920  212.5950  152.7750 C   0  0  0  0  0  0  0  0  0  0  0  0
  157.9720  214.1270  151.6460 C   0  0  0  0  0  3  0  0  0  0  0  0
  156.9640  213.8180  152.5580 C   0  0  0  0  0  3  0  0  0  0  0  0
  160.5710  213.2680  149.7000 C   0  0  0  0  0  0  0  0  0  0  0  0
  160.9190  212.5380  148.6740 C   0  0  0  0  0  3  0  0  0  0  0  0
  160.2300  213.9760  150.7400 C   0  0  0  0  0  3  0  0  0  0  0  0
  161.0250  213.1440  144.8600 C   0  0  0  0  0  2  0  0  0  0  0  0
  158.1810  212.8540  146.0860 C   0  0  0  0  0  3  0  0  0  0  0  0
  158.6060  213.0180  144.6610 C   0  0  0  0  0  2  0  0  0  0  0  0
  161.3140  212.8660  146.2950 C   0  0  0  0  0  3  0  0  0  0  0  0
  160.4300  212.7580  147.3030 C   0  0  0  0  0  0  0  0  0  0  0  0
  159.8920  212.2900  144.3480 C   0  0  0  0  0  2  0  0  0  0  0  0
  158.9560  212.7730  147.1720 C   0  0  0  0  0  3  0  0  0  0  0  0
  160.8340  210.7940  151.8860 N   0  0  0  0  0  2  0  0  0  0  0  0
  160.4840  209.5640  152.5780 C   0  0  0  0  0  2  0  0  0  0  0  0
  161.5010  208.4700  152.2690 C   0  0  1  0  0  3  0  0  0  0  0  0
  162.5450  205.2870  150.5230 F   0  0  0  0  0  0  0  0  0  0  0  0
  161.1670  205.2580  150.6850 C   0  0  2  0  0  0  0  0  0  0  0  0
  160.8730  207.1540  152.3670 N   0  0  2  0  0  0  0  0  0  0  0  0
  162.0150  208.6490  150.8550 C   0  0  0  0  0  2  0  0  0  0  0  0
  161.8000  206.3020  153.1140 C   0  0  0  0  0  2  0  0  0  0  0  0
  160.6430  206.6800  150.9820 C   0  0  1  0  0  3  0  0  0  0  0  0
  160.8130  204.3340  151.8530 C   0  0  0  0  0  2  0  0  0  0  0  0
  161.1970  207.7120  150.0110 C   0  0  0  0  0  2  0  0  0  0  0  0
  161.2640  204.8780  153.2120 C   0  0  0  0  0  2  0  0  0  0  0  0
  160.5000  204.7330  149.4110 C   0  0  0  0  0  2  0  0  0  0  0  0
  161.4940  204.1140  148.4290 C   0  0  1  0  0  3  0  0  0  0  0  0
  161.3450  202.6030  148.4390 C   0  0  0  0  0  1  0  0  0  0  0  0
  161.3130  204.6430  147.0420 C   0  0  0  0  0  0  0  0  0  0  0  0
  161.4450  204.3110  144.6840 N   0  0  0  0  0  0  0  0  0  0  0  0
  160.6270  206.3540  145.5220 N   0  0  0  0  0  0  0  0  0  0  0  0
  160.9490  205.5580  144.4690 C   0  0  0  0  0  3  0  0  0  0  0  0
  160.7940  205.9210  146.7980 C   0  0  0  0  0  3  0  0  0  0  0  0
  161.6290  203.8410  145.9460 C   0  0  0  0  0  3  0  0  0  0  0  0
  2  5  1  0  0  0  0
  2  6  1  0  0  0  0
  3 10  1  0  0  0  0
  4  7  1  0  0  0  0
  4  8  1  0  0  0  0
  7  9  1  0  0  0  0
  8  2  2  0  0  0  0
  9  5  2  0  0  0  0
 10  1  1  0  0  0  0
 10  7  2  0  0  0  0
 11  3  2  0  0  0  0
 11 12  1  0  0  0  0
 12  4  2  0  0  0  0
 13 15  2  0  0  0  0
 14 13  2  0  0  0  0
 15  3  1  0  0  0  0
 16 19  1  0  0  0  0
 17 22  2  0  0  0  0
 18 17  1  0  0  0  0
 19 20  2  0  0  0  0
 20 14  1  0  0  0  0
 21 18  1  0  0  0  0
 21 16  1  0  0  0  0
 22 20  1  0  0  0  0
 23 24  1  0  0  0  0
 23  1  1  0  0  0  0
 25 28  1  0  0  0  0
 25 24  1  6  0  0  0
 27 26  1  6  0  0  0
 27 31  1  0  0  0  0
 27 32  1  0  0  0  0
 28 30  1  6  0  0  0
 29 25  1  0  0  0  0
 30 34  1  0  0  0  0
 31 33  1  6  0  0  0
 31 28  1  0  0  0  0
 32 34  1  0  0  0  0
 33 29  1  0  0  0  0
 35 27  1  0  0  0  0
 36 37  1  6  0  0  0
 36 35  1  0  0  0  0
 38 36  1  0  0  0  0
 39 43  1  0  0  0  0
 40 42  2  0  0  0  0
 41 39  2  0  0  0  0
 41 40  1  0  0  0  0
 42 38  1  0  0  0  0
 43 38  2  0  0  0  0
M  END
>  <MODEL>
1

>  <REMARK>
 VINA RESULT:      -8.8      0.000      0.000
  Name = 
  9 active torsions:
  status: ('A' for Active; 'I' for Inactive)
    1  A    between atoms: C_2  and  C_13
    2  A    between atoms: C_4  and  C_22
    3  A    between atoms: C_8  and  C_34
    4  A    between atoms: C_11  and  C_14
    5  A    between atoms: C_13  and  N_38
    6  A    between atoms: C_14  and  C_22
    7  A    between atoms: C_27  and  C_30
    8  A    between atoms: C_27  and  N_38
    9  A    between atoms: C_28  and  C_35
                            x       y       z     vdW  Elec       q    Type
                         _______ _______ _______ _____ _____    ______ ____

>  <TORSDO>
F 9

$$$$
=
 OpenBabel11062410213D

 43 48  0  0  1  0  0  0  0  0999 V2000
  161.3350  208.1500  151.4800 C   0  0  0  0  0  2  0  0  0  0  0  0
  159.1630  211.4310  154.7690 C   0  0  0  0  0  0  0  0  0  0  0  0
  161.3730  206.9890  153.7520 C   0  0  0  0  0  0  0  0  0  0  0  0
  160.1620  209.2310  154.9430 C   0  0  0  0  0  0  0  0  0  0  0  0
  159.4110  211.4410  153.3950 C   0  0  0  0  0  3  0  0  0  0  0  0
  158.5080  212.6000  155.4120 C   0  0  0  0  0  1  0  0  0  0  0  0
  160.4090  209.2270  153.5500 C   0  0  0  0  0  0  0  0  0  0  0  0
  159.5380  210.3280  155.5420 C   0  0  0  0  0  3  0  0  0  0  0  0
  160.0300  210.3460  152.7890 C   0  0  0  0  0  3  0  0  0  0  0  0
  161.0190  208.1070  152.9460 C   0  0  0  0  0  0  0  0  0  0  0  0
  161.1390  207.0320  155.1280 C   0  0  0  0  0  3  0  0  0  0  0  0
  160.5390  208.1410  155.7220 C   0  0  0  0  0  3  0  0  0  0  0  0
  161.3430  204.8610  152.5240 C   0  0  0  0  0  0  0  0  0  0  0  0
  160.6820  203.9740  151.8290 C   0  0  0  0  0  3  0  0  0  0  0  0
  161.9830  205.7450  153.2380 C   0  0  0  0  0  3  0  0  0  0  0  0
  161.0310  205.0030  148.1210 C   0  0  0  0  0  2  0  0  0  0  0  0
  160.8840  201.9410  148.6480 C   0  0  0  0  0  3  0  0  0  0  0  0
  161.0920  202.6920  147.3710 C   0  0  0  0  0  2  0  0  0  0  0  0
  160.9630  204.9300  149.6070 C   0  0  0  0  0  3  0  0  0  0  0  0
  160.7820  203.8340  150.3660 C   0  0  0  0  0  0  0  0  0  0  0  0
  161.9320  203.9340  147.5540 C   0  0  0  0  0  2  0  0  0  0  0  0
  160.7330  202.4370  149.8800 C   0  0  0  0  0  3  0  0  0  0  0  0
  162.0430  209.3830  151.1700 N   0  0  0  0  0  2  0  0  0  0  0  0
  161.6870  209.7570  149.8110 C   0  0  0  0  0  2  0  0  0  0  0  0
  162.0730  211.2080  149.5380 C   0  0  1  0  0  3  0  0  0  0  0  0
  161.7080  214.4530  147.6390 F   0  0  0  0  0  0  0  0  0  0  0  0
  161.3300  213.4160  146.7970 C   0  0  2  0  0  0  0  0  0  0  0  0
  162.2440  211.4240  148.1020 N   0  0  2  0  0  0  0  0  0  0  0  0
  160.9670  212.1210  150.0280 C   0  0  0  0  0  2  0  0  0  0  0  0
  163.4760  212.1990  147.9400 C   0  0  0  0  0  2  0  0  0  0  0  0
  161.0410  212.1460  147.6260 C   0  0  1  0  0  3  0  0  0  0  0  0
  162.4620  213.1280  145.8080 C   0  0  0  0  0  2  0  0  0  0  0  0
  160.1340  212.4270  148.8150 C   0  0  0  0  0  2  0  0  0  0  0  0
  163.7090  212.5380  146.4720 C   0  0  0  0  0  2  0  0  0  0  0  0
  160.0710  213.8050  146.0180 C   0  0  0  0  0  2  0  0  0  0  0  0
  159.3810  212.6100  145.3640 C   0  0  1  0  0  3  0  0  0  0  0  0
  157.9170  212.5840  145.7670 C   0  0  0  0  0  1  0  0  0  0  0  0
  159.5070  212.6380  143.8740 C   0  0  0  0  0  0  0  0  0  0  0  0
  158.9760  213.6620  141.7870 N   0  0  0  0  0  0  0  0  0  0  0  0
  160.4110  211.7960  141.8290 N   0  0  0  0  0  0  0  0  0  0  0  0
  159.7510  212.7590  141.1320 C   0  0  0  0  0  3  0  0  0  0  0  0
  160.3080  211.7210  143.1810 C   0  0  0  0  0  3  0  0  0  0  0  0
  158.8460  213.6210  143.1380 C   0  0  0  0  0  3  0  0  0  0  0  0
  1 10  1  0  0  0  0
  2  6  1  0  0  0  0
  2  8  1  0  0  0  0
  3 11  1  0  0  0  0
  4  8  2  0  0  0  0
  4 12  1  0  0  0  0
  5  2  2  0  0  0  0
  7  4  1  0  0  0  0
  9  5  1  0  0  0  0
  9  7  2  0  0  0  0
 10  7  1  0  0  0  0
 10  3  2  0  0  0  0
 11 12  2  0  0  0  0
 13 15  2  0  0  0  0
 14 13  2  0  0  0  0
 15  3  1  0  0  0  0
 16 19  1  0  0  0  0
 17 22  2  0  0  0  0
 18 21  1  0  0  0  0
 18 17  1  0  0  0  0
 19 20  2  0  0  0  0
 20 14  1  0  0  0  0
 21 16  1  0  0  0  0
 22 20  1  0  0  0  0
 23  1  1  0  0  0  0
 24 23  1  0  0  0  0
 25 24  1  6  0  0  0
 25 29  1  0  0  0  0
 27 31  1  0  0  0  0
 27 26  1  1  0  0  0
 28 30  1  1  0  0  0
 28 25  1  0  0  0  0
 31 28  1  0  0  0  0
 31 33  1  1  0  0  0
 32 34  1  0  0  0  0
 32 27  1  0  0  0  0
 33 29  1  0  0  0  0
 34 30  1  0  0  0  0
 35 27  1  0  0  0  0
 36 37  1  6  0  0  0
 36 35  1  0  0  0  0
 38 36  1  0  0  0  0
 39 43  1  0  0  0  0
 40 42  2  0  0  0  0
 41 39  2  0  0  0  0
 41 40  1  0  0  0  0
 42 38  1  0  0  0  0
 43 38  2  0  0  0  0
M  END
>  <MODEL>
2

>  <REMARK>
 VINA RESULT:      -8.4      2.728      7.774
  Name = 
  9 active torsions:
  status: ('A' for Active; 'I' for Inactive)
    1  A    between atoms: C_2  and  C_13
    2  A    between atoms: C_4  and  C_22
    3  A    between atoms: C_8  and  C_34
    4  A    between atoms: C_11  and  C_14
    5  A    between atoms: C_13  and  N_38
    6  A    between atoms: C_14  and  C_22
    7  A    between atoms: C_27  and  C_30
    8  A    between atoms: C_27  and  N_38
    9  A    between atoms: C_28  and  C_35
                            x       y       z     vdW  Elec       q    Type
                         _______ _______ _______ _____ _____    ______ ____

>  <TORSDO>
F 9

$$$$
=
 OpenBabel11062410213D

 43 48  0  0  1  0  0  0  0  0999 V2000
  159.7740  213.2800  151.7570 C   0  0  0  0  0  2  0  0  0  0  0  0
  158.6490  213.1890  146.7550 C   0  0  0  0  0  0  0  0  0  0  0  0
  157.2850  213.8150  151.5920 C   0  0  0  0  0  0  0  0  0  0  0  0
  157.4120  213.6430  148.7870 C   0  0  0  0  0  0  0  0  0  0  0  0
  159.8040  212.9500  147.5050 C   0  0  0  0  0  3  0  0  0  0  0  0
  158.6940  213.0850  145.2730 C   0  0  0  0  0  1  0  0  0  0  0  0
  158.5720  213.3930  149.5570 C   0  0  0  0  0  0  0  0  0  0  0  0
  157.4560  213.5350  147.3950 C   0  0  0  0  0  3  0  0  0  0  0  0
  159.7650  213.0510  148.8960 C   0  0  0  0  0  3  0  0  0  0  0  0
  158.5170  213.4800  150.9640 C   0  0  0  0  0  0  0  0  0  0  0  0
  156.1620  214.0800  150.8050 C   0  0  0  0  0  3  0  0  0  0  0  0
  156.2210  213.9960  149.4150 C   0  0  0  0  0  3  0  0  0  0  0  0
  157.2080  212.8930  153.8680 C   0  0  0  0  0  0  0  0  0  0  0  0
  157.3130  211.8670  154.6690 C   0  0  0  0  0  3  0  0  0  0  0  0
  157.0860  213.9040  153.0540 C   0  0  0  0  0  3  0  0  0  0  0  0
  159.9750  209.8570  156.6180 C   0  0  0  0  0  2  0  0  0  0  0  0
  160.3160  212.9480  156.6950 C   0  0  0  0  0  3  0  0  0  0  0  0
  161.1820  211.8660  157.2610 C   0  0  0  0  0  2  0  0  0  0  0  0
  158.8620  210.3300  155.7490 C   0  0  0  0  0  3  0  0  0  0  0  0
  158.4850  211.6010  155.5190 C   0  0  0  0  0  0  0  0  0  0  0  0
  161.2400  210.6430  156.3770 C   0  0  0  0  0  2  0  0  0  0  0  0
  159.1850  212.8150  155.9950 C   0  0  0  0  0  3  0  0  0  0  0  0
  160.4170  212.0400  151.3490 N   0  0  0  0  0  2  0  0  0  0  0  0
  159.9520  210.9950  152.2470 C   0  0  0  0  0  2  0  0  0  0  0  0
  161.0990  210.0590  152.6160 C   0  0  1  0  0  3  0  0  0  0  0  0
  163.1960  206.9700  152.0450 F   0  0  0  0  0  0  0  0  0  0  0  0
  161.9280  206.7310  151.5340 C   0  0  2  0  0  0  0  0  0  0  0  0
  160.6470  208.6690  152.5870 N   0  0  2  0  0  0  0  0  0  0  0  0
  162.2190  210.2180  151.6080 C   0  0  0  0  0  2  0  0  0  0  0  0
  161.1720  208.0330  153.7970 C   0  0  0  0  0  2  0  0  0  0  0  0
  161.1790  208.0670  151.3420 C   0  0  1  0  0  3  0  0  0  0  0  0
  161.1460  205.8470  152.5090 C   0  0  0  0  0  2  0  0  0  0  0  0
  162.0250  209.1030  150.6180 C   0  0  0  0  0  2  0  0  0  0  0  0
  160.8110  206.5520  153.8270 C   0  0  0  0  0  2  0  0  0  0  0  0
  162.0340  206.0160  150.1840 C   0  0  0  0  0  2  0  0  0  0  0  0
  160.7090  205.4070  149.7260 C   0  0  1  0  0  3  0  0  0  0  0  0
  160.1780  206.1860  148.5350 C   0  0  0  0  0  1  0  0  0  0  0  0
  160.8490  203.9590  149.3780 C   0  0  0  0  0  0  0  0  0  0  0  0
  160.7480  201.6700  150.0380 N   0  0  0  0  0  0  0  0  0  0  0  0
  161.2430  202.2100  147.8000 N   0  0  0  0  0  0  0  0  0  0  0  0
  161.0460  201.2800  148.7710 C   0  0  0  0  0  3  0  0  0  0  0  0
  161.1460  203.5360  148.0760 C   0  0  0  0  0  3  0  0  0  0  0  0
  160.6430  202.9870  150.3560 C   0  0  0  0  0  3  0  0  0  0  0  0
  2  8  2  0  0  0  0
  2  5  1  0  0  0  0
  3 15  1  0  0  0  0
  4 12  2  0  0  0  0
  4  7  1  0  0  0  0
  5  9  2  0  0  0  0
  6  2  1  0  0  0  0
  7 10  2  0  0  0  0
  8  4  1  0  0  0  0
  9  7  1  0  0  0  0
 10  3  1  0  0  0  0
 10  1  1  0  0  0  0
 11  3  2  0  0  0  0
 12 11  1  0  0  0  0
 13 14  2  0  0  0  0
 14 20  1  0  0  0  0
 15 13  2  0  0  0  0
 17 18  1  0  0  0  0
 19 16  1  0  0  0  0
 20 19  2  0  0  0  0
 20 22  1  0  0  0  0
 21 16  1  0  0  0  0
 21 18  1  0  0  0  0
 22 17  2  0  0  0  0
 23  1  1  0  0  0  0
 23 24  1  0  0  0  0
 25 24  1  6  0  0  0
 27 26  1  1  0  0  0
 27 32  1  0  0  0  0
 28 25  1  0  0  0  0
 28 30  1  1  0  0  0
 29 25  1  0  0  0  0
 30 34  1  0  0  0  0
 31 33  1  1  0  0  0
 31 27  1  0  0  0  0
 31 28  1  0  0  0  0
 32 34  1  0  0  0  0
 33 29  1  0  0  0  0
 35 27  1  0  0  0  0
 36 37  1  6  0  0  0
 36 35  1  0  0  0  0
 38 36  1  0  0  0  0
 38 43  1  0  0  0  0
 39 43  2  0  0  0  0
 40 42  1  0  0  0  0
 40 41  2  0  0  0  0
 41 39  1  0  0  0  0
 42 38  2  0  0  0  0
M  END
>  <MODEL>
3

>  <REMARK>
 VINA RESULT:      -8.2      1.945      6.061
  Name = 
  9 active torsions:
  status: ('A' for Active; 'I' for Inactive)
    1  A    between atoms: C_2  and  C_13
    2  A    between atoms: C_4  and  C_22
    3  A    between atoms: C_8  and  C_34
    4  A    between atoms: C_11  and  C_14
    5  A    between atoms: C_13  and  N_38
    6  A    between atoms: C_14  and  C_22
    7  A    between atoms: C_27  and  C_30
    8  A    between atoms: C_27  and  N_38
    9  A    between atoms: C_28  and  C_35
                            x       y       z     vdW  Elec       q    Type
                         _______ _______ _______ _____ _____    ______ ____

>  <TORSDO>
F 9

$$$$
=
 OpenBabel11062410213D

 43 48  0  0  1  0  0  0  0  0999 V2000
  160.4700  212.1870  152.5120 C   0  0  0  0  0  2  0  0  0  0  0  0
  159.4460  213.9520  147.8070 C   0  0  0  0  0  0  0  0  0  0  0  0
  158.1950  213.3320  152.6760 C   0  0  0  0  0  0  0  0  0  0  0  0
  158.3250  214.0270  149.9530 C   0  0  0  0  0  0  0  0  0  0  0  0
  160.4910  213.2180  148.3730 C   0  0  0  0  0  3  0  0  0  0  0  0
  159.4890  214.3130  146.3660 C   0  0  0  0  0  1  0  0  0  0  0  0
  159.3730  213.2750  150.5340 C   0  0  0  0  0  0  0  0  0  0  0  0
  158.3650  214.3570  148.5960 C   0  0  0  0  0  3  0  0  0  0  0  0
  160.4540  212.8810  149.7270 C   0  0  0  0  0  3  0  0  0  0  0  0
  159.3160  212.9250  151.8990 C   0  0  0  0  0  0  0  0  0  0  0  0
  157.1880  214.0950  152.0820 C   0  0  0  0  0  3  0  0  0  0  0  0
  157.2480  214.4410  150.7320 C   0  0  0  0  0  3  0  0  0  0  0  0
  158.1130  211.7990  154.5930 C   0  0  0  0  0  0  0  0  0  0  0  0
  158.2090  210.5850  155.0660 C   0  0  0  0  0  3  0  0  0  0  0  0
  158.0000  213.0010  154.1030 C   0  0  0  0  0  3  0  0  0  0  0  0
  160.5760  208.0560  156.7770 C   0  0  0  0  0  2  0  0  0  0  0  0
  161.5610  211.0060  156.7650 C   0  0  0  0  0  3  0  0  0  0  0  0
  162.2340  209.7650  157.2610 C   0  0  0  0  0  2  0  0  0  0  0  0
  159.5040  208.7540  156.0150 C   0  0  0  0  0  3  0  0  0  0  0  0
  159.3800  210.0770  155.8010 C   0  0  0  0  0  0  0  0  0  0  0  0
  161.9450  208.5600  156.3980 C   0  0  0  0  0  2  0  0  0  0  0  0
  160.3620  211.1160  156.1830 C   0  0  0  0  0  3  0  0  0  0  0  0
  160.7920  211.0240  151.6980 N   0  0  0  0  0  2  0  0  0  0  0  0
  160.4420  209.8440  152.4710 C   0  0  0  0  0  2  0  0  0  0  0  0
  161.4690  208.7370  152.2520 C   0  0  1  0  0  3  0  0  0  0  0  0
  162.5770  205.4800  150.6920 F   0  0  0  0  0  0  0  0  0  0  0  0
  161.1940  205.4570  150.8000 C   0  0  2  0  0  0  0  0  0  0  0  0
  160.8350  207.4260  152.3830 N   0  0  2  0  0  0  0  0  0  0  0  0
  162.0380  208.8540  150.8520 C   0  0  0  0  0  2  0  0  0  0  0  0
  161.7320  206.6090  153.2030 C   0  0  0  0  0  2  0  0  0  0  0  0
  160.6600  206.8910  151.0130 C   0  0  1  0  0  3  0  0  0  0  0  0
  160.7930  204.5870  151.9930 C   0  0  0  0  0  2  0  0  0  0  0  0
  161.2530  207.8790  150.0190 C   0  0  0  0  0  2  0  0  0  0  0  0
  161.1900  205.1910  153.3430 C   0  0  0  0  0  2  0  0  0  0  0  0
  160.5770  204.8760  149.5260 C   0  0  0  0  0  2  0  0  0  0  0  0
  161.5410  203.9770  148.7530 C   0  0  1  0  0  3  0  0  0  0  0  0
  161.1580  202.5220  148.9610 C   0  0  0  0  0  1  0  0  0  0  0  0
  161.5620  204.3030  147.2930 C   0  0  0  0  0  0  0  0  0  0  0  0
  162.0870  205.8300  145.5380 N   0  0  0  0  0  0  0  0  0  0  0  0
  161.1980  203.7140  145.0070 N   0  0  0  0  0  0  0  0  0  0  0  0
  161.6660  204.9280  144.6120 C   0  0  0  0  0  3  0  0  0  0  0  0
  161.1420  203.3840  146.3230 C   0  0  0  0  0  3  0  0  0  0  0  0
  162.0460  205.5390  146.8640 C   0  0  0  0  0  3  0  0  0  0  0  0
  2  5  2  0  0  0  0
  2  8  1  0  0  0  0
  3 15  1  0  0  0  0
  4  7  1  0  0  0  0
  4 12  1  0  0  0  0
  5  9  1  0  0  0  0
  6  2  1  0  0  0  0
  7 10  1  0  0  0  0
  8  4  2  0  0  0  0
  9  7  2  0  0  0  0
 10  1  1  0  0  0  0
 10  3  2  0  0  0  0
 11  3  1  0  0  0  0
 12 11  2  0  0  0  0
 13 14  2  0  0  0  0
 14 20  1  0  0  0  0
 15 13  2  0  0  0  0
 17 18  1  0  0  0  0
 19 16  1  0  0  0  0
 20 19  2  0  0  0  0
 20 22  1  0  0  0  0
 21 16  1  0  0  0  0
 21 18  1  0  0  0  0
 22 17  2  0  0  0  0
 23 24  1  0  0  0  0
 23  1  1  0  0  0  0
 25 28  1  0  0  0  0
 25 24  1  6  0  0  0
 27 26  1  6  0  0  0
 27 31  1  0  0  0  0
 27 32  1  0  0  0  0
 28 30  1  1  0  0  0
 29 25  1  0  0  0  0
 30 34  1  0  0  0  0
 31 33  1  6  0  0  0
 31 28  1  0  0  0  0
 32 34  1  0  0  0  0
 33 29  1  0  0  0  0
 35 27  1  0  0  0  0
 36 37  1  6  0  0  0
 36 35  1  0  0  0  0
 38 36  1  0  0  0  0
 39 43  2  0  0  0  0
 40 42  1  0  0  0  0
 41 40  2  0  0  0  0
 41 39  1  0  0  0  0
 42 38  2  0  0  0  0
 43 38  1  0  0  0  0
M  END
>  <MODEL>
4

>  <REMARK>
 VINA RESULT:      -8.2      1.632      5.759
  Name = 
  9 active torsions:
  status: ('A' for Active; 'I' for Inactive)
    1  A    between atoms: C_2  and  C_13
    2  A    between atoms: C_4  and  C_22
    3  A    between atoms: C_8  and  C_34
    4  A    between atoms: C_11  and  C_14
    5  A    between atoms: C_13  and  N_38
    6  A    between atoms: C_14  and  C_22
    7  A    between atoms: C_27  and  C_30
    8  A    between atoms: C_27  and  N_38
    9  A    between atoms: C_28  and  C_35
                            x       y       z     vdW  Elec       q    Type
                         _______ _______ _______ _____ _____    ______ ____

>  <TORSDO>
F 9

$$$$
=
 OpenBabel11062410213D

 43 48  0  0  1  0  0  0  0  0999 V2000
  161.3570  208.9620  151.8020 C   0  0  0  0  0  2  0  0  0  0  0  0
  158.7420  211.4270  155.4590 C   0  0  0  0  0  0  0  0  0  0  0  0
  161.1450  207.3140  153.7380 C   0  0  0  0  0  0  0  0  0  0  0  0
  159.7560  209.2370  155.2500 C   0  0  0  0  0  0  0  0  0  0  0  0
  159.1540  211.7470  154.1630 C   0  0  0  0  0  3  0  0  0  0  0  0
  157.9910  212.4250  156.2660 C   0  0  0  0  0  1  0  0  0  0  0  0
  160.1680  209.5480  153.9330 C   0  0  0  0  0  0  0  0  0  0  0  0
  159.0430  210.1750  156.0020 C   0  0  0  0  0  3  0  0  0  0  0  0
  159.8620  210.8140  153.4050 C   0  0  0  0  0  3  0  0  0  0  0  0
  160.8680  208.5890  153.1700 C   0  0  0  0  0  0  0  0  0  0  0  0
  160.7470  207.0450  155.0500 C   0  0  0  0  0  3  0  0  0  0  0  0
  160.0580  207.9960  155.8020 C   0  0  0  0  0  3  0  0  0  0  0  0
  161.2740  205.4620  152.1300 C   0  0  0  0  0  0  0  0  0  0  0  0
  160.6910  204.7020  151.2420 C   0  0  0  0  0  3  0  0  0  0  0  0
  161.8360  206.2150  153.0340 C   0  0  0  0  0  3  0  0  0  0  0  0
  160.8860  206.4170  147.7860 C   0  0  0  0  0  2  0  0  0  0  0  0
  161.5030  203.3680  147.7980 C   0  0  0  0  0  3  0  0  0  0  0  0
  161.5540  204.3590  146.6790 C   0  0  0  0  0  2  0  0  0  0  0  0
  160.7910  206.0700  149.2310 C   0  0  0  0  0  3  0  0  0  0  0  0
  160.8690  204.8480  149.7870 C   0  0  0  0  0  0  0  0  0  0  0  0
  162.0460  205.7170  147.1220 C   0  0  0  0  0  2  0  0  0  0  0  0
  161.1920  203.5890  149.0800 C   0  0  0  0  0  3  0  0  0  0  0  0
  162.7050  209.5020  151.8950 N   0  0  0  0  0  2  0  0  0  0  0  0
  162.8470  210.4980  150.8460 C   0  0  0  0  0  2  0  0  0  0  0  0
  161.5080  210.7450  150.1590 C   0  0  1  0  0  3  0  0  0  0  0  0
  159.3190  212.5700  147.6800 F   0  0  0  0  0  0  0  0  0  0  0  0
  160.3350  213.4300  148.0730 C   0  0  2  0  0  0  0  0  0  0  0  0
  161.2200  212.1770  150.1110 N   0  0  2  0  0  0  0  0  0  0  0  0
  161.5700  210.2230  148.7370 C   0  0  0  0  0  2  0  0  0  0  0  0
  159.8180  212.3350  150.5070 C   0  0  0  0  0  2  0  0  0  0  0  0
  161.4810  212.6260  148.7240 C   0  0  1  0  0  3  0  0  0  0  0  0
  159.7850  214.4370  149.0860 C   0  0  0  0  0  2  0  0  0  0  0  0
  161.8870  211.4220  147.8860 C   0  0  0  0  0  2  0  0  0  0  0  0
  159.3980  213.7980  150.4230 C   0  0  0  0  0  2  0  0  0  0  0  0
  160.8800  214.1870  146.8590 C   0  0  0  0  0  2  0  0  0  0  0  0
  160.2950  213.6940  145.5360 C   0  0  1  0  0  3  0  0  0  0  0  0
  159.0150  214.4530  145.2320 C   0  0  0  0  0  1  0  0  0  0  0  0
  161.2650  213.8400  144.4070 C   0  0  0  0  0  0  0  0  0  0  0  0
  163.4850  213.6180  143.5650 N   0  0  0  0  0  0  0  0  0  0  0  0
  161.7720  214.3670  142.1320 N   0  0  0  0  0  0  0  0  0  0  0  0
  163.0760  214.0440  142.3410 C   0  0  0  0  0  3  0  0  0  0  0  0
  160.8620  214.2690  143.1350 C   0  0  0  0  0  3  0  0  0  0  0  0
  162.6060  213.5070  144.5950 C   0  0  0  0  0  3  0  0  0  0  0  0
  1 23  1  0  0  0  0
  1 10  1  0  0  0  0
  2  8  1  0  0  0  0
  2  6  1  0  0  0  0
  3 11  1  0  0  0  0
  4 12  1  0  0  0  0
  4  8  2  0  0  0  0
  5  2  2  0  0  0  0
  7  4  1  0  0  0  0
  9  7  2  0  0  0  0
  9  5  1  0  0  0  0
 10  3  2  0  0  0  0
 10  7  1  0  0  0  0
 11 12  2  0  0  0  0
 13 15  2  0  0  0  0
 14 13  2  0  0  0  0
 15  3  1  0  0  0  0
 16 19  1  0  0  0  0
 17 22  2  0  0  0  0
 18 21  1  0  0  0  0
 18 17  1  0  0  0  0
 19 20  2  0  0  0  0
 20 14  1  0  0  0  0
 21 16  1  0  0  0  0
 22 20  1  0  0  0  0
 24 23  1  0  0  0  0
 25 24  1  6  0  0  0
 27 26  1  6  0  0  0
 27 31  1  0  0  0  0
 27 32  1  0  0  0  0
 28 25  1  0  0  0  0
 28 30  1  6  0  0  0
 29 25  1  0  0  0  0
 31 33  1  6  0  0  0
 31 28  1  0  0  0  0
 32 34  1  0  0  0  0
 33 29  1  0  0  0  0
 34 30  1  0  0  0  0
 35 27  1  0  0  0  0
 36 37  1  6  0  0  0
 36 35  1  0  0  0  0
 38 43  1  0  0  0  0
 38 36  1  0  0  0  0
 39 43  2  0  0  0  0
 40 41  2  0  0  0  0
 40 42  1  0  0  0  0
 41 39  1  0  0  0  0
 42 38  2  0  0  0  0
M  END
>  <MODEL>
5

>  <REMARK>
 VINA RESULT:      -8.0      2.732      7.443
  Name = 
  9 active torsions:
  status: ('A' for Active; 'I' for Inactive)
    1  A    between atoms: C_2  and  C_13
    2  A    between atoms: C_4  and  C_22
    3  A    between atoms: C_8  and  C_34
    4  A    between atoms: C_11  and  C_14
    5  A    between atoms: C_13  and  N_38
    6  A    between atoms: C_14  and  C_22
    7  A    between atoms: C_27  and  C_30
    8  A    between atoms: C_27  and  N_38
    9  A    between atoms: C_28  and  C_35
                            x       y       z     vdW  Elec       q    Type
                         _______ _______ _______ _____ _____    ______ ____

>  <TORSDO>
F 9

$$$$
=
 OpenBabel11062410213D

 43 48  0  0  1  0  0  0  0  0999 V2000
  162.2670  213.2800  148.0920 C   0  0  0  0  0  2  0  0  0  0  0  0
  159.5080  213.0940  143.7740 C   0  0  0  0  0  0  0  0  0  0  0  0
  159.8690  213.8260  148.7730 C   0  0  0  0  0  0  0  0  0  0  0  0
  159.0350  213.5960  146.0960 C   0  0  0  0  0  0  0  0  0  0  0  0
  160.8490  212.8640  144.0920 C   0  0  0  0  0  3  0  0  0  0  0  0
  159.0460  212.9600  142.3670 C   0  0  0  0  0  1  0  0  0  0  0  0
  160.3890  213.3550  146.4300 C   0  0  0  0  0  0  0  0  0  0  0  0
  158.6030  213.4600  144.7740 C   0  0  0  0  0  3  0  0  0  0  0  0
  161.2860  212.9940  145.4100 C   0  0  0  0  0  3  0  0  0  0  0  0
  160.8150  213.4720  147.7700 C   0  0  0  0  0  0  0  0  0  0  0  0
  158.5450  214.0810  148.4100 C   0  0  0  0  0  3  0  0  0  0  0  0
  158.1280  213.9680  147.0840 C   0  0  0  0  0  3  0  0  0  0  0  0
  159.2840  214.1510  151.1360 C   0  0  0  0  0  0  0  0  0  0  0  0
  158.3760  214.3790  152.0480 C   0  0  0  0  0  3  0  0  0  0  0  0
  160.1800  213.9450  150.2120 C   0  0  0  0  0  3  0  0  0  0  0  0
  158.1630  211.0780  154.0450 C   0  0  0  0  0  2  0  0  0  0  0  0
  155.7500  213.0100  154.3990 C   0  0  0  0  0  3  0  0  0  0  0  0
  156.0440  211.7000  155.0600 C   0  0  0  0  0  2  0  0  0  0  0  0
  158.5610  212.2520  153.2200 C   0  0  0  0  0  3  0  0  0  0  0  0
  157.8260  213.3440  152.9390 C   0  0  0  0  0  0  0  0  0  0  0  0
  157.5160  211.5040  155.3390 C   0  0  0  0  0  2  0  0  0  0  0  0
  156.4940  213.6640  153.5010 C   0  0  0  0  0  3  0  0  0  0  0  0
  162.6340  211.8870  147.8870 N   0  0  0  0  0  2  0  0  0  0  0  0
  161.7010  211.0770  148.6550 C   0  0  0  0  0  2  0  0  0  0  0  0
  162.4540  210.0660  149.5140 C   0  0  1  0  0  3  0  0  0  0  0  0
  162.7400  206.7210  151.2460 F   0  0  0  0  0  0  0  0  0  0  0  0
  161.3940  207.0470  151.1580 C   0  0  2  0  0  0  0  0  0  0  0  0
  161.5710  209.5160  150.5400 N   0  0  2  0  0  0  0  0  0  0  0  0
  162.9350  208.9250  148.6390 C   0  0  0  0  0  2  0  0  0  0  0  0
  162.3310  209.5190  151.7920 C   0  0  0  0  0  2  0  0  0  0  0  0
  161.1900  208.1540  150.1010 C   0  0  1  0  0  3  0  0  0  0  0  0
  160.9040  207.5510  152.5180 C   0  0  0  0  0  2  0  0  0  0  0  0
  161.9060  207.8410  148.7950 C   0  0  0  0  0  2  0  0  0  0  0  0
  161.5140  208.8970  152.9190 C   0  0  0  0  0  2  0  0  0  0  0  0
  160.5800  205.8140  150.7580 C   0  0  0  0  0  2  0  0  0  0  0  0
  161.3130  204.5010  151.0310 C   0  0  1  0  0  3  0  0  0  0  0  0
  160.8310  203.9150  152.3470 C   0  0  0  0  0  1  0  0  0  0  0  0
  161.1240  203.5140  149.9240 C   0  0  0  0  0  0  0  0  0  0  0  0
  161.1630  203.0090  147.5940 N   0  0  0  0  0  0  0  0  0  0  0  0
  160.6560  201.3060  149.1390 N   0  0  0  0  0  0  0  0  0  0  0  0
  160.8360  201.7170  147.8560 C   0  0  0  0  0  3  0  0  0  0  0  0
  160.7970  202.1740  150.1740 C   0  0  0  0  0  3  0  0  0  0  0  0
  161.3120  203.9090  148.6000 C   0  0  0  0  0  3  0  0  0  0  0  0
  2  5  2  0  0  0  0
  2  8  1  0  0  0  0
  3 15  1  0  0  0  0
  4  7  1  0  0  0  0
  4 12  1  0  0  0  0
  5  9  1  0  0  0  0
  6  2  1  0  0  0  0
  7 10  1  0  0  0  0
  8  4  2  0  0  0  0
  9  7  2  0  0  0  0
 10  1  1  0  0  0  0
 10  3  2  0  0  0  0
 11  3  1  0  0  0  0
 12 11  2  0  0  0  0
 13 14  2  0  0  0  0
 14 20  1  0  0  0  0
 15 13  2  0  0  0  0
 16 21  1  0  0  0  0
 17 18  1  0  0  0  0
 18 21  1  0  0  0  0
 19 16  1  0  0  0  0
 20 19  2  0  0  0  0
 20 22  1  0  0  0  0
 22 17  2  0  0  0  0
 23  1  1  0  0  0  0
 23 24  1  0  0  0  0
 25 24  1  6  0  0  0
 25 28  1  0  0  0  0
 27 26  1  1  0  0  0
 27 32  1  0  0  0  0
 28 30  1  1  0  0  0
 29 33  1  0  0  0  0
 29 25  1  0  0  0  0
 30 34  1  0  0  0  0
 31 33  1  6  0  0  0
 31 28  1  0  0  0  0
 31 27  1  0  0  0  0
 32 34  1  0  0  0  0
 35 36  1  0  0  0  0
 35 27  1  0  0  0  0
 36 37  1  1  0  0  0
 38 42  1  0  0  0  0
 38 36  1  0  0  0  0
 39 41  2  0  0  0  0
 39 43  1  0  0  0  0
 40 42  2  0  0  0  0
 41 40  1  0  0  0  0
 43 38  2  0  0  0  0
M  END
>  <MODEL>
6

>  <REMARK>
 VINA RESULT:      -7.9      1.678      6.432
  Name = 
  9 active torsions:
  status: ('A' for Active; 'I' for Inactive)
    1  A    between atoms: C_2  and  C_13
    2  A    between atoms: C_4  and  C_22
    3  A    between atoms: C_8  and  C_34
    4  A    between atoms: C_11  and  C_14
    5  A    between atoms: C_13  and  N_38
    6  A    between atoms: C_14  and  C_22
    7  A    between atoms: C_27  and  C_30
    8  A    between atoms: C_27  and  N_38
    9  A    between atoms: C_28  and  C_35
                            x       y       z     vdW  Elec       q    Type
                         _______ _______ _______ _____ _____    ______ ____

>  <TORSDO>
F 9

$$$$
=
 OpenBabel11062410213D

 43 48  0  0  1  0  0  0  0  0999 V2000
  160.9350  208.0720  151.1420 C   0  0  0  0  0  2  0  0  0  0  0  0
  161.2210  204.0370  147.9900 C   0  0  0  0  0  0  0  0  0  0  0  0
  161.1360  206.0220  152.6490 C   0  0  0  0  0  0  0  0  0  0  0  0
  161.1940  204.3430  150.3930 C   0  0  0  0  0  0  0  0  0  0  0  0
  161.1360  205.4200  147.8080 C   0  0  0  0  0  3  0  0  0  0  0  0
  161.2710  203.1360  146.8090 C   0  0  0  0  0  1  0  0  0  0  0  0
  161.1180  205.7450  150.2200 C   0  0  0  0  0  0  0  0  0  0  0  0
  161.2490  203.5000  149.2810 C   0  0  0  0  0  3  0  0  0  0  0  0
  161.0850  206.2670  148.9150 C   0  0  0  0  0  3  0  0  0  0  0  0
  161.0860  206.5930  151.3470 C   0  0  0  0  0  0  0  0  0  0  0  0
  161.1860  204.6340  152.7900 C   0  0  0  0  0  3  0  0  0  0  0  0
  161.2150  203.7980  151.6740 C   0  0  0  0  0  3  0  0  0  0  0  0
  161.1930  208.1020  153.9550 C   0  0  0  0  0  0  0  0  0  0  0  0
  161.2630  209.4060  153.9890 C   0  0  0  0  0  3  0  0  0  0  0  0
  161.1440  206.8010  153.9050 C   0  0  0  0  0  3  0  0  0  0  0  0
  158.3120  211.7830  153.2380 C   0  0  0  0  0  2  0  0  0  0  0  0
  158.7170  211.0670  156.2380 C   0  0  0  0  0  3  0  0  0  0  0  0
  157.6530  211.8830  155.5750 C   0  0  0  0  0  2  0  0  0  0  0  0
  159.4560  210.8310  153.1950 C   0  0  0  0  0  3  0  0  0  0  0  0
  160.1100  210.2880  154.2370 C   0  0  0  0  0  0  0  0  0  0  0  0
  157.2580  211.3400  154.2220 C   0  0  0  0  0  2  0  0  0  0  0  0
  159.7450  210.4330  155.6640 C   0  0  0  0  0  3  0  0  0  0  0  0
  162.1990  208.6330  150.6870 N   0  0  0  0  0  2  0  0  0  0  0  0
  161.9420  209.3110  149.4260 C   0  0  0  0  0  2  0  0  0  0  0  0
  162.3780  210.7710  149.5070 C   0  0  1  0  0  3  0  0  0  0  0  0
  161.8300  214.4530  148.8680 F   0  0  0  0  0  0  0  0  0  0  0  0
  161.1420  213.7400  147.8970 C   0  0  2  0  0  0  0  0  0  0  0  0
  162.1770  211.4310  148.2180 N   0  0  2  0  0  0  0  0  0  0  0  0
  161.5390  211.4870  150.5450 C   0  0  0  0  0  2  0  0  0  0  0  0
  163.3890  212.2100  147.9540 C   0  0  0  0  0  2  0  0  0  0  0  0
  160.9660  212.2740  148.3470 C   0  0  1  0  0  3  0  0  0  0  0  0
  161.9330  213.7750  146.5870 C   0  0  0  0  0  2  0  0  0  0  0  0
  160.4440  212.1690  149.7730 C   0  0  0  0  0  2  0  0  0  0  0  0
  163.2500  212.9960  146.6550 C   0  0  0  0  0  2  0  0  0  0  0  0
  159.7640  214.3640  147.6660 C   0  0  0  0  0  2  0  0  0  0  0  0
  158.7660  213.3930  147.0390 C   0  0  1  0  0  3  0  0  0  0  0  0
  157.3650  213.7150  147.5300 C   0  0  0  0  0  1  0  0  0  0  0  0
  158.8120  213.4300  145.5450 C   0  0  0  0  0  0  0  0  0  0  0  0
  159.5180  212.4520  143.4870 N   0  0  0  0  0  0  0  0  0  0  0  0
  158.2050  214.4070  143.4510 N   0  0  0  0  0  0  0  0  0  0  0  0
  158.8810  213.4300  142.7910 C   0  0  0  0  0  3  0  0  0  0  0  0
  158.1540  214.4230  144.8070 C   0  0  0  0  0  3  0  0  0  0  0  0
  159.4930  212.4330  144.8450 C   0  0  0  0  0  3  0  0  0  0  0  0
  1 10  1  0  0  0  0
  2  8  1  0  0  0  0
  3 11  1  0  0  0  0
  3 15  1  0  0  0  0
  4 12  1  0  0  0  0
  5  2  2  0  0  0  0
  5  9  1  0  0  0  0
  6  2  1  0  0  0  0
  7  4  1  0  0  0  0
  7 10  1  0  0  0  0
  8  4  2  0  0  0  0
  9  7  2  0  0  0  0
 10  3  2  0  0  0  0
 12 11  2  0  0  0  0
 13 14  2  0  0  0  0
 14 20  1  0  0  0  0
 15 13  2  0  0  0  0
 16 21  1  0  0  0  0
 18 17  1  0  0  0  0
 19 16  1  0  0  0  0
 19 20  2  0  0  0  0
 20 22  1  0  0  0  0
 21 18  1  0  0  0  0
 22 17  2  0  0  0  0
 23  1  1  0  0  0  0
 24 23  1  0  0  0  0
 25 24  1  6  0  0  0
 25 29  1  0  0  0  0
 27 31  1  0  0  0  0
 27 26  1  1  0  0  0
 28 30  1  1  0  0  0
 28 31  1  0  0  0  0
 28 25  1  0  0  0  0
 31 33  1  1  0  0  0
 32 34  1  0  0  0  0
 32 27  1  0  0  0  0
 33 29  1  0  0  0  0
 34 30  1  0  0  0  0
 35 27  1  0  0  0  0
 36 37  1  6  0  0  0
 36 35  1  0  0  0  0
 38 36  1  0  0  0  0
 39 43  2  0  0  0  0
 40 42  1  0  0  0  0
 41 40  2  0  0  0  0
 41 39  1  0  0  0  0
 42 38  2  0  0  0  0
 43 38  1  0  0  0  0
M  END
>  <MODEL>
7

>  <REMARK>
 VINA RESULT:      -7.9      2.654      8.745
  Name = 
  9 active torsions:
  status: ('A' for Active; 'I' for Inactive)
    1  A    between atoms: C_2  and  C_13
    2  A    between atoms: C_4  and  C_22
    3  A    between atoms: C_8  and  C_34
    4  A    between atoms: C_11  and  C_14
    5  A    between atoms: C_13  and  N_38
    6  A    between atoms: C_14  and  C_22
    7  A    between atoms: C_27  and  C_30
    8  A    between atoms: C_27  and  N_38
    9  A    between atoms: C_28  and  C_35
                            x       y       z     vdW  Elec       q    Type
                         _______ _______ _______ _____ _____    ______ ____

>  <TORSDO>
F 9

$$$$
=
 OpenBabel11062410213D

 43 48  0  0  1  0  0  0  0  0999 V2000
  160.7050  207.7730  151.9690 C   0  0  0  0  0  2  0  0  0  0  0  0
  160.9270  203.5060  149.1330 C   0  0  0  0  0  0  0  0  0  0  0  0
  161.8180  208.4510  149.7750 C   0  0  0  0  0  0  0  0  0  0  0  0
  161.6440  205.8020  148.8440 C   0  0  0  0  0  0  0  0  0  0  0  0
  160.4140  203.8200  150.3940 C   0  0  0  0  0  3  0  0  0  0  0  0
  160.8280  202.1150  148.6180 C   0  0  0  0  0  1  0  0  0  0  0  0
  161.1190  206.1320  150.1150 C   0  0  0  0  0  0  0  0  0  0  0  0
  161.5410  204.4950  148.3590 C   0  0  0  0  0  3  0  0  0  0  0  0
  160.5090  205.1240  150.8810 C   0  0  0  0  0  3  0  0  0  0  0  0
  161.2050  207.4580  150.5900 C   0  0  0  0  0  0  0  0  0  0  0  0
  162.3490  208.0900  148.5350 C   0  0  0  0  0  3  0  0  0  0  0  0
  162.2650  206.7780  148.0700 C   0  0  0  0  0  3  0  0  0  0  0  0
  162.3030  210.8140  149.3090 C   0  0  0  0  0  0  0  0  0  0  0  0
  162.6920  211.7370  148.4710 C   0  0  0  0  0  3  0  0  0  0  0  0
  161.9390  209.8770  150.1400 C   0  0  0  0  0  3  0  0  0  0  0  0
  161.4580  214.3870  145.9450 C   0  0  0  0  0  2  0  0  0  0  0  0
  159.3240  213.3830  147.9740 C   0  0  0  0  0  3  0  0  0  0  0  0
  159.1930  214.3320  146.8240 C   0  0  0  0  0  2  0  0  0  0  0  0
  162.2040  213.3580  146.7210 C   0  0  0  0  0  3  0  0  0  0  0  0
  161.7780  212.6780  147.8010 C   0  0  0  0  0  0  0  0  0  0  0  0
  160.0490  213.9410  145.6430 C   0  0  0  0  0  2  0  0  0  0  0  0
  160.4160  212.7250  148.3770 C   0  0  0  0  0  3  0  0  0  0  0  0
  161.8130  207.7380  152.9100 N   0  0  0  0  0  2  0  0  0  0  0  0
  161.4920  206.7420  153.9200 C   0  0  0  0  0  2  0  0  0  0  0  0
  161.1040  207.4170  155.2320 C   0  0  1  0  0  3  0  0  0  0  0  0
  160.1200  210.4510  157.2550 F   0  0  0  0  0  0  0  0  0  0  0  0
  160.8840  210.8800  156.1790 C   0  0  2  0  0  0  0  0  0  0  0  0
  161.8630  208.6530  155.4090 N   0  0  2  0  0  0  0  0  0  0  0  0
  159.6290  207.7640  155.1980 C   0  0  0  0  0  2  0  0  0  0  0  0
  162.3300  208.6620  156.7970 C   0  0  0  0  0  2  0  0  0  0  0  0
  160.9440  209.7740  155.1030 C   0  0  1  0  0  3  0  0  0  0  0  0
  162.3030  211.1950  156.6590 C   0  0  0  0  0  2  0  0  0  0  0  0
  159.5680  209.2080  154.7830 C   0  0  0  0  0  2  0  0  0  0  0  0
  163.0810  209.9530  157.1040 C   0  0  0  0  0  2  0  0  0  0  0  0
  160.2700  212.1420  155.5690 C   0  0  0  0  0  2  0  0  0  0  0  0
  159.3540  212.8880  156.5370 C   0  0  1  0  0  3  0  0  0  0  0  0
  159.9750  214.2270  156.8960 C   0  0  0  0  0  1  0  0  0  0  0  0
  157.9840  213.0870  155.9710 C   0  0  0  0  0  0  0  0  0  0  0  0
  156.5320  213.1450  154.0800 N   0  0  0  0  0  0  0  0  0  0  0  0
  155.6440  213.4930  156.2340 N   0  0  0  0  0  0  0  0  0  0  0  0
  155.4690  213.3970  154.8890 C   0  0  0  0  0  3  0  0  0  0  0  0
  156.8740  213.3390  156.7880 C   0  0  0  0  0  3  0  0  0  0  0  0
  157.7790  212.9860  154.5960 C   0  0  0  0  0  3  0  0  0  0  0  0
  1 23  1  0  0  0  0
  2  5  1  0  0  0  0
  3 15  1  0  0  0  0
  3 10  1  0  0  0  0
  4  7  1  0  0  0  0
  5  9  2  0  0  0  0
  6  2  1  0  0  0  0
  7 10  2  0  0  0  0
  7  9  1  0  0  0  0
  8  4  1  0  0  0  0
  8  2  2  0  0  0  0
 10  1  1  0  0  0  0
 11  3  2  0  0  0  0
 12 11  1  0  0  0  0
 12  4  2  0  0  0  0
 13 15  2  0  0  0  0
 14 13  2  0  0  0  0
 16 19  1  0  0  0  0
 17 22  2  0  0  0  0
 18 17  1  0  0  0  0
 19 20  2  0  0  0  0
 20 22  1  0  0  0  0
 20 14  1  0  0  0  0
 21 16  1  0  0  0  0
 21 18  1  0  0  0  0
 23 24  1  0  0  0  0
 25 24  1  6  0  0  0
 25 28  1  0  0  0  0
 27 32  1  0  0  0  0
 27 26  1  1  0  0  0
 28 30  1  1  0  0  0
 29 25  1  0  0  0  0
 30 34  1  0  0  0  0
 31 33  1  1  0  0  0
 31 28  1  0  0  0  0
 31 27  1  0  0  0  0
 32 34  1  0  0  0  0
 33 29  1  0  0  0  0
 35 27  1  0  0  0  0
 35 36  1  0  0  0  0
 36 37  1  6  0  0  0
 38 36  1  0  0  0  0
 38 42  1  0  0  0  0
 39 43  1  0  0  0  0
 39 41  2  0  0  0  0
 40 42  2  0  0  0  0
 41 40  1  0  0  0  0
 43 38  2  0  0  0  0
M  END
>  <MODEL>
8

>  <REMARK>
 VINA RESULT:      -7.7      2.910      8.327
  Name = 
  9 active torsions:
  status: ('A' for Active; 'I' for Inactive)
    1  A    between atoms: C_2  and  C_13
    2  A    between atoms: C_4  and  C_22
    3  A    between atoms: C_8  and  C_34
    4  A    between atoms: C_11  and  C_14
    5  A    between atoms: C_13  and  N_38
    6  A    between atoms: C_14  and  C_22
    7  A    between atoms: C_27  and  C_30
    8  A    between atoms: C_27  and  N_38
    9  A    between atoms: C_28  and  C_35
                            x       y       z     vdW  Elec       q    Type
                         _______ _______ _______ _____ _____    ______ ____

>  <TORSDO>
F 9

$$$$
=
 OpenBabel11062410213D

 43 48  0  0  1  0  0  0  0  0999 V2000
  161.7990  213.3380  147.7390 C   0  0  0  0  0  2  0  0  0  0  0  0
  157.2470  213.9520  150.0200 C   0  0  0  0  0  0  0  0  0  0  0  0
  160.0490  212.8530  145.9460 C   0  0  0  0  0  0  0  0  0  0  0  0
  157.9870  213.3090  147.8050 C   0  0  0  0  0  0  0  0  0  0  0  0
  158.5750  214.0980  150.4270 C   0  0  0  0  0  3  0  0  0  0  0  0
  156.1440  214.2050  150.9840 C   0  0  0  0  0  1  0  0  0  0  0  0
  159.3360  213.4650  148.2040 C   0  0  0  0  0  0  0  0  0  0  0  0
  156.9530  213.5570  148.7110 C   0  0  0  0  0  3  0  0  0  0  0  0
  159.6120  213.8570  149.5250 C   0  0  0  0  0  3  0  0  0  0  0  0
  160.3750  213.2350  147.2780 C   0  0  0  0  0  0  0  0  0  0  0  0
  158.7100  212.6840  145.5880 C   0  0  0  0  0  3  0  0  0  0  0  0
  157.6850  212.9090  146.5060 C   0  0  0  0  0  3  0  0  0  0  0  0
  160.7350  212.2000  143.6800 C   0  0  0  0  0  0  0  0  0  0  0  0
  160.4150  211.7580  142.4920 C   0  0  0  0  0  3  0  0  0  0  0  0
  161.0400  212.6190  144.8760 C   0  0  0  0  0  3  0  0  0  0  0  0
  161.4770  214.2810  139.7660 C   0  0  0  0  0  2  0  0  0  0  0  0
  158.6240  213.0850  139.4380 C   0  0  0  0  0  3  0  0  0  0  0  0
  159.3880  214.0170  138.5520 C   0  0  0  0  0  2  0  0  0  0  0  0
  161.3900  213.3260  140.9050 C   0  0  0  0  0  3  0  0  0  0  0  0
  160.3200  212.6100  141.2950 C   0  0  0  0  0  0  0  0  0  0  0  0
  160.8660  213.7060  138.5130 C   0  0  0  0  0  2  0  0  0  0  0  0
  159.0220  212.5310  140.5880 C   0  0  0  0  0  3  0  0  0  0  0  0
  162.3910  212.0100  147.7950 N   0  0  0  0  0  2  0  0  0  0  0  0
  161.5180  211.1800  148.6100 C   0  0  0  0  0  2  0  0  0  0  0  0
  162.3340  210.1630  149.4020 C   0  0  1  0  0  3  0  0  0  0  0  0
  162.7800  206.7750  151.0110 F   0  0  0  0  0  0  0  0  0  0  0  0
  161.4240  207.0680  150.9930 C   0  0  2  0  0  0  0  0  0  0  0  0
  161.5110  209.5590  150.4480 N   0  0  2  0  0  0  0  0  0  0  0  0
  162.8030  209.0640  148.4700 C   0  0  0  0  0  2  0  0  0  0  0  0
  162.3260  209.5430  151.6640 C   0  0  0  0  0  2  0  0  0  0  0  0
  161.1450  208.2010  149.9810 C   0  0  1  0  0  3  0  0  0  0  0  0
  160.9830  207.5160  152.3880 C   0  0  0  0  0  2  0  0  0  0  0  0
  161.8090  207.9480  148.6360 C   0  0  0  0  0  2  0  0  0  0  0  0
  161.5760  208.8650  152.8060 C   0  0  0  0  0  2  0  0  0  0  0  0
  160.6240  205.8260  150.5890 C   0  0  0  0  0  2  0  0  0  0  0  0
  161.4380  204.5370  150.6810 C   0  0  1  0  0  3  0  0  0  0  0  0
  161.0890  203.8060  151.9660 C   0  0  0  0  0  1  0  0  0  0  0  0
  161.2110  203.6460  149.5010 C   0  0  0  0  0  0  0  0  0  0  0  0
  161.4090  203.2520  147.1580 N   0  0  0  0  0  0  0  0  0  0  0  0
  160.4840  201.5840  148.5390 N   0  0  0  0  0  0  0  0  0  0  0  0
  160.8580  202.0190  147.3060 C   0  0  0  0  0  3  0  0  0  0  0  0
  160.6530  202.3680  149.6340 C   0  0  0  0  0  3  0  0  0  0  0  0
  161.5940  204.0680  148.2290 C   0  0  0  0  0  3  0  0  0  0  0  0
  1 23  1  0  0  0  0
  2  5  1  0  0  0  0
  2  6  1  0  0  0  0
  3 10  1  0  0  0  0
  4  7  1  0  0  0  0
  4  8  1  0  0  0  0
  7  9  1  0  0  0  0
  8  2  2  0  0  0  0
  9  5  2  0  0  0  0
 10  1  1  0  0  0  0
 10  7  2  0  0  0  0
 11  3  2  0  0  0  0
 11 12  1  0  0  0  0
 12  4  2  0  0  0  0
 13 15  2  0  0  0  0
 14 13  2  0  0  0  0
 15  3  1  0  0  0  0
 16 19  1  0  0  0  0
 17 22  2  0  0  0  0
 18 17  1  0  0  0  0
 19 20  2  0  0  0  0
 20 14  1  0  0  0  0
 21 18  1  0  0  0  0
 21 16  1  0  0  0  0
 22 20  1  0  0  0  0
 23 24  1  0  0  0  0
 25 24  1  6  0  0  0
 25 28  1  0  0  0  0
 27 26  1  1  0  0  0
 27 32  1  0  0  0  0
 28 30  1  1  0  0  0
 29 33  1  0  0  0  0
 29 25  1  0  0  0  0
 30 34  1  0  0  0  0
 31 33  1  6  0  0  0
 31 28  1  0  0  0  0
 31 27  1  0  0  0  0
 32 34  1  0  0  0  0
 35 36  1  0  0  0  0
 35 27  1  0  0  0  0
 36 37  1  1  0  0  0
 38 42  1  0  0  0  0
 38 36  1  0  0  0  0
 39 41  2  0  0  0  0
 39 43  1  0  0  0  0
 40 42  2  0  0  0  0
 41 40  1  0  0  0  0
 43 38  2  0  0  0  0
M  END
>  <MODEL>
9

>  <REMARK>
 VINA RESULT:      -7.7      2.562      4.883
  Name = 
  9 active torsions:
  status: ('A' for Active; 'I' for Inactive)
    1  A    between atoms: C_2  and  C_13
    2  A    between atoms: C_4  and  C_22
    3  A    between atoms: C_8  and  C_34
    4  A    between atoms: C_11  and  C_14
    5  A    between atoms: C_13  and  N_38
    6  A    between atoms: C_14  and  C_22
    7  A    between atoms: C_27  and  C_30
    8  A    between atoms: C_27  and  N_38
    9  A    between atoms: C_28  and  C_35
                            x       y       z     vdW  Elec       q    Type
                         _______ _______ _______ _____ _____    ______ ____

>  <TORSDO>
F 9

$$$$
