=
 OpenBabel11052423083D

 27 31  0  0  1  0  0  0  0  0999 V2000
  160.3370  212.1590  155.4640 C   0  0  0  0  0  2  0  0  0  0  0  0
  160.1280  209.5630  155.3810 C   0  0  0  0  0  0  0  0  0  0  0  0
  160.9010  210.5710  153.1280 C   0  0  0  0  0  2  0  0  0  0  0  0
  161.2290  205.8460  153.8510 N   0  0  0  0  0  2  0  0  0  0  0  0
  163.1070  205.8390  152.3890 N   0  0  0  0  0  1  0  0  0  0  0  0
  160.0010  208.4510  156.1710 N   0  0  0  0  0  0  0  0  0  0  0  0
  161.4960  207.6800  152.3080 C   0  0  1  0  0  3  0  0  0  0  0  0
  159.9870  213.5030  151.4120 C   0  0  0  0  0  2  0  0  0  0  0  0
  160.4820  207.9100  151.2020 C   0  0  0  0  0  1  0  0  0  0  0  0
  158.8570  214.4530  151.8300 C   0  0  0  0  0  2  0  0  0  0  0  0
  160.9400  208.1250  153.6200 C   0  0  0  0  0  0  0  0  0  0  0  0
  159.6650  210.8730  155.9750 C   0  0  2  0  0  3  0  0  0  0  0  0
  161.6950  206.1630  152.5030 C   0  0  2  0  0  3  0  0  0  0  0  0
  160.8060  207.0520  154.4480 C   0  0  0  0  0  0  0  0  0  0  0  0
  159.8680  212.6470  154.0880 C   0  0  2  0  0  3  0  0  0  0  0  0
  160.6180  209.4190  154.0490 C   0  0  0  0  0  0  0  0  0  0  0  0
  159.6190  212.0270  151.5840 C   0  0  0  0  0  2  0  0  0  0  0  0
  160.3340  207.2030  155.7420 C   0  0  0  0  0  3  0  0  0  0  0  0
  158.6550  213.5780  154.2280 C   0  0  0  0  0  2  0  0  0  0  0  0
  157.9350  213.8920  152.9160 C   0  0  0  0  0  2  0  0  0  0  0  0
  159.7240  211.5250  153.0360 C   0  0  1  0  0  3  0  0  0  0  0  0
  155.4090  211.3960  156.6370 C   0  0  0  0  0  2  0  0  0  0  0  0
  158.1560  210.9230  156.2530 C   0  0  0  0  0  3  0  0  0  0  0  0
  157.2940  210.7990  154.9940 C   0  0  0  0  0  2  0  0  0  0  0  0
  155.8050  210.6780  155.3400 C   0  0  0  0  0  2  0  0  0  0  0  0
  156.3210  212.5870  156.9170 C   0  0  0  0  0  2  0  0  0  0  0  0
  157.7690  212.1280  157.1260 C   0  0  0  0  0  2  0  0  0  0  0  0
  1 12  1  0  0  0  0
  2 12  1  0  0  0  0
  2  6  1  0  0  0  0
  3 16  1  0  0  0  0
  4 14  1  0  0  0  0
  7  9  1  6  0  0  0
  7 13  1  0  0  0  0
  7 11  1  0  0  0  0
  8 17  1  0  0  0  0
  8 10  1  0  0  0  0
 10 20  1  0  0  0  0
 11 16  1  0  0  0  0
 11 14  2  0  0  0  0
 12 23  1  6  0  0  0
 13  5  1  1  0  0  0
 13  4  1  0  0  0  0
 14 18  1  0  0  0  0
 15 19  1  1  0  0  0
 15  1  1  0  0  0  0
 16  2  2  0  0  0  0
 18  6  2  0  0  0  0
 20 19  1  0  0  0  0
 21 17  1  6  0  0  0
 21  3  1  0  0  0  0
 21 15  1  0  0  0  0
 22 26  1  0  0  0  0
 23 27  1  0  0  0  0
 24 25  1  0  0  0  0
 24 23  1  0  0  0  0
 25 22  1  0  0  0  0
 26 27  1  0  0  0  0
M  END
>  <MODEL>
1

>  <REMARK>
 VINA RESULT:      -5.4      0.000      0.000
  Name = 
  1 active torsions:
  status: ('A' for Active; 'I' for Inactive)
    1  A    between atoms: C_9  and  C_15
                            x       y       z     vdW  Elec       q    Type
                         _______ _______ _______ _____ _____    ______ ____

>  <TORSDO>
F 1

$$$$
=
 OpenBabel11052423083D

 27 31  0  0  1  0  0  0  0  0999 V2000
  161.2060  211.3430  154.2550 C   0  0  0  0  0  2  0  0  0  0  0  0
  161.4950  210.8830  151.7070 C   0  0  0  0  0  0  0  0  0  0  0  0
  159.7860  212.7630  152.1910 C   0  0  0  0  0  2  0  0  0  0  0  0
  161.4060  212.1210  147.7270 N   0  0  0  0  0  2  0  0  0  0  0  0
  161.0980  214.4530  147.3720 N   0  0  0  0  0  1  0  0  0  0  0  0
  162.3000  210.2560  150.7930 N   0  0  0  0  0  0  0  0  0  0  0  0
  159.9000  213.3210  149.1810 C   0  0  1  0  0  3  0  0  0  0  0  0
  157.3510  213.1570  154.7000 C   0  0  0  0  0  2  0  0  0  0  0  0
  158.4160  213.0020  149.1850 C   0  0  0  0  0  1  0  0  0  0  0  0
  156.9750  212.0910  155.7380 C   0  0  0  0  0  2  0  0  0  0  0  0
  160.6590  212.2600  149.9080 C   0  0  0  0  0  0  0  0  0  0  0  0
  161.5350  210.3560  153.1210 C   0  0  2  0  0  3  0  0  0  0  0  0
  160.4350  213.2140  147.7380 C   0  0  2  0  0  3  0  0  0  0  0  0
  161.4860  211.6140  149.0420 C   0  0  0  0  0  0  0  0  0  0  0  0
  159.7180  211.6580  154.4440 C   0  0  2  0  0  3  0  0  0  0  0  0
  160.6330  211.9330  151.2700 C   0  0  0  0  0  0  0  0  0  0  0  0
  157.5780  212.5730  153.3030 C   0  0  0  0  0  2  0  0  0  0  0  0
  162.3240  210.5990  149.4760 C   0  0  0  0  0  3  0  0  0  0  0  0
  159.0670  210.6530  155.4040 C   0  0  0  0  0  2  0  0  0  0  0  0
  157.5400  210.6990  155.4410 C   0  0  0  0  0  2  0  0  0  0  0  0
  158.9530  211.9030  153.1240 C   0  0  1  0  0  3  0  0  0  0  0  0
  160.4390  206.1720  153.4730 C   0  0  0  0  0  2  0  0  0  0  0  0
  161.0130  208.9180  153.2580 C   0  0  0  0  0  3  0  0  0  0  0  0
  161.2150  208.3210  154.6530 C   0  0  0  0  0  2  0  0  0  0  0  0
  160.5230  206.9580  154.7880 C   0  0  0  0  0  2  0  0  0  0  0  0
  161.5910  206.5270  152.5360 C   0  0  0  0  0  2  0  0  0  0  0  0
  161.5340  208.0050  152.1350 C   0  0  0  0  0  2  0  0  0  0  0  0
  2 12  1  0  0  0  0
  4 13  1  0  0  0  0
  4 14  1  0  0  0  0
  6  2  2  0  0  0  0
  7  9  1  6  0  0  0
  7 11  1  0  0  0  0
  8 10  1  0  0  0  0
 11 16  2  0  0  0  0
 12 23  1  6  0  0  0
 12  1  1  0  0  0  0
 13  5  1  1  0  0  0
 13  7  1  0  0  0  0
 14 18  2  0  0  0  0
 14 11  1  0  0  0  0
 15  1  1  6  0  0  0
 15 19  1  0  0  0  0
 16  2  1  0  0  0  0
 16  3  1  0  0  0  0
 17  8  1  0  0  0  0
 18  6  1  0  0  0  0
 19 20  1  0  0  0  0
 20 10  1  0  0  0  0
 21  3  1  6  0  0  0
 21 17  1  0  0  0  0
 21 15  1  0  0  0  0
 22 25  1  0  0  0  0
 23 24  1  0  0  0  0
 24 25  1  0  0  0  0
 26 22  1  0  0  0  0
 27 26  1  0  0  0  0
 27 23  1  0  0  0  0
M  END
>  <MODEL>
2

>  <REMARK>
 VINA RESULT:      -4.3      3.131      5.835
  Name = 
  1 active torsions:
  status: ('A' for Active; 'I' for Inactive)
    1  A    between atoms: C_9  and  C_15
                            x       y       z     vdW  Elec       q    Type
                         _______ _______ _______ _____ _____    ______ ____

>  <TORSDO>
F 1

$$$$
=
 OpenBabel11052423083D

 27 31  0  0  1  0  0  0  0  0999 V2000
  162.6770  210.1090  152.4770 C   0  0  0  0  0  2  0  0  0  0  0  0
  161.3970  207.9420  153.1490 C   0  0  0  0  0  0  0  0  0  0  0  0
  162.3290  207.8390  150.7380 C   0  0  0  0  0  2  0  0  0  0  0  0
  160.7130  203.8420  152.8290 N   0  0  0  0  0  2  0  0  0  0  0  0
  162.2860  202.6250  151.5230 N   0  0  0  0  0  1  0  0  0  0  0  0
  160.8830  207.2630  154.2220 N   0  0  0  0  0  0  0  0  0  0  0  0
  161.5920  204.8680  150.8290 C   0  0  1  0  0  3  0  0  0  0  0  0
  162.5830  210.2590  148.1970 C   0  0  0  0  0  2  0  0  0  0  0  0
  160.6770  205.1800  149.6580 C   0  0  0  0  0  1  0  0  0  0  0  0
  161.9920  211.6740  148.2650 C   0  0  0  0  0  2  0  0  0  0  0  0
  161.3840  205.8590  151.9260 C   0  0  0  0  0  0  0  0  0  0  0  0
  161.5740  209.4330  153.3100 C   0  0  2  0  0  3  0  0  0  0  0  0
  161.1540  203.5340  151.4700 C   0  0  2  0  0  3  0  0  0  0  0  0
  160.8830  205.2290  153.0250 C   0  0  0  0  0  0  0  0  0  0  0  0
  162.3420  210.3360  150.9980 C   0  0  2  0  0  3  0  0  0  0  0  0
  161.6690  207.2310  151.9420 C   0  0  0  0  0  0  0  0  0  0  0  0
  161.6480  209.1950  148.7770 C   0  0  0  0  0  2  0  0  0  0  0  0
  160.6270  205.9270  154.1950 C   0  0  0  0  0  3  0  0  0  0  0  0
  161.6440  211.6890  150.8020 C   0  0  0  0  0  2  0  0  0  0  0  0
  161.0140  211.8910  149.4230 C   0  0  0  0  0  2  0  0  0  0  0  0
  161.6550  209.1320  150.3150 C   0  0  1  0  0  3  0  0  0  0  0  0
  157.9590  211.6630  154.1940 C   0  0  0  0  0  2  0  0  0  0  0  0
  160.2530  210.1940  153.4900 C   0  0  0  0  0  3  0  0  0  0  0  0
  160.4030  211.7150  153.3970 C   0  0  0  0  0  2  0  0  0  0  0  0
  159.0390  212.4170  153.4070 C   0  0  0  0  0  2  0  0  0  0  0  0
  158.5680  210.8260  155.3160 C   0  0  0  0  0  2  0  0  0  0  0  0
  159.4940  209.7440  154.7500 C   0  0  0  0  0  2  0  0  0  0  0  0
  1 12  1  0  0  0  0
  2 12  1  0  0  0  0
  2  6  1  0  0  0  0
  3 16  1  0  0  0  0
  4 14  1  0  0  0  0
  7  9  1  6  0  0  0
  7 13  1  0  0  0  0
  7 11  1  0  0  0  0
  8 10  1  0  0  0  0
  8 17  1  0  0  0  0
 10 20  1  0  0  0  0
 11 16  1  0  0  0  0
 11 14  2  0  0  0  0
 12 23  1  6  0  0  0
 13  5  1  1  0  0  0
 13  4  1  0  0  0  0
 14 18  1  0  0  0  0
 15 19  1  1  0  0  0
 15  1  1  0  0  0  0
 16  2  2  0  0  0  0
 18  6  2  0  0  0  0
 20 19  1  0  0  0  0
 21 17  1  6  0  0  0
 21  3  1  0  0  0  0
 21 15  1  0  0  0  0
 22 26  1  0  0  0  0
 23 27  1  0  0  0  0
 24 25  1  0  0  0  0
 24 23  1  0  0  0  0
 25 22  1  0  0  0  0
 27 26  1  0  0  0  0
M  END
>  <MODEL>
3

>  <REMARK>
 VINA RESULT:      -4.0      2.174      3.758
  Name = 
  1 active torsions:
  status: ('A' for Active; 'I' for Inactive)
    1  A    between atoms: C_9  and  C_15
                            x       y       z     vdW  Elec       q    Type
                         _______ _______ _______ _____ _____    ______ ____

>  <TORSDO>
F 1

$$$$
=
 OpenBabel11052423083D

 27 31  0  0  1  0  0  0  0  0999 V2000
  162.3940  209.7600  153.2090 C   0  0  0  0  0  2  0  0  0  0  0  0
  161.9330  209.9060  150.6480 C   0  0  0  0  0  0  0  0  0  0  0  0
  160.8290  211.8370  151.9680 C   0  0  0  0  0  2  0  0  0  0  0  0
  161.1110  212.0860  147.1920 N   0  0  0  0  0  2  0  0  0  0  0  0
  161.2150  214.4530  147.4070 N   0  0  0  0  0  1  0  0  0  0  0  0
  162.3360  209.4140  149.4350 N   0  0  0  0  0  0  0  0  0  0  0  0
  160.3000  213.0970  149.2270 C   0  0  1  0  0  3  0  0  0  0  0  0
  159.2370  211.9500  155.1040 C   0  0  0  0  0  2  0  0  0  0  0  0
  158.8310  213.0060  149.6000 C   0  0  0  0  0  1  0  0  0  0  0  0
  158.9200  210.7270  155.9760 C   0  0  0  0  0  2  0  0  0  0  0  0
  160.9790  211.7910  149.4790 C   0  0  0  0  0  0  0  0  0  0  0  0
  162.2160  209.0460  151.8570 C   0  0  2  0  0  3  0  0  0  0  0  0
  160.4230  213.2720  147.6990 C   0  0  2  0  0  3  0  0  0  0  0  0
  161.4100  211.2640  148.2990 C   0  0  0  0  0  0  0  0  0  0  0  0
  161.0990  210.2330  153.8810 C   0  0  2  0  0  3  0  0  0  0  0  0
  161.2270  211.1450  150.6970 C   0  0  0  0  0  0  0  0  0  0  0  0
  158.9800  211.7010  153.6150 C   0  0  0  0  0  2  0  0  0  0  0  0
  162.1000  210.0630  148.2620 C   0  0  0  0  0  3  0  0  0  0  0  0
  160.5150  209.1270  154.7710 C   0  0  0  0  0  2  0  0  0  0  0  0
  159.0890  209.3840  155.2590 C   0  0  0  0  0  2  0  0  0  0  0  0
  160.0960  210.9040  152.9160 C   0  0  1  0  0  3  0  0  0  0  0  0
  160.3570  205.1340  151.6040 C   0  0  0  0  0  2  0  0  0  0  0  0
  161.4570  207.7110  151.8540 C   0  0  0  0  0  3  0  0  0  0  0  0
  162.0780  206.6500  152.7670 C   0  0  0  0  0  2  0  0  0  0  0  0
  161.1910  205.4020  152.8640 C   0  0  0  0  0  2  0  0  0  0  0  0
  161.0460  205.6740  150.3540 C   0  0  0  0  0  2  0  0  0  0  0  0
  161.1980  207.1970  150.4280 C   0  0  0  0  0  2  0  0  0  0  0  0
  2 16  1  0  0  0  0
  2 12  1  0  0  0  0
  4 13  1  0  0  0  0
  4 14  1  0  0  0  0
  6  2  2  0  0  0  0
  7 11  1  0  0  0  0
  7  9  1  6  0  0  0
  8 10  1  0  0  0  0
 11 16  2  0  0  0  0
 12 23  1  1  0  0  0
 12  1  1  0  0  0  0
 13  5  1  1  0  0  0
 13  7  1  0  0  0  0
 14 11  1  0  0  0  0
 15  1  1  6  0  0  0
 15 19  1  0  0  0  0
 16  3  1  0  0  0  0
 17  8  1  0  0  0  0
 18 14  2  0  0  0  0
 18  6  1  0  0  0  0
 19 20  1  0  0  0  0
 20 10  1  0  0  0  0
 21  3  1  6  0  0  0
 21 17  1  0  0  0  0
 21 15  1  0  0  0  0
 22 25  1  0  0  0  0
 23 24  1  0  0  0  0
 24 25  1  0  0  0  0
 26 27  1  0  0  0  0
 26 22  1  0  0  0  0
 27 23  1  0  0  0  0
M  END
>  <MODEL>
4

>  <REMARK>
 VINA RESULT:      -3.9      3.284      6.572
  Name = 
  1 active torsions:
  status: ('A' for Active; 'I' for Inactive)
    1  A    between atoms: C_9  and  C_15
                            x       y       z     vdW  Elec       q    Type
                         _______ _______ _______ _____ _____    ______ ____

>  <TORSDO>
F 1

$$$$
=
 OpenBabel11052423083D

 27 31  0  0  1  0  0  0  0  0999 V2000
  158.9030  214.3850  140.4650 C   0  0  0  0  0  2  0  0  0  0  0  0
  160.2190  212.1660  140.8300 C   0  0  0  0  0  0  0  0  0  0  0  0
  158.6500  212.0660  138.7760 C   0  0  0  0  0  2  0  0  0  0  0  0
  161.9700  208.6660  139.3930 N   0  0  0  0  0  2  0  0  0  0  0  0
  162.0620  208.4470  137.0250 N   0  0  0  0  0  1  0  0  0  0  0  0
  161.2780  211.6210  141.5060 N   0  0  0  0  0  0  0  0  0  0  0  0
  160.1020  209.4590  138.0860 C   0  0  1  0  0  3  0  0  0  0  0  0
  155.4190  213.3360  138.2040 C   0  0  0  0  0  2  0  0  0  0  0  0
  158.7390  208.8040  138.2160 C   0  0  0  0  0  1  0  0  0  0  0  0
  154.5360  214.0070  139.2650 C   0  0  0  0  0  2  0  0  0  0  0  0
  160.3710  210.3290  139.2690 C   0  0  0  0  0  0  0  0  0  0  0  0
  159.5970  213.4050  141.4280 C   0  0  2  0  0  3  0  0  0  0  0  0
  161.1950  208.3740  138.1880 C   0  0  2  0  0  3  0  0  0  0  0  0
  161.4280  209.8340  139.9710 C   0  0  0  0  0  0  0  0  0  0  0  0
  157.5150  213.9570  139.9740 C   0  0  2  0  0  3  0  0  0  0  0  0
  159.7310  211.5120  139.6590 C   0  0  0  0  0  0  0  0  0  0  0  0
  156.1710  212.1160  138.7410 C   0  0  0  0  0  2  0  0  0  0  0  0
  161.8990  210.4790  141.1040 C   0  0  0  0  0  3  0  0  0  0  0  0
  156.4240  214.4480  140.9360 C   0  0  0  0  0  2  0  0  0  0  0  0
  155.0420  213.8400  140.7000 C   0  0  0  0  0  2  0  0  0  0  0  0
  157.4200  212.4690  139.5690 C   0  0  1  0  0  3  0  0  0  0  0  0
  158.0910  212.7810  145.4490 C   0  0  0  0  0  2  0  0  0  0  0  0
  158.9360  213.1640  142.7930 C   0  0  0  0  0  3  0  0  0  0  0  0
  158.6600  214.4500  143.5770 C   0  0  0  0  0  2  0  0  0  0  0  0
  157.8460  214.1710  144.8470 C   0  0  0  0  0  2  0  0  0  0  0  0
  159.4950  212.2760  145.1320 C   0  0  0  0  0  2  0  0  0  0  0  0
  159.6870  212.1080  143.6200 C   0  0  0  0  0  2  0  0  0  0  0  0
  1 12  1  0  0  0  0
  2 12  1  0  0  0  0
  2  6  1  0  0  0  0
  3 21  1  0  0  0  0
  3 16  1  0  0  0  0
  4 14  1  0  0  0  0
  7 13  1  0  0  0  0
  7  9  1  1  0  0  0
  7 11  1  0  0  0  0
  8 17  1  0  0  0  0
  8 10  1  0  0  0  0
 10 20  1  0  0  0  0
 11 16  1  0  0  0  0
 11 14  2  0  0  0  0
 12 23  1  1  0  0  0
 13  5  1  6  0  0  0
 13  4  1  0  0  0  0
 14 18  1  0  0  0  0
 15  1  1  1  0  0  0
 15 19  1  0  0  0  0
 16  2  2  0  0  0  0
 18  6  2  0  0  0  0
 20 19  1  0  0  0  0
 21 17  1  6  0  0  0
 21 15  1  0  0  0  0
 23 24  1  0  0  0  0
 23 27  1  0  0  0  0
 24 25  1  0  0  0  0
 25 22  1  0  0  0  0
 26 22  1  0  0  0  0
 27 26  1  0  0  0  0
M  END
>  <MODEL>
5

>  <REMARK>
 VINA RESULT:      -3.6     11.470     13.930
  Name = 
  1 active torsions:
  status: ('A' for Active; 'I' for Inactive)
    1  A    between atoms: C_9  and  C_15
                            x       y       z     vdW  Elec       q    Type
                         _______ _______ _______ _____ _____    ______ ____

>  <TORSDO>
F 1

$$$$
=
 OpenBabel11052423083D

 27 31  0  0  1  0  0  0  0  0999 V2000
  162.7300  210.3270  151.2830 C   0  0  0  0  0  2  0  0  0  0  0  0
  161.5800  207.9910  151.1880 C   0  0  0  0  0  0  0  0  0  0  0  0
  162.1930  208.8940  148.8430 C   0  0  0  0  0  2  0  0  0  0  0  0
  160.9220  204.3030  149.3590 N   0  0  0  0  0  2  0  0  0  0  0  0
  162.3310  203.7940  147.5110 N   0  0  0  0  0  1  0  0  0  0  0  0
  161.2200  206.9170  151.9580 N   0  0  0  0  0  0  0  0  0  0  0  0
  161.5190  206.0790  147.8400 C   0  0  1  0  0  3  0  0  0  0  0  0
  162.0800  212.1220  147.4480 C   0  0  0  0  0  2  0  0  0  0  0  0
  160.4560  206.7620  146.9970 C   0  0  0  0  0  1  0  0  0  0  0  0
  161.4820  213.3580  148.1340 C   0  0  0  0  0  2  0  0  0  0  0  0
  161.4400  206.5510  149.2540 C   0  0  0  0  0  0  0  0  0  0  0  0
  161.7540  209.3100  151.9020 C   0  0  2  0  0  3  0  0  0  0  0  0
  161.1880  204.5760  147.9480 C   0  0  2  0  0  3  0  0  0  0  0  0
  161.0950  205.5130  150.0650 C   0  0  0  0  0  0  0  0  0  0  0  0
  162.2020  211.0880  150.0610 C   0  0  2  0  0  3  0  0  0  0  0  0
  161.7040  207.8240  149.7760 C   0  0  0  0  0  0  0  0  0  0  0  0
  161.2440  210.8580  147.6650 C   0  0  0  0  0  2  0  0  0  0  0  0
  160.9820  205.6830  151.4360 C   0  0  0  0  0  3  0  0  0  0  0  0
  161.4650  212.3630  150.4940 C   0  0  0  0  0  2  0  0  0  0  0  0
  160.6590  213.0430  149.3870 C   0  0  0  0  0  2  0  0  0  0  0  0
  161.4510  210.2030  149.0420 C   0  0  1  0  0  3  0  0  0  0  0  0
  158.3050  210.9640  153.9500 C   0  0  0  0  0  2  0  0  0  0  0  0
  160.4560  209.8540  152.5150 C   0  0  0  0  0  3  0  0  0  0  0  0
  160.3050  211.3720  152.3860 C   0  0  0  0  0  2  0  0  0  0  0  0
  158.9220  211.8430  152.8530 C   0  0  0  0  0  2  0  0  0  0  0  0
  159.3820  210.2970  154.8010 C   0  0  0  0  0  2  0  0  0  0  0  0
  160.2410  209.3520  153.9530 C   0  0  0  0  0  2  0  0  0  0  0  0
  1 12  1  0  0  0  0
  2 12  1  0  0  0  0
  2  6  1  0  0  0  0
  3 21  1  0  0  0  0
  3 16  1  0  0  0  0
  4 14  1  0  0  0  0
  7  9  1  6  0  0  0
  7 13  1  0  0  0  0
  7 11  1  0  0  0  0
  8 17  1  0  0  0  0
  8 10  1  0  0  0  0
 10 20  1  0  0  0  0
 11 16  1  0  0  0  0
 11 14  2  0  0  0  0
 12 23  1  6  0  0  0
 13  5  1  1  0  0  0
 13  4  1  0  0  0  0
 14 18  1  0  0  0  0
 15 19  1  1  0  0  0
 15  1  1  0  0  0  0
 16  2  2  0  0  0  0
 18  6  2  0  0  0  0
 20 19  1  0  0  0  0
 21 17  1  6  0  0  0
 21 15  1  0  0  0  0
 22 26  1  0  0  0  0
 23 27  1  0  0  0  0
 24 23  1  0  0  0  0
 24 25  1  0  0  0  0
 25 22  1  0  0  0  0
 27 26  1  0  0  0  0
M  END
>  <MODEL>
6

>  <REMARK>
 VINA RESULT:      -3.5      2.958      4.651
  Name = 
  1 active torsions:
  status: ('A' for Active; 'I' for Inactive)
    1  A    between atoms: C_9  and  C_15
                            x       y       z     vdW  Elec       q    Type
                         _______ _______ _______ _____ _____    ______ ____

>  <TORSDO>
F 1

$$$$
=
 OpenBabel11052423083D

 27 31  0  0  1  0  0  0  0  0999 V2000
  162.3510  211.7390  149.5520 C   0  0  0  0  0  2  0  0  0  0  0  0
  160.3860  212.9110  150.7990 C   0  0  0  0  0  0  0  0  0  0  0  0
  161.2570  210.8240  152.0540 C   0  0  0  0  0  2  0  0  0  0  0  0
  158.3210  213.8820  154.2870 N   0  0  0  0  0  2  0  0  0  0  0  0
  159.3890  213.2840  156.3280 N   0  0  0  0  0  1  0  0  0  0  0  0
  159.6540  214.0680  150.8430 N   0  0  0  0  0  0  0  0  0  0  0  0
  159.5290  211.7960  154.3890 C   0  0  1  0  0  3  0  0  0  0  0  0
  162.3730  207.6830  150.9290 C   0  0  0  0  0  2  0  0  0  0  0  0
  158.7970  210.4740  154.2430 C   0  0  0  0  0  1  0  0  0  0  0  0
  162.3110  207.1950  149.4750 C   0  0  0  0  0  2  0  0  0  0  0  0
  159.6650  212.4610  153.0590 C   0  0  0  0  0  0  0  0  0  0  0  0
  161.0700  212.5900  149.4920 C   0  0  2  0  0  3  0  0  0  0  0  0
  158.6450  212.7770  155.1880 C   0  0  2  0  0  3  0  0  0  0  0  0
  158.9610  213.6270  153.0560 C   0  0  0  0  0  0  0  0  0  0  0  0
  162.1350  210.2380  149.7770 C   0  0  2  0  0  3  0  0  0  0  0  0
  160.4100  212.0590  151.9430 C   0  0  0  0  0  0  0  0  0  0  0  0
  161.1180  208.4500  151.3530 C   0  0  0  0  0  2  0  0  0  0  0  0
  158.9480  214.4520  151.9420 C   0  0  0  0  0  3  0  0  0  0  0  0
  161.9560  209.5090  148.4380 C   0  0  0  0  0  2  0  0  0  0  0  0
  161.4550  208.0690  148.5550 C   0  0  0  0  0  2  0  0  0  0  0  0
  161.0810  209.9070  150.8570 C   0  0  1  0  0  3  0  0  0  0  0  0
  158.2460  212.2320  146.2160 C   0  0  0  0  0  2  0  0  0  0  0  0
  160.0950  212.3240  148.3360 C   0  0  0  0  0  3  0  0  0  0  0  0
  160.6730  212.6490  146.9560 C   0  0  0  0  0  2  0  0  0  0  0  0
  159.7310  212.2030  145.8310 C   0  0  0  0  0  2  0  0  0  0  0  0
  157.9670  213.2900  147.2810 C   0  0  0  0  0  2  0  0  0  0  0  0
  158.7220  212.9740  148.5770 C   0  0  0  0  0  2  0  0  0  0  0  0
  1 15  1  0  0  0  0
  2  6  2  0  0  0  0
  2 16  1  0  0  0  0
  4 13  1  0  0  0  0
  6 18  1  0  0  0  0
  7  9  1  6  0  0  0
  7 13  1  0  0  0  0
  8 17  1  0  0  0  0
 10  8  1  0  0  0  0
 11  7  1  0  0  0  0
 12 23  1  6  0  0  0
 12  1  1  0  0  0  0
 12  2  1  0  0  0  0
 13  5  1  1  0  0  0
 14 11  1  0  0  0  0
 14  4  1  0  0  0  0
 15 19  1  6  0  0  0
 15 21  1  0  0  0  0
 16  3  1  0  0  0  0
 16 11  2  0  0  0  0
 18 14  2  0  0  0  0
 19 20  1  0  0  0  0
 20 10  1  0  0  0  0
 21 17  1  1  0  0  0
 21  3  1  0  0  0  0
 22 26  1  0  0  0  0
 23 27  1  0  0  0  0
 24 23  1  0  0  0  0
 25 22  1  0  0  0  0
 25 24  1  0  0  0  0
 26 27  1  0  0  0  0
M  END
>  <MODEL>
7

>  <REMARK>
 VINA RESULT:      -3.0      3.439      7.267
  Name = 
  1 active torsions:
  status: ('A' for Active; 'I' for Inactive)
    1  A    between atoms: C_9  and  C_15
                            x       y       z     vdW  Elec       q    Type
                         _______ _______ _______ _____ _____    ______ ____

>  <TORSDO>
F 1

$$$$
=
 OpenBabel11052423083D

 27 31  0  0  1  0  0  0  0  0999 V2000
  163.2340  206.8860  150.9380 C   0  0  0  0  0  2  0  0  0  0  0  0
  161.9460  209.1500  150.8580 C   0  0  0  0  0  0  0  0  0  0  0  0
  161.4160  207.7800  152.9860 C   0  0  0  0  0  2  0  0  0  0  0  0
  160.0860  212.3760  152.7300 N   0  0  0  0  0  2  0  0  0  0  0  0
  160.3370  212.4910  155.0940 N   0  0  0  0  0  1  0  0  0  0  0  0
  161.9010  210.3600  150.2170 N   0  0  0  0  0  0  0  0  0  0  0  0
  160.0400  210.3230  153.9980 C   0  0  1  0  0  3  0  0  0  0  0  0
  160.9730  204.3320  153.5290 C   0  0  0  0  0  2  0  0  0  0  0  0
  158.7800  209.4780  154.0510 C   0  0  0  0  0  1  0  0  0  0  0  0
  160.9250  203.2650  152.4270 C   0  0  0  0  0  2  0  0  0  0  0  0
  160.7190  210.1560  152.6780 C   0  0  0  0  0  0  0  0  0  0  0  0
  162.5890  208.0090  150.1060 C   0  0  2  0  0  3  0  0  0  0  0  0
  159.6490  211.8160  154.0080 C   0  0  2  0  0  3  0  0  0  0  0  0
  160.7110  211.3400  152.0060 C   0  0  0  0  0  0  0  0  0  0  0  0
  162.2570  205.8870  151.5680 C   0  0  2  0  0  3  0  0  0  0  0  0
  161.3400  209.0200  152.1430 C   0  0  0  0  0  0  0  0  0  0  0  0
  160.2230  205.6120  153.1510 C   0  0  0  0  0  2  0  0  0  0  0  0
  161.3080  211.4590  150.7600 C   0  0  0  0  0  3  0  0  0  0  0  0
  161.9690  204.7290  150.6030 C   0  0  0  0  0  2  0  0  0  0  0  0
  160.7990  203.8320  151.0100 C   0  0  0  0  0  2  0  0  0  0  0  0
  161.0120  206.5400  152.2090 C   0  0  1  0  0  3  0  0  0  0  0  0
  160.6150  206.5010  146.5480 C   0  0  0  0  0  2  0  0  0  0  0  0
  161.8280  207.6020  148.8360 C   0  0  0  0  0  3  0  0  0  0  0  0
  160.5950  206.7360  149.1090 C   0  0  0  0  0  2  0  0  0  0  0  0
  159.7750  206.5050  147.8330 C   0  0  0  0  0  2  0  0  0  0  0  0
  162.0440  206.0370  146.8170 C   0  0  0  0  0  2  0  0  0  0  0  0
  162.7600  206.9970  147.7730 C   0  0  0  0  0  2  0  0  0  0  0  0
  1 15  1  0  0  0  0
  2 16  1  0  0  0  0
  4 13  1  0  0  0  0
  6 18  1  0  0  0  0
  6  2  2  0  0  0  0
  7 13  1  0  0  0  0
  7  9  1  6  0  0  0
 10  8  1  0  0  0  0
 11  7  1  0  0  0  0
 12 23  1  1  0  0  0
 12  2  1  0  0  0  0
 12  1  1  0  0  0  0
 13  5  1  1  0  0  0
 14 11  1  0  0  0  0
 14  4  1  0  0  0  0
 15 19  1  6  0  0  0
 15 21  1  0  0  0  0
 16 11  2  0  0  0  0
 16  3  1  0  0  0  0
 17  8  1  0  0  0  0
 18 14  2  0  0  0  0
 19 20  1  0  0  0  0
 20 10  1  0  0  0  0
 21  3  1  1  0  0  0
 21 17  1  0  0  0  0
 22 26  1  0  0  0  0
 22 25  1  0  0  0  0
 23 24  1  0  0  0  0
 25 24  1  0  0  0  0
 26 27  1  0  0  0  0
 27 23  1  0  0  0  0
M  END
>  <MODEL>
8

>  <REMARK>
 VINA RESULT:      -2.5      2.897      7.917
  Name = 
  1 active torsions:
  status: ('A' for Active; 'I' for Inactive)
    1  A    between atoms: C_9  and  C_15
                            x       y       z     vdW  Elec       q    Type
                         _______ _______ _______ _____ _____    ______ ____

>  <TORSDO>
F 1

$$$$
=
 OpenBabel11052423083D

 27 31  0  0  1  0  0  0  0  0999 V2000
  163.2830  205.9620  151.0760 C   0  0  0  0  0  2  0  0  0  0  0  0
  162.0100  208.1120  151.8160 C   0  0  0  0  0  0  0  0  0  0  0  0
  161.5660  206.1040  153.3840 C   0  0  0  0  0  2  0  0  0  0  0  0
  160.2610  210.5100  154.7430 N   0  0  0  0  0  2  0  0  0  0  0  0
  160.6200  209.8290  156.9940 N   0  0  0  0  0  1  0  0  0  0  0  0
  161.9450  209.4660  151.6200 N   0  0  0  0  0  0  0  0  0  0  0  0
  160.2570  208.1510  155.2500 C   0  0  1  0  0  3  0  0  0  0  0  0
  161.1220  202.6700  152.7610 C   0  0  0  0  0  2  0  0  0  0  0  0
  158.9940  207.3270  155.0740 C   0  0  0  0  0  1  0  0  0  0  0  0
  161.0170  202.0330  151.3690 C   0  0  0  0  0  2  0  0  0  0  0  0
  160.8740  208.4400  153.9210 C   0  0  0  0  0  0  0  0  0  0  0  0
  162.6090  207.2930  150.6970 C   0  0  2  0  0  3  0  0  0  0  0  0
  159.8780  209.5500  155.7770 C   0  0  2  0  0  3  0  0  0  0  0  0
  160.8450  209.7810  153.6850 C   0  0  0  0  0  0  0  0  0  0  0  0
  162.3280  204.8020  151.3780 C   0  0  2  0  0  3  0  0  0  0  0  0
  161.4610  207.5540  153.0090 C   0  0  0  0  0  0  0  0  0  0  0  0
  160.3660  203.9970  152.8680 C   0  0  0  0  0  2  0  0  0  0  0  0
  161.3850  210.3150  152.5260 C   0  0  0  0  0  3  0  0  0  0  0  0
  161.9870  204.0310  150.0950 C   0  0  0  0  0  2  0  0  0  0  0  0
  160.8300  203.0410  150.2310 C   0  0  0  0  0  2  0  0  0  0  0  0
  161.1180  205.1930  152.2560 C   0  0  1  0  0  3  0  0  0  0  0  0
  160.4740  207.0540  146.9270 C   0  0  0  0  0  2  0  0  0  0  0  0
  161.7880  207.3290  149.4000 C   0  0  0  0  0  3  0  0  0  0  0  0
  160.5880  206.3780  149.4060 C   0  0  0  0  0  2  0  0  0  0  0  0
  159.7060  206.5780  148.1670 C   0  0  0  0  0  2  0  0  0  0  0  0
  161.9240  206.5780  146.9520 C   0  0  0  0  0  2  0  0  0  0  0  0
  162.6730  207.1690  148.1520 C   0  0  0  0  0  2  0  0  0  0  0  0
  1 15  1  0  0  0  0
  2 16  1  0  0  0  0
  4 13  1  0  0  0  0
  6  2  2  0  0  0  0
  6 18  1  0  0  0  0
  7  9  1  6  0  0  0
  7 13  1  0  0  0  0
  8 17  1  0  0  0  0
 10  8  1  0  0  0  0
 11  7  1  0  0  0  0
 12 23  1  6  0  0  0
 12  1  1  0  0  0  0
 12  2  1  0  0  0  0
 13  5  1  1  0  0  0
 14 11  1  0  0  0  0
 14  4  1  0  0  0  0
 15 19  1  6  0  0  0
 15 21  1  0  0  0  0
 16  3  1  0  0  0  0
 16 11  2  0  0  0  0
 18 14  2  0  0  0  0
 19 20  1  0  0  0  0
 20 10  1  0  0  0  0
 21 17  1  1  0  0  0
 21  3  1  0  0  0  0
 22 26  1  0  0  0  0
 22 25  1  0  0  0  0
 23 24  1  0  0  0  0
 25 24  1  0  0  0  0
 26 27  1  0  0  0  0
 27 23  1  0  0  0  0
M  END
>  <MODEL>
9

>  <REMARK>
 VINA RESULT:      -2.4      3.037      7.945
  Name = 
  1 active torsions:
  status: ('A' for Active; 'I' for Inactive)
    1  A    between atoms: C_9  and  C_15
                            x       y       z     vdW  Elec       q    Type
                         _______ _______ _______ _____ _____    ______ ____

>  <TORSDO>
F 1

$$$$
