=
 OpenBabel11062410483D

 32 36  0  0  1  0  0  0  0  0999 V2000
  161.6350  202.0700  147.9400 N   0  0  0  0  0  0  0  0  0  0  0  0
  160.8990  206.0940  150.9110 C   0  0  0  0  0  0  0  0  0  0  0  0
  162.4530  209.9480  148.3880 C   0  0  0  0  0  3  0  0  0  0  0  0
  162.1850  210.7610  149.4890 C   0  0  0  0  0  3  0  0  0  0  0  0
  160.8910  203.8690  149.9510 C   0  0  0  0  0  0  0  0  0  0  0  0
  161.6670  205.7520  148.6310 C   0  0  0  0  0  3  0  0  0  0  0  0
  161.6080  203.4830  147.5520 C   0  0  0  0  0  0  0  0  0  0  0  0
  162.2020  208.5760  148.4530 C   0  0  0  0  0  3  0  0  0  0  0  0
  161.4230  206.6190  149.7090 C   0  0  0  0  0  0  0  0  0  0  0  0
  161.6800  208.0000  149.6240 C   0  0  0  0  0  0  0  0  0  0  0  0
  160.8840  208.2520  151.9140 C   0  0  0  0  0  0  0  0  0  0  0  0
  161.0300  201.5830  149.1450 C   0  0  0  0  0  3  0  0  0  0  0  0
  161.4050  204.3830  148.7450 C   0  0  0  0  0  0  0  0  0  0  0  0
  160.6590  202.4270  150.1050 C   0  0  0  0  0  3  0  0  0  0  0  0
  161.6660  210.2060  150.6600 C   0  0  0  0  0  3  0  0  0  0  0  0
  161.4100  208.8280  150.7420 C   0  0  0  0  0  0  0  0  0  0  0  0
  160.6400  204.7260  151.0250 C   0  0  0  0  0  3  0  0  0  0  0  0
  160.6510  206.9130  151.9650 N   0  0  0  0  0  0  0  0  0  0  0  0
  160.4950  203.7150  146.5430 C   0  0  0  0  0  2  0  0  0  0  0  0
  160.8430  205.3640  144.6720 C   0  0  0  0  0  0  0  0  0  0  0  0
  161.0610  204.0800  145.2550 N   0  0  0  0  0  2  0  0  0  0  0  0
  160.1440  206.2280  145.2650 O   0  0  0  0  0  0  0  0  0  0  0  0
  161.4460  205.6840  143.3520 C   0  0  0  0  0  1  0  0  0  0  0  0
  160.6100  209.0740  153.1360 C   0  0  0  0  0  2  0  0  0  0  0  0
  160.5360  207.3620  154.7560 C   0  0  2  0  0  3  0  0  0  0  0  0
  159.7150  207.6370  156.0230 C   0  0  0  0  0  2  0  0  0  0  0  0
  161.4600  209.6000  155.2750 C   0  0  1  0  0  3  0  0  0  0  0  0
  161.7410  209.0430  156.6680 C   0  0  0  0  0  2  0  0  0  0  0  0
  160.5820  208.1760  157.1630 C   0  0  0  0  0  2  0  0  0  0  0  0
  161.4400  206.1550  154.9390 C   0  0  0  0  0  1  0  0  0  0  0  0
  162.5500  210.4820  154.8940 N   0  0  0  0  0  1  0  0  0  0  0  0
  161.3220  208.5190  154.2820 N   0  0  0  0  0  0  0  0  0  0  0  0
  1 12  1  0  0  0  0
  2 17  2  0  0  0  0
  2 18  1  0  0  0  0
  3  8  2  0  0  0  0
  3  4  1  0  0  0  0
  4 15  2  0  0  0  0
  5 14  1  0  0  0  0
  5 17  1  0  0  0  0
  6 13  1  0  0  0  0
  6  9  2  0  0  0  0
  7  1  2  0  0  0  0
  7 13  1  0  0  0  0
  8 10  1  0  0  0  0
  9  2  1  0  0  0  0
 10  9  1  0  0  0  0
 10 16  2  0  0  0  0
 11 18  2  0  0  0  0
 11 24  1  0  0  0  0
 12 14  2  0  0  0  0
 13  5  2  0  0  0  0
 15 16  1  0  0  0  0
 16 11  1  0  0  0  0
 19  7  1  0  0  0  0
 20 21  1  0  0  0  0
 20 22  2  0  0  0  0
 21 19  1  0  0  0  0
 23 20  1  0  0  0  0
 24 32  1  0  0  0  0
 25 30  1  1  0  0  0
 25 26  1  0  0  0  0
 26 29  1  0  0  0  0
 27 31  1  6  0  0  0
 27 28  1  0  0  0  0
 28 29  1  0  0  0  0
 32 25  1  0  0  0  0
 32 27  1  0  0  0  0
M  END
>  <MODEL>
1

>  <REMARK>
 VINA RESULT:      -8.1      0.000      0.000
  Name = 
  4 active torsions:
  status: ('A' for Active; 'I' for Inactive)
    1  A    between atoms: N_10  and  C_24
    2  A    between atoms: C_12  and  C_24
    3  A    between atoms: C_16  and  C_27
    4  A    between atoms: C_27  and  N_32
                            x       y       z     vdW  Elec       q    Type
                         _______ _______ _______ _____ _____    ______ ____

>  <TORSDO>
F 4

$$$$
=
 OpenBabel11062410483D

 32 36  0  0  1  0  0  0  0  0999 V2000
  161.6140  201.8530  149.6730 N   0  0  0  0  0  0  0  0  0  0  0  0
  161.3520  206.3290  152.0070 C   0  0  0  0  0  0  0  0  0  0  0  0
  162.1920  209.6910  148.5970 C   0  0  0  0  0  3  0  0  0  0  0  0
  162.1280  210.6820  149.5760 C   0  0  0  0  0  3  0  0  0  0  0  0
  161.2340  203.9710  151.4620 C   0  0  0  0  0  0  0  0  0  0  0  0
  161.6420  205.5980  149.7080 C   0  0  0  0  0  3  0  0  0  0  0  0
  161.4510  203.1770  149.0660 C   0  0  0  0  0  0  0  0  0  0  0  0
  162.0150  208.3500  148.9450 C   0  0  0  0  0  3  0  0  0  0  0  0
  161.5930  206.6390  150.6500 C   0  0  0  0  0  0  0  0  0  0  0  0
  161.7720  207.9850  150.2810 C   0  0  0  0  0  0  0  0  0  0  0  0
  161.4610  208.6290  152.6100 C   0  0  0  0  0  0  0  0  0  0  0  0
  161.2930  201.5800  151.0430 C   0  0  0  0  0  3  0  0  0  0  0  0
  161.4650  204.2690  150.1050 C   0  0  0  0  0  0  0  0  0  0  0  0
  161.0970  202.5770  151.9020 C   0  0  0  0  0  3  0  0  0  0  0  0
  161.8860  210.3370  150.9080 C   0  0  0  0  0  3  0  0  0  0  0  0
  161.7080  208.9940  151.2730 C   0  0  0  0  0  0  0  0  0  0  0  0
  161.1780  205.0010  152.4040 C   0  0  0  0  0  3  0  0  0  0  0  0
  161.2980  207.3190  152.9350 N   0  0  0  0  0  0  0  0  0  0  0  0
  160.1430  203.2260  148.2920 C   0  0  0  0  0  2  0  0  0  0  0  0
  160.5550  202.0160  146.1210 C   0  0  0  0  0  0  0  0  0  0  0  0
  160.0240  202.0490  147.4450 N   0  0  0  0  0  2  0  0  0  0  0  0
  161.1490  203.0180  145.6420 O   0  0  0  0  0  0  0  0  0  0  0  0
  160.4040  200.7880  145.2990 C   0  0  0  0  0  1  0  0  0  0  0  0
  161.4150  209.6500  153.7060 C   0  0  0  0  0  2  0  0  0  0  0  0
  159.8040  211.3640  153.5530 C   0  0  2  0  0  3  0  0  0  0  0  0
  159.7970  212.4150  154.6710 C   0  0  0  0  0  2  0  0  0  0  0  0
  159.8620  209.8070  155.4770 C   0  0  1  0  0  3  0  0  0  0  0  0
  158.6420  210.5650  155.9900 C   0  0  0  0  0  2  0  0  0  0  0  0
  158.7920  212.0720  155.7750 C   0  0  0  0  0  2  0  0  0  0  0  0
  158.5320  211.4330  152.7270 C   0  0  0  0  0  1  0  0  0  0  0  0
  159.7020  208.3950  155.7860 N   0  0  0  0  0  1  0  0  0  0  0  0
  160.0320  209.9820  154.0230 N   0  0  0  0  0  0  0  0  0  0  0  0
  1 12  1  0  0  0  0
  2 17  2  0  0  0  0
  2 18  1  0  0  0  0
  3  8  2  0  0  0  0
  3  4  1  0  0  0  0
  4 15  2  0  0  0  0
  5 14  1  0  0  0  0
  5 17  1  0  0  0  0
  6 13  1  0  0  0  0
  6  9  2  0  0  0  0
  7  1  2  0  0  0  0
  7 13  1  0  0  0  0
  8 10  1  0  0  0  0
  9  2  1  0  0  0  0
 10  9  1  0  0  0  0
 10 16  2  0  0  0  0
 11 18  2  0  0  0  0
 11 24  1  0  0  0  0
 12 14  2  0  0  0  0
 13  5  2  0  0  0  0
 15 16  1  0  0  0  0
 16 11  1  0  0  0  0
 19  7  1  0  0  0  0
 20 21  1  0  0  0  0
 21 19  1  0  0  0  0
 22 20  2  0  0  0  0
 23 20  1  0  0  0  0
 24 32  1  0  0  0  0
 25 30  1  1  0  0  0
 25 32  1  0  0  0  0
 25 26  1  0  0  0  0
 26 29  1  0  0  0  0
 27 31  1  6  0  0  0
 27 28  1  0  0  0  0
 29 28  1  0  0  0  0
 32 27  1  0  0  0  0
M  END
>  <MODEL>
2

>  <REMARK>
 VINA RESULT:      -7.9      1.981      2.689
  Name = 
  4 active torsions:
  status: ('A' for Active; 'I' for Inactive)
    1  A    between atoms: N_10  and  C_24
    2  A    between atoms: C_12  and  C_24
    3  A    between atoms: C_16  and  C_27
    4  A    between atoms: C_27  and  N_32
                            x       y       z     vdW  Elec       q    Type
                         _______ _______ _______ _____ _____    ______ ____

>  <TORSDO>
F 4

$$$$
=
 OpenBabel11062410483D

 32 36  0  0  1  0  0  0  0  0999 V2000
  161.7180  202.2950  149.9260 N   0  0  0  0  0  0  0  0  0  0  0  0
  161.2500  206.8190  152.1340 C   0  0  0  0  0  0  0  0  0  0  0  0
  162.3040  210.1140  148.7180 C   0  0  0  0  0  3  0  0  0  0  0  0
  162.1610  211.1250  149.6670 C   0  0  0  0  0  3  0  0  0  0  0  0
  161.1910  204.4480  151.6350 C   0  0  0  0  0  0  0  0  0  0  0  0
  161.7110  206.0410  149.8790 C   0  0  0  0  0  3  0  0  0  0  0  0
  161.5880  203.6040  149.2800 C   0  0  0  0  0  0  0  0  0  0  0  0
  162.1150  208.7790  149.0830 C   0  0  0  0  0  3  0  0  0  0  0  0
  161.5850  207.1010  150.7910 C   0  0  0  0  0  0  0  0  0  0  0  0
  161.7780  208.4400  150.4050 C   0  0  0  0  0  0  0  0  0  0  0  0
  161.2940  209.1320  152.6910 C   0  0  0  0  0  0  0  0  0  0  0  0
  161.3020  202.0490  151.2760 C   0  0  0  0  0  3  0  0  0  0  0  0
  161.5170  204.7190  150.2920 C   0  0  0  0  0  0  0  0  0  0  0  0
  161.0350  203.0630  152.0960 C   0  0  0  0  0  3  0  0  0  0  0  0
  161.8260  210.8070  150.9860 C   0  0  0  0  0  3  0  0  0  0  0  0
  161.6340  209.4700  151.3680 C   0  0  0  0  0  0  0  0  0  0  0  0
  161.0580  205.4980  152.5470 C   0  0  0  0  0  3  0  0  0  0  0  0
  161.1190  207.8280  153.0330 N   0  0  0  0  0  0  0  0  0  0  0  0
  160.3390  203.6220  148.4120 C   0  0  0  0  0  2  0  0  0  0  0  0
  160.9580  204.7030  146.2230 C   0  0  0  0  0  0  0  0  0  0  0  0
  160.7100  203.5380  147.0080 N   0  0  0  0  0  2  0  0  0  0  0  0
  160.8620  205.8520  146.7300 O   0  0  0  0  0  0  0  0  0  0  0  0
  161.3330  204.5590  144.7920 C   0  0  0  0  0  1  0  0  0  0  0  0
  161.1600  210.1760  153.7570 C   0  0  0  0  0  2  0  0  0  0  0  0
  159.4510  211.7770  153.4890 C   0  0  2  0  0  3  0  0  0  0  0  0
  159.3520  212.8770  154.5540 C   0  0  0  0  0  2  0  0  0  0  0  0
  159.5590  210.3190  155.4860 C   0  0  1  0  0  3  0  0  0  0  0  0
  158.2830  211.0230  155.9380 C   0  0  0  0  0  2  0  0  0  0  0  0
  158.3460  212.5240  155.6520 C   0  0  0  0  0  2  0  0  0  0  0  0
  158.1960  211.7270  152.6340 C   0  0  0  0  0  1  0  0  0  0  0  0
  159.4790  208.9160  155.8610 N   0  0  0  0  0  1  0  0  0  0  0  0
  159.7520  210.4350  154.0300 N   0  0  0  0  0  0  0  0  0  0  0  0
  1 12  1  0  0  0  0
  2 17  2  0  0  0  0
  2 18  1  0  0  0  0
  3  8  2  0  0  0  0
  3  4  1  0  0  0  0
  4 15  2  0  0  0  0
  5 14  1  0  0  0  0
  5 17  1  0  0  0  0
  6 13  1  0  0  0  0
  6  9  2  0  0  0  0
  7  1  2  0  0  0  0
  7 13  1  0  0  0  0
  8 10  1  0  0  0  0
  9  2  1  0  0  0  0
 10  9  1  0  0  0  0
 10 16  2  0  0  0  0
 11 18  2  0  0  0  0
 11 24  1  0  0  0  0
 12 14  2  0  0  0  0
 13  5  2  0  0  0  0
 15 16  1  0  0  0  0
 16 11  1  0  0  0  0
 19  7  1  0  0  0  0
 20 22  2  0  0  0  0
 20 21  1  0  0  0  0
 21 19  1  0  0  0  0
 23 20  1  0  0  0  0
 24 32  1  0  0  0  0
 25 30  1  1  0  0  0
 25 32  1  0  0  0  0
 25 26  1  0  0  0  0
 26 29  1  0  0  0  0
 27 31  1  6  0  0  0
 27 28  1  0  0  0  0
 29 28  1  0  0  0  0
 32 27  1  0  0  0  0
M  END
>  <MODEL>
3

>  <REMARK>
 VINA RESULT:      -7.3      1.956      2.620
  Name = 
  4 active torsions:
  status: ('A' for Active; 'I' for Inactive)
    1  A    between atoms: N_10  and  C_24
    2  A    between atoms: C_12  and  C_24
    3  A    between atoms: C_16  and  C_27
    4  A    between atoms: C_27  and  N_32
                            x       y       z     vdW  Elec       q    Type
                         _______ _______ _______ _____ _____    ______ ____

>  <TORSDO>
F 4

$$$$
=
 OpenBabel11062410483D

 32 36  0  0  1  0  0  0  0  0999 V2000
  161.5440  213.9800  148.9960 N   0  0  0  0  0  0  0  0  0  0  0  0
  161.9730  209.0680  150.1150 C   0  0  0  0  0  0  0  0  0  0  0  0
  160.4950  208.5890  154.7220 C   0  0  0  0  0  3  0  0  0  0  0  0
  160.8240  207.2350  154.6730 C   0  0  0  0  0  3  0  0  0  0  0  0
  161.8850  211.2020  148.9700 C   0  0  0  0  0  0  0  0  0  0  0  0
  161.1180  211.0300  151.2660 C   0  0  0  0  0  3  0  0  0  0  0  0
  160.9260  213.2510  150.1080 C   0  0  0  0  0  0  0  0  0  0  0  0
  160.6940  209.3990  153.6010 C   0  0  0  0  0  3  0  0  0  0  0  0
  161.4350  209.6610  151.2780 C   0  0  0  0  0  0  0  0  0  0  0  0
  161.2260  208.8610  152.4160 C   0  0  0  0  0  0  0  0  0  0  0  0
  162.0900  206.9450  151.1830 C   0  0  0  0  0  0  0  0  0  0  0  0
  162.0170  213.3310  147.8090 C   0  0  0  0  0  3  0  0  0  0  0  0
  161.3400  211.8020  150.1210 C   0  0  0  0  0  0  0  0  0  0  0  0
  162.1720  212.0090  147.7770 C   0  0  0  0  0  3  0  0  0  0  0  0
  161.3540  206.6840  153.5040 C   0  0  0  0  0  3  0  0  0  0  0  0
  161.5600  207.4840  152.3700 C   0  0  0  0  0  0  0  0  0  0  0  0
  162.1970  209.8400  148.9720 C   0  0  0  0  0  3  0  0  0  0  0  0
  162.2850  207.7470  150.1020 N   0  0  0  0  0  0  0  0  0  0  0  0
  159.4120  213.3490  150.0030 C   0  0  0  0  0  2  0  0  0  0  0  0
  158.3090  213.5730  152.2560 C   0  0  0  0  0  0  0  0  0  0  0  0
  158.8900  214.1590  151.0930 N   0  0  0  0  0  2  0  0  0  0  0  0
  158.2290  212.3210  152.3740 O   0  0  0  0  0  0  0  0  0  0  0  0
  157.7910  214.4480  153.3400 C   0  0  0  0  0  1  0  0  0  0  0  0
  162.4920  205.5050  151.0880 C   0  0  0  0  0  2  0  0  0  0  0  0
  161.3990  203.5650  151.8630 C   0  0  2  0  0  3  0  0  0  0  0  0
  161.8460  202.2260  151.2630 C   0  0  0  0  0  2  0  0  0  0  0  0
  161.3290  204.2270  149.4790 C   0  0  1  0  0  3  0  0  0  0  0  0
  160.4530  202.9960  149.2730 C   0  0  0  0  0  2  0  0  0  0  0  0
  160.9690  201.8050  150.0810 C   0  0  0  0  0  2  0  0  0  0  0  0
  160.0810  203.4210  152.6040 C   0  0  0  0  0  1  0  0  0  0  0  0
  160.8450  205.2970  148.6220 N   0  0  0  0  0  1  0  0  0  0  0  0
  161.3150  204.6690  150.8850 N   0  0  0  0  0  0  0  0  0  0  0  0
  1  7  1  0  0  0  0
  2  9  1  0  0  0  0
  4  3  1  0  0  0  0
  5 17  1  0  0  0  0
  5 13  1  0  0  0  0
  6  9  2  0  0  0  0
  7 13  2  0  0  0  0
  8  3  2  0  0  0  0
  9 10  1  0  0  0  0
 10  8  1  0  0  0  0
 11 16  1  0  0  0  0
 12  1  2  0  0  0  0
 13  6  1  0  0  0  0
 14 12  1  0  0  0  0
 14  5  2  0  0  0  0
 15  4  2  0  0  0  0
 16 10  2  0  0  0  0
 16 15  1  0  0  0  0
 17  2  2  0  0  0  0
 18  2  1  0  0  0  0
 18 11  2  0  0  0  0
 19  7  1  0  0  0  0
 19 21  1  0  0  0  0
 20 22  2  0  0  0  0
 20 23  1  0  0  0  0
 21 20  1  0  0  0  0
 24 11  1  0  0  0  0
 25 30  1  6  0  0  0
 26 25  1  0  0  0  0
 27 31  1  6  0  0  0
 27 32  1  0  0  0  0
 28 27  1  0  0  0  0
 28 29  1  0  0  0  0
 29 26  1  0  0  0  0
 32 24  1  0  0  0  0
 32 25  1  0  0  0  0
M  END
>  <MODEL>
4

>  <REMARK>
 VINA RESULT:      -7.3      3.230      7.837
  Name = 
  4 active torsions:
  status: ('A' for Active; 'I' for Inactive)
    1  A    between atoms: N_10  and  C_24
    2  A    between atoms: C_12  and  C_24
    3  A    between atoms: C_16  and  C_27
    4  A    between atoms: C_27  and  N_32
                            x       y       z     vdW  Elec       q    Type
                         _______ _______ _______ _____ _____    ______ ____

>  <TORSDO>
F 4

$$$$
=
 OpenBabel11062410483D

 32 36  0  0  1  0  0  0  0  0999 V2000
  160.6060  203.1640  145.9070 N   0  0  0  0  0  0  0  0  0  0  0  0
  161.7360  207.4780  148.2880 C   0  0  0  0  0  0  0  0  0  0  0  0
  160.8350  206.7050  153.0020 C   0  0  0  0  0  3  0  0  0  0  0  0
  161.1580  208.0350  153.2690 C   0  0  0  0  0  3  0  0  0  0  0  0
  161.4900  205.7150  146.6440 C   0  0  0  0  0  0  0  0  0  0  0  0
  161.0370  205.2570  148.9830 C   0  0  0  0  0  3  0  0  0  0  0  0
  160.8400  203.3680  147.3390 C   0  0  0  0  0  0  0  0  0  0  0  0
  160.8960  206.2180  151.6940 C   0  0  0  0  0  3  0  0  0  0  0  0
  161.3450  206.5880  149.3120 C   0  0  0  0  0  0  0  0  0  0  0  0
  161.2800  207.0600  150.6360 C   0  0  0  0  0  0  0  0  0  0  0  0
  161.9940  209.2540  149.8510 C   0  0  0  0  0  0  0  0  0  0  0  0
  161.0820  204.0710  144.9040 C   0  0  0  0  0  3  0  0  0  0  0  0
  161.1060  204.8170  147.6580 C   0  0  0  0  0  0  0  0  0  0  0  0
  161.5180  205.2820  145.2400 C   0  0  0  0  0  3  0  0  0  0  0  0
  161.5420  208.8850  152.2300 C   0  0  0  0  0  3  0  0  0  0  0  0
  161.6060  208.4110  150.9100 C   0  0  0  0  0  0  0  0  0  0  0  0
  161.8030  207.0380  146.9630 C   0  0  0  0  0  3  0  0  0  0  0  0
  162.0420  208.7680  148.5820 N   0  0  0  0  0  0  0  0  0  0  0  0
  162.0210  202.5210  147.7880 C   0  0  0  0  0  2  0  0  0  0  0  0
  161.0420  201.4640  149.8530 C   0  0  0  0  0  0  0  0  0  0  0  0
  161.5470  201.3600  148.5240 N   0  0  0  0  0  2  0  0  0  0  0  0
  160.9910  202.5800  150.4360 O   0  0  0  0  0  0  0  0  0  0  0  0
  160.5710  200.2440  150.5590 C   0  0  0  0  0  1  0  0  0  0  0  0
  162.3180  210.6990  150.0770 C   0  0  0  0  0  2  0  0  0  0  0  0
  161.8400  212.0610  148.2130 C   0  0  2  0  0  3  0  0  0  0  0  0
  162.3040  213.5220  148.2800 C   0  0  0  0  0  2  0  0  0  0  0  0
  160.9580  212.5890  150.4650 C   0  0  1  0  0  3  0  0  0  0  0  0
  160.2750  213.7810  149.8010 C   0  0  0  0  0  2  0  0  0  0  0  0
  161.1980  214.4530  148.7830 C   0  0  0  0  0  2  0  0  0  0  0  0
  160.8440  211.8530  147.0850 C   0  0  0  0  0  1  0  0  0  0  0  0
  160.0710  212.0460  151.4810 N   0  0  0  0  0  1  0  0  0  0  0  0
  161.2890  211.5420  149.4810 N   0  0  0  0  0  0  0  0  0  0  0  0
  1  7  1  0  0  0  0
  2 18  1  0  0  0  0
  2  9  1  0  0  0  0
  3  4  1  0  0  0  0
  5 17  1  0  0  0  0
  5 13  1  0  0  0  0
  6  9  2  0  0  0  0
  7 13  2  0  0  0  0
  7 19  1  0  0  0  0
  8  3  2  0  0  0  0
  9 10  1  0  0  0  0
 10 16  2  0  0  0  0
 10  8  1  0  0  0  0
 11 24  1  0  0  0  0
 11 16  1  0  0  0  0
 12 14  1  0  0  0  0
 12  1  2  0  0  0  0
 13  6  1  0  0  0  0
 14  5  2  0  0  0  0
 15  4  2  0  0  0  0
 16 15  1  0  0  0  0
 17  2  2  0  0  0  0
 18 11  2  0  0  0  0
 19 21  1  0  0  0  0
 20 22  2  0  0  0  0
 20 23  1  0  0  0  0
 21 20  1  0  0  0  0
 25 30  1  6  0  0  0
 25 26  1  0  0  0  0
 25 32  1  0  0  0  0
 26 29  1  0  0  0  0
 27 31  1  1  0  0  0
 28 27  1  0  0  0  0
 29 28  1  0  0  0  0
 32 24  1  0  0  0  0
 32 27  1  0  0  0  0
M  END
>  <MODEL>
5

>  <REMARK>
 VINA RESULT:      -7.0      2.456      5.451
  Name = 
  4 active torsions:
  status: ('A' for Active; 'I' for Inactive)
    1  A    between atoms: N_10  and  C_24
    2  A    between atoms: C_12  and  C_24
    3  A    between atoms: C_16  and  C_27
    4  A    between atoms: C_27  and  N_32
                            x       y       z     vdW  Elec       q    Type
                         _______ _______ _______ _____ _____    ______ ____

>  <TORSDO>
F 4

$$$$
=
 OpenBabel11062410483D

 32 36  0  0  1  0  0  0  0  0999 V2000
  159.7080  208.5520  156.3950 N   0  0  0  0  0  0  0  0  0  0  0  0
  161.4840  207.5050  151.7790 C   0  0  0  0  0  0  0  0  0  0  0  0
  161.6940  211.7450  149.4100 C   0  0  0  0  0  3  0  0  0  0  0  0
  162.1070  211.0690  148.2620 C   0  0  0  0  0  3  0  0  0  0  0  0
  160.8100  207.3830  154.1040 C   0  0  0  0  0  0  0  0  0  0  0  0
  160.9070  209.5340  152.9850 C   0  0  0  0  0  3  0  0  0  0  0  0
  160.2780  209.4830  155.4170 C   0  0  0  0  0  0  0  0  0  0  0  0
  161.4330  211.0360  150.5840 C   0  0  0  0  0  3  0  0  0  0  0  0
  161.3200  208.9080  151.7970 C   0  0  0  0  0  0  0  0  0  0  0  0
  161.5810  209.6390  150.6240 C   0  0  0  0  0  0  0  0  0  0  0  0
  162.1500  207.5550  149.4950 C   0  0  0  0  0  0  0  0  0  0  0  0
  159.9610  207.1410  156.3660 C   0  0  0  0  0  3  0  0  0  0  0  0
  160.6510  208.7820  154.1350 C   0  0  0  0  0  0  0  0  0  0  0  0
  160.4960  206.5730  155.2880 C   0  0  0  0  0  3  0  0  0  0  0  0
  162.2600  209.6800  148.2830 C   0  0  0  0  0  3  0  0  0  0  0  0
  161.9990  208.9540  149.4550 C   0  0  0  0  0  0  0  0  0  0  0  0
  161.2260  206.7530  152.9280 C   0  0  0  0  0  3  0  0  0  0  0  0
  161.8860  206.8780  150.6440 N   0  0  0  0  0  0  0  0  0  0  0  0
  161.5080  210.1540  156.0080 C   0  0  0  0  0  2  0  0  0  0  0  0
  160.4560  212.4240  156.3030 C   0  0  0  0  0  0  0  0  0  0  0  0
  161.1070  211.2760  156.8430 N   0  0  0  0  0  2  0  0  0  0  0  0
  160.2060  212.5000  155.0700 O   0  0  0  0  0  0  0  0  0  0  0  0
  160.0680  213.5410  157.2020 C   0  0  0  0  0  1  0  0  0  0  0  0
  162.5580  206.7760  148.2820 C   0  0  0  0  0  2  0  0  0  0  0  0
  161.9310  204.5040  148.2440 C   0  0  2  0  0  3  0  0  0  0  0  0
  162.4130  203.6680  147.0510 C   0  0  0  0  0  2  0  0  0  0  0  0
  161.2550  206.0660  146.4460 C   0  0  1  0  0  3  0  0  0  0  0  0
  160.5290  204.8740  145.8300 C   0  0  0  0  0  2  0  0  0  0  0  0
  161.3640  203.5980  145.9380 C   0  0  0  0  0  2  0  0  0  0  0  0
  160.8380  203.7820  149.0120 C   0  0  0  0  0  1  0  0  0  0  0  0
  160.4560  207.2620  146.2370 N   0  0  0  0  0  1  0  0  0  0  0  0
  161.4880  205.8670  147.8880 N   0  0  0  0  0  0  0  0  0  0  0  0
  2  9  2  0  0  0  0
  2 17  1  0  0  0  0
  3  8  1  0  0  0  0
  4 15  1  0  0  0  0
  4  3  2  0  0  0  0
  5 13  1  0  0  0  0
  5 14  1  0  0  0  0
  6 13  2  0  0  0  0
  7 19  1  0  0  0  0
  7  1  2  0  0  0  0
  8 10  2  0  0  0  0
  9  6  1  0  0  0  0
 10  9  1  0  0  0  0
 11 18  2  0  0  0  0
 12  1  1  0  0  0  0
 13  7  1  0  0  0  0
 14 12  2  0  0  0  0
 15 16  2  0  0  0  0
 16 11  1  0  0  0  0
 16 10  1  0  0  0  0
 17  5  2  0  0  0  0
 18  2  1  0  0  0  0
 19 21  1  0  0  0  0
 20 21  1  0  0  0  0
 20 23  1  0  0  0  0
 22 20  2  0  0  0  0
 24 11  1  0  0  0  0
 25 30  1  6  0  0  0
 26 25  1  0  0  0  0
 27 31  1  1  0  0  0
 27 32  1  0  0  0  0
 28 29  1  0  0  0  0
 28 27  1  0  0  0  0
 29 26  1  0  0  0  0
 32 25  1  0  0  0  0
 32 24  1  0  0  0  0
M  END
>  <MODEL>
6

>  <REMARK>
 VINA RESULT:      -6.9      2.692      8.207
  Name = 
  4 active torsions:
  status: ('A' for Active; 'I' for Inactive)
    1  A    between atoms: N_10  and  C_24
    2  A    between atoms: C_12  and  C_24
    3  A    between atoms: C_16  and  C_27
    4  A    between atoms: C_27  and  N_32
                            x       y       z     vdW  Elec       q    Type
                         _______ _______ _______ _____ _____    ______ ____

>  <TORSDO>
F 4

$$$$
=
 OpenBabel11062410483D

 32 36  0  0  1  0  0  0  0  0999 V2000
  161.4510  209.7380  155.5330 N   0  0  0  0  0  0  0  0  0  0  0  0
  161.9490  207.3130  151.1250 C   0  0  0  0  0  0  0  0  0  0  0  0
  160.4830  202.7460  151.9130 C   0  0  0  0  0  3  0  0  0  0  0  0
  160.8310  202.4210  150.6020 C   0  0  0  0  0  3  0  0  0  0  0  0
  161.8300  209.0010  152.8600 C   0  0  0  0  0  0  0  0  0  0  0  0
  161.0680  206.7420  153.3160 C   0  0  0  0  0  3  0  0  0  0  0  0
  160.8440  208.4650  155.1310 C   0  0  0  0  0  0  0  0  0  0  0  0
  160.6690  204.0460  152.3850 C   0  0  0  0  0  3  0  0  0  0  0  0
  161.4040  206.3550  152.0080 C   0  0  0  0  0  0  0  0  0  0  0  0
  161.2070  205.0400  151.5490 C   0  0  0  0  0  0  0  0  0  0  0  0
  162.0960  205.7030  149.3790 C   0  0  0  0  0  0  0  0  0  0  0  0
  161.9310  210.7030  154.5890 C   0  0  0  0  0  3  0  0  0  0  0  0
  161.2780  208.0560  153.7470 C   0  0  0  0  0  0  0  0  0  0  0  0
  162.1040  210.3710  153.3120 C   0  0  0  0  0  3  0  0  0  0  0  0
  161.3660  203.3960  149.7570 C   0  0  0  0  0  3  0  0  0  0  0  0
  161.5600  204.7070  150.2180 C   0  0  0  0  0  0  0  0  0  0  0  0
  162.1610  208.6250  151.5560 C   0  0  0  0  0  3  0  0  0  0  0  0
  162.2780  206.9640  149.8550 N   0  0  0  0  0  0  0  0  0  0  0  0
  159.3290  208.5860  155.1770 C   0  0  0  0  0  2  0  0  0  0  0  0
  158.3860  210.8780  155.6220 C   0  0  0  0  0  0  0  0  0  0  0  0
  158.9430  209.6510  156.0890 N   0  0  0  0  0  2  0  0  0  0  0  0
  158.2110  211.0770  154.3910 O   0  0  0  0  0  0  0  0  0  0  0  0
  158.0100  211.9340  156.5990 C   0  0  0  0  0  1  0  0  0  0  0  0
  162.5180  205.4000  147.9740 C   0  0  0  0  0  2  0  0  0  0  0  0
  161.8050  203.9060  146.2950 C   0  0  2  0  0  3  0  0  0  0  0  0
  162.0430  204.3280  144.8390 C   0  0  0  0  0  2  0  0  0  0  0  0
  160.8940  206.2020  146.4590 C   0  0  1  0  0  3  0  0  0  0  0  0
  160.0270  205.8290  145.2610 C   0  0  0  0  0  2  0  0  0  0  0  0
  160.8180  205.0180  144.2340 C   0  0  0  0  0  2  0  0  0  0  0  0
  160.8320  202.7430  146.3760 C   0  0  0  0  0  1  0  0  0  0  0  0
  160.1180  207.0430  147.3560 N   0  0  0  0  0  1  0  0  0  0  0  0
  161.3610  205.0040  147.1790 N   0  0  0  0  0  0  0  0  0  0  0  0
  2 17  2  0  0  0  0
  2  9  1  0  0  0  0
  3  8  1  0  0  0  0
  4  3  2  0  0  0  0
  5 14  2  0  0  0  0
  5 13  1  0  0  0  0
  6 13  1  0  0  0  0
  7 19  1  0  0  0  0
  7  1  1  0  0  0  0
  9  6  2  0  0  0  0
 10  9  1  0  0  0  0
 10  8  2  0  0  0  0
 11 18  2  0  0  0  0
 11 16  1  0  0  0  0
 12  1  2  0  0  0  0
 13  7  2  0  0  0  0
 14 12  1  0  0  0  0
 15 16  2  0  0  0  0
 15  4  1  0  0  0  0
 16 10  1  0  0  0  0
 17  5  1  0  0  0  0
 18  2  1  0  0  0  0
 19 21  1  0  0  0  0
 20 21  1  0  0  0  0
 20 23  1  0  0  0  0
 22 20  2  0  0  0  0
 24 11  1  0  0  0  0
 25 30  1  6  0  0  0
 25 32  1  0  0  0  0
 26 25  1  0  0  0  0
 27 32  1  0  0  0  0
 27 31  1  1  0  0  0
 28 27  1  0  0  0  0
 29 26  1  0  0  0  0
 29 28  1  0  0  0  0
 32 24  1  0  0  0  0
M  END
>  <MODEL>
7

>  <REMARK>
 VINA RESULT:      -6.9      2.628      8.730
  Name = 
  4 active torsions:
  status: ('A' for Active; 'I' for Inactive)
    1  A    between atoms: N_10  and  C_24
    2  A    between atoms: C_12  and  C_24
    3  A    between atoms: C_16  and  C_27
    4  A    between atoms: C_27  and  N_32
                            x       y       z     vdW  Elec       q    Type
                         _______ _______ _______ _____ _____    ______ ____

>  <TORSDO>
F 4

$$$$
=
 OpenBabel11062410483D

 32 36  0  0  1  0  0  0  0  0999 V2000
  162.2690  205.2880  151.6600 N   0  0  0  0  0  0  0  0  0  0  0  0
  160.3660  209.7670  153.0280 C   0  0  0  0  0  0  0  0  0  0  0  0
  161.0440  212.7450  149.2450 C   0  0  0  0  0  3  0  0  0  0  0  0
  160.5150  213.7960  149.9930 C   0  0  0  0  0  3  0  0  0  0  0  0
  160.9770  207.4250  152.9240 C   0  0  0  0  0  0  0  0  0  0  0  0
  161.3300  208.8530  150.9930 C   0  0  0  0  0  3  0  0  0  0  0  0
  161.9090  206.4160  150.7950 C   0  0  0  0  0  0  0  0  0  0  0  0
  161.1440  211.4680  149.8030 C   0  0  0  0  0  3  0  0  0  0  0  0
  160.8110  209.9510  151.7000 C   0  0  0  0  0  0  0  0  0  0  0  0
  160.7160  211.2290  151.1200 C   0  0  0  0  0  0  0  0  0  0  0  0
  159.7480  212.0590  153.1970 C   0  0  0  0  0  0  0  0  0  0  0  0
  161.7370  205.1190  152.9800 C   0  0  0  0  0  3  0  0  0  0  0  0
  161.4160  207.5940  151.5960 C   0  0  0  0  0  0  0  0  0  0  0  0
  161.1080  206.1220  153.5880 C   0  0  0  0  0  3  0  0  0  0  0  0
  160.0840  213.5760  151.3040 C   0  0  0  0  0  3  0  0  0  0  0  0
  160.1800  212.2990  151.8790 C   0  0  0  0  0  0  0  0  0  0  0  0
  160.4550  208.5100  153.6310 C   0  0  0  0  0  3  0  0  0  0  0  0
  159.8580  210.8130  153.7300 N   0  0  0  0  0  0  0  0  0  0  0  0
  160.8350  205.9820  149.8100 C   0  0  0  0  0  2  0  0  0  0  0  0
  161.6650  205.7140  147.4480 C   0  0  0  0  0  0  0  0  0  0  0  0
  161.4280  205.1830  148.7500 N   0  0  0  0  0  2  0  0  0  0  0  0
  161.3640  206.9060  147.1760 O   0  0  0  0  0  0  0  0  0  0  0  0
  162.2740  204.8520  146.4010 C   0  0  0  0  0  1  0  0  0  0  0  0
  159.2040  213.1590  154.0560 C   0  0  0  0  0  2  0  0  0  0  0  0
  156.9440  212.6840  154.5280 C   0  0  2  0  0  3  0  0  0  0  0  0
  156.0990  213.8240  155.1110 C   0  0  0  0  0  2  0  0  0  0  0  0
  158.5170  213.3930  156.3030 C   0  0  1  0  0  3  0  0  0  0  0  0
  157.3390  213.2420  157.2600 C   0  0  0  0  0  2  0  0  0  0  0  0
  156.0470  213.7770  156.6410 C   0  0  0  0  0  2  0  0  0  0  0  0
  156.2430  211.3450  154.6880 C   0  0  0  0  0  1  0  0  0  0  0  0
  159.7280  212.9520  156.9750 N   0  0  0  0  0  1  0  0  0  0  0  0
  158.3150  212.6080  155.0720 N   0  0  0  0  0  0  0  0  0  0  0  0
  1 12  1  0  0  0  0
  2 17  2  0  0  0  0
  2 18  1  0  0  0  0
  3  8  2  0  0  0  0
  3  4  1  0  0  0  0
  4 15  2  0  0  0  0
  5 14  1  0  0  0  0
  5 17  1  0  0  0  0
  6 13  1  0  0  0  0
  6  9  2  0  0  0  0
  7 13  1  0  0  0  0
  7  1  2  0  0  0  0
  8 10  1  0  0  0  0
  9  2  1  0  0  0  0
 10  9  1  0  0  0  0
 10 16  2  0  0  0  0
 11 18  2  0  0  0  0
 11 24  1  0  0  0  0
 12 14  2  0  0  0  0
 13  5  2  0  0  0  0
 15 16  1  0  0  0  0
 16 11  1  0  0  0  0
 19  7  1  0  0  0  0
 20 21  1  0  0  0  0
 21 19  1  0  0  0  0
 22 20  2  0  0  0  0
 23 20  1  0  0  0  0
 24 32  1  0  0  0  0
 25 30  1  1  0  0  0
 25 32  1  0  0  0  0
 25 26  1  0  0  0  0
 26 29  1  0  0  0  0
 27 31  1  1  0  0  0
 27 28  1  0  0  0  0
 29 28  1  0  0  0  0
 32 27  1  0  0  0  0
M  END
>  <MODEL>
8

>  <REMARK>
 VINA RESULT:      -6.6      3.403      4.679
  Name = 
  4 active torsions:
  status: ('A' for Active; 'I' for Inactive)
    1  A    between atoms: N_10  and  C_24
    2  A    between atoms: C_12  and  C_24
    3  A    between atoms: C_16  and  C_27
    4  A    between atoms: C_27  and  N_32
                            x       y       z     vdW  Elec       q    Type
                         _______ _______ _______ _____ _____    ______ ____

>  <TORSDO>
F 4

$$$$
=
 OpenBabel11062410483D

 32 36  0  0  1  0  0  0  0  0999 V2000
  160.7990  205.9960  148.4070 N   0  0  0  0  0  0  0  0  0  0  0  0
  161.2750  209.1280  152.3460 C   0  0  0  0  0  0  0  0  0  0  0  0
  159.9070  206.5990  156.2670 C   0  0  0  0  0  3  0  0  0  0  0  0
  160.0820  207.7410  157.0490 C   0  0  0  0  0  3  0  0  0  0  0  0
  161.3710  208.1100  150.1500 C   0  0  0  0  0  0  0  0  0  0  0  0
  160.6930  206.7860  152.0670 C   0  0  0  0  0  3  0  0  0  0  0  0
  160.8500  205.6510  149.8310 C   0  0  0  0  0  0  0  0  0  0  0  0
  160.1590  206.6460  154.8940 C   0  0  0  0  0  3  0  0  0  0  0  0
  160.8460  207.9030  152.9040 C   0  0  0  0  0  0  0  0  0  0  0  0
  160.5890  207.8380  154.2860 C   0  0  0  0  0  0  0  0  0  0  0  0
  161.1980  210.1900  154.4750 C   0  0  0  0  0  0  0  0  0  0  0  0
  161.3080  207.2310  147.8870 C   0  0  0  0  0  3  0  0  0  0  0  0
  160.9520  206.8810  150.6970 C   0  0  0  0  0  0  0  0  0  0  0  0
  161.5970  208.2400  148.7050 C   0  0  0  0  0  3  0  0  0  0  0  0
  160.5090  208.9340  156.4610 C   0  0  0  0  0  3  0  0  0  0  0  0
  160.7650  208.9960  155.0830 C   0  0  0  0  0  0  0  0  0  0  0  0
  161.5310  209.2240  150.9770 C   0  0  0  0  0  3  0  0  0  0  0  0
  161.4330  210.2210  153.1360 N   0  0  0  0  0  0  0  0  0  0  0  0
  162.0390  204.7410  150.0940 C   0  0  0  0  0  2  0  0  0  0  0  0
  161.1450  202.4820  149.4320 C   0  0  0  0  0  0  0  0  0  0  0  0
  161.5760  203.4050  150.4310 N   0  0  0  0  0  2  0  0  0  0  0  0
  161.1540  202.8030  148.2140 O   0  0  0  0  0  0  0  0  0  0  0  0
  160.6810  201.1280  149.8320 C   0  0  0  0  0  1  0  0  0  0  0  0
  161.3690  211.4530  155.2620 C   0  0  0  0  0  2  0  0  0  0  0  0
  159.1610  211.7350  154.4860 C   0  0  2  0  0  3  0  0  0  0  0  0
  158.8820  212.9630  153.6090 C   0  0  0  0  0  2  0  0  0  0  0  0
  160.2570  213.4290  155.9220 C   0  0  1  0  0  3  0  0  0  0  0  0
  158.9410  214.1960  155.8390 C   0  0  0  0  0  2  0  0  0  0  0  0
  158.3560  214.1460  154.4270 C   0  0  0  0  0  2  0  0  0  0  0  0
  157.8680  211.1090  154.9790 C   0  0  0  0  0  1  0  0  0  0  0  0
  160.8080  213.5840  157.2580 N   0  0  0  0  0  1  0  0  0  0  0  0
  160.0660  211.9980  155.6240 N   0  0  0  0  0  0  0  0  0  0  0  0
  1  7  1  0  0  0  0
  2  9  1  0  0  0  0
  2 18  1  0  0  0  0
  3  4  1  0  0  0  0
  5 13  1  0  0  0  0
  5 17  1  0  0  0  0
  6  9  2  0  0  0  0
  7 19  1  0  0  0  0
  7 13  2  0  0  0  0
  8  3  2  0  0  0  0
  9 10  1  0  0  0  0
 10  8  1  0  0  0  0
 10 16  2  0  0  0  0
 11 16  1  0  0  0  0
 11 24  1  0  0  0  0
 12  1  2  0  0  0  0
 12 14  1  0  0  0  0
 13  6  1  0  0  0  0
 14  5  2  0  0  0  0
 15  4  2  0  0  0  0
 16 15  1  0  0  0  0
 17  2  2  0  0  0  0
 18 11  2  0  0  0  0
 19 21  1  0  0  0  0
 20 23  1  0  0  0  0
 20 21  1  0  0  0  0
 22 20  2  0  0  0  0
 24 32  1  0  0  0  0
 25 30  1  1  0  0  0
 25 32  1  0  0  0  0
 26 29  1  0  0  0  0
 26 25  1  0  0  0  0
 27 31  1  1  0  0  0
 28 27  1  0  0  0  0
 29 28  1  0  0  0  0
 32 27  1  0  0  0  0
M  END
>  <MODEL>
9

>  <REMARK>
 VINA RESULT:      -6.5      2.601      5.253
  Name = 
  4 active torsions:
  status: ('A' for Active; 'I' for Inactive)
    1  A    between atoms: N_10  and  C_24
    2  A    between atoms: C_12  and  C_24
    3  A    between atoms: C_16  and  C_27
    4  A    between atoms: C_27  and  N_32
                            x       y       z     vdW  Elec       q    Type
                         _______ _______ _______ _____ _____    ______ ____

>  <TORSDO>
F 4

$$$$
