=
 OpenBabel11062409433D

 34 39  0  0  1  0  0  0  0  0999 V2000
  161.0050  204.8170  148.6810 C   0  0  0  0  0  0  0  0  0  0  0  0
  161.2750  203.9680  145.0720 C   0  0  0  0  0  3  0  0  0  0  0  0
  161.1660  202.5520  147.0270 C   0  0  0  0  0  3  0  0  0  0  0  0
  161.2960  204.5170  151.6040 C   0  0  0  0  0  2  0  0  0  0  0  0
  160.9480  206.0020  149.5990 C   0  0  0  0  0  2  0  0  0  0  0  0
  160.7410  203.3730  150.7360 C   0  0  2  0  0  3  0  0  0  0  0  0
  160.5980  200.9190  150.4080 C   0  0  0  0  0  2  0  0  0  0  0  0
  161.2070  202.0220  151.2630 C   0  0  0  0  0  2  0  0  0  0  0  0
  161.8320  205.7300  150.8170 C   0  0  1  0  0  3  0  0  0  0  0  0
  161.0510  202.3930  148.4100 C   0  0  0  0  0  0  0  0  0  0  0  0
  160.9750  203.5280  149.2450 C   0  0  0  0  0  0  0  0  0  0  0  0
  161.1380  201.0030  148.9810 C   0  0  0  0  0  2  0  0  0  0  0  0
  161.2880  205.2380  144.4910 C   0  0  0  0  0  0  0  0  0  0  0  0
  161.2090  206.3770  145.3050 C   0  0  0  0  0  3  0  0  0  0  0  0
  161.1770  203.8270  146.4580 C   0  0  0  0  0  0  0  0  0  0  0  0
  161.1160  206.2450  146.6930 C   0  0  0  0  0  3  0  0  0  0  0  0
  161.0970  204.9730  147.2850 C   0  0  0  0  0  0  0  0  0  0  0  0
  161.1880  206.8650  154.1800 C   0  0  0  0  0  3  0  0  0  0  0  0
  160.7000  207.8730  151.5570 C   0  0  0  0  0  2  0  0  0  0  0  0
  159.5190  209.9520  155.2130 C   0  0  2  0  0  3  0  0  0  0  0  0
  159.7420  208.4590  155.4070 C   0  0  0  0  0  2  0  0  0  0  0  0
  160.7690  208.1170  154.3970 C   0  0  0  0  0  0  0  0  0  0  0  0
  161.2850  209.2930  153.6420 C   0  0  1  0  0  3  0  0  0  0  0  0
  160.8860  209.2730  152.1570 C   0  0  0  0  0  2  0  0  0  0  0  0
  160.6470  210.4860  154.3310 C   0  0  0  0  0  2  0  0  0  0  0  0
  161.9420  206.9760  151.7030 C   0  0  1  0  0  3  0  0  0  0  0  0
  162.2610  206.5670  153.1630 C   0  0  0  0  0  2  0  0  0  0  0  0
  159.4960  210.6620  156.5250 C   0  0  0  0  0  0  0  0  0  0  0  0
  160.5160  210.6500  157.2600 O   0  0  0  0  0  1  0  0  0  0  0  0
  158.3530  211.3350  156.9400 O   0  0  0  0  0  0  0  0  0  0  0  0
  161.3790  205.3540  143.1050 O   0  0  0  0  0  0  0  0  0  0  0  0
  161.6210  206.5370  142.5230 O   0  0  0  0  0  0  0  0  0  0  0  0
  162.0070  207.4580  140.3720 C   0  0  0  0  0  1  0  0  0  0  0  0
  162.0410  206.2160  141.2340 C   0  0  0  0  0  2  0  0  0  0  0  0
  1 11  1  0  0  0  0
  1  5  1  0  0  0  0
  2 15  1  0  0  0  0
  3 10  1  0  0  0  0
  6  8  1  1  0  0  0
  6  4  1  0  0  0  0
  7  8  1  0  0  0  0
  9  5  1  6  0  0  0
  9  4  1  0  0  0  0
  9 26  1  0  0  0  0
 10 12  1  0  0  0  0
 10 11  2  0  0  0  0
 11  6  1  0  0  0  0
 12  7  1  0  0  0  0
 13  2  2  0  0  0  0
 13 14  1  0  0  0  0
 14 16  2  0  0  0  0
 15  3  2  0  0  0  0
 15 17  1  0  0  0  0
 16 17  1  0  0  0  0
 17  1  2  0  0  0  0
 18 22  2  0  0  0  0
 19 24  1  0  0  0  0
 20 21  1  0  0  0  0
 20 28  1  1  0  0  0
 22 21  1  0  0  0  0
 23 24  1  6  0  0  0
 23 25  1  0  0  0  0
 23 22  1  0  0  0  0
 25 20  1  0  0  0  0
 26 19  1  1  0  0  0
 26 27  1  0  0  0  0
 27 18  1  0  0  0  0
 28 30  2  0  0  0  0
 28 29  1  0  0  0  0
 31 13  1  0  0  0  0
 32 31  1  0  0  0  0
 33 34  1  0  0  0  0
 34 32  1  0  0  0  0
M  END
>  <MODEL>
1

>  <REMARK>
 VINA RESULT:     -10.4      0.000      0.000
  Name = 
  5 active torsions:
  status: ('A' for Active; 'I' for Inactive)
    1  A    between atoms: O_3  and  C_24
    2  A    between atoms: O_3  and  O_25
    3  A    between atoms: C_7  and  C_11
    4  A    between atoms: C_18  and  C_30
    5  A    between atoms: C_23  and  O_25
                            x       y       z     vdW  Elec       q    Type
                         _______ _______ _______ _____ _____    ______ ____

>  <TORSDO>
F 5

$$$$
=
 OpenBabel11062409433D

 34 39  0  0  1  0  0  0  0  0999 V2000
  161.4810  208.5780  152.0650 C   0  0  0  0  0  0  0  0  0  0  0  0
  160.8140  212.1220  151.1670 C   0  0  0  0  0  3  0  0  0  0  0  0
  160.3720  210.8960  153.2000 C   0  0  0  0  0  3  0  0  0  0  0  0
  161.1520  205.9790  153.4300 C   0  0  0  0  0  2  0  0  0  0  0  0
  162.0380  207.3120  151.4840 C   0  0  0  0  0  2  0  0  0  0  0  0
  161.1710  207.2990  154.2220 C   0  0  2  0  0  3  0  0  0  0  0  0
  160.2890  208.5420  156.1790 C   0  0  0  0  0  2  0  0  0  0  0  0
  160.2030  207.2390  155.3970 C   0  0  0  0  0  2  0  0  0  0  0  0
  161.1450  206.1400  151.8970 C   0  0  1  0  0  3  0  0  0  0  0  0
  160.4400  209.7210  153.9530 C   0  0  0  0  0  0  0  0  0  0  0  0
  160.9920  208.5530  153.3850 C   0  0  0  0  0  0  0  0  0  0  0  0
  159.8020  209.7040  155.3160 C   0  0  0  0  0  2  0  0  0  0  0  0
  161.3110  212.1730  149.8610 C   0  0  0  0  0  0  0  0  0  0  0  0
  161.8660  211.0230  149.2830 C   0  0  0  0  0  3  0  0  0  0  0  0
  160.8730  210.9340  151.8980 C   0  0  0  0  0  0  0  0  0  0  0  0
  161.9260  209.8290  150.0060 C   0  0  0  0  0  3  0  0  0  0  0  0
  161.4330  209.7700  151.3190 C   0  0  0  0  0  0  0  0  0  0  0  0
  161.4840  204.7060  148.6050 C   0  0  0  0  0  3  0  0  0  0  0  0
  160.4070  203.8490  151.1030 C   0  0  0  0  0  2  0  0  0  0  0  0
  160.3750  201.4060  147.4820 C   0  0  2  0  0  3  0  0  0  0  0  0
  160.5300  202.8960  147.2100 C   0  0  0  0  0  2  0  0  0  0  0  0
  161.2300  203.4080  148.4090 C   0  0  0  0  0  0  0  0  0  0  0  0
  161.6180  202.3450  149.3780 C   0  0  1  0  0  3  0  0  0  0  0  0
  160.8470  202.4350  150.7050 C   0  0  0  0  0  2  0  0  0  0  0  0
  161.2720  201.0490  148.6670 C   0  0  0  0  0  2  0  0  0  0  0  0
  161.5740  204.8490  151.1900 C   0  0  1  0  0  3  0  0  0  0  0  0
  162.2300  205.1800  149.8270 C   0  0  0  0  0  2  0  0  0  0  0  0
  160.7470  200.6050  146.2800 C   0  0  0  0  0  0  0  0  0  0  0  0
  161.5200  199.6190  146.4010 O   0  0  0  0  0  1  0  0  0  0  0  0
  160.2450  200.9390  145.0280 O   0  0  0  0  0  0  0  0  0  0  0  0
  161.2470  213.3710  149.1530 O   0  0  0  0  0  0  0  0  0  0  0  0
  162.2720  213.7820  148.3930 O   0  0  0  0  0  0  0  0  0  0  0  0
  162.2490  213.4530  146.0440 C   0  0  0  0  0  1  0  0  0  0  0  0
  161.6800  214.2260  147.2130 C   0  0  0  0  0  2  0  0  0  0  0  0
  1 11  1  0  0  0  0
  2 15  1  0  0  0  0
  3 10  1  0  0  0  0
  5  1  1  0  0  0  0
  6  4  1  6  0  0  0
  6  8  1  0  0  0  0
  8  7  1  0  0  0  0
  9  5  1  1  0  0  0
  9  4  1  0  0  0  0
 10 12  1  0  0  0  0
 11 10  2  0  0  0  0
 11  6  1  0  0  0  0
 12  7  1  0  0  0  0
 13  2  2  0  0  0  0
 14 13  1  0  0  0  0
 14 16  2  0  0  0  0
 15  3  2  0  0  0  0
 16 17  1  0  0  0  0
 17 15  1  0  0  0  0
 17  1  2  0  0  0  0
 18 27  1  0  0  0  0
 19 26  1  0  0  0  0
 20 28  1  6  0  0  0
 20 25  1  0  0  0  0
 21 20  1  0  0  0  0
 21 22  1  0  0  0  0
 22 18  2  0  0  0  0
 22 23  1  0  0  0  0
 23 25  1  6  0  0  0
 23 24  1  0  0  0  0
 24 19  1  0  0  0  0
 26 27  1  6  0  0  0
 26  9  1  0  0  0  0
 28 29  1  0  0  0  0
 30 28  2  0  0  0  0
 31 13  1  0  0  0  0
 32 31  1  0  0  0  0
 33 34  1  0  0  0  0
 34 32  1  0  0  0  0
M  END
>  <MODEL>
2

>  <REMARK>
 VINA RESULT:      -8.7      3.420      8.704
  Name = 
  5 active torsions:
  status: ('A' for Active; 'I' for Inactive)
    1  A    between atoms: O_3  and  C_24
    2  A    between atoms: O_3  and  O_25
    3  A    between atoms: C_7  and  C_11
    4  A    between atoms: C_18  and  C_30
    5  A    between atoms: C_23  and  O_25
                            x       y       z     vdW  Elec       q    Type
                         _______ _______ _______ _____ _____    ______ ____

>  <TORSDO>
F 5

$$$$
=
 OpenBabel11062409433D

 34 39  0  0  1  0  0  0  0  0999 V2000
  160.8080  209.2240  153.2860 C   0  0  0  0  0  0  0  0  0  0  0  0
  159.0600  212.4640  153.7990 C   0  0  0  0  0  3  0  0  0  0  0  0
  159.4770  210.6340  155.3190 C   0  0  0  0  0  3  0  0  0  0  0  0
  161.5070  206.3840  153.6900 C   0  0  0  0  0  2  0  0  0  0  0  0
  161.5000  208.4290  152.2190 C   0  0  0  0  0  2  0  0  0  0  0  0
  161.3930  207.3540  154.8800 C   0  0  2  0  0  3  0  0  0  0  0  0
  160.7540  207.6300  157.2610 C   0  0  0  0  0  2  0  0  0  0  0  0
  160.8040  206.6510  156.0960 C   0  0  0  0  0  2  0  0  0  0  0  0
  161.0680  206.9650  152.3320 C   0  0  1  0  0  3  0  0  0  0  0  0
  160.0290  209.3800  155.5930 C   0  0  0  0  0  0  0  0  0  0  0  0
  160.6940  208.6670  154.5730 C   0  0  0  0  0  0  0  0  0  0  0  0
  159.7850  208.7690  156.9460 C   0  0  0  0  0  2  0  0  0  0  0  0
  159.1780  213.0440  152.5330 C   0  0  0  0  0  0  0  0  0  0  0  0
  159.8400  212.3510  151.5100 C   0  0  0  0  0  3  0  0  0  0  0  0
  159.6020  211.2020  154.0510 C   0  0  0  0  0  0  0  0  0  0  0  0
  160.3820  211.0860  151.7510 C   0  0  0  0  0  3  0  0  0  0  0  0
  160.2710  210.4980  153.0210 C   0  0  0  0  0  0  0  0  0  0  0  0
  161.9060  207.2460  148.8350 C   0  0  0  0  0  3  0  0  0  0  0  0
  160.4880  205.3700  150.4500 C   0  0  0  0  0  2  0  0  0  0  0  0
  161.0210  204.9410  146.1350 C   0  0  2  0  0  3  0  0  0  0  0  0
  161.1920  206.3700  146.6300 C   0  0  0  0  0  2  0  0  0  0  0  0
  161.7020  206.2120  148.0110 C   0  0  0  0  0  0  0  0  0  0  0  0
  161.9590  204.7970  148.3980 C   0  0  1  0  0  3  0  0  0  0  0  0
  161.0010  204.2910  149.4880 C   0  0  0  0  0  2  0  0  0  0  0  0
  161.7400  204.0140  147.1160 C   0  0  0  0  0  2  0  0  0  0  0  0
  161.6140  206.1410  151.1600 C   0  0  1  0  0  3  0  0  0  0  0  0
  162.4580  207.0400  150.2230 C   0  0  0  0  0  2  0  0  0  0  0  0
  161.5760  204.7840  144.7600 C   0  0  0  0  0  0  0  0  0  0  0  0
  162.8190  204.6770  144.5950 O   0  0  0  0  0  1  0  0  0  0  0  0
  160.7290  204.7570  143.6580 O   0  0  0  0  0  0  0  0  0  0  0  0
  158.6350  214.3070  152.3070 O   0  0  0  0  0  0  0  0  0  0  0  0
  157.3720  214.4530  151.8850 O   0  0  0  0  0  0  0  0  0  0  0  0
  156.1190  214.0720  149.9070 C   0  0  0  0  0  1  0  0  0  0  0  0
  157.4620  214.4440  150.4940 C   0  0  0  0  0  2  0  0  0  0  0  0
  1 11  1  0  0  0  0
  2 15  1  0  0  0  0
  3 10  1  0  0  0  0
  5  1  1  0  0  0  0
  6  4  1  6  0  0  0
  6  8  1  0  0  0  0
  8  7  1  0  0  0  0
  9  5  1  6  0  0  0
  9  4  1  0  0  0  0
 10 12  1  0  0  0  0
 11  6  1  0  0  0  0
 11 10  2  0  0  0  0
 12  7  1  0  0  0  0
 13  2  2  0  0  0  0
 14 16  2  0  0  0  0
 14 13  1  0  0  0  0
 15  3  2  0  0  0  0
 16 17  1  0  0  0  0
 17  1  2  0  0  0  0
 17 15  1  0  0  0  0
 18 27  1  0  0  0  0
 19 26  1  0  0  0  0
 20 28  1  6  0  0  0
 20 21  1  0  0  0  0
 20 25  1  0  0  0  0
 21 22  1  0  0  0  0
 22 23  1  0  0  0  0
 22 18  2  0  0  0  0
 23 25  1  6  0  0  0
 23 24  1  0  0  0  0
 24 19  1  0  0  0  0
 26 27  1  6  0  0  0
 26  9  1  0  0  0  0
 29 28  1  0  0  0  0
 30 28  2  0  0  0  0
 31 13  1  0  0  0  0
 32 31  1  0  0  0  0
 33 34  1  0  0  0  0
 34 32  1  0  0  0  0
M  END
>  <MODEL>
3

>  <REMARK>
 VINA RESULT:      -8.3      2.607      9.381
  Name = 
  5 active torsions:
  status: ('A' for Active; 'I' for Inactive)
    1  A    between atoms: O_3  and  C_24
    2  A    between atoms: O_3  and  O_25
    3  A    between atoms: C_7  and  C_11
    4  A    between atoms: C_18  and  C_30
    5  A    between atoms: C_23  and  O_25
                            x       y       z     vdW  Elec       q    Type
                         _______ _______ _______ _____ _____    ______ ____

>  <TORSDO>
F 5

$$$$
=
 OpenBabel11062409433D

 34 39  0  0  1  0  0  0  0  0999 V2000
  161.1260  211.0520  151.4800 C   0  0  0  0  0  0  0  0  0  0  0  0
  160.4610  213.9630  149.2670 C   0  0  0  0  0  3  0  0  0  0  0  0
  159.7500  213.5000  151.5290 C   0  0  0  0  0  3  0  0  0  0  0  0
  160.6930  209.0870  153.6430 C   0  0  0  0  0  2  0  0  0  0  0  0
  161.8230  209.7240  151.4830 C   0  0  0  0  0  2  0  0  0  0  0  0
  160.5270  210.5970  153.8920 C   0  0  2  0  0  3  0  0  0  0  0  0
  159.2880  212.3590  155.1210 C   0  0  0  0  0  2  0  0  0  0  0  0
  159.3860  210.8620  154.8650 C   0  0  0  0  0  2  0  0  0  0  0  0
  160.9260  208.6930  152.1710 C   0  0  1  0  0  3  0  0  0  0  0  0
  159.7450  212.6810  152.6600 C   0  0  0  0  0  0  0  0  0  0  0  0
  160.4310  211.4480  152.6390 C   0  0  0  0  0  0  0  0  0  0  0  0
  158.8970  213.0860  153.8360 C   0  0  0  0  0  2  0  0  0  0  0  0
  161.1590  213.5970  148.1140 C   0  0  0  0  0  0  0  0  0  0  0  0
  161.8500  212.3770  148.0760 C   0  0  0  0  0  3  0  0  0  0  0  0
  160.4520  213.1230  150.3830 C   0  0  0  0  0  0  0  0  0  0  0  0
  161.8430  211.5290  149.1870 C   0  0  0  0  0  3  0  0  0  0  0  0
  161.1470  211.8910  150.3510 C   0  0  0  0  0  0  0  0  0  0  0  0
  161.2430  205.9580  149.8410 C   0  0  0  0  0  3  0  0  0  0  0  0
  160.5450  206.2230  152.5940 C   0  0  0  0  0  2  0  0  0  0  0  0
  160.6510  202.4040  150.4750 C   0  0  2  0  0  3  0  0  0  0  0  0
  160.5150  203.6070  149.5540 C   0  0  0  0  0  2  0  0  0  0  0  0
  161.2090  204.6940  150.2800 C   0  0  0  0  0  0  0  0  0  0  0  0
  161.8580  204.2530  151.5460 C   0  0  1  0  0  3  0  0  0  0  0  0
  161.1950  204.8490  152.7980 C   0  0  0  0  0  2  0  0  0  0  0  0
  161.6910  202.7440  151.5420 C   0  0  0  0  0  2  0  0  0  0  0  0
  161.5180  207.2840  152.0500 C   0  0  1  0  0  3  0  0  0  0  0  0
  161.9900  207.0270  150.5970 C   0  0  0  0  0  2  0  0  0  0  0  0
  161.0600  201.1910  149.7090 C   0  0  0  0  0  0  0  0  0  0  0  0
  161.0880  200.0710  150.2820 O   0  0  0  0  0  1  0  0  0  0  0  0
  161.4090  201.2900  148.3680 O   0  0  0  0  0  0  0  0  0  0  0  0
  161.1600  214.4530  147.0140 O   0  0  0  0  0  0  0  0  0  0  0  0
  160.4810  214.1500  145.8990 O   0  0  0  0  0  0  0  0  0  0  0  0
  161.7210  213.0060  144.2310 C   0  0  0  0  0  1  0  0  0  0  0  0
  161.3970  214.3400  144.8670 C   0  0  0  0  0  2  0  0  0  0  0  0
  1  5  1  0  0  0  0
  1 11  1  0  0  0  0
  2 15  1  0  0  0  0
  3 10  1  0  0  0  0
  6  4  1  6  0  0  0
  6  8  1  0  0  0  0
  8  7  1  0  0  0  0
  9  5  1  1  0  0  0
  9  4  1  0  0  0  0
 10 12  1  0  0  0  0
 11 10  2  0  0  0  0
 11  6  1  0  0  0  0
 12  7  1  0  0  0  0
 13  2  2  0  0  0  0
 14 13  1  0  0  0  0
 14 16  2  0  0  0  0
 15  3  2  0  0  0  0
 16 17  1  0  0  0  0
 17 15  1  0  0  0  0
 17  1  2  0  0  0  0
 18 22  2  0  0  0  0
 18 27  1  0  0  0  0
 19 24  1  0  0  0  0
 20 28  1  6  0  0  0
 20 25  1  0  0  0  0
 21 22  1  0  0  0  0
 21 20  1  0  0  0  0
 22 23  1  0  0  0  0
 23 25  1  1  0  0  0
 23 24  1  0  0  0  0
 26 27  1  6  0  0  0
 26  9  1  0  0  0  0
 26 19  1  0  0  0  0
 28 29  1  0  0  0  0
 30 28  2  0  0  0  0
 31 13  1  0  0  0  0
 32 31  1  0  0  0  0
 33 34  1  0  0  0  0
 34 32  1  0  0  0  0
M  END
>  <MODEL>
4

>  <REMARK>
 VINA RESULT:      -8.0      4.152      8.514
  Name = 
  5 active torsions:
  status: ('A' for Active; 'I' for Inactive)
    1  A    between atoms: O_3  and  C_24
    2  A    between atoms: O_3  and  O_25
    3  A    between atoms: C_7  and  C_11
    4  A    between atoms: C_18  and  C_30
    5  A    between atoms: C_23  and  O_25
                            x       y       z     vdW  Elec       q    Type
                         _______ _______ _______ _____ _____    ______ ____

>  <TORSDO>
F 5

$$$$
