=
 OpenBabel11052422073D

 25 28  0  0  1  0  0  0  0  0999 V2000
  161.4260  205.1860  148.3750 C   0  0  0  0  0  0  0  0  0  0  0  0
  161.4610  206.3740  149.1010 C   0  0  0  0  0  0  0  0  0  0  0  0
  160.9000  203.9330  150.3570 C   0  0  0  0  0  3  0  0  0  0  0  0
  161.7340  204.9080  146.9490 C   0  0  1  0  0  3  0  0  0  0  0  0
  162.0770  209.9480  148.5400 N   0  0  0  0  0  2  0  0  0  0  0  0
  160.6740  203.5170  144.6960 N   0  0  0  0  0  0  0  0  0  0  0  0
  160.9140  205.0960  151.0740 N   0  0  0  0  0  0  0  0  0  0  0  0
  161.4750  203.4260  146.9280 C   0  0  2  0  0  3  0  0  0  0  0  0
  161.1590  202.7780  145.6560 C   0  0  0  0  0  3  0  0  0  0  0  0
  161.2090  207.4900  151.2360 C   0  0  0  0  0  0  0  0  0  0  0  0
  160.9280  207.4890  152.7000 C   0  0  0  0  0  1  0  0  0  0  0  0
  162.1710  211.2580  149.1170 C   0  0  0  0  0  0  0  0  0  0  0  0
  161.7450  207.5650  148.5110 N   0  0  0  0  0  0  0  0  0  0  0  0
  160.3940  204.9240  144.8760 C   0  0  0  0  0  3  0  0  0  0  0  0
  161.1780  203.9890  148.9940 C   0  0  0  0  0  0  0  0  0  0  0  0
  161.1660  202.9080  148.0780 N   0  0  0  0  0  2  0  0  0  0  0  0
  161.5020  208.6990  150.6000 C   0  0  0  0  0  3  0  0  0  0  0  0
  160.8270  205.5900  145.9590 C   0  0  0  0  0  3  0  0  0  0  0  0
  161.7740  208.7250  149.2230 C   0  0  0  0  0  0  0  0  0  0  0  0
  161.1870  206.3050  150.4880 C   0  0  0  0  0  0  0  0  0  0  0  0
  162.0360  211.4300  150.3580 O   0  0  0  0  0  0  0  0  0  0  0  0
  162.0190  213.5910  148.8060 F   0  0  0  0  0  0  0  0  0  0  0  0
  162.5020  212.4250  148.2420 C   0  0  0  0  0  0  0  0  0  0  0  0
  161.9200  212.2450  147.0010 F   0  0  0  0  0  0  0  0  0  0  0  0
  163.8730  212.5340  148.0890 F   0  0  0  0  0  0  0  0  0  0  0  0
  1 15  2  0  0  0  0
  1  2  1  0  0  0  0
  2 20  2  0  0  0  0
  3  7  2  0  0  0  0
  4 18  1  6  0  0  0
  4  1  1  0  0  0  0
  5 12  1  0  0  0  0
  5 19  1  0  0  0  0
  6 14  1  0  0  0  0
  6  9  2  0  0  0  0
  8  9  1  6  0  0  0
  8  4  1  0  0  0  0
  8 16  1  0  0  0  0
 10 11  1  0  0  0  0
 12 21  2  0  0  0  0
 13  2  1  0  0  0  0
 13 19  2  0  0  0  0
 14 18  2  0  0  0  0
 15  3  1  0  0  0  0
 16 15  1  0  0  0  0
 17 10  2  0  0  0  0
 19 17  1  0  0  0  0
 20  7  1  0  0  0  0
 20 10  1  0  0  0  0
 23 22  1  0  0  0  0
 23 12  1  0  0  0  0
 24 23  1  0  0  0  0
 25 23  1  0  0  0  0
M  END
>  <MODEL>
1

>  <REMARK>
 VINA RESULT:      -9.8      0.000      0.000
  Name = 
  1 active torsions:
  status: ('A' for Active; 'I' for Inactive)
    1  A    between atoms: C_7  and  C_15
                            x       y       z     vdW  Elec       q    Type
                         _______ _______ _______ _____ _____    ______ ____

>  <TORSDO>
F 1

$$$$
=
 OpenBabel11052422073D

 25 28  0  0  1  0  0  0  0  0999 V2000
  161.0160  206.6450  151.9080 C   0  0  0  0  0  0  0  0  0  0  0  0
  161.0620  205.7060  150.8800 C   0  0  0  0  0  0  0  0  0  0  0  0
  160.9920  204.9020  153.5630 C   0  0  0  0  0  3  0  0  0  0  0  0
  160.9050  208.1260  151.8700 C   0  0  1  0  0  3  0  0  0  0  0  0
  161.1550  205.6170  147.2120 N   0  0  0  0  0  2  0  0  0  0  0  0
  162.0730  210.4530  153.0310 N   0  0  0  0  0  0  0  0  0  0  0  0
  161.0550  203.9750  152.5610 N   0  0  0  0  0  0  0  0  0  0  0  0
  160.9120  208.4080  153.3480 C   0  0  2  0  0  3  0  0  0  0  0  0
  161.3200  209.7330  153.8150 C   0  0  0  0  0  3  0  0  0  0  0  0
  161.1430  203.3780  150.2210 C   0  0  0  0  0  0  0  0  0  0  0  0
  161.1750  201.9200  150.5290 C   0  0  0  0  0  1  0  0  0  0  0  0
  161.1880  204.8060  146.0290 C   0  0  0  0  0  0  0  0  0  0  0  0
  161.0830  206.0780  149.5730 N   0  0  0  0  0  0  0  0  0  0  0  0
  162.5510  209.9620  151.7590 C   0  0  0  0  0  3  0  0  0  0  0  0
  160.9550  206.2510  153.2190 C   0  0  0  0  0  0  0  0  0  0  0  0
  160.9360  207.3550  154.1070 N   0  0  0  0  0  2  0  0  0  0  0  0
  161.1650  203.7910  148.8860 C   0  0  0  0  0  3  0  0  0  0  0  0
  162.0640  208.8320  151.2180 C   0  0  0  0  0  3  0  0  0  0  0  0
  161.1320  205.1580  148.5710 C   0  0  0  0  0  0  0  0  0  0  0  0
  161.0890  204.3380  151.2390 C   0  0  0  0  0  0  0  0  0  0  0  0
  161.1430  203.5490  146.1040 O   0  0  0  0  0  0  0  0  0  0  0  0
  160.8460  204.5580  143.7090 F   0  0  0  0  0  0  0  0  0  0  0  0
  161.2060  205.4660  144.6870 C   0  0  0  0  0  0  0  0  0  0  0  0
  162.4790  205.9350  144.4250 F   0  0  0  0  0  0  0  0  0  0  0  0
  160.3170  206.5260  144.6640 F   0  0  0  0  0  0  0  0  0  0  0  0
  1 15  1  0  0  0  0
  2 20  1  0  0  0  0
  2  1  2  0  0  0  0
  4 18  1  6  0  0  0
  4  1  1  0  0  0  0
  4  8  1  0  0  0  0
  5 19  1  0  0  0  0
  6  9  2  0  0  0  0
  7  3  1  0  0  0  0
  8  9  1  6  0  0  0
  8 16  1  0  0  0  0
 10 11  1  0  0  0  0
 10 20  1  0  0  0  0
 12 21  2  0  0  0  0
 12  5  1  0  0  0  0
 13  2  1  0  0  0  0
 14  6  1  0  0  0  0
 15  3  2  0  0  0  0
 15 16  1  0  0  0  0
 17 10  2  0  0  0  0
 18 14  2  0  0  0  0
 19 17  1  0  0  0  0
 19 13  2  0  0  0  0
 20  7  2  0  0  0  0
 22 23  1  0  0  0  0
 23 12  1  0  0  0  0
 24 23  1  0  0  0  0
 25 23  1  0  0  0  0
M  END
>  <MODEL>
2

>  <REMARK>
 VINA RESULT:      -9.7      3.691      6.639
  Name = 
  1 active torsions:
  status: ('A' for Active; 'I' for Inactive)
    1  A    between atoms: C_7  and  C_15
                            x       y       z     vdW  Elec       q    Type
                         _______ _______ _______ _____ _____    ______ ____

>  <TORSDO>
F 1

$$$$
=
 OpenBabel11052422073D

 25 28  0  0  1  0  0  0  0  0999 V2000
  161.0860  205.1660  149.8050 C   0  0  0  0  0  0  0  0  0  0  0  0
  161.2090  206.2820  150.6300 C   0  0  0  0  0  0  0  0  0  0  0  0
  161.8490  206.4270  147.9060 C   0  0  0  0  0  3  0  0  0  0  0  0
  160.5580  203.8050  150.0800 C   0  0  1  0  0  3  0  0  0  0  0  0
  160.6630  207.2050  154.1400 N   0  0  0  0  0  2  0  0  0  0  0  0
  161.2150  201.0620  149.6610 N   0  0  0  0  0  0  0  0  0  0  0  0
  161.9890  207.5210  148.7120 N   0  0  0  0  0  0  0  0  0  0  0  0
  160.7510  203.1900  148.7200 C   0  0  2  0  0  3  0  0  0  0  0  0
  160.8470  201.7350  148.6070 C   0  0  0  0  0  3  0  0  0  0  0  0
  161.8200  208.6130  150.8620 C   0  0  0  0  0  0  0  0  0  0  0  0
  162.3140  209.9080  150.3140 C   0  0  0  0  0  1  0  0  0  0  0  0
  160.7100  208.2390  155.1330 C   0  0  0  0  0  0  0  0  0  0  0  0
  160.8890  206.2330  151.9500 N   0  0  0  0  0  0  0  0  0  0  0  0
  161.5760  201.7110  150.9010 C   0  0  0  0  0  3  0  0  0  0  0  0
  161.3740  205.2450  148.4680 C   0  0  0  0  0  0  0  0  0  0  0  0
  161.2050  203.9990  147.8120 N   0  0  0  0  0  2  0  0  0  0  0  0
  161.4860  208.5320  152.2160 C   0  0  0  0  0  3  0  0  0  0  0  0
  161.3360  203.0180  151.1010 C   0  0  0  0  0  3  0  0  0  0  0  0
  161.0140  207.3240  152.7540 C   0  0  0  0  0  0  0  0  0  0  0  0
  161.6820  207.4810  150.0480 C   0  0  0  0  0  0  0  0  0  0  0  0
  161.0340  209.4180  154.8260 O   0  0  0  0  0  0  0  0  0  0  0  0
  161.3930  207.4860  157.2610 F   0  0  0  0  0  0  0  0  0  0  0  0
  160.3010  207.9280  156.5370 C   0  0  0  0  0  0  0  0  0  0  0  0
  159.3350  206.9400  156.5240 F   0  0  0  0  0  0  0  0  0  0  0  0
  159.7870  209.0590  157.1470 F   0  0  0  0  0  0  0  0  0  0  0  0
  1  4  1  0  0  0  0
  1  2  1  0  0  0  0
  2 13  1  0  0  0  0
  3 15  1  0  0  0  0
  3  7  2  0  0  0  0
  4 18  1  1  0  0  0
  5 12  1  0  0  0  0
  6 14  1  0  0  0  0
  7 20  1  0  0  0  0
  8  9  1  1  0  0  0
  8  4  1  0  0  0  0
  9  6  2  0  0  0  0
 10 17  2  0  0  0  0
 11 10  1  0  0  0  0
 12 23  1  0  0  0  0
 13 19  2  0  0  0  0
 14 18  2  0  0  0  0
 15  1  2  0  0  0  0
 16 15  1  0  0  0  0
 16  8  1  0  0  0  0
 17 19  1  0  0  0  0
 19  5  1  0  0  0  0
 20  2  2  0  0  0  0
 20 10  1  0  0  0  0
 21 12  2  0  0  0  0
 23 25  1  0  0  0  0
 23 22  1  0  0  0  0
 24 23  1  0  0  0  0
M  END
>  <MODEL>
3

>  <REMARK>
 VINA RESULT:      -9.5      4.118      5.563
  Name = 
  1 active torsions:
  status: ('A' for Active; 'I' for Inactive)
    1  A    between atoms: C_7  and  C_15
                            x       y       z     vdW  Elec       q    Type
                         _______ _______ _______ _____ _____    ______ ____

>  <TORSDO>
F 1

$$$$
=
 OpenBabel11052422073D

 25 28  0  0  1  0  0  0  0  0999 V2000
  161.3740  204.3410  148.0450 C   0  0  0  0  0  0  0  0  0  0  0  0
  161.2630  204.7350  149.3760 C   0  0  0  0  0  0  0  0  0  0  0  0
  160.9780  202.0460  148.6400 C   0  0  0  0  0  3  0  0  0  0  0  0
  161.7270  205.1160  146.8270 C   0  0  1  0  0  3  0  0  0  0  0  0
  161.4640  207.8000  151.3850 N   0  0  0  0  0  2  0  0  0  0  0  0
  160.8580  205.5110  144.1390 N   0  0  0  0  0  0  0  0  0  0  0  0
  160.8490  202.4270  149.9450 N   0  0  0  0  0  0  0  0  0  0  0  0
  161.6420  204.0140  145.8050 C   0  0  2  0  0  3  0  0  0  0  0  0
  161.4170  204.3630  144.4030 C   0  0  0  0  0  3  0  0  0  0  0  0
  160.8610  204.1100  151.6800 C   0  0  0  0  0  0  0  0  0  0  0  0
  160.5690  203.1060  152.7430 C   0  0  0  0  0  1  0  0  0  0  0  0
  161.3990  208.3880  152.6920 C   0  0  0  0  0  0  0  0  0  0  0  0
  161.4120  206.0320  149.7530 N   0  0  0  0  0  0  0  0  0  0  0  0
  160.4150  206.4080  145.1830 C   0  0  0  0  0  3  0  0  0  0  0  0
  161.2610  203.0230  147.6880 C   0  0  0  0  0  0  0  0  0  0  0  0
  161.3850  202.8370  146.2880 N   0  0  0  0  0  2  0  0  0  0  0  0
  161.0180  205.4510  152.0370 C   0  0  0  0  0  3  0  0  0  0  0  0
  160.7560  206.2090  146.4680 C   0  0  0  0  0  3  0  0  0  0  0  0
  161.2980  206.4140  151.0540 C   0  0  0  0  0  0  0  0  0  0  0  0
  160.9850  203.7340  150.3360 C   0  0  0  0  0  0  0  0  0  0  0  0
  161.2320  207.6730  153.7160 O   0  0  0  0  0  0  0  0  0  0  0  0
  160.4560  210.5370  152.4610 F   0  0  0  0  0  0  0  0  0  0  0  0
  161.5990  209.8620  152.8450 C   0  0  0  0  0  0  0  0  0  0  0  0
  162.6540  210.2650  152.0480 F   0  0  0  0  0  0  0  0  0  0  0  0
  161.8820  210.1710  154.1640 F   0  0  0  0  0  0  0  0  0  0  0  0
  1  2  1  0  0  0  0
  2 13  1  0  0  0  0
  2 20  2  0  0  0  0
  3  7  2  0  0  0  0
  4 18  1  6  0  0  0
  4  1  1  0  0  0  0
  5 12  1  0  0  0  0
  6  9  2  0  0  0  0
  6 14  1  0  0  0  0
  7 20  1  0  0  0  0
  8  9  1  6  0  0  0
  8 16  1  0  0  0  0
  8  4  1  0  0  0  0
 10 17  2  0  0  0  0
 10 11  1  0  0  0  0
 12 23  1  0  0  0  0
 12 21  2  0  0  0  0
 13 19  2  0  0  0  0
 14 18  2  0  0  0  0
 15  1  2  0  0  0  0
 15  3  1  0  0  0  0
 16 15  1  0  0  0  0
 19  5  1  0  0  0  0
 19 17  1  0  0  0  0
 20 10  1  0  0  0  0
 22 23  1  0  0  0  0
 23 25  1  0  0  0  0
 24 23  1  0  0  0  0
M  END
>  <MODEL>
4

>  <REMARK>
 VINA RESULT:      -9.5      2.807      3.417
  Name = 
  1 active torsions:
  status: ('A' for Active; 'I' for Inactive)
    1  A    between atoms: C_7  and  C_15
                            x       y       z     vdW  Elec       q    Type
                         _______ _______ _______ _____ _____    ______ ____

>  <TORSDO>
F 1

$$$$
=
 OpenBabel11052422073D

 25 28  0  0  1  0  0  0  0  0999 V2000
  161.3990  208.0340  153.1960 C   0  0  0  0  0  0  0  0  0  0  0  0
  161.3550  207.3770  151.9680 C   0  0  0  0  0  0  0  0  0  0  0  0
  161.7430  210.1490  152.1060 C   0  0  0  0  0  3  0  0  0  0  0  0
  161.3580  207.5070  154.5840 C   0  0  1  0  0  3  0  0  0  0  0  0
  160.9460  203.9720  150.6610 N   0  0  0  0  0  2  0  0  0  0  0  0
  160.0720  207.9820  157.0840 N   0  0  0  0  0  0  0  0  0  0  0  0
  161.6840  209.5150  150.8980 N   0  0  0  0  0  0  0  0  0  0  0  0
  161.4550  208.8040  155.3400 C   0  0  2  0  0  3  0  0  0  0  0  0
  160.9600  208.8620  156.7150 C   0  0  0  0  0  3  0  0  0  0  0  0
  161.4480  207.5200  149.5530 C   0  0  0  0  0  0  0  0  0  0  0  0
  161.5890  208.2840  148.2810 C   0  0  0  0  0  1  0  0  0  0  0  0
  160.8890  203.1270  149.5030 C   0  0  0  0  0  0  0  0  0  0  0  0
  161.1810  206.0320  151.8830 N   0  0  0  0  0  0  0  0  0  0  0  0
  159.5340  207.0010  156.1680 C   0  0  0  0  0  3  0  0  0  0  0  0
  161.6150  209.3850  153.2630 C   0  0  0  0  0  0  0  0  0  0  0  0
  161.6030  209.8600  154.5990 N   0  0  0  0  0  2  0  0  0  0  0  0
  161.2670  206.1360  149.4970 C   0  0  0  0  0  3  0  0  0  0  0  0
  160.0810  206.8010  154.9570 C   0  0  0  0  0  3  0  0  0  0  0  0
  161.1350  205.3940  150.6820 C   0  0  0  0  0  0  0  0  0  0  0  0
  161.4970  208.1600  150.7980 C   0  0  0  0  0  0  0  0  0  0  0  0
  161.0650  203.5980  148.3480 O   0  0  0  0  0  0  0  0  0  0  0  0
  159.3640  201.3290  149.4400 F   0  0  0  0  0  0  0  0  0  0  0  0
  160.6860  201.6550  149.6770 C   0  0  0  0  0  0  0  0  0  0  0  0
  161.0180  201.2980  150.9700 F   0  0  0  0  0  0  0  0  0  0  0  0
  161.4870  200.9550  148.7930 F   0  0  0  0  0  0  0  0  0  0  0  0
  1 15  1  0  0  0  0
  1  4  1  0  0  0  0
  2  1  2  0  0  0  0
  3 15  2  0  0  0  0
  4 18  1  6  0  0  0
  4  8  1  0  0  0  0
  5 19  1  0  0  0  0
  7  3  1  0  0  0  0
  8  9  1  6  0  0  0
  9  6  2  0  0  0  0
 10 20  1  0  0  0  0
 11 10  1  0  0  0  0
 12 23  1  0  0  0  0
 12  5  1  0  0  0  0
 13  2  1  0  0  0  0
 14  6  1  0  0  0  0
 15 16  1  0  0  0  0
 16  8  1  0  0  0  0
 17 10  2  0  0  0  0
 17 19  1  0  0  0  0
 18 14  2  0  0  0  0
 19 13  2  0  0  0  0
 20  7  2  0  0  0  0
 20  2  1  0  0  0  0
 21 12  2  0  0  0  0
 22 23  1  0  0  0  0
 23 24  1  0  0  0  0
 25 23  1  0  0  0  0
M  END
>  <MODEL>
5

>  <REMARK>
 VINA RESULT:      -9.3      5.130      8.365
  Name = 
  1 active torsions:
  status: ('A' for Active; 'I' for Inactive)
    1  A    between atoms: C_7  and  C_15
                            x       y       z     vdW  Elec       q    Type
                         _______ _______ _______ _____ _____    ______ ____

>  <TORSDO>
F 1

$$$$
=
 OpenBabel11052422073D

 25 28  0  0  1  0  0  0  0  0999 V2000
  161.0880  205.0750  149.5110 C   0  0  0  0  0  0  0  0  0  0  0  0
  161.2340  206.3580  150.0340 C   0  0  0  0  0  0  0  0  0  0  0  0
  161.8000  205.8260  147.3410 C   0  0  0  0  0  3  0  0  0  0  0  0
  160.5680  203.8260  150.1250 C   0  0  1  0  0  3  0  0  0  0  0  0
  160.7840  208.1170  153.2230 N   0  0  0  0  0  2  0  0  0  0  0  0
  161.2110  201.0600  150.3750 N   0  0  0  0  0  0  0  0  0  0  0  0
  161.9620  207.0830  147.8510 N   0  0  0  0  0  0  0  0  0  0  0  0
  160.7230  202.8950  148.9530 C   0  0  2  0  0  3  0  0  0  0  0  0
  160.8150  201.4570  149.1980 C   0  0  0  0  0  3  0  0  0  0  0  0
  161.8520  208.6700  149.6710 C   0  0  0  0  0  0  0  0  0  0  0  0
  162.3320  209.7880  148.8090 C   0  0  0  0  0  1  0  0  0  0  0  0
  160.8580  209.3630  153.9310 C   0  0  0  0  0  0  0  0  0  0  0  0
  160.9510  206.6370  151.3340 N   0  0  0  0  0  0  0  0  0  0  0  0
  161.6060  201.9900  151.4080 C   0  0  0  0  0  3  0  0  0  0  0  0
  161.3400  204.8210  148.1880 C   0  0  0  0  0  0  0  0  0  0  0  0
  161.1530  203.4540  147.8630 N   0  0  0  0  0  2  0  0  0  0  0  0
  161.5550  208.9260  151.0120 C   0  0  0  0  0  3  0  0  0  0  0  0
  161.3730  203.3090  151.2880 C   0  0  0  0  0  3  0  0  0  0  0  0
  161.0970  207.8900  151.8420 C   0  0  0  0  0  0  0  0  0  0  0  0
  161.6920  207.3740  149.1630 C   0  0  0  0  0  0  0  0  0  0  0  0
  161.1750  210.4280  153.3360 O   0  0  0  0  0  0  0  0  0  0  0  0
  159.9160  208.2080  155.7590 F   0  0  0  0  0  0  0  0  0  0  0  0
  160.4880  209.4080  155.3790 C   0  0  0  0  0  0  0  0  0  0  0  0
  159.5820  210.4300  155.5870 F   0  0  0  0  0  0  0  0  0  0  0  0
  161.6130  209.6330  156.1530 F   0  0  0  0  0  0  0  0  0  0  0  0
  1  2  1  0  0  0  0
  1  4  1  0  0  0  0
  2 13  1  0  0  0  0
  3  7  2  0  0  0  0
  3 15  1  0  0  0  0
  4 18  1  1  0  0  0
  5 12  1  0  0  0  0
  6 14  1  0  0  0  0
  7 20  1  0  0  0  0
  8  9  1  1  0  0  0
  8  4  1  0  0  0  0
  9  6  2  0  0  0  0
 10 17  2  0  0  0  0
 11 10  1  0  0  0  0
 12 23  1  0  0  0  0
 13 19  2  0  0  0  0
 15  1  2  0  0  0  0
 16 15  1  0  0  0  0
 16  8  1  0  0  0  0
 17 19  1  0  0  0  0
 18 14  2  0  0  0  0
 19  5  1  0  0  0  0
 20 10  1  0  0  0  0
 20  2  2  0  0  0  0
 21 12  2  0  0  0  0
 23 24  1  0  0  0  0
 23 22  1  0  0  0  0
 23 25  1  0  0  0  0
M  END
>  <MODEL>
6

>  <REMARK>
 VINA RESULT:      -9.3      3.448      4.942
  Name = 
  1 active torsions:
  status: ('A' for Active; 'I' for Inactive)
    1  A    between atoms: C_7  and  C_15
                            x       y       z     vdW  Elec       q    Type
                         _______ _______ _______ _____ _____    ______ ____

>  <TORSDO>
F 1

$$$$
=
 OpenBabel11052422073D

 25 28  0  0  1  0  0  0  0  0999 V2000
  161.7860  208.1250  150.5630 C   0  0  0  0  0  0  0  0  0  0  0  0
  161.5660  207.0900  149.6570 C   0  0  0  0  0  0  0  0  0  0  0  0
  161.8590  209.7350  148.7790 C   0  0  0  0  0  3  0  0  0  0  0  0
  161.9990  208.1030  152.0330 C   0  0  1  0  0  3  0  0  0  0  0  0
  161.0830  203.4520  149.6710 N   0  0  0  0  0  2  0  0  0  0  0  0
  161.1270  209.4260  154.4040 N   0  0  0  0  0  0  0  0  0  0  0  0
  161.6250  208.7280  147.8860 N   0  0  0  0  0  0  0  0  0  0  0  0
  162.1670  209.5790  152.2760 C   0  0  2  0  0  3  0  0  0  0  0  0
  161.9050  210.1110  153.6130 C   0  0  0  0  0  3  0  0  0  0  0  0
  161.2500  206.4000  147.3570 C   0  0  0  0  0  0  0  0  0  0  0  0
  161.1470  206.6820  145.8980 C   0  0  0  0  0  1  0  0  0  0  0  0
  160.8690  202.2640  148.8960 C   0  0  0  0  0  0  0  0  0  0  0  0
  161.4350  205.8000  150.0630 N   0  0  0  0  0  0  0  0  0  0  0  0
  160.4850  208.2030  153.9800 C   0  0  0  0  0  3  0  0  0  0  0  0
  161.9560  209.4140  150.1310 C   0  0  0  0  0  0  0  0  0  0  0  0
  162.1470  210.3160  151.2080 N   0  0  0  0  0  2  0  0  0  0  0  0
  161.1180  205.0830  147.8060 C   0  0  0  0  0  3  0  0  0  0  0  0
  160.8310  207.5920  152.8340 C   0  0  0  0  0  3  0  0  0  0  0  0
  161.2160  204.7920  149.1760 C   0  0  0  0  0  0  0  0  0  0  0  0
  161.4790  207.4250  148.2850 C   0  0  0  0  0  0  0  0  0  0  0  0
  160.8310  202.3100  147.6370 O   0  0  0  0  0  0  0  0  0  0  0  0
  161.5080  200.9560  150.7510 F   0  0  0  0  0  0  0  0  0  0  0  0
  160.7570  200.9440  149.5900 C   0  0  0  0  0  0  0  0  0  0  0  0
  161.2260  199.9480  148.7550 F   0  0  0  0  0  0  0  0  0  0  0  0
  159.4360  200.6840  149.9120 F   0  0  0  0  0  0  0  0  0  0  0  0
  1  4  1  0  0  0  0
  2 13  1  0  0  0  0
  2  1  2  0  0  0  0
  3 15  2  0  0  0  0
  4  8  1  0  0  0  0
  4 18  1  1  0  0  0
  7 20  2  0  0  0  0
  7  3  1  0  0  0  0
  8  9  1  1  0  0  0
  9  6  2  0  0  0  0
 10 17  2  0  0  0  0
 10 20  1  0  0  0  0
 11 10  1  0  0  0  0
 12 23  1  0  0  0  0
 12  5  1  0  0  0  0
 14  6  1  0  0  0  0
 15  1  1  0  0  0  0
 15 16  1  0  0  0  0
 16  8  1  0  0  0  0
 17 19  1  0  0  0  0
 18 14  2  0  0  0  0
 19  5  1  0  0  0  0
 19 13  2  0  0  0  0
 20  2  1  0  0  0  0
 21 12  2  0  0  0  0
 23 25  1  0  0  0  0
 23 22  1  0  0  0  0
 24 23  1  0  0  0  0
M  END
>  <MODEL>
7

>  <REMARK>
 VINA RESULT:      -8.1      4.979      8.042
  Name = 
  1 active torsions:
  status: ('A' for Active; 'I' for Inactive)
    1  A    between atoms: C_7  and  C_15
                            x       y       z     vdW  Elec       q    Type
                         _______ _______ _______ _____ _____    ______ ____

>  <TORSDO>
F 1

$$$$
=
 OpenBabel11052422073D

 25 28  0  0  1  0  0  0  0  0999 V2000
  161.1890  204.2160  147.7180 C   0  0  0  0  0  0  0  0  0  0  0  0
  161.3710  205.3110  148.5600 C   0  0  0  0  0  0  0  0  0  0  0  0
  161.8660  205.5080  145.8080 C   0  0  0  0  0  3  0  0  0  0  0  0
  160.6570  202.8560  147.9930 C   0  0  1  0  0  3  0  0  0  0  0  0
  161.0270  206.1640  152.1120 N   0  0  0  0  0  2  0  0  0  0  0  0
  161.2520  200.1140  147.4810 N   0  0  0  0  0  0  0  0  0  0  0  0
  162.0640  206.5820  146.6290 N   0  0  0  0  0  0  0  0  0  0  0  0
  160.7680  202.2680  146.6110 C   0  0  2  0  0  3  0  0  0  0  0  0
  160.8380  200.8150  146.4620 C   0  0  0  0  0  3  0  0  0  0  0  0
  162.0260  207.6290  148.8070 C   0  0  0  0  0  0  0  0  0  0  0  0
  162.5090  208.9290  148.2610 C   0  0  0  0  0  1  0  0  0  0  0  0
  161.1420  207.1750  153.1230 C   0  0  0  0  0  0  0  0  0  0  0  0
  161.1220  205.2380  149.8930 N   0  0  0  0  0  0  0  0  0  0  0  0
  161.6880  200.7310  148.7130 C   0  0  0  0  0  3  0  0  0  0  0  0
  161.4060  204.3200  146.3700 C   0  0  0  0  0  0  0  0  0  0  0  0
  161.1840  203.0910  145.6980 N   0  0  0  0  0  2  0  0  0  0  0  0
  161.7640  207.5220  150.1750 C   0  0  0  0  0  3  0  0  0  0  0  0
  161.4780  202.0370  148.9540 C   0  0  0  0  0  3  0  0  0  0  0  0
  161.3050  206.3090  150.7130 C   0  0  0  0  0  0  0  0  0  0  0  0
  161.8290  206.5170  147.9780 C   0  0  0  0  0  0  0  0  0  0  0  0
  161.4660  208.3560  152.8240 O   0  0  0  0  0  0  0  0  0  0  0  0
  159.5430  207.3110  154.8520 F   0  0  0  0  0  0  0  0  0  0  0  0
  160.8050  206.8380  154.5410 C   0  0  0  0  0  0  0  0  0  0  0  0
  161.7310  207.4250  155.3820 F   0  0  0  0  0  0  0  0  0  0  0  0
  160.8290  205.4670  154.7240 F   0  0  0  0  0  0  0  0  0  0  0  0
  1  4  1  0  0  0  0
  1  2  1  0  0  0  0
  2 13  1  0  0  0  0
  3 15  1  0  0  0  0
  3  7  2  0  0  0  0
  4 18  1  1  0  0  0
  5 12  1  0  0  0  0
  6 14  1  0  0  0  0
  7 20  1  0  0  0  0
  8  9  1  1  0  0  0
  8  4  1  0  0  0  0
  9  6  2  0  0  0  0
 10 17  2  0  0  0  0
 11 10  1  0  0  0  0
 12 23  1  0  0  0  0
 13 19  2  0  0  0  0
 14 18  2  0  0  0  0
 15  1  2  0  0  0  0
 16 15  1  0  0  0  0
 16  8  1  0  0  0  0
 17 19  1  0  0  0  0
 19  5  1  0  0  0  0
 20  2  2  0  0  0  0
 20 10  1  0  0  0  0
 21 12  2  0  0  0  0
 23 25  1  0  0  0  0
 23 22  1  0  0  0  0
 23 24  1  0  0  0  0
M  END
>  <MODEL>
8

>  <REMARK>
 VINA RESULT:      -8.0      3.691      5.049
  Name = 
  1 active torsions:
  status: ('A' for Active; 'I' for Inactive)
    1  A    between atoms: C_7  and  C_15
                            x       y       z     vdW  Elec       q    Type
                         _______ _______ _______ _____ _____    ______ ____

>  <TORSDO>
F 1

$$$$
=
 OpenBabel11052422073D

 25 28  0  0  1  0  0  0  0  0999 V2000
  161.4160  207.1360  151.9780 C   0  0  0  0  0  0  0  0  0  0  0  0
  161.3380  208.5130  151.7850 C   0  0  0  0  0  0  0  0  0  0  0  0
  160.7280  207.3700  154.2690 C   0  0  0  0  0  3  0  0  0  0  0  0
  161.8790  206.0500  151.0750 C   0  0  1  0  0  3  0  0  0  0  0  0
  161.8960  210.9720  149.1190 N   0  0  0  0  0  2  0  0  0  0  0  0
  161.1010  203.4640  150.1610 N   0  0  0  0  0  0  0  0  0  0  0  0
  160.6320  208.7190  154.0830 N   0  0  0  0  0  0  0  0  0  0  0  0
  161.6700  204.8710  151.9860 C   0  0  2  0  0  3  0  0  0  0  0  0
  161.5080  203.5410  151.3980 C   0  0  0  0  0  3  0  0  0  0  0  0
  160.8320  210.6950  152.7050 C   0  0  0  0  0  0  0  0  0  0  0  0
  160.4020  211.5910  153.8160 C   0  0  0  0  0  1  0  0  0  0  0  0
  161.8880  212.3550  148.7370 C   0  0  0  0  0  0  0  0  0  0  0  0
  161.6440  209.0860  150.5910 N   0  0  0  0  0  0  0  0  0  0  0  0
  160.7600  204.6370  149.3890 C   0  0  0  0  0  3  0  0  0  0  0  0
  161.1430  206.5800  153.2000 C   0  0  0  0  0  0  0  0  0  0  0  0
  161.2610  205.1670  153.1810 N   0  0  0  0  0  2  0  0  0  0  0  0
  161.1510  211.2540  151.4650 C   0  0  0  0  0  3  0  0  0  0  0  0
  161.0570  205.8730  149.8260 C   0  0  0  0  0  3  0  0  0  0  0  0
  161.5620  210.4310  150.4040 C   0  0  0  0  0  0  0  0  0  0  0  0
  160.9250  209.3080  152.8800 C   0  0  0  0  0  0  0  0  0  0  0  0
  161.6210  213.2570  149.5750 O   0  0  0  0  0  0  0  0  0  0  0  0
  161.3450  212.2330  146.4450 F   0  0  0  0  0  0  0  0  0  0  0  0
  162.2700  212.7340  147.3410 C   0  0  0  0  0  0  0  0  0  0  0  0
  163.5150  212.2100  147.0500 F   0  0  0  0  0  0  0  0  0  0  0  0
  162.3160  214.1110  147.2160 F   0  0  0  0  0  0  0  0  0  0  0  0
  1 15  1  0  0  0  0
  2  1  2  0  0  0  0
  2 20  1  0  0  0  0
  4 18  1  6  0  0  0
  4  1  1  0  0  0  0
  4  8  1  0  0  0  0
  5 19  1  0  0  0  0
  6  9  2  0  0  0  0
  7  3  1  0  0  0  0
  8  9  1  6  0  0  0
  8 16  1  0  0  0  0
 10 20  1  0  0  0  0
 10 11  1  0  0  0  0
 12  5  1  0  0  0  0
 12 21  2  0  0  0  0
 13  2  1  0  0  0  0
 14 18  2  0  0  0  0
 14  6  1  0  0  0  0
 15  3  2  0  0  0  0
 16 15  1  0  0  0  0
 17 10  2  0  0  0  0
 19 13  2  0  0  0  0
 19 17  1  0  0  0  0
 20  7  2  0  0  0  0
 22 23  1  0  0  0  0
 23 12  1  0  0  0  0
 24 23  1  0  0  0  0
 25 23  1  0  0  0  0
M  END
>  <MODEL>
9

>  <REMARK>
 VINA RESULT:      -7.6      2.333      3.832
  Name = 
  1 active torsions:
  status: ('A' for Active; 'I' for Inactive)
    1  A    between atoms: C_7  and  C_15
                            x       y       z     vdW  Elec       q    Type
                         _______ _______ _______ _____ _____    ______ ____

>  <TORSDO>
F 1

$$$$
