=
 OpenBabel11052422553D

 28 31  0  0  1  0  0  0  0  0999 V2000
  160.7770  210.8260  153.3530 C   0  0  1  0  0  3  0  0  0  0  0  0
  160.9790  207.2220  149.5290 C   0  0  0  0  0  3  0  0  0  0  0  0
  159.7670  206.9590  155.0360 F   0  0  0  0  0  0  0  0  0  0  0  0
  161.1900  205.1220  150.7330 C   0  0  0  0  0  0  0  0  0  0  0  0
  161.0360  207.2200  151.9820 C   0  0  0  0  0  0  0  0  0  0  0  0
  161.1300  205.1340  148.3120 C   0  0  0  0  0  0  0  0  0  0  0  0
  161.0670  206.5340  150.7490 C   0  0  0  0  0  0  0  0  0  0  0  0
  161.2610  205.0920  153.1480 C   0  0  0  0  0  3  0  0  0  0  0  0
  161.2200  204.4340  149.5180 C   0  0  0  0  0  3  0  0  0  0  0  0
  161.3720  208.6410  154.4710 C   0  0  2  0  0  3  0  0  0  0  0  0
  161.0040  208.7300  152.0030 C   0  0  0  0  0  2  0  0  0  0  0  0
  161.2850  204.4140  151.9300 C   0  0  0  0  0  3  0  0  0  0  0  0
  161.6330  210.5300  155.6730 C   0  0  0  0  0  2  0  0  0  0  0  0
  161.0440  207.1490  154.5330 C   0  0  2  0  0  3  0  0  0  0  0  0
  161.0870  209.2370  155.7140 O   0  0  0  0  0  0  0  0  0  0  0  0
  161.1590  204.4450  147.1070 O   0  0  0  0  0  1  0  0  0  0  0  0
  161.0110  206.5250  148.3170 C   0  0  0  0  0  3  0  0  0  0  0  0
  161.1490  206.4860  153.1870 C   0  0  0  0  0  0  0  0  0  0  0  0
  160.7830  211.4110  154.7670 C   0  0  0  0  0  2  0  0  0  0  0  0
  160.5580  209.3040  153.3460 C   0  0  2  0  0  3  0  0  0  0  0  0
  159.8210  211.5680  152.4050 C   0  0  2  0  0  3  0  0  0  0  0  0
  160.2620  212.8650  152.1280 O   0  0  0  0  0  1  0  0  0  0  0  0
  158.3210  211.5260  152.7500 C   0  0  0  0  0  2  0  0  0  0  0  0
  157.0110  213.5610  152.6270 O   0  0  0  0  0  1  0  0  0  0  0  0
  157.7340  212.7360  153.4900 C   0  0  1  0  0  3  0  0  0  0  0  0
  156.9530  212.3780  154.7270 C   0  0  0  0  0  0  0  0  0  0  0  0
  155.9720  213.1780  155.1380 C   0  0  0  0  0  2  0  0  0  0  0  0
  157.1530  211.0710  155.4220 C   0  0  0  0  0  1  0  0  0  0  0  0
  1 21  1  6  0  0  0
  1 19  1  0  0  0  0
  2  7  1  0  0  0  0
  4  7  2  0  0  0  0
  4 12  1  0  0  0  0
  5 11  1  0  0  0  0
  5 18  2  0  0  0  0
  6 17  1  0  0  0  0
  6  9  2  0  0  0  0
  7  5  1  0  0  0  0
  8 18  1  0  0  0  0
  9  4  1  0  0  0  0
 10 14  1  0  0  0  0
 10 15  1  1  0  0  0
 12  8  2  0  0  0  0
 13 15  1  0  0  0  0
 14  3  1  6  0  0  0
 16  6  1  0  0  0  0
 17  2  2  0  0  0  0
 18 14  1  0  0  0  0
 19 13  1  0  0  0  0
 20 11  1  6  0  0  0
 20  1  1  0  0  0  0
 20 10  1  0  0  0  0
 21 22  1  1  0  0  0
 21 23  1  0  0  0  0
 23 25  1  0  0  0  0
 25 24  1  6  0  0  0
 25 26  1  0  0  0  0
 26 27  2  0  0  0  0
 26 28  1  0  0  0  0
M  END
>  <MODEL>
1

>  <REMARK>
 VINA RESULT:      -9.2      0.000      0.000
  Name = 
  4 active torsions:
  status: ('A' for Active; 'I' for Inactive)
    1  A    between atoms: C_1  and  C_2
    2  A    between atoms: C_2  and  C_3
    3  A    between atoms: C_3  and  C_11
    4  A    between atoms: C_6  and  C_11
                            x       y       z     vdW  Elec       q    Type
                         _______ _______ _______ _____ _____    ______ ____

>  <TORSDO>
F 4

$$$$
=
 OpenBabel11052422553D

 28 31  0  0  1  0  0  0  0  0999 V2000
  161.4980  207.6720  152.2140 C   0  0  1  0  0  3  0  0  0  0  0  0
  161.6800  206.2750  147.1480 C   0  0  0  0  0  3  0  0  0  0  0  0
  159.5420  203.8290  151.7650 F   0  0  0  0  0  0  0  0  0  0  0  0
  161.3050  203.8750  147.2040 C   0  0  0  0  0  0  0  0  0  0  0  0
  161.3270  205.1420  149.2950 C   0  0  0  0  0  0  0  0  0  0  0  0
  161.6520  205.0020  145.0880 C   0  0  0  0  0  0  0  0  0  0  0  0
  161.4380  205.1080  147.8890 C   0  0  0  0  0  0  0  0  0  0  0  0
  160.9670  202.7330  149.3050 C   0  0  0  0  0  3  0  0  0  0  0  0
  161.4120  203.8300  145.8110 C   0  0  0  0  0  3  0  0  0  0  0  0
  161.4950  205.1480  152.1770 C   0  0  2  0  0  3  0  0  0  0  0  0
  161.5650  206.4360  150.0390 C   0  0  0  0  0  2  0  0  0  0  0  0
  161.0710  202.7000  147.9160 C   0  0  0  0  0  3  0  0  0  0  0  0
  161.8890  206.1580  154.1520 C   0  0  0  0  0  2  0  0  0  0  0  0
  160.8970  203.9180  151.4930 C   0  0  2  0  0  3  0  0  0  0  0  0
  161.1200  205.1610  153.5330 O   0  0  0  0  0  0  0  0  0  0  0  0
  161.7560  204.9530  143.7050 O   0  0  0  0  0  1  0  0  0  0  0  0
  161.7860  206.2210  145.7550 C   0  0  0  0  0  3  0  0  0  0  0  0
  161.1030  203.9370  150.0030 C   0  0  0  0  0  0  0  0  0  0  0  0
  161.3750  207.5300  153.7320 C   0  0  0  0  0  2  0  0  0  0  0  0
  161.0120  206.4220  151.4630 C   0  0  2  0  0  3  0  0  0  0  0  0
  160.8630  208.9690  151.6840 C   0  0  2  0  0  3  0  0  0  0  0  0
  161.7660  209.7220  150.9290 O   0  0  0  0  0  1  0  0  0  0  0  0
  160.0900  209.8340  152.6970 C   0  0  0  0  0  2  0  0  0  0  0  0
  160.1360  212.2560  152.7180 O   0  0  0  0  0  1  0  0  0  0  0  0
  160.7750  211.1120  153.2000 C   0  0  1  0  0  3  0  0  0  0  0  0
  160.9750  211.1540  154.6910 C   0  0  0  0  0  0  0  0  0  0  0  0
  159.9560  211.4840  155.4820 C   0  0  0  0  0  2  0  0  0  0  0  0
  162.2490  210.6900  155.3190 C   0  0  0  0  0  1  0  0  0  0  0  0
  1 21  1  6  0  0  0
  1 19  1  0  0  0  0
  2  7  1  0  0  0  0
  4  7  2  0  0  0  0
  4 12  1  0  0  0  0
  5 18  2  0  0  0  0
  5 11  1  0  0  0  0
  6 17  1  0  0  0  0
  6  9  2  0  0  0  0
  7  5  1  0  0  0  0
  8 18  1  0  0  0  0
  9  4  1  0  0  0  0
 10 15  1  1  0  0  0
 12  8  2  0  0  0  0
 14  3  1  6  0  0  0
 14 10  1  0  0  0  0
 15 13  1  0  0  0  0
 16  6  1  0  0  0  0
 17  2  2  0  0  0  0
 18 14  1  0  0  0  0
 19 13  1  0  0  0  0
 20 11  1  6  0  0  0
 20 10  1  0  0  0  0
 20  1  1  0  0  0  0
 21 22  1  1  0  0  0
 21 23  1  0  0  0  0
 23 25  1  0  0  0  0
 25 24  1  1  0  0  0
 25 26  1  0  0  0  0
 26 28  1  0  0  0  0
 26 27  2  0  0  0  0
M  END
>  <MODEL>
2

>  <REMARK>
 VINA RESULT:      -9.0      2.186      3.817
  Name = 
  4 active torsions:
  status: ('A' for Active; 'I' for Inactive)
    1  A    between atoms: C_1  and  C_2
    2  A    between atoms: C_2  and  C_3
    3  A    between atoms: C_3  and  C_11
    4  A    between atoms: C_6  and  C_11
                            x       y       z     vdW  Elec       q    Type
                         _______ _______ _______ _____ _____    ______ ____

>  <TORSDO>
F 4

$$$$
=
 OpenBabel11052422553D

 28 31  0  0  1  0  0  0  0  0999 V2000
  161.6000  204.1900  148.5880 C   0  0  1  0  0  3  0  0  0  0  0  0
  160.9950  206.5350  153.2560 C   0  0  0  0  0  3  0  0  0  0  0  0
  160.8610  208.4120  147.9330 F   0  0  0  0  0  0  0  0  0  0  0  0
  161.3940  208.8820  152.7720 C   0  0  0  0  0  0  0  0  0  0  0  0
  161.5230  207.2380  150.9650 C   0  0  0  0  0  0  0  0  0  0  0  0
  160.8700  208.1790  155.0290 C   0  0  0  0  0  0  0  0  0  0  0  0
  161.3030  207.5410  152.3260 C   0  0  0  0  0  0  0  0  0  0  0  0
  161.9280  209.6010  150.5280 C   0  0  0  0  0  3  0  0  0  0  0  0
  161.1770  209.1920  154.1170 C   0  0  0  0  0  3  0  0  0  0  0  0
  162.3580  206.5800  148.2830 C   0  0  2  0  0  3  0  0  0  0  0  0
  161.5240  205.8000  150.5030 C   0  0  0  0  0  2  0  0  0  0  0  0
  161.7050  209.9000  151.8710 C   0  0  0  0  0  3  0  0  0  0  0  0
  162.8810  205.1060  146.6590 C   0  0  0  0  0  2  0  0  0  0  0  0
  162.0200  208.0380  148.5930 C   0  0  2  0  0  3  0  0  0  0  0  0
  162.3290  206.3760  146.8900 O   0  0  0  0  0  0  0  0  0  0  0  0
  160.6530  208.4920  156.3640 O   0  0  0  0  0  1  0  0  0  0  0  0
  160.7800  206.8530  154.6000 C   0  0  0  0  0  3  0  0  0  0  0  0
  161.8520  208.2820  150.0680 C   0  0  0  0  0  0  0  0  0  0  0  0
  161.8890  204.0350  147.0940 C   0  0  0  0  0  2  0  0  0  0  0  0
  161.3550  205.6530  148.9920 C   0  0  2  0  0  3  0  0  0  0  0  0
  160.4940  203.2440  149.0830 C   0  0  2  0  0  3  0  0  0  0  0  0
  160.7280  202.8030  150.3880 O   0  0  0  0  0  1  0  0  0  0  0  0
  160.0890  202.0910  148.1450 C   0  0  0  0  0  2  0  0  0  0  0  0
  161.5930  200.2280  148.5190 O   0  0  0  0  0  1  0  0  0  0  0  0
  161.2120  201.2020  147.5940 C   0  0  1  0  0  3  0  0  0  0  0  0
  160.9230  200.6200  146.2360 C   0  0  0  0  0  0  0  0  0  0  0  0
  161.2870  199.3680  145.9680 C   0  0  0  0  0  2  0  0  0  0  0  0
  160.1040  201.3600  145.2300 C   0  0  0  0  0  1  0  0  0  0  0  0
  1 20  1  0  0  0  0
  1 21  1  6  0  0  0
  2 17  1  0  0  0  0
  4  9  2  0  0  0  0
  5  7  1  0  0  0  0
  6 16  1  0  0  0  0
  7  4  1  0  0  0  0
  7  2  2  0  0  0  0
  8 12  2  0  0  0  0
  9  6  1  0  0  0  0
 10 15  1  6  0  0  0
 10 14  1  0  0  0  0
 10 20  1  0  0  0  0
 11  5  1  0  0  0  0
 12  4  1  0  0  0  0
 13 15  1  0  0  0  0
 13 19  1  0  0  0  0
 14  3  1  6  0  0  0
 14 18  1  0  0  0  0
 17  6  2  0  0  0  0
 18  8  1  0  0  0  0
 18  5  2  0  0  0  0
 19  1  1  0  0  0  0
 20 11  1  1  0  0  0
 21 22  1  1  0  0  0
 23 21  1  0  0  0  0
 25 23  1  0  0  0  0
 25 24  1  1  0  0  0
 26 25  1  0  0  0  0
 27 26  2  0  0  0  0
 28 26  1  0  0  0  0
M  END
>  <MODEL>
3

>  <REMARK>
 VINA RESULT:      -8.8      3.377      9.141
  Name = 
  4 active torsions:
  status: ('A' for Active; 'I' for Inactive)
    1  A    between atoms: C_1  and  C_2
    2  A    between atoms: C_2  and  C_3
    3  A    between atoms: C_3  and  C_11
    4  A    between atoms: C_6  and  C_11
                            x       y       z     vdW  Elec       q    Type
                         _______ _______ _______ _____ _____    ______ ____

>  <TORSDO>
F 4

$$$$
=
 OpenBabel11052422553D

 28 31  0  0  1  0  0  0  0  0999 V2000
  161.1610  203.5940  148.1250 C   0  0  1  0  0  3  0  0  0  0  0  0
  161.2620  208.1300  150.7830 C   0  0  0  0  0  3  0  0  0  0  0  0
  162.2890  202.7710  152.2300 F   0  0  0  0  0  0  0  0  0  0  0  0
  161.1070  207.4350  153.1060 C   0  0  0  0  0  0  0  0  0  0  0  0
  161.1190  205.7450  151.3380 C   0  0  0  0  0  0  0  0  0  0  0  0
  161.2520  209.7870  152.5490 C   0  0  0  0  0  0  0  0  0  0  0  0
  161.1630  207.0990  151.7310 C   0  0  0  0  0  0  0  0  0  0  0  0
  160.9520  205.0930  153.6800 C   0  0  0  0  0  3  0  0  0  0  0  0
  161.1520  208.7730  153.5050 C   0  0  0  0  0  3  0  0  0  0  0  0
  160.6290  203.0190  150.5260 C   0  0  2  0  0  3  0  0  0  0  0  0
  161.0800  205.3860  149.8710 C   0  0  0  0  0  2  0  0  0  0  0  0
  161.0020  206.4310  154.0680 C   0  0  0  0  0  3  0  0  0  0  0  0
  160.2370  201.4390  148.9660 C   0  0  0  0  0  2  0  0  0  0  0  0
  161.0240  203.2770  151.9800 C   0  0  2  0  0  3  0  0  0  0  0  0
  160.8410  201.6630  150.2130 O   0  0  0  0  0  0  0  0  0  0  0  0
  161.2980  211.1150  152.9500 O   0  0  0  0  0  1  0  0  0  0  0  0
  161.3060  209.4670  151.1910 C   0  0  0  0  0  3  0  0  0  0  0  0
  160.9970  204.7400  152.3270 C   0  0  0  0  0  0  0  0  0  0  0  0
  161.0770  202.0870  147.8720 C   0  0  0  0  0  2  0  0  0  0  0  0
  161.4510  203.9300  149.5970 C   0  0  2  0  0  3  0  0  0  0  0  0
  162.1140  204.3090  147.1530 C   0  0  2  0  0  3  0  0  0  0  0  0
  162.0880  205.6960  147.3210 O   0  0  0  0  0  1  0  0  0  0  0  0
  162.0350  203.9020  145.6700 C   0  0  0  0  0  2  0  0  0  0  0  0
  161.1840  205.0750  143.7270 O   0  0  0  0  0  1  0  0  0  0  0  0
  160.8090  204.3730  144.8740 C   0  0  1  0  0  3  0  0  0  0  0  0
  159.8160  203.2810  144.5770 C   0  0  0  0  0  0  0  0  0  0  0  0
  158.7150  203.5660  143.8850 C   0  0  0  0  0  2  0  0  0  0  0  0
  160.1040  201.8540  144.9110 C   0  0  0  0  0  1  0  0  0  0  0  0
  1 21  1  6  0  0  0
  1 20  1  0  0  0  0
  2 17  2  0  0  0  0
  2  7  1  0  0  0  0
  4  9  1  0  0  0  0
  4 12  1  0  0  0  0
  5  7  1  0  0  0  0
  5 18  2  0  0  0  0
  6 16  1  0  0  0  0
  6  9  2  0  0  0  0
  7  4  2  0  0  0  0
  8 12  2  0  0  0  0
 10 15  1  6  0  0  0
 10 14  1  0  0  0  0
 11  5  1  0  0  0  0
 13 15  1  0  0  0  0
 14  3  1  6  0  0  0
 14 18  1  0  0  0  0
 17  6  1  0  0  0  0
 18  8  1  0  0  0  0
 19  1  1  0  0  0  0
 19 13  1  0  0  0  0
 20 11  1  6  0  0  0
 20 10  1  0  0  0  0
 21 22  1  6  0  0  0
 23 21  1  0  0  0  0
 25 24  1  6  0  0  0
 25 23  1  0  0  0  0
 26 25  1  0  0  0  0
 26 28  1  0  0  0  0
 27 26  2  0  0  0  0
M  END
>  <MODEL>
4

>  <REMARK>
 VINA RESULT:      -8.7      2.978      8.504
  Name = 
  4 active torsions:
  status: ('A' for Active; 'I' for Inactive)
    1  A    between atoms: C_1  and  C_2
    2  A    between atoms: C_2  and  C_3
    3  A    between atoms: C_3  and  C_11
    4  A    between atoms: C_6  and  C_11
                            x       y       z     vdW  Elec       q    Type
                         _______ _______ _______ _____ _____    ______ ____

>  <TORSDO>
F 4

$$$$
=
 OpenBabel11052422553D

 28 31  0  0  1  0  0  0  0  0999 V2000
  160.9900  207.7870  152.6510 C   0  0  1  0  0  3  0  0  0  0  0  0
  160.8340  203.2480  150.0010 C   0  0  0  0  0  3  0  0  0  0  0  0
  163.3170  208.2230  149.0190 F   0  0  0  0  0  0  0  0  0  0  0  0
  161.4530  203.8860  147.7390 C   0  0  0  0  0  0  0  0  0  0  0  0
  161.3500  205.5920  149.4890 C   0  0  0  0  0  0  0  0  0  0  0  0
  160.9440  201.5750  148.2540 C   0  0  0  0  0  0  0  0  0  0  0  0
  161.2110  204.2460  149.0880 C   0  0  0  0  0  0  0  0  0  0  0  0
  161.9540  206.1880  147.2050 C   0  0  0  0  0  3  0  0  0  0  0  0
  161.3190  202.5570  147.3320 C   0  0  0  0  0  3  0  0  0  0  0  0
  161.2500  208.3840  150.2120 C   0  0  2  0  0  3  0  0  0  0  0  0
  160.9990  205.9980  150.9020 C   0  0  0  0  0  2  0  0  0  0  0  0
  161.8220  204.8580  146.8110 C   0  0  0  0  0  3  0  0  0  0  0  0
  160.8000  210.0600  151.6510 C   0  0  0  0  0  2  0  0  0  0  0  0
  161.9530  208.0030  148.9090 C   0  0  2  0  0  3  0  0  0  0  0  0
  161.6520  209.6740  150.6040 O   0  0  0  0  0  0  0  0  0  0  0  0
  160.8140  200.2550  147.8450 O   0  0  0  0  0  1  0  0  0  0  0  0
  160.7020  201.9200  149.5850 C   0  0  0  0  0  3  0  0  0  0  0  0
  161.7120  206.5680  148.5300 C   0  0  0  0  0  0  0  0  0  0  0  0
  161.1620  209.2850  152.9120 C   0  0  0  0  0  2  0  0  0  0  0  0
  161.5830  207.3510  151.3020 C   0  0  2  0  0  3  0  0  0  0  0  0
  161.4770  206.9190  153.8230 C   0  0  2  0  0  3  0  0  0  0  0  0
  160.8330  205.6800  153.8590 O   0  0  0  0  0  1  0  0  0  0  0  0
  161.5310  207.5850  155.2110 C   0  0  0  0  0  2  0  0  0  0  0  0
  159.9860  206.9190  156.9550 O   0  0  0  0  0  1  0  0  0  0  0  0
  160.1960  207.8370  155.9250 C   0  0  1  0  0  3  0  0  0  0  0  0
  160.0030  209.2600  156.3790 C   0  0  0  0  0  0  0  0  0  0  0  0
  160.8500  209.7880  157.2600 C   0  0  0  0  0  2  0  0  0  0  0  0
  158.9730  210.1440  155.7540 C   0  0  0  0  0  1  0  0  0  0  0  0
  1 19  1  0  0  0  0
  1 21  1  1  0  0  0
  4  7  1  0  0  0  0
  5 11  1  0  0  0  0
  6 17  2  0  0  0  0
  7  5  1  0  0  0  0
  7  2  2  0  0  0  0
  8 18  1  0  0  0  0
  9  4  2  0  0  0  0
  9  6  1  0  0  0  0
 10 15  1  1  0  0  0
 10 20  1  0  0  0  0
 12  8  2  0  0  0  0
 12  4  1  0  0  0  0
 13 19  1  0  0  0  0
 14  3  1  1  0  0  0
 14 10  1  0  0  0  0
 15 13  1  0  0  0  0
 16  6  1  0  0  0  0
 17  2  1  0  0  0  0
 18 14  1  0  0  0  0
 18  5  2  0  0  0  0
 20 11  1  6  0  0  0
 20  1  1  0  0  0  0
 21 22  1  1  0  0  0
 21 23  1  0  0  0  0
 23 25  1  0  0  0  0
 25 26  1  0  0  0  0
 25 24  1  1  0  0  0
 26 27  2  0  0  0  0
 28 26  1  0  0  0  0
M  END
>  <MODEL>
5

>  <REMARK>
 VINA RESULT:      -8.6      2.817      4.852
  Name = 
  4 active torsions:
  status: ('A' for Active; 'I' for Inactive)
    1  A    between atoms: C_1  and  C_2
    2  A    between atoms: C_2  and  C_3
    3  A    between atoms: C_3  and  C_11
    4  A    between atoms: C_6  and  C_11
                            x       y       z     vdW  Elec       q    Type
                         _______ _______ _______ _____ _____    ______ ____

>  <TORSDO>
F 4

$$$$
=
 OpenBabel11052422553D

 28 31  0  0  1  0  0  0  0  0999 V2000
  161.1510  210.6560  153.5190 C   0  0  1  0  0  3  0  0  0  0  0  0
  161.1760  207.3150  149.4580 C   0  0  0  0  0  3  0  0  0  0  0  0
  159.8110  206.7740  154.9090 F   0  0  0  0  0  0  0  0  0  0  0  0
  161.1980  205.1290  150.5170 C   0  0  0  0  0  0  0  0  0  0  0  0
  161.1720  207.1420  151.9050 C   0  0  0  0  0  0  0  0  0  0  0  0
  161.2000  205.3090  148.1020 C   0  0  0  0  0  0  0  0  0  0  0  0
  161.1810  206.5410  150.6290 C   0  0  0  0  0  0  0  0  0  0  0  0
  161.2060  204.9300  152.9250 C   0  0  0  0  0  3  0  0  0  0  0  0
  161.2060  204.5240  149.2580 C   0  0  0  0  0  3  0  0  0  0  0  0
  161.5510  208.3610  154.4940 C   0  0  2  0  0  3  0  0  0  0  0  0
  161.2530  208.6460  152.0310 C   0  0  0  0  0  2  0  0  0  0  0  0
  161.2100  204.3360  151.6640 C   0  0  0  0  0  3  0  0  0  0  0  0
  161.9240  210.1390  155.8290 C   0  0  0  0  0  2  0  0  0  0  0  0
  161.1100  206.8990  154.4450 C   0  0  2  0  0  3  0  0  0  0  0  0
  161.2810  208.8920  155.7690 O   0  0  0  0  0  0  0  0  0  0  0  0
  161.2070  204.7030  146.8530 O   0  0  0  0  0  1  0  0  0  0  0  0
  161.1850  206.7020  148.2020 C   0  0  0  0  0  3  0  0  0  0  0  0
  161.1990  206.3220  153.0590 C   0  0  0  0  0  0  0  0  0  0  0  0
  161.1660  211.1420  154.9690 C   0  0  0  0  0  2  0  0  0  0  0  0
  160.8170  209.1600  153.4020 C   0  0  2  0  0  3  0  0  0  0  0  0
  160.2780  211.5320  152.6050 C   0  0  2  0  0  3  0  0  0  0  0  0
  158.9560  211.0820  152.5560 O   0  0  0  0  0  1  0  0  0  0  0  0
  160.8340  211.8550  151.2060 C   0  0  0  0  0  2  0  0  0  0  0  0
  160.0350  214.1430  151.1700 O   0  0  0  0  0  1  0  0  0  0  0  0
  160.1430  212.9740  150.4140 C   0  0  1  0  0  3  0  0  0  0  0  0
  160.7450  213.2260  149.0570 C   0  0  0  0  0  0  0  0  0  0  0  0
  161.6640  212.3890  148.5810 C   0  0  0  0  0  2  0  0  0  0  0  0
  160.2310  214.3090  148.1660 C   0  0  0  0  0  1  0  0  0  0  0  0
  1 21  1  6  0  0  0
  1 19  1  0  0  0  0
  2  7  1  0  0  0  0
  4  7  2  0  0  0  0
  4 12  1  0  0  0  0
  5 11  1  0  0  0  0
  5 18  2  0  0  0  0
  6 17  1  0  0  0  0
  6  9  2  0  0  0  0
  7  5  1  0  0  0  0
  8 18  1  0  0  0  0
  9  4  1  0  0  0  0
 10 15  1  1  0  0  0
 12  8  2  0  0  0  0
 14 10  1  0  0  0  0
 14  3  1  6  0  0  0
 15 13  1  0  0  0  0
 16  6  1  0  0  0  0
 17  2  2  0  0  0  0
 18 14  1  0  0  0  0
 19 13  1  0  0  0  0
 20 11  1  6  0  0  0
 20  1  1  0  0  0  0
 20 10  1  0  0  0  0
 21 22  1  6  0  0  0
 23 21  1  0  0  0  0
 25 24  1  1  0  0  0
 25 23  1  0  0  0  0
 26 25  1  0  0  0  0
 27 26  2  0  0  0  0
 28 26  1  0  0  0  0
M  END
>  <MODEL>
6

>  <REMARK>
 VINA RESULT:      -8.6      1.769      2.921
  Name = 
  4 active torsions:
  status: ('A' for Active; 'I' for Inactive)
    1  A    between atoms: C_1  and  C_2
    2  A    between atoms: C_2  and  C_3
    3  A    between atoms: C_3  and  C_11
    4  A    between atoms: C_6  and  C_11
                            x       y       z     vdW  Elec       q    Type
                         _______ _______ _______ _____ _____    ______ ____

>  <TORSDO>
F 4

$$$$
=
 OpenBabel11052422553D

 28 31  0  0  1  0  0  0  0  0999 V2000
  161.2150  202.9770  147.7120 C   0  0  1  0  0  3  0  0  0  0  0  0
  161.5920  207.6490  150.0950 C   0  0  0  0  0  3  0  0  0  0  0  0
  162.1860  202.3280  151.8880 F   0  0  0  0  0  0  0  0  0  0  0  0
  161.3330  207.1110  152.4510 C   0  0  0  0  0  0  0  0  0  0  0  0
  161.2590  205.3190  150.7880 C   0  0  0  0  0  0  0  0  0  0  0  0
  161.6640  209.4080  151.7580 C   0  0  0  0  0  0  0  0  0  0  0  0
  161.3960  206.6880  151.1000 C   0  0  0  0  0  0  0  0  0  0  0  0
  160.9920  204.8270  153.1590 C   0  0  0  0  0  3  0  0  0  0  0  0
  161.4680  208.4640  152.7700 C   0  0  0  0  0  3  0  0  0  0  0  0
  160.5880  202.5910  150.1270 C   0  0  2  0  0  3  0  0  0  0  0  0
  161.2270  204.8740  149.3440 C   0  0  0  0  0  2  0  0  0  0  0  0
  161.1320  206.1790  153.4680 C   0  0  0  0  0  3  0  0  0  0  0  0
  160.1160  200.9500  148.6550 C   0  0  0  0  0  2  0  0  0  0  0  0
  160.9680  202.9080  151.5740 C   0  0  2  0  0  3  0  0  0  0  0  0
  160.7060  201.2070  149.9020 O   0  0  0  0  0  0  0  0  0  0  0  0
  161.7990  210.7510  152.0800 O   0  0  0  0  0  1  0  0  0  0  0  0
  161.7250  209.0010  150.4240 C   0  0  0  0  0  3  0  0  0  0  0  0
  161.0420  204.3880  151.8320 C   0  0  0  0  0  0  0  0  0  0  0  0
  161.0260  201.4670  147.5480 C   0  0  0  0  0  2  0  0  0  0  0  0
  161.4960  203.3810  149.1680 C   0  0  2  0  0  3  0  0  0  0  0  0
  162.2410  203.5600  146.7250 C   0  0  2  0  0  3  0  0  0  0  0  0
  162.9580  204.6200  147.2830 O   0  0  0  0  0  1  0  0  0  0  0  0
  161.7400  203.8810  145.3050 C   0  0  0  0  0  2  0  0  0  0  0  0
  161.5540  205.5200  143.5300 O   0  0  0  0  0  1  0  0  0  0  0  0
  161.6280  205.3610  144.9150 C   0  0  1  0  0  3  0  0  0  0  0  0
  160.5340  206.1040  145.6350 C   0  0  0  0  0  0  0  0  0  0  0  0
  159.2620  205.8290  145.3580 C   0  0  0  0  0  2  0  0  0  0  0  0
  160.8380  207.0390  146.7600 C   0  0  0  0  0  1  0  0  0  0  0  0
  1 21  1  6  0  0  0
  1 20  1  0  0  0  0
  2 17  2  0  0  0  0
  2  7  1  0  0  0  0
  4  9  1  0  0  0  0
  4 12  1  0  0  0  0
  5  7  1  0  0  0  0
  5 18  2  0  0  0  0
  6 16  1  0  0  0  0
  6  9  2  0  0  0  0
  7  4  2  0  0  0  0
  8 12  2  0  0  0  0
 10 15  1  6  0  0  0
 10 14  1  0  0  0  0
 11  5  1  0  0  0  0
 13 15  1  0  0  0  0
 14 18  1  0  0  0  0
 14  3  1  6  0  0  0
 17  6  1  0  0  0  0
 18  8  1  0  0  0  0
 19  1  1  0  0  0  0
 19 13  1  0  0  0  0
 20 11  1  6  0  0  0
 20 10  1  0  0  0  0
 21 22  1  1  0  0  0
 23 21  1  0  0  0  0
 25 24  1  6  0  0  0
 25 23  1  0  0  0  0
 25 26  1  0  0  0  0
 26 28  1  0  0  0  0
 27 26  2  0  0  0  0
M  END
>  <MODEL>
7

>  <REMARK>
 VINA RESULT:      -8.5      3.402      8.190
  Name = 
  4 active torsions:
  status: ('A' for Active; 'I' for Inactive)
    1  A    between atoms: C_1  and  C_2
    2  A    between atoms: C_2  and  C_3
    3  A    between atoms: C_3  and  C_11
    4  A    between atoms: C_6  and  C_11
                            x       y       z     vdW  Elec       q    Type
                         _______ _______ _______ _____ _____    ______ ____

>  <TORSDO>
F 4

$$$$
=
 OpenBabel11052422553D

 28 31  0  0  1  0  0  0  0  0999 V2000
  160.4170  202.5960  148.1640 C   0  0  1  0  0  3  0  0  0  0  0  0
  161.4190  207.6380  149.2750 C   0  0  0  0  0  3  0  0  0  0  0  0
  162.3950  202.8000  152.0170 F   0  0  0  0  0  0  0  0  0  0  0  0
  161.7530  207.6360  151.6820 C   0  0  0  0  0  0  0  0  0  0  0  0
  161.2500  205.5370  150.5320 C   0  0  0  0  0  0  0  0  0  0  0  0
  161.9210  209.7040  150.4330 C   0  0  0  0  0  0  0  0  0  0  0  0
  161.4720  206.9300  150.4870 C   0  0  0  0  0  0  0  0  0  0  0  0
  161.5800  205.5850  152.9460 C   0  0  0  0  0  3  0  0  0  0  0  0
  161.9760  209.0150  151.6480 C   0  0  0  0  0  3  0  0  0  0  0  0
  160.4100  202.7800  150.6830 C   0  0  2  0  0  3  0  0  0  0  0  0
  160.8540  204.7950  149.2770 C   0  0  0  0  0  2  0  0  0  0  0  0
  161.8050  206.9600  152.9000 C   0  0  0  0  0  3  0  0  0  0  0  0
  159.5700  200.8960  149.7750 C   0  0  0  0  0  2  0  0  0  0  0  0
  161.1420  203.3760  151.8850 C   0  0  2  0  0  3  0  0  0  0  0  0
  160.4560  201.3750  150.7520 O   0  0  0  0  0  0  0  0  0  0  0  0
  162.1450  211.0740  150.4030 O   0  0  0  0  0  1  0  0  0  0  0  0
  161.6430  209.0170  149.2500 C   0  0  0  0  0  3  0  0  0  0  0  0
  161.2920  204.8690  151.7790 C   0  0  0  0  0  0  0  0  0  0  0  0
  160.1790  201.1020  148.3930 C   0  0  0  0  0  2  0  0  0  0  0  0
  161.0570  203.2850  149.3810 C   0  0  2  0  0  3  0  0  0  0  0  0
  161.1680  202.8860  146.8540 C   0  0  2  0  0  3  0  0  0  0  0  0
  161.2060  201.7700  146.0160 O   0  0  0  0  0  1  0  0  0  0  0  0
  162.5430  203.5700  146.9730 C   0  0  0  0  0  2  0  0  0  0  0  0
  163.8220  204.7040  145.2550 O   0  0  0  0  0  1  0  0  0  0  0  0
  162.7660  204.8510  146.1570 C   0  0  1  0  0  3  0  0  0  0  0  0
  161.5210  205.3820  145.4980 C   0  0  0  0  0  0  0  0  0  0  0  0
  160.7490  206.2450  146.1540 C   0  0  0  0  0  2  0  0  0  0  0  0
  161.2070  205.0800  144.0690 C   0  0  0  0  0  1  0  0  0  0  0  0
  1 21  1  6  0  0  0
  1 19  1  0  0  0  0
  1 20  1  0  0  0  0
  2  7  1  0  0  0  0
  4 12  1  0  0  0  0
  5 18  2  0  0  0  0
  6  9  2  0  0  0  0
  7  5  1  0  0  0  0
  7  4  2  0  0  0  0
  9  4  1  0  0  0  0
 10 15  1  1  0  0  0
 10 14  1  0  0  0  0
 11  5  1  0  0  0  0
 12  8  2  0  0  0  0
 13 15  1  0  0  0  0
 14  3  1  6  0  0  0
 16  6  1  0  0  0  0
 17  2  2  0  0  0  0
 17  6  1  0  0  0  0
 18 14  1  0  0  0  0
 18  8  1  0  0  0  0
 19 13  1  0  0  0  0
 20 11  1  6  0  0  0
 20 10  1  0  0  0  0
 21 22  1  1  0  0  0
 21 23  1  0  0  0  0
 25 24  1  6  0  0  0
 25 23  1  0  0  0  0
 26 27  2  0  0  0  0
 26 25  1  0  0  0  0
 28 26  1  0  0  0  0
M  END
>  <MODEL>
8

>  <REMARK>
 VINA RESULT:      -8.3      3.816      8.396
  Name = 
  4 active torsions:
  status: ('A' for Active; 'I' for Inactive)
    1  A    between atoms: C_1  and  C_2
    2  A    between atoms: C_2  and  C_3
    3  A    between atoms: C_3  and  C_11
    4  A    between atoms: C_6  and  C_11
                            x       y       z     vdW  Elec       q    Type
                         _______ _______ _______ _____ _____    ______ ____

>  <TORSDO>
F 4

$$$$
=
 OpenBabel11052422553D

 28 31  0  0  1  0  0  0  0  0999 V2000
  161.2220  206.0990  149.5160 C   0  0  1  0  0  3  0  0  0  0  0  0
  160.2750  210.4770  152.2700 C   0  0  0  0  0  3  0  0  0  0  0  0
  162.7100  205.5470  153.5510 F   0  0  0  0  0  0  0  0  0  0  0  0
  160.4110  209.7380  154.5810 C   0  0  0  0  0  0  0  0  0  0  0  0
  160.7750  208.1290  152.7760 C   0  0  0  0  0  0  0  0  0  0  0  0
  159.9200  212.0550  154.0730 C   0  0  0  0  0  0  0  0  0  0  0  0
  160.4880  209.4440  153.1980 C   0  0  0  0  0  0  0  0  0  0  0  0
  160.8890  207.4290  155.1070 C   0  0  0  0  0  3  0  0  0  0  0  0
  160.1290  211.0380  155.0090 C   0  0  0  0  0  3  0  0  0  0  0  0
  160.9660  205.3780  151.9220 C   0  0  2  0  0  3  0  0  0  0  0  0
  160.7630  207.7890  151.3040 C   0  0  0  0  0  2  0  0  0  0  0  0
  160.6110  208.7300  155.5230 C   0  0  0  0  0  3  0  0  0  0  0  0
  160.9220  203.7690  150.3440 C   0  0  0  0  0  2  0  0  0  0  0  0
  161.3470  205.7120  153.3650 C   0  0  2  0  0  3  0  0  0  0  0  0
  161.5050  204.1270  151.5710 O   0  0  0  0  0  0  0  0  0  0  0  0
  159.6420  213.3450  154.5020 O   0  0  0  0  0  1  0  0  0  0  0  0
  159.9930  211.7750  152.7070 C   0  0  0  0  0  3  0  0  0  0  0  0
  160.9620  207.1150  153.7470 C   0  0  0  0  0  0  0  0  0  0  0  0
  161.5170  204.6240  149.2320 C   0  0  0  0  0  2  0  0  0  0  0  0
  161.4830  206.4810  150.9820 C   0  0  2  0  0  3  0  0  0  0  0  0
  161.9140  207.0470  148.5230 C   0  0  2  0  0  3  0  0  0  0  0  0
  161.2490  208.2710  148.4180 O   0  0  0  0  0  1  0  0  0  0  0  0
  162.2830  206.4670  147.1440 C   0  0  0  0  0  2  0  0  0  0  0  0
  160.3970  206.4590  145.6220 O   0  0  0  0  0  1  0  0  0  0  0  0
  161.2110  205.6470  146.4140 C   0  0  1  0  0  3  0  0  0  0  0  0
  161.7540  204.4670  145.6530 C   0  0  0  0  0  0  0  0  0  0  0  0
  163.0710  204.3080  145.5420 C   0  0  0  0  0  2  0  0  0  0  0  0
  160.8550  203.3870  145.1450 C   0  0  0  0  0  1  0  0  0  0  0  0
  1 21  1  6  0  0  0
  1 20  1  0  0  0  0
  2 17  2  0  0  0  0
  2  7  1  0  0  0  0
  4  9  1  0  0  0  0
  4 12  1  0  0  0  0
  5  7  1  0  0  0  0
  5 18  2  0  0  0  0
  6 16  1  0  0  0  0
  6  9  2  0  0  0  0
  7  4  2  0  0  0  0
  8 12  2  0  0  0  0
 10 15  1  6  0  0  0
 10 14  1  0  0  0  0
 11  5  1  0  0  0  0
 13 15  1  0  0  0  0
 14  3  1  6  0  0  0
 14 18  1  0  0  0  0
 17  6  1  0  0  0  0
 18  8  1  0  0  0  0
 19  1  1  0  0  0  0
 19 13  1  0  0  0  0
 20 11  1  1  0  0  0
 20 10  1  0  0  0  0
 21 22  1  6  0  0  0
 23 21  1  0  0  0  0
 25 24  1  6  0  0  0
 25 23  1  0  0  0  0
 26 25  1  0  0  0  0
 27 26  2  0  0  0  0
 28 26  1  0  0  0  0
M  END
>  <MODEL>
9

>  <REMARK>
 VINA RESULT:      -8.2      2.060      7.739
  Name = 
  4 active torsions:
  status: ('A' for Active; 'I' for Inactive)
    1  A    between atoms: C_1  and  C_2
    2  A    between atoms: C_2  and  C_3
    3  A    between atoms: C_3  and  C_11
    4  A    between atoms: C_6  and  C_11
                            x       y       z     vdW  Elec       q    Type
                         _______ _______ _______ _____ _____    ______ ____

>  <TORSDO>
F 4

$$$$
