=
 OpenBabel11052422133D

 25 28  0  0  1  0  0  0  0  0999 V2000
  161.3820  205.4280  149.1850 C   0  0  0  0  0  0  0  0  0  0  0  0
  161.3930  206.3900  150.2000 C   0  0  0  0  0  0  0  0  0  0  0  0
  161.8900  207.1190  147.5690 N   0  0  0  0  0  0  0  0  0  0  0  0
  161.1480  204.0480  149.2760 C   0  0  0  0  0  0  0  0  0  0  0  0
  160.7380  201.2940  149.0580 C   0  0  0  0  0  3  0  0  0  0  0  0
  161.9020  208.0480  148.5310 N   0  0  0  0  0  0  0  0  0  0  0  0
  161.2240  203.4100  148.0370 C   0  0  0  0  0  0  0  0  0  0  0  0
  161.0230  202.0380  147.9020 C   0  0  0  0  0  3  0  0  0  0  0  0
  161.6770  208.6960  150.8510 C   0  0  0  0  0  0  0  0  0  0  0  0
  161.9570  210.1290  150.5450 C   0  0  0  0  0  1  0  0  0  0  0  0
  161.1610  206.0720  151.5000 N   0  0  0  0  0  0  0  0  0  0  0  0
  160.6590  201.9260  150.3140 C   0  0  0  0  0  3  0  0  0  0  0  0
  161.6310  205.8270  147.8820 C   0  0  0  0  0  0  0  0  0  0  0  0
  161.5780  204.5220  146.8160 S   0  0  0  0  0  0  0  0  0  0  0  0
  161.4360  208.3260  152.1360 N   0  0  0  0  0  0  0  0  0  0  0  0
  160.8630  203.3090  150.4300 C   0  0  0  0  0  3  0  0  0  0  0  0
  161.1840  207.0290  152.4640 C   0  0  0  0  0  0  0  0  0  0  0  0
  161.6620  207.7280  149.8400 C   0  0  0  0  0  0  0  0  0  0  0  0
  160.8820  206.5830  154.1670 S   0  0  0  0  0  0  0  0  0  0  0  0
  160.9500  208.3250  154.7090 C   0  0  0  0  0  2  0  0  0  0  0  0
  161.5640  208.4810  156.0990 C   0  0  2  0  0  3  0  0  0  0  0  0
  160.5190  208.2830  157.1900 C   0  0  0  0  0  1  0  0  0  0  0  0
  162.3270  209.7700  156.2390 C   0  0  0  0  0  0  0  0  0  0  0  0
  162.2940  210.7020  155.2060 O   0  0  0  0  0  0  0  0  0  0  0  0
  163.0310  210.0010  157.2610 O   0  0  0  0  0  1  0  0  0  0  0  0
  1  4  1  0  0  0  0
  1  2  2  0  0  0  0
  2 11  1  0  0  0  0
  3 13  2  0  0  0  0
  3  6  1  0  0  0  0
  4 16  1  0  0  0  0
  5 12  1  0  0  0  0
  6 18  2  0  0  0  0
  7  4  2  0  0  0  0
  8  7  1  0  0  0  0
  8  5  2  0  0  0  0
  9 15  2  0  0  0  0
 10  9  1  0  0  0  0
 11 17  2  0  0  0  0
 12 16  2  0  0  0  0
 13  1  1  0  0  0  0
 14 13  1  0  0  0  0
 14  7  1  0  0  0  0
 15 17  1  0  0  0  0
 17 19  1  0  0  0  0
 18  2  1  0  0  0  0
 18  9  1  0  0  0  0
 19 20  1  0  0  0  0
 20 21  1  0  0  0  0
 21 23  1  0  0  0  0
 21 22  1  1  0  0  0
 23 25  1  0  0  0  0
 24 23  2  0  0  0  0
M  END
>  <MODEL>
1

>  <REMARK>
 VINA RESULT:      -9.2      0.000      0.000
  Name = 
  4 active torsions:
  status: ('A' for Active; 'I' for Inactive)
    1  A    between atoms: C_2  and  C_21
    2  A    between atoms: S_6  and  C_15
    3  A    between atoms: S_6  and  C_23
    4  A    between atoms: C_15  and  C_21
                            x       y       z     vdW  Elec       q    Type
                         _______ _______ _______ _____ _____    ______ ____

>  <TORSDO>
F 4

$$$$
=
 OpenBabel11052422133D

 25 28  0  0  1  0  0  0  0  0999 V2000
  161.4310  205.4160  149.1500 C   0  0  0  0  0  0  0  0  0  0  0  0
  161.4410  206.3900  150.1530 C   0  0  0  0  0  0  0  0  0  0  0  0
  161.9760  207.0810  147.5190 N   0  0  0  0  0  0  0  0  0  0  0  0
  161.1810  204.0390  149.2560 C   0  0  0  0  0  0  0  0  0  0  0  0
  160.7440  201.2880  149.0660 C   0  0  0  0  0  3  0  0  0  0  0  0
  161.9870  208.0210  148.4700 N   0  0  0  0  0  0  0  0  0  0  0  0
  161.2650  203.3850  148.0250 C   0  0  0  0  0  0  0  0  0  0  0  0
  161.0500  202.0140  147.9050 C   0  0  0  0  0  3  0  0  0  0  0  0
  161.7420  208.7010  150.7790 C   0  0  0  0  0  0  0  0  0  0  0  0
  162.0410  210.1260  150.4590 C   0  0  0  0  0  1  0  0  0  0  0  0
  161.1900  206.0910  151.4540 N   0  0  0  0  0  0  0  0  0  0  0  0
  160.6570  201.9350  150.3130 C   0  0  0  0  0  3  0  0  0  0  0  0
  161.7000  205.7950  147.8450 C   0  0  0  0  0  0  0  0  0  0  0  0
  161.6450  204.4780  146.7950 S   0  0  0  0  0  0  0  0  0  0  0  0
  161.4820  208.3490  152.0660 N   0  0  0  0  0  0  0  0  0  0  0  0
  160.8740  203.3180  150.4150 C   0  0  0  0  0  3  0  0  0  0  0  0
  161.2120  207.0590  152.4060 C   0  0  0  0  0  0  0  0  0  0  0  0
  161.7280  207.7200  149.7800 C   0  0  0  0  0  0  0  0  0  0  0  0
  160.8860  206.6380  154.1110 S   0  0  0  0  0  0  0  0  0  0  0  0
  161.1170  208.3640  154.6560 C   0  0  0  0  0  2  0  0  0  0  0  0
  160.7000  208.5790  156.1100 C   0  0  2  0  0  3  0  0  0  0  0  0
  159.9580  207.3650  156.6560 C   0  0  0  0  0  1  0  0  0  0  0  0
  159.9460  209.8670  156.2990 C   0  0  0  0  0  0  0  0  0  0  0  0
  160.4530  210.8390  157.1560 O   0  0  0  0  0  1  0  0  0  0  0  0
  158.8390  210.0630  155.7240 O   0  0  0  0  0  0  0  0  0  0  0  0
  1  4  1  0  0  0  0
  1  2  2  0  0  0  0
  2 11  1  0  0  0  0
  3 13  2  0  0  0  0
  3  6  1  0  0  0  0
  4 16  1  0  0  0  0
  5 12  1  0  0  0  0
  6 18  2  0  0  0  0
  7  4  2  0  0  0  0
  8  7  1  0  0  0  0
  8  5  2  0  0  0  0
  9 15  2  0  0  0  0
 10  9  1  0  0  0  0
 11 17  2  0  0  0  0
 12 16  2  0  0  0  0
 13  1  1  0  0  0  0
 14 13  1  0  0  0  0
 14  7  1  0  0  0  0
 15 17  1  0  0  0  0
 17 19  1  0  0  0  0
 18  2  1  0  0  0  0
 18  9  1  0  0  0  0
 19 20  1  0  0  0  0
 20 21  1  0  0  0  0
 21 23  1  0  0  0  0
 21 22  1  6  0  0  0
 23 24  1  0  0  0  0
 25 23  2  0  0  0  0
M  END
>  <MODEL>
2

>  <REMARK>
 VINA RESULT:      -9.2      1.016      1.186
  Name = 
  4 active torsions:
  status: ('A' for Active; 'I' for Inactive)
    1  A    between atoms: C_2  and  C_21
    2  A    between atoms: S_6  and  C_15
    3  A    between atoms: S_6  and  C_23
    4  A    between atoms: C_15  and  C_21
                            x       y       z     vdW  Elec       q    Type
                         _______ _______ _______ _____ _____    ______ ____

>  <TORSDO>
F 4

$$$$
=
 OpenBabel11052422133D

 25 28  0  0  1  0  0  0  0  0999 V2000
  161.4210  205.0550  148.5980 C   0  0  0  0  0  0  0  0  0  0  0  0
  161.4620  206.2470  149.3280 C   0  0  0  0  0  0  0  0  0  0  0  0
  161.9250  206.2600  146.5920 N   0  0  0  0  0  0  0  0  0  0  0  0
  161.1700  203.7500  149.0480 C   0  0  0  0  0  0  0  0  0  0  0  0
  160.7200  201.0410  149.5560 C   0  0  0  0  0  3  0  0  0  0  0  0
  161.9650  207.4060  147.2800 N   0  0  0  0  0  0  0  0  0  0  0  0
  161.2170  202.8110  148.0150 C   0  0  0  0  0  0  0  0  0  0  0  0
  160.9960  201.4550  148.2440 C   0  0  0  0  0  3  0  0  0  0  0  0
  161.7870  208.6370  149.3540 C   0  0  0  0  0  0  0  0  0  0  0  0
  162.0820  209.9360  148.6830 C   0  0  0  0  0  1  0  0  0  0  0  0
  161.2470  206.2810  150.6680 N   0  0  0  0  0  0  0  0  0  0  0  0
  160.6700  201.9780  150.6060 C   0  0  0  0  0  3  0  0  0  0  0  0
  161.6540  205.0970  147.2330 C   0  0  0  0  0  0  0  0  0  0  0  0
  161.5660  203.5620  146.5440 S   0  0  0  0  0  0  0  0  0  0  0  0
  161.5630  208.6170  150.6940 N   0  0  0  0  0  0  0  0  0  0  0  0
  160.8940  203.3410  150.3570 C   0  0  0  0  0  3  0  0  0  0  0  0
  161.2980  207.4550  151.3500 C   0  0  0  0  0  0  0  0  0  0  0  0
  161.7420  207.4400  148.6290 C   0  0  0  0  0  0  0  0  0  0  0  0
  161.0190  207.4710  153.1140 S   0  0  0  0  0  0  0  0  0  0  0  0
  161.5470  209.2130  153.2540 C   0  0  0  0  0  2  0  0  0  0  0  0
  160.4800  210.0980  153.8950 C   0  0  2  0  0  3  0  0  0  0  0  0
  159.6290  210.7900  152.8370 C   0  0  0  0  0  1  0  0  0  0  0  0
  161.0650  211.0520  154.9000 C   0  0  0  0  0  0  0  0  0  0  0  0
  162.3580  210.8430  155.3720 O   0  0  0  0  0  1  0  0  0  0  0  0
  160.3870  212.0150  155.3550 O   0  0  0  0  0  0  0  0  0  0  0  0
  1  4  1  0  0  0  0
  1  2  2  0  0  0  0
  2 11  1  0  0  0  0
  3 13  2  0  0  0  0
  3  6  1  0  0  0  0
  4 16  1  0  0  0  0
  5 12  1  0  0  0  0
  6 18  2  0  0  0  0
  7  8  1  0  0  0  0
  7  4  2  0  0  0  0
  8  5  2  0  0  0  0
  9 15  2  0  0  0  0
 10  9  1  0  0  0  0
 11 17  2  0  0  0  0
 13  1  1  0  0  0  0
 14 13  1  0  0  0  0
 14  7  1  0  0  0  0
 15 17  1  0  0  0  0
 16 12  2  0  0  0  0
 17 19  1  0  0  0  0
 18  2  1  0  0  0  0
 18  9  1  0  0  0  0
 19 20  1  0  0  0  0
 20 21  1  0  0  0  0
 21 22  1  6  0  0  0
 21 23  1  0  0  0  0
 23 25  2  0  0  0  0
 23 24  1  0  0  0  0
M  END
>  <MODEL>
3

>  <REMARK>
 VINA RESULT:      -8.9      1.471      1.784
  Name = 
  4 active torsions:
  status: ('A' for Active; 'I' for Inactive)
    1  A    between atoms: C_2  and  C_21
    2  A    between atoms: S_6  and  C_15
    3  A    between atoms: S_6  and  C_23
    4  A    between atoms: C_15  and  C_21
                            x       y       z     vdW  Elec       q    Type
                         _______ _______ _______ _____ _____    ______ ____

>  <TORSDO>
F 4

$$$$
=
 OpenBabel11052422133D

 25 28  0  0  1  0  0  0  0  0999 V2000
  161.1990  208.4800  152.9070 C   0  0  0  0  0  0  0  0  0  0  0  0
  161.3130  207.5840  151.8400 C   0  0  0  0  0  0  0  0  0  0  0  0
  161.8190  210.2870  151.4640 N   0  0  0  0  0  0  0  0  0  0  0  0
  160.8400  208.2280  154.2400 C   0  0  0  0  0  0  0  0  0  0  0  0
  160.1740  208.1230  156.9500 C   0  0  0  0  0  3  0  0  0  0  0  0
  161.9330  209.4390  150.4370 N   0  0  0  0  0  0  0  0  0  0  0  0
  160.8310  209.3860  155.0190 C   0  0  0  0  0  0  0  0  0  0  0  0
  160.5030  209.3590  156.3720 C   0  0  0  0  0  3  0  0  0  0  0  0
  161.8060  207.2090  149.5080 C   0  0  0  0  0  0  0  0  0  0  0  0
  162.1980  207.6830  148.1490 C   0  0  0  0  0  1  0  0  0  0  0  0
  161.0680  206.2560  151.9810 N   0  0  0  0  0  0  0  0  0  0  0  0
  160.1780  206.9480  156.1740 C   0  0  0  0  0  3  0  0  0  0  0  0
  161.4610  209.8220  152.6860 C   0  0  0  0  0  0  0  0  0  0  0  0
  161.2610  210.7300  154.0910 S   0  0  0  0  0  0  0  0  0  0  0  0
  161.5520  205.8880  149.7030 N   0  0  0  0  0  0  0  0  0  0  0  0
  160.5120  206.9930  154.8120 C   0  0  0  0  0  3  0  0  0  0  0  0
  161.1830  205.4110  150.9230 C   0  0  0  0  0  0  0  0  0  0  0  0
  161.6920  208.0990  150.5820 C   0  0  0  0  0  0  0  0  0  0  0  0
  160.8480  203.6700  151.1350 S   0  0  0  0  0  0  0  0  0  0  0  0
  160.7870  203.3900  149.3320 C   0  0  0  0  0  2  0  0  0  0  0  0
  160.4260  201.9490  148.9760 C   0  0  2  0  0  3  0  0  0  0  0  0
  160.8130  200.9900  150.0960 C   0  0  0  0  0  1  0  0  0  0  0  0
  160.9730  201.5430  147.6350 C   0  0  0  0  0  0  0  0  0  0  0  0
  161.4720  200.2560  147.4590 O   0  0  0  0  0  1  0  0  0  0  0  0
  161.0250  202.3650  146.6780 O   0  0  0  0  0  0  0  0  0  0  0  0
  1  4  1  0  0  0  0
  2 11  1  0  0  0  0
  2  1  1  0  0  0  0
  3 13  1  0  0  0  0
  4 16  2  0  0  0  0
  4  7  1  0  0  0  0
  6 18  1  0  0  0  0
  6  3  2  0  0  0  0
  7  8  2  0  0  0  0
  8  5  1  0  0  0  0
  9 15  2  0  0  0  0
  9 18  1  0  0  0  0
 10  9  1  0  0  0  0
 12  5  2  0  0  0  0
 13  1  2  0  0  0  0
 13 14  1  0  0  0  0
 14  7  1  0  0  0  0
 15 17  1  0  0  0  0
 16 12  1  0  0  0  0
 17 19  1  0  0  0  0
 17 11  2  0  0  0  0
 18  2  2  0  0  0  0
 20 19  1  0  0  0  0
 21 20  1  0  0  0  0
 21 22  1  1  0  0  0
 23 21  1  0  0  0  0
 24 23  1  0  0  0  0
 25 23  2  0  0  0  0
M  END
>  <MODEL>
4

>  <REMARK>
 VINA RESULT:      -8.7      3.986      7.573
  Name = 
  4 active torsions:
  status: ('A' for Active; 'I' for Inactive)
    1  A    between atoms: C_2  and  C_21
    2  A    between atoms: S_6  and  C_15
    3  A    between atoms: S_6  and  C_23
    4  A    between atoms: C_15  and  C_21
                            x       y       z     vdW  Elec       q    Type
                         _______ _______ _______ _____ _____    ______ ____

>  <TORSDO>
F 4

$$$$
=
 OpenBabel11052422133D

 25 28  0  0  1  0  0  0  0  0999 V2000
  161.2930  204.5280  149.2080 C   0  0  0  0  0  0  0  0  0  0  0  0
  161.3770  205.5210  150.1890 C   0  0  0  0  0  0  0  0  0  0  0  0
  160.8730  202.8850  150.8970 N   0  0  0  0  0  0  0  0  0  0  0  0
  161.4270  204.6460  147.8160 C   0  0  0  0  0  0  0  0  0  0  0  0
  161.6260  204.4820  145.0360 C   0  0  0  0  0  3  0  0  0  0  0  0
  160.9520  203.8260  151.8440 N   0  0  0  0  0  0  0  0  0  0  0  0
  161.2740  203.4240  147.1600 C   0  0  0  0  0  0  0  0  0  0  0  0
  161.3690  203.3170  145.7740 C   0  0  0  0  0  3  0  0  0  0  0  0
  161.2800  206.1240  152.5240 C   0  0  0  0  0  0  0  0  0  0  0  0
  161.0990  205.7920  153.9660 C   0  0  0  0  0  1  0  0  0  0  0  0
  161.6160  206.8220  149.8830 N   0  0  0  0  0  0  0  0  0  0  0  0
  161.7820  205.7210  145.6860 C   0  0  0  0  0  3  0  0  0  0  0  0
  161.0430  203.2220  149.5960 C   0  0  0  0  0  0  0  0  0  0  0  0
  160.9740  202.1860  148.2690 S   0  0  0  0  0  0  0  0  0  0  0  0
  161.5230  207.4120  152.1640 N   0  0  0  0  0  0  0  0  0  0  0  0
  161.6830  205.8100  147.0830 C   0  0  0  0  0  3  0  0  0  0  0  0
  161.6870  207.7640  150.8590 C   0  0  0  0  0  0  0  0  0  0  0  0
  161.1990  205.1360  151.5350 C   0  0  0  0  0  0  0  0  0  0  0  0
  161.9950  209.4700  150.4290 S   0  0  0  0  0  0  0  0  0  0  0  0
  162.0030  209.9850  152.1800 C   0  0  0  0  0  2  0  0  0  0  0  0
  160.6420  210.4990  152.6450 C   0  0  2  0  0  3  0  0  0  0  0  0
  160.2950  211.8230  151.9740 C   0  0  0  0  0  1  0  0  0  0  0  0
  160.5380  210.5510  154.1440 C   0  0  0  0  0  0  0  0  0  0  0  0
  160.2900  209.3810  154.8550 O   0  0  0  0  0  1  0  0  0  0  0  0
  160.6310  211.6460  154.7660 O   0  0  0  0  0  0  0  0  0  0  0  0
  1 13  1  0  0  0  0
  1  2  2  0  0  0  0
  2 18  1  0  0  0  0
  3  6  1  0  0  0  0
  4  1  1  0  0  0  0
  5 12  2  0  0  0  0
  5  8  1  0  0  0  0
  7  4  1  0  0  0  0
  7 14  1  0  0  0  0
  8  7  2  0  0  0  0
  9 10  1  0  0  0  0
 11  2  1  0  0  0  0
 11 17  2  0  0  0  0
 12 16  1  0  0  0  0
 13  3  2  0  0  0  0
 14 13  1  0  0  0  0
 15  9  2  0  0  0  0
 16  4  2  0  0  0  0
 17 15  1  0  0  0  0
 18  6  2  0  0  0  0
 18  9  1  0  0  0  0
 19 17  1  0  0  0  0
 19 20  1  0  0  0  0
 20 21  1  0  0  0  0
 21 22  1  6  0  0  0
 21 23  1  0  0  0  0
 23 25  2  0  0  0  0
 23 24  1  0  0  0  0
M  END
>  <MODEL>
5

>  <REMARK>
 VINA RESULT:      -8.5      2.161      3.735
  Name = 
  4 active torsions:
  status: ('A' for Active; 'I' for Inactive)
    1  A    between atoms: C_2  and  C_21
    2  A    between atoms: S_6  and  C_15
    3  A    between atoms: S_6  and  C_23
    4  A    between atoms: C_15  and  C_21
                            x       y       z     vdW  Elec       q    Type
                         _______ _______ _______ _____ _____    ______ ____

>  <TORSDO>
F 4

$$$$
=
 OpenBabel11052422133D

 25 28  0  0  1  0  0  0  0  0999 V2000
  161.1000  206.5650  152.1270 C   0  0  0  0  0  0  0  0  0  0  0  0
  161.0920  205.7940  150.9610 C   0  0  0  0  0  0  0  0  0  0  0  0
  160.9040  204.5790  153.4490 N   0  0  0  0  0  0  0  0  0  0  0  0
  161.1980  207.9580  152.2670 C   0  0  0  0  0  0  0  0  0  0  0  0
  161.3720  210.6620  152.9440 C   0  0  0  0  0  3  0  0  0  0  0  0
  160.8940  203.8320  152.3400 N   0  0  0  0  0  0  0  0  0  0  0  0
  161.1750  208.3630  153.6030 C   0  0  0  0  0  0  0  0  0  0  0  0
  161.2600  209.7060  153.9650 C   0  0  0  0  0  3  0  0  0  0  0  0
  160.9790  203.6150  149.9320 C   0  0  0  0  0  0  0  0  0  0  0  0
  160.8720  202.1290  149.9970 C   0  0  0  0  0  1  0  0  0  0  0  0
  161.1880  206.3510  149.7260 N   0  0  0  0  0  0  0  0  0  0  0  0
  161.3970  210.2650  151.5930 C   0  0  0  0  0  3  0  0  0  0  0  0
  161.0020  205.9270  153.3530 C   0  0  0  0  0  0  0  0  0  0  0  0
  161.0350  207.0290  154.6280 S   0  0  0  0  0  0  0  0  0  0  0  0
  161.0760  204.2210  148.7200 N   0  0  0  0  0  0  0  0  0  0  0  0
  161.3090  208.9080  151.2460 C   0  0  0  0  0  3  0  0  0  0  0  0
  161.1830  205.5740  148.6120 C   0  0  0  0  0  0  0  0  0  0  0  0
  160.9850  204.3940  151.0950 C   0  0  0  0  0  0  0  0  0  0  0  0
  161.3180  206.3310  147.0000 S   0  0  0  0  0  0  0  0  0  0  0  0
  162.3450  204.9620  146.3650 C   0  0  0  0  0  2  0  0  0  0  0  0
  161.8400  204.4230  145.0270 C   0  0  2  0  0  3  0  0  0  0  0  0
  161.2510  205.5370  144.1710 C   0  0  0  0  0  1  0  0  0  0  0  0
  160.9060  203.2560  145.2030 C   0  0  0  0  0  0  0  0  0  0  0  0
  161.1980  202.2820  146.1530 O   0  0  0  0  0  1  0  0  0  0  0  0
  159.8850  203.1250  144.4730 O   0  0  0  0  0  0  0  0  0  0  0  0
  1  4  1  0  0  0  0
  1 13  2  0  0  0  0
  2 18  2  0  0  0  0
  2  1  1  0  0  0  0
  4  7  1  0  0  0  0
  5  8  1  0  0  0  0
  6  3  2  0  0  0  0
  7  8  2  0  0  0  0
  7 14  1  0  0  0  0
  9 10  1  0  0  0  0
  9 18  1  0  0  0  0
 11  2  1  0  0  0  0
 12  5  2  0  0  0  0
 13  3  1  0  0  0  0
 13 14  1  0  0  0  0
 15  9  2  0  0  0  0
 16 12  1  0  0  0  0
 16  4  2  0  0  0  0
 17 15  1  0  0  0  0
 17 11  2  0  0  0  0
 18  6  1  0  0  0  0
 19 17  1  0  0  0  0
 20 19  1  0  0  0  0
 21 22  1  1  0  0  0
 21 23  1  0  0  0  0
 21 20  1  0  0  0  0
 23 24  1  0  0  0  0
 25 23  2  0  0  0  0
M  END
>  <MODEL>
6

>  <REMARK>
 VINA RESULT:      -8.5      4.082      8.279
  Name = 
  4 active torsions:
  status: ('A' for Active; 'I' for Inactive)
    1  A    between atoms: C_2  and  C_21
    2  A    between atoms: S_6  and  C_15
    3  A    between atoms: S_6  and  C_23
    4  A    between atoms: C_15  and  C_21
                            x       y       z     vdW  Elec       q    Type
                         _______ _______ _______ _____ _____    ______ ____

>  <TORSDO>
F 4

$$$$
=
 OpenBabel11052422133D

 25 28  0  0  1  0  0  0  0  0999 V2000
  161.1200  204.3560  149.8530 C   0  0  0  0  0  0  0  0  0  0  0  0
  161.2780  205.6720  150.2970 C   0  0  0  0  0  0  0  0  0  0  0  0
  160.7730  203.6300  152.1070 N   0  0  0  0  0  0  0  0  0  0  0  0
  161.1720  203.8510  148.5440 C   0  0  0  0  0  0  0  0  0  0  0  0
  161.2040  202.4860  146.1090 C   0  0  0  0  0  3  0  0  0  0  0  0
  160.9240  204.8850  152.5440 N   0  0  0  0  0  0  0  0  0  0  0  0
  160.9600  202.4730  148.4950 C   0  0  0  0  0  0  0  0  0  0  0  0
  160.9720  201.7690  147.2930 C   0  0  0  0  0  3  0  0  0  0  0  0
  161.3300  207.2340  152.1350 C   0  0  0  0  0  0  0  0  0  0  0  0
  161.2300  207.5700  153.5850 C   0  0  0  0  0  1  0  0  0  0  0  0
  161.5210  206.7000  149.4430 N   0  0  0  0  0  0  0  0  0  0  0  0
  161.4190  203.8770  146.1450 C   0  0  0  0  0  3  0  0  0  0  0  0
  160.8710  203.3600  150.7830 C   0  0  0  0  0  0  0  0  0  0  0  0
  160.7060  201.8540  150.0460 S   0  0  0  0  0  0  0  0  0  0  0  0
  161.5740  208.2270  151.2390 N   0  0  0  0  0  0  0  0  0  0  0  0
  161.4050  204.5690  147.3660 C   0  0  0  0  0  3  0  0  0  0  0  0
  161.6660  207.9690  149.9050 C   0  0  0  0  0  0  0  0  0  0  0  0
  161.1750  205.9190  151.6830 C   0  0  0  0  0  0  0  0  0  0  0  0
  161.9760  209.3030  148.7590 S   0  0  0  0  0  0  0  0  0  0  0  0
  161.9350  210.5510  150.0910 C   0  0  0  0  0  2  0  0  0  0  0  0
  161.8370  211.9770  149.5530 C   0  0  2  0  0  3  0  0  0  0  0  0
  160.5150  212.6250  149.9450 C   0  0  0  0  0  1  0  0  0  0  0  0
  162.1140  212.0460  148.0760 C   0  0  0  0  0  0  0  0  0  0  0  0
  163.4280  212.1330  147.6280 O   0  0  0  0  0  1  0  0  0  0  0  0
  161.1700  212.0670  147.2380 O   0  0  0  0  0  0  0  0  0  0  0  0
  1  2  2  0  0  0  0
  1 13  1  0  0  0  0
  2 18  1  0  0  0  0
  3  6  1  0  0  0  0
  4  1  1  0  0  0  0
  5 12  2  0  0  0  0
  5  8  1  0  0  0  0
  7  4  1  0  0  0  0
  7 14  1  0  0  0  0
  8  7  2  0  0  0  0
  9 10  1  0  0  0  0
 11 17  2  0  0  0  0
 11  2  1  0  0  0  0
 12 16  1  0  0  0  0
 13  3  2  0  0  0  0
 14 13  1  0  0  0  0
 15  9  2  0  0  0  0
 16  4  2  0  0  0  0
 17 15  1  0  0  0  0
 18  9  1  0  0  0  0
 18  6  2  0  0  0  0
 19 17  1  0  0  0  0
 19 20  1  0  0  0  0
 21 22  1  6  0  0  0
 21 20  1  0  0  0  0
 23 21  1  0  0  0  0
 24 23  1  0  0  0  0
 25 23  2  0  0  0  0
M  END
>  <MODEL>
7

>  <REMARK>
 VINA RESULT:      -8.4      3.298      4.960
  Name = 
  4 active torsions:
  status: ('A' for Active; 'I' for Inactive)
    1  A    between atoms: C_2  and  C_21
    2  A    between atoms: S_6  and  C_15
    3  A    between atoms: S_6  and  C_23
    4  A    between atoms: C_15  and  C_21
                            x       y       z     vdW  Elec       q    Type
                         _______ _______ _______ _____ _____    ______ ____

>  <TORSDO>
F 4

$$$$
=
 OpenBabel11052422133D

 25 28  0  0  1  0  0  0  0  0999 V2000
  161.4610  206.4470  149.8320 C   0  0  0  0  0  0  0  0  0  0  0  0
  161.6330  207.7860  150.1980 C   0  0  0  0  0  0  0  0  0  0  0  0
  161.6710  207.0450  147.5240 N   0  0  0  0  0  0  0  0  0  0  0  0
  161.2600  205.3250  150.6500 C   0  0  0  0  0  0  0  0  0  0  0  0
  160.8490  202.8790  151.9330 C   0  0  0  0  0  3  0  0  0  0  0  0
  161.8350  208.3290  147.8630 N   0  0  0  0  0  0  0  0  0  0  0  0
  161.1340  204.1450  149.9160 C   0  0  0  0  0  0  0  0  0  0  0  0
  160.9280  202.9130  150.5320 C   0  0  0  0  0  3  0  0  0  0  0  0
  161.9970  210.0750  149.5280 C   0  0  0  0  0  0  0  0  0  0  0  0
  162.2070  211.1300  148.4960 C   0  0  0  0  0  1  0  0  0  0  0  0
  161.6260  208.1870  151.4960 N   0  0  0  0  0  0  0  0  0  0  0  0
  160.9760  204.0620  152.6860 C   0  0  0  0  0  3  0  0  0  0  0  0
  161.4830  206.1120  148.4880 C   0  0  0  0  0  0  0  0  0  0  0  0
  161.2650  204.4570  148.2610 S   0  0  0  0  0  0  0  0  0  0  0  0
  161.9810  210.4250  150.8420 N   0  0  0  0  0  0  0  0  0  0  0  0
  161.1820  205.2950  152.0470 C   0  0  0  0  0  3  0  0  0  0  0  0
  161.8010  209.4950  151.8190 C   0  0  0  0  0  0  0  0  0  0  0  0
  161.8220  208.7330  149.1700 C   0  0  0  0  0  0  0  0  0  0  0  0
  161.7960  209.9950  153.5340 S   0  0  0  0  0  0  0  0  0  0  0  0
  160.8380  208.5230  154.0340 C   0  0  0  0  0  2  0  0  0  0  0  0
  161.1440  208.0840  155.4650 C   0  0  2  0  0  3  0  0  0  0  0  0
  160.0840  207.1210  155.9850 C   0  0  0  0  0  1  0  0  0  0  0  0
  161.3770  209.2560  156.3790 C   0  0  0  0  0  0  0  0  0  0  0  0
  162.6510  209.4840  156.8900 O   0  0  0  0  0  1  0  0  0  0  0  0
  160.4270  210.0120  156.7230 O   0  0  0  0  0  0  0  0  0  0  0  0
  1  2  1  0  0  0  0
  1  4  1  0  0  0  0
  2 11  1  0  0  0  0
  3  6  2  0  0  0  0
  3 13  1  0  0  0  0
  4 16  1  0  0  0  0
  5 12  1  0  0  0  0
  6 18  1  0  0  0  0
  7  8  1  0  0  0  0
  7  4  2  0  0  0  0
  8  5  2  0  0  0  0
  9 15  2  0  0  0  0
 10  9  1  0  0  0  0
 11 17  2  0  0  0  0
 13  1  2  0  0  0  0
 14 13  1  0  0  0  0
 14  7  1  0  0  0  0
 15 17  1  0  0  0  0
 16 12  2  0  0  0  0
 17 19  1  0  0  0  0
 18  9  1  0  0  0  0
 18  2  2  0  0  0  0
 19 20  1  0  0  0  0
 20 21  1  0  0  0  0
 21 22  1  1  0  0  0
 21 23  1  0  0  0  0
 23 25  2  0  0  0  0
 23 24  1  0  0  0  0
M  END
>  <MODEL>
8

>  <REMARK>
 VINA RESULT:      -8.3      1.517      2.079
  Name = 
  4 active torsions:
  status: ('A' for Active; 'I' for Inactive)
    1  A    between atoms: C_2  and  C_21
    2  A    between atoms: S_6  and  C_15
    3  A    between atoms: S_6  and  C_23
    4  A    between atoms: C_15  and  C_21
                            x       y       z     vdW  Elec       q    Type
                         _______ _______ _______ _____ _____    ______ ____

>  <TORSDO>
F 4

$$$$
=
 OpenBabel11052422133D

 25 28  0  0  1  0  0  0  0  0999 V2000
  161.2890  204.4350  149.2470 C   0  0  0  0  0  0  0  0  0  0  0  0
  161.3520  205.3740  150.2800 C   0  0  0  0  0  0  0  0  0  0  0  0
  160.8950  202.6960  150.8440 N   0  0  0  0  0  0  0  0  0  0  0  0
  161.4240  204.6290  147.8640 C   0  0  0  0  0  0  0  0  0  0  0  0
  161.6350  204.6170  145.0790 C   0  0  0  0  0  3  0  0  0  0  0  0
  160.9550  203.5860  151.8410 N   0  0  0  0  0  0  0  0  0  0  0  0
  161.2960  203.4410  147.1420 C   0  0  0  0  0  0  0  0  0  0  0  0
  161.3970  203.4090  145.7540 C   0  0  0  0  0  3  0  0  0  0  0  0
  161.2380  205.8500  152.6430 C   0  0  0  0  0  0  0  0  0  0  0  0
  161.0590  205.4380  154.0650 C   0  0  0  0  0  1  0  0  0  0  0  0
  161.5680  206.6940  150.0440 N   0  0  0  0  0  0  0  0  0  0  0  0
  161.7650  205.8220  145.7950 C   0  0  0  0  0  3  0  0  0  0  0  0
  161.0620  203.1050  149.5630 C   0  0  0  0  0  0  0  0  0  0  0  0
  161.0160  202.1400  148.1830 S   0  0  0  0  0  0  0  0  0  0  0  0
  161.4580  207.1600  152.3530 N   0  0  0  0  0  0  0  0  0  0  0  0
  161.6610  205.8350  147.1950 C   0  0  0  0  0  3  0  0  0  0  0  0
  161.6190  207.5840  151.0700 C   0  0  0  0  0  0  0  0  0  0  0  0
  161.1780  204.9150  151.6030 C   0  0  0  0  0  0  0  0  0  0  0  0
  161.8960  209.3160  150.7320 S   0  0  0  0  0  0  0  0  0  0  0  0
  160.6360  209.8280  151.9490 C   0  0  0  0  0  2  0  0  0  0  0  0
  161.1440  210.9160  152.8940 C   0  0  2  0  0  3  0  0  0  0  0  0
  161.5320  210.3340  154.2480 C   0  0  0  0  0  1  0  0  0  0  0  0
  160.1830  212.0680  152.9990 C   0  0  0  0  0  0  0  0  0  0  0  0
  159.8420  212.7830  151.8560 O   0  0  0  0  0  0  0  0  0  0  0  0
  159.7130  212.4230  154.1160 O   0  0  0  0  0  1  0  0  0  0  0  0
  1 13  1  0  0  0  0
  1  2  2  0  0  0  0
  2 18  1  0  0  0  0
  3  6  1  0  0  0  0
  4  1  1  0  0  0  0
  5  8  2  0  0  0  0
  5 12  1  0  0  0  0
  7  4  2  0  0  0  0
  7 14  1  0  0  0  0
  8  7  1  0  0  0  0
  9 10  1  0  0  0  0
 11  2  1  0  0  0  0
 11 17  2  0  0  0  0
 12 16  2  0  0  0  0
 13  3  2  0  0  0  0
 14 13  1  0  0  0  0
 15  9  2  0  0  0  0
 16  4  1  0  0  0  0
 17 15  1  0  0  0  0
 18  6  2  0  0  0  0
 18  9  1  0  0  0  0
 19 17  1  0  0  0  0
 19 20  1  0  0  0  0
 20 21  1  0  0  0  0
 21 23  1  0  0  0  0
 21 22  1  1  0  0  0
 23 25  1  0  0  0  0
 24 23  2  0  0  0  0
M  END
>  <MODEL>
9

>  <REMARK>
 VINA RESULT:      -8.2      2.420      3.842
  Name = 
  4 active torsions:
  status: ('A' for Active; 'I' for Inactive)
    1  A    between atoms: C_2  and  C_21
    2  A    between atoms: S_6  and  C_15
    3  A    between atoms: S_6  and  C_23
    4  A    between atoms: C_15  and  C_21
                            x       y       z     vdW  Elec       q    Type
                         _______ _______ _______ _____ _____    ______ ____

>  <TORSDO>
F 4

$$$$
