=
 OpenBabel11062407413D

 27 31  0  0  1  0  0  0  0  0999 V2000
  162.0230  208.7310  152.4380 C   0  0  0  0  0  2  0  0  0  0  0  0
  160.9700  206.5190  152.3890 N   0  0  0  0  0  0  0  0  0  0  0  0
  161.2780  207.0370  149.9640 N   0  0  0  0  0  0  0  0  0  0  0  0
  160.7560  205.4070  153.0800 N   0  0  0  0  0  0  0  0  0  0  0  0
  161.9680  210.2530  149.1480 C   0  0  0  0  0  0  0  0  0  0  0  0
  160.8930  207.8670  152.9580 C   0  0  1  0  0  3  0  0  0  0  0  0
  161.0020  204.7890  151.0330 C   0  0  0  0  0  0  0  0  0  0  0  0
  161.7230  209.1410  151.0820 N   0  0  0  0  0  0  0  0  0  0  0  0
  161.1180  206.1640  151.0950 C   0  0  0  0  0  0  0  0  0  0  0  0
  161.6660  209.0560  148.7470 N   0  0  0  0  0  0  0  0  0  0  0  0
  160.7800  204.3440  152.2870 N   0  0  0  0  0  0  0  0  0  0  0  0
  162.0590  210.3930  150.5690 N   0  0  0  0  0  2  0  0  0  0  0  0
  161.5120  208.3150  149.9500 C   0  0  0  0  0  0  0  0  0  0  0  0
  160.7700  202.5490  149.9690 C   0  0  0  0  0  3  0  0  0  0  0  0
  161.2180  202.2160  147.6140 C   0  0  0  0  0  3  0  0  0  0  0  0
  161.5280  203.5710  147.4820 C   0  0  0  0  0  3  0  0  0  0  0  0
  161.4590  204.4150  148.5940 C   0  0  0  0  0  3  0  0  0  0  0  0
  161.0790  203.9120  149.8470 C   0  0  0  0  0  0  0  0  0  0  0  0
  160.8390  201.7040  148.8570 C   0  0  0  0  0  3  0  0  0  0  0  0
  160.9180  207.8760  157.2610 C   0  0  0  0  0  3  0  0  0  0  0  0
  160.8950  207.8520  154.4590 C   0  0  0  0  0  0  0  0  0  0  0  0
  161.7200  208.7480  155.1480 C   0  0  0  0  0  3  0  0  0  0  0  0
  161.7330  208.7590  156.5460 C   0  0  0  0  0  3  0  0  0  0  0  0
  160.0910  206.9800  156.5780 C   0  0  0  0  0  3  0  0  0  0  0  0
  160.0780  206.9680  155.1800 C   0  0  0  0  0  3  0  0  0  0  0  0
  161.5750  212.6310  148.6630 C   0  0  0  0  0  1  0  0  0  0  0  0
  162.2670  211.3630  148.2040 C   0  0  0  0  0  2  0  0  0  0  0  0
  1  6  1  0  0  0  0
  2  6  1  0  0  0  0
  2  4  1  0  0  0  0
  3  9  1  0  0  0  0
  5 12  1  0  0  0  0
  6 21  1  1  0  0  0
  7  9  2  0  0  0  0
  7 11  1  0  0  0  0
  8  1  1  0  0  0  0
  9  2  1  0  0  0  0
 10  5  2  0  0  0  0
 10 13  1  0  0  0  0
 11  4  2  0  0  0  0
 12  8  1  0  0  0  0
 13  3  2  0  0  0  0
 13  8  1  0  0  0  0
 15 19  1  0  0  0  0
 16 15  2  0  0  0  0
 16 17  1  0  0  0  0
 17 18  2  0  0  0  0
 18 14  1  0  0  0  0
 18  7  1  0  0  0  0
 19 14  2  0  0  0  0
 21 22  2  0  0  0  0
 21 25  1  0  0  0  0
 22 23  1  0  0  0  0
 23 20  2  0  0  0  0
 24 20  1  0  0  0  0
 25 24  2  0  0  0  0
 27 26  1  0  0  0  0
 27  5  1  0  0  0  0
M  END
>  <MODEL>
1

>  <REMARK>
 VINA RESULT:      -9.7      0.000      0.000
  Name = 
  3 active torsions:
  status: ('A' for Active; 'I' for Inactive)
    1  A    between atoms: C_9  and  C_15
    2  A    between atoms: C_13  and  C_22
    3  A    between atoms: C_14  and  C_17
                            x       y       z     vdW  Elec       q    Type
                         _______ _______ _______ _____ _____    ______ ____

>  <TORSDO>
F 3

$$$$
=
 OpenBabel11062407413D

 27 31  0  0  1  0  0  0  0  0999 V2000
  160.9290  206.8580  149.3520 C   0  0  0  0  0  2  0  0  0  0  0  0
  161.2940  205.9970  151.6180 N   0  0  0  0  0  0  0  0  0  0  0  0
  161.6370  208.4550  151.9000 N   0  0  0  0  0  0  0  0  0  0  0  0
  161.0400  204.9940  152.4490 N   0  0  0  0  0  0  0  0  0  0  0  0
  162.0710  210.2880  149.0820 C   0  0  0  0  0  0  0  0  0  0  0  0
  161.6380  205.8250  150.2040 C   0  0  1  0  0  3  0  0  0  0  0  0
  161.0410  206.7750  153.6580 C   0  0  0  0  0  0  0  0  0  0  0  0
  161.5970  208.1340  149.4980 N   0  0  0  0  0  0  0  0  0  0  0  0
  161.3120  207.1300  152.3510 C   0  0  0  0  0  0  0  0  0  0  0  0
  162.0920  210.2410  150.3800 N   0  0  0  0  0  0  0  0  0  0  0  0
  160.8720  205.4370  153.6870 N   0  0  0  0  0  0  0  0  0  0  0  0
  161.7420  209.0460  148.4530 N   0  0  0  0  0  2  0  0  0  0  0  0
  161.7850  208.8870  150.6830 C   0  0  0  0  0  0  0  0  0  0  0  0
  160.4360  207.1320  156.0480 C   0  0  0  0  0  3  0  0  0  0  0  0
  160.7740  209.2700  157.1310 C   0  0  0  0  0  3  0  0  0  0  0  0
  161.2910  209.7890  155.9420 C   0  0  0  0  0  3  0  0  0  0  0  0
  161.3810  208.9790  154.8060 C   0  0  0  0  0  3  0  0  0  0  0  0
  160.9550  207.6440  154.8490 C   0  0  0  0  0  0  0  0  0  0  0  0
  160.3460  207.9410  157.1840 C   0  0  0  0  0  3  0  0  0  0  0  0
  160.7940  201.8680  148.7390 C   0  0  0  0  0  3  0  0  0  0  0  0
  161.3330  204.4410  149.7080 C   0  0  0  0  0  0  0  0  0  0  0  0
  161.4640  204.1620  148.3430 C   0  0  0  0  0  3  0  0  0  0  0  0
  161.1940  202.8780  147.8590 C   0  0  0  0  0  3  0  0  0  0  0  0
  160.6630  202.1410  150.1030 C   0  0  0  0  0  3  0  0  0  0  0  0
  160.9320  203.4240  150.5890 C   0  0  0  0  0  3  0  0  0  0  0  0
  161.4240  212.6510  148.8850 C   0  0  0  0  0  1  0  0  0  0  0  0
  162.2950  211.5460  148.3220 C   0  0  0  0  0  2  0  0  0  0  0  0
  1  8  1  0  0  0  0
  1  6  1  0  0  0  0
  2  9  1  0  0  0  0
  2  4  1  0  0  0  0
  3  9  1  0  0  0  0
  4 11  2  0  0  0  0
  5 10  2  0  0  0  0
  6 21  1  6  0  0  0
  6  2  1  0  0  0  0
  7 11  1  0  0  0  0
  7 18  1  0  0  0  0
  8 13  1  0  0  0  0
  9  7  2  0  0  0  0
 10 13  1  0  0  0  0
 12  5  1  0  0  0  0
 12  8  1  0  0  0  0
 13  3  2  0  0  0  0
 14 19  1  0  0  0  0
 15 19  2  0  0  0  0
 16 15  1  0  0  0  0
 17 18  1  0  0  0  0
 17 16  2  0  0  0  0
 18 14  2  0  0  0  0
 20 24  1  0  0  0  0
 21 25  1  0  0  0  0
 22 21  2  0  0  0  0
 23 22  1  0  0  0  0
 23 20  2  0  0  0  0
 24 25  2  0  0  0  0
 27 26  1  0  0  0  0
 27  5  1  0  0  0  0
M  END
>  <MODEL>
2

>  <REMARK>
 VINA RESULT:      -9.6      0.836      6.094
  Name = 
  3 active torsions:
  status: ('A' for Active; 'I' for Inactive)
    1  A    between atoms: C_9  and  C_15
    2  A    between atoms: C_13  and  C_22
    3  A    between atoms: C_14  and  C_17
                            x       y       z     vdW  Elec       q    Type
                         _______ _______ _______ _____ _____    ______ ____

>  <TORSDO>
F 3

$$$$
=
 OpenBabel11062407413D

 27 31  0  0  1  0  0  0  0  0999 V2000
  161.0140  207.2180  149.9810 C   0  0  0  0  0  2  0  0  0  0  0  0
  161.2800  206.7660  152.3750 N   0  0  0  0  0  0  0  0  0  0  0  0
  161.6240  209.2370  152.2390 N   0  0  0  0  0  0  0  0  0  0  0  0
  160.9870  205.9230  153.3570 N   0  0  0  0  0  0  0  0  0  0  0  0
  162.1840  210.5510  149.1660 C   0  0  0  0  0  0  0  0  0  0  0  0
  161.6820  206.3510  151.0280 C   0  0  1  0  0  3  0  0  0  0  0  0
  160.9470  207.8870  154.2370 C   0  0  0  0  0  0  0  0  0  0  0  0
  161.6820  208.5020  149.9300 N   0  0  0  0  0  0  0  0  0  0  0  0
  161.2740  208.0100  152.9000 C   0  0  0  0  0  0  0  0  0  0  0  0
  162.1510  210.7320  150.4510 N   0  0  0  0  0  0  0  0  0  0  0  0
  160.7700  206.5740  154.4910 N   0  0  0  0  0  0  0  0  0  0  0  0
  161.8750  209.2180  148.7500 N   0  0  0  0  0  2  0  0  0  0  0  0
  161.8240  209.4510  150.9730 C   0  0  0  0  0  0  0  0  0  0  0  0
  161.8550  209.1680  156.1700 C   0  0  0  0  0  3  0  0  0  0  0  0
  160.5980  210.9610  157.2010 C   0  0  0  0  0  3  0  0  0  0  0  0
  159.5570  210.7520  156.2930 C   0  0  0  0  0  3  0  0  0  0  0  0
  159.6660  209.7510  155.3230 C   0  0  0  0  0  3  0  0  0  0  0  0
  160.8160  208.9500  155.2530 C   0  0  0  0  0  0  0  0  0  0  0  0
  161.7460  210.1690  157.1400 C   0  0  0  0  0  3  0  0  0  0  0  0
  160.8550  202.2050  150.2310 C   0  0  0  0  0  3  0  0  0  0  0  0
  161.3910  204.9020  150.7690 C   0  0  0  0  0  0  0  0  0  0  0  0
  160.9860  204.5060  149.4890 C   0  0  0  0  0  3  0  0  0  0  0  0
  160.7180  203.1610  149.2210 C   0  0  0  0  0  3  0  0  0  0  0  0
  161.2600  202.5940  151.5110 C   0  0  0  0  0  3  0  0  0  0  0  0
  161.5280  203.9390  151.7810 C   0  0  0  0  0  3  0  0  0  0  0  0
  161.4760  212.7960  148.4570 C   0  0  0  0  0  1  0  0  0  0  0  0
  162.4460  211.6580  148.2080 C   0  0  0  0  0  2  0  0  0  0  0  0
  1  6  1  0  0  0  0
  2  9  1  0  0  0  0
  2  4  1  0  0  0  0
  3  9  1  0  0  0  0
  4 11  2  0  0  0  0
  5 10  2  0  0  0  0
  6 21  1  6  0  0  0
  6  2  1  0  0  0  0
  7 11  1  0  0  0  0
  7 18  1  0  0  0  0
  8  1  1  0  0  0  0
  8 13  1  0  0  0  0
  9  7  2  0  0  0  0
 10 13  1  0  0  0  0
 12  5  1  0  0  0  0
 12  8  1  0  0  0  0
 13  3  2  0  0  0  0
 14 19  1  0  0  0  0
 16 15  1  0  0  0  0
 17 16  2  0  0  0  0
 18 17  1  0  0  0  0
 18 14  2  0  0  0  0
 19 15  2  0  0  0  0
 20 24  1  0  0  0  0
 21 25  1  0  0  0  0
 22 21  2  0  0  0  0
 23 22  1  0  0  0  0
 23 20  2  0  0  0  0
 24 25  2  0  0  0  0
 27 26  1  0  0  0  0
 27  5  1  0  0  0  0
M  END
>  <MODEL>
3

>  <REMARK>
 VINA RESULT:      -9.6      1.249      6.225
  Name = 
  3 active torsions:
  status: ('A' for Active; 'I' for Inactive)
    1  A    between atoms: C_9  and  C_15
    2  A    between atoms: C_13  and  C_22
    3  A    between atoms: C_14  and  C_17
                            x       y       z     vdW  Elec       q    Type
                         _______ _______ _______ _____ _____    ______ ____

>  <TORSDO>
F 3

$$$$
=
 OpenBabel11062407413D

 27 31  0  0  1  0  0  0  0  0999 V2000
  160.9260  210.2030  151.6580 C   0  0  0  0  0  2  0  0  0  0  0  0
  161.6830  208.7920  149.8030 N   0  0  0  0  0  0  0  0  0  0  0  0
  161.4080  207.1510  151.6660 N   0  0  0  0  0  0  0  0  0  0  0  0
  161.7630  208.6910  148.4820 N   0  0  0  0  0  0  0  0  0  0  0  0
  161.1260  208.4070  154.8010 C   0  0  0  0  0  0  0  0  0  0  0  0
  161.9430  210.0260  150.5500 C   0  0  1  0  0  3  0  0  0  0  0  0
  161.4070  206.6950  149.2030 C   0  0  0  0  0  0  0  0  0  0  0  0
  161.2550  209.3120  152.7520 N   0  0  0  0  0  0  0  0  0  0  0  0
  161.4710  207.5500  150.2860 C   0  0  0  0  0  0  0  0  0  0  0  0
  161.2650  207.3630  154.0410 N   0  0  0  0  0  0  0  0  0  0  0  0
  161.5900  207.4360  148.0910 N   0  0  0  0  0  0  0  0  0  0  0  0
  161.0760  209.6490  154.0930 N   0  0  0  0  0  2  0  0  0  0  0  0
  161.3400  207.8980  152.7270 C   0  0  0  0  0  0  0  0  0  0  0  0
  161.4420  204.5010  148.0240 C   0  0  0  0  0  3  0  0  0  0  0  0
  160.8120  202.4520  149.1470 C   0  0  0  0  0  3  0  0  0  0  0  0
  160.5670  203.1720  150.3200 C   0  0  0  0  0  3  0  0  0  0  0  0
  160.7600  204.5560  150.3430 C   0  0  0  0  0  3  0  0  0  0  0  0
  161.2000  205.2330  149.1960 C   0  0  0  0  0  0  0  0  0  0  0  0
  161.2490  203.1170  148.0000 C   0  0  0  0  0  3  0  0  0  0  0  0
  161.9680  213.5210  148.0390 C   0  0  0  0  0  3  0  0  0  0  0  0
  161.9620  211.2350  149.6610 C   0  0  0  0  0  0  0  0  0  0  0  0
  160.9740  212.2130  149.8200 C   0  0  0  0  0  3  0  0  0  0  0  0
  160.9760  213.3540  149.0100 C   0  0  0  0  0  3  0  0  0  0  0  0
  162.9580  212.5480  147.8770 C   0  0  0  0  0  3  0  0  0  0  0  0
  162.9570  211.4080  148.6860 C   0  0  0  0  0  3  0  0  0  0  0  0
  160.0010  207.1820  156.6110 C   0  0  0  0  0  1  0  0  0  0  0  0
  160.9580  208.3080  156.2750 C   0  0  0  0  0  2  0  0  0  0  0  0
  1  8  1  0  0  0  0
  2  9  1  0  0  0  0
  2  6  1  0  0  0  0
  3 13  2  0  0  0  0
  4  2  1  0  0  0  0
  5 27  1  0  0  0  0
  6 21  1  6  0  0  0
  6  1  1  0  0  0  0
  7  9  2  0  0  0  0
  8 12  1  0  0  0  0
  9  3  1  0  0  0  0
 10  5  2  0  0  0  0
 11  4  2  0  0  0  0
 11  7  1  0  0  0  0
 12  5  1  0  0  0  0
 13  8  1  0  0  0  0
 13 10  1  0  0  0  0
 14 18  1  0  0  0  0
 15 16  2  0  0  0  0
 16 17  1  0  0  0  0
 18  7  1  0  0  0  0
 18 17  2  0  0  0  0
 19 14  2  0  0  0  0
 19 15  1  0  0  0  0
 20 23  1  0  0  0  0
 21 22  1  0  0  0  0
 23 22  2  0  0  0  0
 24 20  2  0  0  0  0
 24 25  1  0  0  0  0
 25 21  2  0  0  0  0
 27 26  1  0  0  0  0
M  END
>  <MODEL>
4

>  <REMARK>
 VINA RESULT:      -9.4      1.296      5.616
  Name = 
  3 active torsions:
  status: ('A' for Active; 'I' for Inactive)
    1  A    between atoms: C_9  and  C_15
    2  A    between atoms: C_13  and  C_22
    3  A    between atoms: C_14  and  C_17
                            x       y       z     vdW  Elec       q    Type
                         _______ _______ _______ _____ _____    ______ ____

>  <TORSDO>
F 3

$$$$
=
 OpenBabel11062407413D

 27 31  0  0  1  0  0  0  0  0999 V2000
  160.9930  210.7690  151.4830 C   0  0  0  0  0  2  0  0  0  0  0  0
  161.7070  209.1580  149.7800 N   0  0  0  0  0  0  0  0  0  0  0  0
  161.4350  207.7290  151.8110 N   0  0  0  0  0  0  0  0  0  0  0  0
  161.7680  208.9150  148.4770 N   0  0  0  0  0  0  0  0  0  0  0  0
  161.2120  209.3160  154.7970 C   0  0  0  0  0  0  0  0  0  0  0  0
  161.9920  210.4600  150.3880 C   0  0  1  0  0  3  0  0  0  0  0  0
  161.3960  207.0120  149.4120 C   0  0  0  0  0  0  0  0  0  0  0  0
  161.3250  209.9960  152.6620 N   0  0  0  0  0  0  0  0  0  0  0  0
  161.4850  207.9770  150.3960 C   0  0  0  0  0  0  0  0  0  0  0  0
  161.3270  208.1950  154.1520 N   0  0  0  0  0  0  0  0  0  0  0  0
  161.5730  207.6280  148.2250 N   0  0  0  0  0  0  0  0  0  0  0  0
  161.1680  210.4760  153.9610 N   0  0  0  0  0  2  0  0  0  0  0  0
  161.3910  208.5860  152.7870 C   0  0  0  0  0  0  0  0  0  0  0  0
  160.8540  205.0340  150.8250 C   0  0  0  0  0  3  0  0  0  0  0  0
  160.7350  202.8060  149.8870 C   0  0  0  0  0  3  0  0  0  0  0  0
  161.0490  203.3210  148.6270 C   0  0  0  0  0  3  0  0  0  0  0  0
  161.2650  204.6920  148.4670 C   0  0  0  0  0  3  0  0  0  0  0  0
  161.1690  205.5610  149.5640 C   0  0  0  0  0  0  0  0  0  0  0  0
  160.6370  203.6630  150.9860 C   0  0  0  0  0  3  0  0  0  0  0  0
  162.0930  213.6050  147.4530 C   0  0  0  0  0  3  0  0  0  0  0  0
  162.0150  211.5680  149.3750 C   0  0  0  0  0  0  0  0  0  0  0  0
  163.0890  211.6510  148.4810 C   0  0  0  0  0  3  0  0  0  0  0  0
  163.1280  212.6680  147.5220 C   0  0  0  0  0  3  0  0  0  0  0  0
  161.0180  213.5260  148.3420 C   0  0  0  0  0  3  0  0  0  0  0  0
  160.9780  212.5100  149.3010 C   0  0  0  0  0  3  0  0  0  0  0  0
  161.4650  208.0520  156.8900 C   0  0  0  0  0  1  0  0  0  0  0  0
  161.0630  209.3780  156.2760 C   0  0  0  0  0  2  0  0  0  0  0  0
  1  8  1  0  0  0  0
  2  6  1  0  0  0  0
  2  9  1  0  0  0  0
  3 13  2  0  0  0  0
  4  2  1  0  0  0  0
  5 27  1  0  0  0  0
  6 21  1  6  0  0  0
  6  1  1  0  0  0  0
  7 18  1  0  0  0  0
  7  9  2  0  0  0  0
  8 13  1  0  0  0  0
  8 12  1  0  0  0  0
  9  3  1  0  0  0  0
 10  5  2  0  0  0  0
 11  4  2  0  0  0  0
 11  7  1  0  0  0  0
 12  5  1  0  0  0  0
 13 10  1  0  0  0  0
 14 19  1  0  0  0  0
 15 19  2  0  0  0  0
 16 15  1  0  0  0  0
 17 16  2  0  0  0  0
 17 18  1  0  0  0  0
 18 14  2  0  0  0  0
 20 23  2  0  0  0  0
 20 24  1  0  0  0  0
 22 21  2  0  0  0  0
 23 22  1  0  0  0  0
 24 25  2  0  0  0  0
 25 21  1  0  0  0  0
 27 26  1  0  0  0  0
M  END
>  <MODEL>
5

>  <REMARK>
 VINA RESULT:      -9.0      1.448      5.733
  Name = 
  3 active torsions:
  status: ('A' for Active; 'I' for Inactive)
    1  A    between atoms: C_9  and  C_15
    2  A    between atoms: C_13  and  C_22
    3  A    between atoms: C_14  and  C_17
                            x       y       z     vdW  Elec       q    Type
                         _______ _______ _______ _____ _____    ______ ____

>  <TORSDO>
F 3

$$$$
=
 OpenBabel11062407413D

 27 31  0  0  1  0  0  0  0  0999 V2000
  162.1840  209.4660  151.7940 C   0  0  0  0  0  2  0  0  0  0  0  0
  161.1210  207.2840  151.4590 N   0  0  0  0  0  0  0  0  0  0  0  0
  161.5520  208.0520  149.1210 N   0  0  0  0  0  0  0  0  0  0  0  0
  160.8640  206.1070  152.0160 N   0  0  0  0  0  0  0  0  0  0  0  0
  162.3040  211.3280  148.6860 C   0  0  0  0  0  0  0  0  0  0  0  0
  161.0240  208.5650  152.1630 C   0  0  1  0  0  3  0  0  0  0  0  0
  161.2080  205.7070  149.9290 C   0  0  0  0  0  0  0  0  0  0  0  0
  161.9560  210.0210  150.4760 N   0  0  0  0  0  0  0  0  0  0  0  0
  161.3300  207.0660  150.1430 C   0  0  0  0  0  0  0  0  0  0  0  0
  162.0140  210.1830  148.1450 N   0  0  0  0  0  0  0  0  0  0  0  0
  160.9210  205.1350  151.1160 N   0  0  0  0  0  0  0  0  0  0  0  0
  162.3250  211.3160  150.1160 N   0  0  0  0  0  2  0  0  0  0  0  0
  161.7960  209.3210  149.2540 C   0  0  0  0  0  0  0  0  0  0  0  0
  161.1180  203.5740  148.6460 C   0  0  0  0  0  3  0  0  0  0  0  0
  161.5800  203.5070  146.2720 C   0  0  0  0  0  3  0  0  0  0  0  0
  161.8030  204.8860  146.2770 C   0  0  0  0  0  3  0  0  0  0  0  0
  161.6830  205.6080  147.4680 C   0  0  0  0  0  3  0  0  0  0  0  0
  161.3380  204.9590  148.6620 C   0  0  0  0  0  0  0  0  0  0  0  0
  161.2380  202.8510  147.4560 C   0  0  0  0  0  3  0  0  0  0  0  0
  160.8190  208.0130  156.4250 C   0  0  0  0  0  3  0  0  0  0  0  0
  160.9500  208.3910  153.6520 C   0  0  0  0  0  0  0  0  0  0  0  0
  160.5810  207.1480  154.1760 C   0  0  0  0  0  3  0  0  0  0  0  0
  160.5140  206.9590  155.5600 C   0  0  0  0  0  3  0  0  0  0  0  0
  161.1900  209.2570  155.9080 C   0  0  0  0  0  3  0  0  0  0  0  0
  161.2570  209.4470  154.5250 C   0  0  0  0  0  3  0  0  0  0  0  0
  161.4200  213.3670  147.6370 C   0  0  0  0  0  1  0  0  0  0  0  0
  162.6570  212.5270  147.8810 C   0  0  0  0  0  2  0  0  0  0  0  0
  1  6  1  0  0  0  0
  2  4  1  0  0  0  0
  2  6  1  0  0  0  0
  3 13  2  0  0  0  0
  3  9  1  0  0  0  0
  5 12  1  0  0  0  0
  6 21  1  1  0  0  0
  7  9  2  0  0  0  0
  7 11  1  0  0  0  0
  8  1  1  0  0  0  0
  9  2  1  0  0  0  0
 10  5  2  0  0  0  0
 10 13  1  0  0  0  0
 11  4  2  0  0  0  0
 12  8  1  0  0  0  0
 13  8  1  0  0  0  0
 14 18  1  0  0  0  0
 15 16  2  0  0  0  0
 15 19  1  0  0  0  0
 16 17  1  0  0  0  0
 17 18  2  0  0  0  0
 18  7  1  0  0  0  0
 19 14  2  0  0  0  0
 21 22  2  0  0  0  0
 21 25  1  0  0  0  0
 22 23  1  0  0  0  0
 23 20  2  0  0  0  0
 24 20  1  0  0  0  0
 25 24  2  0  0  0  0
 26 27  1  0  0  0  0
 27  5  1  0  0  0  0
M  END
>  <MODEL>
6

>  <REMARK>
 VINA RESULT:      -8.6      1.094      1.596
  Name = 
  3 active torsions:
  status: ('A' for Active; 'I' for Inactive)
    1  A    between atoms: C_9  and  C_15
    2  A    between atoms: C_13  and  C_22
    3  A    between atoms: C_14  and  C_17
                            x       y       z     vdW  Elec       q    Type
                         _______ _______ _______ _____ _____    ______ ____

>  <TORSDO>
F 3

$$$$
=
 OpenBabel11062407413D

 27 31  0  0  1  0  0  0  0  0999 V2000
  161.7650  207.5120  152.8130 C   0  0  0  0  0  2  0  0  0  0  0  0
  161.3810  208.2380  150.5040 N   0  0  0  0  0  0  0  0  0  0  0  0
  161.4020  210.3950  151.7640 N   0  0  0  0  0  0  0  0  0  0  0  0
  161.5270  207.9090  149.2270 N   0  0  0  0  0  0  0  0  0  0  0  0
  161.1080  210.2170  155.1360 C   0  0  0  0  0  0  0  0  0  0  0  0
  160.9550  207.3050  151.5500 C   0  0  1  0  0  3  0  0  0  0  0  0
  161.8310  210.0370  149.3230 C   0  0  0  0  0  0  0  0  0  0  0  0
  161.2910  208.7000  153.4920 N   0  0  0  0  0  0  0  0  0  0  0  0
  161.5560  209.5740  150.5950 C   0  0  0  0  0  0  0  0  0  0  0  0
  161.1380  210.9590  154.0700 N   0  0  0  0  0  0  0  0  0  0  0  0
  161.8100  208.9750  148.4920 N   0  0  0  0  0  0  0  0  0  0  0  0
  161.2300  208.8150  154.8800 N   0  0  0  0  0  2  0  0  0  0  0  0
  161.2630  210.0290  153.0030 C   0  0  0  0  0  0  0  0  0  0  0  0
  161.1800  212.4390  149.2120 C   0  0  0  0  0  3  0  0  0  0  0  0
  162.5530  214.0690  148.0650 C   0  0  0  0  0  3  0  0  0  0  0  0
  163.4660  213.0650  147.7330 C   0  0  0  0  0  3  0  0  0  0  0  0
  163.2350  211.7480  148.1420 C   0  0  0  0  0  3  0  0  0  0  0  0
  162.0910  211.4240  148.8850 C   0  0  0  0  0  0  0  0  0  0  0  0
  161.4100  213.7560  148.8040 C   0  0  0  0  0  3  0  0  0  0  0  0
  161.1920  203.1870  150.3250 C   0  0  0  0  0  3  0  0  0  0  0  0
  161.0390  205.8740  151.1040 C   0  0  0  0  0  0  0  0  0  0  0  0
  161.4190  204.8940  152.0280 C   0  0  0  0  0  3  0  0  0  0  0  0
  161.4960  203.5530  151.6390 C   0  0  0  0  0  3  0  0  0  0  0  0
  160.8120  204.1610  149.3980 C   0  0  0  0  0  3  0  0  0  0  0  0
  160.7340  205.5020  149.7860 C   0  0  0  0  0  3  0  0  0  0  0  0
  160.5160  212.2110  156.4460 C   0  0  0  0  0  1  0  0  0  0  0  0
  161.0310  210.7860  156.5070 C   0  0  0  0  0  2  0  0  0  0  0  0
  1  8  1  0  0  0  0
  2  9  1  0  0  0  0
  2  6  1  0  0  0  0
  3 13  2  0  0  0  0
  4  2  1  0  0  0  0
  5 27  1  0  0  0  0
  6 21  1  6  0  0  0
  6  1  1  0  0  0  0
  7  9  2  0  0  0  0
  8 12  1  0  0  0  0
  9  3  1  0  0  0  0
 10  5  2  0  0  0  0
 11  4  2  0  0  0  0
 11  7  1  0  0  0  0
 12  5  1  0  0  0  0
 13  8  1  0  0  0  0
 13 10  1  0  0  0  0
 15 19  1  0  0  0  0
 16 15  2  0  0  0  0
 16 17  1  0  0  0  0
 17 18  2  0  0  0  0
 18 14  1  0  0  0  0
 18  7  1  0  0  0  0
 19 14  2  0  0  0  0
 20 23  1  0  0  0  0
 21 22  1  0  0  0  0
 23 22  2  0  0  0  0
 24 25  1  0  0  0  0
 24 20  2  0  0  0  0
 25 21  2  0  0  0  0
 26 27  1  0  0  0  0
M  END
>  <MODEL>
7

>  <REMARK>
 VINA RESULT:      -8.2      2.000      6.716
  Name = 
  3 active torsions:
  status: ('A' for Active; 'I' for Inactive)
    1  A    between atoms: C_9  and  C_15
    2  A    between atoms: C_13  and  C_22
    3  A    between atoms: C_14  and  C_17
                            x       y       z     vdW  Elec       q    Type
                         _______ _______ _______ _____ _____    ______ ____

>  <TORSDO>
F 3

$$$$
=
 OpenBabel11062407413D

 27 31  0  0  1  0  0  0  0  0999 V2000
  160.8620  206.6150  150.4070 C   0  0  0  0  0  2  0  0  0  0  0  0
  161.7250  208.8920  150.6820 N   0  0  0  0  0  0  0  0  0  0  0  0
  162.0810  208.4580  148.2480 N   0  0  0  0  0  0  0  0  0  0  0  0
  161.6740  209.9860  151.4320 N   0  0  0  0  0  0  0  0  0  0  0  0
  161.8630  205.2410  147.2050 C   0  0  0  0  0  0  0  0  0  0  0  0
  161.7570  207.5290  151.2190 C   0  0  1  0  0  3  0  0  0  0  0  0
  161.9090  210.6720  149.4050 C   0  0  0  0  0  0  0  0  0  0  0  0
  161.5260  206.2840  149.1630 N   0  0  0  0  0  0  0  0  0  0  0  0
  161.8840  209.2910  149.4030 C   0  0  0  0  0  0  0  0  0  0  0  0
  162.1660  206.4720  146.9230 N   0  0  0  0  0  0  0  0  0  0  0  0
  161.7730  211.0770  150.6850 N   0  0  0  0  0  0  0  0  0  0  0  0
  161.4260  205.0350  148.5510 N   0  0  0  0  0  2  0  0  0  0  0  0
  161.9540  207.1690  148.1430 C   0  0  0  0  0  0  0  0  0  0  0  0
  160.9570  211.9250  147.4740 C   0  0  0  0  0  3  0  0  0  0  0  0
  162.3410  213.3350  146.0760 C   0  0  0  0  0  3  0  0  0  0  0  0
  163.4560  213.0090  146.8530 C   0  0  0  0  0  3  0  0  0  0  0  0
  163.3200  212.1410  147.9400 C   0  0  0  0  0  3  0  0  0  0  0  0
  162.0700  211.5920  148.2610 C   0  0  0  0  0  0  0  0  0  0  0  0
  161.0920  212.7930  146.3870 C   0  0  0  0  0  3  0  0  0  0  0  0
  160.6780  207.3380  155.3810 C   0  0  0  0  0  3  0  0  0  0  0  0
  161.3730  207.4800  152.6700 C   0  0  0  0  0  0  0  0  0  0  0  0
  161.2060  206.2370  153.2890 C   0  0  0  0  0  3  0  0  0  0  0  0
  160.8590  206.1650  154.6410 C   0  0  0  0  0  3  0  0  0  0  0  0
  160.8440  208.5830  154.7680 C   0  0  0  0  0  3  0  0  0  0  0  0
  161.1920  208.6560  153.4160 C   0  0  0  0  0  3  0  0  0  0  0  0
  161.2080  204.6150  144.9200 C   0  0  0  0  0  1  0  0  0  0  0  0
  161.8960  204.1550  146.1900 C   0  0  0  0  0  2  0  0  0  0  0  0
  1  6  1  0  0  0  0
  2  6  1  0  0  0  0
  2  4  1  0  0  0  0
  3  9  1  0  0  0  0
  5 12  1  0  0  0  0
  6 21  1  1  0  0  0
  7 11  1  0  0  0  0
  8  1  1  0  0  0  0
  9  7  2  0  0  0  0
  9  2  1  0  0  0  0
 10  5  2  0  0  0  0
 10 13  1  0  0  0  0
 11  4  2  0  0  0  0
 12  8  1  0  0  0  0
 13  3  2  0  0  0  0
 13  8  1  0  0  0  0
 14 18  1  0  0  0  0
 15 19  1  0  0  0  0
 15 16  2  0  0  0  0
 16 17  1  0  0  0  0
 17 18  2  0  0  0  0
 18  7  1  0  0  0  0
 19 14  2  0  0  0  0
 21 22  2  0  0  0  0
 21 25  1  0  0  0  0
 22 23  1  0  0  0  0
 23 20  2  0  0  0  0
 24 20  1  0  0  0  0
 25 24  2  0  0  0  0
 26 27  1  0  0  0  0
 27  5  1  0  0  0  0
M  END
>  <MODEL>
8

>  <REMARK>
 VINA RESULT:      -8.2      2.051      6.052
  Name = 
  3 active torsions:
  status: ('A' for Active; 'I' for Inactive)
    1  A    between atoms: C_9  and  C_15
    2  A    between atoms: C_13  and  C_22
    3  A    between atoms: C_14  and  C_17
                            x       y       z     vdW  Elec       q    Type
                         _______ _______ _______ _____ _____    ______ ____

>  <TORSDO>
F 3

$$$$
=
 OpenBabel11062407413D

 27 31  0  0  1  0  0  0  0  0999 V2000
  161.7260  205.9830  151.6850 C   0  0  0  0  0  2  0  0  0  0  0  0
  161.3500  207.1660  149.5720 N   0  0  0  0  0  0  0  0  0  0  0  0
  161.3630  209.0200  151.2480 N   0  0  0  0  0  0  0  0  0  0  0  0
  161.5010  207.1060  148.2560 N   0  0  0  0  0  0  0  0  0  0  0  0
  161.0570  208.1540  154.5100 C   0  0  0  0  0  0  0  0  0  0  0  0
  160.9200  206.0380  150.4030 C   0  0  1  0  0  3  0  0  0  0  0  0
  161.8020  209.1700  148.7870 C   0  0  0  0  0  0  0  0  0  0  0  0
  161.2480  207.0060  152.5920 N   0  0  0  0  0  0  0  0  0  0  0  0
  161.5220  208.4550  149.9350 C   0  0  0  0  0  0  0  0  0  0  0  0
  161.0900  209.0990  153.6200 N   0  0  0  0  0  0  0  0  0  0  0  0
  161.7850  208.3000  147.7550 N   0  0  0  0  0  0  0  0  0  0  0  0
  161.1820  206.8340  153.9730 N   0  0  0  0  0  2  0  0  0  0  0  0
  161.2200  208.4070  152.3850 C   0  0  0  0  0  0  0  0  0  0  0  0
  161.1330  211.5430  149.1390 C   0  0  0  0  0  3  0  0  0  0  0  0
  162.5230  213.3740  148.3830 C   0  0  0  0  0  3  0  0  0  0  0  0
  163.4540  212.4590  147.8850 C   0  0  0  0  0  3  0  0  0  0  0  0
  163.2240  211.0870  148.0140 C   0  0  0  0  0  3  0  0  0  0  0  0
  162.0620  210.6160  148.6430 C   0  0  0  0  0  0  0  0  0  0  0  0
  161.3630  212.9160  149.0110 C   0  0  0  0  0  3  0  0  0  0  0  0
  161.2070  202.3090  148.2760 C   0  0  0  0  0  3  0  0  0  0  0  0
  161.0090  204.7290  149.6740 C   0  0  0  0  0  0  0  0  0  0  0  0
  161.3850  204.7240  148.3260 C   0  0  0  0  0  3  0  0  0  0  0  0
  161.4830  203.5160  147.6280 C   0  0  0  0  0  3  0  0  0  0  0  0
  160.8320  202.3080  149.6230 C   0  0  0  0  0  3  0  0  0  0  0  0
  160.7330  203.5150  150.3220 C   0  0  0  0  0  3  0  0  0  0  0  0
  160.1030  207.3890  156.6420 C   0  0  0  0  0  1  0  0  0  0  0  0
  160.9740  208.4310  155.9690 C   0  0  0  0  0  2  0  0  0  0  0  0
  1  8  1  0  0  0  0
  2  9  1  0  0  0  0
  2  6  1  0  0  0  0
  3 13  2  0  0  0  0
  4  2  1  0  0  0  0
  5 27  1  0  0  0  0
  6 21  1  6  0  0  0
  6  1  1  0  0  0  0
  7  9  2  0  0  0  0
  8 12  1  0  0  0  0
  9  3  1  0  0  0  0
 10  5  2  0  0  0  0
 11  4  2  0  0  0  0
 11  7  1  0  0  0  0
 12  5  1  0  0  0  0
 13  8  1  0  0  0  0
 13 10  1  0  0  0  0
 15 19  2  0  0  0  0
 16 17  2  0  0  0  0
 16 15  1  0  0  0  0
 17 18  1  0  0  0  0
 18  7  1  0  0  0  0
 18 14  2  0  0  0  0
 19 14  1  0  0  0  0
 20 24  1  0  0  0  0
 21 25  1  0  0  0  0
 22 21  2  0  0  0  0
 23 20  2  0  0  0  0
 23 22  1  0  0  0  0
 24 25  2  0  0  0  0
 27 26  1  0  0  0  0
M  END
>  <MODEL>
9

>  <REMARK>
 VINA RESULT:      -8.0      1.038      6.996
  Name = 
  3 active torsions:
  status: ('A' for Active; 'I' for Inactive)
    1  A    between atoms: C_9  and  C_15
    2  A    between atoms: C_13  and  C_22
    3  A    between atoms: C_14  and  C_17
                            x       y       z     vdW  Elec       q    Type
                         _______ _______ _______ _____ _____    ______ ____

>  <TORSDO>
F 3

$$$$
