=
 OpenBabel11062409323D

 34 39  0  0  1  0  0  0  0  0999 V2000
  161.3530  209.8020  152.5630 C   0  0  1  0  0  3  0  0  0  0  0  0
  159.9140  212.9230  151.1830 C   0  0  0  0  0  3  0  0  0  0  0  0
  159.3450  211.7560  153.1550 C   0  0  0  0  0  3  0  0  0  0  0  0
  160.7540  208.7360  154.7890 C   0  0  0  0  0  3  0  0  0  0  0  0
  158.9260  209.7080  156.1060 C   0  0  0  0  0  3  0  0  0  0  0  0
  159.8790  208.6230  155.7960 C   0  0  0  0  0  3  0  0  0  0  0  0
  159.6330  210.8620  154.0920 C   0  0  0  0  0  0  0  0  0  0  0  0
  160.8790  210.0130  153.9890 C   0  0  2  0  0  3  0  0  0  0  0  0
  158.7970  210.7610  155.2970 C   0  0  0  0  0  3  0  0  0  0  0  0
  160.4960  213.3540  149.9090 C   0  0  0  0  0  3  0  0  0  0  0  0
  161.2840  212.6930  149.0670 C   0  0  0  0  0  0  0  0  0  0  0  0
  161.7270  211.3040  149.2060 C   0  0  0  0  0  3  0  0  0  0  0  0
  160.1350  211.8340  151.9180 C   0  0  1  0  0  3  0  0  0  0  0  0
  161.6450  210.4950  150.2540 C   0  0  0  0  0  3  0  0  0  0  0  0
  161.0770  210.7210  151.5990 C   0  0  0  0  0  0  0  0  0  0  0  0
  161.6830  213.3980  147.8180 C   0  0  0  0  0  2  0  0  0  0  0  0
  162.6060  212.6250  147.1130 O   0  0  0  0  0  1  0  0  0  0  0  0
  162.3100  208.6660  152.3100 C   0  0  0  0  0  2  0  0  0  0  0  0
  160.6540  204.5130  150.0250 C   0  0  0  0  0  2  0  0  0  0  0  0
  162.0350  207.0700  150.0340 N   0  0  0  0  0  0  0  0  0  0  0  0
  161.1420  205.3980  146.2980 C   0  0  2  0  0  0  0  0  0  0  0  0
  161.6180  207.3270  152.5400 C   0  0  2  0  0  3  0  0  0  0  0  0
  160.1080  206.2610  145.9190 O   0  0  0  0  0  1  0  0  0  0  0  0
  160.7640  204.7190  147.5880 C   0  0  0  0  0  3  0  0  0  0  0  0
  161.0280  205.2600  148.7790 C   0  0  0  0  0  0  0  0  0  0  0  0
  162.6150  206.1930  152.2980 C   0  0  0  0  0  2  0  0  0  0  0  0
  162.3030  207.2020  147.6360 C   0  0  0  0  0  2  0  0  0  0  0  0
  161.8230  206.5130  148.8790 C   0  0  0  0  0  0  0  0  0  0  0  0
  162.4310  206.2100  146.4780 C   0  0  0  0  0  2  0  0  0  0  0  0
  161.5420  206.4800  151.2800 C   0  0  2  0  0  0  0  0  0  0  0  0
  160.4030  205.4710  151.1870 C   0  0  0  0  0  2  0  0  0  0  0  0
  161.3520  204.3550  145.2400 C   0  0  0  0  0  0  0  0  0  0  0  0
  161.3550  203.0070  145.5840 O   0  0  0  0  0  1  0  0  0  0  0  0
  161.4940  204.6830  144.0320 O   0  0  0  0  0  0  0  0  0  0  0  0
  1 18  1  1  0  0  0
  1  8  1  0  0  0  0
  3  7  2  0  0  0  0
  4  6  2  0  0  0  0
  6  5  1  0  0  0  0
  7  9  1  0  0  0  0
  8  7  1  0  0  0  0
  8  4  1  6  0  0  0
  9  5  2  0  0  0  0
 10  2  2  0  0  0  0
 11 12  2  0  0  0  0
 11 10  1  0  0  0  0
 12 14  1  0  0  0  0
 13  2  1  6  0  0  0
 13  3  1  0  0  0  0
 14 15  2  0  0  0  0
 15 13  1  0  0  0  0
 15  1  1  0  0  0  0
 16 11  1  0  0  0  0
 17 16  1  0  0  0  0
 19 31  1  0  0  0  0
 20 30  1  0  0  0  0
 21 23  1  6  0  0  0
 21 29  1  0  0  0  0
 21 24  1  0  0  0  0
 22 18  1  6  0  0  0
 24 25  2  0  0  0  0
 25 28  1  0  0  0  0
 25 19  1  0  0  0  0
 26 22  1  0  0  0  0
 27 28  1  0  0  0  0
 28 20  2  0  0  0  0
 29 27  1  0  0  0  0
 30 31  1  6  0  0  0
 30 26  1  0  0  0  0
 30 22  1  0  0  0  0
 32 33  1  0  0  0  0
 32 21  1  0  0  0  0
 34 32  2  0  0  0  0
M  END
>  <MODEL>
1

>  <REMARK>
 VINA RESULT:      -8.2      0.000      0.000
  Name = 
  4 active torsions:
  status: ('A' for Active; 'I' for Inactive)
    1  A    between atoms: C_1  and  C_9
    2  A    between atoms: C_3  and  C_25
    3  A    between atoms: C_7  and  C_11
    4  A    between atoms: C_8  and  C_9
                            x       y       z     vdW  Elec       q    Type
                         _______ _______ _______ _____ _____    ______ ____

>  <TORSDO>
F 4

$$$$
=
 OpenBabel11062409323D

 34 39  0  0  1  0  0  0  0  0999 V2000
  160.5450  205.1530  149.1720 C   0  0  1  0  0  3  0  0  0  0  0  0
  161.3860  203.1800  146.1530 C   0  0  0  0  0  3  0  0  0  0  0  0
  161.5560  202.5790  148.4300 C   0  0  0  0  0  3  0  0  0  0  0  0
  160.6250  204.3220  151.5710 C   0  0  0  0  0  3  0  0  0  0  0  0
  161.5130  202.0780  152.0120 C   0  0  0  0  0  3  0  0  0  0  0  0
  161.0900  203.4250  152.4470 C   0  0  0  0  0  3  0  0  0  0  0  0
  161.2380  202.7750  149.7030 C   0  0  0  0  0  0  0  0  0  0  0  0
  160.4140  203.9720  150.1160 C   0  0  2  0  0  3  0  0  0  0  0  0
  161.5970  201.7710  150.7150 C   0  0  0  0  0  3  0  0  0  0  0  0
  161.1810  203.8850  144.8840 C   0  0  0  0  0  3  0  0  0  0  0  0
  160.9640  205.1750  144.6540 C   0  0  0  0  0  0  0  0  0  0  0  0
  160.9300  206.2390  145.6590 C   0  0  0  0  0  3  0  0  0  0  0  0
  161.2560  203.5950  147.4120 C   0  0  1  0  0  3  0  0  0  0  0  0
  160.8790  206.1480  146.9820 C   0  0  0  0  0  3  0  0  0  0  0  0
  160.8540  204.9610  147.8610 C   0  0  0  0  0  0  0  0  0  0  0  0
  160.8310  205.5960  143.2330 C   0  0  0  0  0  2  0  0  0  0  0  0
  162.0950  205.8280  142.6880 O   0  0  0  0  0  1  0  0  0  0  0  0
  160.1150  206.5030  149.6850 C   0  0  0  0  0  2  0  0  0  0  0  0
  162.7800  210.1490  151.8800 C   0  0  0  0  0  2  0  0  0  0  0  0
  160.8310  207.9940  151.9360 N   0  0  0  0  0  0  0  0  0  0  0  0
  161.0150  210.4870  155.2980 C   0  0  2  0  0  0  0  0  0  0  0  0
  161.2130  207.5350  149.4540 C   0  0  2  0  0  3  0  0  0  0  0  0
  159.8260  211.1980  155.1030 O   0  0  0  0  0  1  0  0  0  0  0  0
  161.9080  210.6900  154.1020 C   0  0  0  0  0  3  0  0  0  0  0  0
  161.8360  209.9110  153.0210 C   0  0  0  0  0  0  0  0  0  0  0  0
  162.4580  207.1370  150.2470 C   0  0  0  0  0  2  0  0  0  0  0  0
  160.0820  208.4120  154.1950 C   0  0  0  0  0  2  0  0  0  0  0  0
  160.9430  208.7220  153.0060 C   0  0  0  0  0  0  0  0  0  0  0  0
  160.6860  208.9990  155.4730 C   0  0  0  0  0  2  0  0  0  0  0  0
  161.5970  208.2800  150.7220 C   0  0  2  0  0  0  0  0  0  0  0  0
  162.1740  209.6820  150.5580 C   0  0  0  0  0  2  0  0  0  0  0  0
  161.7180  210.9910  156.5240 C   0  0  0  0  0  0  0  0  0  0  0  0
  162.9020  210.3920  156.9420 O   0  0  0  0  0  0  0  0  0  0  0  0
  161.2660  211.9770  157.1650 O   0  0  0  0  0  1  0  0  0  0  0  0
  1 18  1  6  0  0  0
  1  8  1  0  0  0  0
  3  7  2  0  0  0  0
  4  6  2  0  0  0  0
  5  6  1  0  0  0  0
  7  8  1  0  0  0  0
  7  9  1  0  0  0  0
  8  4  1  1  0  0  0
  9  5  2  0  0  0  0
 10  2  2  0  0  0  0
 11 10  1  0  0  0  0
 11 12  2  0  0  0  0
 12 14  1  0  0  0  0
 13  2  1  6  0  0  0
 13 15  1  0  0  0  0
 13  3  1  0  0  0  0
 14 15  2  0  0  0  0
 15  1  1  0  0  0  0
 16 11  1  0  0  0  0
 17 16  1  0  0  0  0
 19 25  1  0  0  0  0
 20 28  2  0  0  0  0
 21 23  1  6  0  0  0
 21 29  1  0  0  0  0
 21 32  1  0  0  0  0
 22 18  1  1  0  0  0
 22 26  1  0  0  0  0
 22 30  1  0  0  0  0
 24 21  1  0  0  0  0
 25 24  2  0  0  0  0
 27 29  1  0  0  0  0
 28 25  1  0  0  0  0
 28 27  1  0  0  0  0
 30 26  1  1  0  0  0
 30 20  1  0  0  0  0
 31 30  1  0  0  0  0
 31 19  1  0  0  0  0
 32 33  2  0  0  0  0
 32 34  1  0  0  0  0
M  END
>  <MODEL>
2

>  <REMARK>
 VINA RESULT:      -7.7      3.290      8.397
  Name = 
  4 active torsions:
  status: ('A' for Active; 'I' for Inactive)
    1  A    between atoms: C_1  and  C_9
    2  A    between atoms: C_3  and  C_25
    3  A    between atoms: C_7  and  C_11
    4  A    between atoms: C_8  and  C_9
                            x       y       z     vdW  Elec       q    Type
                         _______ _______ _______ _____ _____    ______ ____

>  <TORSDO>
F 4

$$$$
=
 OpenBabel11062409323D

 34 39  0  0  1  0  0  0  0  0999 V2000
  161.4800  208.9030  153.3040 C   0  0  1  0  0  3  0  0  0  0  0  0
  160.8570  205.6810  151.5890 C   0  0  0  0  0  3  0  0  0  0  0  0
  160.7400  206.2000  153.8890 C   0  0  0  0  0  3  0  0  0  0  0  0
  161.1610  209.3650  155.7810 C   0  0  0  0  0  3  0  0  0  0  0  0
  160.5700  207.4980  157.2610 C   0  0  0  0  0  3  0  0  0  0  0  0
  161.0450  208.8770  157.0220 C   0  0  0  0  0  3  0  0  0  0  0  0
  160.6570  207.0900  154.8700 C   0  0  0  0  0  0  0  0  0  0  0  0
  160.7190  208.5700  154.5740 C   0  0  2  0  0  3  0  0  0  0  0  0
  160.3980  206.6470  156.2470 C   0  0  0  0  0  3  0  0  0  0  0  0
  161.0510  205.7140  150.1370 C   0  0  0  0  0  3  0  0  0  0  0  0
  161.6290  206.6380  149.3760 C   0  0  0  0  0  0  0  0  0  0  0  0
  162.2750  207.8640  149.8470 C   0  0  0  0  0  3  0  0  0  0  0  0
  161.0540  206.6170  152.5160 C   0  0  1  0  0  3  0  0  0  0  0  0
  162.2400  208.4290  151.0470 C   0  0  0  0  0  3  0  0  0  0  0  0
  161.5570  208.0040  152.2860 C   0  0  0  0  0  0  0  0  0  0  0  0
  161.7080  206.3610  147.9160 C   0  0  0  0  0  2  0  0  0  0  0  0
  160.4250  206.1730  147.4000 O   0  0  0  0  0  1  0  0  0  0  0  0
  161.9550  210.3240  153.1310 C   0  0  0  0  0  2  0  0  0  0  0  0
  159.1490  213.5240  150.4670 C   0  0  0  0  0  2  0  0  0  0  0  0
  161.2420  211.5220  150.7110 N   0  0  0  0  0  0  0  0  0  0  0  0
  161.0410  213.6410  147.1030 C   0  0  2  0  0  0  0  0  0  0  0  0
  160.7790  211.2910  153.2110 C   0  0  2  0  0  3  0  0  0  0  0  0
  162.1680  214.4530  147.2670 O   0  0  0  0  0  1  0  0  0  0  0  0
  160.0820  213.8990  148.2350 C   0  0  0  0  0  3  0  0  0  0  0  0
  160.1580  213.2400  149.3940 C   0  0  0  0  0  0  0  0  0  0  0  0
  159.6020  210.7250  152.4160 C   0  0  0  0  0  2  0  0  0  0  0  0
  162.0630  211.7620  148.4500 C   0  0  0  0  0  2  0  0  0  0  0  0
  161.1290  212.1280  149.5670 C   0  0  0  0  0  0  0  0  0  0  0  0
  161.4790  212.1710  147.0960 C   0  0  0  0  0  2  0  0  0  0  0  0
  160.4030  211.8730  151.8580 C   0  0  2  0  0  0  0  0  0  0  0  0
  159.7250  213.2380  151.8520 C   0  0  0  0  0  2  0  0  0  0  0  0
  160.3620  213.9660  145.8040 C   0  0  0  0  0  0  0  0  0  0  0  0
  159.0090  214.2860  145.7890 O   0  0  0  0  0  1  0  0  0  0  0  0
  161.0120  213.9840  144.7250 O   0  0  0  0  0  0  0  0  0  0  0  0
  1 18  1  6  0  0  0
  1  8  1  0  0  0  0
  3  7  2  0  0  0  0
  4  6  2  0  0  0  0
  6  5  1  0  0  0  0
  7  9  1  0  0  0  0
  8  7  1  0  0  0  0
  8  4  1  1  0  0  0
  9  5  2  0  0  0  0
 10  2  2  0  0  0  0
 11 12  2  0  0  0  0
 11 10  1  0  0  0  0
 12 14  1  0  0  0  0
 13  2  1  1  0  0  0
 13  3  1  0  0  0  0
 14 15  2  0  0  0  0
 15 13  1  0  0  0  0
 15  1  1  0  0  0  0
 16 11  1  0  0  0  0
 17 16  1  0  0  0  0
 19 31  1  0  0  0  0
 20 30  1  0  0  0  0
 21 23  1  1  0  0  0
 21 24  1  0  0  0  0
 22 18  1  6  0  0  0
 24 25  2  0  0  0  0
 25 28  1  0  0  0  0
 25 19  1  0  0  0  0
 26 22  1  0  0  0  0
 27 28  1  0  0  0  0
 28 20  2  0  0  0  0
 29 21  1  0  0  0  0
 29 27  1  0  0  0  0
 30 31  1  6  0  0  0
 30 26  1  0  0  0  0
 30 22  1  0  0  0  0
 32 21  1  0  0  0  0
 33 32  1  0  0  0  0
 34 32  2  0  0  0  0
M  END
>  <MODEL>
3

>  <REMARK>
 VINA RESULT:      -7.6      1.871      6.252
  Name = 
  4 active torsions:
  status: ('A' for Active; 'I' for Inactive)
    1  A    between atoms: C_1  and  C_9
    2  A    between atoms: C_3  and  C_25
    3  A    between atoms: C_7  and  C_11
    4  A    between atoms: C_8  and  C_9
                            x       y       z     vdW  Elec       q    Type
                         _______ _______ _______ _____ _____    ______ ____

>  <TORSDO>
F 4

$$$$
=
 OpenBabel11062409323D

 34 39  0  0  1  0  0  0  0  0999 V2000
  162.2230  206.3580  151.1230 C   0  0  1  0  0  3  0  0  0  0  0  0
  160.9490  204.3960  148.2520 C   0  0  0  0  0  3  0  0  0  0  0  0
  161.1710  206.7350  148.4870 C   0  0  0  0  0  3  0  0  0  0  0  0
  162.5600  208.8750  151.1820 C   0  0  0  0  0  3  0  0  0  0  0  0
  161.8130  210.2090  149.2620 C   0  0  0  0  0  3  0  0  0  0  0  0
  162.2670  210.0730  150.6610 C   0  0  0  0  0  3  0  0  0  0  0  0
  161.6880  207.7900  149.1030 C   0  0  0  0  0  0  0  0  0  0  0  0
  162.5380  207.6190  150.3400 C   0  0  2  0  0  3  0  0  0  0  0  0
  161.5250  209.1320  148.5260 C   0  0  0  0  0  3  0  0  0  0  0  0
  160.9260  202.9460  148.4640 C   0  0  0  0  0  3  0  0  0  0  0  0
  161.0690  202.2480  149.5860 C   0  0  0  0  0  0  0  0  0  0  0  0
  161.2400  202.8000  150.9320 C   0  0  0  0  0  3  0  0  0  0  0  0
  161.2740  205.3920  149.0750 C   0  0  1  0  0  3  0  0  0  0  0  0
  161.5090  204.0440  151.3040 C   0  0  0  0  0  3  0  0  0  0  0  0
  161.7090  205.2650  150.4970 C   0  0  0  0  0  0  0  0  0  0  0  0
  160.9560  200.7680  149.4820 C   0  0  0  0  0  2  0  0  0  0  0  0
  161.4860  200.3370  148.2650 O   0  0  0  0  0  1  0  0  0  0  0  0
  162.6970  206.2910  152.5520 C   0  0  0  0  0  2  0  0  0  0  0  0
  159.3230  207.8790  155.9140 C   0  0  0  0  0  2  0  0  0  0  0  0
  161.4300  208.3400  153.9660 N   0  0  0  0  0  0  0  0  0  0  0  0
  160.3760  211.5570  156.4330 C   0  0  2  0  0  0  0  0  0  0  0  0
  161.5650  205.8390  153.4670 C   0  0  2  0  0  3  0  0  0  0  0  0
  161.5040  211.5720  157.2600 O   0  0  0  0  0  1  0  0  0  0  0  0
  159.7060  210.2130  156.5430 C   0  0  0  0  0  3  0  0  0  0  0  0
  160.0560  209.1800  155.7740 C   0  0  0  0  0  0  0  0  0  0  0  0
  160.2400  206.3960  152.9480 C   0  0  0  0  0  2  0  0  0  0  0  0
  161.6990  210.6900  154.4610 C   0  0  0  0  0  2  0  0  0  0  0  0
  161.0490  209.3550  154.6810 C   0  0  0  0  0  0  0  0  0  0  0  0
  160.8120  211.8210  154.9860 C   0  0  0  0  0  2  0  0  0  0  0  0
  160.8800  206.9990  154.1720 C   0  0  2  0  0  0  0  0  0  0  0  0
  160.2080  206.7030  155.5080 C   0  0  0  0  0  2  0  0  0  0  0  0
  159.4110  212.6210  156.8660 C   0  0  0  0  0  0  0  0  0  0  0  0
  158.0520  212.3360  156.9460 O   0  0  0  0  0  0  0  0  0  0  0  0
  159.8200  213.7680  157.1910 O   0  0  0  0  0  1  0  0  0  0  0  0
  1 18  1  6  0  0  0
  2 10  2  0  0  0  0
  3 13  1  0  0  0  0
  3  7  2  0  0  0  0
  5  6  1  0  0  0  0
  6  4  2  0  0  0  0
  7  8  1  0  0  0  0
  8  1  1  0  0  0  0
  8  4  1  1  0  0  0
  9  7  1  0  0  0  0
  9  5  2  0  0  0  0
 10 11  1  0  0  0  0
 11 12  2  0  0  0  0
 12 14  1  0  0  0  0
 13  2  1  1  0  0  0
 13 15  1  0  0  0  0
 15  1  1  0  0  0  0
 15 14  2  0  0  0  0
 16 11  1  0  0  0  0
 17 16  1  0  0  0  0
 20 30  1  0  0  0  0
 20 28  2  0  0  0  0
 21 24  1  0  0  0  0
 21 32  1  0  0  0  0
 21 23  1  1  0  0  0
 22 18  1  6  0  0  0
 22 30  1  0  0  0  0
 25 19  1  0  0  0  0
 25 24  2  0  0  0  0
 26 22  1  0  0  0  0
 27 28  1  0  0  0  0
 27 29  1  0  0  0  0
 28 25  1  0  0  0  0
 29 21  1  0  0  0  0
 30 26  1  6  0  0  0
 30 31  1  0  0  0  0
 31 19  1  0  0  0  0
 32 33  2  0  0  0  0
 32 34  1  0  0  0  0
M  END
>  <MODEL>
4

>  <REMARK>
 VINA RESULT:      -7.0      3.610      8.734
  Name = 
  4 active torsions:
  status: ('A' for Active; 'I' for Inactive)
    1  A    between atoms: C_1  and  C_9
    2  A    between atoms: C_3  and  C_25
    3  A    between atoms: C_7  and  C_11
    4  A    between atoms: C_8  and  C_9
                            x       y       z     vdW  Elec       q    Type
                         _______ _______ _______ _____ _____    ______ ____

>  <TORSDO>
F 4

$$$$
=
 OpenBabel11062409323D

 34 39  0  0  1  0  0  0  0  0999 V2000
  161.3750  210.6680  151.6320 C   0  0  1  0  0  3  0  0  0  0  0  0
  158.8830  212.7600  153.3990 C   0  0  0  0  0  3  0  0  0  0  0  0
  159.8330  213.0520  151.2580 C   0  0  0  0  0  3  0  0  0  0  0  0
  162.1960  211.0100  149.2520 C   0  0  0  0  0  3  0  0  0  0  0  0
  161.4530  213.0000  148.0240 C   0  0  0  0  0  3  0  0  0  0  0  0
  162.3420  211.8350  148.2090 C   0  0  0  0  0  3  0  0  0  0  0  0
  160.4920  212.5710  150.2110 C   0  0  0  0  0  0  0  0  0  0  0  0
  161.0590  211.1700  150.2350 C   0  0  2  0  0  3  0  0  0  0  0  0
  160.5870  213.3590  148.9750 C   0  0  0  0  0  3  0  0  0  0  0  0
  158.5350  212.2920  154.7440 C   0  0  0  0  0  2  0  0  0  0  0  0
  159.1300  211.3830  155.5090 C   0  0  0  0  0  0  0  0  0  0  0  0
  160.3540  210.6470  155.1840 C   0  0  0  0  0  3  0  0  0  0  0  0
  159.7750  212.3040  152.5210 C   0  0  0  0  0  0  0  0  0  0  0  0
  160.9940  210.5460  154.0270 C   0  0  0  0  0  3  0  0  0  0  0  0
  160.6940  211.1430  152.7090 C   0  0  0  0  0  0  0  0  0  0  0  0
  158.5520  211.1530  156.8610 C   0  0  0  0  0  2  0  0  0  0  0  0
  157.3860  211.9040  157.0120 O   0  0  0  0  0  1  0  0  0  0  0  0
  162.3050  209.4880  151.7510 C   0  0  0  0  0  2  0  0  0  0  0  0
  160.5520  205.0900  150.0800 C   0  0  0  0  0  2  0  0  0  0  0  0
  162.0680  207.5480  149.7560 N   0  0  0  0  0  0  0  0  0  0  0  0
  161.2890  205.3170  146.2960 C   0  0  2  0  0  0  0  0  0  0  0  0
  161.5300  208.2390  152.1540 C   0  0  2  0  0  3  0  0  0  0  0  0
  160.3260  206.1500  145.7160 O   0  0  0  0  0  1  0  0  0  0  0  0
  160.8050  204.8810  147.6540 C   0  0  0  0  0  3  0  0  0  0  0  0
  161.0330  205.6010  148.7540 C   0  0  0  0  0  0  0  0  0  0  0  0
  162.4750  207.0370  152.1650 C   0  0  0  0  0  2  0  0  0  0  0  0
  162.4720  207.2650  147.3900 C   0  0  0  0  0  2  0  0  0  0  0  0
  161.8890  206.8160  148.6970 C   0  0  0  0  0  0  0  0  0  0  0  0
  162.6090  206.0890  146.4210 C   0  0  0  0  0  2  0  0  0  0  0  0
  161.4760  207.1970  151.0480 C   0  0  2  0  0  0  0  0  0  0  0  0
  160.2900  206.2390  151.0510 C   0  0  0  0  0  2  0  0  0  0  0  0
  161.4990  204.1030  145.4390 C   0  0  0  0  0  0  0  0  0  0  0  0
  160.4140  203.4940  144.8200 O   0  0  0  0  0  0  0  0  0  0  0  0
  162.6570  203.6450  145.2460 O   0  0  0  0  0  1  0  0  0  0  0  0
  1 18  1  6  0  0  0
  1 15  1  0  0  0  0
  2 10  1  0  0  0  0
  3 13  1  0  0  0  0
  5  6  1  0  0  0  0
  5  9  2  0  0  0  0
  6  4  2  0  0  0  0
  7  8  1  0  0  0  0
  7  3  2  0  0  0  0
  8  4  1  6  0  0  0
  8  1  1  0  0  0  0
  9  7  1  0  0  0  0
 10 11  1  0  0  0  0
 11 16  1  0  0  0  0
 12 11  2  0  0  0  0
 13 15  1  0  0  0  0
 13  2  2  0  0  0  0
 14 12  1  0  0  0  0
 15 14  2  0  0  0  0
 16 17  1  0  0  0  0
 19 31  1  0  0  0  0
 20 30  1  0  0  0  0
 21 23  1  6  0  0  0
 21 29  1  0  0  0  0
 21 24  1  0  0  0  0
 22 18  1  6  0  0  0
 22 26  1  0  0  0  0
 24 25  2  0  0  0  0
 25 19  1  0  0  0  0
 27 28  1  0  0  0  0
 28 25  1  0  0  0  0
 28 20  2  0  0  0  0
 29 27  1  0  0  0  0
 30 31  1  6  0  0  0
 30 22  1  0  0  0  0
 30 26  1  0  0  0  0
 32 21  1  0  0  0  0
 33 32  2  0  0  0  0
 34 32  1  0  0  0  0
M  END
>  <MODEL>
5

>  <REMARK>
 VINA RESULT:      -7.0      2.106      4.393
  Name = 
  4 active torsions:
  status: ('A' for Active; 'I' for Inactive)
    1  A    between atoms: C_1  and  C_9
    2  A    between atoms: C_3  and  C_25
    3  A    between atoms: C_7  and  C_11
    4  A    between atoms: C_8  and  C_9
                            x       y       z     vdW  Elec       q    Type
                         _______ _______ _______ _____ _____    ______ ____

>  <TORSDO>
F 4

$$$$
=
 OpenBabel11062409323D

 34 39  0  0  1  0  0  0  0  0999 V2000
  160.8800  206.5530  151.4770 C   0  0  1  0  0  3  0  0  0  0  0  0
  161.8740  208.0910  148.2580 C   0  0  0  0  0  3  0  0  0  0  0  0
  161.6210  205.8100  148.8130 C   0  0  0  0  0  3  0  0  0  0  0  0
  160.4880  204.0790  151.8940 C   0  0  0  0  0  3  0  0  0  0  0  0
  160.9810  202.4880  150.0920 C   0  0  0  0  0  3  0  0  0  0  0  0
  160.6900  202.8150  151.5030 C   0  0  0  0  0  3  0  0  0  0  0  0
  161.1490  204.8600  149.6110 C   0  0  0  0  0  0  0  0  0  0  0  0
  160.4480  205.2180  150.9010 C   0  0  2  0  0  3  0  0  0  0  0  0
  161.2120  203.4520  149.1980 C   0  0  0  0  0  3  0  0  0  0  0  0
  161.9580  209.5540  148.2780 C   0  0  0  0  0  3  0  0  0  0  0  0
  161.9600  210.3910  149.3100 C   0  0  0  0  0  0  0  0  0  0  0  0
  161.9260  210.0190  150.7260 C   0  0  0  0  0  3  0  0  0  0  0  0
  161.6190  207.2180  149.2310 C   0  0  1  0  0  3  0  0  0  0  0  0
  161.6690  208.8420  151.2820 C   0  0  0  0  0  3  0  0  0  0  0  0
  161.3490  207.5390  150.6640 C   0  0  0  0  0  0  0  0  0  0  0  0
  162.0980  211.8410  149.0050 C   0  0  0  0  0  2  0  0  0  0  0  0
  161.5330  212.1190  147.7600 O   0  0  0  0  0  1  0  0  0  0  0  0
  160.5710  206.8170  152.9280 C   0  0  0  0  0  2  0  0  0  0  0  0
  161.8610  210.9010  155.5470 C   0  0  0  0  0  2  0  0  0  0  0  0
  159.9050  209.1800  154.2610 N   0  0  0  0  0  0  0  0  0  0  0  0
  158.6180  212.9930  155.4220 C   0  0  2  0  0  0  0  0  0  0  0  0
  161.7380  207.5300  153.6000 C   0  0  2  0  0  3  0  0  0  0  0  0
  158.5330  213.5860  154.1580 O   0  0  0  0  0  1  0  0  0  0  0  0
  160.0310  212.5240  155.6490 C   0  0  0  0  0  3  0  0  0  0  0  0
  160.4490  211.3170  155.2600 C   0  0  0  0  0  0  0  0  0  0  0  0
  161.5440  207.5030  155.1160 C   0  0  0  0  0  2  0  0  0  0  0  0
  158.0480  210.7060  154.5090 C   0  0  0  0  0  2  0  0  0  0  0  0
  159.4900  210.3340  154.6900 C   0  0  0  0  0  0  0  0  0  0  0  0
  157.6430  211.8100  155.4880 C   0  0  0  0  0  2  0  0  0  0  0  0
  161.3100  208.7800  154.3520 C   0  0  2  0  0  0  0  0  0  0  0  0
  162.3530  209.8790  154.5250 C   0  0  0  0  0  2  0  0  0  0  0  0
  158.2600  213.9950  156.4810 C   0  0  0  0  0  0  0  0  0  0  0  0
  156.9390  214.4000  156.6370 O   0  0  0  0  0  0  0  0  0  0  0  0
  159.1410  214.4510  157.2580 O   0  0  0  0  0  1  0  0  0  0  0  0
  1 18  1  6  0  0  0
  2 10  2  0  0  0  0
  3 13  1  0  0  0  0
  3  7  2  0  0  0  0
  5  6  1  0  0  0  0
  6  4  2  0  0  0  0
  7  8  1  0  0  0  0
  8  1  1  0  0  0  0
  8  4  1  1  0  0  0
  9  7  1  0  0  0  0
  9  5  2  0  0  0  0
 10 11  1  0  0  0  0
 11 12  2  0  0  0  0
 12 14  1  0  0  0  0
 13  2  1  1  0  0  0
 13 15  1  0  0  0  0
 15 14  2  0  0  0  0
 15  1  1  0  0  0  0
 16 11  1  0  0  0  0
 17 16  1  0  0  0  0
 20 30  1  0  0  0  0
 20 28  2  0  0  0  0
 21 23  1  6  0  0  0
 21 29  1  0  0  0  0
 21 24  1  0  0  0  0
 21 32  1  0  0  0  0
 22 18  1  6  0  0  0
 22 30  1  0  0  0  0
 22 26  1  0  0  0  0
 25 19  1  0  0  0  0
 25 24  2  0  0  0  0
 27 28  1  0  0  0  0
 27 29  1  0  0  0  0
 28 25  1  0  0  0  0
 30 31  1  1  0  0  0
 30 26  1  0  0  0  0
 31 19  1  0  0  0  0
 32 33  2  0  0  0  0
 32 34  1  0  0  0  0
M  END
>  <MODEL>
6

>  <REMARK>
 VINA RESULT:      -6.9      3.460      8.113
  Name = 
  4 active torsions:
  status: ('A' for Active; 'I' for Inactive)
    1  A    between atoms: C_1  and  C_9
    2  A    between atoms: C_3  and  C_25
    3  A    between atoms: C_7  and  C_11
    4  A    between atoms: C_8  and  C_9
                            x       y       z     vdW  Elec       q    Type
                         _______ _______ _______ _____ _____    ______ ____

>  <TORSDO>
F 4

$$$$
=
 OpenBabel11062409323D

 34 39  0  0  1  0  0  0  0  0999 V2000
  161.9040  205.4230  151.1200 C   0  0  1  0  0  3  0  0  0  0  0  0
  161.0360  206.9920  147.8810 C   0  0  0  0  0  3  0  0  0  0  0  0
  160.9520  204.7180  148.5140 C   0  0  0  0  0  3  0  0  0  0  0  0
  161.6140  202.9720  151.7200 C   0  0  0  0  0  3  0  0  0  0  0  0
  160.8730  201.4120  149.9770 C   0  0  0  0  0  3  0  0  0  0  0  0
  161.4560  201.7110  151.3010 C   0  0  0  0  0  3  0  0  0  0  0  0
  160.9360  203.7810  149.4520 C   0  0  0  0  0  0  0  0  0  0  0  0
  161.1150  204.1450  150.9080 C   0  0  2  0  0  3  0  0  0  0  0  0
  160.6390  202.3860  149.0950 C   0  0  0  0  0  3  0  0  0  0  0  0
  161.2370  208.4420  147.8300 C   0  0  0  0  0  3  0  0  0  0  0  0
  161.8880  209.2410  148.6690 C   0  0  0  0  0  0  0  0  0  0  0  0
  162.6270  208.8230  149.8620 C   0  0  0  0  0  3  0  0  0  0  0  0
  161.3020  206.1080  148.8410 C   0  0  1  0  0  3  0  0  0  0  0  0
  162.6310  207.6500  150.4830 C   0  0  0  0  0  3  0  0  0  0  0  0
  161.9140  206.3980  150.1710 C   0  0  0  0  0  0  0  0  0  0  0  0
  161.9490  210.6860  148.3190 C   0  0  0  0  0  2  0  0  0  0  0  0
  161.9880  211.4540  149.4840 O   0  0  0  0  0  1  0  0  0  0  0  0
  162.4890  205.6580  152.4890 C   0  0  0  0  0  2  0  0  0  0  0  0
  159.4430  207.8270  155.8400 C   0  0  0  0  0  2  0  0  0  0  0  0
  161.3590  207.9300  153.6570 N   0  0  0  0  0  0  0  0  0  0  0  0
  160.5380  211.5250  155.6440 C   0  0  2  0  0  0  0  0  0  0  0  0
  161.4490  205.3800  153.5680 C   0  0  2  0  0  3  0  0  0  0  0  0
  161.7380  211.6600  156.3500 O   0  0  0  0  0  1  0  0  0  0  0  0
  159.8820  210.2270  156.0370 C   0  0  0  0  0  3  0  0  0  0  0  0
  160.1590  209.0770  155.4190 C   0  0  0  0  0  0  0  0  0  0  0  0
  160.0800  205.8630  153.0880 C   0  0  0  0  0  2  0  0  0  0  0  0
  161.6700  210.3250  153.7290 C   0  0  0  0  0  2  0  0  0  0  0  0
  161.0450  209.0550  154.2260 C   0  0  0  0  0  0  0  0  0  0  0  0
  160.8360  211.5400  154.1390 C   0  0  0  0  0  2  0  0  0  0  0  0
  160.8310  206.6500  154.1310 C   0  0  2  0  0  0  0  0  0  0  0  0
  160.2880  206.5870  155.5540 C   0  0  0  0  0  2  0  0  0  0  0  0
  159.6160  212.6600  155.9820 C   0  0  0  0  0  0  0  0  0  0  0  0
  158.2660  212.5790  155.6570 O   0  0  0  0  0  0  0  0  0  0  0  0
  160.0430  213.6780  156.5900 O   0  0  0  0  0  1  0  0  0  0  0  0
  1 18  1  1  0  0  0
  3 13  1  0  0  0  0
  3  7  2  0  0  0  0
  5  6  1  0  0  0  0
  6  4  2  0  0  0  0
  7  8  1  0  0  0  0
  8  1  1  0  0  0  0
  8  4  1  1  0  0  0
  9  7  1  0  0  0  0
  9  5  2  0  0  0  0
 10  2  2  0  0  0  0
 10 11  1  0  0  0  0
 11 12  2  0  0  0  0
 12 14  1  0  0  0  0
 13  2  1  6  0  0  0
 13 15  1  0  0  0  0
 15 14  2  0  0  0  0
 15  1  1  0  0  0  0
 16 11  1  0  0  0  0
 16 17  1  0  0  0  0
 20 30  1  0  0  0  0
 20 28  2  0  0  0  0
 21 32  1  0  0  0  0
 21 24  1  0  0  0  0
 21 23  1  1  0  0  0
 22 18  1  6  0  0  0
 22 30  1  0  0  0  0
 25 19  1  0  0  0  0
 25 24  2  0  0  0  0
 26 22  1  0  0  0  0
 27 29  1  0  0  0  0
 27 28  1  0  0  0  0
 28 25  1  0  0  0  0
 29 21  1  0  0  0  0
 30 26  1  6  0  0  0
 30 31  1  0  0  0  0
 31 19  1  0  0  0  0
 32 34  1  0  0  0  0
 33 32  2  0  0  0  0
M  END
>  <MODEL>
7

>  <REMARK>
 VINA RESULT:      -6.6      3.350      7.814
  Name = 
  4 active torsions:
  status: ('A' for Active; 'I' for Inactive)
    1  A    between atoms: C_1  and  C_9
    2  A    between atoms: C_3  and  C_25
    3  A    between atoms: C_7  and  C_11
    4  A    between atoms: C_8  and  C_9
                            x       y       z     vdW  Elec       q    Type
                         _______ _______ _______ _____ _____    ______ ____

>  <TORSDO>
F 4

$$$$
=
 OpenBabel11062409323D

 34 39  0  0  1  0  0  0  0  0999 V2000
  161.6990  208.2710  151.8180 C   0  0  1  0  0  3  0  0  0  0  0  0
  160.9800  211.8270  151.0800 C   0  0  0  0  0  3  0  0  0  0  0  0
  160.4150  210.5490  152.9830 C   0  0  0  0  0  3  0  0  0  0  0  0
  161.1700  207.0570  153.9860 C   0  0  0  0  0  3  0  0  0  0  0  0
  159.8960  208.2410  155.7180 C   0  0  0  0  0  3  0  0  0  0  0  0
  160.4580  207.0130  155.1190 C   0  0  0  0  0  3  0  0  0  0  0  0
  160.5840  209.4780  153.7470 C   0  0  0  0  0  0  0  0  0  0  0  0
  161.5190  208.3690  153.3220 C   0  0  2  0  0  3  0  0  0  0  0  0
  159.9420  209.4050  155.0670 C   0  0  0  0  0  3  0  0  0  0  0  0
  161.4610  212.2910  149.7750 C   0  0  0  0  0  3  0  0  0  0  0  0
  161.9020  211.5920  148.7340 C   0  0  0  0  0  0  0  0  0  0  0  0
  161.9630  210.1320  148.6360 C   0  0  0  0  0  3  0  0  0  0  0  0
  161.0010  210.6180  151.6380 C   0  0  1  0  0  3  0  0  0  0  0  0
  161.8200  209.2170  149.5850 C   0  0  0  0  0  3  0  0  0  0  0  0
  161.5440  209.3670  151.0290 C   0  0  0  0  0  0  0  0  0  0  0  0
  162.2880  212.3590  147.5190 C   0  0  0  0  0  2  0  0  0  0  0  0
  163.0130  213.4930  147.8860 O   0  0  0  0  0  1  0  0  0  0  0  0
  162.2580  206.9830  151.2690 C   0  0  0  0  0  2  0  0  0  0  0  0
  160.5160  202.3330  150.5290 C   0  0  0  0  0  2  0  0  0  0  0  0
  161.8400  204.7590  149.6320 N   0  0  0  0  0  0  0  0  0  0  0  0
  160.6940  202.0100  146.6850 C   0  0  2  0  0  0  0  0  0  0  0  0
  161.6140  205.7860  151.9580 C   0  0  2  0  0  3  0  0  0  0  0  0
  159.6160  202.7160  146.1410 O   0  0  0  0  0  1  0  0  0  0  0  0
  160.4320  201.7690  148.1490 C   0  0  0  0  0  3  0  0  0  0  0  0
  160.7760  202.6530  149.0870 C   0  0  0  0  0  0  0  0  0  0  0  0
  162.6120  204.6290  152.0020 C   0  0  0  0  0  2  0  0  0  0  0  0
  161.9180  204.1360  147.2980 C   0  0  0  0  0  2  0  0  0  0  0  0
  161.5510  203.8710  148.7290 C   0  0  0  0  0  0  0  0  0  0  0  0
  161.9770  202.8320  146.5000 C   0  0  0  0  0  2  0  0  0  0  0  0
  161.4570  204.5890  151.0340 C   0  0  2  0  0  0  0  0  0  0  0  0
  160.3350  203.6070  151.3520 C   0  0  0  0  0  2  0  0  0  0  0  0
  160.8430  200.6880  145.9910 C   0  0  0  0  0  0  0  0  0  0  0  0
  161.5810  199.6700  146.5860 O   0  0  0  0  0  1  0  0  0  0  0  0
  160.2780  200.4750  144.8860 O   0  0  0  0  0  0  0  0  0  0  0  0
  1 18  1  1  0  0  0
  1  8  1  0  0  0  0
  3  7  2  0  0  0  0
  4  6  2  0  0  0  0
  6  5  1  0  0  0  0
  7  9  1  0  0  0  0
  8  7  1  0  0  0  0
  8  4  1  6  0  0  0
  9  5  2  0  0  0  0
 10  2  2  0  0  0  0
 11 10  1  0  0  0  0
 12 11  2  0  0  0  0
 12 14  1  0  0  0  0
 13  2  1  6  0  0  0
 13  3  1  0  0  0  0
 14 15  2  0  0  0  0
 15 13  1  0  0  0  0
 15  1  1  0  0  0  0
 16 17  1  0  0  0  0
 16 11  1  0  0  0  0
 19 31  1  0  0  0  0
 20 30  1  0  0  0  0
 21 23  1  6  0  0  0
 21 24  1  0  0  0  0
 22 18  1  6  0  0  0
 22 26  1  0  0  0  0
 24 25  2  0  0  0  0
 25 19  1  0  0  0  0
 27 28  1  0  0  0  0
 28 25  1  0  0  0  0
 28 20  2  0  0  0  0
 29 21  1  0  0  0  0
 29 27  1  0  0  0  0
 30 31  1  1  0  0  0
 30 22  1  0  0  0  0
 30 26  1  0  0  0  0
 32 33  1  0  0  0  0
 32 21  1  0  0  0  0
 34 32  2  0  0  0  0
M  END
>  <MODEL>
8

>  <REMARK>
 VINA RESULT:      -6.6      1.794      2.337
  Name = 
  4 active torsions:
  status: ('A' for Active; 'I' for Inactive)
    1  A    between atoms: C_1  and  C_9
    2  A    between atoms: C_3  and  C_25
    3  A    between atoms: C_7  and  C_11
    4  A    between atoms: C_8  and  C_9
                            x       y       z     vdW  Elec       q    Type
                         _______ _______ _______ _____ _____    ______ ____

>  <TORSDO>
F 4

$$$$
=
 OpenBabel11062409323D

 34 39  0  0  1  0  0  0  0  0999 V2000
  159.9520  212.4040  151.8610 C   0  0  1  0  0  3  0  0  0  0  0  0
  156.7610  213.5520  153.3480 C   0  0  0  0  0  3  0  0  0  0  0  0
  157.6650  214.0000  151.2130 C   0  0  0  0  0  3  0  0  0  0  0  0
  160.7320  212.8300  149.4810 C   0  0  0  0  0  3  0  0  0  0  0  0
  159.3820  214.2900  148.0430 C   0  0  0  0  0  3  0  0  0  0  0  0
  160.6260  213.5610  148.3650 C   0  0  0  0  0  3  0  0  0  0  0  0
  158.5160  213.7150  150.2360 C   0  0  0  0  0  0  0  0  0  0  0  0
  159.5580  212.6340  150.4140 C   0  0  2  0  0  3  0  0  0  0  0  0
  158.3880  214.3770  148.9310 C   0  0  0  0  0  3  0  0  0  0  0  0
  156.5280  213.1000  154.7220 C   0  0  0  0  0  2  0  0  0  0  0  0
  157.3700  212.5450  155.5890 C   0  0  0  0  0  0  0  0  0  0  0  0
  158.7960  212.2950  155.3700 C   0  0  0  0  0  3  0  0  0  0  0  0
  157.8090  213.3910  152.5420 C   0  0  0  0  0  0  0  0  0  0  0  0
  159.4980  212.3450  154.2460 C   0  0  0  0  0  3  0  0  0  0  0  0
  159.0790  212.6760  152.8680 C   0  0  0  0  0  0  0  0  0  0  0  0
  156.8370  212.2280  156.9420 C   0  0  0  0  0  2  0  0  0  0  0  0
  155.6860  211.4470  156.8260 O   0  0  0  0  0  1  0  0  0  0  0  0
  161.2420  211.6700  152.1210 C   0  0  0  0  0  2  0  0  0  0  0  0
  161.0350  206.6550  151.9730 C   0  0  0  0  0  2  0  0  0  0  0  0
  161.5630  209.2470  150.7690 N   0  0  0  0  0  0  0  0  0  0  0  0
  161.3790  205.9490  148.1920 C   0  0  2  0  0  0  0  0  0  0  0  0
  160.9860  210.4230  152.9600 C   0  0  2  0  0  3  0  0  0  0  0  0
  160.1470  206.2170  147.5870 O   0  0  0  0  0  1  0  0  0  0  0  0
  161.1760  205.8140  149.6790 C   0  0  0  0  0  3  0  0  0  0  0  0
  161.2120  206.8660  150.4980 C   0  0  0  0  0  0  0  0  0  0  0  0
  162.2910  209.6440  153.1230 C   0  0  0  0  0  2  0  0  0  0  0  0
  161.8750  208.4050  148.5250 C   0  0  0  0  0  2  0  0  0  0  0  0
  161.5800  208.2120  149.9830 C   0  0  0  0  0  0  0  0  0  0  0  0
  162.3490  207.0980  147.8870 C   0  0  0  0  0  2  0  0  0  0  0  0
  161.2240  209.1350  152.1880 C   0  0  2  0  0  0  0  0  0  0  0  0
  160.4550  207.9000  152.6410 C   0  0  0  0  0  2  0  0  0  0  0  0
  161.9420  204.6640  147.6580 C   0  0  0  0  0  0  0  0  0  0  0  0
  162.8760  204.6900  146.6280 O   0  0  0  0  0  0  0  0  0  0  0  0
  161.6030  203.5570  148.1550 O   0  0  0  0  0  1  0  0  0  0  0  0
  1 18  1  6  0  0  0
  1 15  1  0  0  0  0
  2 10  1  0  0  0  0
  3 13  1  0  0  0  0
  5  6  1  0  0  0  0
  5  9  2  0  0  0  0
  6  4  2  0  0  0  0
  7  8  1  0  0  0  0
  7  3  2  0  0  0  0
  8  4  1  6  0  0  0
  8  1  1  0  0  0  0
  9  7  1  0  0  0  0
 10 11  1  0  0  0  0
 11 16  1  0  0  0  0
 12 11  2  0  0  0  0
 13 15  1  0  0  0  0
 13  2  2  0  0  0  0
 14 12  1  0  0  0  0
 15 14  2  0  0  0  0
 17 16  1  0  0  0  0
 19 31  1  0  0  0  0
 20 30  1  0  0  0  0
 21 23  1  6  0  0  0
 21 24  1  0  0  0  0
 22 18  1  6  0  0  0
 22 26  1  0  0  0  0
 24 25  2  0  0  0  0
 25 19  1  0  0  0  0
 27 28  1  0  0  0  0
 28 25  1  0  0  0  0
 28 20  2  0  0  0  0
 29 21  1  0  0  0  0
 29 27  1  0  0  0  0
 30 31  1  1  0  0  0
 30 22  1  0  0  0  0
 30 26  1  0  0  0  0
 32 34  1  0  0  0  0
 32 21  1  0  0  0  0
 33 32  2  0  0  0  0
M  END
>  <MODEL>
9

>  <REMARK>
 VINA RESULT:      -6.4      2.724      5.161
  Name = 
  4 active torsions:
  status: ('A' for Active; 'I' for Inactive)
    1  A    between atoms: C_1  and  C_9
    2  A    between atoms: C_3  and  C_25
    3  A    between atoms: C_7  and  C_11
    4  A    between atoms: C_8  and  C_9
                            x       y       z     vdW  Elec       q    Type
                         _______ _______ _______ _____ _____    ______ ____

>  <TORSDO>
F 4

$$$$
