=
 OpenBabel11052422553D

 28 31  0  0  1  0  0  0  0  0999 V2000
  160.4990  208.1970  152.7510 C   0  0  1  0  0  3  0  0  0  0  0  0
  160.6050  203.6710  150.2330 C   0  0  0  0  0  3  0  0  0  0  0  0
  162.4660  209.3070  148.2560 C   0  0  0  0  0  1  0  0  0  0  0  0
  161.5500  204.2350  148.0670 C   0  0  0  0  0  0  0  0  0  0  0  0
  161.2510  205.9920  149.7390 C   0  0  0  0  0  0  0  0  0  0  0  0
  160.9130  201.9500  148.5580 C   0  0  0  0  0  0  0  0  0  0  0  0
  161.1310  204.6370  149.3580 C   0  0  0  0  0  0  0  0  0  0  0  0
  162.1940  206.5080  147.5520 C   0  0  0  0  0  3  0  0  0  0  0  0
  161.4390  202.8970  147.6770 C   0  0  0  0  0  3  0  0  0  0  0  0
  161.5030  208.6980  150.4840 C   0  0  0  0  0  0  0  0  0  0  0  0
  160.8440  206.4230  151.0090 C   0  0  0  0  0  3  0  0  0  0  0  0
  162.0770  205.1700  147.1780 C   0  0  0  0  0  3  0  0  0  0  0  0
  161.4790  210.4650  152.2120 C   0  0  0  0  0  2  0  0  0  0  0  0
  161.9070  208.2890  149.2020 C   0  0  0  0  0  0  0  0  0  0  0  0
  161.6100  210.0450  150.8570 O   0  0  0  0  0  0  0  0  0  0  0  0
  160.8040  200.6240  148.1650 O   0  0  0  0  0  1  0  0  0  0  0  0
  160.4970  202.3360  149.8350 C   0  0  0  0  0  3  0  0  0  0  0  0
  161.7880  206.9360  148.8260 C   0  0  0  0  0  0  0  0  0  0  0  0
  160.3400  209.7190  152.8940 C   0  0  0  0  0  2  0  0  0  0  0  0
  160.9700  207.7600  151.3870 C   0  0  0  0  0  0  0  0  0  0  0  0
  161.2080  207.4940  153.9250 C   0  0  2  0  0  3  0  0  0  0  0  0
  161.7370  206.1140  153.5740 C   0  0  0  0  0  1  0  0  0  0  0  0
  160.5470  207.5690  155.3110 C   0  0  0  0  0  2  0  0  0  0  0  0
  160.1640  209.8340  156.3540 C   0  0  0  0  0  0  0  0  0  0  0  0
  162.1910  208.5010  156.9310 C   0  0  0  0  0  1  0  0  0  0  0  0
  161.0040  208.6980  156.1140 N   0  0  0  0  0  0  0  0  0  0  0  0
  158.8400  209.8370  155.9310 O   0  0  0  0  0  0  0  0  0  0  0  0
  160.6130  210.8370  156.9700 O   0  0  0  0  0  1  0  0  0  0  0  0
  1 19  1  0  0  0  0
  1 21  1  1  0  0  0
  3 14  1  0  0  0  0
  4  7  1  0  0  0  0
  5 11  1  0  0  0  0
  6 17  2  0  0  0  0
  7  5  1  0  0  0  0
  7  2  2  0  0  0  0
  8 18  1  0  0  0  0
  9  4  2  0  0  0  0
  9  6  1  0  0  0  0
 10 15  1  0  0  0  0
 10 20  1  0  0  0  0
 11 20  2  0  0  0  0
 12  8  2  0  0  0  0
 12  4  1  0  0  0  0
 13 19  1  0  0  0  0
 14 10  2  0  0  0  0
 15 13  1  0  0  0  0
 16  6  1  0  0  0  0
 17  2  1  0  0  0  0
 18 14  1  0  0  0  0
 18  5  2  0  0  0  0
 20  1  1  0  0  0  0
 21 22  1  6  0  0  0
 21 23  1  0  0  0  0
 23 26  1  0  0  0  0
 24 28  1  0  0  0  0
 26 24  1  0  0  0  0
 26 25  1  0  0  0  0
 27 24  2  0  0  0  0
M  END
>  <MODEL>
1

>  <REMARK>
 VINA RESULT:      -9.9      0.000      0.000
  Name = 
  3 active torsions:
  status: ('A' for Active; 'I' for Inactive)
    1  A    between atoms: C_1  and  C_2
    2  A    between atoms: C_2  and  C_3
    3  A    between atoms: C_3  and  N_11
                            x       y       z     vdW  Elec       q    Type
                         _______ _______ _______ _____ _____    ______ ____

>  <TORSDO>
F 3

$$$$
=
 OpenBabel11052422553D

 28 31  0  0  1  0  0  0  0  0999 V2000
  161.8530  207.4470  152.0840 C   0  0  1  0  0  3  0  0  0  0  0  0
  161.8040  206.2420  147.0460 C   0  0  0  0  0  3  0  0  0  0  0  0
  160.6720  202.5580  151.9740 C   0  0  0  0  0  1  0  0  0  0  0  0
  161.2390  203.8790  147.0210 C   0  0  0  0  0  0  0  0  0  0  0  0
  161.4080  205.0490  149.1600 C   0  0  0  0  0  0  0  0  0  0  0  0
  161.6300  205.0580  144.9420 C   0  0  0  0  0  0  0  0  0  0  0  0
  161.4860  205.0680  147.7500 C   0  0  0  0  0  0  0  0  0  0  0  0
  160.8450  202.6800  149.0830 C   0  0  0  0  0  3  0  0  0  0  0  0
  161.3120  203.8820  145.6250 C   0  0  0  0  0  3  0  0  0  0  0  0
  161.2410  204.9950  151.9720 C   0  0  0  0  0  0  0  0  0  0  0  0
  161.6490  206.2080  149.9120 C   0  0  0  0  0  3  0  0  0  0  0  0
  160.9220  202.6990  147.6910 C   0  0  0  0  0  3  0  0  0  0  0  0
  161.1310  206.1710  154.1440 C   0  0  0  0  0  2  0  0  0  0  0  0
  161.0080  203.8200  151.2400 C   0  0  0  0  0  0  0  0  0  0  0  0
  161.1760  204.9740  153.3720 O   0  0  0  0  0  0  0  0  0  0  0  0
  161.7000  205.0560  143.5560 O   0  0  0  0  0  1  0  0  0  0  0  0
  161.8750  206.2360  145.6500 C   0  0  0  0  0  3  0  0  0  0  0  0
  161.0850  203.8420  149.8320 C   0  0  0  0  0  0  0  0  0  0  0  0
  162.0980  207.2040  153.5820 C   0  0  0  0  0  2  0  0  0  0  0  0
  161.5630  206.1900  151.3040 C   0  0  0  0  0  0  0  0  0  0  0  0
  160.9270  208.6330  151.7500 C   0  0  2  0  0  3  0  0  0  0  0  0
  161.5830  209.6840  150.8710 C   0  0  0  0  0  1  0  0  0  0  0  0
  160.0740  209.2200  152.8850 C   0  0  0  0  0  2  0  0  0  0  0  0
  159.5970  211.6970  152.9380 C   0  0  0  0  0  0  0  0  0  0  0  0
  161.5220  210.7520  154.2100 C   0  0  0  0  0  1  0  0  0  0  0  0
  160.4460  210.5840  153.2470 N   0  0  0  0  0  0  0  0  0  0  0  0
  158.3340  211.4940  152.3940 O   0  0  0  0  0  0  0  0  0  0  0  0
  159.9810  212.8740  153.1750 O   0  0  0  0  0  1  0  0  0  0  0  0
  1 21  1  1  0  0  0
  1 19  1  0  0  0  0
  2  7  1  0  0  0  0
  4 12  2  0  0  0  0
  4  7  1  0  0  0  0
  5 18  1  0  0  0  0
  5 11  1  0  0  0  0
  6  9  2  0  0  0  0
  6 17  1  0  0  0  0
  7  5  2  0  0  0  0
  8 18  2  0  0  0  0
  9  4  1  0  0  0  0
 10 15  1  0  0  0  0
 11 20  2  0  0  0  0
 12  8  1  0  0  0  0
 14 10  2  0  0  0  0
 14  3  1  0  0  0  0
 15 13  1  0  0  0  0
 16  6  1  0  0  0  0
 17  2  2  0  0  0  0
 18 14  1  0  0  0  0
 19 13  1  0  0  0  0
 20 10  1  0  0  0  0
 20  1  1  0  0  0  0
 21 22  1  1  0  0  0
 21 23  1  0  0  0  0
 23 26  1  0  0  0  0
 24 28  1  0  0  0  0
 24 26  1  0  0  0  0
 26 25  1  0  0  0  0
 27 24  2  0  0  0  0
M  END
>  <MODEL>
2

>  <REMARK>
 VINA RESULT:      -9.6      2.378      4.015
  Name = 
  3 active torsions:
  status: ('A' for Active; 'I' for Inactive)
    1  A    between atoms: C_1  and  C_2
    2  A    between atoms: C_2  and  C_3
    3  A    between atoms: C_3  and  N_11
                            x       y       z     vdW  Elec       q    Type
                         _______ _______ _______ _____ _____    ______ ____

>  <TORSDO>
F 3

$$$$
=
 OpenBabel11052422553D

 28 31  0  0  1  0  0  0  0  0999 V2000
  162.4190  209.3900  150.6430 C   0  0  1  0  0  3  0  0  0  0  0  0
  161.6700  204.8300  148.3020 C   0  0  0  0  0  3  0  0  0  0  0  0
  160.8200  206.3430  154.3120 C   0  0  0  0  0  1  0  0  0  0  0  0
  160.9070  203.3770  150.0940 C   0  0  0  0  0  0  0  0  0  0  0  0
  161.4280  205.7140  150.5840 C   0  0  0  0  0  0  0  0  0  0  0  0
  161.1460  202.5110  147.8450 C   0  0  0  0  0  0  0  0  0  0  0  0
  161.3390  204.6530  149.6560 C   0  0  0  0  0  0  0  0  0  0  0  0
  160.6590  204.2190  152.3480 C   0  0  0  0  0  3  0  0  0  0  0  0
  160.8130  202.3170  149.1880 C   0  0  0  0  0  3  0  0  0  0  0  0
  161.5920  207.8220  152.4460 C   0  0  0  0  0  0  0  0  0  0  0  0
  161.8540  206.9890  150.1840 C   0  0  0  0  0  3  0  0  0  0  0  0
  160.5710  203.1710  151.4310 C   0  0  0  0  0  3  0  0  0  0  0  0
  161.8410  210.2280  152.9560 C   0  0  0  0  0  2  0  0  0  0  0  0
  161.1730  206.5510  152.8710 C   0  0  0  0  0  0  0  0  0  0  0  0
  161.6920  208.8720  153.3690 O   0  0  0  0  0  0  0  0  0  0  0  0
  161.0520  201.4550  146.9490 O   0  0  0  0  0  1  0  0  0  0  0  0
  161.5740  203.7650  147.4020 C   0  0  0  0  0  3  0  0  0  0  0  0
  161.0840  205.4940  151.9430 C   0  0  0  0  0  0  0  0  0  0  0  0
  162.8190  210.3270  151.7930 C   0  0  0  0  0  2  0  0  0  0  0  0
  161.9330  208.0380  151.0990 C   0  0  0  0  0  0  0  0  0  0  0  0
  161.5650  210.0340  149.5330 C   0  0  2  0  0  3  0  0  0  0  0  0
  161.6660  209.3160  148.1980 C   0  0  0  0  0  1  0  0  0  0  0  0
  161.5770  211.5660  149.4150 C   0  0  0  0  0  2  0  0  0  0  0  0
  161.0030  212.5130  147.1480 C   0  0  0  0  0  0  0  0  0  0  0  0
  163.3790  212.3470  147.8850 C   0  0  0  0  0  1  0  0  0  0  0  0
  161.9730  212.0460  148.0950 N   0  0  0  0  0  0  0  0  0  0  0  0
  159.6670  212.6400  147.5080 O   0  0  0  0  0  1  0  0  0  0  0  0
  161.3570  212.8330  145.9810 O   0  0  0  0  0  0  0  0  0  0  0  0
  1 21  1  1  0  0  0
  1 20  1  0  0  0  0
  1 19  1  0  0  0  0
  2  7  1  0  0  0  0
  4 12  1  0  0  0  0
  5 18  1  0  0  0  0
  6  9  2  0  0  0  0
  7  4  2  0  0  0  0
  7  5  1  0  0  0  0
  9  4  1  0  0  0  0
 10 14  1  0  0  0  0
 10 15  1  0  0  0  0
 11  5  2  0  0  0  0
 11 20  1  0  0  0  0
 12  8  2  0  0  0  0
 13 15  1  0  0  0  0
 14  3  1  0  0  0  0
 16  6  1  0  0  0  0
 17  6  1  0  0  0  0
 17  2  2  0  0  0  0
 18  8  1  0  0  0  0
 18 14  2  0  0  0  0
 19 13  1  0  0  0  0
 20 10  2  0  0  0  0
 21 22  1  6  0  0  0
 23 21  1  0  0  0  0
 24 27  1  0  0  0  0
 24 26  1  0  0  0  0
 25 26  1  0  0  0  0
 26 23  1  0  0  0  0
 28 24  2  0  0  0  0
M  END
>  <MODEL>
3

>  <REMARK>
 VINA RESULT:      -9.2      2.645      5.286
  Name = 
  3 active torsions:
  status: ('A' for Active; 'I' for Inactive)
    1  A    between atoms: C_1  and  C_2
    2  A    between atoms: C_2  and  C_3
    3  A    between atoms: C_3  and  N_11
                            x       y       z     vdW  Elec       q    Type
                         _______ _______ _______ _____ _____    ______ ____

>  <TORSDO>
F 3

$$$$
=
 OpenBabel11052422553D

 28 31  0  0  1  0  0  0  0  0999 V2000
  160.4320  211.5170  154.3690 C   0  0  1  0  0  3  0  0  0  0  0  0
  161.2520  208.2720  150.4150 C   0  0  0  0  0  3  0  0  0  0  0  0
  160.4510  206.9500  156.4770 C   0  0  0  0  0  1  0  0  0  0  0  0
  161.2640  206.0780  151.4600 C   0  0  0  0  0  0  0  0  0  0  0  0
  160.9050  208.0620  152.8400 C   0  0  0  0  0  0  0  0  0  0  0  0
  161.6050  206.2900  149.0710 C   0  0  0  0  0  0  0  0  0  0  0  0
  161.1390  207.4840  151.5730 C   0  0  0  0  0  0  0  0  0  0  0  0
  160.9260  205.8410  153.8420 C   0  0  0  0  0  3  0  0  0  0  0  0
  161.4960  205.4910  150.2120 C   0  0  0  0  0  3  0  0  0  0  0  0
  160.4300  209.1970  155.3750 C   0  0  0  0  0  0  0  0  0  0  0  0
  160.7780  209.4500  152.9880 C   0  0  0  0  0  3  0  0  0  0  0  0
  161.1570  205.2700  152.5910 C   0  0  0  0  0  3  0  0  0  0  0  0
  159.7960  211.1270  156.7840 C   0  0  0  0  0  2  0  0  0  0  0  0
  160.5640  207.8050  155.2520 C   0  0  0  0  0  0  0  0  0  0  0  0
  160.2090  209.7720  156.6350 O   0  0  0  0  0  0  0  0  0  0  0  0
  161.8350  205.7020  147.8350 O   0  0  0  0  0  1  0  0  0  0  0  0
  161.4830  207.6770  149.1720 C   0  0  0  0  0  3  0  0  0  0  0  0
  160.7970  207.2310  153.9860 C   0  0  0  0  0  0  0  0  0  0  0  0
  160.5510  212.0250  155.8140 C   0  0  0  0  0  2  0  0  0  0  0  0
  160.5380  210.0190  154.2390 C   0  0  0  0  0  0  0  0  0  0  0  0
  159.2990  212.1510  153.5370 C   0  0  2  0  0  3  0  0  0  0  0  0
  159.6750  212.3920  152.0850 C   0  0  0  0  0  1  0  0  0  0  0  0
  158.5020  213.3020  154.1700 C   0  0  0  0  0  2  0  0  0  0  0  0
  156.1950  213.7040  153.2290 C   0  0  0  0  0  0  0  0  0  0  0  0
  156.5670  211.9520  154.9640 C   0  0  0  0  0  1  0  0  0  0  0  0
  157.0610  213.0750  154.1830 N   0  0  0  0  0  0  0  0  0  0  0  0
  156.7210  214.4530  152.1830 O   0  0  0  0  0  0  0  0  0  0  0  0
  154.9450  213.5680  153.3190 O   0  0  0  0  0  1  0  0  0  0  0  0
  1 21  1  1  0  0  0
  1 19  1  0  0  0  0
  2  7  1  0  0  0  0
  4  7  2  0  0  0  0
  4 12  1  0  0  0  0
  5 11  2  0  0  0  0
  5 18  1  0  0  0  0
  6 17  1  0  0  0  0
  6  9  2  0  0  0  0
  7  5  1  0  0  0  0
  8 18  1  0  0  0  0
  9  4  1  0  0  0  0
 10 15  1  0  0  0  0
 11 20  1  0  0  0  0
 12  8  2  0  0  0  0
 14 10  1  0  0  0  0
 14  3  1  0  0  0  0
 15 13  1  0  0  0  0
 16  6  1  0  0  0  0
 17  2  2  0  0  0  0
 18 14  2  0  0  0  0
 19 13  1  0  0  0  0
 20  1  1  0  0  0  0
 20 10  2  0  0  0  0
 21 22  1  6  0  0  0
 21 23  1  0  0  0  0
 23 26  1  0  0  0  0
 24 28  1  0  0  0  0
 24 26  1  0  0  0  0
 26 25  1  0  0  0  0
 27 24  2  0  0  0  0
M  END
>  <MODEL>
4

>  <REMARK>
 VINA RESULT:      -9.1      2.995      5.465
  Name = 
  3 active torsions:
  status: ('A' for Active; 'I' for Inactive)
    1  A    between atoms: C_1  and  C_2
    2  A    between atoms: C_2  and  C_3
    3  A    between atoms: C_3  and  N_11
                            x       y       z     vdW  Elec       q    Type
                         _______ _______ _______ _____ _____    ______ ____

>  <TORSDO>
F 3

$$$$
=
 OpenBabel11052422553D

 28 31  0  0  1  0  0  0  0  0999 V2000
  162.0900  209.9420  151.8490 C   0  0  1  0  0  3  0  0  0  0  0  0
  161.8970  206.7820  147.7480 C   0  0  0  0  0  3  0  0  0  0  0  0
  160.8310  205.4670  153.7710 C   0  0  0  0  0  1  0  0  0  0  0  0
  161.2950  204.6300  148.7030 C   0  0  0  0  0  0  0  0  0  0  0  0
  161.5360  206.5690  150.1710 C   0  0  0  0  0  0  0  0  0  0  0  0
  161.6510  204.8450  146.3170 C   0  0  0  0  0  0  0  0  0  0  0  0
  161.5790  206.0070  148.8760 C   0  0  0  0  0  0  0  0  0  0  0  0
  160.9340  204.3900  151.0820 C   0  0  0  0  0  3  0  0  0  0  0  0
  161.3330  204.0600  147.4270 C   0  0  0  0  0  3  0  0  0  0  0  0
  161.4380  207.6750  152.7610 C   0  0  0  0  0  0  0  0  0  0  0  0
  161.8130  207.9280  150.3780 C   0  0  0  0  0  3  0  0  0  0  0  0
  160.9760  203.8360  149.8030 C   0  0  0  0  0  3  0  0  0  0  0  0
  161.4010  209.6390  154.2620 C   0  0  0  0  0  2  0  0  0  0  0  0
  161.1680  206.3100  152.5790 C   0  0  0  0  0  0  0  0  0  0  0  0
  161.4080  208.2300  154.0480 O   0  0  0  0  0  0  0  0  0  0  0  0
  161.6880  204.2740  145.0530 O   0  0  0  0  0  1  0  0  0  0  0  0
  161.9320  206.2040  146.4760 C   0  0  0  0  0  3  0  0  0  0  0  0
  161.2100  205.7520  151.2850 C   0  0  0  0  0  0  0  0  0  0  0  0
  162.3690  210.3280  153.3100 C   0  0  0  0  0  2  0  0  0  0  0  0
  161.7620  208.4840  151.6560 C   0  0  0  0  0  0  0  0  0  0  0  0
  161.1750  210.9090  151.0730 C   0  0  2  0  0  3  0  0  0  0  0  0
  161.5850  211.0980  149.6220 C   0  0  0  0  0  1  0  0  0  0  0  0
  160.7500  212.2110  151.7700 C   0  0  0  0  0  2  0  0  0  0  0  0
  158.5750  213.1750  150.9300 C   0  0  0  0  0  0  0  0  0  0  0  0
  158.5830  211.4520  152.7320 C   0  0  0  0  0  1  0  0  0  0  0  0
  159.3040  212.3740  151.8700 N   0  0  0  0  0  0  0  0  0  0  0  0
  159.2120  213.7180  149.8210 O   0  0  0  0  0  0  0  0  0  0  0  0
  157.3420  213.3780  151.0900 O   0  0  0  0  0  1  0  0  0  0  0  0
  1 21  1  1  0  0  0
  1 19  1  0  0  0  0
  2  7  1  0  0  0  0
  4  7  2  0  0  0  0
  4 12  1  0  0  0  0
  5 11  2  0  0  0  0
  5 18  1  0  0  0  0
  6 17  1  0  0  0  0
  6  9  2  0  0  0  0
  7  5  1  0  0  0  0
  8 18  1  0  0  0  0
  9  4  1  0  0  0  0
 10 15  1  0  0  0  0
 11 20  1  0  0  0  0
 12  8  2  0  0  0  0
 14 10  1  0  0  0  0
 14  3  1  0  0  0  0
 15 13  1  0  0  0  0
 16  6  1  0  0  0  0
 17  2  2  0  0  0  0
 18 14  2  0  0  0  0
 19 13  1  0  0  0  0
 20  1  1  0  0  0  0
 20 10  2  0  0  0  0
 21 22  1  6  0  0  0
 21 23  1  0  0  0  0
 23 26  1  0  0  0  0
 24 28  1  0  0  0  0
 24 26  1  0  0  0  0
 26 25  1  0  0  0  0
 27 24  2  0  0  0  0
M  END
>  <MODEL>
5

>  <REMARK>
 VINA RESULT:      -8.9      2.494      4.410
  Name = 
  3 active torsions:
  status: ('A' for Active; 'I' for Inactive)
    1  A    between atoms: C_1  and  C_2
    2  A    between atoms: C_2  and  C_3
    3  A    between atoms: C_3  and  N_11
                            x       y       z     vdW  Elec       q    Type
                         _______ _______ _______ _____ _____    ______ ____

>  <TORSDO>
F 3

$$$$
=
 OpenBabel11052422553D

 28 31  0  0  1  0  0  0  0  0999 V2000
  161.0100  203.5490  147.6420 C   0  0  1  0  0  3  0  0  0  0  0  0
  161.6650  208.5990  148.5920 C   0  0  0  0  0  3  0  0  0  0  0  0
  160.9970  203.8950  152.6610 C   0  0  0  0  0  1  0  0  0  0  0  0
  161.6480  208.7400  151.0170 C   0  0  0  0  0  0  0  0  0  0  0  0
  161.3850  206.5620  149.9400 C   0  0  0  0  0  0  0  0  0  0  0  0
  161.9250  210.7440  149.6850 C   0  0  0  0  0  0  0  0  0  0  0  0
  161.5650  207.9600  149.8390 C   0  0  0  0  0  0  0  0  0  0  0  0
  161.3730  206.7540  152.3690 C   0  0  0  0  0  3  0  0  0  0  0  0
  161.8270  210.1240  150.9330 C   0  0  0  0  0  3  0  0  0  0  0  0
  161.0320  203.7760  150.1610 C   0  0  0  0  0  0  0  0  0  0  0  0
  161.2970  205.7610  148.7930 C   0  0  0  0  0  3  0  0  0  0  0  0
  161.5520  208.1330  152.2690 C   0  0  0  0  0  3  0  0  0  0  0  0
  161.0310  201.5200  149.1500 C   0  0  0  0  0  2  0  0  0  0  0  0
  161.1060  204.5600  151.3230 C   0  0  0  0  0  0  0  0  0  0  0  0
  160.8400  202.3910  150.2620 O   0  0  0  0  0  0  0  0  0  0  0  0
  162.1020  212.1180  149.6070 O   0  0  0  0  0  1  0  0  0  0  0  0
  161.8450  209.9830  148.5160 C   0  0  0  0  0  3  0  0  0  0  0  0
  161.2880  205.9550  151.2190 C   0  0  0  0  0  0  0  0  0  0  0  0
  160.4530  202.1380  147.8840 C   0  0  0  0  0  2  0  0  0  0  0  0
  161.1270  204.3800  148.8950 C   0  0  0  0  0  0  0  0  0  0  0  0
  162.2360  203.6250  146.7100 C   0  0  2  0  0  3  0  0  0  0  0  0
  163.1820  204.7650  147.0460 C   0  0  0  0  0  1  0  0  0  0  0  0
  162.0040  203.4370  145.2030 C   0  0  0  0  0  2  0  0  0  0  0  0
  159.6250  203.0900  144.4350 C   0  0  0  0  0  0  0  0  0  0  0  0
  160.4800  205.3840  144.9120 C   0  0  0  0  0  1  0  0  0  0  0  0
  160.7230  203.9610  144.7400 N   0  0  0  0  0  0  0  0  0  0  0  0
  159.7110  201.7270  144.6910 O   0  0  0  0  0  1  0  0  0  0  0  0
  158.5610  203.5570  143.9470 O   0  0  0  0  0  0  0  0  0  0  0  0
  1 21  1  1  0  0  0
  1 19  1  0  0  0  0
  1 20  1  0  0  0  0
  2  7  1  0  0  0  0
  4 12  1  0  0  0  0
  5 18  1  0  0  0  0
  6  9  2  0  0  0  0
  7  5  1  0  0  0  0
  7  4  2  0  0  0  0
  9  4  1  0  0  0  0
 10 15  1  0  0  0  0
 10 14  1  0  0  0  0
 11 20  1  0  0  0  0
 11  5  2  0  0  0  0
 12  8  2  0  0  0  0
 13 15  1  0  0  0  0
 14  3  1  0  0  0  0
 16  6  1  0  0  0  0
 17  2  2  0  0  0  0
 17  6  1  0  0  0  0
 18 14  2  0  0  0  0
 18  8  1  0  0  0  0
 19 13  1  0  0  0  0
 20 10  2  0  0  0  0
 21 22  1  6  0  0  0
 23 21  1  0  0  0  0
 24 27  1  0  0  0  0
 24 26  1  0  0  0  0
 26 25  1  0  0  0  0
 26 23  1  0  0  0  0
 28 24  2  0  0  0  0
M  END
>  <MODEL>
6

>  <REMARK>
 VINA RESULT:      -8.9      3.583      8.504
  Name = 
  3 active torsions:
  status: ('A' for Active; 'I' for Inactive)
    1  A    between atoms: C_1  and  C_2
    2  A    between atoms: C_2  and  C_3
    3  A    between atoms: C_3  and  N_11
                            x       y       z     vdW  Elec       q    Type
                         _______ _______ _______ _____ _____    ______ ____

>  <TORSDO>
F 3

$$$$
=
 OpenBabel11052422553D

 28 31  0  0  1  0  0  0  0  0999 V2000
  161.6370  210.2400  152.7540 C   0  0  1  0  0  3  0  0  0  0  0  0
  161.5100  207.4780  148.3730 C   0  0  0  0  0  3  0  0  0  0  0  0
  160.9440  205.4970  154.2800 C   0  0  0  0  0  1  0  0  0  0  0  0
  161.1820  205.1950  149.1380 C   0  0  0  0  0  0  0  0  0  0  0  0
  161.3180  207.0010  150.7780 C   0  0  0  0  0  0  0  0  0  0  0  0
  161.3710  205.6700  146.7700 C   0  0  0  0  0  0  0  0  0  0  0  0
  161.3380  206.5710  149.4330 C   0  0  0  0  0  0  0  0  0  0  0  0
  160.9910  204.6950  151.4960 C   0  0  0  0  0  3  0  0  0  0  0  0
  161.1990  204.7540  147.8110 C   0  0  0  0  0  3  0  0  0  0  0  0
  161.2680  207.8420  153.4670 C   0  0  0  0  0  0  0  0  0  0  0  0
  161.4710  208.3560  151.1050 C   0  0  0  0  0  3  0  0  0  0  0  0
  161.0100  204.2710  150.1680 C   0  0  0  0  0  3  0  0  0  0  0  0
  161.1270  209.6410  155.1560 C   0  0  0  0  0  2  0  0  0  0  0  0
  161.1240  206.4790  153.1630 C   0  0  0  0  0  0  0  0  0  0  0  0
  161.2610  208.2670  154.8030 O   0  0  0  0  0  0  0  0  0  0  0  0
  161.3870  205.2270  145.4550 O   0  0  0  0  0  1  0  0  0  0  0  0
  161.5250  207.0290  147.0500 C   0  0  0  0  0  3  0  0  0  0  0  0
  161.1430  206.0530  151.8190 C   0  0  0  0  0  0  0  0  0  0  0  0
  161.9640  210.5140  154.2300 C   0  0  0  0  0  2  0  0  0  0  0  0
  161.4430  208.7800  152.4340 C   0  0  0  0  0  0  0  0  0  0  0  0
  160.5850  211.1760  152.1250 C   0  0  2  0  0  3  0  0  0  0  0  0
  160.9280  211.6080  150.7100 C   0  0  0  0  0  1  0  0  0  0  0  0
  160.0180  212.3070  152.9980 C   0  0  0  0  0  2  0  0  0  0  0  0
  157.8010  211.9930  154.1620 C   0  0  0  0  0  0  0  0  0  0  0  0
  157.9140  213.1100  151.9350 C   0  0  0  0  0  1  0  0  0  0  0  0
  158.5600  212.3630  153.0030 N   0  0  0  0  0  0  0  0  0  0  0  0
  158.4400  211.6880  155.3570 O   0  0  0  0  0  1  0  0  0  0  0  0
  156.5420  211.9590  154.1130 O   0  0  0  0  0  0  0  0  0  0  0  0
  1 21  1  1  0  0  0
  1 19  1  0  0  0  0
  2  7  1  0  0  0  0
  4  7  2  0  0  0  0
  4 12  1  0  0  0  0
  5 11  2  0  0  0  0
  5 18  1  0  0  0  0
  6 17  1  0  0  0  0
  6  9  2  0  0  0  0
  7  5  1  0  0  0  0
  8 18  1  0  0  0  0
  9  4  1  0  0  0  0
 10 15  1  0  0  0  0
 11 20  1  0  0  0  0
 12  8  2  0  0  0  0
 14 10  1  0  0  0  0
 14  3  1  0  0  0  0
 15 13  1  0  0  0  0
 16  6  1  0  0  0  0
 17  2  2  0  0  0  0
 18 14  2  0  0  0  0
 19 13  1  0  0  0  0
 20  1  1  0  0  0  0
 20 10  2  0  0  0  0
 21 22  1  6  0  0  0
 21 23  1  0  0  0  0
 23 26  1  0  0  0  0
 24 27  1  0  0  0  0
 25 26  1  0  0  0  0
 26 24  1  0  0  0  0
 28 24  2  0  0  0  0
M  END
>  <MODEL>
7

>  <REMARK>
 VINA RESULT:      -8.8      2.294      4.223
  Name = 
  3 active torsions:
  status: ('A' for Active; 'I' for Inactive)
    1  A    between atoms: C_1  and  C_2
    2  A    between atoms: C_2  and  C_3
    3  A    between atoms: C_3  and  N_11
                            x       y       z     vdW  Elec       q    Type
                         _______ _______ _______ _____ _____    ______ ____

>  <TORSDO>
F 3

$$$$
=
 OpenBabel11052422553D

 28 31  0  0  1  0  0  0  0  0999 V2000
  161.5220  210.4330  152.8960 C   0  0  1  0  0  3  0  0  0  0  0  0
  161.4270  207.4800  148.6410 C   0  0  0  0  0  3  0  0  0  0  0  0
  160.8980  205.7530  154.6300 C   0  0  0  0  0  1  0  0  0  0  0  0
  161.1320  205.2280  149.5050 C   0  0  0  0  0  0  0  0  0  0  0  0
  161.2450  207.1070  151.0650 C   0  0  0  0  0  0  0  0  0  0  0  0
  161.3100  205.6010  147.1190 C   0  0  0  0  0  0  0  0  0  0  0  0
  161.2690  206.6180  149.7390 C   0  0  0  0  0  0  0  0  0  0  0  0
  160.9510  204.8300  151.8830 C   0  0  0  0  0  3  0  0  0  0  0  0
  161.1530  204.7300  148.1990 C   0  0  0  0  0  3  0  0  0  0  0  0
  161.1880  208.0640  153.7140 C   0  0  0  0  0  0  0  0  0  0  0  0
  161.3800  208.4760  151.3320 C   0  0  0  0  0  3  0  0  0  0  0  0
  160.9740  204.3490  150.5750 C   0  0  0  0  0  3  0  0  0  0  0  0
  161.0250  209.9330  155.3230 C   0  0  0  0  0  2  0  0  0  0  0  0
  161.0620  206.6870  153.4700 C   0  0  0  0  0  0  0  0  0  0  0  0
  161.1770  208.5470  155.0300 O   0  0  0  0  0  0  0  0  0  0  0  0
  161.3310  205.1010  145.8240 O   0  0  0  0  0  1  0  0  0  0  0  0
  161.4460  206.9740  147.3380 C   0  0  0  0  0  3  0  0  0  0  0  0
  161.0850  206.2020  152.1470 C   0  0  0  0  0  0  0  0  0  0  0  0
  161.8470  210.7760  154.3580 C   0  0  0  0  0  2  0  0  0  0  0  0
  161.3480  208.9580  152.6400 C   0  0  0  0  0  0  0  0  0  0  0  0
  160.4570  211.3260  152.2290 C   0  0  2  0  0  3  0  0  0  0  0  0
  159.0540  211.0970  152.7650 C   0  0  0  0  0  1  0  0  0  0  0  0
  160.5160  211.4960  150.7030 C   0  0  0  0  0  2  0  0  0  0  0  0
  161.2420  213.2420  149.0310 C   0  0  0  0  0  0  0  0  0  0  0  0
  159.8080  213.8680  150.9730 C   0  0  0  0  0  1  0  0  0  0  0  0
  160.6240  212.8870  150.2760 N   0  0  0  0  0  0  0  0  0  0  0  0
  161.6440  212.2580  148.1360 O   0  0  0  0  0  0  0  0  0  0  0  0
  161.4090  214.4530  148.7280 O   0  0  0  0  0  1  0  0  0  0  0  0
  1 21  1  1  0  0  0
  1 19  1  0  0  0  0
  2  7  1  0  0  0  0
  4  7  2  0  0  0  0
  4 12  1  0  0  0  0
  5 11  2  0  0  0  0
  5 18  1  0  0  0  0
  6 17  1  0  0  0  0
  6  9  2  0  0  0  0
  7  5  1  0  0  0  0
  8 18  1  0  0  0  0
  9  4  1  0  0  0  0
 10 15  1  0  0  0  0
 11 20  1  0  0  0  0
 12  8  2  0  0  0  0
 14 10  1  0  0  0  0
 14  3  1  0  0  0  0
 15 13  1  0  0  0  0
 16  6  1  0  0  0  0
 17  2  2  0  0  0  0
 18 14  2  0  0  0  0
 19 13  1  0  0  0  0
 20  1  1  0  0  0  0
 20 10  2  0  0  0  0
 21 22  1  6  0  0  0
 23 21  1  0  0  0  0
 24 26  1  0  0  0  0
 26 23  1  0  0  0  0
 26 25  1  0  0  0  0
 27 24  2  0  0  0  0
 28 24  1  0  0  0  0
M  END
>  <MODEL>
8

>  <REMARK>
 VINA RESULT:      -8.5      2.581      5.070
  Name = 
  3 active torsions:
  status: ('A' for Active; 'I' for Inactive)
    1  A    between atoms: C_1  and  C_2
    2  A    between atoms: C_2  and  C_3
    3  A    between atoms: C_3  and  N_11
                            x       y       z     vdW  Elec       q    Type
                         _______ _______ _______ _____ _____    ______ ____

>  <TORSDO>
F 3

$$$$
=
 OpenBabel11052422553D

 28 31  0  0  1  0  0  0  0  0999 V2000
  162.3150  209.9850  151.9170 C   0  0  1  0  0  3  0  0  0  0  0  0
  162.0400  206.8640  147.7920 C   0  0  0  0  0  3  0  0  0  0  0  0
  160.7730  205.5740  153.7810 C   0  0  0  0  0  1  0  0  0  0  0  0
  161.3020  204.7430  148.7190 C   0  0  0  0  0  0  0  0  0  0  0  0
  161.6150  206.6570  150.2050 C   0  0  0  0  0  0  0  0  0  0  0  0
  161.7220  204.9520  146.3420 C   0  0  0  0  0  0  0  0  0  0  0  0
  161.6560  206.1010  148.9080 C   0  0  0  0  0  0  0  0  0  0  0  0
  160.8770  204.5090  151.0880 C   0  0  0  0  0  3  0  0  0  0  0  0
  161.3370  204.1790  147.4400 C   0  0  0  0  0  3  0  0  0  0  0  0
  161.5210  207.7520  152.8000 C   0  0  0  0  0  0  0  0  0  0  0  0
  161.9610  207.9980  150.4270 C   0  0  0  0  0  3  0  0  0  0  0  0
  160.9170  203.9600  149.8060 C   0  0  0  0  0  3  0  0  0  0  0  0
  161.5570  209.7060  154.3130 C   0  0  0  0  0  2  0  0  0  0  0  0
  161.1810  206.4040  152.6020 C   0  0  0  0  0  0  0  0  0  0  0  0
  161.4920  208.3000  154.0900 O   0  0  0  0  0  0  0  0  0  0  0  0
  161.7550  204.3860  145.0750 O   0  0  0  0  0  1  0  0  0  0  0  0
  162.0720  206.2920  146.5170 C   0  0  0  0  0  3  0  0  0  0  0  0
  161.2220  205.8520  151.3060 C   0  0  0  0  0  0  0  0  0  0  0  0
  162.5820  210.3470  153.3870 C   0  0  0  0  0  2  0  0  0  0  0  0
  161.9120  208.5480  151.7080 C   0  0  0  0  0  0  0  0  0  0  0  0
  161.4700  211.0050  151.1290 C   0  0  2  0  0  3  0  0  0  0  0  0
  160.0360  211.1110  151.6170 C   0  0  0  0  0  1  0  0  0  0  0  0
  161.6050  211.0180  149.5980 C   0  0  0  0  0  2  0  0  0  0  0  0
  162.6970  212.8090  148.1960 C   0  0  0  0  0  0  0  0  0  0  0  0
  160.3690  213.1060  149.0390 C   0  0  0  0  0  1  0  0  0  0  0  0
  161.6170  212.3590  149.0250 N   0  0  0  0  0  0  0  0  0  0  0  0
  163.7050  211.9330  147.8120 O   0  0  0  0  0  1  0  0  0  0  0  0
  162.7330  214.0020  147.7900 O   0  0  0  0  0  0  0  0  0  0  0  0
  1 21  1  1  0  0  0
  1 19  1  0  0  0  0
  2  7  1  0  0  0  0
  4  7  2  0  0  0  0
  4 12  1  0  0  0  0
  5 11  2  0  0  0  0
  5 18  1  0  0  0  0
  6 17  1  0  0  0  0
  6  9  2  0  0  0  0
  7  5  1  0  0  0  0
  8 18  1  0  0  0  0
  9  4  1  0  0  0  0
 10 15  1  0  0  0  0
 11 20  1  0  0  0  0
 12  8  2  0  0  0  0
 14 10  1  0  0  0  0
 14  3  1  0  0  0  0
 15 13  1  0  0  0  0
 16  6  1  0  0  0  0
 17  2  2  0  0  0  0
 18 14  2  0  0  0  0
 19 13  1  0  0  0  0
 20  1  1  0  0  0  0
 20 10  2  0  0  0  0
 21 22  1  6  0  0  0
 23 21  1  0  0  0  0
 24 26  1  0  0  0  0
 26 25  1  0  0  0  0
 26 23  1  0  0  0  0
 27 24  1  0  0  0  0
 28 24  2  0  0  0  0
M  END
>  <MODEL>
9

>  <REMARK>
 VINA RESULT:      -8.3      2.710      5.200
  Name = 
  3 active torsions:
  status: ('A' for Active; 'I' for Inactive)
    1  A    between atoms: C_1  and  C_2
    2  A    between atoms: C_2  and  C_3
    3  A    between atoms: C_3  and  N_11
                            x       y       z     vdW  Elec       q    Type
                         _______ _______ _______ _____ _____    ______ ____

>  <TORSDO>
F 3

$$$$
