=
 OpenBabel11062408273D

 32 36  0  0  1  0  0  0  0  0999 V2000
  161.4540  209.6030  153.1530 C   0  0  2  0  0  3  0  0  0  0  0  0
  160.9800  207.2300  151.6840 C   0  0  0  0  0  0  0  0  0  0  0  0
  161.8750  210.6920  153.8090 C   0  0  0  0  0  3  0  0  0  0  0  0
  161.3850  208.3020  153.8620 C   0  0  0  0  0  0  0  0  0  0  0  0
  161.1380  205.9370  153.7990 O   0  0  0  0  0  0  0  0  0  0  0  0
  161.3570  204.6660  148.9800 C   0  0  0  0  0  3  0  0  0  0  0  0
  161.1740  207.1800  153.1540 C   0  0  0  0  0  0  0  0  0  0  0  0
  160.9560  203.4170  151.0510 C   0  0  0  0  0  3  0  0  0  0  0  0
  160.9080  204.7010  151.7660 C   0  0  0  0  0  0  0  0  0  0  0  0
  161.5160  208.2550  155.3670 C   0  0  0  0  0  0  0  0  0  0  0  0
  161.0790  204.7300  153.0890 C   0  0  0  0  0  3  0  0  0  0  0  0
  162.1150  209.5110  155.9420 C   0  0  0  0  0  3  0  0  0  0  0  0
  160.9400  208.4060  151.0440 C   0  0  0  0  0  3  0  0  0  0  0  0
  161.1590  209.6430  151.7410 N   0  0  0  0  0  0  0  0  0  0  0  0
  160.6190  205.9550  150.9670 C   0  0  2  0  0  3  0  0  0  0  0  0
  162.2530  210.6330  155.2300 C   0  0  0  0  0  3  0  0  0  0  0  0
  161.1530  203.4060  149.7290 C   0  0  0  0  0  3  0  0  0  0  0  0
  161.1620  205.8560  149.5610 C   0  0  0  0  0  3  0  0  0  0  0  0
  160.1170  213.0560  150.5750 C   0  0  0  0  0  0  0  0  0  0  0  0
  159.2040  214.0530  150.8950 O   0  0  0  0  0  1  0  0  0  0  0  0
  161.0950  210.8700  150.9940 C   0  0  0  0  0  0  0  0  0  0  0  0
  160.9920  213.2410  149.5010 C   0  0  0  0  0  3  0  0  0  0  0  0
  161.9570  211.0610  149.9060 C   0  0  0  0  0  3  0  0  0  0  0  0
  160.1580  211.8690  151.3190 C   0  0  0  0  0  0  0  0  0  0  0  0
  159.2580  211.6810  152.3630 O   0  0  0  0  0  1  0  0  0  0  0  0
  161.9150  212.2410  149.1580 C   0  0  0  0  0  0  0  0  0  0  0  0
  162.4160  213.0050  146.8590 C   0  0  0  0  0  1  0  0  0  0  0  0
  162.7960  212.3950  148.0860 O   0  0  0  0  0  0  0  0  0  0  0  0
  160.2060  208.0360  155.9620 N   0  0  0  0  0  2  0  0  0  0  0  0
  159.8670  209.1820  156.6000 O   0  0  0  0  0  0  0  0  0  0  0  0
  158.7850  209.6790  155.8760 C   0  0  0  0  0  2  0  0  0  0  0  0
  158.6970  211.1790  156.0680 C   0  0  0  0  0  1  0  0  0  0  0  0
  1  3  1  6  0  0  0
  1  4  1  0  0  0  0
  2  7  1  0  0  0  0
  3 16  2  0  0  0  0
  4 10  1  0  0  0  0
  6 18  2  0  0  0  0
  6 17  1  0  0  0  0
  7  5  1  0  0  0  0
  7  4  2  0  0  0  0
  8  9  1  0  0  0  0
  9 11  2  0  0  0  0
 10 12  2  0  0  0  0
 10 29  1  0  0  0  0
 11  5  1  0  0  0  0
 13  2  2  0  0  0  0
 13 14  1  0  0  0  0
 14  1  1  0  0  0  0
 15 18  1  6  0  0  0
 15  2  1  0  0  0  0
 15  9  1  0  0  0  0
 16 12  1  0  0  0  0
 17  8  2  0  0  0  0
 19 20  1  0  0  0  0
 19 24  1  0  0  0  0
 21 24  2  0  0  0  0
 21 14  1  0  0  0  0
 22 19  2  0  0  0  0
 23 21  1  0  0  0  0
 24 25  1  0  0  0  0
 26 22  1  0  0  0  0
 26 23  2  0  0  0  0
 27 28  1  0  0  0  0
 28 26  1  0  0  0  0
 29 30  1  0  0  0  0
 31 32  1  0  0  0  0
 31 30  1  0  0  0  0
M  END
>  <MODEL>
1

>  <REMARK>
 VINA RESULT:      -6.8      0.000      0.000
  Name = 
  5 active torsions:
  status: ('A' for Active; 'I' for Inactive)
    1  A    between atoms: C_13  and  O_18
    2  A    between atoms: C_14  and  N_29
    3  A    between atoms: O_15  and  C_26
    4  A    between atoms: C_16  and  N_27
    5  A    between atoms: O_18  and  N_29
                            x       y       z     vdW  Elec       q    Type
                         _______ _______ _______ _____ _____    ______ ____

>  <TORSDO>
F 5

$$$$
=
 OpenBabel11062408273D

 32 36  0  0  1  0  0  0  0  0999 V2000
  161.5710  208.8380  150.2190 C   0  0  2  0  0  3  0  0  0  0  0  0
  160.9020  208.6960  152.9660 C   0  0  0  0  0  0  0  0  0  0  0  0
  162.0800  208.8830  148.9810 C   0  0  0  0  0  3  0  0  0  0  0  0
  161.4760  210.0840  151.0170 C   0  0  0  0  0  0  0  0  0  0  0  0
  161.1090  211.1670  153.1040 O   0  0  0  0  0  0  0  0  0  0  0  0
  161.0050  207.5400  156.5270 C   0  0  0  0  0  3  0  0  0  0  0  0
  161.1710  210.0050  152.3230 C   0  0  0  0  0  0  0  0  0  0  0  0
  160.6550  209.9650  156.6080 C   0  0  0  0  0  3  0  0  0  0  0  0
  160.7090  209.9800  155.1390 C   0  0  0  0  0  0  0  0  0  0  0  0
  161.6840  211.4250  150.3510 C   0  0  0  0  0  0  0  0  0  0  0  0
  160.9510  211.1230  154.4950 C   0  0  0  0  0  3  0  0  0  0  0  0
  162.3750  211.3140  149.0170 C   0  0  0  0  0  3  0  0  0  0  0  0
  160.8850  207.5720  152.2370 C   0  0  0  0  0  3  0  0  0  0  0  0
  161.2020  207.5870  150.8360 N   0  0  0  0  0  0  0  0  0  0  0  0
  160.4400  208.6850  154.3990 C   0  0  2  0  0  3  0  0  0  0  0  0
  162.5300  210.1500  148.3820 C   0  0  0  0  0  3  0  0  0  0  0  0
  160.7790  208.8050  157.2610 C   0  0  0  0  0  3  0  0  0  0  0  0
  160.9010  207.4860  155.1940 C   0  0  0  0  0  3  0  0  0  0  0  0
  161.0800  203.9160  150.0570 C   0  0  0  0  0  0  0  0  0  0  0  0
  161.0340  202.6930  150.7140 O   0  0  0  0  0  1  0  0  0  0  0  0
  161.1590  206.3450  150.1110 C   0  0  0  0  0  0  0  0  0  0  0  0
  161.0910  203.9480  148.6600 C   0  0  0  0  0  3  0  0  0  0  0  0
  161.1830  206.3640  148.7110 C   0  0  0  0  0  3  0  0  0  0  0  0
  161.1230  205.1110  150.7870 C   0  0  0  0  0  0  0  0  0  0  0  0
  161.1490  205.0660  152.1770 O   0  0  0  0  0  1  0  0  0  0  0  0
  161.1470  205.1730  147.9790 C   0  0  0  0  0  0  0  0  0  0  0  0
  160.4500  206.2170  145.8470 C   0  0  0  0  0  1  0  0  0  0  0  0
  161.1670  205.2350  146.5830 O   0  0  0  0  0  0  0  0  0  0  0  0
  160.4000  212.0840  150.1690 N   0  0  0  0  0  2  0  0  0  0  0  0
  160.6600  213.3420  149.7380 O   0  0  0  0  0  0  0  0  0  0  0  0
  159.4900  213.7410  149.0940 C   0  0  0  0  0  2  0  0  0  0  0  0
  159.5190  213.2650  147.6560 C   0  0  0  0  0  1  0  0  0  0  0  0
  1  3  1  1  0  0  0
  1 14  1  0  0  0  0
  1  4  1  0  0  0  0
  2 15  1  0  0  0  0
  4  7  2  0  0  0  0
  5 11  1  0  0  0  0
  6 17  1  0  0  0  0
  7  2  1  0  0  0  0
  7  5  1  0  0  0  0
  8 17  2  0  0  0  0
  9  8  1  0  0  0  0
 10  4  1  0  0  0  0
 11  9  2  0  0  0  0
 12 10  2  0  0  0  0
 13  2  2  0  0  0  0
 14 13  1  0  0  0  0
 15  9  1  0  0  0  0
 15 18  1  1  0  0  0
 16  3  2  0  0  0  0
 16 12  1  0  0  0  0
 18  6  2  0  0  0  0
 19 20  1  0  0  0  0
 19 24  1  0  0  0  0
 21 24  2  0  0  0  0
 21 14  1  0  0  0  0
 22 19  2  0  0  0  0
 23 21  1  0  0  0  0
 24 25  1  0  0  0  0
 26 22  1  0  0  0  0
 26 23  2  0  0  0  0
 27 28  1  0  0  0  0
 28 26  1  0  0  0  0
 29 10  1  0  0  0  0
 30 29  1  0  0  0  0
 31 30  1  0  0  0  0
 32 31  1  0  0  0  0
M  END
>  <MODEL>
2

>  <REMARK>
 VINA RESULT:      -6.4      2.201      6.722
  Name = 
  5 active torsions:
  status: ('A' for Active; 'I' for Inactive)
    1  A    between atoms: C_13  and  O_18
    2  A    between atoms: C_14  and  N_29
    3  A    between atoms: O_15  and  C_26
    4  A    between atoms: C_16  and  N_27
    5  A    between atoms: O_18  and  N_29
                            x       y       z     vdW  Elec       q    Type
                         _______ _______ _______ _____ _____    ______ ____

>  <TORSDO>
F 5

$$$$
=
 OpenBabel11062408273D

 32 36  0  0  1  0  0  0  0  0999 V2000
  161.3760  209.6800  153.3550 C   0  0  2  0  0  3  0  0  0  0  0  0
  160.9430  207.3720  151.7740 C   0  0  0  0  0  0  0  0  0  0  0  0
  161.7770  210.7490  154.0540 C   0  0  0  0  0  3  0  0  0  0  0  0
  161.3990  208.3400  153.9900 C   0  0  0  0  0  0  0  0  0  0  0  0
  161.2560  205.9720  153.8010 O   0  0  0  0  0  0  0  0  0  0  0  0
  161.3100  204.9830  148.9120 C   0  0  0  0  0  3  0  0  0  0  0  0
  161.2060  207.2500  153.2290 C   0  0  0  0  0  0  0  0  0  0  0  0
  161.0620  203.6030  150.9230 C   0  0  0  0  0  2  0  0  0  0  0  0
  160.9890  204.8410  151.7130 C   0  0  0  0  0  0  0  0  0  0  0  0
  161.6000  208.2150  155.4830 C   0  0  0  0  0  0  0  0  0  0  0  0
  161.2180  204.8060  153.0270 C   0  0  0  0  0  3  0  0  0  0  0  0
  162.1670  209.4650  156.1030 C   0  0  0  0  0  3  0  0  0  0  0  0
  160.8200  208.5790  151.2050 C   0  0  0  0  0  3  0  0  0  0  0  0
  161.0150  209.7830  151.9620 N   0  0  0  0  0  0  0  0  0  0  0  0
  160.6070  206.1240  151.0010 C   0  0  0  0  0  0  0  0  0  0  0  0
  162.2220  210.6300  155.4520 C   0  0  0  0  0  3  0  0  0  0  0  0
  161.1980  203.6760  149.5950 C   0  0  0  0  0  3  0  0  0  0  0  0
  161.0890  206.1280  149.5700 C   0  0  0  0  0  3  0  0  0  0  0  0
  161.3590  212.5480  149.4440 C   0  0  0  0  0  0  0  0  0  0  0  0
  162.0030  212.8140  148.2420 O   0  0  0  0  0  1  0  0  0  0  0  0
  160.8610  211.0460  151.2900 C   0  0  0  0  0  0  0  0  0  0  0  0
  160.5460  213.5260  150.0220 C   0  0  0  0  0  3  0  0  0  0  0  0
  160.0600  212.0400  151.8670 C   0  0  0  0  0  3  0  0  0  0  0  0
  161.5270  211.3100  150.0780 C   0  0  0  0  0  0  0  0  0  0  0  0
  162.3660  210.3560  149.5120 O   0  0  0  0  0  1  0  0  0  0  0  0
  159.8960  213.2790  151.2400 C   0  0  0  0  0  0  0  0  0  0  0  0
  158.3290  213.9810  153.0210 C   0  0  0  0  0  1  0  0  0  0  0  0
  159.0830  214.2410  151.8450 O   0  0  0  0  0  0  0  0  0  0  0  0
  160.3300  207.9010  156.1210 N   0  0  0  0  0  2  0  0  0  0  0  0
  159.9210  209.0240  156.7580 O   0  0  0  0  0  0  0  0  0  0  0  0
  158.8020  209.4460  156.0420 C   0  0  0  0  0  2  0  0  0  0  0  0
  158.6660  210.9500  156.1590 C   0  0  0  0  0  1  0  0  0  0  0  0
  1  4  1  0  0  0  0
  1  3  1  6  0  0  0
  2  7  1  0  0  0  0
  3 16  2  0  0  0  0
  4 10  1  0  0  0  0
  6 18  1  0  0  0  0
  6 17  2  0  0  0  0
  7  5  1  0  0  0  0
  7  4  2  0  0  0  0
  8  9  1  0  0  0  0
  9 11  2  0  0  0  0
 10 12  2  0  0  0  0
 10 29  1  0  0  0  0
 11  5  1  0  0  0  0
 13  2  2  0  0  0  0
 13 14  1  0  0  0  0
 14  1  1  0  0  0  0
 15  9  1  0  0  0  0
 15  2  1  0  0  0  0
 16 12  1  0  0  0  0
 17  8  1  0  0  0  0
 18 15  2  0  0  0  0
 19 22  2  0  0  0  0
 19 24  1  0  0  0  0
 20 19  1  0  0  0  0
 21 23  1  0  0  0  0
 21 14  1  0  0  0  0
 22 26  1  0  0  0  0
 24 21  2  0  0  0  0
 25 24  1  0  0  0  0
 26 28  1  0  0  0  0
 26 23  2  0  0  0  0
 28 27  1  0  0  0  0
 29 30  1  0  0  0  0
 31 32  1  0  0  0  0
 31 30  1  0  0  0  0
M  END
>  <MODEL>
3

>  <REMARK>
 VINA RESULT:      -6.4      0.824      2.161
  Name = 
  5 active torsions:
  status: ('A' for Active; 'I' for Inactive)
    1  A    between atoms: C_13  and  O_18
    2  A    between atoms: C_14  and  N_29
    3  A    between atoms: O_15  and  C_26
    4  A    between atoms: C_16  and  N_27
    5  A    between atoms: O_18  and  N_29
                            x       y       z     vdW  Elec       q    Type
                         _______ _______ _______ _____ _____    ______ ____

>  <TORSDO>
F 5

$$$$
=
 OpenBabel11062408273D

 32 36  0  0  1  0  0  0  0  0999 V2000
  160.5540  208.3700  154.1990 C   0  0  2  0  0  3  0  0  0  0  0  0
  159.5990  210.9090  153.3900 C   0  0  0  0  0  0  0  0  0  0  0  0
  160.8110  207.1070  154.5640 C   0  0  0  0  0  3  0  0  0  0  0  0
  160.1250  209.3540  155.2230 C   0  0  0  0  0  0  0  0  0  0  0  0
  159.2190  211.4830  155.7760 O   0  0  0  0  0  0  0  0  0  0  0  0
  157.6070  213.4420  151.4810 C   0  0  0  0  0  3  0  0  0  0  0  0
  159.6600  210.5510  154.8280 C   0  0  0  0  0  0  0  0  0  0  0  0
  157.7240  214.2660  153.7870 C   0  0  0  0  0  3  0  0  0  0  0  0
  158.4910  213.0600  154.1340 C   0  0  0  0  0  0  0  0  0  0  0  0
  160.2480  209.0170  156.6920 C   0  0  0  0  0  0  0  0  0  0  0  0
  158.5840  212.6760  155.4090 C   0  0  0  0  0  3  0  0  0  0  0  0
  160.4160  207.5420  156.9410 C   0  0  0  0  0  3  0  0  0  0  0  0
  160.0760  210.0700  152.4600 C   0  0  0  0  0  3  0  0  0  0  0  0
  160.5850  208.7750  152.8150 N   0  0  0  0  0  0  0  0  0  0  0  0
  159.1920  212.3110  153.0190 C   0  0  2  0  0  3  0  0  0  0  0  0
  160.7000  206.6750  155.9660 C   0  0  0  0  0  3  0  0  0  0  0  0
  157.3220  214.4500  152.5260 C   0  0  0  0  0  3  0  0  0  0  0  0
  158.4330  212.4160  151.7170 C   0  0  0  0  0  3  0  0  0  0  0  0
  162.2670  207.6170  149.6640 C   0  0  0  0  0  0  0  0  0  0  0  0
  162.9660  208.1370  148.5820 O   0  0  0  0  0  1  0  0  0  0  0  0
  161.0880  207.9270  151.7680 C   0  0  0  0  0  0  0  0  0  0  0  0
  162.0370  206.2400  149.7400 C   0  0  0  0  0  3  0  0  0  0  0  0
  160.8530  206.5470  151.8260 C   0  0  0  0  0  3  0  0  0  0  0  0
  161.7860  208.4650  150.6700 C   0  0  0  0  0  0  0  0  0  0  0  0
  161.9880  209.8380  150.5660 O   0  0  0  0  0  1  0  0  0  0  0  0
  161.3250  205.6990  150.8200 C   0  0  0  0  0  0  0  0  0  0  0  0
  160.9710  203.4810  149.7800 C   0  0  0  0  0  1  0  0  0  0  0  0
  161.0750  204.3280  150.9180 O   0  0  0  0  0  0  0  0  0  0  0  0
  161.3820  209.7300  157.2600 N   0  0  0  0  0  2  0  0  0  0  0  0
  162.4500  209.4620  156.4720 O   0  0  0  0  0  0  0  0  0  0  0  0
  162.9970  210.7120  156.1850 C   0  0  0  0  0  2  0  0  0  0  0  0
  164.0140  211.0730  157.2470 C   0  0  0  0  0  1  0  0  0  0  0  0
  1  3  1  6  0  0  0
  1  4  1  0  0  0  0
  2  7  1  0  0  0  0
  3 16  2  0  0  0  0
  4 10  1  0  0  0  0
  6 18  2  0  0  0  0
  6 17  1  0  0  0  0
  7  4  2  0  0  0  0
  7  5  1  0  0  0  0
  8  9  1  0  0  0  0
  9 11  2  0  0  0  0
 10 12  2  0  0  0  0
 10 29  1  0  0  0  0
 11  5  1  0  0  0  0
 13 14  1  0  0  0  0
 13  2  2  0  0  0  0
 14  1  1  0  0  0  0
 15 18  1  6  0  0  0
 15  2  1  0  0  0  0
 15  9  1  0  0  0  0
 16 12  1  0  0  0  0
 17  8  2  0  0  0  0
 19 22  2  0  0  0  0
 19 24  1  0  0  0  0
 20 19  1  0  0  0  0
 21 23  1  0  0  0  0
 21 14  1  0  0  0  0
 22 26  1  0  0  0  0
 24 21  2  0  0  0  0
 25 24  1  0  0  0  0
 26 28  1  0  0  0  0
 26 23  2  0  0  0  0
 27 28  1  0  0  0  0
 30 29  1  0  0  0  0
 31 30  1  0  0  0  0
 31 32  1  0  0  0  0
M  END
>  <MODEL>
4

>  <REMARK>
 VINA RESULT:      -6.0      2.470      6.267
  Name = 
  5 active torsions:
  status: ('A' for Active; 'I' for Inactive)
    1  A    between atoms: C_13  and  O_18
    2  A    between atoms: C_14  and  N_29
    3  A    between atoms: O_15  and  C_26
    4  A    between atoms: C_16  and  N_27
    5  A    between atoms: O_18  and  N_29
                            x       y       z     vdW  Elec       q    Type
                         _______ _______ _______ _____ _____    ______ ____

>  <TORSDO>
F 5

$$$$
=
 OpenBabel11062408273D

 32 36  0  0  1  0  0  0  0  0999 V2000
  161.6400  209.5790  151.6890 C   0  0  2  0  0  3  0  0  0  0  0  0
  161.2920  207.4220  149.8880 C   0  0  0  0  0  0  0  0  0  0  0  0
  162.0050  210.5640  152.5190 C   0  0  0  0  0  3  0  0  0  0  0  0
  161.4780  208.2010  152.2150 C   0  0  0  0  0  0  0  0  0  0  0  0
  161.2050  205.8700  151.8250 O   0  0  0  0  0  0  0  0  0  0  0  0
  161.9180  205.2090  146.9320 C   0  0  0  0  0  3  0  0  0  0  0  0
  161.3270  207.1830  151.3510 C   0  0  0  0  0  0  0  0  0  0  0  0
  161.2810  203.7210  148.7740 C   0  0  0  0  0  2  0  0  0  0  0  0
  161.1750  204.9060  149.6380 C   0  0  0  0  0  0  0  0  0  0  0  0
  161.4460  207.9620  153.7070 C   0  0  0  0  0  0  0  0  0  0  0  0
  161.2040  204.7650  150.9650 C   0  0  0  0  0  3  0  0  0  0  0  0
  161.9990  209.1190  154.4970 C   0  0  0  0  0  3  0  0  0  0  0  0
  161.3370  208.6700  149.4020 C   0  0  0  0  0  3  0  0  0  0  0  0
  161.4990  209.8030  150.2700 N   0  0  0  0  0  0  0  0  0  0  0  0
  160.9910  206.2590  148.9800 C   0  0  0  0  0  0  0  0  0  0  0  0
  162.2280  210.3170  153.9520 C   0  0  0  0  0  3  0  0  0  0  0  0
  161.6170  203.8710  147.4890 C   0  0  0  0  0  3  0  0  0  0  0  0
  161.6800  206.3210  147.6370 C   0  0  0  0  0  3  0  0  0  0  0  0
  162.3300  212.6700  147.9930 C   0  0  0  0  0  0  0  0  0  0  0  0
  163.0930  212.9410  146.8640 O   0  0  0  0  0  1  0  0  0  0  0  0
  161.5320  211.1150  149.6840 C   0  0  0  0  0  0  0  0  0  0  0  0
  161.5810  213.6930  148.5810 C   0  0  0  0  0  3  0  0  0  0  0  0
  160.7960  212.1530  150.2730 C   0  0  0  0  0  3  0  0  0  0  0  0
  162.3160  211.3820  148.5460 C   0  0  0  0  0  0  0  0  0  0  0  0
  163.0940  210.3810  147.9740 O   0  0  0  0  0  1  0  0  0  0  0  0
  160.8130  213.4400  149.7280 C   0  0  0  0  0  0  0  0  0  0  0  0
  158.7240  214.2440  150.7810 C   0  0  0  0  0  1  0  0  0  0  0  0
  160.0610  214.4450  150.3410 O   0  0  0  0  0  0  0  0  0  0  0  0
  160.0780  207.7060  154.1300 N   0  0  0  0  0  2  0  0  0  0  0  0
  160.1210  206.6610  154.9920 O   0  0  0  0  0  0  0  0  0  0  0  0
  159.4590  207.1180  156.1300 C   0  0  0  0  0  2  0  0  0  0  0  0
  160.4540  207.2800  157.2610 C   0  0  0  0  0  1  0  0  0  0  0  0
  1  4  1  0  0  0  0
  1  3  1  6  0  0  0
  2  7  1  0  0  0  0
  3 16  2  0  0  0  0
  4 10  1  0  0  0  0
  6 17  2  0  0  0  0
  6 18  1  0  0  0  0
  7  5  1  0  0  0  0
  7  4  2  0  0  0  0
  8  9  1  0  0  0  0
  9 11  2  0  0  0  0
 10 29  1  0  0  0  0
 10 12  2  0  0  0  0
 11  5  1  0  0  0  0
 13  2  2  0  0  0  0
 13 14  1  0  0  0  0
 14  1  1  0  0  0  0
 15  9  1  0  0  0  0
 15  2  1  0  0  0  0
 16 12  1  0  0  0  0
 17  8  1  0  0  0  0
 18 15  2  0  0  0  0
 19 24  2  0  0  0  0
 19 22  1  0  0  0  0
 20 19  1  0  0  0  0
 21 14  1  0  0  0  0
 21 23  2  0  0  0  0
 22 26  2  0  0  0  0
 24 21  1  0  0  0  0
 25 24  1  0  0  0  0
 26 23  1  0  0  0  0
 26 28  1  0  0  0  0
 28 27  1  0  0  0  0
 29 30  1  0  0  0  0
 30 31  1  0  0  0  0
 31 32  1  0  0  0  0
M  END
>  <MODEL>
5

>  <REMARK>
 VINA RESULT:      -5.5      1.649      2.798
  Name = 
  5 active torsions:
  status: ('A' for Active; 'I' for Inactive)
    1  A    between atoms: C_13  and  O_18
    2  A    between atoms: C_14  and  N_29
    3  A    between atoms: O_15  and  C_26
    4  A    between atoms: C_16  and  N_27
    5  A    between atoms: O_18  and  N_29
                            x       y       z     vdW  Elec       q    Type
                         _______ _______ _______ _____ _____    ______ ____

>  <TORSDO>
F 5

$$$$
=
 OpenBabel11062408273D

 32 36  0  0  1  0  0  0  0  0999 V2000
  161.0440  205.3490  149.9350 C   0  0  2  0  0  3  0  0  0  0  0  0
  161.6200  208.0670  149.3860 C   0  0  0  0  0  0  0  0  0  0  0  0
  160.5750  204.1190  150.1800 C   0  0  0  0  0  3  0  0  0  0  0  0
  161.2050  206.3070  151.0560 C   0  0  0  0  0  0  0  0  0  0  0  0
  161.5890  208.5250  151.8270 O   0  0  0  0  0  0  0  0  0  0  0  0
  161.3290  211.4410  147.7880 C   0  0  0  0  0  3  0  0  0  0  0  0
  161.4650  207.5970  150.7850 C   0  0  0  0  0  0  0  0  0  0  0  0
  161.8520  211.8490  150.1490 C   0  0  0  0  0  3  0  0  0  0  0  0
  161.8420  210.3930  150.3590 C   0  0  0  0  0  0  0  0  0  0  0  0
  161.1140  205.8190  152.4850 C   0  0  0  0  0  0  0  0  0  0  0  0
  161.7020  209.9010  151.5910 C   0  0  0  0  0  3  0  0  0  0  0  0
  160.4560  204.4700  152.6010 C   0  0  0  0  0  3  0  0  0  0  0  0
  161.5760  207.1960  148.3690 C   0  0  0  0  0  3  0  0  0  0  0  0
  161.3020  205.8040  148.5900 N   0  0  0  0  0  0  0  0  0  0  0  0
  162.0380  209.4950  149.1540 C   0  0  2  0  0  3  0  0  0  0  0  0
  160.2360  203.6840  151.5440 C   0  0  0  0  0  3  0  0  0  0  0  0
  161.6240  212.3400  148.9260 C   0  0  0  0  0  3  0  0  0  0  0  0
  161.4680  210.1150  147.9000 C   0  0  0  0  0  3  0  0  0  0  0  0
  161.2230  204.5500  145.0520 C   0  0  0  0  0  0  0  0  0  0  0  0
  161.2030  205.0410  143.7520 O   0  0  0  0  0  1  0  0  0  0  0  0
  161.2770  204.9220  147.4540 C   0  0  0  0  0  0  0  0  0  0  0  0
  161.2110  203.1690  145.2670 C   0  0  0  0  0  3  0  0  0  0  0  0
  161.2510  203.5360  147.6570 C   0  0  0  0  0  3  0  0  0  0  0  0
  161.2460  205.4300  146.1410 C   0  0  0  0  0  0  0  0  0  0  0  0
  161.2200  206.8030  145.9160 O   0  0  0  0  0  1  0  0  0  0  0  0
  161.2210  202.6550  146.5720 C   0  0  0  0  0  0  0  0  0  0  0  0
  161.2060  200.7330  148.1300 C   0  0  0  0  0  1  0  0  0  0  0  0
  161.2030  201.2800  146.8170 O   0  0  0  0  0  0  0  0  0  0  0  0
  162.4480  205.7520  153.0620 N   0  0  0  0  0  2  0  0  0  0  0  0
  162.4550  206.5790  154.1350 O   0  0  0  0  0  0  0  0  0  0  0  0
  161.1130  206.6940  154.4970 C   0  0  0  0  0  2  0  0  0  0  0  0
  160.9320  207.9130  155.3780 C   0  0  0  0  0  1  0  0  0  0  0  0
  1  3  1  6  0  0  0
  1  4  1  0  0  0  0
  2  7  1  0  0  0  0
  3 16  2  0  0  0  0
  4 10  1  0  0  0  0
  6 18  2  0  0  0  0
  6 17  1  0  0  0  0
  7  4  2  0  0  0  0
  7  5  1  0  0  0  0
  8  9  1  0  0  0  0
  9 11  2  0  0  0  0
 10 12  2  0  0  0  0
 10 29  1  0  0  0  0
 11  5  1  0  0  0  0
 13 14  1  0  0  0  0
 13  2  2  0  0  0  0
 14  1  1  0  0  0  0
 15 18  1  6  0  0  0
 15  2  1  0  0  0  0
 15  9  1  0  0  0  0
 16 12  1  0  0  0  0
 17  8  2  0  0  0  0
 19 22  2  0  0  0  0
 19 24  1  0  0  0  0
 20 19  1  0  0  0  0
 21 23  1  0  0  0  0
 21 14  1  0  0  0  0
 22 26  1  0  0  0  0
 24 21  2  0  0  0  0
 25 24  1  0  0  0  0
 26 28  1  0  0  0  0
 26 23  2  0  0  0  0
 28 27  1  0  0  0  0
 29 30  1  0  0  0  0
 30 31  1  0  0  0  0
 31 32  1  0  0  0  0
M  END
>  <MODEL>
6

>  <REMARK>
 VINA RESULT:      -5.2      3.236      7.156
  Name = 
  5 active torsions:
  status: ('A' for Active; 'I' for Inactive)
    1  A    between atoms: C_13  and  O_18
    2  A    between atoms: C_14  and  N_29
    3  A    between atoms: O_15  and  C_26
    4  A    between atoms: C_16  and  N_27
    5  A    between atoms: O_18  and  N_29
                            x       y       z     vdW  Elec       q    Type
                         _______ _______ _______ _____ _____    ______ ____

>  <TORSDO>
F 5

$$$$
=
 OpenBabel11062408273D

 32 36  0  0  1  0  0  0  0  0999 V2000
  161.0960  210.1310  154.1030 C   0  0  2  0  0  3  0  0  0  0  0  0
  160.8470  207.9670  152.2940 C   0  0  0  0  0  0  0  0  0  0  0  0
  161.3960  211.1840  154.8730 C   0  0  0  0  0  3  0  0  0  0  0  0
  161.5300  208.7740  154.5170 C   0  0  0  0  0  0  0  0  0  0  0  0
  161.8540  206.4740  154.0040 O   0  0  0  0  0  0  0  0  0  0  0  0
  161.1190  206.0490  149.0890 C   0  0  0  0  0  3  0  0  0  0  0  0
  161.4200  207.7570  153.6460 C   0  0  0  0  0  0  0  0  0  0  0  0
  161.5820  204.4450  150.8830 C   0  0  0  0  0  2  0  0  0  0  0  0
  161.4120  205.5400  151.8500 C   0  0  0  0  0  0  0  0  0  0  0  0
  162.0520  208.5430  155.9160 C   0  0  0  0  0  0  0  0  0  0  0  0
  161.9070  205.4200  153.0830 C   0  0  0  0  0  3  0  0  0  0  0  0
  162.4580  209.8190  156.6070 C   0  0  0  0  0  3  0  0  0  0  0  0
  160.3580  209.1640  151.9420 C   0  0  0  0  0  3  0  0  0  0  0  0
  160.4450  210.2930  152.8250 N   0  0  0  0  0  0  0  0  0  0  0  0
  160.6310  206.7640  151.4150 C   0  0  0  0  0  0  0  0  0  0  0  0
  162.1310  211.0260  156.1380 C   0  0  0  0  0  3  0  0  0  0  0  0
  161.4270  204.6870  149.5780 C   0  0  0  0  0  3  0  0  0  0  0  0
  160.8000  207.0330  149.9380 C   0  0  0  0  0  3  0  0  0  0  0  0
  158.2450  213.3250  152.5650 C   0  0  0  0  0  0  0  0  0  0  0  0
  157.1330  213.8840  153.1820 O   0  0  0  0  0  1  0  0  0  0  0  0
  159.8950  211.5480  152.3870 C   0  0  0  0  0  0  0  0  0  0  0  0
  158.8440  213.9880  151.4910 C   0  0  0  0  0  3  0  0  0  0  0  0
  160.4780  212.2150  151.3010 C   0  0  0  0  0  3  0  0  0  0  0  0
  158.7610  212.1010  153.0110 C   0  0  0  0  0  0  0  0  0  0  0  0
  158.1350  211.4320  154.0580 O   0  0  0  0  0  1  0  0  0  0  0  0
  159.9620  213.4340  150.8500 C   0  0  0  0  0  0  0  0  0  0  0  0
  161.5110  213.4150  148.9210 C   0  0  0  0  0  1  0  0  0  0  0  0
  160.5770  214.0700  149.7690 O   0  0  0  0  0  0  0  0  0  0  0  0
  161.0350  207.8730  156.7110 N   0  0  0  0  0  2  0  0  0  0  0  0
  160.1310  208.8160  157.0690 O   0  0  0  0  0  0  0  0  0  0  0  0
  158.9570  208.4420  156.4180 C   0  0  0  0  0  2  0  0  0  0  0  0
  158.9890  206.9540  156.1360 C   0  0  0  0  0  1  0  0  0  0  0  0
  1  4  1  0  0  0  0
  1  3  1  6  0  0  0
  2  7  1  0  0  0  0
  3 16  2  0  0  0  0
  4 10  1  0  0  0  0
  6 17  2  0  0  0  0
  6 18  1  0  0  0  0
  7  5  1  0  0  0  0
  7  4  2  0  0  0  0
  8  9  1  0  0  0  0
  9 11  2  0  0  0  0
 10 12  2  0  0  0  0
 10 29  1  0  0  0  0
 11  5  1  0  0  0  0
 13  2  2  0  0  0  0
 13 14  1  0  0  0  0
 14  1  1  0  0  0  0
 15  9  1  0  0  0  0
 15  2  1  0  0  0  0
 16 12  1  0  0  0  0
 17  8  1  0  0  0  0
 18 15  2  0  0  0  0
 19 24  1  0  0  0  0
 19 20  1  0  0  0  0
 21 14  1  0  0  0  0
 21 24  2  0  0  0  0
 22 19  2  0  0  0  0
 23 21  1  0  0  0  0
 24 25  1  0  0  0  0
 26 23  2  0  0  0  0
 26 22  1  0  0  0  0
 27 28  1  0  0  0  0
 28 26  1  0  0  0  0
 29 30  1  0  0  0  0
 31 30  1  0  0  0  0
 32 31  1  0  0  0  0
M  END
>  <MODEL>
7

>  <REMARK>
 VINA RESULT:      -5.1      1.405      1.871
  Name = 
  5 active torsions:
  status: ('A' for Active; 'I' for Inactive)
    1  A    between atoms: C_13  and  O_18
    2  A    between atoms: C_14  and  N_29
    3  A    between atoms: O_15  and  C_26
    4  A    between atoms: C_16  and  N_27
    5  A    between atoms: O_18  and  N_29
                            x       y       z     vdW  Elec       q    Type
                         _______ _______ _______ _____ _____    ______ ____

>  <TORSDO>
F 5

$$$$
=
 OpenBabel11062408273D

 32 36  0  0  1  0  0  0  0  0999 V2000
  161.0380  210.9590  150.6460 C   0  0  0  0  0  0  0  0  0  0  0  0
  159.4350  211.7200  152.8530 C   0  0  0  0  0  0  0  0  0  0  0  0
  161.9540  210.6600  149.7160 C   0  0  0  0  0  3  0  0  0  0  0  0
  160.4840  212.3330  150.7120 C   0  0  0  0  0  0  0  0  0  0  0  0
  159.2300  213.9910  151.8690 O   0  0  0  0  0  0  0  0  0  0  0  0
  158.3860  212.1390  156.4240 C   0  0  0  0  0  3  0  0  0  0  0  0
  159.7360  212.6890  151.7700 C   0  0  0  0  0  0  0  0  0  0  0  0
  157.6950  214.1870  155.2660 C   0  0  0  0  0  3  0  0  0  0  0  0
  158.2810  213.6380  154.0340 C   0  0  0  0  0  0  0  0  0  0  0  0
  160.7320  213.3020  149.5790 C   0  0  1  0  0  3  0  0  0  0  0  0
  158.5810  214.4530  153.0210 C   0  0  0  0  0  3  0  0  0  0  0  0
  161.8720  212.8810  148.6890 C   0  0  0  0  0  3  0  0  0  0  0  0
  159.8440  210.4470  152.7580 C   0  0  0  0  0  3  0  0  0  0  0  0
  160.6480  210.0020  151.6540 N   0  0  0  0  0  0  0  0  0  0  0  0
  158.4860  212.1390  153.9440 C   0  0  2  0  0  3  0  0  0  0  0  0
  162.4100  211.6600  148.7390 C   0  0  0  0  0  3  0  0  0  0  0  0
  157.7330  213.4660  156.3920 C   0  0  0  0  0  3  0  0  0  0  0  0
  158.7870  211.5380  155.2970 C   0  0  0  0  0  3  0  0  0  0  0  0
  161.6960  206.5590  152.7240 C   0  0  0  0  0  0  0  0  0  0  0  0
  161.9480  205.8400  153.8860 O   0  0  0  0  0  1  0  0  0  0  0  0
  161.0470  208.6210  151.6110 C   0  0  0  0  0  0  0  0  0  0  0  0
  161.8380  205.9350  151.4820 C   0  0  0  0  0  3  0  0  0  0  0  0
  161.2060  207.9880  150.3710 C   0  0  0  0  0  3  0  0  0  0  0  0
  161.3100  207.9040  152.7940 C   0  0  0  0  0  0  0  0  0  0  0  0
  161.2060  208.5260  154.0340 O   0  0  0  0  0  1  0  0  0  0  0  0
  161.5980  206.6480  150.2980 C   0  0  0  0  0  0  0  0  0  0  0  0
  161.5280  206.7590  147.8280 C   0  0  0  0  0  1  0  0  0  0  0  0
  161.7400  206.0520  149.0430 O   0  0  0  0  0  0  0  0  0  0  0  0
  159.5250  213.4340  148.7780 N   0  0  0  0  0  2  0  0  0  0  0  0
  159.9080  213.8950  147.5630 O   0  0  0  0  0  0  0  0  0  0  0  0
  158.7710  213.7680  146.7650 C   0  0  0  0  0  2  0  0  0  0  0  0
  157.7280  212.9540  147.5020 C   0  0  0  0  0  1  0  0  0  0  0  0
  1  4  1  0  0  0  0
  1 14  1  0  0  0  0
  2 15  1  0  0  0  0
  3  1  2  0  0  0  0
  4  7  2  0  0  0  0
  5 11  1  0  0  0  0
  7  5  1  0  0  0  0
  7  2  1  0  0  0  0
  8 17  2  0  0  0  0
  9  8  1  0  0  0  0
 10 29  1  6  0  0  0
 10  4  1  0  0  0  0
 11  9  2  0  0  0  0
 12 16  2  0  0  0  0
 12 10  1  0  0  0  0
 13  2  2  0  0  0  0
 14 13  1  0  0  0  0
 15  9  1  0  0  0  0
 15 18  1  1  0  0  0
 16  3  1  0  0  0  0
 17  6  1  0  0  0  0
 18  6  2  0  0  0  0
 19 24  1  0  0  0  0
 19 20  1  0  0  0  0
 21 14  1  0  0  0  0
 21 24  2  0  0  0  0
 22 19  2  0  0  0  0
 23 21  1  0  0  0  0
 24 25  1  0  0  0  0
 26 23  2  0  0  0  0
 26 22  1  0  0  0  0
 27 28  1  0  0  0  0
 28 26  1  0  0  0  0
 30 29  1  0  0  0  0
 31 32  1  0  0  0  0
 31 30  1  0  0  0  0
M  END
>  <MODEL>
8

>  <REMARK>
 VINA RESULT:      -4.9      2.239      7.533
  Name = 
  5 active torsions:
  status: ('A' for Active; 'I' for Inactive)
    1  A    between atoms: C_13  and  O_18
    2  A    between atoms: C_14  and  N_29
    3  A    between atoms: O_15  and  C_26
    4  A    between atoms: C_16  and  N_27
    5  A    between atoms: O_18  and  N_29
                            x       y       z     vdW  Elec       q    Type
                         _______ _______ _______ _____ _____    ______ ____

>  <TORSDO>
F 5

$$$$
=
 OpenBabel11062408273D

 32 36  0  0  1  0  0  0  0  0999 V2000
  161.6250  208.7970  150.2600 C   0  0  2  0  0  3  0  0  0  0  0  0
  160.8430  208.5850  152.9730 C   0  0  0  0  0  0  0  0  0  0  0  0
  162.1850  208.8690  149.0450 C   0  0  0  0  0  3  0  0  0  0  0  0
  161.5260  210.0200  151.0930 C   0  0  0  0  0  0  0  0  0  0  0  0
  161.0990  211.0460  153.1970 O   0  0  0  0  0  0  0  0  0  0  0  0
  160.7780  207.3180  156.4970 C   0  0  0  0  0  3  0  0  0  0  0  0
  161.1670  209.9080  152.3830 C   0  0  0  0  0  0  0  0  0  0  0  0
  160.4780  209.7470  156.6410 C   0  0  0  0  0  3  0  0  0  0  0  0
  160.5910  209.8060  155.1760 C   0  0  0  0  0  0  0  0  0  0  0  0
  161.7900  211.3760  150.4780 C   0  0  0  0  0  0  0  0  0  0  0  0
  160.8840  210.9620  154.5790 C   0  0  0  0  0  3  0  0  0  0  0  0
  162.5310  211.2900  149.1700 C   0  0  0  0  0  3  0  0  0  0  0  0
  160.8320  207.4850  152.2080 C   0  0  0  0  0  3  0  0  0  0  0  0
  161.2050  207.5360  150.8220 N   0  0  0  0  0  0  0  0  0  0  0  0
  160.3240  208.5410  154.3850 C   0  0  2  0  0  3  0  0  0  0  0  0
  162.6860  210.1420  148.5050 C   0  0  0  0  0  3  0  0  0  0  0  0
  160.5510  208.5650  157.2610 C   0  0  0  0  0  3  0  0  0  0  0  0
  160.7270  207.3080  155.1590 C   0  0  0  0  0  3  0  0  0  0  0  0
  160.9730  205.1450  147.9370 C   0  0  0  0  0  0  0  0  0  0  0  0
  160.8300  205.1610  146.5550 O   0  0  0  0  0  1  0  0  0  0  0  0
  161.1640  206.3190  150.0570 C   0  0  0  0  0  0  0  0  0  0  0  0
  161.0720  203.9220  148.6060 C   0  0  0  0  0  3  0  0  0  0  0  0
  161.2490  205.0860  150.7180 C   0  0  0  0  0  3  0  0  0  0  0  0
  161.0090  206.3450  148.6590 C   0  0  0  0  0  0  0  0  0  0  0  0
  160.8720  207.5560  147.9860 O   0  0  0  0  0  1  0  0  0  0  0  0
  161.2070  203.8860  150.0010 C   0  0  0  0  0  0  0  0  0  0  0  0
  160.8290  201.4470  150.1670 C   0  0  0  0  0  1  0  0  0  0  0  0
  161.3010  202.6780  150.6980 O   0  0  0  0  0  0  0  0  0  0  0  0
  160.5280  212.0680  150.2670 N   0  0  0  0  0  2  0  0  0  0  0  0
  160.8280  213.2780  149.7360 O   0  0  0  0  0  0  0  0  0  0  0  0
  159.6700  213.6620  149.0620 C   0  0  0  0  0  2  0  0  0  0  0  0
  159.7850  213.2750  147.6020 C   0  0  0  0  0  1  0  0  0  0  0  0
  1  3  1  1  0  0  0
  1 14  1  0  0  0  0
  1  4  1  0  0  0  0
  2 15  1  0  0  0  0
  4  7  2  0  0  0  0
  5 11  1  0  0  0  0
  6 17  1  0  0  0  0
  7  2  1  0  0  0  0
  7  5  1  0  0  0  0
  8 17  2  0  0  0  0
  9  8  1  0  0  0  0
 10  4  1  0  0  0  0
 11  9  2  0  0  0  0
 12 10  2  0  0  0  0
 13  2  2  0  0  0  0
 14 13  1  0  0  0  0
 15 18  1  1  0  0  0
 15  9  1  0  0  0  0
 16  3  2  0  0  0  0
 16 12  1  0  0  0  0
 18  6  2  0  0  0  0
 19 22  2  0  0  0  0
 19 24  1  0  0  0  0
 20 19  1  0  0  0  0
 21 23  1  0  0  0  0
 21 14  1  0  0  0  0
 22 26  1  0  0  0  0
 24 21  2  0  0  0  0
 25 24  1  0  0  0  0
 26 28  1  0  0  0  0
 26 23  2  0  0  0  0
 27 28  1  0  0  0  0
 29 10  1  0  0  0  0
 30 29  1  0  0  0  0
 31 30  1  0  0  0  0
 32 31  1  0  0  0  0
M  END
>  <MODEL>
9

>  <REMARK>
 VINA RESULT:      -4.7      2.325      6.936
  Name = 
  5 active torsions:
  status: ('A' for Active; 'I' for Inactive)
    1  A    between atoms: C_13  and  O_18
    2  A    between atoms: C_14  and  N_29
    3  A    between atoms: O_15  and  C_26
    4  A    between atoms: C_16  and  N_27
    5  A    between atoms: O_18  and  N_29
                            x       y       z     vdW  Elec       q    Type
                         _______ _______ _______ _____ _____    ______ ____

>  <TORSDO>
F 5

$$$$
