=
 OpenBabel11062410413D

 32 36  0  0  1  0  0  0  0  0999 V2000
  159.8470  212.5410  151.1280 C   0  0  0  0  0  3  0  0  0  0  0  0
  162.4460  207.0640  151.1490 C   0  0  0  0  0  2  0  0  0  0  0  0
  161.3060  206.7660  152.1440 C   0  0  0  0  0  2  0  0  0  0  0  0
  160.6900  213.0290  148.7430 C   0  0  2  0  0  3  0  0  0  0  0  0
  162.3430  211.3260  149.5800 C   0  0  0  0  0  3  0  0  0  0  0  0
  162.1770  208.3090  150.3540 C   0  0  0  0  0  3  0  0  0  0  0  0
  161.2670  210.6250  150.3390 C   0  0  1  0  0  3  0  0  0  0  0  0
  161.7260  209.3880  151.0020 C   0  0  0  0  0  0  0  0  0  0  0  0
  160.5480  210.6140  152.7120 C   0  0  2  0  0  0  0  0  0  0  0  0
  162.0850  212.4530  148.8980 C   0  0  0  0  0  0  0  0  0  0  0  0
  160.5860  208.0140  152.7000 C   0  0  0  0  0  2  0  0  0  0  0  0
  161.3570  209.3220  152.4450 C   0  0  1  0  0  3  0  0  0  0  0  0
  159.1700  210.3520  152.7540 O   0  0  0  0  0  1  0  0  0  0  0  0
  159.8060  213.2130  149.9640 C   0  0  0  0  0  3  0  0  0  0  0  0
  160.8810  211.5120  151.4970 C   0  0  2  0  0  3  0  0  0  0  0  0
  160.0430  212.3460  154.5100 C   0  0  0  0  0  3  0  0  0  0  0  0
  160.0440  212.7940  155.7740 C   0  0  0  0  0  0  0  0  0  0  0  0
  161.3250  210.3360  155.1740 C   0  0  0  0  0  0  0  0  0  0  0  0
  161.2600  210.8240  156.5170 N   0  0  0  0  0  2  0  0  0  0  0  0
  161.0150  212.2390  156.7780 C   0  0  0  0  0  2  0  0  0  0  0  0
  159.0980  213.8700  156.1750 C   0  0  0  0  0  1  0  0  0  0  0  0
  161.6760  209.1450  154.9680 O   0  0  0  0  0  0  0  0  0  0  0  0
  161.0130  211.2840  154.0320 C   0  0  1  0  0  3  0  0  0  0  0  0
  162.8490  214.4530  147.8850 O   0  0  0  0  0  1  0  0  0  0  0  0
  163.2080  213.1410  148.1930 C   0  0  0  0  0  2  0  0  0  0  0  0
  159.9340  212.4930  147.5240 C   0  0  0  0  0  2  0  0  0  0  0  0
  159.7730  213.5120  146.3980 C   0  0  0  0  0  2  0  0  0  0  0  0
  160.2270  211.9180  143.2360 C   0  0  0  0  0  3  0  0  0  0  0  0
  161.4710  213.2290  144.5250 C   0  0  0  0  0  3  0  0  0  0  0  0
  159.5270  212.2010  144.3070 O   0  0  0  0  0  0  0  0  0  0  0  0
  161.4610  212.5410  143.3240 C   0  0  0  0  0  3  0  0  0  0  0  0
  160.2430  212.9690  145.0890 C   0  0  0  0  0  0  0  0  0  0  0  0
  2  3  1  0  0  0  0
  3 11  1  0  0  0  0
  4 26  1  6  0  0  0
  4 10  1  0  0  0  0
  4 14  1  0  0  0  0
  6  8  2  0  0  0  0
  6  2  1  0  0  0  0
  7  5  1  1  0  0  0
  7  8  1  0  0  0  0
  7 15  1  0  0  0  0
  8 12  1  0  0  0  0
  9 13  1  1  0  0  0
  9 23  1  0  0  0  0
 10  5  2  0  0  0  0
 12 11  1  6  0  0  0
 12  9  1  0  0  0  0
 14  1  2  0  0  0  0
 15  1  1  6  0  0  0
 15  9  1  0  0  0  0
 16 17  2  0  0  0  0
 17 21  1  0  0  0  0
 17 20  1  0  0  0  0
 18 19  1  0  0  0  0
 19 20  1  0  0  0  0
 22 18  2  0  0  0  0
 23 16  1  1  0  0  0
 23 18  1  0  0  0  0
 24 25  1  0  0  0  0
 25 10  1  0  0  0  0
 27 26  1  0  0  0  0
 28 31  2  0  0  0  0
 28 30  1  0  0  0  0
 29 32  2  0  0  0  0
 30 32  1  0  0  0  0
 31 29  1  0  0  0  0
 32 27  1  0  0  0  0
M  END
>  <MODEL>
1

>  <REMARK>
 VINA RESULT:      -4.6      0.000      0.000
  Name = 
  5 active torsions:
  status: ('A' for Active; 'I' for Inactive)
    1  A    between atoms: C_8  and  C_23
    2  A    between atoms: C_12  and  C_21
    3  A    between atoms: C_16  and  C_32
    4  A    between atoms: C_19  and  C_23
    5  A    between atoms: C_19  and  C_24
                            x       y       z     vdW  Elec       q    Type
                         _______ _______ _______ _____ _____    ______ ____

>  <TORSDO>
F 5

$$$$
=
 OpenBabel11062410413D

 32 36  0  0  1  0  0  0  0  0999 V2000
  161.8650  210.9250  150.2390 C   0  0  0  0  0  3  0  0  0  0  0  0
  159.0720  212.9530  155.2220 C   0  0  0  0  0  2  0  0  0  0  0  0
  160.2210  212.1930  155.9140 C   0  0  0  0  0  2  0  0  0  0  0  0
  160.9900  212.9020  148.8370 C   0  0  2  0  0  3  0  0  0  0  0  0
  159.2950  212.7400  150.6900 C   0  0  0  0  0  3  0  0  0  0  0  0
  159.3680  213.2090  153.7730 C   0  0  0  0  0  3  0  0  0  0  0  0
  160.3600  212.3510  151.6590 C   0  0  1  0  0  3  0  0  0  0  0  0
  159.8710  212.2070  153.0440 C   0  0  0  0  0  0  0  0  0  0  0  0
  161.1290  210.1950  152.6140 C   0  0  2  0  0  0  0  0  0  0  0  0
  159.5790  212.9370  149.3930 C   0  0  0  0  0  0  0  0  0  0  0  0
  160.9970  211.2180  155.0000 C   0  0  0  0  0  2  0  0  0  0  0  0
  160.2680  210.9170  153.6780 C   0  0  1  0  0  3  0  0  0  0  0  0
  162.4960  210.3050  152.9060 O   0  0  0  0  0  1  0  0  0  0  0  0
  161.9050  211.7350  149.1670 C   0  0  0  0  0  3  0  0  0  0  0  0
  160.8030  210.9520  151.3040 C   0  0  2  0  0  3  0  0  0  0  0  0
  161.1190  208.0950  151.1730 C   0  0  0  0  0  3  0  0  0  0  0  0
  161.1910  206.7680  150.9910 C   0  0  0  0  0  0  0  0  0  0  0  0
  161.1870  207.8060  153.6300 C   0  0  0  0  0  0  0  0  0  0  0  0
  161.3130  206.4010  153.3910 N   0  0  0  0  0  2  0  0  0  0  0  0
  160.8840  205.8250  152.1210 C   0  0  0  0  0  2  0  0  0  0  0  0
  161.5490  206.2260  149.6520 C   0  0  0  0  0  1  0  0  0  0  0  0
  161.4300  208.2600  154.7790 O   0  0  0  0  0  0  0  0  0  0  0  0
  160.7160  208.7030  152.5010 C   0  0  1  0  0  3  0  0  0  0  0  0
  158.6370  212.6110  147.2440 O   0  0  0  0  0  1  0  0  0  0  0  0
  158.4670  213.2790  148.4570 C   0  0  0  0  0  2  0  0  0  0  0  0
  161.7000  214.2570  148.8730 C   0  0  0  0  0  2  0  0  0  0  0  0
  162.7190  214.4520  147.7510 C   0  0  0  0  0  2  0  0  0  0  0  0
  160.7970  213.9740  144.7820 C   0  0  0  0  0  3  0  0  0  0  0  0
  162.8080  213.3320  145.4690 C   0  0  0  0  0  3  0  0  0  0  0  0
  160.9760  214.4530  145.9880 O   0  0  0  0  0  0  0  0  0  0  0  0
  161.9230  213.2580  144.4080 C   0  0  0  0  0  3  0  0  0  0  0  0
  162.1540  214.0820  146.4200 C   0  0  0  0  0  0  0  0  0  0  0  0
  2  3  1  0  0  0  0
  4 26  1  1  0  0  0
  4 14  1  0  0  0  0
  4 10  1  0  0  0  0
  6  2  1  0  0  0  0
  7  5  1  6  0  0  0
  7  8  1  0  0  0  0
  8 12  1  0  0  0  0
  8  6  2  0  0  0  0
  9 13  1  1  0  0  0
  9 12  1  0  0  0  0
 10  5  2  0  0  0  0
 11  3  1  0  0  0  0
 12 11  1  1  0  0  0
 14  1  2  0  0  0  0
 15  1  1  6  0  0  0
 15  7  1  0  0  0  0
 15  9  1  0  0  0  0
 17 16  2  0  0  0  0
 17 20  1  0  0  0  0
 18 22  2  0  0  0  0
 19 18  1  0  0  0  0
 20 19  1  0  0  0  0
 21 17  1  0  0  0  0
 23 16  1  6  0  0  0
 23  9  1  0  0  0  0
 23 18  1  0  0  0  0
 24 25  1  0  0  0  0
 25 10  1  0  0  0  0
 27 26  1  0  0  0  0
 28 30  1  0  0  0  0
 29 32  2  0  0  0  0
 30 32  1  0  0  0  0
 31 28  2  0  0  0  0
 31 29  1  0  0  0  0
 32 27  1  0  0  0  0
M  END
>  <MODEL>
2

>  <REMARK>
 VINA RESULT:      -4.4      1.725      4.471
  Name = 
  5 active torsions:
  status: ('A' for Active; 'I' for Inactive)
    1  A    between atoms: C_8  and  C_23
    2  A    between atoms: C_12  and  C_21
    3  A    between atoms: C_16  and  C_32
    4  A    between atoms: C_19  and  C_23
    5  A    between atoms: C_19  and  C_24
                            x       y       z     vdW  Elec       q    Type
                         _______ _______ _______ _____ _____    ______ ____

>  <TORSDO>
F 5

$$$$
=
 OpenBabel11062410413D

 32 36  0  0  1  0  0  0  0  0999 V2000
  161.6620  203.9230  152.1160 C   0  0  0  0  0  3  0  0  0  0  0  0
  161.2490  207.9090  147.5680 C   0  0  0  0  0  2  0  0  0  0  0  0
  162.2880  208.6630  148.4220 C   0  0  0  0  0  2  0  0  0  0  0  0
  160.9980  201.9650  150.5780 C   0  0  2  0  0  3  0  0  0  0  0  0
  159.9880  203.9540  149.4150 C   0  0  0  0  0  3  0  0  0  0  0  0
  161.1420  206.4660  147.9690 C   0  0  0  0  0  3  0  0  0  0  0  0
  161.1430  204.8060  149.8220 C   0  0  1  0  0  3  0  0  0  0  0  0
  161.0870  206.1740  149.2730 C   0  0  0  0  0  0  0  0  0  0  0  0
  161.5210  206.4630  151.6280 C   0  0  2  0  0  0  0  0  0  0  0  0
  159.9000  202.6740  149.8080 C   0  0  0  0  0  0  0  0  0  0  0  0
  162.4320  208.1510  149.8720 C   0  0  0  0  0  2  0  0  0  0  0  0
  161.2750  207.2320  150.3070 C   0  0  1  0  0  3  0  0  0  0  0  0
  162.8830  206.4480  151.9620 O   0  0  0  0  0  1  0  0  0  0  0  0
  161.5980  202.6140  151.8140 C   0  0  0  0  0  3  0  0  0  0  0  0
  161.0360  205.0290  151.3120 C   0  0  2  0  0  3  0  0  0  0  0  0
  161.0650  206.5130  154.1330 C   0  0  0  0  0  3  0  0  0  0  0  0
  160.7470  207.1310  155.2800 C   0  0  0  0  0  0  0  0  0  0  0  0
  160.6890  208.5970  152.8520 C   0  0  0  0  0  0  0  0  0  0  0  0
  160.4050  209.2310  154.1020 N   0  0  0  0  0  2  0  0  0  0  0  0
  160.0040  208.4380  155.2600 C   0  0  0  0  0  2  0  0  0  0  0  0
  161.1060  206.5040  156.5800 C   0  0  0  0  0  1  0  0  0  0  0  0
  160.8940  209.3070  151.8340 O   0  0  0  0  0  0  0  0  0  0  0  0
  160.6860  207.0820  152.7810 C   0  0  1  0  0  3  0  0  0  0  0  0
  158.6970  200.6510  150.0730 O   0  0  0  0  0  1  0  0  0  0  0  0
  158.7000  201.8800  149.4110 C   0  0  0  0  0  2  0  0  0  0  0  0
  162.0410  201.2890  149.6840 C   0  0  0  0  0  2  0  0  0  0  0  0
  161.4510  200.6130  148.4470 C   0  0  0  0  0  2  0  0  0  0  0  0
  161.6220  203.2940  146.0960 C   0  0  0  0  0  3  0  0  0  0  0  0
  160.5550  201.3490  146.1830 C   0  0  0  0  0  3  0  0  0  0  0  0
  161.9430  202.7150  147.2270 O   0  0  0  0  0  0  0  0  0  0  0  0
  160.7480  202.4750  145.4010 C   0  0  0  0  0  3  0  0  0  0  0  0
  161.3200  201.5670  147.3060 C   0  0  0  0  0  0  0  0  0  0  0  0
  2  6  1  0  0  0  0
  2  3  1  0  0  0  0
  3 11  1  0  0  0  0
  4 26  1  6  0  0  0
  4 14  1  0  0  0  0
  5 10  2  0  0  0  0
  6  8  2  0  0  0  0
  7  5  1  6  0  0  0
  7 15  1  0  0  0  0
  8  7  1  0  0  0  0
  8 12  1  0  0  0  0
  9 13  1  1  0  0  0
  9 23  1  0  0  0  0
 10  4  1  0  0  0  0
 12 11  1  6  0  0  0
 12  9  1  0  0  0  0
 14  1  2  0  0  0  0
 15  9  1  0  0  0  0
 15  1  1  1  0  0  0
 16 17  2  0  0  0  0
 17 21  1  0  0  0  0
 18 19  1  0  0  0  0
 19 20  1  0  0  0  0
 20 17  1  0  0  0  0
 22 18  2  0  0  0  0
 23 18  1  0  0  0  0
 23 16  1  1  0  0  0
 25 10  1  0  0  0  0
 25 24  1  0  0  0  0
 27 26  1  0  0  0  0
 28 30  1  0  0  0  0
 29 32  2  0  0  0  0
 30 32  1  0  0  0  0
 31 28  2  0  0  0  0
 31 29  1  0  0  0  0
 32 27  1  0  0  0  0
M  END
>  <MODEL>
3

>  <REMARK>
 VINA RESULT:      -4.4      4.775      8.148
  Name = 
  5 active torsions:
  status: ('A' for Active; 'I' for Inactive)
    1  A    between atoms: C_8  and  C_23
    2  A    between atoms: C_12  and  C_21
    3  A    between atoms: C_16  and  C_32
    4  A    between atoms: C_19  and  C_23
    5  A    between atoms: C_19  and  C_24
                            x       y       z     vdW  Elec       q    Type
                         _______ _______ _______ _____ _____    ______ ____

>  <TORSDO>
F 5

$$$$
=
 OpenBabel11062410413D

 32 36  0  0  1  0  0  0  0  0999 V2000
  160.4890  206.5800  147.0540 C   0  0  0  0  0  3  0  0  0  0  0  0
  161.6120  202.3690  151.2670 C   0  0  0  0  0  2  0  0  0  0  0  0
  160.5830  203.1980  152.0610 C   0  0  0  0  0  2  0  0  0  0  0  0
  161.0890  204.9570  145.1450 C   0  0  2  0  0  3  0  0  0  0  0  0
  162.3630  204.0140  147.1000 C   0  0  0  0  0  3  0  0  0  0  0  0
  161.5570  202.6720  149.7980 C   0  0  0  0  0  3  0  0  0  0  0  0
  161.2610  204.3980  148.0290 C   0  0  1  0  0  3  0  0  0  0  0  0
  161.4840  203.9530  149.4190 C   0  0  0  0  0  0  0  0  0  0  0  0
  160.8970  206.2850  149.5960 C   0  0  2  0  0  0  0  0  0  0  0  0
  162.3030  204.3200  145.7940 C   0  0  0  0  0  0  0  0  0  0  0  0
  160.2820  204.5940  151.4730 C   0  0  0  0  0  2  0  0  0  0  0  0
  161.3130  205.0440  150.4210 C   0  0  1  0  0  3  0  0  0  0  0  0
  159.5170  206.5200  149.6900 O   0  0  0  0  0  1  0  0  0  0  0  0
  160.4570  206.1900  145.7680 C   0  0  0  0  0  3  0  0  0  0  0  0
  161.2730  205.9030  148.1450 C   0  0  2  0  0  3  0  0  0  0  0  0
  161.6610  208.6470  149.0270 C   0  0  0  0  0  3  0  0  0  0  0  0
  161.9610  209.9160  149.3400 C   0  0  0  0  0  0  0  0  0  0  0  0
  161.3090  208.0940  151.4130 C   0  0  0  0  0  0  0  0  0  0  0  0
  161.5860  209.4680  151.7000 N   0  0  0  0  0  2  0  0  0  0  0  0
  162.3310  210.2860  150.7490 C   0  0  0  0  0  2  0  0  0  0  0  0
  161.9560  210.9590  148.2780 C   0  0  0  0  0  1  0  0  0  0  0  0
  160.7910  207.3710  152.3040 O   0  0  0  0  0  0  0  0  0  0  0  0
  161.6930  207.5360  150.0560 C   0  0  1  0  0  3  0  0  0  0  0  0
  164.6390  203.9540  145.6520 O   0  0  0  0  0  1  0  0  0  0  0  0
  163.4530  203.9530  144.9160 C   0  0  0  0  0  2  0  0  0  0  0  0
  160.0620  203.9450  144.6310 C   0  0  0  0  0  2  0  0  0  0  0  0
  159.4990  203.0280  145.7160 C   0  0  0  0  0  2  0  0  0  0  0  0
  160.6850  199.7640  144.8860 C   0  0  0  0  0  3  0  0  0  0  0  0
  160.8330  201.0810  146.6670 C   0  0  0  0  0  3  0  0  0  0  0  0
  160.0390  200.8720  144.6160 O   0  0  0  0  0  0  0  0  0  0  0  0
  161.2040  199.8450  146.1680 C   0  0  0  0  0  3  0  0  0  0  0  0
  160.1050  201.6640  145.6550 C   0  0  0  0  0  0  0  0  0  0  0  0
  2  3  1  0  0  0  0
  4 26  1  1  0  0  0
  4 14  1  0  0  0  0
  4 10  1  0  0  0  0
  6  2  1  0  0  0  0
  7  5  1  6  0  0  0
  7 15  1  0  0  0  0
  7  8  1  0  0  0  0
  8  6  2  0  0  0  0
  8 12  1  0  0  0  0
  9 13  1  1  0  0  0
  9 23  1  0  0  0  0
  9 12  1  0  0  0  0
 10  5  2  0  0  0  0
 11  3  1  0  0  0  0
 12 11  1  1  0  0  0
 14  1  2  0  0  0  0
 15  1  1  6  0  0  0
 15  9  1  0  0  0  0
 16 17  2  0  0  0  0
 17 20  1  0  0  0  0
 18 19  1  0  0  0  0
 18 22  2  0  0  0  0
 20 19  1  0  0  0  0
 21 17  1  0  0  0  0
 23 16  1  6  0  0  0
 23 18  1  0  0  0  0
 25 24  1  0  0  0  0
 25 10  1  0  0  0  0
 26 27  1  0  0  0  0
 28 31  2  0  0  0  0
 30 28  1  0  0  0  0
 30 32  1  0  0  0  0
 31 29  1  0  0  0  0
 32 27  1  0  0  0  0
 32 29  2  0  0  0  0
M  END
>  <MODEL>
4

>  <REMARK>
 VINA RESULT:      -4.1      5.634      8.005
  Name = 
  5 active torsions:
  status: ('A' for Active; 'I' for Inactive)
    1  A    between atoms: C_8  and  C_23
    2  A    between atoms: C_12  and  C_21
    3  A    between atoms: C_16  and  C_32
    4  A    between atoms: C_19  and  C_23
    5  A    between atoms: C_19  and  C_24
                            x       y       z     vdW  Elec       q    Type
                         _______ _______ _______ _____ _____    ______ ____

>  <TORSDO>
F 5

$$$$
=
 OpenBabel11062410413D

 32 36  0  0  1  0  0  0  0  0999 V2000
  162.6620  209.1680  150.7260 C   0  0  0  0  0  3  0  0  0  0  0  0
  160.3670  203.9410  152.7650 C   0  0  0  0  0  2  0  0  0  0  0  0
  161.6110  203.3690  152.0560 C   0  0  0  0  0  2  0  0  0  0  0  0
  161.5700  210.4980  152.6430 C   0  0  2  0  0  3  0  0  0  0  0  0
  160.0960  208.4660  152.4650 C   0  0  0  0  0  3  0  0  0  0  0  0
  160.4930  205.4190  153.0000 C   0  0  0  0  0  3  0  0  0  0  0  0
  161.2750  207.6150  152.1310 C   0  0  1  0  0  3  0  0  0  0  0  0
  160.9470  206.1820  152.0000 C   0  0  0  0  0  0  0  0  0  0  0  0
  162.2180  206.7150  150.0210 C   0  0  2  0  0  0  0  0  0  0  0  0
  160.2290  209.7900  152.6440 C   0  0  0  0  0  0  0  0  0  0  0  0
  162.3150  204.3460  151.0890 C   0  0  0  0  0  2  0  0  0  0  0  0
  161.4550  205.5740  150.7370 C   0  0  1  0  0  3  0  0  0  0  0  0
  163.6050  206.5780  150.1810 O   0  0  0  0  0  1  0  0  0  0  0  0
  162.5560  210.2520  151.5140 C   0  0  0  0  0  3  0  0  0  0  0  0
  161.7240  207.9930  150.7400 C   0  0  2  0  0  3  0  0  0  0  0  0
  162.7730  205.9020  147.6720 C   0  0  0  0  0  3  0  0  0  0  0  0
  162.4440  205.5040  146.4340 C   0  0  0  0  0  0  0  0  0  0  0  0
  160.4060  206.4130  148.1850 C   0  0  0  0  0  0  0  0  0  0  0  0
  160.0920  205.9320  146.8750 N   0  0  0  0  0  2  0  0  0  0  0  0
  161.1180  205.8850  145.8380 C   0  0  0  0  0  2  0  0  0  0  0  0
  163.4120  204.7040  145.6360 C   0  0  0  0  0  1  0  0  0  0  0  0
  159.4790  206.5780  149.0190 O   0  0  0  0  0  0  0  0  0  0  0  0
  161.8470  206.7550  148.5150 C   0  0  1  0  0  3  0  0  0  0  0  0
  159.1430  211.8790  152.3840 O   0  0  0  0  0  1  0  0  0  0  0  0
  159.0090  210.6020  152.9310 C   0  0  0  0  0  2  0  0  0  0  0  0
  162.2330  210.5640  154.0220 C   0  0  0  0  0  2  0  0  0  0  0  0
  161.2460  210.7170  155.1770 C   0  0  0  0  0  2  0  0  0  0  0  0
  161.5060  207.7040  157.0740 C   0  0  0  0  0  3  0  0  0  0  0  0
  159.8450  208.7970  156.0860 C   0  0  0  0  0  3  0  0  0  0  0  0
  162.0140  208.7740  156.5110 O   0  0  0  0  0  0  0  0  0  0  0  0
  160.1420  207.6720  156.8340 C   0  0  0  0  0  3  0  0  0  0  0  0
  161.0550  209.4330  155.9140 C   0  0  0  0  0  0  0  0  0  0  0  0
  1 14  2  0  0  0  0
  2  6  1  0  0  0  0
  3  2  1  0  0  0  0
  4 10  1  0  0  0  0
  4 26  1  1  0  0  0
  5 10  2  0  0  0  0
  7  5  1  6  0  0  0
  8  7  1  0  0  0  0
  8  6  2  0  0  0  0
  9 13  1  1  0  0  0
  9 12  1  0  0  0  0
  9 15  1  0  0  0  0
 10 25  1  0  0  0  0
 11  3  1  0  0  0  0
 12 11  1  1  0  0  0
 12  8  1  0  0  0  0
 14  4  1  0  0  0  0
 15  1  1  1  0  0  0
 15  7  1  0  0  0  0
 17 16  2  0  0  0  0
 18 23  1  0  0  0  0
 18 22  2  0  0  0  0
 19 18  1  0  0  0  0
 20 17  1  0  0  0  0
 20 19  1  0  0  0  0
 21 17  1  0  0  0  0
 23 16  1  6  0  0  0
 23  9  1  0  0  0  0
 24 25  1  0  0  0  0
 26 27  1  0  0  0  0
 27 32  1  0  0  0  0
 29 31  1  0  0  0  0
 30 28  1  0  0  0  0
 31 28  2  0  0  0  0
 32 29  2  0  0  0  0
 32 30  1  0  0  0  0
M  END
>  <MODEL>
5

>  <REMARK>
 VINA RESULT:      -3.8      4.390      8.455
  Name = 
  5 active torsions:
  status: ('A' for Active; 'I' for Inactive)
    1  A    between atoms: C_8  and  C_23
    2  A    between atoms: C_12  and  C_21
    3  A    between atoms: C_16  and  C_32
    4  A    between atoms: C_19  and  C_23
    5  A    between atoms: C_19  and  C_24
                            x       y       z     vdW  Elec       q    Type
                         _______ _______ _______ _____ _____    ______ ____

>  <TORSDO>
F 5

$$$$
=
 OpenBabel11062410413D

 32 36  0  0  1  0  0  0  0  0999 V2000
  160.1030  208.8360  153.1500 C   0  0  0  0  0  3  0  0  0  0  0  0
  164.6670  211.6090  156.0190 C   0  0  0  0  0  2  0  0  0  0  0  0
  163.9250  211.0740  157.2600 C   0  0  0  0  0  2  0  0  0  0  0  0
  161.5370  208.4610  151.0430 C   0  0  2  0  0  3  0  0  0  0  0  0
  162.6400  210.4500  152.1220 C   0  0  0  0  0  3  0  0  0  0  0  0
  164.2310  210.9060  154.7660 C   0  0  0  0  0  3  0  0  0  0  0  0
  162.3550  209.8980  153.4780 C   0  0  1  0  0  3  0  0  0  0  0  0
  162.9230  210.7090  154.5730 C   0  0  0  0  0  0  0  0  0  0  0  0
  160.6230  210.3370  155.1970 C   0  0  2  0  0  0  0  0  0  0  0  0
  162.2170  209.8170  151.0160 C   0  0  0  0  0  0  0  0  0  0  0  0
  162.4850  210.5820  156.9950 C   0  0  0  0  0  2  0  0  0  0  0  0
  161.9290  211.0420  155.6350 C   0  0  1  0  0  3  0  0  0  0  0  0
  160.4130  209.1560  155.9240 O   0  0  0  0  0  1  0  0  0  0  0  0
  160.3740  208.2160  151.9880 C   0  0  0  0  0  3  0  0  0  0  0  0
  160.8670  210.0070  153.7060 C   0  0  2  0  0  3  0  0  0  0  0  0
  159.3980  212.3840  154.3030 C   0  0  0  0  0  3  0  0  0  0  0  0
  158.2930  213.0890  154.0210 C   0  0  0  0  0  0  0  0  0  0  0  0
  158.0500  210.6230  155.4010 C   0  0  0  0  0  0  0  0  0  0  0  0
  156.8920  211.3810  155.0380 N   0  0  0  0  0  2  0  0  0  0  0  0
  157.0040  212.8060  154.7410 C   0  0  0  0  0  2  0  0  0  0  0  0
  158.3510  214.1780  153.0090 C   0  0  0  0  0  1  0  0  0  0  0  0
  157.9110  209.4340  155.7900 O   0  0  0  0  0  0  0  0  0  0  0  0
  159.4100  211.2930  155.3540 C   0  0  1  0  0  3  0  0  0  0  0  0
  161.9390  209.6530  148.6700 O   0  0  0  0  0  1  0  0  0  0  0  0
  162.4890  210.4360  149.6850 C   0  0  0  0  0  2  0  0  0  0  0  0
  162.5110  207.2820  150.9630 C   0  0  0  0  0  2  0  0  0  0  0  0
  162.2560  206.1960  152.0070 C   0  0  0  0  0  2  0  0  0  0  0  0
  161.0420  202.9400  151.1910 C   0  0  0  0  0  3  0  0  0  0  0  0
  161.1920  204.8740  150.1120 C   0  0  0  0  0  3  0  0  0  0  0  0
  161.5890  203.8080  152.0070 O   0  0  0  0  0  0  0  0  0  0  0  0
  160.7740  203.5610  149.9830 C   0  0  0  0  0  3  0  0  0  0  0  0
  161.6950  204.9580  151.3910 C   0  0  0  0  0  0  0  0  0  0  0  0
  2  3  1  0  0  0  0
  4 26  1  1  0  0  0
  4 14  1  0  0  0  0
  6  2  1  0  0  0  0
  7  5  1  6  0  0  0
  7 15  1  0  0  0  0
  7  8  1  0  0  0  0
  8  6  2  0  0  0  0
  8 12  1  0  0  0  0
  9 23  1  0  0  0  0
  9 12  1  0  0  0  0
  9 13  1  1  0  0  0
 10  4  1  0  0  0  0
 10  5  2  0  0  0  0
 11  3  1  0  0  0  0
 12 11  1  1  0  0  0
 14  1  2  0  0  0  0
 15  1  1  1  0  0  0
 15  9  1  0  0  0  0
 17 16  2  0  0  0  0
 17 20  1  0  0  0  0
 18 22  2  0  0  0  0
 19 18  1  0  0  0  0
 20 19  1  0  0  0  0
 21 17  1  0  0  0  0
 23 16  1  6  0  0  0
 23 18  1  0  0  0  0
 24 25  1  0  0  0  0
 25 10  1  0  0  0  0
 26 27  1  0  0  0  0
 28 30  1  0  0  0  0
 29 32  2  0  0  0  0
 31 29  1  0  0  0  0
 31 28  2  0  0  0  0
 32 27  1  0  0  0  0
 32 30  1  0  0  0  0
M  END
>  <MODEL>
6

>  <REMARK>
 VINA RESULT:      -3.8      3.415      6.104
  Name = 
  5 active torsions:
  status: ('A' for Active; 'I' for Inactive)
    1  A    between atoms: C_8  and  C_23
    2  A    between atoms: C_12  and  C_21
    3  A    between atoms: C_16  and  C_32
    4  A    between atoms: C_19  and  C_23
    5  A    between atoms: C_19  and  C_24
                            x       y       z     vdW  Elec       q    Type
                         _______ _______ _______ _____ _____    ______ ____

>  <TORSDO>
F 5

$$$$
=
 OpenBabel11062410413D

 32 36  0  0  1  0  0  0  0  0999 V2000
  159.2580  211.8710  152.7630 C   0  0  0  0  0  3  0  0  0  0  0  0
  162.5880  207.7700  149.7920 C   0  0  0  0  0  2  0  0  0  0  0  0
  161.9430  206.8190  150.8190 C   0  0  0  0  0  2  0  0  0  0  0  0
  159.1060  213.3850  150.6840 C   0  0  2  0  0  3  0  0  0  0  0  0
  161.2120  212.0730  150.2660 C   0  0  0  0  0  3  0  0  0  0  0  0
  161.8480  209.0730  149.6980 C   0  0  0  0  0  3  0  0  0  0  0  0
  160.6110  210.8650  150.9010 C   0  0  1  0  0  3  0  0  0  0  0  0
  161.4780  209.6730  150.8340 C   0  0  0  0  0  0  0  0  0  0  0  0
  160.7900  209.8170  153.1410 C   0  0  2  0  0  0  0  0  0  0  0  0
  160.5420  213.2350  150.2180 C   0  0  0  0  0  0  0  0  0  0  0  0
  161.2640  207.5210  152.0170 C   0  0  0  0  0  2  0  0  0  0  0  0
  161.6600  209.0030  152.1540 C   0  0  1  0  0  3  0  0  0  0  0  0
  159.5830  209.1590  153.4190 O   0  0  0  0  0  1  0  0  0  0  0  0
  158.6940  212.8610  152.0490 C   0  0  0  0  0  3  0  0  0  0  0  0
  160.5140  211.1370  152.3830 C   0  0  2  0  0  3  0  0  0  0  0  0
  161.0950  211.3510  155.1520 C   0  0  0  0  0  3  0  0  0  0  0  0
  161.3600  211.5920  156.4440 C   0  0  0  0  0  0  0  0  0  0  0  0
  161.6060  208.9480  155.4490 C   0  0  0  0  0  0  0  0  0  0  0  0
  161.8310  209.2390  156.8310 N   0  0  0  0  0  2  0  0  0  0  0  0
  162.1390  210.5990  157.2610 C   0  0  0  0  0  2  0  0  0  0  0  0
  160.9040  212.8660  157.0650 C   0  0  0  0  0  1  0  0  0  0  0  0
  161.4840  207.7500  155.0830 O   0  0  0  0  0  0  0  0  0  0  0  0
  161.5710  210.0930  154.4540 C   0  0  1  0  0  3  0  0  0  0  0  0
  162.1600  214.0190  148.6770 O   0  0  0  0  0  1  0  0  0  0  0  0
  161.2080  214.4260  149.6120 C   0  0  0  0  0  2  0  0  0  0  0  0
  158.0710  213.1060  149.5910 C   0  0  0  0  0  2  0  0  0  0  0  0
  158.0760  214.1300  148.4570 C   0  0  0  0  0  2  0  0  0  0  0  0
  158.2690  212.8420  145.1330 C   0  0  0  0  0  3  0  0  0  0  0  0
  159.6650  212.9530  146.8550 C   0  0  0  0  0  3  0  0  0  0  0  0
  157.6380  213.4330  146.1180 O   0  0  0  0  0  0  0  0  0  0  0  0
  159.5510  212.5180  145.5460 C   0  0  0  0  0  3  0  0  0  0  0  0
  158.4380  213.5040  147.1500 C   0  0  0  0  0  0  0  0  0  0  0  0
  2  3  1  0  0  0  0
  3 11  1  0  0  0  0
  4 26  1  6  0  0  0
  4 14  1  0  0  0  0
  6  2  1  0  0  0  0
  6  8  2  0  0  0  0
  7  5  1  6  0  0  0
  7 15  1  0  0  0  0
  8  7  1  0  0  0  0
  8 12  1  0  0  0  0
  9 13  1  1  0  0  0
  9 23  1  0  0  0  0
 10  5  2  0  0  0  0
 10  4  1  0  0  0  0
 12 11  1  6  0  0  0
 12  9  1  0  0  0  0
 14  1  2  0  0  0  0
 15  1  1  6  0  0  0
 15  9  1  0  0  0  0
 16 17  2  0  0  0  0
 17 21  1  0  0  0  0
 17 20  1  0  0  0  0
 18 19  1  0  0  0  0
 19 20  1  0  0  0  0
 22 18  2  0  0  0  0
 23 16  1  1  0  0  0
 23 18  1  0  0  0  0
 24 25  1  0  0  0  0
 25 10  1  0  0  0  0
 27 26  1  0  0  0  0
 28 31  2  0  0  0  0
 28 30  1  0  0  0  0
 29 32  2  0  0  0  0
 30 32  1  0  0  0  0
 31 29  1  0  0  0  0
 32 27  1  0  0  0  0
M  END
>  <MODEL>
7

>  <REMARK>
 VINA RESULT:      -3.6      1.517      1.979
  Name = 
  5 active torsions:
  status: ('A' for Active; 'I' for Inactive)
    1  A    between atoms: C_8  and  C_23
    2  A    between atoms: C_12  and  C_21
    3  A    between atoms: C_16  and  C_32
    4  A    between atoms: C_19  and  C_23
    5  A    between atoms: C_19  and  C_24
                            x       y       z     vdW  Elec       q    Type
                         _______ _______ _______ _____ _____    ______ ____

>  <TORSDO>
F 5

$$$$
=
 OpenBabel11062410413D

 32 36  0  0  1  0  0  0  0  0999 V2000
  158.4220  214.4360  153.7470 C   0  0  0  0  0  3  0  0  0  0  0  0
  160.8320  209.2900  151.6370 C   0  0  0  0  0  2  0  0  0  0  0  0
  161.7640  210.2790  150.9090 C   0  0  0  0  0  2  0  0  0  0  0  0
  157.6000  213.2740  155.8950 C   0  0  2  0  0  3  0  0  0  0  0  0
  157.7590  211.3700  154.2580 C   0  0  0  0  0  3  0  0  0  0  0  0
  160.1050  209.9460  152.7750 C   0  0  0  0  0  3  0  0  0  0  0  0
  158.9620  211.9860  153.6270 C   0  0  1  0  0  3  0  0  0  0  0  0
  159.5630  211.1510  152.5680 C   0  0  0  0  0  0  0  0  0  0  0  0
  159.3440  213.3430  151.5870 C   0  0  2  0  0  0  0  0  0  0  0  0
  157.1090  211.9890  155.2560 C   0  0  0  0  0  0  0  0  0  0  0  0
  161.2750  211.7440  150.8980 C   0  0  0  0  0  2  0  0  0  0  0  0
  159.7950  211.8920  151.2950 C   0  0  1  0  0  3  0  0  0  0  0  0
  160.4450  214.1820  151.8150 O   0  0  0  0  0  1  0  0  0  0  0  0
  157.9910  214.4530  155.0210 C   0  0  0  0  0  3  0  0  0  0  0  0
  158.5000  213.2120  152.8770 C   0  0  2  0  0  3  0  0  0  0  0  0
  158.9120  213.3380  149.0770 C   0  0  0  0  0  3  0  0  0  0  0  0
  158.1140  213.3800  148.0000 C   0  0  0  0  0  0  0  0  0  0  0  0
  156.9800  213.7140  150.5780 C   0  0  0  0  0  0  0  0  0  0  0  0
  156.1580  213.7030  149.4070 N   0  0  0  0  0  2  0  0  0  0  0  0
  156.7360  213.9730  148.0940 C   0  0  0  0  0  2  0  0  0  0  0  0
  158.6090  212.8630  146.6950 C   0  0  0  0  0  1  0  0  0  0  0  0
  156.4400  213.6200  151.7110 O   0  0  0  0  0  0  0  0  0  0  0  0
  158.4790  213.8890  150.4200 C   0  0  1  0  0  3  0  0  0  0  0  0
  155.2610  210.5640  154.8510 O   0  0  0  0  0  1  0  0  0  0  0  0
  155.8830  211.3510  155.8210 C   0  0  0  0  0  2  0  0  0  0  0  0
  158.5510  213.0530  157.0740 C   0  0  0  0  0  2  0  0  0  0  0  0
  160.0210  212.9410  156.6720 C   0  0  0  0  0  2  0  0  0  0  0  0
  160.4810  209.4100  156.9270 C   0  0  0  0  0  3  0  0  0  0  0  0
  161.6220  211.0790  156.0090 C   0  0  0  0  0  3  0  0  0  0  0  0
  159.8180  210.5180  157.1560 O   0  0  0  0  0  0  0  0  0  0  0  0
  161.6270  209.7090  156.2080 C   0  0  0  0  0  3  0  0  0  0  0  0
  160.4750  211.5200  156.6300 C   0  0  0  0  0  0  0  0  0  0  0  0
  1 14  2  0  0  0  0
  2  6  1  0  0  0  0
  3  2  1  0  0  0  0
  4 26  1  6  0  0  0
  5 10  2  0  0  0  0
  7  5  1  6  0  0  0
  8  6  2  0  0  0  0
  8  7  1  0  0  0  0
  9 13  1  1  0  0  0
  9 15  1  0  0  0  0
 10 25  1  0  0  0  0
 10  4  1  0  0  0  0
 11  3  1  0  0  0  0
 12 11  1  1  0  0  0
 12  9  1  0  0  0  0
 12  8  1  0  0  0  0
 14  4  1  0  0  0  0
 15  7  1  0  0  0  0
 15  1  1  1  0  0  0
 17 20  1  0  0  0  0
 17 16  2  0  0  0  0
 18 22  2  0  0  0  0
 19 18  1  0  0  0  0
 20 19  1  0  0  0  0
 21 17  1  0  0  0  0
 23 16  1  6  0  0  0
 23 18  1  0  0  0  0
 23  9  1  0  0  0  0
 24 25  1  0  0  0  0
 27 26  1  0  0  0  0
 28 30  1  0  0  0  0
 29 31  1  0  0  0  0
 29 32  2  0  0  0  0
 31 28  2  0  0  0  0
 32 27  1  0  0  0  0
 32 30  1  0  0  0  0
M  END
>  <MODEL>
8

>  <REMARK>
 VINA RESULT:      -3.5      3.140      8.079
  Name = 
  5 active torsions:
  status: ('A' for Active; 'I' for Inactive)
    1  A    between atoms: C_8  and  C_23
    2  A    between atoms: C_12  and  C_21
    3  A    between atoms: C_16  and  C_32
    4  A    between atoms: C_19  and  C_23
    5  A    between atoms: C_19  and  C_24
                            x       y       z     vdW  Elec       q    Type
                         _______ _______ _______ _____ _____    ______ ____

>  <TORSDO>
F 5

$$$$
=
 OpenBabel11062410413D

 32 36  0  0  1  0  0  0  0  0999 V2000
  160.4060  206.5480  148.5840 C   0  0  0  0  0  3  0  0  0  0  0  0
  161.3190  200.6680  149.7390 C   0  0  0  0  0  2  0  0  0  0  0  0
  160.2500  200.9350  150.8170 C   0  0  0  0  0  2  0  0  0  0  0  0
  161.1040  206.2640  146.1210 C   0  0  2  0  0  3  0  0  0  0  0  0
  162.2780  204.3500  147.2570 C   0  0  0  0  0  3  0  0  0  0  0  0
  161.3370  201.7470  148.6950 C   0  0  0  0  0  3  0  0  0  0  0  0
  161.1300  204.1750  148.1930 C   0  0  1  0  0  3  0  0  0  0  0  0
  161.2820  203.0200  149.1000 C   0  0  0  0  0  0  0  0  0  0  0  0
  160.6850  204.8640  150.5340 C   0  0  2  0  0  0  0  0  0  0  0  0
  162.2840  205.3390  146.3490 C   0  0  0  0  0  0  0  0  0  0  0  0
  159.9770  202.4290  151.1050 C   0  0  0  0  0  2  0  0  0  0  0  0
  161.0600  203.3630  150.5340 C   0  0  1  0  0  3  0  0  0  0  0  0
  159.3020  205.0440  150.6850 O   0  0  0  0  0  1  0  0  0  0  0  0
  160.4390  206.9500  147.3010 C   0  0  0  0  0  3  0  0  0  0  0  0
  161.1340  205.3540  149.1370 C   0  0  2  0  0  3  0  0  0  0  0  0
  161.2670  207.1190  151.5660 C   0  0  0  0  0  3  0  0  0  0  0  0
  161.5300  207.9280  152.6030 C   0  0  0  0  0  0  0  0  0  0  0  0
  161.1740  205.1530  153.0680 C   0  0  0  0  0  0  0  0  0  0  0  0
  161.4050  206.0580  154.1510 N   0  0  0  0  0  2  0  0  0  0  0  0
  162.0140  207.3620  153.9090 C   0  0  0  0  0  2  0  0  0  0  0  0
  161.3690  209.4000  152.4480 C   0  0  0  0  0  1  0  0  0  0  0  0
  160.7810  203.9830  153.3150 O   0  0  0  0  0  0  0  0  0  0  0  0
  161.4550  205.6170  151.6510 C   0  0  1  0  0  3  0  0  0  0  0  0
  164.1190  204.2700  145.3010 O   0  0  0  0  0  1  0  0  0  0  0  0
  163.4780  205.4980  145.4660 C   0  0  0  0  0  2  0  0  0  0  0  0
  160.1050  205.7450  145.0830 C   0  0  0  0  0  2  0  0  0  0  0  0
  160.6820  204.6880  144.1420 C   0  0  0  0  0  2  0  0  0  0  0  0
  160.4530  201.3650  145.4260 C   0  0  0  0  0  3  0  0  0  0  0  0
  159.0630  202.7400  144.3740 C   0  0  0  0  0  3  0  0  0  0  0  0
  161.1000  202.4800  145.1910 O   0  0  0  0  0  0  0  0  0  0  0  0
  159.1640  201.4760  144.9300 C   0  0  0  0  0  3  0  0  0  0  0  0
  160.3030  203.3070  144.5630 C   0  0  0  0  0  0  0  0  0  0  0  0
  2  3  1  0  0  0  0
  3 11  1  0  0  0  0
  4 26  1  1  0  0  0
  4 10  1  0  0  0  0
  4 14  1  0  0  0  0
  6  8  2  0  0  0  0
  6  2  1  0  0  0  0
  7  5  1  6  0  0  0
  7  8  1  0  0  0  0
  7 15  1  0  0  0  0
  8 12  1  0  0  0  0
  9 13  1  1  0  0  0
  9 23  1  0  0  0  0
 10  5  2  0  0  0  0
 12  9  1  0  0  0  0
 12 11  1  6  0  0  0
 14  1  2  0  0  0  0
 15  1  1  6  0  0  0
 15  9  1  0  0  0  0
 16 17  2  0  0  0  0
 17 20  1  0  0  0  0
 18 22  2  0  0  0  0
 18 19  1  0  0  0  0
 20 19  1  0  0  0  0
 21 17  1  0  0  0  0
 23 16  1  1  0  0  0
 23 18  1  0  0  0  0
 24 25  1  0  0  0  0
 25 10  1  0  0  0  0
 27 32  1  0  0  0  0
 27 26  1  0  0  0  0
 29 32  2  0  0  0  0
 29 31  1  0  0  0  0
 30 28  1  0  0  0  0
 31 28  2  0  0  0  0
 32 30  1  0  0  0  0
M  END
>  <MODEL>
9

>  <REMARK>
 VINA RESULT:      -3.3      5.587      7.498
  Name = 
  5 active torsions:
  status: ('A' for Active; 'I' for Inactive)
    1  A    between atoms: C_8  and  C_23
    2  A    between atoms: C_12  and  C_21
    3  A    between atoms: C_16  and  C_32
    4  A    between atoms: C_19  and  C_23
    5  A    between atoms: C_19  and  C_24
                            x       y       z     vdW  Elec       q    Type
                         _______ _______ _______ _____ _____    ______ ____

>  <TORSDO>
F 5

$$$$
