=
 OpenBabel11062410543D

 32 39  0  0  1  0  0  0  0  0999 V2000
  162.0310  208.3710  150.6880 C   0  0  2  0  0  3  0  0  0  0  0  0
  161.9660  205.2030  152.8860 C   0  0  0  0  0  3  0  0  0  0  0  0
  161.1810  205.7100  153.9410 C   0  0  0  0  0  3  0  0  0  0  0  0
  161.1890  210.8570  150.8280 C   0  0  1  0  0  3  0  0  0  0  0  0
  160.4460  211.7380  151.6230 C   0  0  0  0  0  0  0  0  0  0  0  0
  159.3200  212.4410  153.4330 N   0  0  0  0  0  0  0  0  0  0  0  0
  162.2790  206.0090  151.7790 C   0  0  0  0  0  3  0  0  0  0  0  0
  161.7860  207.3150  151.7450 C   0  0  0  0  0  0  0  0  0  0  0  0
  160.7060  209.1800  152.5030 C   0  0  0  0  0  0  0  0  0  0  0  0
  159.4200  213.5710  152.6650 O   0  0  0  0  0  0  0  0  0  0  0  0
  160.2250  213.2040  151.5380 C   0  0  0  0  0  3  0  0  0  0  0  0
  160.7010  207.0290  153.9020 C   0  0  0  0  0  3  0  0  0  0  0  0
  161.0200  207.8040  152.7890 C   0  0  0  0  0  0  0  0  0  0  0  0
  160.0200  210.0710  153.2760 N   0  0  0  0  0  0  0  0  0  0  0  0
  161.8030  211.2740  149.6540 O   0  0  0  0  0  1  0  0  0  0  0  0
  159.2560  212.5380  155.1690 Cl  0  0  0  0  0  0  0  0  0  0  0  0
  161.2900  209.5360  151.2900 C   0  0  0  0  0  0  0  0  0  0  0  0
  159.8880  211.3350  152.7830 C   0  0  0  0  0  0  0  0  0  0  0  0
  160.6570  205.7720  148.2380 C   0  0  2  0  0  3  0  0  0  0  0  0
  162.5880  207.8120  148.2870 C   0  0  0  0  0  2  0  0  0  0  0  0
  162.0030  207.3230  146.9980 C   0  0  0  0  0  3  0  0  0  0  0  0
  161.4650  207.9900  149.3110 C   0  0  1  0  0  3  0  0  0  0  0  0
  161.1130  206.3890  147.0060 N   0  0  0  0  0  0  0  0  0  0  0  0
  160.4650  206.8100  149.3580 C   0  0  0  0  0  2  0  0  0  0  0  0
  159.9780  200.8790  150.0620 C   0  0  0  0  0  2  0  0  0  0  0  0
  161.9920  203.9120  147.6180 O   0  0  0  0  0  0  0  0  0  0  0  0
  161.6530  201.9570  148.6770 C   0  0  2  0  0  3  0  0  0  0  0  0
  160.2220  202.2690  150.5980 C   0  0  0  0  0  2  0  0  0  0  0  0
  161.0150  203.3440  148.4840 C   0  0  2  0  0  0  0  0  0  0  0  0
  160.5730  200.8900  148.6750 C   0  0  0  0  0  2  0  0  0  0  0  0
  161.6330  204.6960  148.6890 C   0  0  2  0  0  3  0  0  0  0  0  0
  161.4370  202.8070  149.8620 C   0  0  2  0  0  3  0  0  0  0  0  0
  1 17  1  1  0  0  0
  1  8  1  0  0  0  0
  2  3  1  0  0  0  0
  4 15  1  1  0  0  0
  4 17  1  0  0  0  0
  4  5  1  0  0  0  0
  5 18  1  0  0  0  0
  6 16  1  0  0  0  0
  7  2  2  0  0  0  0
  8  7  1  0  0  0  0
  8 13  2  0  0  0  0
  9 13  1  0  0  0  0
  9 14  1  0  0  0  0
 10  6  1  0  0  0  0
 11  5  2  0  0  0  0
 11 10  1  0  0  0  0
 12  3  2  0  0  0  0
 13 12  1  0  0  0  0
 17  9  2  0  0  0  0
 18 14  2  0  0  0  0
 18  6  1  0  0  0  0
 19 31  1  0  0  0  0
 19 24  1  1  0  0  0
 21 23  2  0  0  0  0
 21 20  1  0  0  0  0
 22 20  1  6  0  0  0
 22 24  1  0  0  0  0
 22  1  1  0  0  0  0
 23 19  1  0  0  0  0
 25 28  1  0  0  0  0
 27 30  1  1  0  0  0
 27 32  1  0  0  0  0
 29 26  1  1  0  0  0
 29 27  1  0  0  0  0
 29 31  1  0  0  0  0
 29 32  1  0  0  0  0
 30 25  1  0  0  0  0
 31 26  1  6  0  0  0
 32 28  1  1  0  0  0
M  END
>  <MODEL>
1

>  <REMARK>
 VINA RESULT:      -8.2      0.000      0.000
  Name = 
  2 active torsions:
  status: ('A' for Active; 'I' for Inactive)
    1  A    between atoms: C_3  and  C_14
    2  A    between atoms: C_8  and  C_23
                            x       y       z     vdW  Elec       q    Type
                         _______ _______ _______ _____ _____    ______ ____

>  <TORSDO>
F 2

$$$$
=
 OpenBabel11062410543D

 32 39  0  0  1  0  0  0  0  0999 V2000
  160.6930  206.4590  150.0550 C   0  0  2  0  0  3  0  0  0  0  0  0
  160.7670  204.0340  153.0530 C   0  0  0  0  0  3  0  0  0  0  0  0
  161.0400  202.8480  152.3420 C   0  0  0  0  0  3  0  0  0  0  0  0
  160.8640  206.3240  147.4360 C   0  0  0  0  0  0  0  0  0  0  0  0
  161.0980  205.4360  146.3790 C   0  0  0  0  0  0  0  0  0  0  0  0
  161.4000  203.4510  145.3760 N   0  0  0  0  0  0  0  0  0  0  0  0
  160.6490  205.2600  152.3770 C   0  0  0  0  0  3  0  0  0  0  0  0
  160.8200  205.2760  150.9920 C   0  0  0  0  0  0  0  0  0  0  0  0
  161.1540  204.4200  148.8990 C   0  0  0  0  0  0  0  0  0  0  0  0
  161.2980  204.3230  144.3250 O   0  0  0  0  0  0  0  0  0  0  0  0
  160.9980  205.5980  144.9070 C   0  0  0  0  0  3  0  0  0  0  0  0
  161.1970  202.8740  150.9470 C   0  0  0  0  0  3  0  0  0  0  0  0
  161.0840  204.1040  150.3030 C   0  0  0  0  0  0  0  0  0  0  0  0
  161.3390  203.5700  147.8480 N   0  0  0  0  0  0  0  0  0  0  0  0
  160.5780  207.6650  147.2130 O   0  0  0  0  0  1  0  0  0  0  0  0
  160.8860  201.7960  145.2220 Cl  0  0  0  0  0  0  0  0  0  0  0  0
  160.9220  205.7820  148.7290 C   0  0  0  0  0  0  0  0  0  0  0  0
  161.3330  204.1260  146.6030 C   0  0  2  0  0  3  0  0  0  0  0  0
  162.4010  208.9550  152.3990 C   0  0  2  0  0  3  0  0  0  0  0  0
  161.2350  208.9180  149.8440 C   0  0  0  0  0  2  0  0  0  0  0  0
  162.2270  209.9700  150.2330 C   0  0  0  0  0  3  0  0  0  0  0  0
  161.7380  207.5540  150.3200 C   0  0  1  0  0  3  0  0  0  0  0  0
  162.7520  209.9590  151.4110 N   0  0  0  0  0  0  0  0  0  0  0  0
  162.2770  207.5550  151.7710 C   0  0  0  0  0  2  0  0  0  0  0  0
  160.3450  207.5970  157.0530 C   0  0  0  0  0  2  0  0  0  0  0  0
  161.2910  210.4530  153.8640 O   0  0  0  0  0  0  0  0  0  0  0  0
  160.3110  209.6140  155.7060 C   0  0  2  0  0  3  0  0  0  0  0  0
  160.2310  207.2020  155.6000 C   0  0  0  0  0  2  0  0  0  0  0  0
  161.2920  209.2270  154.5860 C   0  0  2  0  0  0  0  0  0  0  0  0
  160.7880  209.0390  157.0280 C   0  0  0  0  0  2  0  0  0  0  0  0
  161.1030  209.3260  153.1000 C   0  0  2  0  0  3  0  0  0  0  0  0
  159.9670  208.4820  154.8260 C   0  0  2  0  0  3  0  0  0  0  0  0
  1 17  1  6  0  0  0
  1 22  1  0  0  0  0
  1  8  1  0  0  0  0
  3  2  2  0  0  0  0
  4 17  2  0  0  0  0
  5  4  1  0  0  0  0
  6 18  1  0  0  0  0
  7  2  1  0  0  0  0
  8  7  2  0  0  0  0
  9 13  1  0  0  0  0
 10 11  1  0  0  0  0
 10  6  1  0  0  0  0
 11  5  2  0  0  0  0
 12  3  1  0  0  0  0
 13 12  2  0  0  0  0
 13  8  1  0  0  0  0
 14  9  2  0  0  0  0
 15  4  1  0  0  0  0
 16  6  1  0  0  0  0
 17  9  1  0  0  0  0
 18  5  1  6  0  0  0
 18 14  1  0  0  0  0
 19 24  1  6  0  0  0
 19 31  1  0  0  0  0
 20 21  1  0  0  0  0
 21 23  2  0  0  0  0
 22 20  1  1  0  0  0
 22 24  1  0  0  0  0
 23 19  1  0  0  0  0
 27 30  1  1  0  0  0
 28 25  1  0  0  0  0
 29 26  1  6  0  0  0
 29 32  1  0  0  0  0
 29 27  1  0  0  0  0
 30 25  1  0  0  0  0
 31 26  1  1  0  0  0
 31 29  1  0  0  0  0
 32 28  1  1  0  0  0
 32 27  1  0  0  0  0
M  END
>  <MODEL>
2

>  <REMARK>
 VINA RESULT:      -8.1      3.484      7.477
  Name = 
  2 active torsions:
  status: ('A' for Active; 'I' for Inactive)
    1  A    between atoms: C_3  and  C_14
    2  A    between atoms: C_8  and  C_23
                            x       y       z     vdW  Elec       q    Type
                         _______ _______ _______ _____ _____    ______ ____

>  <TORSDO>
F 2

$$$$
=
 OpenBabel11062410543D

 32 39  0  0  1  0  0  0  0  0999 V2000
  162.0770  206.8070  150.9000 C   0  0  2  0  0  3  0  0  0  0  0  0
  161.4360  203.0100  151.1150 C   0  0  0  0  0  3  0  0  0  0  0  0
  160.8310  202.9830  152.3870 C   0  0  0  0  0  3  0  0  0  0  0  0
  161.7980  208.9200  152.4390 C   0  0  1  0  0  3  0  0  0  0  0  0
  161.3020  209.3360  153.6790 C   0  0  0  0  0  0  0  0  0  0  0  0
  160.4420  209.1170  155.7410 N   0  0  0  0  0  0  0  0  0  0  0  0
  161.8620  204.2250  150.5530 C   0  0  0  0  0  3  0  0  0  0  0  0
  161.6610  205.4010  151.2790 C   0  0  0  0  0  0  0  0  0  0  0  0
  161.0460  206.7040  153.0520 C   0  0  0  0  0  0  0  0  0  0  0  0
  160.7460  210.4500  155.6670 O   0  0  0  0  0  0  0  0  0  0  0  0
  161.3980  210.6290  154.4030 C   0  0  0  0  0  3  0  0  0  0  0  0
  160.6450  204.1700  153.1130 C   0  0  0  0  0  3  0  0  0  0  0  0
  161.0690  205.3620  152.5290 C   0  0  0  0  0  0  0  0  0  0  0  0
  160.6060  207.1310  154.2710 N   0  0  0  0  0  0  0  0  0  0  0  0
  162.4310  209.8020  151.5720 O   0  0  0  0  0  1  0  0  0  0  0  0
  160.4830  208.2700  157.2610 Cl  0  0  0  0  0  0  0  0  0  0  0  0
  161.6340  207.5610  152.1260 C   0  0  0  0  0  0  0  0  0  0  0  0
  160.7260  208.4630  154.5330 C   0  0  0  0  0  0  0  0  0  0  0  0
  160.5290  206.2050  147.4530 C   0  0  2  0  0  3  0  0  0  0  0  0
  162.3860  207.9330  148.6590 C   0  0  0  0  0  2  0  0  0  0  0  0
  161.6810  208.3080  147.3930 C   0  0  0  0  0  3  0  0  0  0  0  0
  161.3770  207.3230  149.6330 C   0  0  1  0  0  3  0  0  0  0  0  0
  160.8280  207.4980  146.8640 N   0  0  0  0  0  0  0  0  0  0  0  0
  160.4270  206.2870  148.9860 C   0  0  0  0  0  2  0  0  0  0  0  0
  160.3200  201.0090  146.6260 C   0  0  0  0  0  2  0  0  0  0  0  0
  161.6440  205.0820  145.6860 O   0  0  0  0  0  0  0  0  0  0  0  0
  161.5810  202.8340  145.6460 C   0  0  2  0  0  3  0  0  0  0  0  0
  160.7030  201.9710  147.7240 C   0  0  0  0  0  2  0  0  0  0  0  0
  160.9240  204.0410  146.3370 C   0  0  2  0  0  0  0  0  0  0  0  0
  160.5320  201.7790  145.3450 C   0  0  0  0  0  2  0  0  0  0  0  0
  161.5820  205.1810  147.0560 C   0  0  2  0  0  3  0  0  0  0  0  0
  161.6880  202.9530  147.1110 C   0  0  2  0  0  3  0  0  0  0  0  0
  1  8  1  1  0  0  0
  1 17  1  0  0  0  0
  2  3  1  0  0  0  0
  3 12  2  0  0  0  0
  4 15  1  1  0  0  0
  4  5  1  0  0  0  0
  5 11  2  0  0  0  0
  5 18  1  0  0  0  0
  6 16  1  0  0  0  0
  7  2  2  0  0  0  0
  7  8  1  0  0  0  0
  8 13  2  0  0  0  0
  9 14  1  0  0  0  0
 10  6  1  0  0  0  0
 11 10  1  0  0  0  0
 13  9  1  0  0  0  0
 13 12  1  0  0  0  0
 14 18  2  0  0  0  0
 17  4  1  0  0  0  0
 17  9  2  0  0  0  0
 18  6  1  0  0  0  0
 19 24  1  1  0  0  0
 21 20  1  0  0  0  0
 22 20  1  6  0  0  0
 22  1  1  0  0  0  0
 23 21  2  0  0  0  0
 23 19  1  0  0  0  0
 24 22  1  0  0  0  0
 25 28  1  0  0  0  0
 27 30  1  1  0  0  0
 27 29  1  0  0  0  0
 27 32  1  0  0  0  0
 29 26  1  6  0  0  0
 29 31  1  0  0  0  0
 29 32  1  0  0  0  0
 30 25  1  0  0  0  0
 31 26  1  6  0  0  0
 31 19  1  0  0  0  0
 32 28  1  1  0  0  0
M  END
>  <MODEL>
3

>  <REMARK>
 VINA RESULT:      -8.1      2.205      2.781
  Name = 
  2 active torsions:
  status: ('A' for Active; 'I' for Inactive)
    1  A    between atoms: C_3  and  C_14
    2  A    between atoms: C_8  and  C_23
                            x       y       z     vdW  Elec       q    Type
                         _______ _______ _______ _____ _____    ______ ____

>  <TORSDO>
F 2

$$$$
=
 OpenBabel11062410543D

 32 39  0  0  1  0  0  0  0  0999 V2000
  160.7360  206.6170  149.7820 C   0  0  2  0  0  3  0  0  0  0  0  0
  160.8900  204.7280  153.1400 C   0  0  0  0  0  3  0  0  0  0  0  0
  161.1600  203.4420  152.6310 C   0  0  0  0  0  3  0  0  0  0  0  0
  160.8580  206.0480  147.2180 C   0  0  0  0  0  0  0  0  0  0  0  0
  161.0790  204.9970  146.3200 C   0  0  0  0  0  0  0  0  0  0  0  0
  161.3800  202.8740  145.6560 N   0  0  0  0  0  0  0  0  0  0  0  0
  160.7480  205.8230  152.2720 C   0  0  0  0  0  3  0  0  0  0  0  0
  160.8920  205.6080  150.8990 C   0  0  0  0  0  0  0  0  0  0  0  0
  161.1930  204.4170  148.9730 C   0  0  0  0  0  0  0  0  0  0  0  0
  161.2500  203.5580  144.4770 O   0  0  0  0  0  0  0  0  0  0  0  0
  160.9490  204.9100  144.8440 C   0  0  0  0  0  3  0  0  0  0  0  0
  161.2900  203.2360  151.2490 C   0  0  0  0  0  3  0  0  0  0  0  0
  161.1530  204.3400  150.4110 C   0  0  0  0  0  0  0  0  0  0  0  0
  161.3660  203.4050  148.0750 N   0  0  0  0  0  0  0  0  0  0  0  0
  160.5550  207.3310  146.7800 O   0  0  0  0  0  1  0  0  0  0  0  0
  160.8780  201.2140  145.7910 Cl  0  0  0  0  0  0  0  0  0  0  0  0
  160.9450  205.7300  148.5820 C   0  0  0  0  0  0  0  0  0  0  0  0
  161.3300  203.7450  146.7550 C   0  0  2  0  0  3  0  0  0  0  0  0
  162.3410  209.5990  151.5640 C   0  0  2  0  0  3  0  0  0  0  0  0
  161.3120  208.9610  149.0300 C   0  0  0  0  0  2  0  0  0  0  0  0
  162.2910  210.0770  149.2150 C   0  0  0  0  0  3  0  0  0  0  0  0
  161.7750  207.7480  149.8380 C   0  0  1  0  0  3  0  0  0  0  0  0
  162.7530  210.3440  150.3890 N   0  0  0  0  0  0  0  0  0  0  0  0
  162.2380  208.0910  151.2750 C   0  0  0  0  0  2  0  0  0  0  0  0
  160.4680  210.3400  156.4290 C   0  0  0  0  0  2  0  0  0  0  0  0
  161.0720  211.4840  152.2400 O   0  0  0  0  0  0  0  0  0  0  0  0
  160.2000  211.4940  154.3130 C   0  0  2  0  0  3  0  0  0  0  0  0
  160.3950  209.3110  155.3270 C   0  0  0  0  0  2  0  0  0  0  0  0
  161.2150  210.7350  153.4420 C   0  0  2  0  0  0  0  0  0  0  0  0
  160.7430  211.6450  155.7230 C   0  0  0  0  0  2  0  0  0  0  0  0
  161.0120  210.1190  152.0890 C   0  0  2  0  0  3  0  0  0  0  0  0
  159.9850  210.0570  154.0690 C   0  0  2  0  0  3  0  0  0  0  0  0
  1 17  1  6  0  0  0
  1 22  1  0  0  0  0
  1  8  1  0  0  0  0
  3  2  1  0  0  0  0
  4 17  2  0  0  0  0
  5  4  1  0  0  0  0
  6 16  1  0  0  0  0
  6 18  1  0  0  0  0
  7  2  2  0  0  0  0
  8  7  1  0  0  0  0
  9 13  1  0  0  0  0
 10 11  1  0  0  0  0
 10  6  1  0  0  0  0
 11  5  2  0  0  0  0
 12  3  2  0  0  0  0
 13  8  2  0  0  0  0
 13 12  1  0  0  0  0
 14  9  2  0  0  0  0
 15  4  1  0  0  0  0
 17  9  1  0  0  0  0
 18  5  1  1  0  0  0
 18 14  1  0  0  0  0
 19 24  1  6  0  0  0
 19 31  1  0  0  0  0
 20 21  1  0  0  0  0
 21 23  2  0  0  0  0
 22 20  1  1  0  0  0
 22 24  1  0  0  0  0
 23 19  1  0  0  0  0
 27 30  1  1  0  0  0
 28 25  1  0  0  0  0
 29 26  1  6  0  0  0
 29 32  1  0  0  0  0
 29 27  1  0  0  0  0
 30 25  1  0  0  0  0
 31 26  1  6  0  0  0
 31 29  1  0  0  0  0
 32 27  1  0  0  0  0
 32 28  1  1  0  0  0
M  END
>  <MODEL>
4

>  <REMARK>
 VINA RESULT:      -8.0      3.429      7.768
  Name = 
  2 active torsions:
  status: ('A' for Active; 'I' for Inactive)
    1  A    between atoms: C_3  and  C_14
    2  A    between atoms: C_8  and  C_23
                            x       y       z     vdW  Elec       q    Type
                         _______ _______ _______ _____ _____    ______ ____

>  <TORSDO>
F 2

$$$$
=
 OpenBabel11062410543D

 32 39  0  0  1  0  0  0  0  0999 V2000
  161.9990  208.2400  152.2920 C   0  0  2  0  0  3  0  0  0  0  0  0
  162.2910  211.1210  149.7450 C   0  0  0  0  0  3  0  0  0  0  0  0
  161.9600  210.3940  148.5840 C   0  0  0  0  0  3  0  0  0  0  0  0
  161.5440  205.6520  152.2610 C   0  0  0  0  0  0  0  0  0  0  0  0
  161.2100  204.5890  151.4130 C   0  0  0  0  0  0  0  0  0  0  0  0
  160.8300  203.5400  149.4650 N   0  0  0  0  0  0  0  0  0  0  0  0
  162.3150  210.4900  151.0000 C   0  0  0  0  0  3  0  0  0  0  0  0
  161.9930  209.1330  151.0690 C   0  0  0  0  0  0  0  0  0  0  0  0
  161.4460  207.0550  150.2930 C   0  0  0  0  0  0  0  0  0  0  0  0
  160.8030  202.5230  150.3820 O   0  0  0  0  0  0  0  0  0  0  0  0
  161.1450  203.1230  151.6370 C   0  0  0  0  0  3  0  0  0  0  0  0
  161.6500  209.0270  148.6650 C   0  0  0  0  0  3  0  0  0  0  0  0
  161.6740  208.4280  149.9220 C   0  0  0  0  0  0  0  0  0  0  0  0
  161.1590  205.9940  149.4840 N   0  0  0  0  0  0  0  0  0  0  0  0
  161.7830  205.4570  153.6160 O   0  0  0  0  0  1  0  0  0  0  0  0
  161.3500  203.2610  147.8280 Cl  0  0  0  0  0  0  0  0  0  0  0  0
  161.6360  206.9190  151.6660 C   0  0  0  0  0  0  0  0  0  0  0  0
  161.0210  204.7810  150.0900 C   0  0  2  0  0  3  0  0  0  0  0  0
  159.2280  210.5760  153.5220 C   0  0  2  0  0  3  0  0  0  0  0  0
  161.6370  209.4800  154.4650 C   0  0  0  0  0  2  0  0  0  0  0  0
  160.5850  209.9750  155.4070 C   0  0  0  0  0  3  0  0  0  0  0  0
  160.9720  208.6640  153.3540 C   0  0  1  0  0  3  0  0  0  0  0  0
  159.4850  210.4670  154.9470 N   0  0  0  0  0  0  0  0  0  0  0  0
  159.7060  209.3270  152.7600 C   0  0  0  0  0  2  0  0  0  0  0  0
  157.9790  213.7880  149.5420 C   0  0  0  0  0  2  0  0  0  0  0  0
  159.4220  212.9380  153.5940 O   0  0  0  0  0  0  0  0  0  0  0  0
  159.0260  214.0970  151.7070 C   0  0  2  0  0  3  0  0  0  0  0  0
  158.8820  212.6090  149.8100 C   0  0  0  0  0  2  0  0  0  0  0  0
  158.8580  212.6920  152.3100 C   0  0  2  0  0  0  0  0  0  0  0  0
  157.8010  214.4530  150.8840 C   0  0  0  0  0  2  0  0  0  0  0  0
  159.8950  211.8180  152.9520 C   0  0  2  0  0  3  0  0  0  0  0  0
  159.6930  212.9610  151.0460 C   0  0  2  0  0  3  0  0  0  0  0  0
  1  8  1  6  0  0  0
  1 22  1  0  0  0  0
  2  7  1  0  0  0  0
  3 12  1  0  0  0  0
  3  2  2  0  0  0  0
  4 15  1  0  0  0  0
  5 11  2  0  0  0  0
  5  4  1  0  0  0  0
  6 18  1  0  0  0  0
  6 10  1  0  0  0  0
  7  8  2  0  0  0  0
  9 17  1  0  0  0  0
 10 11  1  0  0  0  0
 12 13  2  0  0  0  0
 13  9  1  0  0  0  0
 13  8  1  0  0  0  0
 14  9  2  0  0  0  0
 16  6  1  0  0  0  0
 17  4  2  0  0  0  0
 17  1  1  0  0  0  0
 18 14  1  6  0  0  0
 18  5  1  0  0  0  0
 19 24  1  6  0  0  0
 19 23  1  0  0  0  0
 20 21  1  0  0  0  0
 22 24  1  6  0  0  0
 22 20  1  0  0  0  0
 23 21  2  0  0  0  0
 25 28  1  0  0  0  0
 25 30  1  0  0  0  0
 27 30  1  6  0  0  0
 27 29  1  0  0  0  0
 29 31  1  0  0  0  0
 29 26  1  1  0  0  0
 31 19  1  0  0  0  0
 31 26  1  1  0  0  0
 32 28  1  6  0  0  0
 32 27  1  0  0  0  0
 32 29  1  0  0  0  0
M  END
>  <MODEL>
5

>  <REMARK>
 VINA RESULT:      -7.5      3.007      8.314
  Name = 
  2 active torsions:
  status: ('A' for Active; 'I' for Inactive)
    1  A    between atoms: C_3  and  C_14
    2  A    between atoms: C_8  and  C_23
                            x       y       z     vdW  Elec       q    Type
                         _______ _______ _______ _____ _____    ______ ____

>  <TORSDO>
F 2

$$$$
=
 OpenBabel11062410543D

 32 39  0  0  1  0  0  0  0  0999 V2000
  162.0060  206.7320  151.7990 C   0  0  2  0  0  3  0  0  0  0  0  0
  162.3410  210.3390  150.4770 C   0  0  0  0  0  3  0  0  0  0  0  0
  162.0320  210.0840  149.1250 C   0  0  0  0  0  3  0  0  0  0  0  0
  161.5560  204.3330  150.8230 C   0  0  0  0  0  0  0  0  0  0  0  0
  161.2400  203.6530  149.6420 C   0  0  0  0  0  0  0  0  0  0  0  0
  160.8980  203.3830  147.4400 N   0  0  0  0  0  0  0  0  0  0  0  0
  162.3420  209.2960  151.4180 C   0  0  0  0  0  3  0  0  0  0  0  0
  162.0220  208.0080  150.9840 C   0  0  0  0  0  0  0  0  0  0  0  0
  161.4920  206.3550  149.4970 C   0  0  0  0  0  0  0  0  0  0  0  0
  160.8560  202.1030  147.9240 O   0  0  0  0  0  0  0  0  0  0  0  0
  161.1740  202.2050  149.3180 C   0  0  0  0  0  3  0  0  0  0  0  0
  161.7240  208.7830  148.6990 C   0  0  0  0  0  3  0  0  0  0  0  0
  161.7250  207.7680  149.6530 C   0  0  0  0  0  0  0  0  0  0  0  0
  161.2230  205.6620  148.3530 N   0  0  0  0  0  0  0  0  0  0  0  0
  161.7710  203.6590  152.0190 O   0  0  0  0  0  1  0  0  0  0  0  0
  161.4490  203.7140  145.8230 Cl  0  0  0  0  0  0  0  0  0  0  0  0
  161.6580  205.7300  150.7300 C   0  0  0  0  0  0  0  0  0  0  0  0
  161.0750  204.3120  148.4760 C   0  0  2  0  0  3  0  0  0  0  0  0
  159.8450  208.6180  154.3320 C   0  0  2  0  0  3  0  0  0  0  0  0
  161.6020  206.4270  154.2760 C   0  0  0  0  0  2  0  0  0  0  0  0
  160.5750  206.5740  155.3550 C   0  0  0  0  0  3  0  0  0  0  0  0
  160.9590  206.7470  152.9250 C   0  0  1  0  0  3  0  0  0  0  0  0
  159.7760  207.5870  155.3530 N   0  0  0  0  0  0  0  0  0  0  0  0
  160.0800  208.0210  152.9340 C   0  0  0  0  0  2  0  0  0  0  0  0
  159.7370  213.5130  156.2680 C   0  0  0  0  0  2  0  0  0  0  0  0
  161.3560  209.4510  155.9580 O   0  0  0  0  0  0  0  0  0  0  0  0
  161.2530  211.6340  156.4890 C   0  0  2  0  0  3  0  0  0  0  0  0
  159.8420  212.8220  154.9310 C   0  0  0  0  0  2  0  0  0  0  0  0
  160.4670  210.5410  155.7460 C   0  0  2  0  0  0  0  0  0  0  0  0
  160.2950  212.5230  157.2610 C   0  0  0  0  0  2  0  0  0  0  0  0
  160.9400  209.6210  154.6590 C   0  0  2  0  0  3  0  0  0  0  0  0
  160.9750  211.8170  155.0540 C   0  0  2  0  0  3  0  0  0  0  0  0
  1 17  1  6  0  0  0
  1 22  1  0  0  0  0
  2  7  1  0  0  0  0
  3  2  2  0  0  0  0
  4 15  1  0  0  0  0
  5  4  1  0  0  0  0
  6 10  1  0  0  0  0
  6 18  1  0  0  0  0
  8  7  2  0  0  0  0
  8  1  1  0  0  0  0
  9 13  1  0  0  0  0
  9 17  1  0  0  0  0
 10 11  1  0  0  0  0
 11  5  2  0  0  0  0
 12  3  1  0  0  0  0
 12 13  2  0  0  0  0
 13  8  1  0  0  0  0
 14  9  2  0  0  0  0
 16  6  1  0  0  0  0
 17  4  2  0  0  0  0
 18 14  1  6  0  0  0
 18  5  1  0  0  0  0
 19 24  1  6  0  0  0
 19 31  1  0  0  0  0
 19 23  1  0  0  0  0
 20 21  1  0  0  0  0
 22 24  1  1  0  0  0
 22 20  1  0  0  0  0
 23 21  2  0  0  0  0
 25 30  1  0  0  0  0
 27 30  1  1  0  0  0
 28 25  1  0  0  0  0
 29 26  1  6  0  0  0
 29 27  1  0  0  0  0
 31 29  1  0  0  0  0
 31 26  1  1  0  0  0
 32 28  1  1  0  0  0
 32 29  1  0  0  0  0
 32 27  1  0  0  0  0
M  END
>  <MODEL>
6

>  <REMARK>
 VINA RESULT:      -6.5      3.335      8.579
  Name = 
  2 active torsions:
  status: ('A' for Active; 'I' for Inactive)
    1  A    between atoms: C_3  and  C_14
    2  A    between atoms: C_8  and  C_23
                            x       y       z     vdW  Elec       q    Type
                         _______ _______ _______ _____ _____    ______ ____

>  <TORSDO>
F 2

$$$$
=
 OpenBabel11062410543D

 32 39  0  0  1  0  0  0  0  0999 V2000
  160.5880  206.9860  151.8580 C   0  0  2  0  0  3  0  0  0  0  0  0
  161.7480  208.7160  148.6130 C   0  0  0  0  0  3  0  0  0  0  0  0
  162.2660  209.8930  149.1900 C   0  0  0  0  0  3  0  0  0  0  0  0
  160.4600  207.5420  154.4240 C   0  0  1  0  0  3  0  0  0  0  0  0
  160.8080  208.5110  155.3720 C   0  0  0  0  0  0  0  0  0  0  0  0
  161.5520  210.4890  156.1300 N   0  0  0  0  0  0  0  0  0  0  0  0
  161.1910  207.7100  149.4200 C   0  0  0  0  0  3  0  0  0  0  0  0
  161.1740  207.9010  150.8040 C   0  0  0  0  0  0  0  0  0  0  0  0
  161.4780  209.0000  152.7840 C   0  0  0  0  0  0  0  0  0  0  0  0
  161.0670  209.8820  157.2570 O   0  0  0  0  0  0  0  0  0  0  0  0
  160.4810  208.6510  156.8130 C   0  0  0  0  0  3  0  0  0  0  0  0
  162.2310  210.0780  150.5810 C   0  0  0  0  0  3  0  0  0  0  0  0
  161.6810  209.0630  151.3590 C   0  0  0  0  0  0  0  0  0  0  0  0
  161.7710  209.9440  153.7240 N   0  0  0  0  0  0  0  0  0  0  0  0
  159.7660  206.3910  154.7770 O   0  0  0  0  0  1  0  0  0  0  0  0
  161.5320  212.2210  155.9630 Cl  0  0  0  0  0  0  0  0  0  0  0  0
  160.8360  207.8050  153.0980 C   0  0  0  0  0  0  0  0  0  0  0  0
  161.4450  209.6460  155.0140 C   0  0  0  0  0  0  0  0  0  0  0  0
  162.1630  203.9400  150.1590 C   0  0  2  0  0  3  0  0  0  0  0  0
  160.2790  204.4960  152.1670 C   0  0  0  0  0  2  0  0  0  0  0  0
  160.9870  203.1790  152.1060 C   0  0  0  0  0  3  0  0  0  0  0  0
  161.2890  205.6200  151.9310 C   0  0  1  0  0  3  0  0  0  0  0  0
  161.8530  202.9530  151.1780 N   0  0  0  0  0  0  0  0  0  0  0  0
  162.2550  205.3580  150.7500 C   0  0  0  0  0  2  0  0  0  0  0  0
  162.2810  205.4540  145.1180 C   0  0  0  0  0  2  0  0  0  0  0  0
  161.2070  202.7150  148.3680 O   0  0  0  0  0  0  0  0  0  0  0  0
  161.1970  203.6510  146.3230 C   0  0  2  0  0  3  0  0  0  0  0  0
  161.8150  205.9820  146.4530 C   0  0  0  0  0  2  0  0  0  0  0  0
  161.8170  203.8260  147.7190 C   0  0  2  0  0  0  0  0  0  0  0  0
  162.2360  203.9530  145.2580 C   0  0  0  0  0  2  0  0  0  0  0  0
  161.1250  203.9070  149.0480 C   0  0  2  0  0  3  0  0  0  0  0  0
  160.9370  204.9010  147.0600 C   0  0  2  0  0  3  0  0  0  0  0  0
  1  8  1  6  0  0  0
  1 22  1  0  0  0  0
  1 17  1  0  0  0  0
  2  3  2  0  0  0  0
  2  7  1  0  0  0  0
  3 12  1  0  0  0  0
  4 15  1  6  0  0  0
  4  5  1  0  0  0  0
  5 11  2  0  0  0  0
  6 10  1  0  0  0  0
  7  8  2  0  0  0  0
  8 13  1  0  0  0  0
  9 17  2  0  0  0  0
  9 14  1  0  0  0  0
 11 10  1  0  0  0  0
 12 13  2  0  0  0  0
 13  9  1  0  0  0  0
 14 18  2  0  0  0  0
 16  6  1  0  0  0  0
 17  4  1  0  0  0  0
 18  5  1  0  0  0  0
 18  6  1  0  0  0  0
 19 24  1  1  0  0  0
 19 23  1  0  0  0  0
 21 20  1  0  0  0  0
 22 24  1  6  0  0  0
 22 20  1  0  0  0  0
 23 21  2  0  0  0  0
 25 30  1  0  0  0  0
 25 28  1  0  0  0  0
 27 30  1  6  0  0  0
 27 32  1  0  0  0  0
 27 29  1  0  0  0  0
 29 26  1  6  0  0  0
 29 31  1  0  0  0  0
 31 26  1  1  0  0  0
 31 19  1  0  0  0  0
 32 28  1  6  0  0  0
 32 29  1  0  0  0  0
M  END
>  <MODEL>
7

>  <REMARK>
 VINA RESULT:      -6.3      2.664      4.387
  Name = 
  2 active torsions:
  status: ('A' for Active; 'I' for Inactive)
    1  A    between atoms: C_3  and  C_14
    2  A    between atoms: C_8  and  C_23
                            x       y       z     vdW  Elec       q    Type
                         _______ _______ _______ _____ _____    ______ ____

>  <TORSDO>
F 2

$$$$
=
 OpenBabel11062410543D

 32 39  0  0  1  0  0  0  0  0999 V2000
  160.7560  207.4510  150.1390 C   0  0  2  0  0  3  0  0  0  0  0  0
  160.8640  206.7160  153.9240 C   0  0  0  0  0  3  0  0  0  0  0  0
  161.1840  205.3450  153.8500 C   0  0  0  0  0  3  0  0  0  0  0  0
  160.9680  206.1110  147.8880 C   0  0  1  0  0  3  0  0  0  0  0  0
  161.2440  204.8400  147.3700 C   0  0  0  0  0  0  0  0  0  0  0  0
  161.6230  202.6280  147.4120 N   0  0  0  0  0  0  0  0  0  0  0  0
  160.7170  207.4780  152.7530 C   0  0  0  0  0  3  0  0  0  0  0  0
  160.9070  206.8490  151.5200 C   0  0  0  0  0  0  0  0  0  0  0  0
  161.2970  205.1250  150.0720 C   0  0  0  0  0  0  0  0  0  0  0  0
  161.5080  202.9030  146.0750 O   0  0  0  0  0  0  0  0  0  0  0  0
  161.1600  204.2900  145.9930 C   0  0  0  0  0  3  0  0  0  0  0  0
  161.3600  204.7210  152.6050 C   0  0  0  0  0  3  0  0  0  0  0  0
  161.2170  205.5010  151.4600 C   0  0  0  0  0  0  0  0  0  0  0  0
  161.5230  203.8890  149.5410 N   0  0  0  0  0  0  0  0  0  0  0  0
  160.6430  207.1810  147.0630 O   0  0  0  0  0  1  0  0  0  0  0  0
  161.1630  201.0770  148.0530 Cl  0  0  0  0  0  0  0  0  0  0  0  0
  161.0250  206.2400  149.2840 C   0  0  0  0  0  0  0  0  0  0  0  0
  161.5170  203.7970  148.1810 C   0  0  0  0  0  0  0  0  0  0  0  0
  162.0410  211.0090  150.7170 C   0  0  2  0  0  3  0  0  0  0  0  0
  161.4110  209.3160  148.5650 C   0  0  0  0  0  2  0  0  0  0  0  0
  162.3390  210.4790  148.3960 C   0  0  0  0  0  3  0  0  0  0  0  0
  161.7620  208.5780  149.8580 C   0  0  1  0  0  3  0  0  0  0  0  0
  162.6160  211.2360  149.4030 N   0  0  0  0  0  0  0  0  0  0  0  0
  161.9990  209.5110  151.0700 C   0  0  0  0  0  2  0  0  0  0  0  0
  158.7040  211.7500  154.7220 C   0  0  0  0  0  2  0  0  0  0  0  0
  160.7190  212.9540  151.0190 O   0  0  0  0  0  0  0  0  0  0  0  0
  159.2120  212.9690  152.6880 C   0  0  2  0  0  3  0  0  0  0  0  0
  158.9460  210.7540  153.6130 C   0  0  0  0  0  2  0  0  0  0  0  0
  160.4170  212.1690  152.1670 C   0  0  2  0  0  0  0  0  0  0  0  0
  159.2650  213.0510  154.2040 C   0  0  0  0  0  2  0  0  0  0  0  0
  160.6410  211.6000  150.7970 C   0  0  2  0  0  3  0  0  0  0  0  0
  159.0150  211.5550  152.3240 C   0  0  2  0  0  3  0  0  0  0  0  0
  1 17  1  6  0  0  0
  1  8  1  0  0  0  0
  3  2  1  0  0  0  0
  4 15  1  1  0  0  0
  4 17  1  0  0  0  0
  5  4  1  0  0  0  0
  5 18  1  0  0  0  0
  6 16  1  0  0  0  0
  6 18  1  0  0  0  0
  7  2  2  0  0  0  0
  8  7  1  0  0  0  0
  9 13  1  0  0  0  0
 10  6  1  0  0  0  0
 11 10  1  0  0  0  0
 11  5  2  0  0  0  0
 12  3  2  0  0  0  0
 13  8  2  0  0  0  0
 13 12  1  0  0  0  0
 14  9  1  0  0  0  0
 17  9  2  0  0  0  0
 18 14  2  0  0  0  0
 19 31  1  0  0  0  0
 19 24  1  6  0  0  0
 21 20  1  0  0  0  0
 21 23  2  0  0  0  0
 22 20  1  6  0  0  0
 22  1  1  0  0  0  0
 22 24  1  0  0  0  0
 23 19  1  0  0  0  0
 27 30  1  1  0  0  0
 28 25  1  0  0  0  0
 29 26  1  6  0  0  0
 29 32  1  0  0  0  0
 29 27  1  0  0  0  0
 30 25  1  0  0  0  0
 31 26  1  6  0  0  0
 31 29  1  0  0  0  0
 32 27  1  0  0  0  0
 32 28  1  1  0  0  0
M  END
>  <MODEL>
8

>  <REMARK>
 VINA RESULT:      -6.3      3.200      7.689
  Name = 
  2 active torsions:
  status: ('A' for Active; 'I' for Inactive)
    1  A    between atoms: C_3  and  C_14
    2  A    between atoms: C_8  and  C_23
                            x       y       z     vdW  Elec       q    Type
                         _______ _______ _______ _____ _____    ______ ____

>  <TORSDO>
F 2

$$$$
=
 OpenBabel11062410543D

 32 39  0  0  1  0  0  0  0  0999 V2000
  160.2110  209.0280  153.6120 C   0  0  2  0  0  3  0  0  0  0  0  0
  161.7750  205.5730  152.9160 C   0  0  0  0  0  3  0  0  0  0  0  0
  162.4480  205.8970  151.7220 C   0  0  0  0  0  3  0  0  0  0  0  0
  160.0600  211.3720  152.4310 C   0  0  0  0  0  0  0  0  0  0  0  0
  160.5160  212.0910  151.3200 C   0  0  0  0  0  0  0  0  0  0  0  0
  161.5320  212.4190  149.3450 N   0  0  0  0  0  0  0  0  0  0  0  0
  161.0300  206.5460  153.6020 C   0  0  0  0  0  3  0  0  0  0  0  0
  160.9820  207.8400  153.0780 C   0  0  0  0  0  0  0  0  0  0  0  0
  161.3700  209.5230  151.5820 C   0  0  0  0  0  0  0  0  0  0  0  0
  160.9060  213.6140  149.5810 O   0  0  0  0  0  0  0  0  0  0  0  0
  160.1520  213.4260  150.7840 C   0  0  0  0  0  3  0  0  0  0  0  0
  162.3820  207.1980  151.1980 C   0  0  0  0  0  3  0  0  0  0  0  0
  161.6430  208.1450  151.9010 C   0  0  0  0  0  0  0  0  0  0  0  0
  161.7670  210.2350  150.4890 N   0  0  0  0  0  0  0  0  0  0  0  0
  159.1760  211.9280  153.3470 O   0  0  0  0  0  1  0  0  0  0  0  0
  161.7960  211.8480  147.7230 Cl  0  0  0  0  0  0  0  0  0  0  0  0
  160.5320  210.0560  152.5590 C   0  0  0  0  0  0  0  0  0  0  0  0
  161.3410  211.5280  150.4120 C   0  0  2  0  0  3  0  0  0  0  0  0
  159.7740  211.1510  156.7660 C   0  0  2  0  0  3  0  0  0  0  0  0
  161.7800  210.5370  154.8970 C   0  0  0  0  0  2  0  0  0  0  0  0
  162.1180  211.0330  156.2680 C   0  0  0  0  0  3  0  0  0  0  0  0
  160.6810  209.4780  155.0040 C   0  0  1  0  0  3  0  0  0  0  0  0
  161.1770  211.3010  157.1090 N   0  0  0  0  0  0  0  0  0  0  0  0
  159.5210  209.8700  155.9510 C   0  0  0  0  0  2  0  0  0  0  0  0
  155.1100  213.5850  156.5470 C   0  0  0  0  0  2  0  0  0  0  0  0
  159.4900  213.5050  156.7310 O   0  0  0  0  0  0  0  0  0  0  0  0
  157.4170  214.3230  156.4280 C   0  0  2  0  0  3  0  0  0  0  0  0
  155.9000  212.5670  155.7600 C   0  0  0  0  0  2  0  0  0  0  0  0
  158.1550  213.0120  156.7450 C   0  0  2  0  0  0  0  0  0  0  0  0
  156.1500  214.4140  157.2590 C   0  0  0  0  0  2  0  0  0  0  0  0
  159.2800  212.3640  155.9930 C   0  0  2  0  0  3  0  0  0  0  0  0
  157.2640  213.1850  155.5040 C   0  0  2  0  0  3  0  0  0  0  0  0
  1 17  1  6  0  0  0
  1 22  1  0  0  0  0
  2  7  1  0  0  0  0
  3  2  2  0  0  0  0
  4 17  2  0  0  0  0
  4 15  1  0  0  0  0
  5  4  1  0  0  0  0
  6 10  1  0  0  0  0
  6 18  1  0  0  0  0
  8  7  2  0  0  0  0
  8  1  1  0  0  0  0
  9 13  1  0  0  0  0
  9 17  1  0  0  0  0
 10 11  1  0  0  0  0
 11  5  2  0  0  0  0
 12  3  1  0  0  0  0
 12 13  2  0  0  0  0
 13  8  1  0  0  0  0
 14  9  2  0  0  0  0
 16  6  1  0  0  0  0
 18 14  1  6  0  0  0
 18  5  1  0  0  0  0
 19 24  1  6  0  0  0
 19 23  1  0  0  0  0
 20 21  1  0  0  0  0
 21 23  2  0  0  0  0
 22 20  1  6  0  0  0
 22 24  1  0  0  0  0
 25 30  1  0  0  0  0
 27 29  1  0  0  0  0
 27 30  1  1  0  0  0
 28 25  1  0  0  0  0
 29 26  1  6  0  0  0
 31 26  1  1  0  0  0
 31 29  1  0  0  0  0
 31 19  1  0  0  0  0
 32 28  1  1  0  0  0
 32 27  1  0  0  0  0
 32 29  1  0  0  0  0
M  END
>  <MODEL>
9

>  <REMARK>
 VINA RESULT:      -5.8      3.735      8.222
  Name = 
  2 active torsions:
  status: ('A' for Active; 'I' for Inactive)
    1  A    between atoms: C_3  and  C_14
    2  A    between atoms: C_8  and  C_23
                            x       y       z     vdW  Elec       q    Type
                         _______ _______ _______ _____ _____    ______ ____

>  <TORSDO>
F 2

$$$$
