=
 OpenBabel11052423093D

 27 31  0  0  1  0  0  0  0  0999 V2000
  160.4330  207.9990  153.1740 C   0  0  0  0  0  2  0  0  0  0  0  0
  160.6570  210.3780  152.4870 C   0  0  0  0  0  0  0  0  0  0  0  0
  162.4600  209.4850  150.9430 C   0  0  0  0  0  2  0  0  0  0  0  0
  159.8810  213.3220  149.6640 O   0  0  0  0  0  0  0  0  0  0  0  0
  160.8990  213.6250  147.5930 O   0  0  0  0  0  0  0  0  0  0  0  0
  159.6410  211.3140  152.7730 C   0  0  0  0  0  3  0  0  0  0  0  0
  161.6630  211.8220  149.0520 C   0  0  1  0  0  3  0  0  0  0  0  0
  161.1440  207.2530  148.2600 C   0  0  0  0  0  3  0  0  0  0  0  0
  163.1060  212.2720  149.2150 C   0  0  0  0  0  1  0  0  0  0  0  0
  160.6680  206.1480  148.9680 C   0  0  0  0  0  3  0  0  0  0  0  0
  161.0670  211.5090  150.3920 C   0  0  0  0  0  0  0  0  0  0  0  0
  160.9430  209.3430  153.4390 N   0  0  0  0  0  0  0  0  0  0  0  0
  160.8090  212.9980  148.6810 C   0  0  0  0  0  0  0  0  0  0  0  0
  160.0580  212.4050  150.6810 C   0  0  0  0  0  0  0  0  0  0  0  0
  161.5050  207.1410  152.5170 C   0  0  0  0  0  2  0  0  0  0  0  0
  161.3900  210.4750  151.2810 C   0  0  0  0  0  0  0  0  0  0  0  0
  161.7210  208.2900  148.9230 N   0  0  0  0  0  0  0  0  0  0  0  0
  159.3310  212.3370  151.8650 C   0  0  0  0  0  3  0  0  0  0  0  0
  160.7930  206.1240  150.3570 C   0  0  0  0  0  3  0  0  0  0  0  0
  161.3920  207.1940  151.0270 C   0  0  0  0  0  0  0  0  0  0  0  0
  161.8620  208.2900  150.2770 C   0  0  0  0  0  0  0  0  0  0  0  0
  163.1250  210.1700  156.9550 N   0  0  0  0  0  0  0  0  0  0  0  0
  161.6920  209.6230  154.6410 C   0  0  0  0  0  0  0  0  0  0  0  0
  161.4970  208.8580  155.8010 C   0  0  0  0  0  3  0  0  0  0  0  0
  162.2280  209.1480  156.9550 C   0  0  0  0  0  3  0  0  0  0  0  0
  163.3360  210.9300  155.8480 C   0  0  0  0  0  3  0  0  0  0  0  0
  162.6240  210.6710  154.6740 C   0  0  0  0  0  3  0  0  0  0  0  0
  1 12  1  0  0  0  0
  2  6  1  0  0  0  0
  2 12  1  0  0  0  0
  3 16  1  0  0  0  0
  4 14  1  0  0  0  0
  5 13  2  0  0  0  0
  7  9  1  1  0  0  0
  7 11  1  0  0  0  0
  8 17  2  0  0  0  0
  8 10  1  0  0  0  0
 10 19  2  0  0  0  0
 11 14  2  0  0  0  0
 11 16  1  0  0  0  0
 12 23  1  0  0  0  0
 13  7  1  0  0  0  0
 13  4  1  0  0  0  0
 14 18  1  0  0  0  0
 15  1  1  0  0  0  0
 16  2  2  0  0  0  0
 17 21  1  0  0  0  0
 18  6  2  0  0  0  0
 19 20  1  0  0  0  0
 20 15  1  0  0  0  0
 21  3  1  0  0  0  0
 21 20  2  0  0  0  0
 22 25  1  0  0  0  0
 23 27  2  0  0  0  0
 23 24  1  0  0  0  0
 24 25  2  0  0  0  0
 26 22  2  0  0  0  0
 27 26  1  0  0  0  0
M  END
>  <MODEL>
1

>  <REMARK>
 VINA RESULT:      -5.0      0.000      0.000
  Name = 
  1 active torsions:
  status: ('A' for Active; 'I' for Inactive)
    1  A    between atoms: C_9  and  N_15
                            x       y       z     vdW  Elec       q    Type
                         _______ _______ _______ _____ _____    ______ ____

>  <TORSDO>
F 1

$$$$
=
 OpenBabel11052423093D

 27 31  0  0  1  0  0  0  0  0999 V2000
  160.5650  208.7680  153.2710 C   0  0  0  0  0  2  0  0  0  0  0  0
  159.9000  211.0700  152.6090 C   0  0  0  0  0  0  0  0  0  0  0  0
  162.0000  210.9810  151.1890 C   0  0  0  0  0  2  0  0  0  0  0  0
  158.2280  213.5710  149.7470 O   0  0  0  0  0  0  0  0  0  0  0  0
  159.1780  214.3010  147.7520 O   0  0  0  0  0  0  0  0  0  0  0  0
  158.5860  211.5360  152.8260 C   0  0  0  0  0  3  0  0  0  0  0  0
  160.4850  212.8880  149.2540 C   0  0  1  0  0  3  0  0  0  0  0  0
  161.8130  208.4940  148.4160 C   0  0  0  0  0  3  0  0  0  0  0  0
  161.6300  213.8520  149.5170 C   0  0  0  0  0  1  0  0  0  0  0  0
  161.7550  207.2710  149.0860 C   0  0  0  0  0  3  0  0  0  0  0  0
  159.9730  212.3320  150.5490 C   0  0  0  0  0  0  0  0  0  0  0  0
  160.5010  210.1960  153.5750 N   0  0  0  0  0  0  0  0  0  0  0  0
  159.2680  213.6560  148.8290 C   0  0  0  0  0  0  0  0  0  0  0  0
  158.6810  212.7630  150.7710 C   0  0  0  0  0  0  0  0  0  0  0  0
  161.9230  208.4060  152.6880 C   0  0  0  0  0  2  0  0  0  0  0  0
  160.6120  211.4750  151.4560 C   0  0  0  0  0  0  0  0  0  0  0  0
  161.9030  209.6530  149.1200 N   0  0  0  0  0  0  0  0  0  0  0  0
  157.9640  212.3880  151.9020 C   0  0  0  0  0  3  0  0  0  0  0  0
  161.7920  207.2570  150.4810 C   0  0  0  0  0  3  0  0  0  0  0  0
  161.8920  208.4550  151.1930 C   0  0  0  0  0  0  0  0  0  0  0  0
  161.9490  209.6680  150.4800 C   0  0  0  0  0  0  0  0  0  0  0  0
  161.9790  211.6840  157.2370 N   0  0  0  0  0  0  0  0  0  0  0  0
  161.0090  210.7080  154.8260 C   0  0  0  0  0  0  0  0  0  0  0  0
  162.1970  210.2040  155.3770 C   0  0  0  0  0  3  0  0  0  0  0  0
  162.6690  210.7080  156.5900 C   0  0  0  0  0  3  0  0  0  0  0  0
  160.8250  212.1930  156.7300 C   0  0  0  0  0  3  0  0  0  0  0  0
  160.3200  211.7140  155.5190 C   0  0  0  0  0  3  0  0  0  0  0  0
  1 12  1  0  0  0  0
  2  6  1  0  0  0  0
  2 12  1  0  0  0  0
  3 16  1  0  0  0  0
  4 14  1  0  0  0  0
  5 13  2  0  0  0  0
  7  9  1  1  0  0  0
  7 11  1  0  0  0  0
  8 10  2  0  0  0  0
  8 17  1  0  0  0  0
 10 19  1  0  0  0  0
 11 14  2  0  0  0  0
 11 16  1  0  0  0  0
 12 23  1  0  0  0  0
 13  7  1  0  0  0  0
 13  4  1  0  0  0  0
 14 18  1  0  0  0  0
 15  1  1  0  0  0  0
 16  2  2  0  0  0  0
 17 21  2  0  0  0  0
 18  6  2  0  0  0  0
 19 20  2  0  0  0  0
 20 15  1  0  0  0  0
 21  3  1  0  0  0  0
 21 20  1  0  0  0  0
 23 24  2  0  0  0  0
 23 27  1  0  0  0  0
 24 25  1  0  0  0  0
 25 22  2  0  0  0  0
 26 22  1  0  0  0  0
 27 26  2  0  0  0  0
M  END
>  <MODEL>
2

>  <REMARK>
 VINA RESULT:      -3.3      1.385      1.620
  Name = 
  1 active torsions:
  status: ('A' for Active; 'I' for Inactive)
    1  A    between atoms: C_9  and  N_15
                            x       y       z     vdW  Elec       q    Type
                         _______ _______ _______ _____ _____    ______ ____

>  <TORSDO>
F 1

$$$$
=
 OpenBabel11052423093D

 27 31  0  0  1  0  0  0  0  0999 V2000
  162.5140  207.0770  153.2350 C   0  0  0  0  0  2  0  0  0  0  0  0
  161.5120  208.8190  151.7710 C   0  0  0  0  0  0  0  0  0  0  0  0
  159.6740  208.8510  153.5190 C   0  0  0  0  0  2  0  0  0  0  0  0
  160.7550  212.8440  151.0900 O   0  0  0  0  0  0  0  0  0  0  0  0
  159.2040  214.2110  152.1590 O   0  0  0  0  0  0  0  0  0  0  0  0
  162.2870  209.4800  150.7960 C   0  0  0  0  0  3  0  0  0  0  0  0
  159.3300  211.8460  152.7560 C   0  0  1  0  0  3  0  0  0  0  0  0
  160.8030  210.1280  156.8370 C   0  0  0  0  0  3  0  0  0  0  0  0
  157.9090  211.4530  152.3840 C   0  0  0  0  0  1  0  0  0  0  0  0
  161.7130  209.1580  157.2600 C   0  0  0  0  0  3  0  0  0  0  0  0
  160.3060  210.8760  152.1620 C   0  0  0  0  0  0  0  0  0  0  0  0
  161.7560  207.4300  152.0370 N   0  0  0  0  0  0  0  0  0  0  0  0
  159.7260  213.0770  151.9950 C   0  0  0  0  0  0  0  0  0  0  0  0
  161.0860  211.5100  151.2160 C   0  0  0  0  0  0  0  0  0  0  0  0
  161.5730  206.7190  154.3760 C   0  0  0  0  0  2  0  0  0  0  0  0
  160.4990  209.5210  152.4650 C   0  0  0  0  0  0  0  0  0  0  0  0
  160.1640  209.9880  155.6450 N   0  0  0  0  0  0  0  0  0  0  0  0
  162.0800  210.8380  150.5120 C   0  0  0  0  0  3  0  0  0  0  0  0
  161.9550  208.0500  156.4470 C   0  0  0  0  0  3  0  0  0  0  0  0
  161.2870  207.9150  155.2280 C   0  0  0  0  0  0  0  0  0  0  0  0
  160.3750  208.9140  154.8370 C   0  0  0  0  0  0  0  0  0  0  0  0
  160.4010  204.4370  149.3880 N   0  0  0  0  0  0  0  0  0  0  0  0
  161.2890  206.4070  151.1320 C   0  0  0  0  0  0  0  0  0  0  0  0
  161.2210  205.0660  151.5400 C   0  0  0  0  0  3  0  0  0  0  0  0
  160.7710  204.0900  150.6490 C   0  0  0  0  0  3  0  0  0  0  0  0
  160.4560  205.7270  148.9610 C   0  0  0  0  0  3  0  0  0  0  0  0
  160.9010  206.7320  149.8240 C   0  0  0  0  0  3  0  0  0  0  0  0
  1 15  1  0  0  0  0
  2 12  1  0  0  0  0
  2 16  1  0  0  0  0
  3 21  1  0  0  0  0
  4 14  1  0  0  0  0
  4 13  1  0  0  0  0
  6  2  2  0  0  0  0
  7  9  1  6  0  0  0
  8 10  1  0  0  0  0
 11 16  2  0  0  0  0
 11  7  1  0  0  0  0
 12  1  1  0  0  0  0
 13  5  2  0  0  0  0
 13  7  1  0  0  0  0
 14 11  1  0  0  0  0
 15 20  1  0  0  0  0
 16  3  1  0  0  0  0
 17  8  2  0  0  0  0
 18  6  1  0  0  0  0
 18 14  2  0  0  0  0
 19 10  2  0  0  0  0
 20 19  1  0  0  0  0
 21 20  2  0  0  0  0
 21 17  1  0  0  0  0
 22 25  1  0  0  0  0
 23 24  1  0  0  0  0
 23 12  1  0  0  0  0
 25 24  2  0  0  0  0
 26 22  2  0  0  0  0
 26 27  1  0  0  0  0
 27 23  2  0  0  0  0
M  END
>  <MODEL>
3

>  <REMARK>
 VINA RESULT:      -3.3      1.867      5.461
  Name = 
  1 active torsions:
  status: ('A' for Active; 'I' for Inactive)
    1  A    between atoms: C_9  and  N_15
                            x       y       z     vdW  Elec       q    Type
                         _______ _______ _______ _____ _____    ______ ____

>  <TORSDO>
F 1

$$$$
=
 OpenBabel11052423093D

 27 31  0  0  1  0  0  0  0  0999 V2000
  159.0290  214.1120  152.4280 C   0  0  0  0  0  2  0  0  0  0  0  0
  159.2350  212.9380  154.6100 C   0  0  0  0  0  0  0  0  0  0  0  0
  159.0810  210.8400  153.1940 C   0  0  0  0  0  2  0  0  0  0  0  0
  161.6250  210.8160  157.2610 O   0  0  0  0  0  0  0  0  0  0  0  0
  162.3400  208.6080  157.0920 O   0  0  0  0  0  0  0  0  0  0  0  0
  159.7120  213.6130  155.7540 C   0  0  0  0  0  3  0  0  0  0  0  0
  160.8600  209.5230  155.3780 C   0  0  1  0  0  3  0  0  0  0  0  0
  162.0080  210.3570  150.9330 C   0  0  0  0  0  3  0  0  0  0  0  0
  159.6990  208.5590  155.5580 C   0  0  0  0  0  1  0  0  0  0  0  0
  161.9030  211.4260  150.0410 C   0  0  0  0  0  3  0  0  0  0  0  0
  160.3590  210.9360  155.3620 C   0  0  0  0  0  0  0  0  0  0  0  0
  158.4150  213.6480  153.6700 N   0  0  0  0  0  0  0  0  0  0  0  0
  161.6710  209.5740  156.6400 C   0  0  0  0  0  0  0  0  0  0  0  0
  160.8300  211.6170  156.4650 C   0  0  0  0  0  0  0  0  0  0  0  0
  158.7700  213.1220  151.3020 C   0  0  0  0  0  2  0  0  0  0  0  0
  159.5560  211.5760  154.4080 C   0  0  0  0  0  0  0  0  0  0  0  0
  161.0820  210.1970  151.9160 N   0  0  0  0  0  0  0  0  0  0  0  0
  160.5190  212.9540  156.6930 C   0  0  0  0  0  3  0  0  0  0  0  0
  160.8410  212.3210  150.1730 C   0  0  0  0  0  3  0  0  0  0  0  0
  159.8930  212.1410  151.1830 C   0  0  0  0  0  0  0  0  0  0  0  0
  160.0320  211.0500  152.0620 C   0  0  0  0  0  0  0  0  0  0  0  0
  154.3510  214.4310  154.4950 N   0  0  0  0  0  0  0  0  0  0  0  0
  157.0260  213.9200  153.9530 C   0  0  0  0  0  0  0  0  0  0  0  0
  156.5470  213.9060  155.2720 C   0  0  0  0  0  3  0  0  0  0  0  0
  155.1990  214.1660  155.5240 C   0  0  0  0  0  3  0  0  0  0  0  0
  154.7840  214.4510  153.2060 C   0  0  0  0  0  3  0  0  0  0  0  0
  156.1250  214.1960  152.9140 C   0  0  0  0  0  3  0  0  0  0  0  0
  1 12  1  0  0  0  0
  2  6  1  0  0  0  0
  3 16  1  0  0  0  0
  6 18  2  0  0  0  0
  7  9  1  1  0  0  0
  7 13  1  0  0  0  0
  8 17  1  0  0  0  0
 10 19  1  0  0  0  0
 10  8  2  0  0  0  0
 11  7  1  0  0  0  0
 11 14  2  0  0  0  0
 12 23  1  0  0  0  0
 12  2  1  0  0  0  0
 13  5  2  0  0  0  0
 13  4  1  0  0  0  0
 14 18  1  0  0  0  0
 14  4  1  0  0  0  0
 15  1  1  0  0  0  0
 16  2  2  0  0  0  0
 16 11  1  0  0  0  0
 17 21  2  0  0  0  0
 19 20  2  0  0  0  0
 20 15  1  0  0  0  0
 20 21  1  0  0  0  0
 21  3  1  0  0  0  0
 22 25  1  0  0  0  0
 23 24  1  0  0  0  0
 24 25  2  0  0  0  0
 26 22  2  0  0  0  0
 27 26  1  0  0  0  0
 27 23  2  0  0  0  0
M  END
>  <MODEL>
4

>  <REMARK>
 VINA RESULT:      -3.2      3.941      6.628
  Name = 
  1 active torsions:
  status: ('A' for Active; 'I' for Inactive)
    1  A    between atoms: C_9  and  N_15
                            x       y       z     vdW  Elec       q    Type
                         _______ _______ _______ _____ _____    ______ ____

>  <TORSDO>
F 1

$$$$
=
 OpenBabel11052423093D

 27 31  0  0  1  0  0  0  0  0999 V2000
  158.0630  212.2250  151.9220 C   0  0  0  0  0  2  0  0  0  0  0  0
  160.0100  210.8130  152.5540 C   0  0  0  0  0  0  0  0  0  0  0  0
  160.2200  212.4380  154.4900 C   0  0  0  0  0  2  0  0  0  0  0  0
  161.5740  207.8680  155.0270 O   0  0  0  0  0  0  0  0  0  0  0  0
  162.2040  208.0570  157.2590 O   0  0  0  0  0  0  0  0  0  0  0  0
  160.1710  209.5190  152.0170 C   0  0  0  0  0  3  0  0  0  0  0  0
  161.3910  210.0300  156.0720 C   0  0  1  0  0  3  0  0  0  0  0  0
  157.3740  212.2580  156.8950 C   0  0  0  0  0  3  0  0  0  0  0  0
  162.6310  210.8970  156.2170 C   0  0  0  0  0  1  0  0  0  0  0  0
  156.2880  212.7040  156.1400 C   0  0  0  0  0  3  0  0  0  0  0  0
  160.9280  210.0270  154.6460 C   0  0  0  0  0  0  0  0  0  0  0  0
  159.4620  211.8510  151.7270 N   0  0  0  0  0  0  0  0  0  0  0  0
  161.7700  208.5840  156.2020 C   0  0  0  0  0  0  0  0  0  0  0  0
  161.0630  208.7630  154.1090 C   0  0  0  0  0  0  0  0  0  0  0  0
  157.9570  213.4410  152.8300 C   0  0  0  0  0  2  0  0  0  0  0  0
  160.3980  211.0790  153.8880 C   0  0  0  0  0  0  0  0  0  0  0  0
  158.6130  212.1990  156.3380 N   0  0  0  0  0  0  0  0  0  0  0  0
  160.6990  208.4790  152.7970 C   0  0  0  0  0  3  0  0  0  0  0  0
  156.4930  213.0880  154.8140 C   0  0  0  0  0  3  0  0  0  0  0  0
  157.7720  213.0290  154.2560 C   0  0  0  0  0  0  0  0  0  0  0  0
  158.8420  212.5750  155.0510 C   0  0  0  0  0  0  0  0  0  0  0  0
  161.7950  213.7240  148.7510 N   0  0  0  0  0  0  0  0  0  0  0  0
  160.2630  212.4920  150.7120 C   0  0  0  0  0  0  0  0  0  0  0  0
  160.0860  213.8520  150.4130 C   0  0  0  0  0  3  0  0  0  0  0  0
  160.8670  214.4530  149.4240 C   0  0  0  0  0  3  0  0  0  0  0  0
  161.9910  212.4050  149.0160 C   0  0  0  0  0  3  0  0  0  0  0  0
  161.2290  211.7670  149.9990 C   0  0  0  0  0  3  0  0  0  0  0  0
  1 15  1  0  0  0  0
  2 16  1  0  0  0  0
  3 21  1  0  0  0  0
  4 13  1  0  0  0  0
  6  2  2  0  0  0  0
  6 18  1  0  0  0  0
  7 13  1  0  0  0  0
  7  9  1  6  0  0  0
 10  8  2  0  0  0  0
 11  7  1  0  0  0  0
 12  1  1  0  0  0  0
 12  2  1  0  0  0  0
 13  5  2  0  0  0  0
 14 11  1  0  0  0  0
 14  4  1  0  0  0  0
 15 20  1  0  0  0  0
 16  3  1  0  0  0  0
 16 11  2  0  0  0  0
 17  8  1  0  0  0  0
 18 14  2  0  0  0  0
 19 10  1  0  0  0  0
 20 19  2  0  0  0  0
 20 21  1  0  0  0  0
 21 17  2  0  0  0  0
 22 26  2  0  0  0  0
 22 25  1  0  0  0  0
 23 12  1  0  0  0  0
 24 23  1  0  0  0  0
 25 24  2  0  0  0  0
 26 27  1  0  0  0  0
 27 23  2  0  0  0  0
M  END
>  <MODEL>
5

>  <REMARK>
 VINA RESULT:      -3.1      3.444      7.170
  Name = 
  1 active torsions:
  status: ('A' for Active; 'I' for Inactive)
    1  A    between atoms: C_9  and  N_15
                            x       y       z     vdW  Elec       q    Type
                         _______ _______ _______ _____ _____    ______ ____

>  <TORSDO>
F 1

$$$$
=
 OpenBabel11052423093D

 27 31  0  0  1  0  0  0  0  0999 V2000
  158.5870  210.5190  153.2440 C   0  0  0  0  0  2  0  0  0  0  0  0
  158.5640  212.5260  151.7770 C   0  0  0  0  0  0  0  0  0  0  0  0
  161.0710  212.1560  151.6810 C   0  0  0  0  0  2  0  0  0  0  0  0
  158.7780  214.0890  147.9360 O   0  0  0  0  0  0  0  0  0  0  0  0
  160.6560  214.2990  146.5780 O   0  0  0  0  0  0  0  0  0  0  0  0
  157.3670  212.9730  151.1790 C   0  0  0  0  0  3  0  0  0  0  0  0
  160.9040  213.4030  148.8360 C   0  0  1  0  0  3  0  0  0  0  0  0
  162.0410  209.0100  149.9280 C   0  0  0  0  0  3  0  0  0  0  0  0
  161.8570  214.4530  149.3830 C   0  0  0  0  0  1  0  0  0  0  0  0
  161.5410  208.0100  150.7640 C   0  0  0  0  0  3  0  0  0  0  0  0
  159.7680  213.1910  149.7900 C   0  0  0  0  0  0  0  0  0  0  0  0
  158.5200  211.9720  153.1000 N   0  0  0  0  0  0  0  0  0  0  0  0
  160.1390  213.9720  147.6780 C   0  0  0  0  0  0  0  0  0  0  0  0
  158.5840  213.6070  149.2150 C   0  0  0  0  0  0  0  0  0  0  0  0
  160.0130  210.0770  153.5360 C   0  0  0  0  0  2  0  0  0  0  0  0
  159.7880  212.6400  151.0790 C   0  0  0  0  0  0  0  0  0  0  0  0
  161.8830  210.3190  150.2600 N   0  0  0  0  0  0  0  0  0  0  0  0
  157.3690  213.5160  149.8860 C   0  0  0  0  0  3  0  0  0  0  0  0
  160.8820  208.3730  151.9390 C   0  0  0  0  0  3  0  0  0  0  0  0
  160.7310  209.7210  152.2720 C   0  0  0  0  0  0  0  0  0  0  0  0
  161.2510  210.7000  151.4040 C   0  0  0  0  0  0  0  0  0  0  0  0
  158.1370  214.4520  156.4930 N   0  0  0  0  0  0  0  0  0  0  0  0
  158.3890  212.8230  154.2590 C   0  0  0  0  0  0  0  0  0  0  0  0
  159.5260  213.3230  154.9130 C   0  0  0  0  0  3  0  0  0  0  0  0
  159.3780  214.1410  156.0350 C   0  0  0  0  0  3  0  0  0  0  0  0
  157.0170  213.9830  155.8820 C   0  0  0  0  0  3  0  0  0  0  0  0
  157.1230  213.1620  154.7570 C   0  0  0  0  0  3  0  0  0  0  0  0
  1 15  1  0  0  0  0
  2 12  1  0  0  0  0
  4 14  1  0  0  0  0
  5 13  2  0  0  0  0
  6  2  1  0  0  0  0
  7  9  1  1  0  0  0
  7 11  1  0  0  0  0
  8 17  2  0  0  0  0
  8 10  1  0  0  0  0
 10 19  2  0  0  0  0
 11 16  1  0  0  0  0
 12  1  1  0  0  0  0
 12 23  1  0  0  0  0
 13  4  1  0  0  0  0
 13  7  1  0  0  0  0
 14 11  2  0  0  0  0
 14 18  1  0  0  0  0
 16  3  1  0  0  0  0
 16  2  2  0  0  0  0
 17 21  1  0  0  0  0
 18  6  2  0  0  0  0
 19 20  1  0  0  0  0
 20 15  1  0  0  0  0
 21  3  1  0  0  0  0
 21 20  2  0  0  0  0
 23 27  2  0  0  0  0
 23 24  1  0  0  0  0
 24 25  2  0  0  0  0
 25 22  1  0  0  0  0
 26 22  2  0  0  0  0
 27 26  1  0  0  0  0
M  END
>  <MODEL>
6

>  <REMARK>
 VINA RESULT:      -2.8      2.557      3.661
  Name = 
  1 active torsions:
  status: ('A' for Active; 'I' for Inactive)
    1  A    between atoms: C_9  and  N_15
                            x       y       z     vdW  Elec       q    Type
                         _______ _______ _______ _____ _____    ______ ____

>  <TORSDO>
F 1

$$$$
