=
 OpenBabel11052422483D

 28 31  0  0  1  0  0  0  0  0999 V2000
  159.3180  210.5550  154.3770 C   0  0  0  0  0  0  0  0  0  0  0  0
  158.5310  211.6240  153.8470 N   0  0  0  0  0  2  0  0  0  0  0  0
  161.4440  208.5850  155.3780 C   0  0  0  0  0  2  0  0  0  0  0  0
  162.1590  208.6890  152.9350 C   0  0  0  0  0  2  0  0  0  0  0  0
  161.5370  211.0930  155.8720 C   0  0  0  0  0  2  0  0  0  0  0  0
  160.1070  209.8780  153.5890 N   0  0  0  0  0  0  0  0  0  0  0  0
  160.3010  211.1080  156.5590 O   0  0  0  0  0  0  0  0  0  0  0  0
  160.4560  207.4530  153.3540 C   0  0  0  0  0  2  0  0  0  0  0  0
  162.2610  209.7460  155.9500 C   0  0  0  0  0  2  0  0  0  0  0  0
  161.6020  207.3940  152.3600 C   0  0  1  0  0  3  0  0  0  0  0  0
  159.3210  210.3450  155.8670 C   0  0  0  0  0  2  0  0  0  0  0  0
  161.0030  208.7520  153.9130 C   0  0  2  0  0  0  0  0  0  0  0  0
  158.5860  212.0340  152.4460 C   0  0  2  0  0  3  0  0  0  0  0  0
  159.4040  214.4520  151.0550 C   0  0  0  0  0  2  0  0  0  0  0  0
  160.0550  212.1870  152.0280 C   0  0  0  0  0  2  0  0  0  0  0  0
  156.7170  213.5210  153.1530 N   0  0  0  0  0  1  0  0  0  0  0  0
  157.8130  213.3510  152.2100 C   0  0  1  0  0  3  0  0  0  0  0  0
  158.6880  214.4530  152.2720 O   0  0  0  0  0  0  0  0  0  0  0  0
  160.2220  213.1570  150.8560 C   0  0  0  0  0  2  0  0  0  0  0  0
  161.0670  207.6210  150.9790 C   0  0  0  0  0  3  0  0  0  0  0  0
  160.7420  206.6670  150.1000 C   0  0  0  0  0  3  0  0  0  0  0  0
  161.5530  203.2470  151.6800 C   0  0  0  0  0  2  0  0  0  0  0  0
  160.8150  205.2080  150.2980 C   0  0  0  0  0  0  0  0  0  0  0  0
  160.8920  202.9620  149.3220 C   0  0  0  0  0  0  0  0  0  0  0  0
  160.7560  204.5580  151.6650 C   0  0  0  0  0  2  0  0  0  0  0  0
  160.8130  204.4310  149.2060 C   0  0  0  0  0  3  0  0  0  0  0  0
  160.6210  202.1460  148.1890 N   0  0  0  0  0  1  0  0  0  0  0  0
  161.1920  202.3950  150.4950 C   0  0  0  0  0  3  0  0  0  0  0  0
  1 11  1  0  0  0  0
  2  1  1  0  0  0  0
  3  9  1  0  0  0  0
  5  9  1  0  0  0  0
  5  7  1  0  0  0  0
  6 12  1  0  0  0  0
  6  1  2  0  0  0  0
  8 12  1  0  0  0  0
 10 20  1  6  0  0  0
 10  4  1  0  0  0  0
 10  8  1  0  0  0  0
 11  7  1  0  0  0  0
 12  4  1  6  0  0  0
 12  3  1  0  0  0  0
 13  2  1  1  0  0  0
 14 18  1  0  0  0  0
 15 13  1  0  0  0  0
 17 18  1  0  0  0  0
 17 13  1  0  0  0  0
 17 16  1  1  0  0  0
 19 14  1  0  0  0  0
 19 15  1  0  0  0  0
 21 23  1  0  0  0  0
 21 20  2  0  0  0  0
 23 25  1  0  0  0  0
 24 28  2  0  0  0  0
 25 22  1  0  0  0  0
 26 24  1  0  0  0  0
 26 23  2  0  0  0  0
 27 24  1  0  0  0  0
 28 22  1  0  0  0  0
M  END
>  <MODEL>
1

>  <REMARK>
 VINA RESULT:      -7.5      0.000      0.000
  Name = 
  3 active torsions:
  status: ('A' for Active; 'I' for Inactive)
    1  A    between atoms: N_2  and  C_3
    2  A    between atoms: C_9  and  C_18
    3  A    between atoms: C_14  and  C_25
                            x       y       z     vdW  Elec       q    Type
                         _______ _______ _______ _____ _____    ______ ____

>  <TORSDO>
F 3

$$$$
=
 OpenBabel11052422483D

 28 31  0  0  1  0  0  0  0  0999 V2000
  161.6950  202.9730  148.4450 C   0  0  0  0  0  0  0  0  0  0  0  0
  161.8530  203.3870  147.0850 N   0  0  0  0  0  2  0  0  0  0  0  0
  160.8200  202.2220  151.2860 C   0  0  0  0  0  2  0  0  0  0  0  0
  160.1710  204.6850  151.3390 C   0  0  0  0  0  2  0  0  0  0  0  0
  159.4880  201.5600  149.2050 C   0  0  0  0  0  2  0  0  0  0  0  0
  161.3550  203.8450  149.3530 N   0  0  0  0  0  0  0  0  0  0  0  0
  160.5470  200.8110  148.6400 O   0  0  0  0  0  0  0  0  0  0  0  0
  162.2590  204.2660  151.6030 C   0  0  0  0  0  2  0  0  0  0  0  0
  159.5280  201.6120  150.7340 C   0  0  0  0  0  2  0  0  0  0  0  0
  161.3040  205.3200  152.1360 C   0  0  1  0  0  3  0  0  0  0  0  0
  161.7820  201.5040  148.7560 C   0  0  0  0  0  2  0  0  0  0  0  0
  161.1330  203.6470  150.7980 C   0  0  2  0  0  0  0  0  0  0  0  0
  161.6160  204.7570  146.6380 C   0  0  2  0  0  3  0  0  0  0  0  0
  161.2750  206.0290  144.0460 C   0  0  0  0  0  2  0  0  0  0  0  0
  160.2050  204.8490  146.0380 C   0  0  0  0  0  2  0  0  0  0  0  0
  163.9520  204.5350  145.8040 N   0  0  0  0  0  1  0  0  0  0  0  0
  162.6760  205.2070  145.6080 C   0  0  1  0  0  3  0  0  0  0  0  0
  162.2090  204.9990  144.2960 O   0  0  0  0  0  0  0  0  0  0  0  0
  160.0840  205.9920  145.0290 C   0  0  0  0  0  2  0  0  0  0  0  0
  161.6680  206.6520  151.5560 C   0  0  0  0  0  3  0  0  0  0  0  0
  161.5440  207.8330  152.1720 C   0  0  0  0  0  3  0  0  0  0  0  0
  159.9570  207.2240  155.6310 C   0  0  0  0  0  2  0  0  0  0  0  0
  161.0510  208.0790  153.5400 C   0  0  0  0  0  0  0  0  0  0  0  0
  160.1320  209.6430  155.1860 C   0  0  0  0  0  0  0  0  0  0  0  0
  161.1110  207.0360  154.6370 C   0  0  0  0  0  2  0  0  0  0  0  0
  160.6460  209.3200  153.8410 C   0  0  0  0  0  3  0  0  0  0  0  0
  159.9610  211.0010  155.5720 N   0  0  0  0  0  1  0  0  0  0  0  0
  159.8520  208.6640  156.0520 C   0  0  0  0  0  3  0  0  0  0  0  0
  1 11  1  0  0  0  0
  1  6  2  0  0  0  0
  2  1  1  0  0  0  0
  4 10  1  0  0  0  0
  5  9  1  0  0  0  0
  6 12  1  0  0  0  0
  7 11  1  0  0  0  0
  7  5  1  0  0  0  0
  8 10  1  0  0  0  0
  9  3  1  0  0  0  0
 10 20  1  6  0  0  0
 12  3  1  1  0  0  0
 12  4  1  0  0  0  0
 12  8  1  0  0  0  0
 13  2  1  6  0  0  0
 14 18  1  0  0  0  0
 14 19  1  0  0  0  0
 15 13  1  0  0  0  0
 17 16  1  1  0  0  0
 17 13  1  0  0  0  0
 18 17  1  0  0  0  0
 19 15  1  0  0  0  0
 20 21  2  0  0  0  0
 21 23  1  0  0  0  0
 22 28  1  0  0  0  0
 23 26  2  0  0  0  0
 23 25  1  0  0  0  0
 24 27  1  0  0  0  0
 24 28  2  0  0  0  0
 25 22  1  0  0  0  0
 26 24  1  0  0  0  0
M  END
>  <MODEL>
2

>  <REMARK>
 VINA RESULT:      -6.4      4.295      8.957
  Name = 
  3 active torsions:
  status: ('A' for Active; 'I' for Inactive)
    1  A    between atoms: N_2  and  C_3
    2  A    between atoms: C_9  and  C_18
    3  A    between atoms: C_14  and  C_25
                            x       y       z     vdW  Elec       q    Type
                         _______ _______ _______ _____ _____    ______ ____

>  <TORSDO>
F 3

$$$$
=
 OpenBabel11052422483D

 28 31  0  0  1  0  0  0  0  0999 V2000
  158.7210  210.2570  138.1340 C   0  0  0  0  0  0  0  0  0  0  0  0
  157.3430  209.9100  137.9800 N   0  0  0  0  0  2  0  0  0  0  0  0
  161.6730  210.6230  138.8760 C   0  0  0  0  0  2  0  0  0  0  0  0
  160.6460  211.2790  141.1140 C   0  0  0  0  0  2  0  0  0  0  0  0
  160.5750  208.3230  138.6540 C   0  0  0  0  0  2  0  0  0  0  0  0
  159.1260  210.8330  139.2320 N   0  0  0  0  0  0  0  0  0  0  0  0
  160.2270  208.5070  137.2960 O   0  0  0  0  0  0  0  0  0  0  0  0
  160.5860  212.7830  139.5840 C   0  0  0  0  0  2  0  0  0  0  0  0
  161.8180  209.1120  139.0760 C   0  0  0  0  0  2  0  0  0  0  0  0
  160.7310  212.8000  141.0960 C   0  0  1  0  0  3  0  0  0  0  0  0
  159.6910  209.8050  137.0760 C   0  0  0  0  0  2  0  0  0  0  0  0
  160.4840  211.2700  139.6070 C   0  0  2  0  0  0  0  0  0  0  0  0
  156.3440  210.1390  139.0210 C   0  0  2  0  0  3  0  0  0  0  0  0
  153.4400  210.2710  139.0710 C   0  0  0  0  0  2  0  0  0  0  0  0
  155.5470  208.8450  139.2410 C   0  0  0  0  0  2  0  0  0  0  0  0
  156.0470  212.2880  137.7970 N   0  0  0  0  0  1  0  0  0  0  0  0
  155.3980  211.3040  138.6510 C   0  0  1  0  0  3  0  0  0  0  0  0
  154.2300  210.8140  138.0340 O   0  0  0  0  0  0  0  0  0  0  0  0
  154.1540  209.1180  139.8110 C   0  0  0  0  0  2  0  0  0  0  0  0
  159.4990  213.3990  141.7020 C   0  0  0  0  0  3  0  0  0  0  0  0
  159.3500  213.7480  142.9850 C   0  0  0  0  0  3  0  0  0  0  0  0
  162.7530  213.6870  144.7930 C   0  0  0  0  0  2  0  0  0  0  0  0
  160.3520  213.6440  144.0610 C   0  0  0  0  0  0  0  0  0  0  0  0
  161.0020  212.7250  146.2370 C   0  0  0  0  0  0  0  0  0  0  0  0
  161.6330  214.4520  144.0760 C   0  0  0  0  0  2  0  0  0  0  0  0
  160.0470  212.8860  145.1230 C   0  0  0  0  0  3  0  0  0  0  0  0
  160.5690  212.1470  147.4620 N   0  0  0  0  0  1  0  0  0  0  0  0
  162.2650  213.1430  146.1070 C   0  0  0  0  0  3  0  0  0  0  0  0
  1  6  2  0  0  0  0
  2  1  1  0  0  0  0
  3  9  1  0  0  0  0
  5  9  1  0  0  0  0
  6 12  1  0  0  0  0
  7  5  1  0  0  0  0
  8 12  1  0  0  0  0
  8 10  1  0  0  0  0
 10  4  1  0  0  0  0
 10 20  1  1  0  0  0
 11  7  1  0  0  0  0
 11  1  1  0  0  0  0
 12  3  1  6  0  0  0
 12  4  1  0  0  0  0
 13  2  1  6  0  0  0
 13 15  1  0  0  0  0
 14 19  1  0  0  0  0
 15 19  1  0  0  0  0
 17 16  1  6  0  0  0
 17 13  1  0  0  0  0
 18 17  1  0  0  0  0
 18 14  1  0  0  0  0
 20 21  2  0  0  0  0
 21 23  1  0  0  0  0
 22 28  1  0  0  0  0
 23 25  1  0  0  0  0
 23 26  2  0  0  0  0
 24 27  1  0  0  0  0
 25 22  1  0  0  0  0
 26 24  1  0  0  0  0
 28 24  2  0  0  0  0
M  END
>  <MODEL>
3

>  <REMARK>
 VINA RESULT:      -6.0     11.144     14.096
  Name = 
  3 active torsions:
  status: ('A' for Active; 'I' for Inactive)
    1  A    between atoms: N_2  and  C_3
    2  A    between atoms: C_9  and  C_18
    3  A    between atoms: C_14  and  C_25
                            x       y       z     vdW  Elec       q    Type
                         _______ _______ _______ _____ _____    ______ ____

>  <TORSDO>
F 3

$$$$
=
 OpenBabel11052422483D

 28 31  0  0  1  0  0  0  0  0999 V2000
  161.6880  210.2790  151.3000 C   0  0  0  0  0  0  0  0  0  0  0  0
  161.0060  210.9160  152.3830 N   0  0  0  0  0  2  0  0  0  0  0  0
  162.6590  208.9480  148.7140 C   0  0  0  0  0  2  0  0  0  0  0  0
  160.8310  207.2810  149.3230 C   0  0  0  0  0  2  0  0  0  0  0  0
  161.2170  211.0600  148.7280 C   0  0  0  0  0  2  0  0  0  0  0  0
  161.3290  209.0840  150.9210 N   0  0  0  0  0  0  0  0  0  0  0  0
  162.1620  211.8240  149.4510 O   0  0  0  0  0  0  0  0  0  0  0  0
  162.6710  207.0840  150.4100 C   0  0  0  0  0  2  0  0  0  0  0  0
  161.8490  209.9490  147.8860 C   0  0  0  0  0  2  0  0  0  0  0  0
  161.6150  206.1140  149.9100 C   0  0  1  0  0  3  0  0  0  0  0  0
  162.7050  211.0780  150.5320 C   0  0  0  0  0  2  0  0  0  0  0  0
  161.8800  208.2450  149.8390 C   0  0  2  0  0  0  0  0  0  0  0  0
  159.8800  210.3040  153.0840 C   0  0  2  0  0  3  0  0  0  0  0  0
  158.5050  210.8310  155.5910 C   0  0  0  0  0  2  0  0  0  0  0  0
  158.7010  211.2870  153.0890 C   0  0  0  0  0  2  0  0  0  0  0  0
  161.6780  209.5900  154.6540 N   0  0  0  0  0  1  0  0  0  0  0  0
  160.2620  209.9050  154.5280 C   0  0  1  0  0  3  0  0  0  0  0  0
  159.9050  210.9240  155.4310 O   0  0  0  0  0  0  0  0  0  0  0  0
  157.7480  211.0350  154.2600 C   0  0  0  0  0  2  0  0  0  0  0  0
  160.8860  205.5330  151.0830 C   0  0  0  0  0  3  0  0  0  0  0  0
  160.4560  204.2700  151.1880 C   0  0  0  0  0  3  0  0  0  0  0  0
  161.2060  200.8000  149.6890 C   0  0  0  0  0  2  0  0  0  0  0  0
  160.6200  203.1860  150.2030 C   0  0  0  0  0  0  0  0  0  0  0  0
  161.1310  202.5020  147.9070 C   0  0  0  0  0  0  0  0  0  0  0  0
  160.3130  201.7360  150.5140 C   0  0  0  0  0  2  0  0  0  0  0  0
  160.9410  203.5300  148.9490 C   0  0  0  0  0  3  0  0  0  0  0  0
  161.2060  202.8850  146.5390 N   0  0  0  0  0  1  0  0  0  0  0  0
  161.2080  201.2100  148.2430 C   0  0  0  0  0  3  0  0  0  0  0  0
  1  2  1  0  0  0  0
  4 12  1  0  0  0  0
  4 10  1  0  0  0  0
  5  7  1  0  0  0  0
  6  1  2  0  0  0  0
  7 11  1  0  0  0  0
  9  3  1  0  0  0  0
  9  5  1  0  0  0  0
 10  8  1  0  0  0  0
 10 20  1  1  0  0  0
 11  1  1  0  0  0  0
 12  3  1  6  0  0  0
 12  8  1  0  0  0  0
 12  6  1  0  0  0  0
 13  2  1  1  0  0  0
 13 15  1  0  0  0  0
 13 17  1  0  0  0  0
 15 19  1  0  0  0  0
 17 16  1  6  0  0  0
 17 18  1  0  0  0  0
 18 14  1  0  0  0  0
 19 14  1  0  0  0  0
 20 21  2  0  0  0  0
 22 25  1  0  0  0  0
 23 25  1  0  0  0  0
 23 21  1  0  0  0  0
 24 28  2  0  0  0  0
 24 26  1  0  0  0  0
 26 23  2  0  0  0  0
 27 24  1  0  0  0  0
 28 22  1  0  0  0  0
M  END
>  <MODEL>
4

>  <REMARK>
 VINA RESULT:      -6.0      2.304      4.431
  Name = 
  3 active torsions:
  status: ('A' for Active; 'I' for Inactive)
    1  A    between atoms: N_2  and  C_3
    2  A    between atoms: C_9  and  C_18
    3  A    between atoms: C_14  and  C_25
                            x       y       z     vdW  Elec       q    Type
                         _______ _______ _______ _____ _____    ______ ____

>  <TORSDO>
F 3

$$$$
=
 OpenBabel11052422483D

 28 31  0  0  1  0  0  0  0  0999 V2000
  162.0290  202.9180  147.8830 C   0  0  0  0  0  0  0  0  0  0  0  0
  162.4840  203.3320  146.5930 N   0  0  0  0  0  2  0  0  0  0  0  0
  160.5510  202.1940  150.4700 C   0  0  0  0  0  2  0  0  0  0  0  0
  160.0300  204.6880  150.4330 C   0  0  0  0  0  2  0  0  0  0  0  0
  159.6440  201.6180  148.1490 C   0  0  0  0  0  2  0  0  0  0  0  0
  161.5530  203.8000  148.7180 N   0  0  0  0  0  0  0  0  0  0  0  0
  160.7570  200.8180  147.8000 O   0  0  0  0  0  0  0  0  0  0  0  0
  161.9960  204.1570  151.1130 C   0  0  0  0  0  2  0  0  0  0  0  0
  159.3710  201.6580  149.6550 C   0  0  0  0  0  2  0  0  0  0  0  0
  161.0050  205.2560  151.4560 C   0  0  1  0  0  3  0  0  0  0  0  0
  161.9760  201.4430  148.1800 C   0  0  0  0  0  2  0  0  0  0  0  0
  161.0300  203.6040  150.0820 C   0  0  2  0  0  0  0  0  0  0  0  0
  162.4130  204.7150  146.1310 C   0  0  2  0  0  3  0  0  0  0  0  0
  160.5010  206.8820  146.4560 C   0  0  0  0  0  2  0  0  0  0  0  0
  162.5540  205.6530  147.3390 C   0  0  0  0  0  2  0  0  0  0  0  0
  160.5720  203.8020  144.7250 N   0  0  0  0  0  1  0  0  0  0  0  0
  161.0930  204.9940  145.3780 C   0  0  1  0  0  3  0  0  0  0  0  0
  160.1310  205.5340  146.2520 O   0  0  0  0  0  0  0  0  0  0  0  0
  161.9050  207.0150  147.0890 C   0  0  0  0  0  2  0  0  0  0  0  0
  161.5480  206.5710  150.9870 C   0  0  0  0  0  3  0  0  0  0  0  0
  161.6130  207.6930  151.7130 C   0  0  0  0  0  3  0  0  0  0  0  0
  160.2000  206.9270  155.2160 C   0  0  0  0  0  2  0  0  0  0  0  0
  161.1930  207.8750  153.1150 C   0  0  0  0  0  0  0  0  0  0  0  0
  160.3740  209.3640  154.8800 C   0  0  0  0  0  0  0  0  0  0  0  0
  161.3000  206.7800  154.1560 C   0  0  0  0  0  2  0  0  0  0  0  0
  160.8160  209.1030  153.4950 C   0  0  0  0  0  3  0  0  0  0  0  0
  160.2350  210.7030  155.3380 N   0  0  0  0  0  1  0  0  0  0  0  0
  160.1300  208.3460  155.7110 C   0  0  0  0  0  3  0  0  0  0  0  0
  1 11  1  0  0  0  0
  1  6  2  0  0  0  0
  2  1  1  0  0  0  0
  4 10  1  0  0  0  0
  5  9  1  0  0  0  0
  6 12  1  0  0  0  0
  7  5  1  0  0  0  0
  7 11  1  0  0  0  0
  8 10  1  0  0  0  0
  9  3  1  0  0  0  0
 10 20  1  6  0  0  0
 12  4  1  1  0  0  0
 12  3  1  0  0  0  0
 12  8  1  0  0  0  0
 13  2  1  1  0  0  0
 13 15  1  0  0  0  0
 14 19  1  0  0  0  0
 17 16  1  1  0  0  0
 17 13  1  0  0  0  0
 17 18  1  0  0  0  0
 18 14  1  0  0  0  0
 19 15  1  0  0  0  0
 20 21  2  0  0  0  0
 21 23  1  0  0  0  0
 22 28  1  0  0  0  0
 23 26  2  0  0  0  0
 23 25  1  0  0  0  0
 24 27  1  0  0  0  0
 24 28  2  0  0  0  0
 25 22  1  0  0  0  0
 26 24  1  0  0  0  0
M  END
>  <MODEL>
5

>  <REMARK>
 VINA RESULT:      -5.9      3.960      8.782
  Name = 
  3 active torsions:
  status: ('A' for Active; 'I' for Inactive)
    1  A    between atoms: N_2  and  C_3
    2  A    between atoms: C_9  and  C_18
    3  A    between atoms: C_14  and  C_25
                            x       y       z     vdW  Elec       q    Type
                         _______ _______ _______ _____ _____    ______ ____

>  <TORSDO>
F 3

$$$$
=
 OpenBabel11052422483D

 28 31  0  0  1  0  0  0  0  0999 V2000
  158.8800  212.5640  153.6560 C   0  0  0  0  0  0  0  0  0  0  0  0
  157.7910  212.6300  154.5810 N   0  0  0  0  0  2  0  0  0  0  0  0
  160.8540  212.1450  151.3480 C   0  0  0  0  0  2  0  0  0  0  0  0
  160.3840  209.6980  151.8800 C   0  0  0  0  0  2  0  0  0  0  0  0
  158.4340  212.8890  150.9830 C   0  0  0  0  0  2  0  0  0  0  0  0
  159.4020  211.4090  153.3500 N   0  0  0  0  0  0  0  0  0  0  0  0
  158.5770  214.0740  151.7420 O   0  0  0  0  0  0  0  0  0  0  0  0
  161.7530  210.6920  153.2010 C   0  0  0  0  0  2  0  0  0  0  0  0
  159.7400  212.4210  150.3350 C   0  0  0  0  0  2  0  0  0  0  0  0
  161.6170  209.2760  152.6680 C   0  0  1  0  0  3  0  0  0  0  0  0
  159.2890  213.8270  152.9470 C   0  0  0  0  0  2  0  0  0  0  0  0
  160.5140  211.1040  152.4290 C   0  0  2  0  0  0  0  0  0  0  0  0
  157.1950  211.4450  155.1920 C   0  0  2  0  0  3  0  0  0  0  0  0
  154.9640  210.9840  156.9980 C   0  0  0  0  0  2  0  0  0  0  0  0
  155.7940  211.2300  154.5990 C   0  0  0  0  0  2  0  0  0  0  0  0
  158.1790  212.4260  157.2590 N   0  0  0  0  0  1  0  0  0  0  0  0
  157.1200  211.5790  156.7300 C   0  0  1  0  0  3  0  0  0  0  0  0
  155.8590  212.0680  157.1210 O   0  0  0  0  0  0  0  0  0  0  0  0
  154.8820  210.4520  155.5500 C   0  0  0  0  0  2  0  0  0  0  0  0
  161.2330  208.3630  153.7920 C   0  0  0  0  0  3  0  0  0  0  0  0
  161.0790  207.0370  153.7020 C   0  0  0  0  0  3  0  0  0  0  0  0
  161.3350  205.9660  150.0090 C   0  0  0  0  0  2  0  0  0  0  0  0
  161.2700  206.1940  152.5080 C   0  0  0  0  0  0  0  0  0  0  0  0
  161.1380  203.9830  151.4610 C   0  0  0  0  0  0  0  0  0  0  0  0
  161.8980  206.7080  151.2290 C   0  0  0  0  0  2  0  0  0  0  0  0
  160.9810  204.8900  152.6150 C   0  0  0  0  0  3  0  0  0  0  0  0
  161.0870  202.5750  151.6550 N   0  0  0  0  0  1  0  0  0  0  0  0
  161.3540  204.4800  150.2390 C   0  0  0  0  0  3  0  0  0  0  0  0
  1  2  1  0  0  0  0
  4 12  1  0  0  0  0
  4 10  1  0  0  0  0
  5  7  1  0  0  0  0
  6  1  2  0  0  0  0
  7 11  1  0  0  0  0
  9  5  1  0  0  0  0
  9  3  1  0  0  0  0
 10  8  1  0  0  0  0
 10 20  1  1  0  0  0
 11  1  1  0  0  0  0
 12  3  1  6  0  0  0
 12  8  1  0  0  0  0
 12  6  1  0  0  0  0
 13  2  1  6  0  0  0
 13 17  1  0  0  0  0
 14 18  1  0  0  0  0
 15 13  1  0  0  0  0
 15 19  1  0  0  0  0
 17 18  1  0  0  0  0
 17 16  1  6  0  0  0
 19 14  1  0  0  0  0
 21 20  2  0  0  0  0
 22 28  1  0  0  0  0
 22 25  1  0  0  0  0
 23 26  2  0  0  0  0
 23 21  1  0  0  0  0
 24 27  1  0  0  0  0
 24 26  1  0  0  0  0
 25 23  1  0  0  0  0
 28 24  2  0  0  0  0
M  END
>  <MODEL>
6

>  <REMARK>
 VINA RESULT:      -5.8      2.268      4.334
  Name = 
  3 active torsions:
  status: ('A' for Active; 'I' for Inactive)
    1  A    between atoms: N_2  and  C_3
    2  A    between atoms: C_9  and  C_18
    3  A    between atoms: C_14  and  C_25
                            x       y       z     vdW  Elec       q    Type
                         _______ _______ _______ _____ _____    ______ ____

>  <TORSDO>
F 3

$$$$
=
 OpenBabel11052422483D

 28 31  0  0  1  0  0  0  0  0999 V2000
  160.5750  210.7060  151.4190 C   0  0  0  0  0  0  0  0  0  0  0  0
  160.5340  211.8290  150.5360 N   0  0  0  0  0  2  0  0  0  0  0  0
  161.2130  208.3820  153.3150 C   0  0  0  0  0  2  0  0  0  0  0  0
  162.5710  207.6020  151.3060 C   0  0  0  0  0  2  0  0  0  0  0  0
  162.2630  210.7010  153.5620 C   0  0  0  0  0  2  0  0  0  0  0  0
  161.1700  209.6070  151.0450 N   0  0  0  0  0  0  0  0  0  0  0  0
  161.0230  211.3560  153.7440 O   0  0  0  0  0  0  0  0  0  0  0  0
  160.4560  207.2560  151.1910 C   0  0  0  0  0  2  0  0  0  0  0  0
  162.2560  209.2440  154.0310 C   0  0  0  0  0  2  0  0  0  0  0  0
  161.6890  206.5200  150.6960 C   0  0  1  0  0  3  0  0  0  0  0  0
  160.0540  210.8830  152.8190 C   0  0  0  0  0  2  0  0  0  0  0  0
  161.3360  208.3410  151.7820 C   0  0  2  0  0  0  0  0  0  0  0  0
  161.1670  211.8290  149.2190 C   0  0  2  0  0  3  0  0  0  0  0  0
  162.7430  213.7510  147.7110 C   0  0  0  0  0  2  0  0  0  0  0  0
  162.6920  211.8400  149.3990 C   0  0  0  0  0  2  0  0  0  0  0  0
  159.3680  213.4790  148.7230 N   0  0  0  0  0  1  0  0  0  0  0  0
  160.7110  213.0380  148.3720 C   0  0  1  0  0  3  0  0  0  0  0  0
  161.6240  214.1020  148.4980 O   0  0  0  0  0  0  0  0  0  0  0  0
  163.4090  212.4420  148.1880 C   0  0  0  0  0  2  0  0  0  0  0  0
  161.7350  206.5900  149.2000 C   0  0  0  0  0  3  0  0  0  0  0  0
  161.5300  205.5660  148.3640 C   0  0  0  0  0  3  0  0  0  0  0  0
  160.8710  202.4100  150.4760 C   0  0  0  0  0  2  0  0  0  0  0  0
  161.1970  204.1750  148.7210 C   0  0  0  0  0  0  0  0  0  0  0  0
  161.1680  201.8030  148.1050 C   0  0  0  0  0  0  0  0  0  0  0  0
  160.4540  203.8040  149.9870 C   0  0  0  0  0  2  0  0  0  0  0  0
  161.4650  203.2210  147.8190 C   0  0  0  0  0  3  0  0  0  0  0  0
  161.2060  200.8450  147.0550 N   0  0  0  0  0  1  0  0  0  0  0  0
  160.8400  201.4220  149.3440 C   0  0  0  0  0  3  0  0  0  0  0  0
  1 11  1  0  0  0  0
  2  1  1  0  0  0  0
  3  9  1  0  0  0  0
  4 12  1  0  0  0  0
  5  7  1  0  0  0  0
  5  9  1  0  0  0  0
  6  1  2  0  0  0  0
  6 12  1  0  0  0  0
 10 20  1  6  0  0  0
 10  8  1  0  0  0  0
 10  4  1  0  0  0  0
 11  7  1  0  0  0  0
 12  8  1  6  0  0  0
 12  3  1  0  0  0  0
 13 15  1  0  0  0  0
 13  2  1  1  0  0  0
 14 19  1  0  0  0  0
 14 18  1  0  0  0  0
 17 18  1  0  0  0  0
 17 16  1  1  0  0  0
 17 13  1  0  0  0  0
 19 15  1  0  0  0  0
 21 23  1  0  0  0  0
 21 20  2  0  0  0  0
 23 25  1  0  0  0  0
 24 28  2  0  0  0  0
 25 22  1  0  0  0  0
 26 24  1  0  0  0  0
 26 23  2  0  0  0  0
 27 24  1  0  0  0  0
 28 22  1  0  0  0  0
M  END
>  <MODEL>
7

>  <REMARK>
 VINA RESULT:      -5.6      2.459      3.044
  Name = 
  3 active torsions:
  status: ('A' for Active; 'I' for Inactive)
    1  A    between atoms: N_2  and  C_3
    2  A    between atoms: C_9  and  C_18
    3  A    between atoms: C_14  and  C_25
                            x       y       z     vdW  Elec       q    Type
                         _______ _______ _______ _____ _____    ______ ____

>  <TORSDO>
F 3

$$$$
=
 OpenBabel11052422483D

 28 31  0  0  1  0  0  0  0  0999 V2000
  161.8390  203.8250  149.0310 C   0  0  0  0  0  0  0  0  0  0  0  0
  161.9190  203.9030  147.6060 N   0  0  0  0  0  2  0  0  0  0  0  0
  161.1370  203.8200  152.0160 C   0  0  0  0  0  2  0  0  0  0  0  0
  160.6820  206.2800  151.5340 C   0  0  0  0  0  2  0  0  0  0  0  0
  159.5990  202.8280  150.2290 C   0  0  0  0  0  2  0  0  0  0  0  0
  161.6380  204.9070  149.7300 N   0  0  0  0  0  0  0  0  0  0  0  0
  160.5500  201.8770  149.7920 O   0  0  0  0  0  0  0  0  0  0  0  0
  162.7470  205.7420  151.7630 C   0  0  0  0  0  2  0  0  0  0  0  0
  159.7640  203.2220  151.7000 C   0  0  0  0  0  2  0  0  0  0  0  0
  161.9190  206.9720  152.0910 C   0  0  1  0  0  3  0  0  0  0  0  0
  161.8390  202.4620  149.6700 C   0  0  0  0  0  2  0  0  0  0  0  0
  161.5170  205.0630  151.1920 C   0  0  2  0  0  0  0  0  0  0  0  0
  161.7510  205.1520  146.8670 C   0  0  2  0  0  3  0  0  0  0  0  0
  161.0600  205.8250  144.1240 C   0  0  0  0  0  2  0  0  0  0  0  0
  160.2700  205.3160  146.4950 C   0  0  0  0  0  2  0  0  0  0  0  0
  163.8460  204.3890  145.7570 N   0  0  0  0  0  1  0  0  0  0  0  0
  162.6360  205.1840  145.6010 C   0  0  1  0  0  3  0  0  0  0  0  0
  161.9060  204.7510  144.4770 O   0  0  0  0  0  0  0  0  0  0  0  0
  160.0820  206.2000  145.2610 C   0  0  0  0  0  2  0  0  0  0  0  0
  162.3350  208.0990  151.1970 C   0  0  0  0  0  3  0  0  0  0  0  0
  162.1020  209.3980  151.4170 C   0  0  0  0  0  3  0  0  0  0  0  0
  161.1660  210.2190  155.0640 C   0  0  0  0  0  2  0  0  0  0  0  0
  161.4180  209.9990  152.5760 C   0  0  0  0  0  0  0  0  0  0  0  0
  159.3860  210.9750  153.5350 C   0  0  0  0  0  0  0  0  0  0  0  0
  162.1280  210.3270  153.8730 C   0  0  0  0  0  2  0  0  0  0  0  0
  160.1410  210.3740  152.4190 C   0  0  0  0  0  3  0  0  0  0  0  0
  158.1360  211.6070  153.2860 N   0  0  0  0  0  1  0  0  0  0  0  0
  159.8840  210.9490  154.7750 C   0  0  0  0  0  3  0  0  0  0  0  0
  1 11  1  0  0  0  0
  1  6  2  0  0  0  0
  2  1  1  0  0  0  0
  4 10  1  0  0  0  0
  5  9  1  0  0  0  0
  6 12  1  0  0  0  0
  7  5  1  0  0  0  0
  8 10  1  0  0  0  0
  9  3  1  0  0  0  0
 10 20  1  6  0  0  0
 11  7  1  0  0  0  0
 12  4  1  1  0  0  0
 12  8  1  0  0  0  0
 12  3  1  0  0  0  0
 13  2  1  6  0  0  0
 14 18  1  0  0  0  0
 14 19  1  0  0  0  0
 15 13  1  0  0  0  0
 17 16  1  1  0  0  0
 17 13  1  0  0  0  0
 18 17  1  0  0  0  0
 19 15  1  0  0  0  0
 20 21  2  0  0  0  0
 21 23  1  0  0  0  0
 23 25  1  0  0  0  0
 24 28  2  0  0  0  0
 25 22  1  0  0  0  0
 26 23  2  0  0  0  0
 26 24  1  0  0  0  0
 27 24  1  0  0  0  0
 28 22  1  0  0  0  0
M  END
>  <MODEL>
8

>  <REMARK>
 VINA RESULT:      -5.6      3.996      8.584
  Name = 
  3 active torsions:
  status: ('A' for Active; 'I' for Inactive)
    1  A    between atoms: N_2  and  C_3
    2  A    between atoms: C_9  and  C_18
    3  A    between atoms: C_14  and  C_25
                            x       y       z     vdW  Elec       q    Type
                         _______ _______ _______ _____ _____    ______ ____

>  <TORSDO>
F 3

$$$$
=
 OpenBabel11052422483D

 28 31  0  0  1  0  0  0  0  0999 V2000
  159.1850  211.9140  155.1700 C   0  0  0  0  0  0  0  0  0  0  0  0
  160.1490  210.9330  155.5590 N   0  0  0  0  0  2  0  0  0  0  0  0
  156.8730  213.5960  154.0630 C   0  0  0  0  0  2  0  0  0  0  0  0
  157.8800  212.8480  151.8450 C   0  0  0  0  0  2  0  0  0  0  0  0
  156.5330  211.2770  155.0860 C   0  0  0  0  0  2  0  0  0  0  0  0
  159.0660  212.2450  153.9140 N   0  0  0  0  0  0  0  0  0  0  0  0
  157.0480  211.6470  156.3500 O   0  0  0  0  0  0  0  0  0  0  0  0
  158.9020  214.4530  152.8380 C   0  0  0  0  0  2  0  0  0  0  0  0
  155.9000  212.4430  154.3220 C   0  0  0  0  0  2  0  0  0  0  0  0
  158.6520  214.0800  151.3870 C   0  0  1  0  0  3  0  0  0  0  0  0
  158.2290  212.4240  156.2140 C   0  0  0  0  0  2  0  0  0  0  0  0
  158.1490  213.2170  153.2900 C   0  0  2  0  0  0  0  0  0  0  0  0
  161.0070  210.2380  154.6020 C   0  0  2  0  0  3  0  0  0  0  0  0
  161.0600  207.5580  153.4760 C   0  0  0  0  0  2  0  0  0  0  0  0
  160.2030  209.9560  153.3240 C   0  0  0  0  0  2  0  0  0  0  0  0
  161.7060  208.9910  156.6410 N   0  0  0  0  0  1  0  0  0  0  0  0
  161.5680  208.9250  155.1930 C   0  0  1  0  0  3  0  0  0  0  0  0
  160.7560  207.8340  154.8270 O   0  0  0  0  0  0  0  0  0  0  0  0
  160.7570  208.7580  152.5500 C   0  0  0  0  0  2  0  0  0  0  0  0
  159.9480  213.6780  150.7520 C   0  0  0  0  0  3  0  0  0  0  0  0
  160.1390  213.4420  149.4490 C   0  0  0  0  0  3  0  0  0  0  0  0
  156.7610  213.8700  147.6440 C   0  0  0  0  0  2  0  0  0  0  0  0
  159.1420  213.5430  148.3680 C   0  0  0  0  0  0  0  0  0  0  0  0
  158.4400  212.9320  146.1020 C   0  0  0  0  0  0  0  0  0  0  0  0
  157.9340  214.4530  148.4440 C   0  0  0  0  0  2  0  0  0  0  0  0
  159.3940  212.8860  147.2280 C   0  0  0  0  0  3  0  0  0  0  0  0
  158.8350  212.4610  144.8190 N   0  0  0  0  0  1  0  0  0  0  0  0
  157.2150  213.4380  146.2780 C   0  0  0  0  0  3  0  0  0  0  0  0
  1  2  1  0  0  0  0
  1 11  1  0  0  0  0
  3  9  1  0  0  0  0
  5  7  1  0  0  0  0
  6  1  2  0  0  0  0
  8 12  1  0  0  0  0
  9  5  1  0  0  0  0
 10 20  1  6  0  0  0
 10  4  1  0  0  0  0
 10  8  1  0  0  0  0
 11  7  1  0  0  0  0
 12  4  1  6  0  0  0
 12  6  1  0  0  0  0
 12  3  1  0  0  0  0
 13 17  1  0  0  0  0
 13  2  1  1  0  0  0
 14 18  1  0  0  0  0
 15 13  1  0  0  0  0
 17 16  1  1  0  0  0
 18 17  1  0  0  0  0
 19 15  1  0  0  0  0
 19 14  1  0  0  0  0
 21 20  2  0  0  0  0
 22 25  1  0  0  0  0
 23 25  1  0  0  0  0
 23 21  1  0  0  0  0
 24 28  2  0  0  0  0
 24 26  1  0  0  0  0
 26 23  2  0  0  0  0
 27 24  1  0  0  0  0
 28 22  1  0  0  0  0
M  END
>  <MODEL>
9

>  <REMARK>
 VINA RESULT:      -5.4      3.584      7.269
  Name = 
  3 active torsions:
  status: ('A' for Active; 'I' for Inactive)
    1  A    between atoms: N_2  and  C_3
    2  A    between atoms: C_9  and  C_18
    3  A    between atoms: C_14  and  C_25
                            x       y       z     vdW  Elec       q    Type
                         _______ _______ _______ _____ _____    ______ ____

>  <TORSDO>
F 3

$$$$
