=
 OpenBabel11052421573D

 30 33  0  0  1  0  0  0  0  0999 V2000
  161.7840  207.5000  150.6630 C   0  0  0  0  0  2  0  0  0  0  0  0
  161.2660  208.0290  153.0800 C   0  0  0  0  0  0  0  0  0  0  0  0
  161.0290  203.3590  151.4750 C   0  0  0  0  0  3  0  0  0  0  0  0
  161.1430  206.6570  149.5550 C   0  0  2  0  0  3  0  0  0  0  0  0
  161.0290  202.4290  150.4330 C   0  0  0  0  0  3  0  0  0  0  0  0
  160.9280  207.6190  154.3720 C   0  0  0  0  0  3  0  0  0  0  0  0
  161.5670  209.4720  152.8460 C   0  0  0  0  0  1  0  0  0  0  0  0
  161.0880  204.7350  151.2020 C   0  0  0  0  0  0  0  0  0  0  0  0
  160.6550  206.2760  154.6360 C   0  0  0  0  0  3  0  0  0  0  0  0
  161.3240  207.0870  152.0340 C   0  0  0  0  0  0  0  0  0  0  0  0
  161.1650  205.1740  149.8630 C   0  0  0  0  0  0  0  0  0  0  0  0
  161.0760  202.8650  149.1080 C   0  0  0  0  0  3  0  0  0  0  0  0
  161.1310  204.2310  148.8250 C   0  0  0  0  0  3  0  0  0  0  0  0
  160.7180  205.3360  153.6080 C   0  0  0  0  0  3  0  0  0  0  0  0
  161.0540  205.7280  152.3030 C   0  0  0  0  0  0  0  0  0  0  0  0
  161.7370  206.9780  148.2530 N   0  0  0  0  0  0  0  0  0  0  0  0
  162.0480  204.6050  145.3310 C   0  0  0  0  0  3  0  0  0  0  0  0
  163.6310  205.1350  147.0500 O   0  0  0  0  0  1  0  0  0  0  0  0
  161.4390  206.2200  147.0520 C   0  0  0  0  0  0  0  0  0  0  0  0
  160.2030  206.3950  146.4070 C   0  0  0  0  0  3  0  0  0  0  0  0
  162.3720  205.3180  146.4900 C   0  0  0  0  0  0  0  0  0  0  0  0
  160.8100  204.7840  144.7130 C   0  0  0  0  0  3  0  0  0  0  0  0
  159.8880  205.6820  145.2490 C   0  0  0  0  0  3  0  0  0  0  0  0
  162.6590  208.1060  148.2350 C   0  0  0  0  0  2  0  0  0  0  0  0
  161.8880  209.4100  148.1080 C   0  0  0  0  0  2  0  0  0  0  0  0
  162.3530  210.3980  149.1610 C   0  0  0  0  0  2  0  0  0  0  0  0
  161.8060  211.7160  148.8830 N   0  0  0  0  0  2  0  0  0  0  0  0
  163.6810  212.4340  147.6890 O   0  0  0  0  0  0  0  0  0  0  0  0
  162.5310  212.6920  148.1350 C   0  0  0  0  0  0  0  0  0  0  0  0
  161.9510  213.9670  147.8910 N   0  0  0  0  0  1  0  0  0  0  0  0
  1 10  1  0  0  0  0
  2  6  1  0  0  0  0
  4 16  1  6  0  0  0
  4 11  1  0  0  0  0
  4  1  1  0  0  0  0
  5  3  2  0  0  0  0
  6  9  2  0  0  0  0
  7  2  1  0  0  0  0
  8  3  1  0  0  0  0
  8 15  1  0  0  0  0
 10 15  1  0  0  0  0
 10  2  2  0  0  0  0
 11  8  2  0  0  0  0
 12  5  1  0  0  0  0
 13 12  2  0  0  0  0
 13 11  1  0  0  0  0
 14  9  1  0  0  0  0
 15 14  2  0  0  0  0
 17 21  1  0  0  0  0
 19 16  1  0  0  0  0
 20 19  1  0  0  0  0
 21 18  1  0  0  0  0
 21 19  2  0  0  0  0
 22 23  1  0  0  0  0
 22 17  2  0  0  0  0
 23 20  2  0  0  0  0
 24 16  1  0  0  0  0
 25 24  1  0  0  0  0
 25 26  1  0  0  0  0
 27 26  1  0  0  0  0
 28 29  2  0  0  0  0
 29 27  1  0  0  0  0
 30 29  1  0  0  0  0
M  END
>  <MODEL>
1

>  <REMARK>
 VINA RESULT:      -8.9      0.000      0.000
  Name = 
  6 active torsions:
  status: ('A' for Active; 'I' for Inactive)
    1  A    between atoms: C_4  and  N_13
    2  A    between atoms: N_7  and  C_16
    3  A    between atoms: C_8  and  N_13
    4  A    between atoms: N_13  and  C_27
    5  A    between atoms: C_16  and  C_30
    6  A    between atoms: C_27  and  C_30
                            x       y       z     vdW  Elec       q    Type
                         _______ _______ _______ _____ _____    ______ ____

>  <TORSDO>
F 6

$$$$
=
 OpenBabel11052421573D

 30 33  0  0  1  0  0  0  0  0999 V2000
  161.8950  207.3140  149.1300 C   0  0  0  0  0  2  0  0  0  0  0  0
  161.9090  209.6950  149.9780 C   0  0  0  0  0  0  0  0  0  0  0  0
  161.2480  205.9550  153.1430 C   0  0  0  0  0  3  0  0  0  0  0  0
  161.0190  206.0740  149.3340 C   0  0  2  0  0  3  0  0  0  0  0  0
  161.0100  204.6020  153.3950 C   0  0  0  0  0  3  0  0  0  0  0  0
  161.8430  210.6160  151.0270 C   0  0  0  0  0  3  0  0  0  0  0  0
  162.1810  210.2020  148.6020 C   0  0  0  0  0  1  0  0  0  0  0  0
  161.2750  206.4410  151.8260 C   0  0  0  0  0  0  0  0  0  0  0  0
  161.6060  210.1810  152.3320 C   0  0  0  0  0  3  0  0  0  0  0  0
  161.7260  208.3230  150.2330 C   0  0  0  0  0  0  0  0  0  0  0  0
  161.0760  205.5460  150.7530 C   0  0  0  0  0  0  0  0  0  0  0  0
  160.7850  203.7240  152.3350 C   0  0  0  0  0  3  0  0  0  0  0  0
  160.8060  204.1960  151.0220 C   0  0  0  0  0  3  0  0  0  0  0  0
  161.4330  208.8220  152.5940 C   0  0  0  0  0  3  0  0  0  0  0  0
  161.4930  207.8820  151.5540 C   0  0  0  0  0  0  0  0  0  0  0  0
  161.3310  205.0500  148.3320 N   0  0  0  0  0  0  0  0  0  0  0  0
  162.5200  205.4360  144.7680 C   0  0  0  0  0  3  0  0  0  0  0  0
  163.7170  204.7140  146.7140 O   0  0  0  0  0  1  0  0  0  0  0  0
  161.3600  205.3340  146.9100 C   0  0  0  0  0  0  0  0  0  0  0  0
  160.2070  205.8270  146.2740 C   0  0  0  0  0  3  0  0  0  0  0  0
  162.5310  205.1510  146.1370 C   0  0  0  0  0  0  0  0  0  0  0  0
  161.3620  205.9120  144.1530 C   0  0  0  0  0  3  0  0  0  0  0  0
  160.2060  206.1110  144.9070 C   0  0  0  0  0  3  0  0  0  0  0  0
  161.6050  203.7150  148.8490 C   0  0  0  0  0  2  0  0  0  0  0  0
  161.2150  202.6650  147.8220 C   0  0  0  0  0  2  0  0  0  0  0  0
  160.8180  201.3760  148.5160 C   0  0  0  0  0  2  0  0  0  0  0  0
  161.3050  200.2330  147.7590 N   0  0  0  0  0  2  0  0  0  0  0  0
  160.3830  200.9560  145.7380 O   0  0  0  0  0  0  0  0  0  0  0  0
  161.0480  200.0870  146.3620 C   0  0  0  0  0  0  0  0  0  0  0  0
  161.5470  198.9500  145.6700 N   0  0  0  0  0  1  0  0  0  0  0  0
  1  4  1  0  0  0  0
  1 10  1  0  0  0  0
  2 10  2  0  0  0  0
  2  6  1  0  0  0  0
  3  5  1  0  0  0  0
  4 16  1  6  0  0  0
  4 11  1  0  0  0  0
  6  9  2  0  0  0  0
  7  2  1  0  0  0  0
  8  3  2  0  0  0  0
  9 14  1  0  0  0  0
 10 15  1  0  0  0  0
 11 13  2  0  0  0  0
 11  8  1  0  0  0  0
 12  5  2  0  0  0  0
 13 12  1  0  0  0  0
 15  8  1  0  0  0  0
 15 14  2  0  0  0  0
 16 24  1  0  0  0  0
 17 21  1  0  0  0  0
 19 16  1  0  0  0  0
 20 19  1  0  0  0  0
 21 18  1  0  0  0  0
 21 19  2  0  0  0  0
 22 17  2  0  0  0  0
 22 23  1  0  0  0  0
 23 20  2  0  0  0  0
 25 26  1  0  0  0  0
 25 24  1  0  0  0  0
 27 26  1  0  0  0  0
 28 29  2  0  0  0  0
 29 27  1  0  0  0  0
 30 29  1  0  0  0  0
M  END
>  <MODEL>
2

>  <REMARK>
 VINA RESULT:      -8.5      2.729      5.713
  Name = 
  6 active torsions:
  status: ('A' for Active; 'I' for Inactive)
    1  A    between atoms: C_4  and  N_13
    2  A    between atoms: N_7  and  C_16
    3  A    between atoms: C_8  and  N_13
    4  A    between atoms: N_13  and  C_27
    5  A    between atoms: C_16  and  C_30
    6  A    between atoms: C_27  and  C_30
                            x       y       z     vdW  Elec       q    Type
                         _______ _______ _______ _____ _____    ______ ____

>  <TORSDO>
F 6

$$$$
=
 OpenBabel11052421573D

 30 33  0  0  1  0  0  0  0  0999 V2000
  161.2690  206.9280  152.3610 C   0  0  0  0  0  2  0  0  0  0  0  0
  161.0170  204.7240  151.1500 C   0  0  0  0  0  0  0  0  0  0  0  0
  162.1300  208.8180  148.6110 C   0  0  0  0  0  3  0  0  0  0  0  0
  160.7790  208.3650  152.1530 C   0  0  2  0  0  3  0  0  0  0  0  0
  162.2730  210.2060  148.5420 C   0  0  0  0  0  3  0  0  0  0  0  0
  161.0640  203.9650  149.9770 C   0  0  0  0  0  3  0  0  0  0  0  0
  160.7600  204.0240  152.4420 C   0  0  0  0  0  1  0  0  0  0  0  0
  161.6660  208.2070  149.7870 C   0  0  0  0  0  0  0  0  0  0  0  0
  161.3170  204.5790  148.7500 C   0  0  0  0  0  3  0  0  0  0  0  0
  161.2170  206.1170  151.0950 C   0  0  0  0  0  0  0  0  0  0  0  0
  161.3600  209.0060  150.9100 C   0  0  0  0  0  0  0  0  0  0  0  0
  161.9430  210.9970  149.6420 C   0  0  0  0  0  3  0  0  0  0  0  0
  161.4780  210.4010  150.8160 C   0  0  0  0  0  3  0  0  0  0  0  0
  161.5250  205.9570  148.6890 C   0  0  0  0  0  3  0  0  0  0  0  0
  161.4800  206.7370  149.8540 C   0  0  0  0  0  0  0  0  0  0  0  0
  160.9980  209.1660  153.3620 N   0  0  0  0  0  0  0  0  0  0  0  0
  161.7510  208.4600  156.9950 C   0  0  0  0  0  3  0  0  0  0  0  0
  162.7700  210.0260  155.4940 O   0  0  0  0  0  1  0  0  0  0  0  0
  160.9560  208.5930  154.6940 C   0  0  0  0  0  0  0  0  0  0  0  0
  160.0540  207.5540  154.9780 C   0  0  0  0  0  3  0  0  0  0  0  0
  161.8210  209.0370  155.7230 C   0  0  0  0  0  0  0  0  0  0  0  0
  160.8390  207.4380  157.2600 C   0  0  0  0  0  3  0  0  0  0  0  0
  159.9930  206.9820  156.2500 C   0  0  0  0  0  3  0  0  0  0  0  0
  161.2540  210.5850  153.1490 C   0  0  0  0  0  2  0  0  0  0  0  0
  160.2200  211.4200  153.8860 C   0  0  0  0  0  2  0  0  0  0  0  0
  158.8900  211.3700  153.1590 C   0  0  0  0  0  2  0  0  0  0  0  0
  157.9570  212.3080  153.7630 N   0  0  0  0  0  2  0  0  0  0  0  0
  157.1970  210.7890  155.3670 O   0  0  0  0  0  0  0  0  0  0  0  0
  157.1350  211.9460  154.8730 C   0  0  0  0  0  0  0  0  0  0  0  0
  156.2390  212.9010  155.4260 N   0  0  0  0  0  1  0  0  0  0  0  0
  2  7  1  0  0  0  0
  3  8  1  0  0  0  0
  4  1  1  0  0  0  0
  4 16  1  1  0  0  0
  5  3  2  0  0  0  0
  5 12  1  0  0  0  0
  6  2  2  0  0  0  0
  8 15  1  0  0  0  0
  8 11  2  0  0  0  0
  9  6  1  0  0  0  0
 10  2  1  0  0  0  0
 10  1  1  0  0  0  0
 11  4  1  0  0  0  0
 12 13  2  0  0  0  0
 13 11  1  0  0  0  0
 14  9  2  0  0  0  0
 14 15  1  0  0  0  0
 15 10  2  0  0  0  0
 16 19  1  0  0  0  0
 17 22  1  0  0  0  0
 18 21  1  0  0  0  0
 19 20  2  0  0  0  0
 19 21  1  0  0  0  0
 20 23  1  0  0  0  0
 21 17  2  0  0  0  0
 23 22  2  0  0  0  0
 24 16  1  0  0  0  0
 24 25  1  0  0  0  0
 26 27  1  0  0  0  0
 26 25  1  0  0  0  0
 27 29  1  0  0  0  0
 29 28  2  0  0  0  0
 29 30  1  0  0  0  0
M  END
>  <MODEL>
3

>  <REMARK>
 VINA RESULT:      -7.8      3.675      7.352
  Name = 
  6 active torsions:
  status: ('A' for Active; 'I' for Inactive)
    1  A    between atoms: C_4  and  N_13
    2  A    between atoms: N_7  and  C_16
    3  A    between atoms: C_8  and  N_13
    4  A    between atoms: N_13  and  C_27
    5  A    between atoms: C_16  and  C_30
    6  A    between atoms: C_27  and  C_30
                            x       y       z     vdW  Elec       q    Type
                         _______ _______ _______ _____ _____    ______ ____

>  <TORSDO>
F 6

$$$$
=
 OpenBabel11052421573D

 30 33  0  0  1  0  0  0  0  0999 V2000
  161.5640  204.8620  150.7690 C   0  0  0  0  0  2  0  0  0  0  0  0
  161.0380  202.3940  150.8970 C   0  0  0  0  0  0  0  0  0  0  0  0
  161.3090  204.6300  146.4960 C   0  0  0  0  0  3  0  0  0  0  0  0
  161.0020  206.0740  150.0170 C   0  0  2  0  0  3  0  0  0  0  0  0
  161.3950  205.7910  145.7250 C   0  0  0  0  0  3  0  0  0  0  0  0
  160.7760  201.1690  150.2770 C   0  0  0  0  0  3  0  0  0  0  0  0
  161.1650  202.4260  152.3830 C   0  0  0  0  0  1  0  0  0  0  0  0
  161.2030  204.7090  147.8940 C   0  0  0  0  0  0  0  0  0  0  0  0
  160.6660  201.0920  148.8880 C   0  0  0  0  0  3  0  0  0  0  0  0
  161.1820  203.5600  150.1210 C   0  0  0  0  0  0  0  0  0  0  0  0
  161.2010  205.9750  148.5190 C   0  0  0  0  0  0  0  0  0  0  0  0
  161.3640  207.0420  146.3410 C   0  0  0  0  0  3  0  0  0  0  0  0
  161.2560  207.1340  147.7290 C   0  0  0  0  0  3  0  0  0  0  0  0
  160.8160  202.2410  148.1110 C   0  0  0  0  0  3  0  0  0  0  0  0
  161.0770  203.4810  148.7150 C   0  0  0  0  0  0  0  0  0  0  0  0
  161.5280  207.3210  150.5810 N   0  0  0  0  0  0  0  0  0  0  0  0
  161.1530  207.5370  154.3330 C   0  0  0  0  0  3  0  0  0  0  0  0
  162.1780  205.8380  152.9900 O   0  0  0  0  0  1  0  0  0  0  0  0
  161.1740  207.7880  151.9080 C   0  0  0  0  0  0  0  0  0  0  0  0
  160.4560  208.9870  152.0560 C   0  0  0  0  0  3  0  0  0  0  0  0
  161.5120  207.0550  153.0700 C   0  0  0  0  0  0  0  0  0  0  0  0
  160.4510  208.7360  154.4590 C   0  0  0  0  0  3  0  0  0  0  0  0
  160.0990  209.4600  153.3210 C   0  0  0  0  0  3  0  0  0  0  0  0
  162.4300  208.0780  149.7210 C   0  0  0  0  0  2  0  0  0  0  0  0
  162.2910  209.5660  149.9980 C   0  0  0  0  0  2  0  0  0  0  0  0
  161.9910  210.3120  148.7120 C   0  0  0  0  0  2  0  0  0  0  0  0
  162.3460  211.7150  148.8560 N   0  0  0  0  0  2  0  0  0  0  0  0
  161.2300  212.3790  146.9140 O   0  0  0  0  0  0  0  0  0  0  0  0
  161.9280  212.7010  147.9120 C   0  0  0  0  0  0  0  0  0  0  0  0
  162.3030  214.0600  148.1000 N   0  0  0  0  0  1  0  0  0  0  0  0
  2  7  1  0  0  0  0
  3  8  1  0  0  0  0
  4 16  1  1  0  0  0
  4  1  1  0  0  0  0
  5 12  1  0  0  0  0
  5  3  2  0  0  0  0
  6  2  1  0  0  0  0
  8 11  2  0  0  0  0
  8 15  1  0  0  0  0
  9  6  2  0  0  0  0
 10  1  1  0  0  0  0
 10  2  2  0  0  0  0
 11  4  1  0  0  0  0
 12 13  2  0  0  0  0
 13 11  1  0  0  0  0
 14 15  2  0  0  0  0
 14  9  1  0  0  0  0
 15 10  1  0  0  0  0
 16 19  1  0  0  0  0
 17 22  1  0  0  0  0
 18 21  1  0  0  0  0
 19 20  2  0  0  0  0
 19 21  1  0  0  0  0
 20 23  1  0  0  0  0
 21 17  2  0  0  0  0
 23 22  2  0  0  0  0
 24 25  1  0  0  0  0
 24 16  1  0  0  0  0
 26 27  1  0  0  0  0
 26 25  1  0  0  0  0
 28 29  2  0  0  0  0
 29 30  1  0  0  0  0
 29 27  1  0  0  0  0
M  END
>  <MODEL>
4

>  <REMARK>
 VINA RESULT:      -7.6      1.676      5.306
  Name = 
  6 active torsions:
  status: ('A' for Active; 'I' for Inactive)
    1  A    between atoms: C_4  and  N_13
    2  A    between atoms: N_7  and  C_16
    3  A    between atoms: C_8  and  N_13
    4  A    between atoms: N_13  and  C_27
    5  A    between atoms: C_16  and  C_30
    6  A    between atoms: C_27  and  C_30
                            x       y       z     vdW  Elec       q    Type
                         _______ _______ _______ _____ _____    ______ ____

>  <TORSDO>
F 6

$$$$
=
 OpenBabel11052421573D

 30 33  0  0  1  0  0  0  0  0999 V2000
  161.1900  209.4570  151.0740 C   0  0  0  0  0  2  0  0  0  0  0  0
  161.9690  209.0020  148.7130 C   0  0  0  0  0  0  0  0  0  0  0  0
  161.1700  205.2340  151.8120 C   0  0  0  0  0  3  0  0  0  0  0  0
  161.5740  208.9720  152.4760 C   0  0  2  0  0  3  0  0  0  0  0  0
  160.9140  204.7480  153.0960 C   0  0  0  0  0  3  0  0  0  0  0  0
  162.3090  208.1110  147.6910 C   0  0  0  0  0  3  0  0  0  0  0  0
  161.9430  210.4620  148.4050 C   0  0  0  0  0  1  0  0  0  0  0  0
  161.3640  206.6080  151.5950 C   0  0  0  0  0  0  0  0  0  0  0  0
  162.3290  206.7370  147.9330 C   0  0  0  0  0  3  0  0  0  0  0  0
  161.6550  208.5160  149.9960 C   0  0  0  0  0  0  0  0  0  0  0  0
  161.2830  207.5000  152.6850 C   0  0  0  0  0  0  0  0  0  0  0  0
  160.8620  205.6280  154.1770 C   0  0  0  0  0  3  0  0  0  0  0  0
  161.0570  206.9950  153.9750 C   0  0  0  0  0  3  0  0  0  0  0  0
  162.0110  206.2460  149.1990 C   0  0  0  0  0  3  0  0  0  0  0  0
  161.6700  207.1250  150.2390 C   0  0  0  0  0  0  0  0  0  0  0  0
  160.9660  209.8250  153.5020 N   0  0  0  0  0  0  0  0  0  0  0  0
  161.5780  209.9830  157.2260 C   0  0  0  0  0  3  0  0  0  0  0  0
  159.6610  209.2010  156.0190 O   0  0  0  0  0  1  0  0  0  0  0  0
  161.5920  210.0630  154.7900 C   0  0  0  0  0  0  0  0  0  0  0  0
  162.8670  210.6500  154.8460 C   0  0  0  0  0  3  0  0  0  0  0  0
  160.9420  209.7390  156.0040 C   0  0  0  0  0  0  0  0  0  0  0  0
  162.8490  210.5560  157.2610 C   0  0  0  0  0  3  0  0  0  0  0  0
  163.4930  210.8930  156.0710 C   0  0  0  0  0  3  0  0  0  0  0  0
  159.6820  210.4210  153.1560 C   0  0  0  0  0  2  0  0  0  0  0  0
  159.7080  211.9160  153.4260 C   0  0  0  0  0  2  0  0  0  0  0  0
  158.6470  212.2830  154.4460 C   0  0  0  0  0  2  0  0  0  0  0  0
  157.4720  211.4450  154.2640 N   0  0  0  0  0  2  0  0  0  0  0  0
  156.8190  211.5700  156.5030 O   0  0  0  0  0  0  0  0  0  0  0  0
  156.5960  211.1280  155.3450 C   0  0  0  0  0  0  0  0  0  0  0  0
  155.4600  210.3040  155.1120 N   0  0  0  0  0  1  0  0  0  0  0  0
  1  4  1  0  0  0  0
  2 10  1  0  0  0  0
  3  5  1  0  0  0  0
  4 11  1  0  0  0  0
  4 16  1  1  0  0  0
  5 12  2  0  0  0  0
  6  9  1  0  0  0  0
  6  2  2  0  0  0  0
  7  2  1  0  0  0  0
  8  3  2  0  0  0  0
  8 11  1  0  0  0  0
  9 14  2  0  0  0  0
 10 15  2  0  0  0  0
 10  1  1  0  0  0  0
 11 13  2  0  0  0  0
 13 12  1  0  0  0  0
 14 15  1  0  0  0  0
 15  8  1  0  0  0  0
 16 19  1  0  0  0  0
 17 22  1  0  0  0  0
 19 20  2  0  0  0  0
 19 21  1  0  0  0  0
 20 23  1  0  0  0  0
 21 18  1  0  0  0  0
 21 17  2  0  0  0  0
 23 22  2  0  0  0  0
 24 25  1  0  0  0  0
 24 16  1  0  0  0  0
 25 26  1  0  0  0  0
 27 26  1  0  0  0  0
 27 29  1  0  0  0  0
 29 28  2  0  0  0  0
 30 29  1  0  0  0  0
M  END
>  <MODEL>
5

>  <REMARK>
 VINA RESULT:      -7.4      4.178      7.613
  Name = 
  6 active torsions:
  status: ('A' for Active; 'I' for Inactive)
    1  A    between atoms: C_4  and  N_13
    2  A    between atoms: N_7  and  C_16
    3  A    between atoms: C_8  and  N_13
    4  A    between atoms: N_13  and  C_27
    5  A    between atoms: C_16  and  C_30
    6  A    between atoms: C_27  and  C_30
                            x       y       z     vdW  Elec       q    Type
                         _______ _______ _______ _____ _____    ______ ____

>  <TORSDO>
F 6

$$$$
=
 OpenBabel11052421573D

 30 33  0  0  1  0  0  0  0  0999 V2000
  160.8950  210.0660  151.8180 C   0  0  0  0  0  2  0  0  0  0  0  0
  159.7020  212.2340  152.3290 C   0  0  0  0  0  0  0  0  0  0  0  0
  160.1720  208.7910  155.8470 C   0  0  0  0  0  3  0  0  0  0  0  0
  160.6320  208.5760  152.0630 C   0  0  2  0  0  3  0  0  0  0  0  0
  160.5110  207.4960  156.2440 C   0  0  0  0  0  3  0  0  0  0  0  0
  159.0430  213.0820  153.2240 C   0  0  0  0  0  3  0  0  0  0  0  0
  159.9760  212.7310  150.9490 C   0  0  0  0  0  1  0  0  0  0  0  0
  160.2290  209.1600  154.4930 C   0  0  0  0  0  0  0  0  0  0  0  0
  158.7810  212.6620  154.5290 C   0  0  0  0  0  3  0  0  0  0  0  0
  160.0970  210.9470  152.7400 C   0  0  0  0  0  0  0  0  0  0  0  0
  160.6490  208.2140  153.5330 C   0  0  0  0  0  0  0  0  0  0  0  0
  160.8980  206.5530  155.2910 C   0  0  0  0  0  3  0  0  0  0  0  0
  160.9550  206.9070  153.9420 C   0  0  0  0  0  3  0  0  0  0  0  0
  159.1770  211.3910  154.9460 C   0  0  0  0  0  3  0  0  0  0  0  0
  159.8380  210.5240  154.0620 C   0  0  0  0  0  0  0  0  0  0  0  0
  161.5440  207.7520  151.2630 N   0  0  0  0  0  0  0  0  0  0  0  0
  160.4160  204.4000  149.9380 C   0  0  0  0  0  3  0  0  0  0  0  0
  159.8960  206.6080  149.1650 O   0  0  0  0  0  1  0  0  0  0  0  0
  161.3640  206.3220  151.1000 C   0  0  0  0  0  0  0  0  0  0  0  0
  161.9740  205.4360  152.0040 C   0  0  0  0  0  3  0  0  0  0  0  0
  160.5660  205.7850  150.0630 C   0  0  0  0  0  0  0  0  0  0  0  0
  161.0400  203.5360  150.8380 C   0  0  0  0  0  3  0  0  0  0  0  0
  161.8170  204.0540  151.8750 C   0  0  0  0  0  3  0  0  0  0  0  0
  162.6580  208.4560  150.6400 C   0  0  0  0  0  2  0  0  0  0  0  0
  162.6180  208.2710  149.1320 C   0  0  0  0  0  2  0  0  0  0  0  0
  161.7800  209.3620  148.4930 C   0  0  0  0  0  2  0  0  0  0  0  0
  162.4520  210.6450  148.6210 N   0  0  0  0  0  2  0  0  0  0  0  0
  160.8730  211.7990  147.3440 O   0  0  0  0  0  0  0  0  0  0  0  0
  161.9380  211.8310  148.0150 C   0  0  0  0  0  0  0  0  0  0  0  0
  162.6360  213.0600  148.1710 N   0  0  0  0  0  1  0  0  0  0  0  0
  1  4  1  0  0  0  0
  1 10  1  0  0  0  0
  2 10  2  0  0  0  0
  2  6  1  0  0  0  0
  3  5  1  0  0  0  0
  4 16  1  6  0  0  0
  4 11  1  0  0  0  0
  6  9  2  0  0  0  0
  7  2  1  0  0  0  0
  8  3  2  0  0  0  0
  9 14  1  0  0  0  0
 10 15  1  0  0  0  0
 11 13  2  0  0  0  0
 11  8  1  0  0  0  0
 12  5  2  0  0  0  0
 13 12  1  0  0  0  0
 15  8  1  0  0  0  0
 15 14  2  0  0  0  0
 17 21  2  0  0  0  0
 17 22  1  0  0  0  0
 18 21  1  0  0  0  0
 19 16  1  0  0  0  0
 19 20  2  0  0  0  0
 21 19  1  0  0  0  0
 22 23  2  0  0  0  0
 23 20  1  0  0  0  0
 24 16  1  0  0  0  0
 25 24  1  0  0  0  0
 26 27  1  0  0  0  0
 26 25  1  0  0  0  0
 28 29  2  0  0  0  0
 29 30  1  0  0  0  0
 29 27  1  0  0  0  0
M  END
>  <MODEL>
6

>  <REMARK>
 VINA RESULT:      -7.3      2.460      4.844
  Name = 
  6 active torsions:
  status: ('A' for Active; 'I' for Inactive)
    1  A    between atoms: C_4  and  N_13
    2  A    between atoms: N_7  and  C_16
    3  A    between atoms: C_8  and  N_13
    4  A    between atoms: N_13  and  C_27
    5  A    between atoms: C_16  and  C_30
    6  A    between atoms: C_27  and  C_30
                            x       y       z     vdW  Elec       q    Type
                         _______ _______ _______ _____ _____    ______ ____

>  <TORSDO>
F 6

$$$$
=
 OpenBabel11052421573D

 30 33  0  0  1  0  0  0  0  0999 V2000
  161.0480  209.9280  151.6340 C   0  0  0  0  0  2  0  0  0  0  0  0
  159.9450  212.1620  152.0580 C   0  0  0  0  0  0  0  0  0  0  0  0
  160.3240  208.8650  155.7230 C   0  0  0  0  0  3  0  0  0  0  0  0
  160.7300  208.4620  151.9490 C   0  0  2  0  0  3  0  0  0  0  0  0
  160.6170  207.5760  156.1750 C   0  0  0  0  0  3  0  0  0  0  0  0
  159.3300  213.0740  152.9210 C   0  0  0  0  0  3  0  0  0  0  0  0
  160.2220  212.5850  150.6550 C   0  0  0  0  0  1  0  0  0  0  0  0
  160.3790  209.1700  154.3530 C   0  0  0  0  0  0  0  0  0  0  0  0
  159.0690  212.7240  154.2460 C   0  0  0  0  0  3  0  0  0  0  0  0
  160.2950  210.8800  152.5230 C   0  0  0  0  0  0  0  0  0  0  0  0
  160.7500  208.1660  153.4340 C   0  0  0  0  0  0  0  0  0  0  0  0
  160.9550  206.5770  155.2620 C   0  0  0  0  0  3  0  0  0  0  0  0
  161.0100  206.8670  153.8980 C   0  0  0  0  0  3  0  0  0  0  0  0
  159.4200  211.4580  154.7160 C   0  0  0  0  0  3  0  0  0  0  0  0
  160.0360  210.5270  153.8650 C   0  0  0  0  0  0  0  0  0  0  0  0
  161.6000  207.5680  151.1770 N   0  0  0  0  0  0  0  0  0  0  0  0
  160.3240  204.1370  150.2430 C   0  0  0  0  0  3  0  0  0  0  0  0
  159.7060  206.2880  149.3870 O   0  0  0  0  0  1  0  0  0  0  0  0
  161.4040  206.1300  151.1400 C   0  0  0  0  0  0  0  0  0  0  0  0
  162.1250  205.3060  152.0210 C   0  0  0  0  0  3  0  0  0  0  0  0
  160.4850  205.5270  150.2510 C   0  0  0  0  0  0  0  0  0  0  0  0
  161.0580  203.3360  151.1180 C   0  0  0  0  0  3  0  0  0  0  0  0
  161.9570  203.9210  152.0100 C   0  0  0  0  0  3  0  0  0  0  0  0
  162.6880  208.2090  150.4490 C   0  0  0  0  0  2  0  0  0  0  0  0
  162.2860  208.4370  149.0010 C   0  0  0  0  0  2  0  0  0  0  0  0
  162.7940  207.3020  148.1320 C   0  0  0  0  0  2  0  0  0  0  0  0
  161.7940  206.9520  147.1360 N   0  0  0  0  0  2  0  0  0  0  0  0
  162.9670  205.0880  146.3580 O   0  0  0  0  0  0  0  0  0  0  0  0
  161.9470  205.8230  146.2760 C   0  0  0  0  0  0  0  0  0  0  0  0
  160.9390  205.5260  145.3180 N   0  0  0  0  0  1  0  0  0  0  0  0
  1  4  1  0  0  0  0
  1 10  1  0  0  0  0
  2 10  2  0  0  0  0
  2  6  1  0  0  0  0
  3  5  1  0  0  0  0
  4 16  1  6  0  0  0
  4 11  1  0  0  0  0
  6  9  2  0  0  0  0
  7  2  1  0  0  0  0
  8  3  2  0  0  0  0
  9 14  1  0  0  0  0
 10 15  1  0  0  0  0
 11 13  2  0  0  0  0
 11  8  1  0  0  0  0
 12  5  2  0  0  0  0
 13 12  1  0  0  0  0
 15  8  1  0  0  0  0
 15 14  2  0  0  0  0
 17 21  2  0  0  0  0
 17 22  1  0  0  0  0
 18 21  1  0  0  0  0
 19 16  1  0  0  0  0
 19 20  2  0  0  0  0
 21 19  1  0  0  0  0
 22 23  2  0  0  0  0
 23 20  1  0  0  0  0
 24 16  1  0  0  0  0
 25 24  1  0  0  0  0
 26 25  1  0  0  0  0
 27 26  1  0  0  0  0
 29 28  2  0  0  0  0
 29 27  1  0  0  0  0
 30 29  1  0  0  0  0
M  END
>  <MODEL>
7

>  <REMARK>
 VINA RESULT:      -7.3      2.513      5.519
  Name = 
  6 active torsions:
  status: ('A' for Active; 'I' for Inactive)
    1  A    between atoms: C_4  and  N_13
    2  A    between atoms: N_7  and  C_16
    3  A    between atoms: C_8  and  N_13
    4  A    between atoms: N_13  and  C_27
    5  A    between atoms: C_16  and  C_30
    6  A    between atoms: C_27  and  C_30
                            x       y       z     vdW  Elec       q    Type
                         _______ _______ _______ _____ _____    ______ ____

>  <TORSDO>
F 6

$$$$
=
 OpenBabel11052421573D

 30 33  0  0  1  0  0  0  0  0999 V2000
  160.8360  207.2310  152.1980 C   0  0  0  0  0  2  0  0  0  0  0  0
  160.8210  208.1300  154.5600 C   0  0  0  0  0  0  0  0  0  0  0  0
  161.7060  211.1780  150.7690 C   0  0  0  0  0  3  0  0  0  0  0  0
  161.7440  207.3650  150.9710 C   0  0  2  0  0  3  0  0  0  0  0  0
  161.9800  211.3890  149.4160 C   0  0  0  0  0  3  0  0  0  0  0  0
  160.9220  209.1940  155.4600 C   0  0  0  0  0  3  0  0  0  0  0  0
  160.4720  206.7800  155.0900 C   0  0  0  0  0  1  0  0  0  0  0  0
  161.6050  209.8740  151.2810 C   0  0  0  0  0  0  0  0  0  0  0  0
  161.2310  210.4760  155.0040 C   0  0  0  0  0  3  0  0  0  0  0  0
  161.0410  208.3460  153.1870 C   0  0  0  0  0  0  0  0  0  0  0  0
  161.7670  208.7730  150.4130 C   0  0  0  0  0  0  0  0  0  0  0  0
  162.1690  210.3000  148.5640 C   0  0  0  0  0  3  0  0  0  0  0  0
  162.0740  208.9990  149.0630 C   0  0  0  0  0  3  0  0  0  0  0  0
  161.4420  210.7000  153.6430 C   0  0  0  0  0  3  0  0  0  0  0  0
  161.3480  209.6450  152.7240 C   0  0  0  0  0  0  0  0  0  0  0  0
  161.4010  206.3580  149.9620 N   0  0  0  0  0  0  0  0  0  0  0  0
  161.5860  203.0400  151.7580 C   0  0  0  0  0  3  0  0  0  0  0  0
  162.4700  205.1760  152.3890 O   0  0  0  0  0  1  0  0  0  0  0  0
  161.2420  204.9530  150.2860 C   0  0  0  0  0  0  0  0  0  0  0  0
  160.5770  204.1020  149.3860 C   0  0  0  0  0  3  0  0  0  0  0  0
  161.7610  204.4000  151.4800 C   0  0  0  0  0  0  0  0  0  0  0  0
  160.9120  202.2150  150.8580 C   0  0  0  0  0  3  0  0  0  0  0  0
  160.4100  202.7450  149.6690 C   0  0  0  0  0  3  0  0  0  0  0  0
  161.2360  206.8510  148.6000 C   0  0  0  0  0  2  0  0  0  0  0  0
  162.4030  206.4040  147.7360 C   0  0  0  0  0  2  0  0  0  0  0  0
  161.9080  205.9770  146.3670 C   0  0  0  0  0  2  0  0  0  0  0  0
  161.6300  204.5500  146.3620 N   0  0  0  0  0  2  0  0  0  0  0  0
  160.8130  204.5390  144.1730 O   0  0  0  0  0  0  0  0  0  0  0  0
  161.0780  203.8920  145.2210 C   0  0  0  0  0  0  0  0  0  0  0  0
  160.8240  202.4930  145.2690 N   0  0  0  0  0  1  0  0  0  0  0  0
  1 10  1  0  0  0  0
  2  7  1  0  0  0  0
  2  6  1  0  0  0  0
  3  8  1  0  0  0  0
  4 16  1  6  0  0  0
  4  1  1  0  0  0  0
  5  3  2  0  0  0  0
  8 15  1  0  0  0  0
  9  6  2  0  0  0  0
 10  2  2  0  0  0  0
 11  4  1  0  0  0  0
 11  8  2  0  0  0  0
 12 13  2  0  0  0  0
 12  5  1  0  0  0  0
 13 11  1  0  0  0  0
 14  9  1  0  0  0  0
 15 10  1  0  0  0  0
 15 14  2  0  0  0  0
 16 19  1  0  0  0  0
 19 21  2  0  0  0  0
 20 23  2  0  0  0  0
 20 19  1  0  0  0  0
 21 17  1  0  0  0  0
 21 18  1  0  0  0  0
 22 17  2  0  0  0  0
 23 22  1  0  0  0  0
 24 16  1  0  0  0  0
 25 24  1  0  0  0  0
 26 25  1  0  0  0  0
 27 26  1  0  0  0  0
 28 29  2  0  0  0  0
 29 30  1  0  0  0  0
 29 27  1  0  0  0  0
M  END
>  <MODEL>
8

>  <REMARK>
 VINA RESULT:      -7.2      2.705      5.682
  Name = 
  6 active torsions:
  status: ('A' for Active; 'I' for Inactive)
    1  A    between atoms: C_4  and  N_13
    2  A    between atoms: N_7  and  C_16
    3  A    between atoms: C_8  and  N_13
    4  A    between atoms: N_13  and  C_27
    5  A    between atoms: C_16  and  C_30
    6  A    between atoms: C_27  and  C_30
                            x       y       z     vdW  Elec       q    Type
                         _______ _______ _______ _____ _____    ______ ____

>  <TORSDO>
F 6

$$$$
=
 OpenBabel11052421573D

 30 33  0  0  1  0  0  0  0  0999 V2000
  161.2040  209.3420  151.1780 C   0  0  0  0  0  2  0  0  0  0  0  0
  161.9630  209.1200  148.7780 C   0  0  0  0  0  0  0  0  0  0  0  0
  161.1470  205.0670  151.4890 C   0  0  0  0  0  3  0  0  0  0  0  0
  161.5920  208.7160  152.5220 C   0  0  2  0  0  3  0  0  0  0  0  0
  160.8950  204.4570  152.7200 C   0  0  0  0  0  3  0  0  0  0  0  0
  162.2870  208.3330  147.6690 C   0  0  0  0  0  3  0  0  0  0  0  0
  161.9490  210.6030  148.6180 C   0  0  0  0  0  1  0  0  0  0  0  0
  161.3530  206.4540  151.4100 C   0  0  0  0  0  0  0  0  0  0  0  0
  162.2960  206.9410  147.7720 C   0  0  0  0  0  3  0  0  0  0  0  0
  161.6520  208.5100  150.0080 C   0  0  0  0  0  0  0  0  0  0  0  0
  161.2870  207.2340  152.5850 C   0  0  0  0  0  0  0  0  0  0  0  0
  160.8590  205.2240  153.8850 C   0  0  0  0  0  3  0  0  0  0  0  0
  161.0660  206.6030  153.8190 C   0  0  0  0  0  3  0  0  0  0  0  0
  161.9810  206.3290  148.9860 C   0  0  0  0  0  3  0  0  0  0  0  0
  161.6550  207.1020  150.1100 C   0  0  0  0  0  0  0  0  0  0  0  0
  160.9990  209.4670  153.6330 N   0  0  0  0  0  0  0  0  0  0  0  0
  162.0680  209.3070  157.2520 C   0  0  0  0  0  3  0  0  0  0  0  0
  160.3070  208.1410  156.1200 O   0  0  0  0  0  1  0  0  0  0  0  0
  161.7070  209.7120  154.8750 C   0  0  0  0  0  0  0  0  0  0  0  0
  162.7520  210.6510  154.9080 C   0  0  0  0  0  3  0  0  0  0  0  0
  161.3610  209.0450  156.0740 C   0  0  0  0  0  0  0  0  0  0  0  0
  163.1100  210.2340  157.2600 C   0  0  0  0  0  3  0  0  0  0  0  0
  163.4500  210.9090  156.0890 C   0  0  0  0  0  3  0  0  0  0  0  0
  159.6410  209.9530  153.4200 C   0  0  0  0  0  2  0  0  0  0  0  0
  159.3140  211.0480  154.4220 C   0  0  0  0  0  2  0  0  0  0  0  0
  158.8980  212.3140  153.6970 C   0  0  0  0  0  2  0  0  0  0  0  0
  159.7200  212.5010  152.5120 N   0  0  0  0  0  2  0  0  0  0  0  0
  158.0730  213.6690  151.3380 O   0  0  0  0  0  0  0  0  0  0  0  0
  159.2400  213.1940  151.3600 C   0  0  0  0  0  0  0  0  0  0  0  0
  160.0860  213.3500  150.2280 N   0  0  0  0  0  1  0  0  0  0  0  0
  1  4  1  0  0  0  0
  2 10  1  0  0  0  0
  3  5  1  0  0  0  0
  4 11  1  0  0  0  0
  4 16  1  1  0  0  0
  5 12  2  0  0  0  0
  6  9  1  0  0  0  0
  6  2  2  0  0  0  0
  7  2  1  0  0  0  0
  8  3  2  0  0  0  0
  8 11  1  0  0  0  0
  9 14  2  0  0  0  0
 10 15  2  0  0  0  0
 10  1  1  0  0  0  0
 11 13  2  0  0  0  0
 13 12  1  0  0  0  0
 14 15  1  0  0  0  0
 15  8  1  0  0  0  0
 16 19  1  0  0  0  0
 17 22  1  0  0  0  0
 19 20  2  0  0  0  0
 19 21  1  0  0  0  0
 20 23  1  0  0  0  0
 21 18  1  0  0  0  0
 21 17  2  0  0  0  0
 23 22  2  0  0  0  0
 24 16  1  0  0  0  0
 24 25  1  0  0  0  0
 26 25  1  0  0  0  0
 27 26  1  0  0  0  0
 28 29  2  0  0  0  0
 29 27  1  0  0  0  0
 30 29  1  0  0  0  0
M  END
>  <MODEL>
9

>  <REMARK>
 VINA RESULT:      -7.1      3.324      6.896
  Name = 
  6 active torsions:
  status: ('A' for Active; 'I' for Inactive)
    1  A    between atoms: C_4  and  N_13
    2  A    between atoms: N_7  and  C_16
    3  A    between atoms: C_8  and  N_13
    4  A    between atoms: N_13  and  C_27
    5  A    between atoms: C_16  and  C_30
    6  A    between atoms: C_27  and  C_30
                            x       y       z     vdW  Elec       q    Type
                         _______ _______ _______ _____ _____    ______ ____

>  <TORSDO>
F 6

$$$$
