=
 OpenBabel11062409483D

 34 39  0  0  1  0  0  0  0  0999 V2000
  157.5360  211.6090  155.3780 C   0  0  1  0  0  3  0  0  0  0  0  0
  156.5210  213.8950  152.4410 C   0  0  0  0  0  2  0  0  0  0  0  0
  156.3140  214.1310  154.9470 N   0  0  0  0  0  2  0  0  0  0  0  0
  159.9740  211.0590  155.6830 C   0  0  1  0  0  3  0  0  0  0  0  0
  158.5700  210.4900  155.5090 C   0  0  0  0  0  2  0  0  0  0  0  0
  159.0820  213.1700  156.6530 N   0  0  0  0  0  0  0  0  0  0  0  0
  159.5360  213.9740  155.5180 C   0  0  0  0  0  1  0  0  0  0  0  0
  160.0140  212.0540  156.8490 C   0  0  0  0  0  2  0  0  0  0  0  0
  156.7170  213.7910  156.2770 C   0  0  0  0  0  0  0  0  0  0  0  0
  157.6970  212.6730  156.4870 C   0  0  1  0  0  3  0  0  0  0  0  0
  156.2880  214.4530  157.2570 O   0  0  0  0  0  0  0  0  0  0  0  0
  157.8020  214.3280  151.7890 C   0  0  0  0  0  3  0  0  0  0  0  0
  158.9160  213.5830  151.6390 C   0  0  0  0  0  0  0  0  0  0  0  0
  159.1400  212.1870  152.1970 C   0  0  0  0  0  2  0  0  0  0  0  0
  156.7570  213.3650  153.8190 C   0  0  0  0  0  0  0  0  0  0  0  0
  157.9300  211.4690  152.7880 C   0  0  0  0  0  2  0  0  0  0  0  0
  157.4140  212.2050  153.9900 C   0  0  0  0  0  0  0  0  0  0  0  0
  160.0820  214.2320  150.9660 C   0  0  0  0  0  2  0  0  0  0  0  0
  161.0290  212.9110  149.2130 O   0  0  0  0  0  1  0  0  0  0  0  0
  160.1000  213.9170  149.4780 C   0  0  0  0  0  2  0  0  0  0  0  0
  161.0180  209.9530  155.8410 C   0  0  0  0  0  2  0  0  0  0  0  0
  160.8970  206.8010  153.7460 C   0  0  0  0  0  3  0  0  0  0  0  0
  161.4080  209.5070  153.4370 N   0  0  0  0  0  0  0  0  0  0  0  0
  161.6710  206.9900  150.1270 C   0  0  0  0  0  0  0  0  0  0  0  0
  161.3190  206.4680  151.3800 C   0  0  0  0  0  3  0  0  0  0  0  0
  161.2340  207.3090  152.4910 C   0  0  0  0  0  0  0  0  0  0  0  0
  161.8240  209.2120  151.1010 C   0  0  0  0  0  3  0  0  0  0  0  0
  161.4910  208.6900  152.3530 C   0  0  0  0  0  0  0  0  0  0  0  0
  161.9090  208.3660  149.9920 C   0  0  0  0  0  3  0  0  0  0  0  0
  161.0800  209.0250  154.6680 C   0  0  0  0  0  0  0  0  0  0  0  0
  160.8200  207.6610  154.8430 C   0  0  0  0  0  3  0  0  0  0  0  0
  161.7200  206.0990  148.9250 C   0  0  1  0  0  3  0  0  0  0  0  0
  160.8310  204.9500  149.0950 C   0  0  0  0  0  2  0  0  0  0  0  0
  160.4050  206.0790  148.2600 N   0  0  0  0  0  2  0  0  0  0  0  0
  1  5  1  6  0  0  0
  1 10  1  0  0  0  0
  2 15  1  0  0  0  0
  3  9  1  0  0  0  0
  4 21  1  1  0  0  0
  4  8  1  0  0  0  0
  5  4  1  0  0  0  0
  6  8  1  0  0  0  0
  7  6  1  0  0  0  0
  9 11  2  0  0  0  0
 10  9  1  6  0  0  0
 10  6  1  0  0  0  0
 12  2  1  0  0  0  0
 13 12  2  0  0  0  0
 13 14  1  0  0  0  0
 14 16  1  0  0  0  0
 15 17  2  0  0  0  0
 15  3  1  0  0  0  0
 16 17  1  0  0  0  0
 17  1  1  0  0  0  0
 18 13  1  0  0  0  0
 19 20  1  0  0  0  0
 20 18  1  0  0  0  0
 22 31  1  0  0  0  0
 23 30  1  0  0  0  0
 24 25  2  0  0  0  0
 25 26  1  0  0  0  0
 26 22  2  0  0  0  0
 27 28  1  0  0  0  0
 28 26  1  0  0  0  0
 28 23  2  0  0  0  0
 29 24  1  0  0  0  0
 29 27  2  0  0  0  0
 30 31  2  0  0  0  0
 30 21  1  0  0  0  0
 32 33  1  0  0  0  0
 32 24  1  1  0  0  0
 34 32  1  0  0  0  0
 34 33  1  0  0  0  0
M  END
>  <MODEL>
1

>  <REMARK>
 VINA RESULT:      -7.2      0.000      0.000
  Name = 
  5 active torsions:
  status: ('A' for Active; 'I' for Inactive)
    1  A    between atoms: C_3  and  C_24
    2  A    between atoms: C_3  and  C_25
    3  A    between atoms: C_7  and  C_11
    4  A    between atoms: C_8  and  C_18
    5  A    between atoms: C_18  and  C_30
                            x       y       z     vdW  Elec       q    Type
                         _______ _______ _______ _____ _____    ______ ____

>  <TORSDO>
F 5

$$$$
=
 OpenBabel11062409483D

 34 39  0  0  1  0  0  0  0  0999 V2000
  159.4070  210.4830  155.4600 C   0  0  1  0  0  3  0  0  0  0  0  0
  159.1720  213.1290  152.6630 C   0  0  0  0  0  2  0  0  0  0  0  0
  159.8770  213.2540  155.0850 N   0  0  0  0  0  2  0  0  0  0  0  0
  160.9890  208.5490  155.1530 C   0  0  1  0  0  3  0  0  0  0  0  0
  159.5490  208.9610  155.4360 C   0  0  0  0  0  2  0  0  0  0  0  0
  161.8630  210.6900  156.0740 N   0  0  0  0  0  0  0  0  0  0  0  0
  162.3580  211.1380  154.7720 C   0  0  0  0  0  1  0  0  0  0  0  0
  161.9490  209.2270  156.1390 C   0  0  0  0  0  2  0  0  0  0  0  0
  160.3570  212.6410  156.2860 C   0  0  0  0  0  0  0  0  0  0  0  0
  160.4820  211.1460  156.3510 C   0  0  1  0  0  3  0  0  0  0  0  0
  160.7130  213.3520  157.2610 O   0  0  0  0  0  0  0  0  0  0  0  0
  160.2030  212.7470  151.6410 C   0  0  0  0  0  3  0  0  0  0  0  0
  160.5470  211.4930  151.2820 C   0  0  0  0  0  0  0  0  0  0  0  0
  160.0410  210.2090  151.9180 C   0  0  0  0  0  2  0  0  0  0  0  0
  159.4270  212.4630  153.9770 C   0  0  0  0  0  0  0  0  0  0  0  0
  158.8750  210.3270  152.8960 C   0  0  0  0  0  2  0  0  0  0  0  0
  159.2740  211.1330  154.0980 C   0  0  0  0  0  0  0  0  0  0  0  0
  161.6150  211.3530  150.2450 C   0  0  0  0  0  2  0  0  0  0  0  0
  162.0740  209.2160  149.2750 O   0  0  0  0  0  1  0  0  0  0  0  0
  162.3400  210.0230  150.3820 C   0  0  0  0  0  2  0  0  0  0  0  0
  161.1550  207.0290  155.1500 C   0  0  0  0  0  2  0  0  0  0  0  0
  161.1580  206.7160  151.3760 C   0  0  0  0  0  3  0  0  0  0  0  0
  161.1250  205.0850  153.6160 N   0  0  0  0  0  0  0  0  0  0  0  0
  161.0590  203.3510  149.8280 C   0  0  0  0  0  0  0  0  0  0  0  0
  161.1060  204.7460  149.9610 C   0  0  0  0  0  3  0  0  0  0  0  0
  161.1240  205.3290  151.2290 C   0  0  0  0  0  0  0  0  0  0  0  0
  161.0790  203.1250  152.2490 C   0  0  0  0  0  3  0  0  0  0  0  0
  161.1080  204.5140  152.3820 C   0  0  0  0  0  0  0  0  0  0  0  0
  161.0610  202.5450  150.9770 C   0  0  0  0  0  3  0  0  0  0  0  0
  161.1580  206.4370  153.7740 C   0  0  0  0  0  0  0  0  0  0  0  0
  161.1740  207.2770  152.6550 C   0  0  0  0  0  3  0  0  0  0  0  0
  161.0850  202.7200  148.4700 C   0  0  1  0  0  3  0  0  0  0  0  0
  161.1740  201.2640  148.5770 C   0  0  0  0  0  2  0  0  0  0  0  0
  159.8810  201.8920  148.2780 N   0  0  0  0  0  2  0  0  0  0  0  0
  1  5  1  6  0  0  0
  1 10  1  0  0  0  0
  2 15  1  0  0  0  0
  3  9  1  0  0  0  0
  4 21  1  1  0  0  0
  4  5  1  0  0  0  0
  4  8  1  0  0  0  0
  6  8  1  0  0  0  0
  6 10  1  0  0  0  0
  7  6  1  0  0  0  0
  9 11  2  0  0  0  0
 10  9  1  6  0  0  0
 12  2  1  0  0  0  0
 13 12  2  0  0  0  0
 13 14  1  0  0  0  0
 14 16  1  0  0  0  0
 15 17  2  0  0  0  0
 15  3  1  0  0  0  0
 16 17  1  0  0  0  0
 17  1  1  0  0  0  0
 18 20  1  0  0  0  0
 18 13  1  0  0  0  0
 19 20  1  0  0  0  0
 22 31  1  0  0  0  0
 23 30  1  0  0  0  0
 24 25  2  0  0  0  0
 24 29  1  0  0  0  0
 25 26  1  0  0  0  0
 26 22  2  0  0  0  0
 26 28  1  0  0  0  0
 27 28  1  0  0  0  0
 28 23  2  0  0  0  0
 29 27  2  0  0  0  0
 30 21  1  0  0  0  0
 31 30  2  0  0  0  0
 32 33  1  0  0  0  0
 32 24  1  1  0  0  0
 34 32  1  0  0  0  0
 34 33  1  0  0  0  0
M  END
>  <MODEL>
2

>  <REMARK>
 VINA RESULT:      -6.4      2.262      3.491
  Name = 
  5 active torsions:
  status: ('A' for Active; 'I' for Inactive)
    1  A    between atoms: C_3  and  C_24
    2  A    between atoms: C_3  and  C_25
    3  A    between atoms: C_7  and  C_11
    4  A    between atoms: C_8  and  C_18
    5  A    between atoms: C_18  and  C_30
                            x       y       z     vdW  Elec       q    Type
                         _______ _______ _______ _____ _____    ______ ____

>  <TORSDO>
F 5

$$$$
=
 OpenBabel11062409483D

 34 39  0  0  1  0  0  0  0  0999 V2000
  159.4480  210.2730  155.3490 C   0  0  1  0  0  3  0  0  0  0  0  0
  159.3560  212.9860  152.6080 C   0  0  0  0  0  2  0  0  0  0  0  0
  159.9770  213.0430  155.0560 N   0  0  0  0  0  2  0  0  0  0  0  0
  161.0070  208.3190  155.0520 C   0  0  1  0  0  3  0  0  0  0  0  0
  159.5650  208.7490  155.2940 C   0  0  0  0  0  2  0  0  0  0  0  0
  161.8830  210.4220  156.0520 N   0  0  0  0  0  0  0  0  0  0  0  0
  162.4320  210.8910  154.7790 C   0  0  0  0  0  1  0  0  0  0  0  0
  161.9430  208.9570  156.0860 C   0  0  0  0  0  2  0  0  0  0  0  0
  160.4050  212.3950  156.2570 C   0  0  0  0  0  0  0  0  0  0  0  0
  160.5020  210.8970  156.2920 C   0  0  1  0  0  3  0  0  0  0  0  0
  160.7380  213.0760  157.2600 O   0  0  0  0  0  0  0  0  0  0  0  0
  160.4150  212.6090  151.6130 C   0  0  0  0  0  3  0  0  0  0  0  0
  160.7510  211.3570  151.2380 C   0  0  0  0  0  0  0  0  0  0  0  0
  160.2010  210.0690  151.8250 C   0  0  0  0  0  2  0  0  0  0  0  0
  159.5530  212.2860  153.9140 C   0  0  0  0  0  0  0  0  0  0  0  0
  159.0030  210.1850  152.7650 C   0  0  0  0  0  2  0  0  0  0  0  0
  159.3740  210.9560  153.9980 C   0  0  0  0  0  0  0  0  0  0  0  0
  161.8520  211.2220  150.2360 C   0  0  0  0  0  2  0  0  0  0  0  0
  162.8280  212.3920  148.3930 O   0  0  0  0  0  1  0  0  0  0  0  0
  161.6200  212.1340  149.0410 C   0  0  0  0  0  2  0  0  0  0  0  0
  161.1470  206.7960  155.0190 C   0  0  0  0  0  2  0  0  0  0  0  0
  161.0760  204.3280  152.1480 C   0  0  0  0  0  3  0  0  0  0  0  0
  161.2110  207.0640  152.5580 N   0  0  0  0  0  0  0  0  0  0  0  0
  161.2570  205.5790  148.6660 C   0  0  0  0  0  0  0  0  0  0  0  0
  161.1650  204.6970  149.7530 C   0  0  0  0  0  3  0  0  0  0  0  0
  161.1540  205.1930  151.0580 C   0  0  0  0  0  0  0  0  0  0  0  0
  161.2950  207.4630  150.2020 C   0  0  0  0  0  3  0  0  0  0  0  0
  161.2220  206.5850  151.2860 C   0  0  0  0  0  0  0  0  0  0  0  0
  161.3060  206.9620  148.8970 C   0  0  0  0  0  3  0  0  0  0  0  0
  161.1360  206.2310  153.6320 C   0  0  0  0  0  0  0  0  0  0  0  0
  161.0680  204.8460  153.4450 C   0  0  0  0  0  3  0  0  0  0  0  0
  161.2240  205.0540  147.2630 C   0  0  1  0  0  3  0  0  0  0  0  0
  162.0210  205.9000  146.3760 C   0  0  0  0  0  2  0  0  0  0  0  0
  162.5750  204.6280  146.8540 N   0  0  0  0  0  2  0  0  0  0  0  0
  1  5  1  6  0  0  0
  1 10  1  0  0  0  0
  2 15  1  0  0  0  0
  3  9  1  0  0  0  0
  4 21  1  1  0  0  0
  4  5  1  0  0  0  0
  4  8  1  0  0  0  0
  6  8  1  0  0  0  0
  6 10  1  0  0  0  0
  7  6  1  0  0  0  0
  9 11  2  0  0  0  0
 10  9  1  6  0  0  0
 12  2  1  0  0  0  0
 13 12  2  0  0  0  0
 13 14  1  0  0  0  0
 14 16  1  0  0  0  0
 15 17  2  0  0  0  0
 15  3  1  0  0  0  0
 16 17  1  0  0  0  0
 17  1  1  0  0  0  0
 18 13  1  0  0  0  0
 19 20  1  0  0  0  0
 20 18  1  0  0  0  0
 22 31  1  0  0  0  0
 23 30  1  0  0  0  0
 24 29  1  0  0  0  0
 24 25  2  0  0  0  0
 25 26  1  0  0  0  0
 26 28  1  0  0  0  0
 26 22  2  0  0  0  0
 27 28  1  0  0  0  0
 28 23  2  0  0  0  0
 29 27  2  0  0  0  0
 30 21  1  0  0  0  0
 31 30  2  0  0  0  0
 32 24  1  1  0  0  0
 33 34  1  0  0  0  0
 33 32  1  0  0  0  0
 34 32  1  0  0  0  0
M  END
>  <MODEL>
3

>  <REMARK>
 VINA RESULT:      -6.4      2.100      2.969
  Name = 
  5 active torsions:
  status: ('A' for Active; 'I' for Inactive)
    1  A    between atoms: C_3  and  C_24
    2  A    between atoms: C_3  and  C_25
    3  A    between atoms: C_7  and  C_11
    4  A    between atoms: C_8  and  C_18
    5  A    between atoms: C_18  and  C_30
                            x       y       z     vdW  Elec       q    Type
                         _______ _______ _______ _____ _____    ______ ____

>  <TORSDO>
F 5

$$$$
=
 OpenBabel11062409483D

 34 39  0  0  1  0  0  0  0  0999 V2000
  160.3910  209.4400  156.1930 C   0  0  1  0  0  3  0  0  0  0  0  0
  158.8240  212.9460  155.8180 C   0  0  0  0  0  2  0  0  0  0  0  0
  161.0690  212.1530  156.6610 N   0  0  0  0  0  2  0  0  0  0  0  0
  160.7360  208.0530  154.1210 C   0  0  1  0  0  3  0  0  0  0  0  0
  160.1080  208.1020  155.5090 C   0  0  0  0  0  2  0  0  0  0  0  0
  162.4700  209.7190  154.7630 N   0  0  0  0  0  0  0  0  0  0  0  0
  161.9490  210.7310  153.8440 C   0  0  0  0  0  1  0  0  0  0  0  0
  162.2310  208.3890  154.1910 C   0  0  0  0  0  2  0  0  0  0  0  0
  162.1090  211.1720  156.7310 C   0  0  0  0  0  0  0  0  0  0  0  0
  161.8870  209.8190  156.1190 C   0  0  1  0  0  3  0  0  0  0  0  0
  163.2130  211.4570  157.2610 O   0  0  0  0  0  0  0  0  0  0  0  0
  158.6570  213.1710  154.3430 C   0  0  0  0  0  3  0  0  0  0  0  0
  158.3260  212.2420  153.4240 C   0  0  0  0  0  0  0  0  0  0  0  0
  158.1600  210.7530  153.6760 C   0  0  0  0  0  2  0  0  0  0  0  0
  159.7880  211.8390  156.0990 C   0  0  0  0  0  0  0  0  0  0  0  0
  158.1470  210.2890  155.1310 C   0  0  0  0  0  2  0  0  0  0  0  0
  159.4660  210.5710  155.7870 C   0  0  0  0  0  0  0  0  0  0  0  0
  158.2290  212.6970  152.0030 C   0  0  0  0  0  2  0  0  0  0  0  0
  159.4830  213.8100  150.2980 O   0  0  0  0  0  1  0  0  0  0  0  0
  159.6040  213.0070  151.4330 C   0  0  0  0  0  2  0  0  0  0  0  0
  160.4860  206.7110  153.4320 C   0  0  0  0  0  2  0  0  0  0  0  0
  161.4340  207.9260  149.9730 C   0  0  0  0  0  3  0  0  0  0  0  0
  160.8750  205.5480  151.2800 N   0  0  0  0  0  0  0  0  0  0  0  0
  161.7870  205.4770  147.2160 C   0  0  0  0  0  0  0  0  0  0  0  0
  161.7730  206.6940  147.9110 C   0  0  0  0  0  3  0  0  0  0  0  0
  161.4640  206.7210  149.2720 C   0  0  0  0  0  0  0  0  0  0  0  0
  161.2080  204.3050  149.2660 C   0  0  0  0  0  3  0  0  0  0  0  0
  161.1760  205.5190  149.9550 C   0  0  0  0  0  0  0  0  0  0  0  0
  161.5170  204.2830  147.9030 C   0  0  0  0  0  3  0  0  0  0  0  0
  160.8420  206.7170  151.9770 C   0  0  0  0  0  0  0  0  0  0  0  0
  161.1210  207.9290  151.3330 C   0  0  0  0  0  3  0  0  0  0  0  0
  162.1620  205.4390  145.7660 C   0  0  1  0  0  3  0  0  0  0  0  0
  161.5190  204.3100  145.0940 C   0  0  0  0  0  2  0  0  0  0  0  0
  160.9680  205.6610  144.9320 N   0  0  0  0  0  2  0  0  0  0  0  0
  1  5  1  6  0  0  0
  2 15  1  0  0  0  0
  3  9  1  0  0  0  0
  4 21  1  1  0  0  0
  4  8  1  0  0  0  0
  4  5  1  0  0  0  0
  6 10  1  0  0  0  0
  7  6  1  0  0  0  0
  8  6  1  0  0  0  0
  9 11  2  0  0  0  0
 10  1  1  0  0  0  0
 10  9  1  6  0  0  0
 12  2  1  0  0  0  0
 13 14  1  0  0  0  0
 13 12  2  0  0  0  0
 14 16  1  0  0  0  0
 15  3  1  0  0  0  0
 16 17  1  0  0  0  0
 17 15  2  0  0  0  0
 17  1  1  0  0  0  0
 18 13  1  0  0  0  0
 19 20  1  0  0  0  0
 20 18  1  0  0  0  0
 22 31  1  0  0  0  0
 23 30  1  0  0  0  0
 24 29  1  0  0  0  0
 24 25  2  0  0  0  0
 25 26  1  0  0  0  0
 26 28  1  0  0  0  0
 26 22  2  0  0  0  0
 27 28  1  0  0  0  0
 28 23  2  0  0  0  0
 29 27  2  0  0  0  0
 30 21  1  0  0  0  0
 31 30  2  0  0  0  0
 32 24  1  1  0  0  0
 33 32  1  0  0  0  0
 34 33  1  0  0  0  0
 34 32  1  0  0  0  0
M  END
>  <MODEL>
4

>  <REMARK>
 VINA RESULT:      -5.9      2.129      4.044
  Name = 
  5 active torsions:
  status: ('A' for Active; 'I' for Inactive)
    1  A    between atoms: C_3  and  C_24
    2  A    between atoms: C_3  and  C_25
    3  A    between atoms: C_7  and  C_11
    4  A    between atoms: C_8  and  C_18
    5  A    between atoms: C_18  and  C_30
                            x       y       z     vdW  Elec       q    Type
                         _______ _______ _______ _____ _____    ______ ____

>  <TORSDO>
F 5

$$$$
=
 OpenBabel11062409483D

 34 39  0  0  1  0  0  0  0  0999 V2000
  160.4940  212.3890  154.2970 C   0  0  1  0  0  3  0  0  0  0  0  0
  157.6630  214.4500  155.9150 C   0  0  0  0  0  2  0  0  0  0  0  0
  158.5660  214.3320  153.5590 N   0  0  0  0  0  2  0  0  0  0  0  0
  160.2990  209.8790  154.2930 C   0  0  1  0  0  3  0  0  0  0  0  0
  161.1660  211.0700  154.6840 C   0  0  0  0  0  2  0  0  0  0  0  0
  159.1930  211.1790  152.4830 N   0  0  0  0  0  0  0  0  0  0  0  0
  157.8920  211.1530  153.1520 C   0  0  0  0  0  1  0  0  0  0  0  0
  159.9220  209.9480  152.8080 C   0  0  0  0  0  2  0  0  0  0  0  0
  159.2740  213.6510  152.5190 C   0  0  0  0  0  0  0  0  0  0  0  0
  159.9950  212.3720  152.8350 C   0  0  1  0  0  3  0  0  0  0  0  0
  159.2550  214.0970  151.3430 O   0  0  0  0  0  0  0  0  0  0  0  0
  156.6100  213.4610  156.3250 C   0  0  0  0  0  3  0  0  0  0  0  0
  156.8220  212.2170  156.8000 C   0  0  0  0  0  0  0  0  0  0  0  0
  158.1670  211.5210  156.9160 C   0  0  0  0  0  2  0  0  0  0  0  0
  158.6070  213.8660  154.9150 C   0  0  0  0  0  0  0  0  0  0  0  0
  159.4150  212.3700  156.6880 C   0  0  0  0  0  2  0  0  0  0  0  0
  159.4530  212.8860  155.2790 C   0  0  0  0  0  0  0  0  0  0  0  0
  155.6130  211.4020  157.1320 C   0  0  0  0  0  2  0  0  0  0  0  0
  154.0830  209.7670  156.2920 O   0  0  0  0  0  1  0  0  0  0  0  0
  155.2070  210.5240  155.9590 C   0  0  0  0  0  2  0  0  0  0  0  0
  160.9680  208.5500  154.6500 C   0  0  0  0  0  2  0  0  0  0  0  0
  161.0170  205.3110  152.6890 C   0  0  0  0  0  3  0  0  0  0  0  0
  161.1000  208.0420  152.2290 N   0  0  0  0  0  0  0  0  0  0  0  0
  161.2810  205.4210  148.9960 C   0  0  0  0  0  0  0  0  0  0  0  0
  161.1710  204.9200  150.3000 C   0  0  0  0  0  3  0  0  0  0  0  0
  161.1140  205.7960  151.3860 C   0  0  0  0  0  0  0  0  0  0  0  0
  161.2460  207.6900  149.8700 C   0  0  0  0  0  3  0  0  0  0  0  0
  161.1550  207.1910  151.1710 C   0  0  0  0  0  0  0  0  0  0  0  0
  161.3040  206.8090  148.7860 C   0  0  0  0  0  3  0  0  0  0  0  0
  161.0060  207.5820  153.5080 C   0  0  0  0  0  0  0  0  0  0  0  0
  160.9640  206.2060  153.7600 C   0  0  0  0  0  3  0  0  0  0  0  0
  161.2970  204.4860  147.8260 C   0  0  1  0  0  3  0  0  0  0  0  0
  161.4410  205.2270  146.5730 C   0  0  0  0  0  2  0  0  0  0  0  0
  162.6060  204.5480  147.1510 N   0  0  0  0  0  2  0  0  0  0  0  0
  1  5  1  1  0  0  0
  1 17  1  0  0  0  0
  2 12  1  0  0  0  0
  3 15  1  0  0  0  0
  4 21  1  6  0  0  0
  4  5  1  0  0  0  0
  6  8  1  0  0  0  0
  6 10  1  0  0  0  0
  6  7  1  0  0  0  0
  8  4  1  0  0  0  0
  9  3  1  0  0  0  0
 10  9  1  1  0  0  0
 10  1  1  0  0  0  0
 11  9  2  0  0  0  0
 12 13  2  0  0  0  0
 13 14  1  0  0  0  0
 13 18  1  0  0  0  0
 15 17  2  0  0  0  0
 15  2  1  0  0  0  0
 16 14  1  0  0  0  0
 17 16  1  0  0  0  0
 20 19  1  0  0  0  0
 20 18  1  0  0  0  0
 22 31  1  0  0  0  0
 23 30  1  0  0  0  0
 24 25  2  0  0  0  0
 25 26  1  0  0  0  0
 26 22  2  0  0  0  0
 27 28  1  0  0  0  0
 28 26  1  0  0  0  0
 28 23  2  0  0  0  0
 29 24  1  0  0  0  0
 29 27  2  0  0  0  0
 30 31  2  0  0  0  0
 30 21  1  0  0  0  0
 32 24  1  1  0  0  0
 33 34  1  0  0  0  0
 33 32  1  0  0  0  0
 34 32  1  0  0  0  0
M  END
>  <MODEL>
5

>  <REMARK>
 VINA RESULT:      -5.6      1.935      4.215
  Name = 
  5 active torsions:
  status: ('A' for Active; 'I' for Inactive)
    1  A    between atoms: C_3  and  C_24
    2  A    between atoms: C_3  and  C_25
    3  A    between atoms: C_7  and  C_11
    4  A    between atoms: C_8  and  C_18
    5  A    between atoms: C_18  and  C_30
                            x       y       z     vdW  Elec       q    Type
                         _______ _______ _______ _____ _____    ______ ____

>  <TORSDO>
F 5

$$$$
=
 OpenBabel11062409483D

 34 39  0  0  1  0  0  0  0  0999 V2000
  160.8830  209.7480  157.1990 C   0  0  1  0  0  3  0  0  0  0  0  0
  159.1480  213.1780  156.8780 C   0  0  0  0  0  2  0  0  0  0  0  0
  161.5620  212.5010  157.1780 N   0  0  0  0  0  2  0  0  0  0  0  0
  160.7250  208.1380  155.2700 C   0  0  1  0  0  3  0  0  0  0  0  0
  160.4810  208.3390  156.7610 C   0  0  0  0  0  2  0  0  0  0  0  0
  162.5050  209.8770  155.2490 N   0  0  0  0  0  0  0  0  0  0  0  0
  161.7250  210.7760  154.3980 C   0  0  0  0  0  1  0  0  0  0  0  0
  162.1730  208.4900  154.9070 C   0  0  0  0  0  2  0  0  0  0  0  0
  162.6190  211.5410  157.0750 C   0  0  0  0  0  0  0  0  0  0  0  0
  162.2940  210.1260  156.6920 C   0  0  1  0  0  3  0  0  0  0  0  0
  163.8120  211.8910  157.2610 O   0  0  0  0  0  0  0  0  0  0  0  0
  158.5920  213.2350  155.4840 C   0  0  0  0  0  3  0  0  0  0  0  0
  158.0660  212.2050  154.7900 C   0  0  0  0  0  0  0  0  0  0  0  0
  158.0260  210.7530  155.2350 C   0  0  0  0  0  2  0  0  0  0  0  0
  160.1910  212.1160  157.0110 C   0  0  0  0  0  0  0  0  0  0  0  0
  158.4110  210.4560  156.6830 C   0  0  0  0  0  2  0  0  0  0  0  0
  159.8450  210.8190  156.9330 C   0  0  0  0  0  0  0  0  0  0  0  0
  157.5840  212.4960  153.4050 C   0  0  0  0  0  2  0  0  0  0  0  0
  158.1500  213.5450  151.3320 O   0  0  0  0  0  1  0  0  0  0  0  0
  158.6090  213.3070  152.6280 C   0  0  0  0  0  2  0  0  0  0  0  0
  160.3510  206.7250  154.8190 C   0  0  0  0  0  2  0  0  0  0  0  0
  161.1680  204.8810  151.6140 C   0  0  0  0  0  3  0  0  0  0  0  0
  160.9070  207.4840  152.5280 N   0  0  0  0  0  0  0  0  0  0  0  0
  161.9440  206.8130  148.5500 C   0  0  0  0  0  0  0  0  0  0  0  0
  161.7220  205.7280  149.4100 C   0  0  0  0  0  3  0  0  0  0  0  0
  161.3790  205.9510  150.7440 C   0  0  0  0  0  0  0  0  0  0  0  0
  161.4450  208.3500  150.3660 C   0  0  0  0  0  3  0  0  0  0  0  0
  161.2410  207.2700  151.2280 C   0  0  0  0  0  0  0  0  0  0  0  0
  161.7890  208.1220  149.0310 C   0  0  0  0  0  3  0  0  0  0  0  0
  160.6980  206.4490  153.3890 C   0  0  0  0  0  0  0  0  0  0  0  0
  160.8260  205.1280  152.9460 C   0  0  0  0  0  3  0  0  0  0  0  0
  162.2690  206.5780  147.1060 C   0  0  1  0  0  3  0  0  0  0  0  0
  162.2560  205.1490  146.7990 C   0  0  0  0  0  2  0  0  0  0  0  0
  161.1090  205.9820  146.4200 N   0  0  0  0  0  2  0  0  0  0  0  0
  1  5  1  6  0  0  0
  2 15  1  0  0  0  0
  4 21  1  1  0  0  0
  4  5  1  0  0  0  0
  6 10  1  0  0  0  0
  7  6  1  0  0  0  0
  8  6  1  0  0  0  0
  8  4  1  0  0  0  0
  9  3  1  0  0  0  0
  9 11  2  0  0  0  0
 10  9  1  6  0  0  0
 10  1  1  0  0  0  0
 12  2  1  0  0  0  0
 13 14  1  0  0  0  0
 13 12  2  0  0  0  0
 14 16  1  0  0  0  0
 15  3  1  0  0  0  0
 16 17  1  0  0  0  0
 17 15  2  0  0  0  0
 17  1  1  0  0  0  0
 18 13  1  0  0  0  0
 19 20  1  0  0  0  0
 20 18  1  0  0  0  0
 22 31  1  0  0  0  0
 23 30  1  0  0  0  0
 24 29  1  0  0  0  0
 24 25  2  0  0  0  0
 25 26  1  0  0  0  0
 26 28  1  0  0  0  0
 26 22  2  0  0  0  0
 27 28  1  0  0  0  0
 28 23  2  0  0  0  0
 29 27  2  0  0  0  0
 30 21  1  0  0  0  0
 31 30  2  0  0  0  0
 32 24  1  1  0  0  0
 33 32  1  0  0  0  0
 34 33  1  0  0  0  0
 34 32  1  0  0  0  0
M  END
>  <MODEL>
6

>  <REMARK>
 VINA RESULT:      -4.9      2.170      3.863
  Name = 
  5 active torsions:
  status: ('A' for Active; 'I' for Inactive)
    1  A    between atoms: C_3  and  C_24
    2  A    between atoms: C_3  and  C_25
    3  A    between atoms: C_7  and  C_11
    4  A    between atoms: C_8  and  C_18
    5  A    between atoms: C_18  and  C_30
                            x       y       z     vdW  Elec       q    Type
                         _______ _______ _______ _____ _____    ______ ____

>  <TORSDO>
F 5

$$$$
=
 OpenBabel11062409483D

 34 39  0  0  1  0  0  0  0  0999 V2000
  160.3080  208.8310  154.1050 C   0  0  1  0  0  3  0  0  0  0  0  0
  157.8790  210.8920  156.2810 C   0  0  0  0  0  2  0  0  0  0  0  0
  160.0240  209.6630  156.8010 N   0  0  0  0  0  2  0  0  0  0  0  0
  161.4900  209.9840  152.2050 C   0  0  1  0  0  3  0  0  0  0  0  0
  160.5940  208.8170  152.6030 C   0  0  0  0  0  2  0  0  0  0  0  0
  162.4640  210.1170  154.4910 N   0  0  0  0  0  0  0  0  0  0  0  0
  161.8710  211.4290  154.7520 C   0  0  0  0  0  1  0  0  0  0  0  0
  162.7630  210.0050  153.0590 C   0  0  0  0  0  2  0  0  0  0  0  0
  161.2700  209.0870  156.3970 C   0  0  0  0  0  0  0  0  0  0  0  0
  161.6010  208.9990  154.9350 C   0  0  1  0  0  3  0  0  0  0  0  0
  162.0970  208.6990  157.2600 O   0  0  0  0  0  0  0  0  0  0  0  0
  157.9720  212.3060  155.7830 C   0  0  0  0  0  3  0  0  0  0  0  0
  158.1400  212.6940  154.5020 C   0  0  0  0  0  0  0  0  0  0  0  0
  158.3800  211.7780  153.3140 C   0  0  0  0  0  2  0  0  0  0  0  0
  159.0480  210.0740  155.8340 C   0  0  0  0  0  0  0  0  0  0  0  0
  158.1950  210.2790  153.5390 C   0  0  0  0  0  2  0  0  0  0  0  0
  159.1960  209.7670  154.5330 C   0  0  0  0  0  0  0  0  0  0  0  0
  158.2170  214.1640  154.2430 C   0  0  0  0  0  2  0  0  0  0  0  0
  157.0600  214.2640  152.1530 O   0  0  0  0  0  1  0  0  0  0  0  0
  158.3050  214.4530  152.7520 C   0  0  0  0  0  2  0  0  0  0  0  0
  161.8070  209.9710  150.7090 C   0  0  0  0  0  2  0  0  0  0  0  0
  161.5830  207.2110  148.1260 C   0  0  0  0  0  3  0  0  0  0  0  0
  161.4840  207.5210  150.8770 N   0  0  0  0  0  0  0  0  0  0  0  0
  161.0340  203.7190  149.2340 C   0  0  0  0  0  0  0  0  0  0  0  0
  161.2410  204.8250  148.3980 C   0  0  0  0  0  3  0  0  0  0  0  0
  161.3890  206.1000  148.9460 C   0  0  0  0  0  0  0  0  0  0  0  0
  161.1520  205.1730  151.1790 C   0  0  0  0  0  3  0  0  0  0  0  0
  161.3410  206.2780  150.3460 C   0  0  0  0  0  0  0  0  0  0  0  0
  161.0040  203.8980  150.6260 C   0  0  0  0  0  3  0  0  0  0  0  0
  161.6740  208.6150  150.0880 C   0  0  0  0  0  0  0  0  0  0  0  0
  161.7260  208.4780  148.6960 C   0  0  0  0  0  3  0  0  0  0  0  0
  160.9200  202.3430  148.6530 C   0  0  1  0  0  3  0  0  0  0  0  0
  160.9830  201.3300  149.7060 C   0  0  0  0  0  2  0  0  0  0  0  0
  159.6840  201.6970  149.1300 N   0  0  0  0  0  2  0  0  0  0  0  0
  1  5  1  6  0  0  0
  1 17  1  0  0  0  0
  1 10  1  0  0  0  0
  4 21  1  6  0  0  0
  4  5  1  0  0  0  0
  4  8  1  0  0  0  0
  6  7  1  0  0  0  0
  6 10  1  0  0  0  0
  8  6  1  0  0  0  0
  9  3  1  0  0  0  0
  9 11  2  0  0  0  0
 10  9  1  1  0  0  0
 12  2  1  0  0  0  0
 13 12  2  0  0  0  0
 14 16  1  0  0  0  0
 14 13  1  0  0  0  0
 15  2  1  0  0  0  0
 15  3  1  0  0  0  0
 16 17  1  0  0  0  0
 17 15  2  0  0  0  0
 18 13  1  0  0  0  0
 19 20  1  0  0  0  0
 20 18  1  0  0  0  0
 22 31  2  0  0  0  0
 22 26  1  0  0  0  0
 24 29  1  0  0  0  0
 25 26  1  0  0  0  0
 25 24  2  0  0  0  0
 26 28  2  0  0  0  0
 28 23  1  0  0  0  0
 28 27  1  0  0  0  0
 29 27  2  0  0  0  0
 30 21  1  0  0  0  0
 30 23  2  0  0  0  0
 31 30  1  0  0  0  0
 32 34  1  0  0  0  0
 32 24  1  1  0  0  0
 32 33  1  0  0  0  0
 34 33  1  0  0  0  0
M  END
>  <MODEL>
7

>  <REMARK>
 VINA RESULT:      -4.6      2.412      4.532
  Name = 
  5 active torsions:
  status: ('A' for Active; 'I' for Inactive)
    1  A    between atoms: C_3  and  C_24
    2  A    between atoms: C_3  and  C_25
    3  A    between atoms: C_7  and  C_11
    4  A    between atoms: C_8  and  C_18
    5  A    between atoms: C_18  and  C_30
                            x       y       z     vdW  Elec       q    Type
                         _______ _______ _______ _____ _____    ______ ____

>  <TORSDO>
F 5

$$$$
