=
 OpenBabel11062409153D

 37 41  0  0  1  0  0  0  0  0999 V2000
  159.2320  211.8450  154.9960 C   0  0  1  0  0  3  0  0  0  0  0  0
  162.4500  210.4210  155.0080 S   0  0  1  0  0  0  0  0  0  0  0  0
  158.5490  210.9340  152.6160 C   0  0  0  0  0  2  0  0  0  0  0  0
  161.1370  206.3800  153.7670 C   0  0  0  0  0  3  0  0  0  0  0  0
  160.9750  210.2250  153.9640 C   0  0  1  0  0  0  0  0  0  0  0  0
  161.2900  207.6810  154.2550 C   0  0  0  0  0  0  0  0  0  0  0  0
  161.0830  211.3090  152.8480 C   0  0  2  0  0  3  0  0  0  0  0  0
  161.7750  207.8260  155.5620 O   0  0  0  0  0  0  0  0  0  0  0  0
  160.9570  208.7900  153.4270 C   0  0  0  0  0  0  0  0  0  0  0  0
  160.3390  207.2260  151.6550 C   0  0  0  0  0  3  0  0  0  0  0  0
  162.1230  211.6020  155.9150 O   0  0  0  0  0  0  0  0  0  0  0  0
  162.3010  209.0130  156.0640 C   0  0  0  0  0  0  0  0  0  0  0  0
  160.4710  208.5290  152.1320 C   0  0  0  0  0  3  0  0  0  0  0  0
  159.7870  211.6680  152.1050 C   0  0  0  0  0  2  0  0  0  0  0  0
  162.6860  209.0730  157.2600 O   0  0  0  0  0  0  0  0  0  0  0  0
  159.7170  210.3950  154.8650 C   0  0  2  0  0  3  0  0  0  0  0  0
  160.6690  206.1440  152.4690 C   0  0  0  0  0  0  0  0  0  0  0  0
  158.4520  210.8390  154.1420 C   0  0  1  0  0  0  0  0  0  0  0  0
  160.5200  204.8490  151.9660 O   0  0  0  0  0  0  0  0  0  0  0  0
  161.0870  204.4350  150.7300 C   0  0  0  0  0  1  0  0  0  0  0  0
  158.6460  212.0530  156.3830 C   0  0  0  0  0  2  0  0  0  0  0  0
  159.2810  214.3030  155.5810 C   0  0  0  0  0  1  0  0  0  0  0  0
  158.7040  213.5220  156.7430 C   0  0  0  0  0  2  0  0  0  0  0  0
  157.1980  210.1880  154.7130 C   0  0  0  0  0  2  0  0  0  0  0  0
  156.0660  210.8890  154.2960 O   0  0  0  0  0  0  0  0  0  0  0  0
  155.7870  211.7620  155.3470 C   0  0  0  0  0  2  0  0  0  0  0  0
  155.9340  213.5330  153.6730 C   0  0  0  0  0  2  0  0  0  0  0  0
  155.3860  213.0860  154.7980 C   0  0  0  0  0  3  0  0  0  0  0  0
  162.2420  211.0910  151.8790 C   0  0  0  0  0  2  0  0  0  0  0  0
  161.7370  210.5210  150.5660 C   0  0  0  0  0  2  0  0  0  0  0  0
  163.1120  211.4980  148.7180 C   0  0  0  0  0  3  0  0  0  0  0  0
  161.9340  211.5130  149.4740 C   0  0  0  0  0  0  0  0  0  0  0  0
  160.9570  212.4830  149.2230 C   0  0  0  0  0  3  0  0  0  0  0  0
  160.1110  214.4530  147.9410 C   0  0  0  0  0  1  0  0  0  0  0  0
  162.3260  213.4080  147.4540 C   0  0  0  0  0  3  0  0  0  0  0  0
  161.1520  213.4280  148.2110 C   0  0  0  0  0  0  0  0  0  0  0  0
  163.3070  212.4440  147.7080 C   0  0  0  0  0  3  0  0  0  0  0  0
  1 21  1  1  0  0  0
  2 11  2  1  0  0  0
  2 12  1  0  0  0  0
  3 18  1  0  0  0  0
  4  6  1  0  0  0  0
  5  9  1  6  0  0  0
  5 16  1  0  0  0  0
  5  2  1  0  0  0  0
  6  8  1  0  0  0  0
  7 29  1  6  0  0  0
  7  5  1  0  0  0  0
  8 12  1  0  0  0  0
  9  6  2  0  0  0  0
 10 13  2  0  0  0  0
 10 17  1  0  0  0  0
 12 15  2  0  0  0  0
 13  9  1  0  0  0  0
 14  3  1  0  0  0  0
 14  7  1  0  0  0  0
 16  1  1  0  0  0  0
 17  4  2  0  0  0  0
 18 24  1  0  0  0  0
 18 16  1  0  0  0  0
 18  1  1  0  0  0  0
 19 17  1  0  0  0  0
 20 19  1  0  0  0  0
 21 23  1  0  0  0  0
 22 23  1  0  0  0  0
 25 24  1  0  0  0  0
 25 26  1  0  0  0  0
 27 28  2  0  0  0  0
 28 26  1  0  0  0  0
 30 29  1  0  0  0  0
 31 32  1  0  0  0  0
 32 30  1  0  0  0  0
 33 32  2  0  0  0  0
 34 36  1  0  0  0  0
 35 37  1  0  0  0  0
 35 36  2  0  0  0  0
 36 33  1  0  0  0  0
 37 31  2  0  0  0  0
M  END
>  <MODEL>
1

>  <REMARK>
 VINA RESULT:      -1.6      0.000      0.000
  Name = 
  10 active torsions:
  status: ('A' for Active; 'I' for Inactive)
    1  A    between atoms: C_1  and  C_5
    2  A    between atoms: O_3  and  C_32
    3  A    between atoms: C_5  and  C_23
    4  A    between atoms: C_6  and  C_31
    5  A    between atoms: C_14  and  C_37
    6  A    between atoms: O_17  and  C_26
    7  A    between atoms: O_17  and  C_33
    8  A    between atoms: C_26  and  C_34
    9  A    between atoms: C_31  and  C_37
   10  A    between atoms: C_33  and  C_36
                            x       y       z     vdW  Elec       q    Type
                         _______ _______ _______ _____ _____    ______ ____

>  <TORSDO>
F 10

$$$$
=
 OpenBabel11062409153D

 37 41  0  0  1  0  0  0  0  0999 V2000
  161.0870  210.6690  156.4210 C   0  0  1  0  0  3  0  0  0  0  0  0
  158.6070  210.3000  153.9530 S   0  0  1  0  0  0  0  0  0  0  0  0
  162.9310  209.2720  155.1550 C   0  0  0  0  0  2  0  0  0  0  0  0
  161.2110  211.4270  150.5550 C   0  0  0  0  0  3  0  0  0  0  0  0
  160.3920  209.9640  154.0240 C   0  0  1  0  0  0  0  0  0  0  0  0
  160.5690  211.2220  151.7800 C   0  0  0  0  0  0  0  0  0  0  0  0
  160.5410  208.5140  154.5820 C   0  0  2  0  0  3  0  0  0  0  0  0
  159.5410  212.1110  152.1240 O   0  0  0  0  0  0  0  0  0  0  0  0
  160.9690  210.1430  152.6170 C   0  0  0  0  0  0  0  0  0  0  0  0
  162.6390  209.5230  150.9450 C   0  0  0  0  0  3  0  0  0  0  0  0
  158.2250  210.6510  155.3860 O   0  0  0  0  0  0  0  0  0  0  0  0
  158.5940  211.8520  153.1110 C   0  0  0  0  0  0  0  0  0  0  0  0
  162.0190  209.3160  152.1760 C   0  0  0  0  0  3  0  0  0  0  0  0
  161.9120  208.1350  155.1620 C   0  0  0  0  0  2  0  0  0  0  0  0
  157.7200  212.7150  153.3850 O   0  0  0  0  0  0  0  0  0  0  0  0
  161.0520  211.0410  154.9340 C   0  0  2  0  0  3  0  0  0  0  0  0
  162.2410  210.5800  150.1280 C   0  0  0  0  0  0  0  0  0  0  0  0
  162.3680  210.6320  155.5820 C   0  0  1  0  0  0  0  0  0  0  0  0
  162.8860  210.7680  148.9020 O   0  0  0  0  0  0  0  0  0  0  0  0
  162.6580  211.9050  148.0810 C   0  0  0  0  0  1  0  0  0  0  0  0
  160.9410  211.9320  157.2560 C   0  0  0  0  0  2  0  0  0  0  0  0
  159.4200  213.7980  156.6970 C   0  0  0  0  0  1  0  0  0  0  0  0
  159.4980  212.3870  157.2400 C   0  0  0  0  0  2  0  0  0  0  0  0
  163.3560  211.7890  155.6720 C   0  0  0  0  0  2  0  0  0  0  0  0
  164.5230  211.3680  156.3120 O   0  0  0  0  0  0  0  0  0  0  0  0
  165.0820  212.5370  156.8250 C   0  0  0  0  0  2  0  0  0  0  0  0
  166.8660  213.5750  155.5210 C   0  0  0  0  0  2  0  0  0  0  0  0
  166.5020  212.6390  156.3910 C   0  0  0  0  0  3  0  0  0  0  0  0
  160.0080  207.4310  153.6480 C   0  0  0  0  0  2  0  0  0  0  0  0
  160.9410  206.2340  153.6350 C   0  0  0  0  0  2  0  0  0  0  0  0
  160.8100  204.1500  152.2580 C   0  0  0  0  0  3  0  0  0  0  0  0
  160.8660  205.5480  152.3160 C   0  0  0  0  0  0  0  0  0  0  0  0
  160.8860  206.2950  151.1340 C   0  0  0  0  0  3  0  0  0  0  0  0
  160.8520  206.4430  148.6410 C   0  0  0  0  0  1  0  0  0  0  0  0
  160.7760  204.2530  149.8380 C   0  0  0  0  0  3  0  0  0  0  0  0
  160.8380  205.6480  149.8950 C   0  0  0  0  0  0  0  0  0  0  0  0
  160.7630  203.5030  151.0190 C   0  0  0  0  0  3  0  0  0  0  0  0
  1 21  1  1  0  0  0
  2  5  1  0  0  0  0
  2 11  2  1  0  0  0
  3 14  1  0  0  0  0
  3 18  1  0  0  0  0
  4  6  1  0  0  0  0
  5  9  1  6  0  0  0
  5  7  1  0  0  0  0
  5 16  1  0  0  0  0
  6  8  1  0  0  0  0
  6  9  2  0  0  0  0
  7 29  1  6  0  0  0
  7 14  1  0  0  0  0
  8 12  1  0  0  0  0
 10 13  2  0  0  0  0
 12 15  2  0  0  0  0
 12  2  1  0  0  0  0
 13  9  1  0  0  0  0
 16 18  1  0  0  0  0
 16  1  1  0  0  0  0
 17  4  2  0  0  0  0
 17 10  1  0  0  0  0
 18 24  1  0  0  0  0
 18  1  1  0  0  0  0
 19 17  1  0  0  0  0
 20 19  1  0  0  0  0
 22 23  1  0  0  0  0
 23 21  1  0  0  0  0
 24 25  1  0  0  0  0
 25 26  1  0  0  0  0
 27 28  2  0  0  0  0
 28 26  1  0  0  0  0
 30 29  1  0  0  0  0
 31 32  1  0  0  0  0
 32 30  1  0  0  0  0
 33 32  2  0  0  0  0
 34 36  1  0  0  0  0
 35 36  2  0  0  0  0
 35 37  1  0  0  0  0
 36 33  1  0  0  0  0
 37 31  2  0  0  0  0
M  END
>  <MODEL>
2

>  <REMARK>
 VINA RESULT:      -1.1      2.629      6.260
  Name = 
  10 active torsions:
  status: ('A' for Active; 'I' for Inactive)
    1  A    between atoms: C_1  and  C_5
    2  A    between atoms: O_3  and  C_32
    3  A    between atoms: C_5  and  C_23
    4  A    between atoms: C_6  and  C_31
    5  A    between atoms: C_14  and  C_37
    6  A    between atoms: O_17  and  C_26
    7  A    between atoms: O_17  and  C_33
    8  A    between atoms: C_26  and  C_34
    9  A    between atoms: C_31  and  C_37
   10  A    between atoms: C_33  and  C_36
                            x       y       z     vdW  Elec       q    Type
                         _______ _______ _______ _____ _____    ______ ____

>  <TORSDO>
F 10

$$$$
=
 OpenBabel11062409153D

 37 41  0  0  1  0  0  0  0  0999 V2000
  158.7580  210.9700  153.7420 C   0  0  1  0  0  3  0  0  0  0  0  0
  161.5290  209.0650  152.7080 S   0  0  1  0  0  0  0  0  0  0  0  0
  159.3000  210.8480  156.3210 C   0  0  0  0  0  2  0  0  0  0  0  0
  164.5040  211.2960  155.1080 C   0  0  0  0  0  3  0  0  0  0  0  0
  161.0340  209.8460  154.2720 C   0  0  1  0  0  0  0  0  0  0  0  0
  163.4170  210.8290  154.3640 C   0  0  0  0  0  0  0  0  0  0  0  0
  160.1580  208.7980  155.0260 C   0  0  2  0  0  3  0  0  0  0  0  0
  163.4850  210.9640  152.9710 O   0  0  0  0  0  0  0  0  0  0  0  0
  162.3040  210.2440  155.0310 C   0  0  0  0  0  0  0  0  0  0  0  0
  163.4370  210.6220  157.1620 C   0  0  0  0  0  3  0  0  0  0  0  0
  160.3100  209.2110  151.8040 O   0  0  0  0  0  0  0  0  0  0  0  0
  162.6720  210.2590  152.0860 C   0  0  0  0  0  0  0  0  0  0  0  0
  162.3390  210.1650  156.4360 C   0  0  0  0  0  3  0  0  0  0  0  0
  159.2500  209.3320  156.1440 C   0  0  0  0  0  2  0  0  0  0  0  0
  162.7700  210.4590  150.8480 O   0  0  0  0  0  0  0  0  0  0  0  0
  160.2670  211.1590  153.9380 C   0  0  2  0  0  3  0  0  0  0  0  0
  164.5250  211.1920  156.5040 C   0  0  0  0  0  0  0  0  0  0  0  0
  159.2980  211.6410  155.0100 C   0  0  1  0  0  0  0  0  0  0  0  0
  165.6110  211.6470  157.2580 O   0  0  0  0  0  0  0  0  0  0  0  0
  166.5720  212.5610  156.7480 C   0  0  0  0  0  1  0  0  0  0  0  0
  158.2620  211.9540  152.6950 C   0  0  0  0  0  2  0  0  0  0  0  0
  159.6260  213.7770  151.7340 C   0  0  0  0  0  1  0  0  0  0  0  0
  159.3860  212.2830  151.7360 C   0  0  0  0  0  2  0  0  0  0  0  0
  159.2670  213.1600  155.1240 C   0  0  0  0  0  2  0  0  0  0  0  0
  158.3760  213.5430  156.1270 O   0  0  0  0  0  0  0  0  0  0  0  0
  157.3560  214.2140  155.4540 C   0  0  0  0  0  2  0  0  0  0  0  0
  155.8030  212.5020  156.2390 C   0  0  0  0  0  2  0  0  0  0  0  0
  156.2060  213.2910  155.2490 C   0  0  0  0  0  3  0  0  0  0  0  0
  160.9220  207.5530  155.4700 C   0  0  0  0  0  2  0  0  0  0  0  0
  160.2290  206.2990  154.9710 C   0  0  0  0  0  2  0  0  0  0  0  0
  162.0160  206.4760  153.2290 C   0  0  0  0  0  3  0  0  0  0  0  0
  160.9430  205.7650  153.7790 C   0  0  0  0  0  0  0  0  0  0  0  0
  160.5230  204.5690  153.1860 C   0  0  0  0  0  3  0  0  0  0  0  0
  160.7370  202.8070  151.4290 C   0  0  0  0  0  1  0  0  0  0  0  0
  162.2550  204.7880  151.5090 C   0  0  0  0  0  3  0  0  0  0  0  0
  161.1800  204.0790  152.0540 C   0  0  0  0  0  0  0  0  0  0  0  0
  162.6720  205.9870  152.0960 C   0  0  0  0  0  3  0  0  0  0  0  0
  1 21  1  6  0  0  0
  1 16  1  0  0  0  0
  1 18  1  0  0  0  0
  2 11  2  6  0  0  0
  2  5  1  0  0  0  0
  4 17  1  0  0  0  0
  5  7  1  0  0  0  0
  5  9  1  1  0  0  0
  6  9  1  0  0  0  0
  6  4  2  0  0  0  0
  7 29  1  1  0  0  0
  7 14  1  0  0  0  0
  8  6  1  0  0  0  0
  9 13  2  0  0  0  0
 12  2  1  0  0  0  0
 12  8  1  0  0  0  0
 13 10  1  0  0  0  0
 14  3  1  0  0  0  0
 15 12  2  0  0  0  0
 16  5  1  0  0  0  0
 16 18  1  0  0  0  0
 17 10  2  0  0  0  0
 17 19  1  0  0  0  0
 18 24  1  0  0  0  0
 18  3  1  0  0  0  0
 20 19  1  0  0  0  0
 22 23  1  0  0  0  0
 23 21  1  0  0  0  0
 24 25  1  0  0  0  0
 26 25  1  0  0  0  0
 28 26  1  0  0  0  0
 28 27  2  0  0  0  0
 30 29  1  0  0  0  0
 31 32  1  0  0  0  0
 32 30  1  0  0  0  0
 33 32  2  0  0  0  0
 34 36  1  0  0  0  0
 35 36  2  0  0  0  0
 35 37  1  0  0  0  0
 36 33  1  0  0  0  0
 37 31  2  0  0  0  0
M  END
>  <MODEL>
3

>  <REMARK>
 VINA RESULT:      -0.3      2.574      6.021
  Name = 
  10 active torsions:
  status: ('A' for Active; 'I' for Inactive)
    1  A    between atoms: C_1  and  C_5
    2  A    between atoms: O_3  and  C_32
    3  A    between atoms: C_5  and  C_23
    4  A    between atoms: C_6  and  C_31
    5  A    between atoms: C_14  and  C_37
    6  A    between atoms: O_17  and  C_26
    7  A    between atoms: O_17  and  C_33
    8  A    between atoms: C_26  and  C_34
    9  A    between atoms: C_31  and  C_37
   10  A    between atoms: C_33  and  C_36
                            x       y       z     vdW  Elec       q    Type
                         _______ _______ _______ _____ _____    ______ ____

>  <TORSDO>
F 10

$$$$
=
 OpenBabel11062409153D

 37 41  0  0  1  0  0  0  0  0999 V2000
  160.3030  207.7080  152.4760 C   0  0  1  0  0  3  0  0  0  0  0  0
  159.6530  207.7850  155.9330 S   0  0  1  0  0  0  0  0  0  0  0  0
  160.9390  210.2600  152.2700 C   0  0  0  0  0  2  0  0  0  0  0  0
  163.3880  209.8930  157.0260 C   0  0  0  0  0  3  0  0  0  0  0  0
  160.4250  208.9360  154.7580 C   0  0  1  0  0  0  0  0  0  0  0  0
  162.3540  209.1450  156.4570 C   0  0  0  0  0  0  0  0  0  0  0  0
  159.2680  209.8020  154.1710 C   0  0  2  0  0  3  0  0  0  0  0  0
  162.2290  207.8080  156.8600 O   0  0  0  0  0  0  0  0  0  0  0  0
  161.4820  209.7510  155.5100 C   0  0  0  0  0  0  0  0  0  0  0  0
  162.7300  211.8360  155.7600 C   0  0  0  0  0  3  0  0  0  0  0  0
  159.0670  206.6810  155.0610 O   0  0  0  0  0  0  0  0  0  0  0  0
  161.0810  207.0450  156.6630 C   0  0  0  0  0  0  0  0  0  0  0  0
  161.7030  211.0990  155.1720 C   0  0  0  0  0  3  0  0  0  0  0  0
  159.5540  210.5350  152.8510 C   0  0  0  0  0  2  0  0  0  0  0  0
  161.0570  205.8410  157.0240 O   0  0  0  0  0  0  0  0  0  0  0  0
  161.1720  208.0980  153.6790 C   0  0  2  0  0  3  0  0  0  0  0  0
  163.5790  211.2380  156.6890 C   0  0  0  0  0  0  0  0  0  0  0  0
  161.3770  208.7930  152.3380 C   0  0  1  0  0  0  0  0  0  0  0  0
  164.6040  212.0000  157.2580 O   0  0  0  0  0  0  0  0  0  0  0  0
  165.7220  212.4630  156.5120 C   0  0  0  0  0  1  0  0  0  0  0  0
  160.7420  206.3460  151.9630 C   0  0  0  0  0  2  0  0  0  0  0  0
  161.2890  204.0350  152.6440 C   0  0  0  0  0  1  0  0  0  0  0  0
  160.6160  205.3220  153.0700 C   0  0  0  0  0  2  0  0  0  0  0  0
  162.7160  208.4430  151.7010 C   0  0  0  0  0  2  0  0  0  0  0  0
  162.5210  207.5560  150.6410 O   0  0  0  0  0  0  0  0  0  0  0  0
  162.2860  208.3750  149.5380 C   0  0  0  0  0  2  0  0  0  0  0  0
  161.3540  206.4180  148.4150 C   0  0  0  0  0  2  0  0  0  0  0  0
  161.2900  207.7260  148.6420 C   0  0  0  0  0  3  0  0  0  0  0  0
  158.6010  210.7220  155.1900 C   0  0  0  0  0  2  0  0  0  0  0  0
  157.7120  211.7330  154.4900 C   0  0  0  0  0  2  0  0  0  0  0  0
  156.4100  213.4590  155.7510 C   0  0  0  0  0  3  0  0  0  0  0  0
  156.5840  212.1190  155.3830 C   0  0  0  0  0  0  0  0  0  0  0  0
  155.7170  211.1410  155.8810 C   0  0  0  0  0  3  0  0  0  0  0  0
  153.7480  210.4630  157.2600 C   0  0  0  0  0  1  0  0  0  0  0  0
  154.4960  212.8400  157.0990 C   0  0  0  0  0  3  0  0  0  0  0  0
  154.6720  211.5010  156.7370 C   0  0  0  0  0  0  0  0  0  0  0  0
  155.3660  213.8190  156.6070 C   0  0  0  0  0  3  0  0  0  0  0  0
  1 21  1  6  0  0  0
  1 16  1  0  0  0  0
  2 11  2  6  0  0  0
  2 12  1  0  0  0  0
  3 18  1  0  0  0  0
  3 14  1  0  0  0  0
  5  9  1  1  0  0  0
  5  2  1  0  0  0  0
  6  8  1  0  0  0  0
  6  4  2  0  0  0  0
  7  5  1  0  0  0  0
  7 29  1  1  0  0  0
  9  6  1  0  0  0  0
 10 17  2  0  0  0  0
 12  8  1  0  0  0  0
 12 15  2  0  0  0  0
 13  9  2  0  0  0  0
 13 10  1  0  0  0  0
 14  7  1  0  0  0  0
 16  5  1  0  0  0  0
 17  4  1  0  0  0  0
 17 19  1  0  0  0  0
 18  1  1  0  0  0  0
 18 16  1  0  0  0  0
 20 19  1  0  0  0  0
 21 23  1  0  0  0  0
 22 23  1  0  0  0  0
 24 18  1  0  0  0  0
 25 24  1  0  0  0  0
 26 25  1  0  0  0  0
 27 28  2  0  0  0  0
 28 26  1  0  0  0  0
 30 29  1  0  0  0  0
 30 32  1  0  0  0  0
 31 37  1  0  0  0  0
 32 31  2  0  0  0  0
 32 33  1  0  0  0  0
 33 36  2  0  0  0  0
 36 35  1  0  0  0  0
 36 34  1  0  0  0  0
 37 35  2  0  0  0  0
M  END
>  <MODEL>
4

>  <REMARK>
 VINA RESULT:       0.9      2.711      7.400
  Name = 
  10 active torsions:
  status: ('A' for Active; 'I' for Inactive)
    1  A    between atoms: C_1  and  C_5
    2  A    between atoms: O_3  and  C_32
    3  A    between atoms: C_5  and  C_23
    4  A    between atoms: C_6  and  C_31
    5  A    between atoms: C_14  and  C_37
    6  A    between atoms: O_17  and  C_26
    7  A    between atoms: O_17  and  C_33
    8  A    between atoms: C_26  and  C_34
    9  A    between atoms: C_31  and  C_37
   10  A    between atoms: C_33  and  C_36
                            x       y       z     vdW  Elec       q    Type
                         _______ _______ _______ _____ _____    ______ ____

>  <TORSDO>
F 10

$$$$
