=
 OpenBabel11062409393D

 34 39  0  0  0  0  0  0  0  0999 V2000
  161.3530  207.1440  150.5840 C   0  0  0  0  0  0  0  0  0  0  0  0
  161.6080  204.6580  147.7350 C   0  0  0  0  0  3  0  0  0  0  0  0
  162.0110  206.9570  147.8420 C   0  0  0  0  0  3  0  0  0  0  0  0
  161.7440  208.1400  152.7290 O   0  0  0  0  0  0  0  0  0  0  0  0
  160.8840  207.3080  152.0050 C   0  0  0  0  0  2  0  0  0  0  0  0
  161.9480  209.5960  150.1740 C   0  0  0  0  0  0  0  0  0  0  0  0
  162.3590  210.2820  149.0820 N   0  0  0  0  0  0  0  0  0  0  0  0
  161.8930  210.2410  151.5290 C   0  0  0  0  0  2  0  0  0  0  0  0
  161.2630  209.3960  152.5380 N   0  0  0  0  0  0  0  0  0  0  0  0
  162.0680  208.1610  148.5190 C   0  0  0  0  0  0  0  0  0  0  0  0
  161.7610  208.2620  149.8420 C   0  0  0  0  0  0  0  0  0  0  0  0
  162.4270  209.4050  148.0540 C   0  0  0  0  0  3  0  0  0  0  0  0
  161.2800  203.3440  148.0240 C   0  0  0  0  0  3  0  0  0  0  0  0
  160.8600  202.7800  149.2190 C   0  0  0  0  0  0  0  0  0  0  0  0
  160.6780  203.4580  150.4120 C   0  0  0  0  0  3  0  0  0  0  0  0
  161.6200  205.7970  148.5320 C   0  0  0  0  0  0  0  0  0  0  0  0
  160.8600  204.7990  150.7070 C   0  0  0  0  0  3  0  0  0  0  0  0
  161.2770  205.8790  149.9220 C   0  0  0  0  0  0  0  0  0  0  0  0
  159.4100  210.0610  155.7280 C   0  0  0  0  0  3  0  0  0  0  0  0
  159.3970  210.9320  153.0660 C   0  0  0  0  0  3  0  0  0  0  0  0
  156.6510  212.5400  155.8250 C   0  0  0  0  0  0  0  0  0  0  0  0
  157.5790  211.5650  156.2300 C   0  0  0  0  0  3  0  0  0  0  0  0
  158.4910  211.0290  155.3190 C   0  0  0  0  0  0  0  0  0  0  0  0
  157.5650  212.4350  153.5670 C   0  0  0  0  0  3  0  0  0  0  0  0
  158.4840  211.4670  153.9770 C   0  0  0  0  0  0  0  0  0  0  0  0
  156.6560  212.9670  154.4850 C   0  0  0  0  0  3  0  0  0  0  0  0
  160.3240  209.9580  153.4740 C   0  0  0  0  0  0  0  0  0  0  0  0
  160.3200  209.5290  154.8110 C   0  0  0  0  0  3  0  0  0  0  0  0
  155.7110  213.0910  156.7660 N   0  0  0  0  0  0  0  0  0  0  0  0
  154.5910  212.3050  157.2600 C   0  0  0  0  0  1  0  0  0  0  0  0
  155.8460  214.4530  157.2570 C   0  0  0  0  0  1  0  0  0  0  0  0
  160.5710  201.3140  149.2430 C   0  0  0  0  0  3  0  0  0  0  0  0
  160.9790  200.7560  150.4560 O   0  0  0  0  0  1  0  0  0  0  0  0
  161.2200  200.6730  148.1870 O   0  0  0  0  0  1  0  0  0  0  0  0
  1  5  1  0  0  0  0
  2 13  2  0  0  0  0
  2 16  1  0  0  0  0
  3 10  1  0  0  0  0
  3 16  2  0  0  0  0
  5  4  1  0  0  0  0
  6  8  1  0  0  0  0
  7  6  2  0  0  0  0
  8  9  1  0  0  0  0
  9  4  1  0  0  0  0
  9 27  1  0  0  0  0
 10 11  1  0  0  0  0
 11  6  1  0  0  0  0
 11  1  2  0  0  0  0
 12 10  2  0  0  0  0
 12  7  1  0  0  0  0
 13 14  1  0  0  0  0
 14 32  1  0  0  0  0
 14 15  2  0  0  0  0
 15 17  1  0  0  0  0
 16 18  1  0  0  0  0
 18  1  1  0  0  0  0
 18 17  2  0  0  0  0
 20 27  2  0  0  0  0
 20 25  1  0  0  0  0
 21 22  1  0  0  0  0
 21 29  1  0  0  0  0
 23 19  1  0  0  0  0
 23 22  2  0  0  0  0
 24 25  2  0  0  0  0
 24 26  1  0  0  0  0
 25 23  1  0  0  0  0
 26 21  2  0  0  0  0
 27 28  1  0  0  0  0
 28 19  2  0  0  0  0
 29 31  1  0  0  0  0
 29 30  1  0  0  0  0
 32 33  1  0  0  0  0
 34 32  1  0  0  0  0
M  END
>  <MODEL>
1

>  <REMARK>
 VINA RESULT:     -10.1      0.000      0.000
  Name = 
  3 active torsions:
  status: ('A' for Active; 'I' for Inactive)
    1  A    between atoms: C_3  and  C_25
    2  A    between atoms: C_7  and  N_11
    3  A    between atoms: N_18  and  C_30
                            x       y       z     vdW  Elec       q    Type
                         _______ _______ _______ _____ _____    ______ ____

>  <TORSDO>
F 3

$$$$
=
 OpenBabel11062409393D

 34 39  0  0  0  0  0  0  0  0999 V2000
  160.2420  209.1060  153.3420 C   0  0  0  0  0  0  0  0  0  0  0  0
  158.3070  211.6250  155.4070 C   0  0  0  0  0  3  0  0  0  0  0  0
  159.3240  209.5990  155.9690 C   0  0  0  0  0  3  0  0  0  0  0  0
  161.9320  208.2300  151.8850 O   0  0  0  0  0  0  0  0  0  0  0  0
  160.6320  208.7440  151.9340 C   0  0  0  0  0  2  0  0  0  0  0  0
  161.1930  207.0180  154.4680 C   0  0  0  0  0  0  0  0  0  0  0  0
  161.1580  206.5500  155.7370 N   0  0  0  0  0  0  0  0  0  0  0  0
  162.0190  206.3470  153.4080 C   0  0  0  0  0  2  0  0  0  0  0  0
  161.7890  206.8930  152.0750 N   0  0  0  0  0  0  0  0  0  0  0  0
  160.0490  208.4630  155.6570 C   0  0  0  0  0  0  0  0  0  0  0  0
  160.5030  208.2200  154.3960 C   0  0  0  0  0  0  0  0  0  0  0  0
  160.4470  207.4320  156.4760 C   0  0  0  0  0  3  0  0  0  0  0  0
  157.8250  212.7390  154.7400 C   0  0  0  0  0  3  0  0  0  0  0  0
  157.9380  213.0860  153.4020 C   0  0  0  0  0  0  0  0  0  0  0  0
  158.5870  212.3470  152.4290 C   0  0  0  0  0  3  0  0  0  0  0  0
  159.0380  210.5320  154.9580 C   0  0  0  0  0  0  0  0  0  0  0  0
  159.2560  211.1380  152.5320 C   0  0  0  0  0  3  0  0  0  0  0  0
  159.4920  210.2910  153.6200 C   0  0  0  0  0  0  0  0  0  0  0  0
  161.7230  205.6670  148.5330 C   0  0  0  0  0  3  0  0  0  0  0  0
  161.3290  204.6590  151.1170 C   0  0  0  0  0  3  0  0  0  0  0  0
  160.9360  202.1200  147.7800 C   0  0  0  0  0  0  0  0  0  0  0  0
  161.2640  203.4760  147.6070 C   0  0  0  0  0  3  0  0  0  0  0  0
  161.3960  204.3210  148.7110 C   0  0  0  0  0  0  0  0  0  0  0  0
  160.8700  202.4680  150.1910 C   0  0  0  0  0  3  0  0  0  0  0  0
  161.1970  203.8140  150.0130 C   0  0  0  0  0  0  0  0  0  0  0  0
  160.7400  201.6280  149.0820 C   0  0  0  0  0  3  0  0  0  0  0  0
  161.6590  206.0140  150.9420 C   0  0  0  0  0  0  0  0  0  0  0  0
  161.8530  206.5080  149.6410 C   0  0  0  0  0  3  0  0  0  0  0  0
  160.8000  201.2500  146.6410 N   0  0  0  0  0  0  0  0  0  0  0  0
  160.1670  201.7080  145.4140 C   0  0  0  0  0  1  0  0  0  0  0  0
  161.2910  199.8820  146.6740 C   0  0  0  0  0  1  0  0  0  0  0  0
  157.3100  214.3650  152.9510 C   0  0  0  0  0  3  0  0  0  0  0  0
  155.9940  214.4500  153.4080 O   0  0  0  0  0  1  0  0  0  0  0  0
  157.3330  214.4530  151.5580 O   0  0  0  0  0  1  0  0  0  0  0  0
  1 18  2  0  0  0  0
  1 11  1  0  0  0  0
  4  5  1  0  0  0  0
  4  9  1  0  0  0  0
  5  1  1  0  0  0  0
  6  7  1  0  0  0  0
  7 12  2  0  0  0  0
  8  6  1  0  0  0  0
  9  8  1  0  0  0  0
 10  3  2  0  0  0  0
 10 12  1  0  0  0  0
 11  6  2  0  0  0  0
 11 10  1  0  0  0  0
 13  2  1  0  0  0  0
 14 13  2  0  0  0  0
 15 17  2  0  0  0  0
 15 14  1  0  0  0  0
 16  2  2  0  0  0  0
 16  3  1  0  0  0  0
 17 18  1  0  0  0  0
 18 16  1  0  0  0  0
 19 23  2  0  0  0  0
 19 28  1  0  0  0  0
 21 26  1  0  0  0  0
 22 21  2  0  0  0  0
 22 23  1  0  0  0  0
 23 25  1  0  0  0  0
 25 24  1  0  0  0  0
 25 20  2  0  0  0  0
 26 24  2  0  0  0  0
 27 20  1  0  0  0  0
 27  9  1  0  0  0  0
 28 27  2  0  0  0  0
 29 31  1  0  0  0  0
 29 21  1  0  0  0  0
 30 29  1  0  0  0  0
 32 14  1  0  0  0  0
 32 33  1  0  0  0  0
 34 32  1  0  0  0  0
M  END
>  <MODEL>
2

>  <REMARK>
 VINA RESULT:      -9.5      3.030     10.207
  Name = 
  3 active torsions:
  status: ('A' for Active; 'I' for Inactive)
    1  A    between atoms: C_3  and  C_25
    2  A    between atoms: C_7  and  N_11
    3  A    between atoms: N_18  and  C_30
                            x       y       z     vdW  Elec       q    Type
                         _______ _______ _______ _____ _____    ______ ____

>  <TORSDO>
F 3

$$$$
=
 OpenBabel11062409393D

 34 39  0  0  0  0  0  0  0  0999 V2000
  160.9570  208.8660  152.2760 C   0  0  0  0  0  0  0  0  0  0  0  0
  159.7050  212.3350  153.1480 C   0  0  0  0  0  3  0  0  0  0  0  0
  159.7780  210.3480  154.3750 C   0  0  0  0  0  3  0  0  0  0  0  0
  162.4630  207.1400  151.5720 O   0  0  0  0  0  0  0  0  0  0  0  0
  161.4600  208.0140  151.1420 C   0  0  0  0  0  2  0  0  0  0  0  0
  160.8350  207.0070  154.0250 C   0  0  0  0  0  0  0  0  0  0  0  0
  160.3800  206.9570  155.2980 N   0  0  0  0  0  0  0  0  0  0  0  0
  161.5520  205.8420  153.4050 C   0  0  0  0  0  2  0  0  0  0  0  0
  161.8080  206.0230  151.9800 N   0  0  0  0  0  0  0  0  0  0  0  0
  160.0850  209.0080  154.5190 C   0  0  0  0  0  0  0  0  0  0  0  0
  160.6600  208.2860  153.5180 C   0  0  0  0  0  0  0  0  0  0  0  0
  159.9080  208.1870  155.6090 C   0  0  0  0  0  3  0  0  0  0  0  0
  159.8070  213.3010  152.1600 C   0  0  0  0  0  3  0  0  0  0  0  0
  160.3020  213.1960  150.8690 C   0  0  0  0  0  0  0  0  0  0  0  0
  160.8160  212.0480  150.2930 C   0  0  0  0  0  3  0  0  0  0  0  0
  160.0600  210.9910  153.1580 C   0  0  0  0  0  0  0  0  0  0  0  0
  160.9630  210.7770  150.8250 C   0  0  0  0  0  3  0  0  0  0  0  0
  160.6520  210.2500  152.0820 C   0  0  0  0  0  0  0  0  0  0  0  0
  161.1770  202.5720  150.6600 C   0  0  0  0  0  3  0  0  0  0  0  0
  161.6070  205.1570  149.6710 C   0  0  0  0  0  3  0  0  0  0  0  0
  161.0000  201.9540  147.0060 C   0  0  0  0  0  0  0  0  0  0  0  0
  160.9880  201.7360  148.3940 C   0  0  0  0  0  3  0  0  0  0  0  0
  161.1890  202.7950  149.2810 C   0  0  0  0  0  0  0  0  0  0  0  0
  161.4210  204.3210  147.4060 C   0  0  0  0  0  3  0  0  0  0  0  0
  161.4070  204.0970  148.7840 C   0  0  0  0  0  0  0  0  0  0  0  0
  161.2180  203.2570  146.5240 C   0  0  0  0  0  3  0  0  0  0  0  0
  161.5940  204.9370  151.0590 C   0  0  0  0  0  0  0  0  0  0  0  0
  161.3790  203.6360  151.5430 C   0  0  0  0  0  3  0  0  0  0  0  0
  160.7930  200.8600  146.0920 N   0  0  0  0  0  0  0  0  0  0  0  0
  161.2880  199.5250  146.3900 C   0  0  0  0  0  1  0  0  0  0  0  0
  160.0820  201.0490  144.8380 C   0  0  0  0  0  1  0  0  0  0  0  0
  160.2880  214.4170  150.0080 C   0  0  0  0  0  3  0  0  0  0  0  0
  159.1310  214.4500  149.2280 O   0  0  0  0  0  1  0  0  0  0  0  0
  161.4140  214.4450  149.1840 O   0  0  0  0  0  1  0  0  0  0  0  0
  1 11  1  0  0  0  0
  2 16  2  0  0  0  0
  3 10  2  0  0  0  0
  4  9  1  0  0  0  0
  5  4  1  0  0  0  0
  5  1  1  0  0  0  0
  6  7  1  0  0  0  0
  7 12  2  0  0  0  0
  8  6  1  0  0  0  0
  9  8  1  0  0  0  0
 10 12  1  0  0  0  0
 11  6  2  0  0  0  0
 11 10  1  0  0  0  0
 13  2  1  0  0  0  0
 14 13  2  0  0  0  0
 15 17  2  0  0  0  0
 15 14  1  0  0  0  0
 16  3  1  0  0  0  0
 17 18  1  0  0  0  0
 18  1  2  0  0  0  0
 18 16  1  0  0  0  0
 19 28  1  0  0  0  0
 20 27  1  0  0  0  0
 21 22  2  0  0  0  0
 22 23  1  0  0  0  0
 23 19  2  0  0  0  0
 24 25  1  0  0  0  0
 25 23  1  0  0  0  0
 25 20  2  0  0  0  0
 26 21  1  0  0  0  0
 26 24  2  0  0  0  0
 27 28  2  0  0  0  0
 27  9  1  0  0  0  0
 29 30  1  0  0  0  0
 29 21  1  0  0  0  0
 31 29  1  0  0  0  0
 32 14  1  0  0  0  0
 33 32  1  0  0  0  0
 34 32  1  0  0  0  0
M  END
>  <MODEL>
3

>  <REMARK>
 VINA RESULT:      -9.1      3.306     10.031
  Name = 
  3 active torsions:
  status: ('A' for Active; 'I' for Inactive)
    1  A    between atoms: C_3  and  C_25
    2  A    between atoms: C_7  and  N_11
    3  A    between atoms: N_18  and  C_30
                            x       y       z     vdW  Elec       q    Type
                         _______ _______ _______ _____ _____    ______ ____

>  <TORSDO>
F 3

$$$$
