=
 OpenBabel11052422593D

 28 32  0  0  1  0  0  0  0  0999 V2000
  160.2300  211.4590  153.7240 C   0  0  1  0  0  3  0  0  0  0  0  0
  161.5920  208.3050  149.8840 C   0  0  0  0  0  3  0  0  0  0  0  0
  160.2700  207.0860  155.6970 C   0  0  0  0  0  1  0  0  0  0  0  0
  161.5680  206.0330  150.8460 C   0  0  2  0  0  3  0  0  0  0  0  0
  161.4800  208.2020  152.3560 C   0  0  1  0  0  3  0  0  0  0  0  0
  160.9900  206.4060  148.4190 C   0  0  0  0  0  0  0  0  0  0  0  0
  161.4620  207.5480  150.9880 C   0  0  0  0  0  0  0  0  0  0  0  0
  161.5370  205.9380  153.3690 C   0  0  0  0  0  2  0  0  0  0  0  0
  160.7930  205.5260  149.6240 C   0  0  0  0  0  2  0  0  0  0  0  0
  160.3800  209.2570  154.7840 C   0  0  2  0  0  3  0  0  0  0  0  0
  160.7260  209.5170  152.3920 C   0  0  0  0  0  2  0  0  0  0  0  0
  161.0950  205.2640  152.0790 C   0  0  0  0  0  2  0  0  0  0  0  0
  161.1240  211.3390  156.0870 C   0  0  0  0  0  2  0  0  0  0  0  0
  160.8700  207.3090  153.4340 C   0  0  1  0  0  3  0  0  0  0  0  0
  160.5830  209.9150  156.1700 C   0  0  0  0  0  2  0  0  0  0  0  0
  160.5390  206.0570  147.3390 O   0  0  0  0  0  0  0  0  0  0  0  0
  161.7600  207.6910  148.5210 C   0  0  0  0  0  2  0  0  0  0  0  0
  161.0200  207.9230  154.7630 N   0  0  0  0  0  0  0  0  0  0  0  0
  160.3020  212.1480  155.0940 C   0  0  0  0  0  2  0  0  0  0  0  0
  160.8940  210.1340  153.7060 N   0  0  1  0  0  0  0  0  0  0  0  0
  158.8010  211.5000  153.1380 C   0  0  0  0  0  2  0  0  0  0  0  0
  157.7660  212.0340  154.0780 C   0  0  0  0  0  0  0  0  0  0  0  0
  155.8530  213.0240  155.8640 C   0  0  0  0  0  0  0  0  0  0  0  0
  157.3740  213.3770  154.0140 C   0  0  0  0  0  3  0  0  0  0  0  0
  157.1920  211.1870  155.0320 C   0  0  0  0  0  3  0  0  0  0  0  0
  156.2370  211.6820  155.9260 C   0  0  0  0  0  3  0  0  0  0  0  0
  154.8820  213.5280  156.7740 N   0  0  0  0  0  1  0  0  0  0  0  0
  156.4190  213.8710  154.9060 C   0  0  0  0  0  3  0  0  0  0  0  0
  1 21  1  1  0  0  0
  1 19  1  0  0  0  0
  2  7  2  0  0  0  0
  4  9  1  6  0  0  0
  4  7  1  0  0  0  0
  4 12  1  0  0  0  0
  5 11  1  6  0  0  0
  5 14  1  0  0  0  0
  6 17  1  0  0  0  0
  6  9  1  0  0  0  0
  7  5  1  0  0  0  0
 10 15  1  1  0  0  0
 12  8  1  0  0  0  0
 13 15  1  0  0  0  0
 14  8  1  1  0  0  0
 14 18  1  0  0  0  0
 16  6  2  0  0  0  0
 17  2  1  0  0  0  0
 18 10  1  0  0  0  0
 18  3  1  0  0  0  0
 19 13  1  0  0  0  0
 20 11  1  6  0  0  0
 20  1  1  0  0  0  0
 20 10  1  0  0  0  0
 21 22  1  0  0  0  0
 22 25  1  0  0  0  0
 23 26  1  0  0  0  0
 23 27  1  0  0  0  0
 24 22  2  0  0  0  0
 24 28  1  0  0  0  0
 25 26  2  0  0  0  0
 28 23  2  0  0  0  0
M  END
>  <MODEL>
1

>  <REMARK>
 VINA RESULT:      -9.0      0.000      0.000
  Name = 
  2 active torsions:
  status: ('A' for Active; 'I' for Inactive)
    1  A    between atoms: C_1  and  C_2
    2  A    between atoms: C_2  and  C_3
                            x       y       z     vdW  Elec       q    Type
                         _______ _______ _______ _____ _____    ______ ____

>  <TORSDO>
F 2

$$$$
=
 OpenBabel11052422593D

 28 32  0  0  1  0  0  0  0  0999 V2000
  160.8590  211.1140  153.4260 C   0  0  1  0  0  3  0  0  0  0  0  0
  162.0170  207.7940  149.6610 C   0  0  0  0  0  3  0  0  0  0  0  0
  160.1850  206.7810  155.3740 C   0  0  0  0  0  1  0  0  0  0  0  0
  161.6270  205.5490  150.6060 C   0  0  2  0  0  3  0  0  0  0  0  0
  161.7400  207.7130  152.1200 C   0  0  1  0  0  3  0  0  0  0  0  0
  161.2560  205.9890  148.1500 C   0  0  0  0  0  0  0  0  0  0  0  0
  161.7180  207.0640  150.7500 C   0  0  0  0  0  0  0  0  0  0  0  0
  161.4270  205.4660  153.1220 C   0  0  0  0  0  2  0  0  0  0  0  0
  160.8670  205.1470  149.3360 C   0  0  0  0  0  2  0  0  0  0  0  0
  160.6440  208.9150  154.4810 C   0  0  2  0  0  3  0  0  0  0  0  0
  161.1700  209.1190  152.1170 C   0  0  0  0  0  2  0  0  0  0  0  0
  160.9790  204.8540  151.8040 C   0  0  0  0  0  2  0  0  0  0  0  0
  161.5810  210.8810  155.8390 C   0  0  0  0  0  2  0  0  0  0  0  0
  160.9490  206.9150  153.1530 C   0  0  1  0  0  3  0  0  0  0  0  0
  160.8480  209.5430  155.8810 C   0  0  0  0  0  2  0  0  0  0  0  0
  160.8300  205.7020  147.0430 O   0  0  0  0  0  0  0  0  0  0  0  0
  162.1850  207.1580  148.3070 C   0  0  0  0  0  2  0  0  0  0  0  0
  161.0980  207.5070  154.4920 N   0  0  0  0  0  0  0  0  0  0  0  0
  160.9390  211.7910  154.8020 C   0  0  0  0  0  2  0  0  0  0  0  0
  161.3380  209.7120  153.4420 N   0  0  1  0  0  0  0  0  0  0  0  0
  159.4880  211.3470  152.7530 C   0  0  0  0  0  2  0  0  0  0  0  0
  158.4610  211.9660  153.6480 C   0  0  0  0  0  0  0  0  0  0  0  0
  156.5210  213.1370  155.2910 C   0  0  0  0  0  0  0  0  0  0  0  0
  157.6820  211.1670  154.4940 C   0  0  0  0  0  3  0  0  0  0  0  0
  158.2720  213.3520  153.6330 C   0  0  0  0  0  3  0  0  0  0  0  0
  157.3020  213.9370  154.4520 C   0  0  0  0  0  3  0  0  0  0  0  0
  155.5330  213.7320  156.1240 N   0  0  0  0  0  1  0  0  0  0  0  0
  156.7140  211.7520  155.3140 C   0  0  0  0  0  3  0  0  0  0  0  0
  1 21  1  1  0  0  0
  1 20  1  0  0  0  0
  1 19  1  0  0  0  0
  2  7  2  0  0  0  0
  4  9  1  6  0  0  0
  4  7  1  0  0  0  0
  4 12  1  0  0  0  0
  5 11  1  6  0  0  0
  5 14  1  0  0  0  0
  6 17  1  0  0  0  0
  6  9  1  0  0  0  0
  7  5  1  0  0  0  0
 10 18  1  0  0  0  0
 10 15  1  1  0  0  0
 12  8  1  0  0  0  0
 13 15  1  0  0  0  0
 14  8  1  1  0  0  0
 14 18  1  0  0  0  0
 16  6  2  0  0  0  0
 17  2  1  0  0  0  0
 18  3  1  0  0  0  0
 19 13  1  0  0  0  0
 20 11  1  6  0  0  0
 20 10  1  0  0  0  0
 21 22  1  0  0  0  0
 22 24  1  0  0  0  0
 23 28  1  0  0  0  0
 23 27  1  0  0  0  0
 24 28  2  0  0  0  0
 25 22  2  0  0  0  0
 25 26  1  0  0  0  0
 26 23  2  0  0  0  0
M  END
>  <MODEL>
2

>  <REMARK>
 VINA RESULT:      -8.6      0.673      1.140
  Name = 
  2 active torsions:
  status: ('A' for Active; 'I' for Inactive)
    1  A    between atoms: C_1  and  C_2
    2  A    between atoms: C_2  and  C_3
                            x       y       z     vdW  Elec       q    Type
                         _______ _______ _______ _____ _____    ______ ____

>  <TORSDO>
F 2

$$$$
=
 OpenBabel11052422593D

 28 32  0  0  1  0  0  0  0  0999 V2000
  160.3810  211.3950  153.9210 C   0  0  1  0  0  3  0  0  0  0  0  0
  161.7160  208.2740  150.0460 C   0  0  0  0  0  3  0  0  0  0  0  0
  160.1590  206.9790  155.7830 C   0  0  0  0  0  1  0  0  0  0  0  0
  161.5580  205.9830  150.9480 C   0  0  2  0  0  3  0  0  0  0  0  0
  161.5230  208.1160  152.5100 C   0  0  1  0  0  3  0  0  0  0  0  0
  161.0740  206.4400  148.5150 C   0  0  0  0  0  0  0  0  0  0  0  0
  161.5170  207.4970  151.1260 C   0  0  0  0  0  0  0  0  0  0  0  0
  161.4440  205.8290  153.4660 C   0  0  0  0  0  2  0  0  0  0  0  0
  160.7990  205.5410  149.6910 C   0  0  0  0  0  2  0  0  0  0  0  0
  160.3960  209.1640  154.9290 C   0  0  2  0  0  3  0  0  0  0  0  0
  160.8290  209.4640  152.5560 C   0  0  0  0  0  2  0  0  0  0  0  0
  161.0120  205.2080  152.1470 C   0  0  0  0  0  2  0  0  0  0  0  0
  161.1940  211.1770  156.3060 C   0  0  0  0  0  2  0  0  0  0  0  0
  160.8390  207.2280  153.5460 C   0  0  1  0  0  3  0  0  0  0  0  0
  160.5860  209.7780  156.3370 C   0  0  0  0  0  2  0  0  0  0  0  0
  160.6420  206.1380  147.4140 O   0  0  0  0  0  0  0  0  0  0  0  0
  161.8980  207.6850  148.6730 C   0  0  0  0  0  2  0  0  0  0  0  0
  160.9750  207.8030  154.8930 N   0  0  0  0  0  0  0  0  0  0  0  0
  160.4410  212.0470  155.3090 C   0  0  0  0  0  2  0  0  0  0  0  0
  160.9840  210.0420  153.8900 N   0  0  1  0  0  0  0  0  0  0  0  0
  158.9740  211.5170  153.2930 C   0  0  0  0  0  2  0  0  0  0  0  0
  158.9360  212.2970  152.0180 C   0  0  0  0  0  0  0  0  0  0  0  0
  158.8790  213.7280  149.6130 C   0  0  0  0  0  0  0  0  0  0  0  0
  157.7150  212.7310  151.4870 C   0  0  0  0  0  3  0  0  0  0  0  0
  160.1280  212.5890  151.3460 C   0  0  0  0  0  3  0  0  0  0  0  0
  160.1000  213.3020  150.1430 C   0  0  0  0  0  3  0  0  0  0  0  0
  158.8500  214.4530  148.3890 N   0  0  0  0  0  1  0  0  0  0  0  0
  157.6860  213.4450  150.2860 C   0  0  0  0  0  3  0  0  0  0  0  0
  1 21  1  1  0  0  0
  1 19  1  0  0  0  0
  2  7  2  0  0  0  0
  4  9  1  6  0  0  0
  4  7  1  0  0  0  0
  4 12  1  0  0  0  0
  5 11  1  6  0  0  0
  5 14  1  0  0  0  0
  6 17  1  0  0  0  0
  6  9  1  0  0  0  0
  7  5  1  0  0  0  0
 10 15  1  1  0  0  0
 12  8  1  0  0  0  0
 13 15  1  0  0  0  0
 14  8  1  1  0  0  0
 14 18  1  0  0  0  0
 16  6  2  0  0  0  0
 17  2  1  0  0  0  0
 18 10  1  0  0  0  0
 18  3  1  0  0  0  0
 19 13  1  0  0  0  0
 20 11  1  6  0  0  0
 20  1  1  0  0  0  0
 20 10  1  0  0  0  0
 22 21  1  0  0  0  0
 23 26  2  0  0  0  0
 23 28  1  0  0  0  0
 24 22  1  0  0  0  0
 25 22  2  0  0  0  0
 26 25  1  0  0  0  0
 27 23  1  0  0  0  0
 28 24  2  0  0  0  0
M  END
>  <MODEL>
3

>  <REMARK>
 VINA RESULT:      -8.4      2.082      2.972
  Name = 
  2 active torsions:
  status: ('A' for Active; 'I' for Inactive)
    1  A    between atoms: C_1  and  C_2
    2  A    between atoms: C_2  and  C_3
                            x       y       z     vdW  Elec       q    Type
                         _______ _______ _______ _____ _____    ______ ____

>  <TORSDO>
F 2

$$$$
=
 OpenBabel11052422593D

 28 32  0  0  1  0  0  0  0  0999 V2000
  161.5820  205.3830  151.1900 C   0  0  1  0  0  3  0  0  0  0  0  0
  162.4560  205.1740  146.1170 C   0  0  0  0  0  3  0  0  0  0  0  0
  159.2370  201.4670  149.7110 C   0  0  0  0  0  1  0  0  0  0  0  0
  161.2160  203.2010  145.3060 C   0  0  2  0  0  3  0  0  0  0  0  0
  161.6520  203.6300  147.8780 C   0  0  1  0  0  3  0  0  0  0  0  0
  161.5240  205.2210  143.8260 C   0  0  0  0  0  0  0  0  0  0  0  0
  161.7270  204.0890  146.4350 C   0  0  0  0  0  0  0  0  0  0  0  0
  160.4720  201.5910  147.1030 C   0  0  0  0  0  2  0  0  0  0  0  0
  160.6570  204.0310  144.1440 C   0  0  0  0  0  2  0  0  0  0  0  0
  160.4960  203.3060  150.4810 C   0  0  2  0  0  3  0  0  0  0  0  0
  161.5470  204.7800  148.8600 C   0  0  0  0  0  2  0  0  0  0  0  0
  160.1500  202.1970  145.7460 C   0  0  0  0  0  2  0  0  0  0  0  0
  161.6720  203.4020  152.7610 C   0  0  0  0  0  2  0  0  0  0  0  0
  160.4580  202.7150  148.1350 C   0  0  1  0  0  3  0  0  0  0  0  0
  160.5780  202.7470  151.9220 C   0  0  0  0  0  2  0  0  0  0  0  0
  161.2760  205.9000  142.8430 O   0  0  0  0  0  0  0  0  0  0  0  0
  162.7060  205.5640  144.6850 C   0  0  0  0  0  2  0  0  0  0  0  0
  160.4910  202.1910  149.5090 N   0  0  0  0  0  0  0  0  0  0  0  0
  161.5690  204.9170  152.6520 C   0  0  0  0  0  2  0  0  0  0  0  0
  161.6010  204.2590  150.2240 N   0  0  1  0  0  0  0  0  0  0  0  0
  160.5200  206.4730  150.9280 C   0  0  0  0  0  2  0  0  0  0  0  0
  161.0810  207.7730  150.4440 C   0  0  0  0  0  0  0  0  0  0  0  0
  162.1000  210.2090  149.5150 C   0  0  0  0  0  0  0  0  0  0  0  0
  161.2320  208.8530  151.3230 C   0  0  0  0  0  3  0  0  0  0  0  0
  161.4480  207.9140  149.1010 C   0  0  0  0  0  3  0  0  0  0  0  0
  161.9560  209.1310  148.6360 C   0  0  0  0  0  3  0  0  0  0  0  0
  162.6160  211.4470  149.0420 N   0  0  0  0  0  1  0  0  0  0  0  0
  161.7410  210.0690  150.8590 C   0  0  0  0  0  3  0  0  0  0  0  0
  1 21  1  6  0  0  0
  1 19  1  0  0  0  0
  2  7  2  0  0  0  0
  4  9  1  6  0  0  0
  4 12  1  0  0  0  0
  4  7  1  0  0  0  0
  5 14  1  0  0  0  0
  5 11  1  1  0  0  0
  6  9  1  0  0  0  0
  6 17  1  0  0  0  0
  7  5  1  0  0  0  0
 10 15  1  1  0  0  0
 12  8  1  0  0  0  0
 14  8  1  6  0  0  0
 14 18  1  0  0  0  0
 15 13  1  0  0  0  0
 16  6  2  0  0  0  0
 17  2  1  0  0  0  0
 18  3  1  0  0  0  0
 18 10  1  0  0  0  0
 19 13  1  0  0  0  0
 20 11  1  6  0  0  0
 20 10  1  0  0  0  0
 20  1  1  0  0  0  0
 22 21  1  0  0  0  0
 22 24  1  0  0  0  0
 23 28  1  0  0  0  0
 25 22  2  0  0  0  0
 26 25  1  0  0  0  0
 26 23  2  0  0  0  0
 27 23  1  0  0  0  0
 28 24  2  0  0  0  0
M  END
>  <MODEL>
4

>  <REMARK>
 VINA RESULT:      -6.1      4.802      7.201
  Name = 
  2 active torsions:
  status: ('A' for Active; 'I' for Inactive)
    1  A    between atoms: C_1  and  C_2
    2  A    between atoms: C_2  and  C_3
                            x       y       z     vdW  Elec       q    Type
                         _______ _______ _______ _____ _____    ______ ____

>  <TORSDO>
F 2

$$$$
