=
 OpenBabel11052421483D

 30 32  0  0  1  0  0  0  0  0999 V2000
  159.9580  211.0260  154.3310 C   0  0  2  0  0  3  0  0  0  0  0  0
  158.7150  210.6480  155.1820 C   0  0  1  0  0  3  0  0  0  0  0  0
  157.4480  212.8530  154.9810 C   0  0  1  0  0  3  0  0  0  0  0  0
  159.7750  211.0080  152.7800 C   0  0  1  0  0  0  0  0  0  0  0  0
  159.3410  209.7480  152.3640 O   0  0  0  0  0  1  0  0  0  0  0  0
  161.2320  210.2890  154.8180 C   0  0  2  0  0  3  0  0  0  0  0  0
  157.6690  213.6900  153.7060 C   0  0  2  0  0  3  0  0  0  0  0  0
  162.4750  210.6740  154.0210 C   0  0  0  0  0  2  0  0  0  0  0  0
  158.3290  212.1640  157.2510 C   0  0  0  0  0  2  0  0  0  0  0  0
  158.9860  210.8960  156.6810 C   0  0  0  0  0  2  0  0  0  0  0  0
  157.4920  214.4530  156.8840 C   0  0  0  0  0  1  0  0  0  0  0  0
  159.6500  213.7930  155.9120 C   0  0  0  0  0  1  0  0  0  0  0  0
  157.4220  211.3340  154.7270 C   0  0  2  0  0  3  0  0  0  0  0  0
  158.7540  212.0430  152.2990 C   0  0  0  0  0  2  0  0  0  0  0  0
  156.4210  213.6760  152.8200 C   0  0  0  0  0  1  0  0  0  0  0  0
  158.9100  213.3240  152.9930 N   0  0  0  0  0  0  0  0  0  0  0  0
  161.0920  211.3440  152.0680 C   0  0  0  0  0  2  0  0  0  0  0  0
  158.2420  213.3060  156.2360 C   0  0  0  0  0  0  0  0  0  0  0  0
  156.3180  210.7610  155.3610 O   0  0  0  0  0  1  0  0  0  0  0  0
  162.2460  210.4670  152.5310 C   0  0  0  0  0  2  0  0  0  0  0  0
  161.0810  208.0080  153.9450 N   0  0  0  0  0  0  0  0  0  0  0  0
  161.0840  208.8010  154.9690 C   0  0  0  0  0  3  0  0  0  0  0  0
  160.2730  206.0640  155.0410 N   0  0  0  0  0  2  0  0  0  0  0  0
  161.5600  205.7070  153.0430 C   0  0  0  0  0  1  0  0  0  0  0  0
  160.9380  206.5900  154.0640 C   0  0  0  0  0  0  0  0  0  0  0  0
  159.2020  214.3380  151.9830 C   0  0  0  0  0  2  0  0  0  0  0  0
  159.2320  213.7400  150.5770 C   0  0  1  0  0  3  0  0  0  0  0  0
  158.0740  214.2530  149.7420 C   0  0  0  0  0  1  0  0  0  0  0  0
  160.4920  214.0300  149.9110 N   0  0  0  0  0  2  0  0  0  0  0  0
  160.4800  213.3240  148.6420 C   0  0  0  0  0  1  0  0  0  0  0  0
  1  6  1  0  0  0  0
  1  2  1  0  0  0  0
  2 10  1  0  0  0  0
  3 18  1  0  0  0  0
  4  1  1  0  0  0  0
  5  4  1  0  0  0  0
  6 22  1  0  0  0  0
  7  3  1  0  0  0  0
  8  6  1  0  0  0  0
 10  9  1  0  0  0  0
 12 18  1  0  0  0  0
 13  3  1  0  0  0  0
 13  2  1  0  0  0  0
 13 19  1  0  0  0  0
 14  4  1  0  0  0  0
 14 16  1  0  0  0  0
 15  7  1  0  0  0  0
 16  7  1  0  0  0  0
 17 20  1  0  0  0  0
 17  4  1  0  0  0  0
 18 11  1  0  0  0  0
 18  9  1  0  0  0  0
 20  8  1  0  0  0  0
 21 25  1  0  0  0  0
 21 22  2  0  0  0  0
 24 25  1  0  0  0  0
 25 23  2  0  0  0  0
 26 16  1  0  0  0  0
 27 26  1  0  0  0  0
 28 27  1  0  0  0  0
 29 27  1  0  0  0  0
 30 29  1  0  0  0  0
M  END
>  <MODEL>
1

>  <REMARK>
 VINA RESULT:      -3.0      0.000      0.000
  Name = 
  5 active torsions:
  status: ('A' for Active; 'I' for Inactive)
    1  A    between atoms: C_7  and  C_10
    2  A    between atoms: C_7  and  N_15
    3  A    between atoms: C_8  and  C_12
    4  A    between atoms: N_9  and  C_21
    5  A    between atoms: C_10  and  N_25
                            x       y       z     vdW  Elec       q    Type
                         _______ _______ _______ _____ _____    ______ ____

>  <TORSDO>
F 5

$$$$
=
 OpenBabel11052421483D

 30 32  0  0  1  0  0  0  0  0999 V2000
  161.1190  208.5320  152.1480 C   0  0  2  0  0  3  0  0  0  0  0  0
  161.9480  207.2300  152.3120 C   0  0  1  0  0  3  0  0  0  0  0  0
  162.2540  206.6760  149.8400 C   0  0  1  0  0  3  0  0  0  0  0  0
  161.9100  209.8210  151.7530 C   0  0  1  0  0  0  0  0  0  0  0  0
  162.9150  210.0690  152.6890 O   0  0  0  0  0  1  0  0  0  0  0  0
  160.1390  208.7400  153.3300 C   0  0  2  0  0  3  0  0  0  0  0  0
  162.2740  207.8500  148.8430 C   0  0  2  0  0  3  0  0  0  0  0  0
  159.2840  209.9950  153.1720 C   0  0  0  0  0  2  0  0  0  0  0  0
  160.8550  205.1220  151.2660 C   0  0  0  0  0  2  0  0  0  0  0  0
  161.0180  206.0140  152.5080 C   0  0  0  0  0  2  0  0  0  0  0  0
  160.8390  204.9090  148.8110 C   0  0  0  0  0  1  0  0  0  0  0  0
  159.6890  206.8100  149.8590 C   0  0  0  0  0  1  0  0  0  0  0  0
  162.9510  206.9890  151.1770 C   0  0  2  0  0  3  0  0  0  0  0  0
  162.5650  209.7040  150.3730 C   0  0  0  0  0  2  0  0  0  0  0  0
  163.6780  208.0570  148.2700 C   0  0  0  0  0  1  0  0  0  0  0  0
  161.6700  209.0790  149.3970 N   0  0  0  0  0  0  0  0  0  0  0  0
  160.9780  211.0370  151.6830 C   0  0  0  0  0  2  0  0  0  0  0  0
  160.9110  205.9040  149.9520 C   0  0  0  0  0  0  0  0  0  0  0  0
  163.8260  205.9550  151.5140 O   0  0  0  0  0  1  0  0  0  0  0  0
  160.1600  211.2190  152.9530 C   0  0  0  0  0  2  0  0  0  0  0  0
  161.4950  209.5840  155.1840 N   0  0  0  0  0  0  0  0  0  0  0  0
  160.7610  208.6360  154.6950 C   0  0  0  0  0  3  0  0  0  0  0  0
  161.8780  208.5000  157.2610 N   0  0  0  0  0  2  0  0  0  0  0  0
  163.0050  210.5960  156.9260 C   0  0  0  0  0  1  0  0  0  0  0  0
  162.1000  209.5060  156.4770 C   0  0  0  0  0  0  0  0  0  0  0  0
  161.4570  210.0400  148.3180 C   0  0  0  0  0  2  0  0  0  0  0  0
  162.0020  211.4220  148.6790 C   0  0  1  0  0  3  0  0  0  0  0  0
  163.1980  211.7780  147.8160 C   0  0  0  0  0  1  0  0  0  0  0  0
  160.9730  212.4410  148.5480 N   0  0  0  0  0  2  0  0  0  0  0  0
  160.5850  212.4820  147.1490 C   0  0  0  0  0  1  0  0  0  0  0  0
  1  2  1  0  0  0  0
  1  6  1  0  0  0  0
  2 10  1  0  0  0  0
  3 18  1  0  0  0  0
  3 13  1  0  0  0  0
  4  1  1  0  0  0  0
  4  5  1  0  0  0  0
  6 22  1  0  0  0  0
  7 16  1  0  0  0  0
  7  3  1  0  0  0  0
  8  6  1  0  0  0  0
  9 10  1  0  0  0  0
 11 18  1  0  0  0  0
 12 18  1  0  0  0  0
 13 19  1  0  0  0  0
 13  2  1  0  0  0  0
 14  4  1  0  0  0  0
 15  7  1  0  0  0  0
 16 14  1  0  0  0  0
 17  4  1  0  0  0  0
 17 20  1  0  0  0  0
 18  9  1  0  0  0  0
 20  8  1  0  0  0  0
 21 25  1  0  0  0  0
 22 21  2  0  0  0  0
 25 24  1  0  0  0  0
 25 23  2  0  0  0  0
 26 27  1  0  0  0  0
 26 16  1  0  0  0  0
 28 27  1  0  0  0  0
 29 27  1  0  0  0  0
 30 29  1  0  0  0  0
M  END
>  <MODEL>
2

>  <REMARK>
 VINA RESULT:      -1.1      3.334      6.426
  Name = 
  5 active torsions:
  status: ('A' for Active; 'I' for Inactive)
    1  A    between atoms: C_7  and  C_10
    2  A    between atoms: C_7  and  N_15
    3  A    between atoms: C_8  and  C_12
    4  A    between atoms: N_9  and  C_21
    5  A    between atoms: C_10  and  N_25
                            x       y       z     vdW  Elec       q    Type
                         _______ _______ _______ _____ _____    ______ ____

>  <TORSDO>
F 5

$$$$
