=
 OpenBabel11062408103D

 34 37  0  0  1  0  0  0  0  0999 V2000
  162.1010  209.5690  155.9110 C   0  0  2  0  0  3  0  0  0  0  0  0
  159.8210  208.4710  156.1540 C   0  0  1  0  0  3  0  0  0  0  0  0
  160.1000  210.4610  154.5940 C   0  0  1  0  0  3  0  0  0  0  0  0
  161.9940  207.6240  157.0480 C   0  0  0  0  0  2  0  0  0  0  0  0
  160.4830  207.6460  157.2610 C   0  0  0  0  0  2  0  0  0  0  0  0
  160.0600  208.1890  153.6110 C   0  0  0  0  0  3  0  0  0  0  0  0
  160.5740  209.8000  155.9030 C   0  0  2  0  0  3  0  0  0  0  0  0
  162.4900  208.9360  157.1060 O   0  0  0  0  0  0  0  0  0  0  0  0
  159.5710  207.6000  154.9090 C   0  0  0  0  0  2  0  0  0  0  0  0
  160.2580  209.5050  153.4380 C   0  0  0  0  0  0  0  0  0  0  0  0
  158.4860  212.2480  153.8880 N   0  0  0  0  0  0  0  0  0  0  0  0
  157.0100  213.9180  153.1710 O   0  0  0  0  0  0  0  0  0  0  0  0
  155.9410  212.0070  154.1050 C   0  0  0  0  0  2  0  0  0  0  0  0
  155.8930  212.9470  156.4610 C   0  0  0  0  0  1  0  0  0  0  0  0
  158.6620  211.0110  154.6590 C   0  0  2  0  0  3  0  0  0  0  0  0
  157.1640  212.7830  153.6990 C   0  0  0  0  0  0  0  0  0  0  0  0
  156.9450  210.6800  156.0360 C   0  0  0  0  0  2  0  0  0  0  0  0
  155.8780  211.6890  155.6020 C   0  0  2  0  0  3  0  0  0  0  0  0
  158.2330  211.2300  155.9750 O   0  0  0  0  0  0  0  0  0  0  0  0
  159.6330  213.0220  153.4180 C   0  0  0  0  0  1  0  0  0  0  0  0
  162.8300  210.8680  155.7830 C   0  0  0  0  0  3  0  0  0  0  0  0
  163.8260  211.0870  156.4520 O   0  0  0  0  0  0  0  0  0  0  0  0
  160.8180  210.0060  152.1400 C   0  0  0  0  0  2  0  0  0  0  0  0
  162.1300  209.3170  151.7620 C   0  0  2  0  0  3  0  0  0  0  0  0
  163.2150  210.3660  151.6230 C   0  0  0  0  0  1  0  0  0  0  0  0
  162.0070  208.5630  150.4470 C   0  0  0  0  0  2  0  0  0  0  0  0
  162.0870  207.0620  150.6640 C   0  0  0  0  0  2  0  0  0  0  0  0
  161.2030  204.7450  152.3540 C   0  0  0  0  0  1  0  0  0  0  0  0
  160.7320  206.3840  150.4580 C   0  0  2  0  0  3  0  0  0  0  0  0
  160.7330  204.9180  150.9220 C   0  0  1  0  0  3  0  0  0  0  0  0
  161.0120  204.1280  148.6720 O   0  0  0  0  0  0  0  0  0  0  0  0
  161.2240  205.4360  148.1880 C   0  0  0  0  0  2  0  0  0  0  0  0
  160.3690  206.4390  148.9720 C   0  0  0  0  0  2  0  0  0  0  0  0
  161.5680  204.0700  149.9620 C   0  0  0  0  0  2  0  0  0  0  0  0
  1 21  1  1  0  0  0
  1  8  1  0  0  0  0
  2  9  1  6  0  0  0
  2  5  1  0  0  0  0
  3 10  1  6  0  0  0
  3 15  1  0  0  0  0
  3  7  1  0  0  0  0
  4  8  1  0  0  0  0
  4  5  1  0  0  0  0
  6  9  1  0  0  0  0
  7  1  1  0  0  0  0
  7  2  1  0  0  0  0
 10  6  2  0  0  0  0
 11 15  1  0  0  0  0
 12 16  2  0  0  0  0
 13 18  1  0  0  0  0
 15 19  1  0  0  0  0
 16 11  1  0  0  0  0
 16 13  1  0  0  0  0
 18 17  1  0  0  0  0
 18 14  1  0  0  0  0
 19 17  1  0  0  0  0
 20 11  1  0  0  0  0
 21 22  2  0  0  0  0
 23 10  1  0  0  0  0
 24 23  1  0  0  0  0
 25 24  1  0  0  0  0
 26 27  1  0  0  0  0
 26 24  1  0  0  0  0
 29 27  1  0  0  0  0
 29 30  1  0  0  0  0
 30 28  1  0  0  0  0
 31 34  1  0  0  0  0
 32 31  1  0  0  0  0
 32 33  1  0  0  0  0
 33 29  1  0  0  0  0
 34 30  1  0  0  0  0
M  END
>  <MODEL>
1

>  <REMARK>
 VINA RESULT:      -4.9      0.000      0.000
  Name = 
  7 active torsions:
  status: ('A' for Active; 'I' for Inactive)
    1  A    between atoms: C_1  and  C_24
    2  A    between atoms: C_3  and  C_13
    3  A    between atoms: C_3  and  C_17
    4  A    between atoms: C_4  and  C_21
    5  A    between atoms: C_5  and  C_18
    6  A    between atoms: C_5  and  C_31
    7  A    between atoms: C_17  and  C_18
                            x       y       z     vdW  Elec       q    Type
                         _______ _______ _______ _____ _____    ______ ____

>  <TORSDO>
F 7

$$$$
=
 OpenBabel11062408103D

 34 37  0  0  1  0  0  0  0  0999 V2000
  162.9290  210.2530  155.0800 C   0  0  2  0  0  3  0  0  0  0  0  0
  160.5310  209.9700  155.8760 C   0  0  1  0  0  3  0  0  0  0  0  0
  160.9860  210.6610  153.4700 C   0  0  1  0  0  3  0  0  0  0  0  0
  162.6050  209.3290  157.1120 C   0  0  0  0  0  2  0  0  0  0  0  0
  161.1530  209.7760  157.2610 C   0  0  0  0  0  2  0  0  0  0  0  0
  160.4410  208.2920  153.9320 C   0  0  0  0  0  3  0  0  0  0  0  0
  161.4760  210.7510  154.9280 C   0  0  2  0  0  3  0  0  0  0  0  0
  163.3270  210.3190  156.4280 O   0  0  0  0  0  0  0  0  0  0  0  0
  159.9980  208.6310  155.3310 C   0  0  0  0  0  2  0  0  0  0  0  0
  160.8470  209.2200  153.0510 C   0  0  0  0  0  0  0  0  0  0  0  0
  159.7240  212.2110  151.9520 N   0  0  0  0  0  0  0  0  0  0  0  0
  158.5740  213.6270  150.4850 O   0  0  0  0  0  0  0  0  0  0  0  0
  157.1890  212.5690  152.1060 C   0  0  0  0  0  2  0  0  0  0  0  0
  157.3970  214.4530  153.7940 C   0  0  0  0  0  1  0  0  0  0  0  0
  159.6830  211.4390  153.2010 C   0  0  2  0  0  3  0  0  0  0  0  0
  158.5240  212.8410  151.4690 C   0  0  0  0  0  0  0  0  0  0  0  0
  157.9800  212.0830  154.4800 C   0  0  0  0  0  2  0  0  0  0  0  0
  157.1130  212.9710  153.5820 C   0  0  2  0  0  3  0  0  0  0  0  0
  159.3470  212.2970  154.2560 O   0  0  0  0  0  0  0  0  0  0  0  0
  160.9830  212.4660  151.2560 C   0  0  0  0  0  1  0  0  0  0  0  0
  163.8580  211.0820  154.2520 C   0  0  0  0  0  3  0  0  0  0  0  0
  164.9670  211.3720  154.6690 O   0  0  0  0  0  0  0  0  0  0  0  0
  161.3440  208.7930  151.7010 C   0  0  0  0  0  2  0  0  0  0  0  0
  161.6120  207.2900  151.6210 C   0  0  2  0  0  3  0  0  0  0  0  0
  162.9460  207.0630  150.9400 C   0  0  0  0  0  1  0  0  0  0  0  0
  160.5300  206.5700  150.8320 C   0  0  0  0  0  2  0  0  0  0  0  0
  161.1020  205.3920  150.0620 C   0  0  0  0  0  2  0  0  0  0  0  0
  161.1440  202.8210  148.5150 C   0  0  0  0  0  1  0  0  0  0  0  0
  160.5030  205.2850  148.6590 C   0  0  2  0  0  3  0  0  0  0  0  0
  161.1590  204.1720  147.8240 C   0  0  1  0  0  3  0  0  0  0  0  0
  162.5480  205.7530  146.6690 O   0  0  0  0  0  0  0  0  0  0  0  0
  162.1500  206.8010  147.5240 C   0  0  0  0  0  2  0  0  0  0  0  0
  160.6840  206.6240  147.9370 C   0  0  0  0  0  2  0  0  0  0  0  0
  162.5820  204.5790  147.4430 C   0  0  0  0  0  2  0  0  0  0  0  0
  1 21  1  6  0  0  0
  1  8  1  0  0  0  0
  2  9  1  6  0  0  0
  2  5  1  0  0  0  0
  3 10  1  1  0  0  0
  3  7  1  0  0  0  0
  4  5  1  0  0  0  0
  6  9  1  0  0  0  0
  7  1  1  0  0  0  0
  7  2  1  0  0  0  0
  8  4  1  0  0  0  0
 10  6  2  0  0  0  0
 11 15  1  0  0  0  0
 12 16  2  0  0  0  0
 13 18  1  0  0  0  0
 15  3  1  0  0  0  0
 15 19  1  0  0  0  0
 16 11  1  0  0  0  0
 16 13  1  0  0  0  0
 18 14  1  0  0  0  0
 18 17  1  0  0  0  0
 19 17  1  0  0  0  0
 20 11  1  0  0  0  0
 21 22  2  0  0  0  0
 23 10  1  0  0  0  0
 24 23  1  0  0  0  0
 25 24  1  0  0  0  0
 26 24  1  0  0  0  0
 27 26  1  0  0  0  0
 29 27  1  0  0  0  0
 30 28  1  0  0  0  0
 30 29  1  0  0  0  0
 31 34  1  0  0  0  0
 31 32  1  0  0  0  0
 32 33  1  0  0  0  0
 33 29  1  0  0  0  0
 34 30  1  0  0  0  0
M  END
>  <MODEL>
2

>  <REMARK>
 VINA RESULT:      -3.2      1.698      2.308
  Name = 
  7 active torsions:
  status: ('A' for Active; 'I' for Inactive)
    1  A    between atoms: C_1  and  C_24
    2  A    between atoms: C_3  and  C_13
    3  A    between atoms: C_3  and  C_17
    4  A    between atoms: C_4  and  C_21
    5  A    between atoms: C_5  and  C_18
    6  A    between atoms: C_5  and  C_31
    7  A    between atoms: C_17  and  C_18
                            x       y       z     vdW  Elec       q    Type
                         _______ _______ _______ _____ _____    ______ ____

>  <TORSDO>
F 7

$$$$
=
 OpenBabel11062408103D

 34 37  0  0  1  0  0  0  0  0999 V2000
  161.3550  210.8560  155.4140 C   0  0  2  0  0  3  0  0  0  0  0  0
  159.2380  211.6030  154.2210 C   0  0  1  0  0  3  0  0  0  0  0  0
  161.1630  210.6230  152.8750 C   0  0  1  0  0  3  0  0  0  0  0  0
  159.5770  211.4060  156.6880 C   0  0  0  0  0  2  0  0  0  0  0  0
  158.8150  212.1420  155.5890 C   0  0  0  0  0  2  0  0  0  0  0  0
  159.2380  209.1630  153.4130 C   0  0  0  0  0  3  0  0  0  0  0  0
  160.7760  211.4550  154.1140 C   0  0  2  0  0  3  0  0  0  0  0  0
  160.9540  211.6230  156.5230 O   0  0  0  0  0  0  0  0  0  0  0  0
  158.4210  210.3470  153.8600 C   0  0  0  0  0  2  0  0  0  0  0  0
  160.4770  209.2810  152.9110 C   0  0  0  0  0  0  0  0  0  0  0  0
  161.9040  211.0290  150.5130 N   0  0  0  0  0  0  0  0  0  0  0  0
  162.6160  211.3440  148.3050 O   0  0  0  0  0  0  0  0  0  0  0  0
  160.3900  212.0750  148.7260 C   0  0  0  0  0  2  0  0  0  0  0  0
  161.0740  214.4480  149.3080 C   0  0  0  0  0  1  0  0  0  0  0  0
  160.8990  211.3390  151.5360 C   0  0  2  0  0  3  0  0  0  0  0  0
  161.6970  211.4710  149.1590 C   0  0  0  0  0  0  0  0  0  0  0  0
  159.6810  213.1060  150.9470 C   0  0  0  0  0  2  0  0  0  0  0  0
  160.0220  213.3590  149.4750 C   0  0  2  0  0  3  0  0  0  0  0  0
  160.8130  212.7300  151.6830 O   0  0  0  0  0  0  0  0  0  0  0  0
  163.1740  210.3950  150.8600 C   0  0  0  0  0  1  0  0  0  0  0  0
  162.8500  210.8200  155.3560 C   0  0  0  0  0  3  0  0  0  0  0  0
  163.5080  210.8120  156.3820 O   0  0  0  0  0  0  0  0  0  0  0  0
  161.2540  208.0470  152.5570 C   0  0  0  0  0  2  0  0  0  0  0  0
  160.7860  206.8160  153.3340 C   0  0  2  0  0  3  0  0  0  0  0  0
  161.1400  206.9920  154.7960 C   0  0  0  0  0  1  0  0  0  0  0  0
  161.4460  205.5460  152.8200 C   0  0  0  0  0  2  0  0  0  0  0  0
  161.7320  205.6370  151.3310 C   0  0  0  0  0  2  0  0  0  0  0  0
  160.8290  202.8360  150.7440 C   0  0  0  0  0  1  0  0  0  0  0  0
  160.4850  205.3510  150.4930 C   0  0  2  0  0  3  0  0  0  0  0  0
  160.5520  203.9840  149.7910 C   0  0  1  0  0  3  0  0  0  0  0  0
  161.2140  204.9970  147.7180 O   0  0  0  0  0  0  0  0  0  0  0  0
  161.3760  206.2580  148.3290 C   0  0  0  0  0  2  0  0  0  0  0  0
  160.3330  206.4490  149.4380 C   0  0  0  0  0  2  0  0  0  0  0  0
  161.5860  204.0280  148.6670 C   0  0  0  0  0  2  0  0  0  0  0  0
  1 21  1  6  0  0  0
  1  8  1  0  0  0  0
  2  9  1  1  0  0  0
  2  5  1  0  0  0  0
  3 10  1  6  0  0  0
  3  7  1  0  0  0  0
  5  4  1  0  0  0  0
  6  9  1  0  0  0  0
  7  2  1  0  0  0  0
  7  1  1  0  0  0  0
  8  4  1  0  0  0  0
 10  6  2  0  0  0  0
 11 20  1  0  0  0  0
 11 15  1  0  0  0  0
 12 16  2  0  0  0  0
 13 16  1  0  0  0  0
 13 18  1  0  0  0  0
 14 18  1  0  0  0  0
 15 19  1  0  0  0  0
 15  3  1  0  0  0  0
 16 11  1  0  0  0  0
 17 19  1  0  0  0  0
 18 17  1  0  0  0  0
 21 22  2  0  0  0  0
 23 10  1  0  0  0  0
 23 24  1  0  0  0  0
 24 25  1  0  0  0  0
 26 24  1  0  0  0  0
 27 26  1  0  0  0  0
 29 27  1  0  0  0  0
 30 29  1  0  0  0  0
 30 28  1  0  0  0  0
 31 32  1  0  0  0  0
 31 34  1  0  0  0  0
 32 33  1  0  0  0  0
 33 29  1  0  0  0  0
 34 30  1  0  0  0  0
M  END
>  <MODEL>
3

>  <REMARK>
 VINA RESULT:      -3.1      2.489      4.166
  Name = 
  7 active torsions:
  status: ('A' for Active; 'I' for Inactive)
    1  A    between atoms: C_1  and  C_24
    2  A    between atoms: C_3  and  C_13
    3  A    between atoms: C_3  and  C_17
    4  A    between atoms: C_4  and  C_21
    5  A    between atoms: C_5  and  C_18
    6  A    between atoms: C_5  and  C_31
    7  A    between atoms: C_17  and  C_18
                            x       y       z     vdW  Elec       q    Type
                         _______ _______ _______ _____ _____    ______ ____

>  <TORSDO>
F 7

$$$$
=
 OpenBabel11062408103D

 34 37  0  0  1  0  0  0  0  0999 V2000
  161.3890  210.9810  155.5420 C   0  0  2  0  0  3  0  0  0  0  0  0
  159.3270  211.9450  154.4100 C   0  0  1  0  0  3  0  0  0  0  0  0
  161.0580  210.6970  153.0230 C   0  0  1  0  0  3  0  0  0  0  0  0
  159.7490  211.7820  156.8670 C   0  0  0  0  0  2  0  0  0  0  0  0
  159.0330  212.5730  155.7750 C   0  0  0  0  0  2  0  0  0  0  0  0
  158.9960  209.5010  153.6890 C   0  0  0  0  0  3  0  0  0  0  0  0
  160.8300  211.6070  154.2460 C   0  0  2  0  0  3  0  0  0  0  0  0
  161.1330  211.8240  156.6390 O   0  0  0  0  0  0  0  0  0  0  0  0
  158.3490  210.7890  154.1270 C   0  0  0  0  0  2  0  0  0  0  0  0
  160.2170  209.4510  153.1330 C   0  0  0  0  0  0  0  0  0  0  0  0
  161.8060  211.0190  150.6500 N   0  0  0  0  0  0  0  0  0  0  0  0
  162.5200  211.2560  148.4330 O   0  0  0  0  0  0  0  0  0  0  0  0
  160.3370  212.1070  148.8500 C   0  0  0  0  0  2  0  0  0  0  0  0
  161.1440  214.4530  149.3820 C   0  0  0  0  0  1  0  0  0  0  0  0
  160.8230  211.4000  151.6720 C   0  0  2  0  0  3  0  0  0  0  0  0
  161.6140  211.4460  149.2890 C   0  0  0  0  0  0  0  0  0  0  0  0
  159.6930  213.2150  151.0530 C   0  0  0  0  0  2  0  0  0  0  0  0
  160.0390  213.4220  149.5760 C   0  0  2  0  0  3  0  0  0  0  0  0
  160.8090  212.7970  151.7920 O   0  0  0  0  0  0  0  0  0  0  0  0
  163.0430  210.3280  151.0040 C   0  0  0  0  0  1  0  0  0  0  0  0
  162.8640  210.7610  155.4250 C   0  0  0  0  0  3  0  0  0  0  0  0
  163.6100  211.0790  156.3350 O   0  0  0  0  0  0  0  0  0  0  0  0
  160.8230  208.1220  152.7930 C   0  0  0  0  0  2  0  0  0  0  0  0
  160.5780  207.0700  153.8750 C   0  0  2  0  0  3  0  0  0  0  0  0
  161.1750  207.5570  155.1790 C   0  0  0  0  0  1  0  0  0  0  0  0
  161.2140  205.7370  153.5140 C   0  0  0  0  0  2  0  0  0  0  0  0
  160.7060  205.2290  152.1750 C   0  0  0  0  0  2  0  0  0  0  0  0
  161.2940  206.2750  149.4240 C   0  0  0  0  0  1  0  0  0  0  0  0
  161.8360  204.6550  151.3180 C   0  0  2  0  0  3  0  0  0  0  0  0
  161.5800  204.8360  149.8130 C   0  0  1  0  0  3  0  0  0  0  0  0
  160.8150  202.5710  149.5950 O   0  0  0  0  0  0  0  0  0  0  0  0
  160.8270  202.3810  150.9920 C   0  0  0  0  0  2  0  0  0  0  0  0
  161.9840  203.1630  151.6250 C   0  0  0  0  0  2  0  0  0  0  0  0
  160.4500  203.9090  149.3640 C   0  0  0  0  0  2  0  0  0  0  0  0
  1 21  1  6  0  0  0
  1  8  1  0  0  0  0
  2  9  1  1  0  0  0
  2  5  1  0  0  0  0
  3 10  1  1  0  0  0
  3  7  1  0  0  0  0
  5  4  1  0  0  0  0
  6  9  1  0  0  0  0
  7  2  1  0  0  0  0
  7  1  1  0  0  0  0
  8  4  1  0  0  0  0
 10  6  2  0  0  0  0
 11 20  1  0  0  0  0
 11 15  1  0  0  0  0
 12 16  2  0  0  0  0
 13 16  1  0  0  0  0
 13 18  1  0  0  0  0
 14 18  1  0  0  0  0
 15 19  1  0  0  0  0
 15  3  1  0  0  0  0
 16 11  1  0  0  0  0
 17 19  1  0  0  0  0
 18 17  1  0  0  0  0
 21 22  2  0  0  0  0
 23 10  1  0  0  0  0
 23 24  1  0  0  0  0
 24 25  1  0  0  0  0
 26 24  1  0  0  0  0
 27 26  1  0  0  0  0
 28 30  1  0  0  0  0
 29 33  1  0  0  0  0
 29 27  1  0  0  0  0
 30 29  1  0  0  0  0
 31 32  1  0  0  0  0
 32 33  1  0  0  0  0
 34 31  1  0  0  0  0
 34 30  1  0  0  0  0
M  END
>  <MODEL>
4

>  <REMARK>
 VINA RESULT:      -2.9      2.504      4.346
  Name = 
  7 active torsions:
  status: ('A' for Active; 'I' for Inactive)
    1  A    between atoms: C_1  and  C_24
    2  A    between atoms: C_3  and  C_13
    3  A    between atoms: C_3  and  C_17
    4  A    between atoms: C_4  and  C_21
    5  A    between atoms: C_5  and  C_18
    6  A    between atoms: C_5  and  C_31
    7  A    between atoms: C_17  and  C_18
                            x       y       z     vdW  Elec       q    Type
                         _______ _______ _______ _____ _____    ______ ____

>  <TORSDO>
F 7

$$$$
=
 OpenBabel11062408103D

 34 37  0  0  1  0  0  0  0  0999 V2000
  162.8980  210.4400  154.2960 C   0  0  2  0  0  3  0  0  0  0  0  0
  161.9460  210.7400  156.6340 C   0  0  1  0  0  3  0  0  0  0  0  0
  160.4070  210.0620  154.7240 C   0  0  1  0  0  3  0  0  0  0  0  0
  164.3600  210.7180  155.9900 C   0  0  0  0  0  2  0  0  0  0  0  0
  163.3410  211.2560  156.9920 C   0  0  0  0  0  2  0  0  0  0  0  0
  161.2020  208.3060  156.2770 C   0  0  0  0  0  3  0  0  0  0  0  0
  161.6620  210.8660  155.1160 C   0  0  2  0  0  3  0  0  0  0  0  0
  164.0280  211.1710  154.7040 O   0  0  0  0  0  0  0  0  0  0  0  0
  161.7150  209.3440  157.2420 C   0  0  0  0  0  2  0  0  0  0  0  0
  160.5550  208.6220  155.1440 C   0  0  0  0  0  0  0  0  0  0  0  0
  158.2210  211.1790  154.2010 N   0  0  0  0  0  0  0  0  0  0  0  0
  156.1770  212.1840  153.6590 O   0  0  0  0  0  0  0  0  0  0  0  0
  156.2890  211.3380  155.8810 C   0  0  0  0  0  2  0  0  0  0  0  0
  157.1220  213.5200  156.8740 C   0  0  0  0  0  1  0  0  0  0  0  0
  159.0910  210.6580  155.2630 C   0  0  2  0  0  3  0  0  0  0  0  0
  156.8830  211.5980  154.5240 C   0  0  0  0  0  0  0  0  0  0  0  0
  158.4320  211.3840  157.2610 C   0  0  0  0  0  2  0  0  0  0  0  0
  157.0520  212.0060  157.0290 C   0  0  2  0  0  3  0  0  0  0  0  0
  159.3120  211.6700  156.2080 O   0  0  0  0  0  0  0  0  0  0  0  0
  158.7220  211.4040  152.8480 C   0  0  0  0  0  1  0  0  0  0  0  0
  162.6650  210.6700  152.8360 C   0  0  0  0  0  3  0  0  0  0  0  0
  163.2260  209.9770  152.0040 O   0  0  0  0  0  0  0  0  0  0  0  0
  160.1420  207.5330  154.1980 C   0  0  0  0  0  2  0  0  0  0  0  0
  161.1240  207.3570  153.0400 C   0  0  2  0  0  3  0  0  0  0  0  0
  160.6050  208.1160  151.8350 C   0  0  0  0  0  1  0  0  0  0  0  0
  161.2890  205.8940  152.6620 C   0  0  0  0  0  2  0  0  0  0  0  0
  161.6300  205.7400  151.1900 C   0  0  0  0  0  2  0  0  0  0  0  0
  160.7830  202.8650  151.3290 C   0  0  0  0  0  1  0  0  0  0  0  0
  160.4450  205.2080  150.3830 C   0  0  2  0  0  3  0  0  0  0  0  0
  160.5660  203.7050  150.0840 C   0  0  1  0  0  3  0  0  0  0  0  0
  161.3640  204.1340  147.8610 O   0  0  0  0  0  0  0  0  0  0  0  0
  161.4760  205.5160  148.1160 C   0  0  0  0  0  2  0  0  0  0  0  0
  160.3590  205.9760  149.0610 C   0  0  0  0  0  2  0  0  0  0  0  0
  161.6750  203.4670  149.0590 C   0  0  0  0  0  2  0  0  0  0  0  0
  1 21  1  6  0  0  0
  1  8  1  0  0  0  0
  1  7  1  0  0  0  0
  2  5  1  6  0  0  0
  2  9  1  0  0  0  0
  3  7  1  0  0  0  0
  3 10  1  1  0  0  0
  3 15  1  0  0  0  0
  4  5  1  0  0  0  0
  6  9  1  0  0  0  0
  7  2  1  0  0  0  0
  8  4  1  0  0  0  0
 10  6  2  0  0  0  0
 11 16  1  0  0  0  0
 11 15  1  0  0  0  0
 12 16  2  0  0  0  0
 13 18  1  0  0  0  0
 14 18  1  0  0  0  0
 15 19  1  0  0  0  0
 16 13  1  0  0  0  0
 18 17  1  0  0  0  0
 19 17  1  0  0  0  0
 20 11  1  0  0  0  0
 22 21  2  0  0  0  0
 23 10  1  0  0  0  0
 24 23  1  0  0  0  0
 25 24  1  0  0  0  0
 26 24  1  0  0  0  0
 27 26  1  0  0  0  0
 29 27  1  0  0  0  0
 30 29  1  0  0  0  0
 30 28  1  0  0  0  0
 31 32  1  0  0  0  0
 31 34  1  0  0  0  0
 32 33  1  0  0  0  0
 33 29  1  0  0  0  0
 34 30  1  0  0  0  0
M  END
>  <MODEL>
5

>  <REMARK>
 VINA RESULT:      -2.7      1.536      2.453
  Name = 
  7 active torsions:
  status: ('A' for Active; 'I' for Inactive)
    1  A    between atoms: C_1  and  C_24
    2  A    between atoms: C_3  and  C_13
    3  A    between atoms: C_3  and  C_17
    4  A    between atoms: C_4  and  C_21
    5  A    between atoms: C_5  and  C_18
    6  A    between atoms: C_5  and  C_31
    7  A    between atoms: C_17  and  C_18
                            x       y       z     vdW  Elec       q    Type
                         _______ _______ _______ _____ _____    ______ ____

>  <TORSDO>
F 7

$$$$
=
 OpenBabel11062408103D

 34 37  0  0  1  0  0  0  0  0999 V2000
  159.3920  210.4530  155.3650 C   0  0  2  0  0  3  0  0  0  0  0  0
  161.7050  209.4250  155.6000 C   0  0  1  0  0  3  0  0  0  0  0  0
  160.4940  209.3040  153.3650 C   0  0  1  0  0  3  0  0  0  0  0  0
  160.5360  210.8800  157.2610 C   0  0  0  0  0  2  0  0  0  0  0  0
  161.5570  209.7590  157.0860 C   0  0  0  0  0  2  0  0  0  0  0  0
  162.2440  211.0280  153.6650 C   0  0  0  0  0  3  0  0  0  0  0  0
  160.3280  209.3190  154.8970 C   0  0  2  0  0  3  0  0  0  0  0  0
  159.2920  210.4550  156.7680 O   0  0  0  0  0  0  0  0  0  0  0  0
  162.7220  210.3710  154.9340 C   0  0  0  0  0  2  0  0  0  0  0  0
  161.2580  210.5210  152.9090 C   0  0  0  0  0  0  0  0  0  0  0  0
  161.4250  208.0800  151.3820 N   0  0  0  0  0  0  0  0  0  0  0  0
  162.3180  206.9940  149.5100 O   0  0  0  0  0  0  0  0  0  0  0  0
  162.8720  205.9710  151.5860 C   0  0  0  0  0  2  0  0  0  0  0  0
  160.8750  204.4050  151.5680 C   0  0  0  0  0  1  0  0  0  0  0  0
  161.1390  208.0140  152.8210 C   0  0  2  0  0  3  0  0  0  0  0  0
  162.1920  207.0310  150.7640 C   0  0  0  0  0  0  0  0  0  0  0  0
  161.2640  205.9200  153.5630 C   0  0  0  0  0  2  0  0  0  0  0  0
  161.9090  205.1250  152.4250 C   0  0  2  0  0  3  0  0  0  0  0  0
  160.3620  206.8780  153.0800 O   0  0  0  0  0  0  0  0  0  0  0  0
  160.8380  209.1150  150.5360 C   0  0  0  0  0  1  0  0  0  0  0  0
  158.0270  210.2850  154.7750 C   0  0  0  0  0  3  0  0  0  0  0  0
  157.0450  210.7140  155.3570 O   0  0  0  0  0  0  0  0  0  0  0  0
  160.7890  211.2740  151.6990 C   0  0  0  0  0  2  0  0  0  0  0  0
  159.9840  212.5230  152.0600 C   0  0  2  0  0  3  0  0  0  0  0  0
  158.5290  212.1380  152.2340 C   0  0  0  0  0  1  0  0  0  0  0  0
  160.0840  213.5850  150.9780 C   0  0  0  0  0  2  0  0  0  0  0  0
  160.7170  213.0270  149.7150 C   0  0  0  0  0  2  0  0  0  0  0  0
  158.5940  213.4130  147.6290 C   0  0  0  0  0  1  0  0  0  0  0  0
  160.8430  214.0910  148.6230 C   0  0  2  0  0  3  0  0  0  0  0  0
  160.0540  213.7260  147.3550 C   0  0  1  0  0  3  0  0  0  0  0  0
  162.0380  212.9450  146.2540 O   0  0  0  0  0  0  0  0  0  0  0  0
  162.7980  213.0590  147.4360 C   0  0  0  0  0  2  0  0  0  0  0  0
  162.3210  214.2610  148.2610 C   0  0  0  0  0  2  0  0  0  0  0  0
  160.7390  212.5660  146.6330 C   0  0  0  0  0  2  0  0  0  0  0  0
  1 21  1  6  0  0  0
  1  8  1  0  0  0  0
  2  9  1  6  0  0  0
  2  5  1  0  0  0  0
  3 10  1  1  0  0  0
  3  7  1  0  0  0  0
  5  4  1  0  0  0  0
  6  9  1  0  0  0  0
  7  1  1  0  0  0  0
  7  2  1  0  0  0  0
  8  4  1  0  0  0  0
 10  6  2  0  0  0  0
 11 15  1  0  0  0  0
 12 16  2  0  0  0  0
 13 18  1  0  0  0  0
 14 18  1  0  0  0  0
 15 19  1  0  0  0  0
 15  3  1  0  0  0  0
 16 11  1  0  0  0  0
 16 13  1  0  0  0  0
 18 17  1  0  0  0  0
 19 17  1  0  0  0  0
 20 11  1  0  0  0  0
 21 22  2  0  0  0  0
 23 24  1  0  0  0  0
 23 10  1  0  0  0  0
 24 25  1  0  0  0  0
 26 24  1  0  0  0  0
 27 26  1  0  0  0  0
 29 27  1  0  0  0  0
 30 28  1  0  0  0  0
 30 29  1  0  0  0  0
 31 34  1  0  0  0  0
 31 32  1  0  0  0  0
 32 33  1  0  0  0  0
 33 29  1  0  0  0  0
 34 30  1  0  0  0  0
M  END
>  <MODEL>
6

>  <REMARK>
 VINA RESULT:      -2.0      3.356      6.484
  Name = 
  7 active torsions:
  status: ('A' for Active; 'I' for Inactive)
    1  A    between atoms: C_1  and  C_24
    2  A    between atoms: C_3  and  C_13
    3  A    between atoms: C_3  and  C_17
    4  A    between atoms: C_4  and  C_21
    5  A    between atoms: C_5  and  C_18
    6  A    between atoms: C_5  and  C_31
    7  A    between atoms: C_17  and  C_18
                            x       y       z     vdW  Elec       q    Type
                         _______ _______ _______ _____ _____    ______ ____

>  <TORSDO>
F 7

$$$$
