=
 OpenBabel11052422203D

 25 28  0  0  1  0  0  0  0  0999 V2000
  161.2200  204.7000  150.6900 C   0  0  0  0  0  0  0  0  0  0  0  0
  161.4150  205.9320  150.0540 C   0  0  0  0  0  0  0  0  0  0  0  0
  161.2090  205.6540  152.9020 C   0  0  0  0  0  3  0  0  0  0  0  0
  161.0820  203.4130  150.2160 C   0  0  0  0  0  0  0  0  0  0  0  0
  161.4610  206.8610  147.7240 C   0  0  0  0  0  0  0  0  0  0  0  0
  160.3280  200.7310  149.7690 C   0  0  0  0  0  2  0  0  0  0  0  0
  161.4180  206.9100  152.3140 C   0  0  0  0  0  3  0  0  0  0  0  0
  160.9090  202.5920  151.2670 N   0  0  0  0  0  0  0  0  0  0  0  0
  160.8760  201.1370  151.1510 C   0  0  0  0  0  2  0  0  0  0  0  0
  161.7370  208.5150  150.4540 C   0  0  1  0  0  3  0  0  0  0  0  0
  162.5290  209.2250  151.3600 O   0  0  0  0  0  1  0  0  0  0  0  0
  161.5590  206.5300  146.3370 N   0  0  0  0  0  2  0  0  0  0  0  0
  161.4960  205.9120  148.6150 N   0  0  0  0  0  0  0  0  0  0  0  0
  160.8460  201.6090  148.6480 C   0  0  0  0  0  3  0  0  0  0  0  0
  161.1190  204.5640  152.0530 C   0  0  0  0  0  0  0  0  0  0  0  0
  160.9430  203.2730  152.4050 N   0  0  0  0  0  0  0  0  0  0  0  0
  162.3270  208.6780  149.0770 C   0  0  0  0  0  2  0  0  0  0  0  0
  161.1550  202.8960  148.8480 C   0  0  0  0  0  3  0  0  0  0  0  0
  161.2770  208.2870  148.0790 C   0  0  0  0  0  2  0  0  0  0  0  0
  161.5510  207.0830  150.9110 C   0  0  0  0  0  0  0  0  0  0  0  0
  163.2270  204.8420  145.7620 C   0  0  0  0  0  1  0  0  0  0  0  0
  161.7470  205.1670  145.8540 C   0  0  2  0  0  3  0  0  0  0  0  0
  161.1040  205.0050  144.5180 C   0  0  0  0  0  0  0  0  0  0  0  0
  160.1320  204.0320  144.3380 O   0  0  0  0  0  1  0  0  0  0  0  0
  161.4440  205.7350  143.5490 O   0  0  0  0  0  0  0  0  0  0  0  0
  1 15  1  0  0  0  0
  2  1  1  0  0  0  0
  2 20  2  0  0  0  0
  4  1  2  0  0  0  0
  4  8  1  0  0  0  0
  5 19  1  0  0  0  0
  5 13  2  0  0  0  0
  6  9  1  0  0  0  0
  7  3  2  0  0  0  0
  8 16  1  0  0  0  0
  9  8  1  0  0  0  0
 10 20  1  0  0  0  0
 10 11  1  1  0  0  0
 12  5  1  0  0  0  0
 13  2  1  0  0  0  0
 14 18  2  0  0  0  0
 14  6  1  0  0  0  0
 15 16  2  0  0  0  0
 15  3  1  0  0  0  0
 17 10  1  0  0  0  0
 18  4  1  0  0  0  0
 19 17  1  0  0  0  0
 20  7  1  0  0  0  0
 22 21  1  6  0  0  0
 22 12  1  0  0  0  0
 23 22  1  0  0  0  0
 24 23  1  0  0  0  0
 25 23  2  0  0  0  0
M  END
>  <MODEL>
1

>  <REMARK>
 VINA RESULT:      -9.1      0.000      0.000
  Name = 
  2 active torsions:
  status: ('A' for Active; 'I' for Inactive)
    1  A    between atoms: C_2  and  CA_25
    2  A    between atoms: N_15  and  CA_25
                            x       y       z     vdW  Elec       q    Type
                         _______ _______ _______ _____ _____    ______ ____

>  <TORSDO>
F 2

$$$$
=
 OpenBabel11052422203D

 25 28  0  0  1  0  0  0  0  0999 V2000
  161.2040  205.1760  150.4920 C   0  0  0  0  0  0  0  0  0  0  0  0
  161.0830  203.9280  149.8700 C   0  0  0  0  0  0  0  0  0  0  0  0
  160.9950  204.2750  152.7160 C   0  0  0  0  0  3  0  0  0  0  0  0
  161.3810  206.4530  150.0020 C   0  0  0  0  0  0  0  0  0  0  0  0
  161.2810  202.9430  147.5700 C   0  0  0  0  0  0  0  0  0  0  0  0
  162.1590  209.1300  149.5700 C   0  0  0  0  0  2  0  0  0  0  0  0
  160.8560  203.0030  152.1410 C   0  0  0  0  0  3  0  0  0  0  0  0
  161.4400  207.3000  151.0460 N   0  0  0  0  0  0  0  0  0  0  0  0
  161.4760  208.7520  150.8980 C   0  0  0  0  0  2  0  0  0  0  0  0
  160.7390  201.3520  150.2980 C   0  0  1  0  0  3  0  0  0  0  0  0
  159.8630  200.6560  151.1350 O   0  0  0  0  0  1  0  0  0  0  0  0
  161.3230  203.2400  146.1720 N   0  0  0  0  0  2  0  0  0  0  0  0
  161.1490  203.9120  148.4290 N   0  0  0  0  0  0  0  0  0  0  0  0
  161.7640  208.2210  148.4230 C   0  0  0  0  0  3  0  0  0  0  0  0
  161.1640  205.3450  151.8540 C   0  0  0  0  0  0  0  0  0  0  0  0
  161.2950  206.6450  152.1900 N   0  0  0  0  0  0  0  0  0  0  0  0
  160.2930  201.1510  148.8720 C   0  0  0  0  0  2  0  0  0  0  0  0
  161.4440  206.9360  148.6220 C   0  0  0  0  0  3  0  0  0  0  0  0
  161.4370  201.5280  147.9770 C   0  0  0  0  0  2  0  0  0  0  0  0
  160.8680  202.7960  150.7360 C   0  0  0  0  0  0  0  0  0  0  0  0
  160.4350  204.5540  144.3150 C   0  0  0  0  0  1  0  0  0  0  0  0
  161.1760  204.5890  145.6400 C   0  0  2  0  0  3  0  0  0  0  0  0
  162.5180  205.2160  145.4600 C   0  0  0  0  0  0  0  0  0  0  0  0
  163.6010  204.7370  146.1820 O   0  0  0  0  0  1  0  0  0  0  0  0
  162.6730  206.1830  144.6680 O   0  0  0  0  0  0  0  0  0  0  0  0
  1 15  1  0  0  0  0
  2  1  1  0  0  0  0
  2 20  2  0  0  0  0
  4  1  2  0  0  0  0
  4  8  1  0  0  0  0
  5 19  1  0  0  0  0
  5 13  2  0  0  0  0
  6  9  1  0  0  0  0
  7  3  2  0  0  0  0
  8 16  1  0  0  0  0
  9  8  1  0  0  0  0
 10 20  1  0  0  0  0
 10 11  1  1  0  0  0
 12  5  1  0  0  0  0
 13  2  1  0  0  0  0
 14 18  2  0  0  0  0
 14  6  1  0  0  0  0
 15 16  2  0  0  0  0
 15  3  1  0  0  0  0
 17 10  1  0  0  0  0
 18  4  1  0  0  0  0
 19 17  1  0  0  0  0
 20  7  1  0  0  0  0
 22 21  1  6  0  0  0
 22 12  1  0  0  0  0
 23 22  1  0  0  0  0
 23 24  1  0  0  0  0
 25 23  2  0  0  0  0
M  END
>  <MODEL>
2

>  <REMARK>
 VINA RESULT:      -8.6      2.199      4.820
  Name = 
  2 active torsions:
  status: ('A' for Active; 'I' for Inactive)
    1  A    between atoms: C_2  and  CA_25
    2  A    between atoms: N_15  and  CA_25
                            x       y       z     vdW  Elec       q    Type
                         _______ _______ _______ _____ _____    ______ ____

>  <TORSDO>
F 2

$$$$
=
 OpenBabel11052422203D

 25 28  0  0  1  0  0  0  0  0999 V2000
  161.4870  206.9290  150.9860 C   0  0  0  0  0  0  0  0  0  0  0  0
  161.3310  205.6000  150.5730 C   0  0  0  0  0  0  0  0  0  0  0  0
  161.3840  206.3880  153.3310 C   0  0  0  0  0  3  0  0  0  0  0  0
  161.6440  208.1110  150.2940 C   0  0  0  0  0  0  0  0  0  0  0  0
  161.4120  204.2660  148.4500 C   0  0  0  0  0  0  0  0  0  0  0  0
  162.4100  210.6790  149.4110 C   0  0  0  0  0  2  0  0  0  0  0  0
  161.2120  205.0440  152.9700 C   0  0  0  0  0  3  0  0  0  0  0  0
  161.7580  209.1100  151.1880 N   0  0  0  0  0  0  0  0  0  0  0  0
  161.7920  210.5210  150.8130 C   0  0  0  0  0  2  0  0  0  0  0  0
  160.9990  203.1270  151.4160 C   0  0  1  0  0  3  0  0  0  0  0  0
  160.1630  202.5800  152.3930 O   0  0  0  0  0  1  0  0  0  0  0  0
  161.3860  204.3410  147.0220 N   0  0  0  0  0  2  0  0  0  0  0  0
  161.3250  205.3590  149.1520 N   0  0  0  0  0  0  0  0  0  0  0  0
  161.9560  209.6060  148.4410 C   0  0  0  0  0  3  0  0  0  0  0  0
  161.5150  207.3090  152.3050 C   0  0  0  0  0  0  0  0  0  0  0  0
  161.6670  208.6440  152.4270 N   0  0  0  0  0  0  0  0  0  0  0  0
  160.4830  202.7110  150.0630 C   0  0  0  0  0  2  0  0  0  0  0  0
  161.6420  208.3730  148.8540 C   0  0  0  0  0  3  0  0  0  0  0  0
  161.5830  202.9300  149.0650 C   0  0  0  0  0  2  0  0  0  0  0  0
  161.1540  204.6200  151.6150 C   0  0  0  0  0  0  0  0  0  0  0  0
  159.7530  205.8140  145.9600 C   0  0  0  0  0  1  0  0  0  0  0  0
  161.2180  205.5920  146.2930 C   0  0  2  0  0  3  0  0  0  0  0  0
  162.0280  205.5650  145.0410 C   0  0  0  0  0  0  0  0  0  0  0  0
  161.4110  205.7960  143.8190 O   0  0  0  0  0  0  0  0  0  0  0  0
  163.2640  205.3240  145.0810 O   0  0  0  0  0  1  0  0  0  0  0  0
  1 15  1  0  0  0  0
  2  1  1  0  0  0  0
  2 20  2  0  0  0  0
  4  1  2  0  0  0  0
  4  8  1  0  0  0  0
  5 19  1  0  0  0  0
  5 13  2  0  0  0  0
  6  9  1  0  0  0  0
  7  3  2  0  0  0  0
  8 16  1  0  0  0  0
  9  8  1  0  0  0  0
 10 20  1  0  0  0  0
 10 11  1  1  0  0  0
 12  5  1  0  0  0  0
 13  2  1  0  0  0  0
 14 18  2  0  0  0  0
 14  6  1  0  0  0  0
 15 16  2  0  0  0  0
 15  3  1  0  0  0  0
 17 10  1  0  0  0  0
 18  4  1  0  0  0  0
 19 17  1  0  0  0  0
 20  7  1  0  0  0  0
 22 21  1  6  0  0  0
 22 12  1  0  0  0  0
 23 25  1  0  0  0  0
 23 22  1  0  0  0  0
 24 23  2  0  0  0  0
M  END
>  <MODEL>
3

>  <REMARK>
 VINA RESULT:      -7.9      2.231      4.890
  Name = 
  2 active torsions:
  status: ('A' for Active; 'I' for Inactive)
    1  A    between atoms: C_2  and  CA_25
    2  A    between atoms: N_15  and  CA_25
                            x       y       z     vdW  Elec       q    Type
                         _______ _______ _______ _____ _____    ______ ____

>  <TORSDO>
F 2

$$$$
=
 OpenBabel11052422203D

 25 28  0  0  1  0  0  0  0  0999 V2000
  161.1630  204.7210  149.1670 C   0  0  0  0  0  0  0  0  0  0  0  0
  161.1590  205.6270  150.2340 C   0  0  0  0  0  0  0  0  0  0  0  0
  160.8420  202.7970  150.5810 C   0  0  0  0  0  3  0  0  0  0  0  0
  161.3000  204.8800  147.8040 C   0  0  0  0  0  0  0  0  0  0  0  0
  161.1660  208.1100  150.5950 C   0  0  0  0  0  0  0  0  0  0  0  0
  161.0930  204.6900  144.9970 C   0  0  0  0  0  2  0  0  0  0  0  0
  160.8440  203.6620  151.6850 C   0  0  0  0  0  3  0  0  0  0  0  0
  161.2230  203.6660  147.2290 N   0  0  0  0  0  0  0  0  0  0  0  0
  161.4720  203.4360  145.8080 C   0  0  0  0  0  2  0  0  0  0  0  0
  160.9630  205.8440  152.8510 C   0  0  1  0  0  3  0  0  0  0  0  0
  161.5520  205.1220  153.8920 O   0  0  0  0  0  1  0  0  0  0  0  0
  161.4060  209.3790  149.9810 N   0  0  0  0  0  2  0  0  0  0  0  0
  161.3280  207.0200  149.9020 N   0  0  0  0  0  0  0  0  0  0  0  0
  161.5010  205.9800  145.6790 C   0  0  0  0  0  3  0  0  0  0  0  0
  161.0100  203.3660  149.3300 C   0  0  0  0  0  0  0  0  0  0  0  0
  161.0610  202.7220  148.1450 N   0  0  0  0  0  0  0  0  0  0  0  0
  161.5920  207.2130  152.8080 C   0  0  0  0  0  2  0  0  0  0  0  0
  161.5490  206.0850  147.0130 C   0  0  0  0  0  3  0  0  0  0  0  0
  160.6950  208.1040  151.9990 C   0  0  0  0  0  2  0  0  0  0  0  0
  161.0250  205.0650  151.5540 C   0  0  0  0  0  0  0  0  0  0  0  0
  163.2020  208.8050  148.4290 C   0  0  0  0  0  1  0  0  0  0  0  0
  161.8770  209.5230  148.6090 C   0  0  2  0  0  3  0  0  0  0  0  0
  162.0280  210.9680  148.2700 C   0  0  0  0  0  0  0  0  0  0  0  0
  161.0400  211.6070  147.5340 O   0  0  0  0  0  0  0  0  0  0  0  0
  163.0490  211.6090  148.6350 O   0  0  0  0  0  1  0  0  0  0  0  0
  1 15  1  0  0  0  0
  1  2  1  0  0  0  0
  2 20  2  0  0  0  0
  3  7  2  0  0  0  0
  4  1  2  0  0  0  0
  5 19  1  0  0  0  0
  6 14  1  0  0  0  0
  6  9  1  0  0  0  0
  8  4  1  0  0  0  0
  8 16  1  0  0  0  0
  9  8  1  0  0  0  0
 10 11  1  1  0  0  0
 12  5  1  0  0  0  0
 13  2  1  0  0  0  0
 13  5  2  0  0  0  0
 14 18  2  0  0  0  0
 15  3  1  0  0  0  0
 16 15  2  0  0  0  0
 17 10  1  0  0  0  0
 18  4  1  0  0  0  0
 19 17  1  0  0  0  0
 20  7  1  0  0  0  0
 20 10  1  0  0  0  0
 22 21  1  1  0  0  0
 22 12  1  0  0  0  0
 23 22  1  0  0  0  0
 23 25  1  0  0  0  0
 24 23  2  0  0  0  0
M  END
>  <MODEL>
4

>  <REMARK>
 VINA RESULT:      -7.2      2.823      4.630
  Name = 
  2 active torsions:
  status: ('A' for Active; 'I' for Inactive)
    1  A    between atoms: C_2  and  CA_25
    2  A    between atoms: N_15  and  CA_25
                            x       y       z     vdW  Elec       q    Type
                         _______ _______ _______ _____ _____    ______ ____

>  <TORSDO>
F 2

$$$$
=
 OpenBabel11052422203D

 25 28  0  0  1  0  0  0  0  0999 V2000
  161.1610  203.6620  147.9390 C   0  0  0  0  0  0  0  0  0  0  0  0
  161.2070  204.0500  149.2830 C   0  0  0  0  0  0  0  0  0  0  0  0
  160.9650  201.3160  148.4500 C   0  0  0  0  0  3  0  0  0  0  0  0
  161.2100  204.3710  146.7570 C   0  0  0  0  0  0  0  0  0  0  0  0
  161.1910  206.1650  150.6330 C   0  0  0  0  0  0  0  0  0  0  0  0
  160.8310  205.3390  144.1350 C   0  0  0  0  0  2  0  0  0  0  0  0
  161.0200  201.6520  149.8100 C   0  0  0  0  0  3  0  0  0  0  0  0
  161.1190  203.4980  145.7380 N   0  0  0  0  0  0  0  0  0  0  0  0
  161.2830  203.8810  144.3380 C   0  0  0  0  0  2  0  0  0  0  0  0
  161.1720  203.1670  151.7640 C   0  0  1  0  0  3  0  0  0  0  0  0
  161.8380  202.1070  152.3850 O   0  0  0  0  0  1  0  0  0  0  0  0
  161.3700  207.5830  150.5850 N   0  0  0  0  0  2  0  0  0  0  0  0
  161.3290  205.4630  149.5450 N   0  0  0  0  0  0  0  0  0  0  0  0
  161.2570  206.2520  145.2670 C   0  0  0  0  0  3  0  0  0  0  0  0
  161.0430  202.3540  147.5370 C   0  0  0  0  0  0  0  0  0  0  0  0
  161.0310  202.2550  146.1910 N   0  0  0  0  0  0  0  0  0  0  0  0
  161.7720  204.4590  152.2570 C   0  0  0  0  0  2  0  0  0  0  0  0
  161.3870  205.8040  146.5210 C   0  0  0  0  0  3  0  0  0  0  0  0
  160.8100  205.5640  151.9320 C   0  0  0  0  0  2  0  0  0  0  0  0
  161.1660  202.9910  150.2590 C   0  0  0  0  0  0  0  0  0  0  0  0
  163.0210  207.7030  148.7890 C   0  0  0  0  0  1  0  0  0  0  0  0
  161.7510  208.2970  149.3720 C   0  0  2  0  0  3  0  0  0  0  0  0
  161.9550  209.7430  149.6740 C   0  0  0  0  0  0  0  0  0  0  0  0
  161.9590  210.6660  148.6370 O   0  0  0  0  0  0  0  0  0  0  0  0
  162.1350  210.1330  150.8580 O   0  0  0  0  0  1  0  0  0  0  0  0
  1  2  1  0  0  0  0
  2 13  1  0  0  0  0
  2 20  2  0  0  0  0
  3  7  2  0  0  0  0
  4  1  2  0  0  0  0
  5 19  1  0  0  0  0
  6  9  1  0  0  0  0
  6 14  1  0  0  0  0
  7 20  1  0  0  0  0
  8 16  1  0  0  0  0
  8  4  1  0  0  0  0
  9  8  1  0  0  0  0
 10 17  1  0  0  0  0
 10 11  1  1  0  0  0
 12  5  1  0  0  0  0
 13  5  2  0  0  0  0
 14 18  2  0  0  0  0
 15  1  1  0  0  0  0
 15  3  1  0  0  0  0
 16 15  2  0  0  0  0
 18  4  1  0  0  0  0
 19 17  1  0  0  0  0
 20 10  1  0  0  0  0
 22 21  1  1  0  0  0
 22 23  1  0  0  0  0
 22 12  1  0  0  0  0
 23 25  1  0  0  0  0
 24 23  2  0  0  0  0
M  END
>  <MODEL>
5

>  <REMARK>
 VINA RESULT:      -7.1      2.669      5.506
  Name = 
  2 active torsions:
  status: ('A' for Active; 'I' for Inactive)
    1  A    between atoms: C_2  and  CA_25
    2  A    between atoms: N_15  and  CA_25
                            x       y       z     vdW  Elec       q    Type
                         _______ _______ _______ _____ _____    ______ ____

>  <TORSDO>
F 2

$$$$
=
 OpenBabel11052422203D

 25 28  0  0  1  0  0  0  0  0999 V2000
  161.2550  206.8360  151.1610 C   0  0  0  0  0  0  0  0  0  0  0  0
  161.2360  208.0300  151.8920 C   0  0  0  0  0  0  0  0  0  0  0  0
  161.1420  205.4390  153.1200 C   0  0  0  0  0  3  0  0  0  0  0  0
  161.3150  206.5660  149.8100 C   0  0  0  0  0  0  0  0  0  0  0  0
  161.0820  210.4970  151.4640 C   0  0  0  0  0  0  0  0  0  0  0  0
  160.9890  205.4940  147.2210 C   0  0  0  0  0  2  0  0  0  0  0  0
  161.1340  206.6060  153.8980 C   0  0  0  0  0  3  0  0  0  0  0  0
  161.2980  205.2310  149.6460 N   0  0  0  0  0  0  0  0  0  0  0  0
  161.4950  204.5810  148.3540 C   0  0  0  0  0  2  0  0  0  0  0  0
  161.1500  209.0470  154.3200 C   0  0  1  0  0  3  0  0  0  0  0  0
  161.8390  208.7200  155.4910 O   0  0  0  0  0  1  0  0  0  0  0  0
  161.2010  211.5200  150.4720 N   0  0  0  0  0  2  0  0  0  0  0  0
  161.2880  209.2550  151.1330 N   0  0  0  0  0  0  0  0  0  0  0  0
  161.3350  206.9530  147.4400 C   0  0  0  0  0  3  0  0  0  0  0  0
  161.2080  205.5940  151.7460 C   0  0  0  0  0  0  0  0  0  0  0  0
  161.2480  204.6150  150.8190 N   0  0  0  0  0  0  0  0  0  0  0  0
  161.6760  210.3640  153.8120 C   0  0  0  0  0  2  0  0  0  0  0  0
  161.4390  207.4740  148.6690 C   0  0  0  0  0  3  0  0  0  0  0  0
  160.6800  210.9070  152.8290 C   0  0  0  0  0  2  0  0  0  0  0  0
  161.2060  207.9040  153.3270 C   0  0  0  0  0  0  0  0  0  0  0  0
  163.0890  211.4530  148.9240 C   0  0  0  0  0  1  0  0  0  0  0  0
  161.5930  211.2520  149.0940 C   0  0  2  0  0  3  0  0  0  0  0  0
  160.8480  212.1510  148.1660 C   0  0  0  0  0  0  0  0  0  0  0  0
  160.2960  213.3290  148.6480 O   0  0  0  0  0  1  0  0  0  0  0  0
  160.7040  211.8440  146.9520 O   0  0  0  0  0  0  0  0  0  0  0  0
  1 15  1  0  0  0  0
  1  2  1  0  0  0  0
  2 20  2  0  0  0  0
  3  7  2  0  0  0  0
  4  1  2  0  0  0  0
  5 19  1  0  0  0  0
  6 14  1  0  0  0  0
  6  9  1  0  0  0  0
  8  4  1  0  0  0  0
  8 16  1  0  0  0  0
  9  8  1  0  0  0  0
 10 11  1  1  0  0  0
 12  5  1  0  0  0  0
 13  5  2  0  0  0  0
 13  2  1  0  0  0  0
 14 18  2  0  0  0  0
 15  3  1  0  0  0  0
 16 15  2  0  0  0  0
 17 10  1  0  0  0  0
 18  4  1  0  0  0  0
 19 17  1  0  0  0  0
 20  7  1  0  0  0  0
 20 10  1  0  0  0  0
 22 21  1  1  0  0  0
 22 12  1  0  0  0  0
 23 24  1  0  0  0  0
 23 22  1  0  0  0  0
 25 23  2  0  0  0  0
M  END
>  <MODEL>
6

>  <REMARK>
 VINA RESULT:      -6.8      3.120      5.078
  Name = 
  2 active torsions:
  status: ('A' for Active; 'I' for Inactive)
    1  A    between atoms: C_2  and  CA_25
    2  A    between atoms: N_15  and  CA_25
                            x       y       z     vdW  Elec       q    Type
                         _______ _______ _______ _____ _____    ______ ____

>  <TORSDO>
F 2

$$$$
=
 OpenBabel11052422203D

 25 28  0  0  1  0  0  0  0  0999 V2000
  161.4730  206.5320  150.2890 C   0  0  0  0  0  0  0  0  0  0  0  0
  161.6170  207.8470  150.7460 C   0  0  0  0  0  0  0  0  0  0  0  0
  161.8640  207.1120  147.9840 C   0  0  0  0  0  3  0  0  0  0  0  0
  161.2050  205.3420  150.9320 C   0  0  0  0  0  0  0  0  0  0  0  0
  161.7380  209.0800  152.9280 C   0  0  0  0  0  0  0  0  0  0  0  0
  161.1210  202.6510  151.7750 C   0  0  0  0  0  2  0  0  0  0  0  0
  162.0050  208.4470  148.3890 C   0  0  0  0  0  3  0  0  0  0  0  0
  161.1790  204.3620  150.0100 N   0  0  0  0  0  0  0  0  0  0  0  0
  160.7800  202.9900  150.3110 C   0  0  0  0  0  2  0  0  0  0  0  0
  162.0840  210.3290  149.9980 C   0  0  1  0  0  3  0  0  0  0  0  0
  161.5770  211.0950  148.9450 O   0  0  0  0  0  1  0  0  0  0  0  0
  161.4830  208.9950  154.3320 N   0  0  0  0  0  2  0  0  0  0  0  0
  161.4670  208.0610  152.1640 N   0  0  0  0  0  0  0  0  0  0  0  0
  160.8310  203.7930  152.7280 C   0  0  0  0  0  3  0  0  0  0  0  0
  161.5920  206.1770  148.9670 C   0  0  0  0  0  0  0  0  0  0  0  0
  161.3990  204.8520  148.7980 N   0  0  0  0  0  0  0  0  0  0  0  0
  161.5040  210.8510  151.2870 C   0  0  0  0  0  2  0  0  0  0  0  0
  160.9210  205.0710  152.3420 C   0  0  0  0  0  3  0  0  0  0  0  0
  162.3470  210.3280  152.4140 C   0  0  0  0  0  2  0  0  0  0  0  0
  161.8640  208.8520  149.7430 C   0  0  0  0  0  0  0  0  0  0  0  0
  159.3680  207.9350  154.9380 C   0  0  0  0  0  1  0  0  0  0  0  0
  160.8830  207.8270  154.9640 C   0  0  2  0  0  3  0  0  0  0  0  0
  161.3620  207.7040  156.3720 C   0  0  0  0  0  0  0  0  0  0  0  0
  160.7280  206.8240  157.2380 O   0  0  0  0  0  1  0  0  0  0  0  0
  162.3270  208.4010  156.7840 O   0  0  0  0  0  0  0  0  0  0  0  0
  1  2  1  0  0  0  0
  1  4  2  0  0  0  0
  2 13  1  0  0  0  0
  3  7  2  0  0  0  0
  3 15  1  0  0  0  0
  4 18  1  0  0  0  0
  5 12  1  0  0  0  0
  6 14  1  0  0  0  0
  7 20  1  0  0  0  0
  8  9  1  0  0  0  0
  8  4  1  0  0  0  0
  9  6  1  0  0  0  0
 10 11  1  6  0  0  0
 10 17  1  0  0  0  0
 12 22  1  0  0  0  0
 13  5  2  0  0  0  0
 15  1  1  0  0  0  0
 16 15  2  0  0  0  0
 16  8  1  0  0  0  0
 17 19  1  0  0  0  0
 18 14  2  0  0  0  0
 19  5  1  0  0  0  0
 20 10  1  0  0  0  0
 20  2  2  0  0  0  0
 22 21  1  1  0  0  0
 22 23  1  0  0  0  0
 23 25  2  0  0  0  0
 23 24  1  0  0  0  0
M  END
>  <MODEL>
7

>  <REMARK>
 VINA RESULT:      -6.7      2.994      6.380
  Name = 
  2 active torsions:
  status: ('A' for Active; 'I' for Inactive)
    1  A    between atoms: C_2  and  CA_25
    2  A    between atoms: N_15  and  CA_25
                            x       y       z     vdW  Elec       q    Type
                         _______ _______ _______ _____ _____    ______ ____

>  <TORSDO>
F 2

$$$$
=
 OpenBabel11052422203D

 25 28  0  0  1  0  0  0  0  0999 V2000
  161.2910  207.6490  152.2620 C   0  0  0  0  0  0  0  0  0  0  0  0
  161.4630  207.4540  150.8870 C   0  0  0  0  0  0  0  0  0  0  0  0
  160.9820  205.3060  152.7250 C   0  0  0  0  0  3  0  0  0  0  0  0
  161.2990  208.7760  153.0570 C   0  0  0  0  0  0  0  0  0  0  0  0
  162.0990  208.7920  148.8610 C   0  0  0  0  0  0  0  0  0  0  0  0
  161.6440  210.6510  155.1370 C   0  0  0  0  0  2  0  0  0  0  0  0
  161.1350  205.0590  151.3530 C   0  0  0  0  0  3  0  0  0  0  0  0
  161.0870  208.3960  154.3290 N   0  0  0  0  0  0  0  0  0  0  0  0
  160.8860  209.3410  155.4240 C   0  0  0  0  0  2  0  0  0  0  0  0
  161.5250  205.6420  148.9770 C   0  0  1  0  0  3  0  0  0  0  0  0
  160.6920  204.5560  148.6970 O   0  0  0  0  0  1  0  0  0  0  0  0
  162.2520  210.1120  148.3340 N   0  0  0  0  0  2  0  0  0  0  0  0
  161.6990  208.6330  150.0900 N   0  0  0  0  0  0  0  0  0  0  0  0
  161.5510  211.0800  153.6860 C   0  0  0  0  0  3  0  0  0  0  0  0
  161.0620  206.6220  153.1450 C   0  0  0  0  0  0  0  0  0  0  0  0
  160.9250  207.0820  154.4060 N   0  0  0  0  0  0  0  0  0  0  0  0
  161.2920  206.7020  147.9310 C   0  0  0  0  0  2  0  0  0  0  0  0
  161.4390  210.1880  152.6950 C   0  0  0  0  0  3  0  0  0  0  0  0
  162.4500  207.6550  147.9790 C   0  0  0  0  0  2  0  0  0  0  0  0
  161.3480  206.0990  150.4100 C   0  0  0  0  0  0  0  0  0  0  0  0
  160.4420  211.5850  149.0560 C   0  0  0  0  0  1  0  0  0  0  0  0
  161.9360  211.3150  149.0950 C   0  0  2  0  0  3  0  0  0  0  0  0
  162.6810  212.4820  148.5390 C   0  0  0  0  0  0  0  0  0  0  0  0
  162.1190  213.7490  148.6050 O   0  0  0  0  0  1  0  0  0  0  0  0
  163.8090  212.3250  147.9990 O   0  0  0  0  0  0  0  0  0  0  0  0
  1  4  2  0  0  0  0
  1 15  1  0  0  0  0
  2  1  1  0  0  0  0
  3 15  1  0  0  0  0
  4  8  1  0  0  0  0
  5 13  2  0  0  0  0
  6  9  1  0  0  0  0
  7  3  2  0  0  0  0
  8 16  1  0  0  0  0
  8  9  1  0  0  0  0
 10 11  1  6  0  0  0
 10 20  1  0  0  0  0
 12  5  1  0  0  0  0
 12 22  1  0  0  0  0
 13  2  1  0  0  0  0
 14  6  1  0  0  0  0
 15 16  2  0  0  0  0
 17 19  1  0  0  0  0
 17 10  1  0  0  0  0
 18  4  1  0  0  0  0
 18 14  2  0  0  0  0
 19  5  1  0  0  0  0
 20  2  2  0  0  0  0
 20  7  1  0  0  0  0
 22 21  1  6  0  0  0
 23 24  1  0  0  0  0
 23 22  1  0  0  0  0
 25 23  2  0  0  0  0
M  END
>  <MODEL>
8

>  <REMARK>
 VINA RESULT:      -6.4      3.177      6.254
  Name = 
  2 active torsions:
  status: ('A' for Active; 'I' for Inactive)
    1  A    between atoms: C_2  and  CA_25
    2  A    between atoms: N_15  and  CA_25
                            x       y       z     vdW  Elec       q    Type
                         _______ _______ _______ _____ _____    ______ ____

>  <TORSDO>
F 2

$$$$
=
 OpenBabel11052422203D

 25 28  0  0  1  0  0  0  0  0999 V2000
  161.5530  208.0510  150.2670 C   0  0  0  0  0  0  0  0  0  0  0  0
  161.3590  207.3650  151.4720 C   0  0  0  0  0  0  0  0  0  0  0  0
  161.3940  206.0630  148.9160 C   0  0  0  0  0  3  0  0  0  0  0  0
  161.7590  209.3820  149.9700 C   0  0  0  0  0  0  0  0  0  0  0  0
  161.0160  207.8880  153.9010 C   0  0  0  0  0  0  0  0  0  0  0  0
  161.7670  211.9520  148.8060 C   0  0  0  0  0  2  0  0  0  0  0  0
  161.2090  205.3280  150.0960 C   0  0  0  0  0  3  0  0  0  0  0  0
  161.8810  209.5020  148.6350 N   0  0  0  0  0  0  0  0  0  0  0  0
  162.2520  210.7490  147.9740 C   0  0  0  0  0  2  0  0  0  0  0  0
  160.9620  204.9900  152.5370 C   0  0  1  0  0  3  0  0  0  0  0  0
  161.5690  203.7530  152.3070 O   0  0  0  0  0  1  0  0  0  0  0  0
  161.1280  208.9000  154.9050 N   0  0  0  0  0  2  0  0  0  0  0  0
  161.3650  208.1570  152.6760 N   0  0  0  0  0  0  0  0  0  0  0  0
  161.9550  211.7520  150.2960 C   0  0  0  0  0  3  0  0  0  0  0  0
  161.5690  207.4300  149.0420 C   0  0  0  0  0  0  0  0  0  0  0  0
  161.7820  208.3170  148.0470 N   0  0  0  0  0  0  0  0  0  0  0  0
  161.4070  205.4940  153.8860 C   0  0  0  0  0  2  0  0  0  0  0  0
  161.9000  210.5380  150.8560 C   0  0  0  0  0  3  0  0  0  0  0  0
  160.4570  206.5780  154.3060 C   0  0  0  0  0  2  0  0  0  0  0  0
  161.2120  205.9350  151.3800 C   0  0  0  0  0  0  0  0  0  0  0  0
  162.6090  210.6470  155.7550 C   0  0  0  0  0  1  0  0  0  0  0  0
  161.6660  210.2290  154.6400 C   0  0  2  0  0  3  0  0  0  0  0  0
  160.5530  211.2150  154.5160 C   0  0  0  0  0  0  0  0  0  0  0  0
  159.6250  211.0760  153.4930 O   0  0  0  0  0  0  0  0  0  0  0  0
  160.4560  212.1780  155.3210 O   0  0  0  0  0  1  0  0  0  0  0  0
  1  2  1  0  0  0  0
  2 13  1  0  0  0  0
  3 15  1  0  0  0  0
  3  7  2  0  0  0  0
  4  1  2  0  0  0  0
  4 18  1  0  0  0  0
  5 19  1  0  0  0  0
  5 12  1  0  0  0  0
  6 14  1  0  0  0  0
  7 20  1  0  0  0  0
  8  4  1  0  0  0  0
  9  8  1  0  0  0  0
  9  6  1  0  0  0  0
 10 11  1  6  0  0  0
 10 17  1  0  0  0  0
 13  5  2  0  0  0  0
 14 18  2  0  0  0  0
 15  1  1  0  0  0  0
 16  8  1  0  0  0  0
 16 15  2  0  0  0  0
 17 19  1  0  0  0  0
 20  2  2  0  0  0  0
 20 10  1  0  0  0  0
 22 12  1  0  0  0  0
 22 21  1  1  0  0  0
 23 22  1  0  0  0  0
 23 25  1  0  0  0  0
 24 23  2  0  0  0  0
M  END
>  <MODEL>
9

>  <REMARK>
 VINA RESULT:      -6.3      3.759      7.885
  Name = 
  2 active torsions:
  status: ('A' for Active; 'I' for Inactive)
    1  A    between atoms: C_2  and  CA_25
    2  A    between atoms: N_15  and  CA_25
                            x       y       z     vdW  Elec       q    Type
                         _______ _______ _______ _____ _____    ______ ____

>  <TORSDO>
F 2

$$$$
