=
 OpenBabel11052422303D

 31 35  0  0  1  0  0  0  0  0999 V2000
  160.6550  205.7740  148.0130 C   0  0  0  0  0  3  0  0  0  0  0  0
  160.6060  205.4620  150.5240 C   0  0  2  0  0  3  0  0  0  0  0  0
  160.3520  204.0130  150.3910 N   0  0  1  0  0  0  0  0  0  0  0  0
  161.0830  206.1910  149.2820 C   0  0  0  0  0  0  0  0  0  0  0  0
  161.7720  207.6550  146.9840 C   0  0  0  0  0  3  0  0  0  0  0  0
  161.0890  203.1640  149.4430 C   0  0  1  0  0  3  0  0  0  0  0  0
  161.5950  207.3010  151.8960 C   0  0  0  0  0  0  0  0  0  0  0  0
  160.5690  206.0210  145.5310 C   0  0  0  0  0  1  0  0  0  0  0  0
  160.5340  203.6250  153.0310 C   0  0  0  0  0  2  0  0  0  0  0  0
  162.2650  207.9630  150.7250 C   0  0  0  0  0  2  0  0  0  0  0  0
  161.4110  205.8230  151.8020 C   0  0  1  0  0  3  0  0  0  0  0  0
  161.1870  207.9540  152.9470 N   0  0  0  0  0  0  0  0  0  0  0  0
  161.0100  206.4910  146.8690 C   0  0  0  0  0  0  0  0  0  0  0  0
  161.8150  207.4020  149.3980 C   0  0  0  0  0  0  0  0  0  0  0  0
  162.1700  208.1080  148.2440 C   0  0  0  0  0  3  0  0  0  0  0  0
  161.0240  205.0990  153.1240 C   0  0  0  0  0  2  0  0  0  0  0  0
  161.6420  203.3850  150.7770 C   0  0  2  0  0  3  0  0  0  0  0  0
  161.3150  202.6750  152.0850 C   0  0  0  0  0  2  0  0  0  0  0  0
  162.3530  209.8930  153.6020 O   0  0  0  0  0  0  0  0  0  0  0  0
  161.2850  209.3680  153.1890 C   0  0  0  0  0  0  0  0  0  0  0  0
  158.6460  212.7000  153.0570 C   0  0  0  0  0  0  0  0  0  0  0  0
  159.5600  210.7640  154.2850 C   0  0  0  0  0  2  0  0  0  0  0  0
  161.5480  211.1730  150.6670 Cl  0  0  0  0  0  0  0  0  0  0  0  0
  157.7630  213.7190  152.9350 F   0  0  0  0  0  0  0  0  0  0  0  0
  158.5480  211.8580  154.0890 C   0  0  0  0  0  3  0  0  0  0  0  0
  160.4060  211.3780  151.9880 C   0  0  0  0  0  0  0  0  0  0  0  0
  160.0980  210.2430  152.9450 C   0  0  1  0  0  3  0  0  0  0  0  0
  159.6760  212.4980  152.0230 C   0  0  0  0  0  3  0  0  0  0  0  0
  160.4150  201.8060  149.3370 C   0  0  0  0  0  2  0  0  0  0  0  0
  161.1900  200.9020  148.3970 C   0  0  0  0  0  2  0  0  0  0  0  0
  160.9720  201.2890  147.0740 O   0  0  0  0  0  1  0  0  0  0  0  0
  1  4  1  0  0  0  0
  2  4  1  6  0  0  0
  2 11  1  0  0  0  0
  3  2  1  0  0  0  0
  3 17  1  0  0  0  0
  4 14  2  0  0  0  0
  5 15  2  0  0  0  0
  6  3  1  0  0  0  0
  6 17  1  0  0  0  0
  7 12  2  0  0  0  0
  8 13  1  0  0  0  0
  9 16  1  0  0  0  0
 10  7  1  0  0  0  0
 11  7  1  0  0  0  0
 11 16  1  0  0  0  0
 12 20  1  0  0  0  0
 13  5  1  0  0  0  0
 13  1  2  0  0  0  0
 14 10  1  0  0  0  0
 15 14  1  0  0  0  0
 17 18  1  0  0  0  0
 18  9  1  0  0  0  0
 20 19  2  0  0  0  0
 21 25  2  0  0  0  0
 23 26  1  0  0  0  0
 24 21  1  0  0  0  0
 25 22  1  0  0  0  0
 26 28  2  0  0  0  0
 26 27  1  0  0  0  0
 27 20  1  0  0  0  0
 27 22  1  0  0  0  0
 28 21  1  0  0  0  0
 29  6  1  0  0  0  0
 30 29  1  0  0  0  0
 31 30  1  0  0  0  0
M  END
>  <MODEL>
1

>  <REMARK>
 VINA RESULT:      -8.2      0.000      0.000
  Name = 
  4 active torsions:
  status: ('A' for Active; 'I' for Inactive)
    1  A    between atoms: C_9  and  C_22
    2  A    between atoms: C_9  and  N_23
    3  A    between atoms: C_10  and  C_14
    4  A    between atoms: C_10  and  C_18
                            x       y       z     vdW  Elec       q    Type
                         _______ _______ _______ _____ _____    ______ ____

>  <TORSDO>
F 4

$$$$
=
 OpenBabel11052422303D

 31 35  0  0  1  0  0  0  0  0999 V2000
  160.6290  205.8160  148.0410 C   0  0  0  0  0  3  0  0  0  0  0  0
  160.6270  205.5060  150.5520 C   0  0  2  0  0  3  0  0  0  0  0  0
  160.3150  204.0680  150.4260 N   0  0  1  0  0  0  0  0  0  0  0  0
  161.1030  206.2160  149.2990 C   0  0  0  0  0  0  0  0  0  0  0  0
  161.7940  207.6520  146.9840 C   0  0  0  0  0  3  0  0  0  0  0  0
  160.9970  203.1910  149.4620 C   0  0  1  0  0  3  0  0  0  0  0  0
  161.7180  207.3050  151.9000 C   0  0  0  0  0  0  0  0  0  0  0  0
  160.4950  206.0660  145.5610 C   0  0  0  0  0  1  0  0  0  0  0  0
  160.5430  203.6730  153.0620 C   0  0  0  0  0  2  0  0  0  0  0  0
  162.3850  207.9410  150.7120 C   0  0  0  0  0  2  0  0  0  0  0  0
  161.4760  205.8360  151.8110 C   0  0  1  0  0  3  0  0  0  0  0  0
  161.3600  207.9730  152.9590 N   0  0  0  0  0  0  0  0  0  0  0  0
  160.9850  206.5190  146.8880 C   0  0  0  0  0  0  0  0  0  0  0  0
  161.8840  207.3980  149.3970 C   0  0  0  0  0  0  0  0  0  0  0  0
  162.2380  208.0900  148.2340 C   0  0  0  0  0  3  0  0  0  0  0  0
  161.0920  205.1270  153.1420 C   0  0  0  0  0  2  0  0  0  0  0  0
  161.5890  203.3900  150.7830 C   0  0  2  0  0  3  0  0  0  0  0  0
  161.2660  202.6940  152.0990 C   0  0  0  0  0  2  0  0  0  0  0  0
  162.1570  210.1180  152.3990 O   0  0  0  0  0  0  0  0  0  0  0  0
  161.5180  209.3830  153.1980 C   0  0  0  0  0  0  0  0  0  0  0  0
  160.4520  212.1220  156.2710 C   0  0  0  0  0  0  0  0  0  0  0  0
  162.0260  210.4450  155.3750 C   0  0  0  0  0  2  0  0  0  0  0  0
  159.0040  211.1210  152.6140 Cl  0  0  0  0  0  0  0  0  0  0  0  0
  160.0290  212.9430  157.2610 F   0  0  0  0  0  0  0  0  0  0  0  0
  161.4920  211.3110  156.4810 C   0  0  0  0  0  3  0  0  0  0  0  0
  159.9730  211.1400  154.0810 C   0  0  0  0  0  0  0  0  0  0  0  0
  160.9120  209.9980  154.4180 C   0  0  1  0  0  3  0  0  0  0  0  0
  159.7310  212.0940  154.9860 C   0  0  0  0  0  3  0  0  0  0  0  0
  160.2680  201.8600  149.3730 C   0  0  0  0  0  2  0  0  0  0  0  0
  161.0080  200.9130  148.4460 C   0  0  0  0  0  2  0  0  0  0  0  0
  160.9410  201.3800  147.1330 O   0  0  0  0  0  1  0  0  0  0  0  0
  1  4  1  0  0  0  0
  2  4  1  6  0  0  0
  2 11  1  0  0  0  0
  3  2  1  0  0  0  0
  3 17  1  0  0  0  0
  4 14  2  0  0  0  0
  5 15  2  0  0  0  0
  6  3  1  0  0  0  0
  6 17  1  0  0  0  0
  7 12  2  0  0  0  0
  8 13  1  0  0  0  0
  9 16  1  0  0  0  0
 10  7  1  0  0  0  0
 11  7  1  0  0  0  0
 11 16  1  0  0  0  0
 12 20  1  0  0  0  0
 13  5  1  0  0  0  0
 13  1  2  0  0  0  0
 14 10  1  0  0  0  0
 15 14  1  0  0  0  0
 17 18  1  0  0  0  0
 18  9  1  0  0  0  0
 19 20  2  0  0  0  0
 20 27  1  0  0  0  0
 21 25  2  0  0  0  0
 21 24  1  0  0  0  0
 22 25  1  0  0  0  0
 23 26  1  0  0  0  0
 26 27  1  0  0  0  0
 26 28  2  0  0  0  0
 27 22  1  0  0  0  0
 28 21  1  0  0  0  0
 29  6  1  0  0  0  0
 30 29  1  0  0  0  0
 31 30  1  0  0  0  0
M  END
>  <MODEL>
2

>  <REMARK>
 VINA RESULT:      -8.1      1.427      1.694
  Name = 
  4 active torsions:
  status: ('A' for Active; 'I' for Inactive)
    1  A    between atoms: C_9  and  C_22
    2  A    between atoms: C_9  and  N_23
    3  A    between atoms: C_10  and  C_14
    4  A    between atoms: C_10  and  C_18
                            x       y       z     vdW  Elec       q    Type
                         _______ _______ _______ _____ _____    ______ ____

>  <TORSDO>
F 4

$$$$
=
 OpenBabel11052422303D

 31 35  0  0  1  0  0  0  0  0999 V2000
  160.8280  205.1390  147.4880 C   0  0  0  0  0  3  0  0  0  0  0  0
  160.5840  204.6390  149.9570 C   0  0  2  0  0  3  0  0  0  0  0  0
  160.4080  203.1950  149.7000 N   0  0  1  0  0  0  0  0  0  0  0  0
  161.1300  205.4770  148.8160 C   0  0  0  0  0  0  0  0  0  0  0  0
  161.9410  207.1330  146.6950 C   0  0  0  0  0  3  0  0  0  0  0  0
  161.2590  202.4480  148.7620 C   0  0  1  0  0  3  0  0  0  0  0  0
  161.3710  206.4080  151.5370 C   0  0  0  0  0  0  0  0  0  0  0  0
  160.9390  205.5660  145.0310 C   0  0  0  0  0  1  0  0  0  0  0  0
  160.3860  202.6190  152.3120 C   0  0  0  0  0  2  0  0  0  0  0  0
  162.1050  207.1810  150.4770 C   0  0  0  0  0  2  0  0  0  0  0  0
  161.2630  204.9350  151.3230 C   0  0  1  0  0  3  0  0  0  0  0  0
  160.8470  206.9650  152.5920 N   0  0  0  0  0  0  0  0  0  0  0  0
  161.2450  205.9520  146.4330 C   0  0  0  0  0  0  0  0  0  0  0  0
  161.7940  206.7030  149.0800 C   0  0  0  0  0  0  0  0  0  0  0  0
  162.2110  207.5070  148.0140 C   0  0  0  0  0  3  0  0  0  0  0  0
  160.7990  204.1000  152.5510 C   0  0  0  0  0  2  0  0  0  0  0  0
  161.6880  202.5910  150.1520 C   0  0  2  0  0  3  0  0  0  0  0  0
  161.2860  201.7740  151.3730 C   0  0  0  0  0  2  0  0  0  0  0  0
  160.1430  209.1970  152.3330 O   0  0  0  0  0  0  0  0  0  0  0  0
  160.8610  208.3600  152.9410 C   0  0  0  0  0  0  0  0  0  0  0  0
  162.4670  210.5750  156.1960 C   0  0  0  0  0  0  0  0  0  0  0  0
  162.2030  210.2710  153.7610 C   0  0  0  0  0  2  0  0  0  0  0  0
  159.9480  207.4220  155.7640 Cl  0  0  0  0  0  0  0  0  0  0  0  0
  163.0250  211.1970  157.2610 F   0  0  0  0  0  0  0  0  0  0  0  0
  162.8590  210.8960  154.9600 C   0  0  0  0  0  3  0  0  0  0  0  0
  161.0730  208.7250  155.4050 C   0  0  0  0  0  0  0  0  0  0  0  0
  161.7430  208.8350  154.0500 C   0  0  1  0  0  3  0  0  0  0  0  0
  161.4670  209.5140  156.4110 C   0  0  0  0  0  3  0  0  0  0  0  0
  160.6580  201.0760  148.5020 C   0  0  0  0  0  2  0  0  0  0  0  0
  161.5760  200.2560  147.6160 C   0  0  0  0  0  2  0  0  0  0  0  0
  161.0700  200.2110  146.3160 O   0  0  0  0  0  1  0  0  0  0  0  0
  1  4  1  0  0  0  0
  2  4  1  6  0  0  0
  2 11  1  0  0  0  0
  3  2  1  0  0  0  0
  3 17  1  0  0  0  0
  4 14  2  0  0  0  0
  5 15  2  0  0  0  0
  6  3  1  0  0  0  0
  6 17  1  0  0  0  0
  7 12  2  0  0  0  0
  8 13  1  0  0  0  0
  9 16  1  0  0  0  0
 10  7  1  0  0  0  0
 11  7  1  0  0  0  0
 11 16  1  0  0  0  0
 12 20  1  0  0  0  0
 13  5  1  0  0  0  0
 13  1  2  0  0  0  0
 14 10  1  0  0  0  0
 15 14  1  0  0  0  0
 17 18  1  0  0  0  0
 18  9  1  0  0  0  0
 19 20  2  0  0  0  0
 20 27  1  0  0  0  0
 21 28  1  0  0  0  0
 21 24  1  0  0  0  0
 22 27  1  0  0  0  0
 22 25  1  0  0  0  0
 25 21  2  0  0  0  0
 26 23  1  0  0  0  0
 26 28  2  0  0  0  0
 27 26  1  0  0  0  0
 29  6  1  0  0  0  0
 30 29  1  0  0  0  0
 31 30  1  0  0  0  0
M  END
>  <MODEL>
3

>  <REMARK>
 VINA RESULT:      -7.3      2.474      2.767
  Name = 
  4 active torsions:
  status: ('A' for Active; 'I' for Inactive)
    1  A    between atoms: C_9  and  C_22
    2  A    between atoms: C_9  and  N_23
    3  A    between atoms: C_10  and  C_14
    4  A    between atoms: C_10  and  C_18
                            x       y       z     vdW  Elec       q    Type
                         _______ _______ _______ _____ _____    ______ ____

>  <TORSDO>
F 4

$$$$
=
 OpenBabel11052422303D

 31 35  0  0  1  0  0  0  0  0999 V2000
  162.0350  205.2570  151.2960 C   0  0  0  0  0  3  0  0  0  0  0  0
  162.2680  207.7410  150.8760 C   0  0  2  0  0  3  0  0  0  0  0  0
  162.4700  207.5300  149.4280 N   0  0  1  0  0  0  0  0  0  0  0  0
  161.7180  206.5710  151.6690 C   0  0  0  0  0  0  0  0  0  0  0  0
  160.8960  204.3950  153.2460 C   0  0  0  0  0  3  0  0  0  0  0  0
  161.6380  206.6090  148.6380 C   0  0  1  0  0  3  0  0  0  0  0  0
  161.4400  209.2600  152.6790 C   0  0  0  0  0  0  0  0  0  0  0  0
  161.9380  202.7870  151.6460 C   0  0  0  0  0  1  0  0  0  0  0  0
  162.4800  210.1590  148.9320 C   0  0  0  0  0  2  0  0  0  0  0  0
  160.7010  208.1720  153.4070 C   0  0  0  0  0  2  0  0  0  0  0  0
  161.5730  209.0930  151.2020 C   0  0  1  0  0  3  0  0  0  0  0  0
  161.9450  210.3020  153.2760 N   0  0  0  0  0  0  0  0  0  0  0  0
  161.6140  204.1740  152.0700 C   0  0  0  0  0  0  0  0  0  0  0  0
  161.0310  206.7930  152.8920 C   0  0  0  0  0  0  0  0  0  0  0  0
  160.6100  205.6990  153.6550 C   0  0  0  0  0  3  0  0  0  0  0  0
  162.0400  210.3500  150.4130 C   0  0  0  0  0  2  0  0  0  0  0  0
  161.1950  207.9910  148.8160 C   0  0  2  0  0  3  0  0  0  0  0  0
  161.6010  209.2390  148.0440 C   0  0  0  0  0  2  0  0  0  0  0  0
  162.8320  210.2540  155.4580 O   0  0  0  0  0  0  0  0  0  0  0  0
  161.9060  210.6080  154.6810 C   0  0  0  0  0  0  0  0  0  0  0  0
  157.9820  212.0620  155.4340 C   0  0  0  0  0  0  0  0  0  0  0  0
  160.0680  212.1670  154.1200 C   0  0  0  0  0  2  0  0  0  0  0  0
  160.2980  209.0360  156.8320 Cl  0  0  0  0  0  0  0  0  0  0  0  0
  156.7620  212.5460  155.7660 F   0  0  0  0  0  0  0  0  0  0  0  0
  158.7420  212.7230  154.5580 C   0  0  0  0  0  3  0  0  0  0  0  0
  159.7580  210.4610  155.9530 C   0  0  0  0  0  0  0  0  0  0  0  0
  160.7450  211.3640  155.2390 C   0  0  1  0  0  3  0  0  0  0  0  0
  158.4810  210.8340  156.0800 C   0  0  0  0  0  3  0  0  0  0  0  0
  162.2640  206.3960  147.2700 C   0  0  0  0  0  2  0  0  0  0  0  0
  162.1800  204.9340  146.8720 C   0  0  0  0  0  2  0  0  0  0  0  0
  161.6420  204.1840  147.9190 O   0  0  0  0  0  1  0  0  0  0  0  0
  1  4  2  0  0  0  0
  1 13  1  0  0  0  0
  2 11  1  0  0  0  0
  2  4  1  6  0  0  0
  3  2  1  0  0  0  0
  4 14  1  0  0  0  0
  5 15  1  0  0  0  0
  6 17  1  0  0  0  0
  6  3  1  0  0  0  0
  7 12  2  0  0  0  0
  7 10  1  0  0  0  0
  8 13  1  0  0  0  0
  9 16  1  0  0  0  0
 11  7  1  0  0  0  0
 12 20  1  0  0  0  0
 13  5  2  0  0  0  0
 14 10  1  0  0  0  0
 14 15  2  0  0  0  0
 16 11  1  0  0  0  0
 17  3  1  0  0  0  0
 18 17  1  0  0  0  0
 18  9  1  0  0  0  0
 20 27  1  0  0  0  0
 20 19  2  0  0  0  0
 21 24  1  0  0  0  0
 21 28  1  0  0  0  0
 22 25  1  0  0  0  0
 22 27  1  0  0  0  0
 25 21  2  0  0  0  0
 26 28  2  0  0  0  0
 26 23  1  0  0  0  0
 27 26  1  0  0  0  0
 29  6  1  0  0  0  0
 30 29  1  0  0  0  0
 30 31  1  0  0  0  0
M  END
>  <MODEL>
4

>  <REMARK>
 VINA RESULT:      -7.3      2.280      4.515
  Name = 
  4 active torsions:
  status: ('A' for Active; 'I' for Inactive)
    1  A    between atoms: C_9  and  C_22
    2  A    between atoms: C_9  and  N_23
    3  A    between atoms: C_10  and  C_14
    4  A    between atoms: C_10  and  C_18
                            x       y       z     vdW  Elec       q    Type
                         _______ _______ _______ _____ _____    ______ ____

>  <TORSDO>
F 4

$$$$
=
 OpenBabel11052422303D

 31 35  0  0  1  0  0  0  0  0999 V2000
  161.6130  202.9690  148.7170 C   0  0  0  0  0  3  0  0  0  0  0  0
  161.8370  205.4410  149.2090 C   0  0  2  0  0  3  0  0  0  0  0  0
  162.0760  205.7550  147.7860 N   0  0  1  0  0  0  0  0  0  0  0  0
  161.2760  204.0670  149.5230 C   0  0  0  0  0  0  0  0  0  0  0  0
  160.4320  201.4750  150.2070 C   0  0  0  0  0  3  0  0  0  0  0  0
  161.2720  205.1740  146.7000 C   0  0  1  0  0  3  0  0  0  0  0  0
  160.9520  206.2260  151.4100 C   0  0  0  0  0  0  0  0  0  0  0  0
  161.5250  200.5350  148.1690 C   0  0  0  0  0  1  0  0  0  0  0  0
  162.0790  208.3890  148.2520 C   0  0  0  0  0  2  0  0  0  0  0  0
  160.2040  204.9520  151.6870 C   0  0  0  0  0  2  0  0  0  0  0  0
  161.1240  206.5910  149.9740 C   0  0  1  0  0  3  0  0  0  0  0  0
  161.4350  206.9880  152.3500 N   0  0  0  0  0  0  0  0  0  0  0  0
  161.1800  201.6830  149.0470 C   0  0  0  0  0  0  0  0  0  0  0  0
  160.5570  203.8430  150.7270 C   0  0  0  0  0  0  0  0  0  0  0  0
  160.1250  202.5510  151.0430 C   0  0  0  0  0  3  0  0  0  0  0  0
  161.6010  208.0450  149.6920 C   0  0  0  0  0  2  0  0  0  0  0  0
  160.8140  206.4040  147.3430 C   0  0  2  0  0  3  0  0  0  0  0  0
  161.2300  207.8440  147.0730 C   0  0  0  0  0  2  0  0  0  0  0  0
  161.2660  205.6210  154.2610 O   0  0  0  0  0  0  0  0  0  0  0  0
  161.3580  206.7780  153.7710 C   0  0  0  0  0  0  0  0  0  0  0  0
  160.5280  210.5070  155.6380 C   0  0  0  0  0  0  0  0  0  0  0  0
  161.7160  209.2230  153.8970 C   0  0  0  0  0  2  0  0  0  0  0  0
  159.1740  206.6960  155.9860 Cl  0  0  0  0  0  0  0  0  0  0  0  0
  160.2970  211.6550  156.3170 F   0  0  0  0  0  0  0  0  0  0  0  0
  161.4900  210.4650  154.7140 C   0  0  0  0  0  3  0  0  0  0  0  0
  160.1020  208.1020  155.4800 C   0  0  0  0  0  0  0  0  0  0  0  0
  161.3890  207.9530  154.6940 C   0  0  1  0  0  3  0  0  0  0  0  0
  159.7460  209.2990  155.9590 C   0  0  0  0  0  3  0  0  0  0  0  0
  161.9330  205.4580  145.3610 C   0  0  0  0  0  2  0  0  0  0  0  0
  161.0190  205.0470  144.2220 C   0  0  0  0  0  2  0  0  0  0  0  0
  160.3690  203.8530  144.5380 O   0  0  0  0  0  1  0  0  0  0  0  0
  1 13  2  0  0  0  0
  1  4  1  0  0  0  0
  2  4  1  6  0  0  0
  2 11  1  0  0  0  0
  3  2  1  0  0  0  0
  4 14  2  0  0  0  0
  5 15  2  0  0  0  0
  6 17  1  0  0  0  0
  6  3  1  0  0  0  0
  7 10  1  0  0  0  0
  7 12  2  0  0  0  0
  8 13  1  0  0  0  0
  9 16  1  0  0  0  0
 11  7  1  0  0  0  0
 12 20  1  0  0  0  0
 13  5  1  0  0  0  0
 14 15  1  0  0  0  0
 14 10  1  0  0  0  0
 16 11  1  0  0  0  0
 17  3  1  0  0  0  0
 18 17  1  0  0  0  0
 18  9  1  0  0  0  0
 20 19  2  0  0  0  0
 20 27  1  0  0  0  0
 21 28  1  0  0  0  0
 21 24  1  0  0  0  0
 22 27  1  0  0  0  0
 22 25  1  0  0  0  0
 25 21  2  0  0  0  0
 26 28  2  0  0  0  0
 26 23  1  0  0  0  0
 27 26  1  0  0  0  0
 29  6  1  0  0  0  0
 30 31  1  0  0  0  0
 30 29  1  0  0  0  0
M  END
>  <MODEL>
5

>  <REMARK>
 VINA RESULT:      -7.1      2.548      4.595
  Name = 
  4 active torsions:
  status: ('A' for Active; 'I' for Inactive)
    1  A    between atoms: C_9  and  C_22
    2  A    between atoms: C_9  and  N_23
    3  A    between atoms: C_10  and  C_14
    4  A    between atoms: C_10  and  C_18
                            x       y       z     vdW  Elec       q    Type
                         _______ _______ _______ _____ _____    ______ ____

>  <TORSDO>
F 4

$$$$
=
 OpenBabel11052422303D

 31 35  0  0  1  0  0  0  0  0999 V2000
  159.8760  209.3490  154.3290 C   0  0  0  0  0  3  0  0  0  0  0  0
  160.5650  208.6600  151.9940 C   0  0  2  0  0  3  0  0  0  0  0  0
  160.5860  210.0620  151.5300 N   0  0  1  0  0  0  0  0  0  0  0  0
  160.5330  208.4340  153.4930 C   0  0  0  0  0  0  0  0  0  0  0  0
  160.2680  207.9290  156.2450 C   0  0  0  0  0  3  0  0  0  0  0  0
  161.2010  211.1460  152.3130 C   0  0  1  0  0  3  0  0  0  0  0  0
  161.4870  206.3520  151.7380 C   0  0  0  0  0  0  0  0  0  0  0  0
  159.0800  210.1000  156.5730 C   0  0  0  0  0  1  0  0  0  0  0  0
  161.5430  209.3710  149.1290 C   0  0  0  0  0  2  0  0  0  0  0  0
  161.6690  206.1430  153.2150 C   0  0  0  0  0  2  0  0  0  0  0  0
  161.5910  207.7590  151.2530 C   0  0  1  0  0  3  0  0  0  0  0  0
  161.2510  205.3790  150.9040 N   0  0  0  0  0  0  0  0  0  0  0  0
  159.7570  209.1070  155.6990 C   0  0  0  0  0  0  0  0  0  0  0  0
  161.0060  207.2150  154.0450 C   0  0  0  0  0  0  0  0  0  0  0  0
  160.8860  206.9870  155.4200 C   0  0  0  0  0  3  0  0  0  0  0  0
  161.7280  207.9410  149.7140 C   0  0  0  0  0  2  0  0  0  0  0  0
  162.0330  210.3740  151.3920 C   0  0  2  0  0  3  0  0  0  0  0  0
  162.2200  210.5420  149.8900 C   0  0  0  0  0  2  0  0  0  0  0  0
  160.6310  203.5880  152.3030 O   0  0  0  0  0  0  0  0  0  0  0  0
  161.1190  203.9800  151.2100 C   0  0  0  0  0  0  0  0  0  0  0  0
  161.1530  200.9470  148.2300 C   0  0  0  0  0  0  0  0  0  0  0  0
  161.0280  201.5800  150.6120 C   0  0  0  0  0  2  0  0  0  0  0  0
  161.1030  205.0050  148.2710 Cl  0  0  0  0  0  0  0  0  0  0  0  0
  161.2530  200.0150  147.2520 F   0  0  0  0  0  0  0  0  0  0  0  0
  161.2100  200.5730  149.5100 C   0  0  0  0  0  3  0  0  0  0  0  0
  161.1660  203.3280  148.7960 C   0  0  0  0  0  0  0  0  0  0  0  0
  161.5660  202.9610  150.2120 C   0  0  1  0  0  3  0  0  0  0  0  0
  161.0330  202.3710  147.8710 C   0  0  0  0  0  3  0  0  0  0  0  0
  160.8150  212.4910  151.7190 C   0  0  0  0  0  2  0  0  0  0  0  0
  159.4070  212.8690  152.1400 C   0  0  0  0  0  2  0  0  0  0  0  0
  159.2700  212.7380  153.5230 O   0  0  0  0  0  1  0  0  0  0  0  0
  1 13  1  0  0  0  0
  2  4  1  1  0  0  0
  3  2  1  0  0  0  0
  3  6  1  0  0  0  0
  4 14  1  0  0  0  0
  4  1  2  0  0  0  0
  7 10  1  0  0  0  0
  9 16  1  0  0  0  0
  9 18  1  0  0  0  0
 10 14  1  0  0  0  0
 11  7  1  0  0  0  0
 11  2  1  0  0  0  0
 12 20  1  0  0  0  0
 12  7  2  0  0  0  0
 13  5  2  0  0  0  0
 13  8  1  0  0  0  0
 14 15  2  0  0  0  0
 15  5  1  0  0  0  0
 16 11  1  0  0  0  0
 17  3  1  0  0  0  0
 17  6  1  0  0  0  0
 18 17  1  0  0  0  0
 20 19  2  0  0  0  0
 21 25  2  0  0  0  0
 23 26  1  0  0  0  0
 24 21  1  0  0  0  0
 25 22  1  0  0  0  0
 26 27  1  0  0  0  0
 27 22  1  0  0  0  0
 27 20  1  0  0  0  0
 28 21  1  0  0  0  0
 28 26  2  0  0  0  0
 29 30  1  0  0  0  0
 29  6  1  0  0  0  0
 30 31  1  0  0  0  0
M  END
>  <MODEL>
6

>  <REMARK>
 VINA RESULT:      -6.6      3.662      8.605
  Name = 
  4 active torsions:
  status: ('A' for Active; 'I' for Inactive)
    1  A    between atoms: C_9  and  C_22
    2  A    between atoms: C_9  and  N_23
    3  A    between atoms: C_10  and  C_14
    4  A    between atoms: C_10  and  C_18
                            x       y       z     vdW  Elec       q    Type
                         _______ _______ _______ _____ _____    ______ ____

>  <TORSDO>
F 4

$$$$
=
 OpenBabel11052422303D

 31 35  0  0  1  0  0  0  0  0999 V2000
  162.1310  209.6320  150.5730 C   0  0  0  0  0  3  0  0  0  0  0  0
  161.6770  207.9640  152.4200 C   0  0  2  0  0  3  0  0  0  0  0  0
  161.5830  209.0350  153.4340 N   0  0  1  0  0  0  0  0  0  0  0  0
  161.6110  208.3900  150.9660 C   0  0  0  0  0  0  0  0  0  0  0  0
  161.7040  209.1100  148.2510 C   0  0  0  0  0  3  0  0  0  0  0  0
  160.8290  210.2770  153.2060 C   0  0  1  0  0  3  0  0  0  0  0  0
  160.9570  205.6800  151.7090 C   0  0  0  0  0  0  0  0  0  0  0  0
  162.6930  211.3280  148.8290 C   0  0  0  0  0  1  0  0  0  0  0  0
  160.8670  207.3110  155.3500 C   0  0  0  0  0  2  0  0  0  0  0  0
  160.6790  206.0900  150.2900 C   0  0  0  0  0  2  0  0  0  0  0  0
  160.7820  206.7370  152.7470 C   0  0  1  0  0  3  0  0  0  0  0  0
  161.3300  204.4780  152.0440 N   0  0  0  0  0  0  0  0  0  0  0  0
  162.1630  209.9980  149.2260 C   0  0  0  0  0  0  0  0  0  0  0  0
  161.1930  207.4720  149.9670 C   0  0  0  0  0  0  0  0  0  0  0  0
  161.2250  207.8520  148.6220 C   0  0  0  0  0  3  0  0  0  0  0  0
  160.7490  206.2440  154.2230 C   0  0  0  0  0  2  0  0  0  0  0  0
  160.1310  209.1110  153.7430 C   0  0  2  0  0  3  0  0  0  0  0  0
  160.0460  208.6160  155.1820 C   0  0  0  0  0  2  0  0  0  0  0  0
  162.1790  202.3350  151.5540 O   0  0  0  0  0  0  0  0  0  0  0  0
  161.5460  203.3550  151.1710 C   0  0  0  0  0  0  0  0  0  0  0  0
  161.0550  202.7870  146.9850 C   0  0  0  0  0  0  0  0  0  0  0  0
  162.0230  204.0780  148.8530 C   0  0  0  0  0  2  0  0  0  0  0  0
  160.0010  200.7800  150.3520 Cl  0  0  0  0  0  0  0  0  0  0  0  0
  160.8010  202.6160  145.6670 F   0  0  0  0  0  0  0  0  0  0  0  0
  161.6660  203.8980  147.4040 C   0  0  0  0  0  3  0  0  0  0  0  0
  160.6360  202.0110  149.2680 C   0  0  0  0  0  0  0  0  0  0  0  0
  161.0090  203.3900  149.7770 C   0  0  1  0  0  3  0  0  0  0  0  0
  160.6120  201.7690  147.9540 C   0  0  0  0  0  3  0  0  0  0  0  0
  161.1540  211.2830  154.2980 C   0  0  0  0  0  2  0  0  0  0  0  0
  159.9810  212.2190  154.5210 C   0  0  0  0  0  2  0  0  0  0  0  0
  159.4500  212.6200  153.2940 O   0  0  0  0  0  1  0  0  0  0  0  0
  1  4  1  0  0  0  0
  2  4  1  6  0  0  0
  2 11  1  0  0  0  0
  2  3  1  0  0  0  0
  3 17  1  0  0  0  0
  5 15  2  0  0  0  0
  5 13  1  0  0  0  0
  6  3  1  0  0  0  0
  6 17  1  0  0  0  0
  6 29  1  0  0  0  0
  7 12  2  0  0  0  0
  7 11  1  0  0  0  0
  8 13  1  0  0  0  0
 10  7  1  0  0  0  0
 11 16  1  0  0  0  0
 13  1  2  0  0  0  0
 14 10  1  0  0  0  0
 14  4  2  0  0  0  0
 15 14  1  0  0  0  0
 16  9  1  0  0  0  0
 17 18  1  0  0  0  0
 18  9  1  0  0  0  0
 20 19  2  0  0  0  0
 20 12  1  0  0  0  0
 21 25  2  0  0  0  0
 21 28  1  0  0  0  0
 22 27  1  0  0  0  0
 24 21  1  0  0  0  0
 25 22  1  0  0  0  0
 26 27  1  0  0  0  0
 26 23  1  0  0  0  0
 27 20  1  0  0  0  0
 28 26  2  0  0  0  0
 29 30  1  0  0  0  0
 31 30  1  0  0  0  0
M  END
>  <MODEL>
7

>  <REMARK>
 VINA RESULT:      -6.6      3.611      7.665
  Name = 
  4 active torsions:
  status: ('A' for Active; 'I' for Inactive)
    1  A    between atoms: C_9  and  C_22
    2  A    between atoms: C_9  and  N_23
    3  A    between atoms: C_10  and  C_14
    4  A    between atoms: C_10  and  C_18
                            x       y       z     vdW  Elec       q    Type
                         _______ _______ _______ _____ _____    ______ ____

>  <TORSDO>
F 4

$$$$
=
 OpenBabel11052422303D

 31 35  0  0  1  0  0  0  0  0999 V2000
  160.2830  208.6980  153.9400 C   0  0  0  0  0  3  0  0  0  0  0  0
  160.8010  208.3700  151.4850 C   0  0  2  0  0  3  0  0  0  0  0  0
  160.8000  209.8270  151.2380 N   0  0  1  0  0  0  0  0  0  0  0  0
  160.8730  207.9210  152.9320 C   0  0  0  0  0  0  0  0  0  0  0  0
  160.7980  207.0060  155.5880 C   0  0  0  0  0  3  0  0  0  0  0  0
  161.4760  210.7820  152.1300 C   0  0  1  0  0  3  0  0  0  0  0  0
  161.6870  206.1310  150.8200 C   0  0  0  0  0  0  0  0  0  0  0  0
  159.6520  209.0980  156.3220 C   0  0  0  0  0  1  0  0  0  0  0  0
  161.5810  209.5090  148.6990 C   0  0  0  0  0  2  0  0  0  0  0  0
  161.9700  205.7020  152.2330 C   0  0  0  0  0  2  0  0  0  0  0  0
  161.7670  207.5950  150.5470 C   0  0  1  0  0  3  0  0  0  0  0  0
  161.3850  205.2940  149.8680 N   0  0  0  0  0  0  0  0  0  0  0  0
  160.2590  208.2510  155.2630 C   0  0  0  0  0  0  0  0  0  0  0  0
  161.3750  206.6340  153.2600 C   0  0  0  0  0  0  0  0  0  0  0  0
  161.3500  206.2010  154.5890 C   0  0  0  0  0  3  0  0  0  0  0  0
  161.7970  208.0080  149.0470 C   0  0  0  0  0  2  0  0  0  0  0  0
  162.2360  210.1600  151.0470 C   0  0  2  0  0  3  0  0  0  0  0  0
  162.3190  210.5540  149.5780 C   0  0  0  0  0  2  0  0  0  0  0  0
  161.5850  203.2480  151.0190 O   0  0  0  0  0  0  0  0  0  0  0  0
  161.2650  203.8640  149.9680 C   0  0  0  0  0  0  0  0  0  0  0  0
  161.0070  201.3520  146.5460 C   0  0  0  0  0  0  0  0  0  0  0  0
  161.4110  203.5870  147.5130 C   0  0  0  0  0  2  0  0  0  0  0  0
  160.8320  200.8420  150.5690 Cl  0  0  0  0  0  0  0  0  0  0  0  0
  160.8310  200.5320  145.4840 F   0  0  0  0  0  0  0  0  0  0  0  0
  161.1420  202.6660  146.3550 C   0  0  0  0  0  3  0  0  0  0  0  0
  160.9340  201.5900  148.9810 C   0  0  0  0  0  0  0  0  0  0  0  0
  160.7480  203.0840  148.8020 C   0  0  1  0  0  3  0  0  0  0  0  0
  160.9980  200.7930  147.9100 C   0  0  0  0  0  3  0  0  0  0  0  0
  161.0590  212.2000  151.7750 C   0  0  0  0  0  2  0  0  0  0  0  0
  159.7680  212.5640  152.4840 C   0  0  0  0  0  2  0  0  0  0  0  0
  159.8330  212.1770  153.8230 O   0  0  0  0  0  1  0  0  0  0  0  0
  1 13  1  0  0  0  0
  2  4  1  1  0  0  0
  3  2  1  0  0  0  0
  3  6  1  0  0  0  0
  4 14  1  0  0  0  0
  4  1  2  0  0  0  0
  7 10  1  0  0  0  0
  9 16  1  0  0  0  0
  9 18  1  0  0  0  0
 10 14  1  0  0  0  0
 11  7  1  0  0  0  0
 11  2  1  0  0  0  0
 12 20  1  0  0  0  0
 12  7  2  0  0  0  0
 13  5  2  0  0  0  0
 13  8  1  0  0  0  0
 14 15  2  0  0  0  0
 15  5  1  0  0  0  0
 16 11  1  0  0  0  0
 17  3  1  0  0  0  0
 17  6  1  0  0  0  0
 18 17  1  0  0  0  0
 20 19  2  0  0  0  0
 21 28  1  0  0  0  0
 22 27  1  0  0  0  0
 24 21  1  0  0  0  0
 25 21  2  0  0  0  0
 25 22  1  0  0  0  0
 26 23  1  0  0  0  0
 27 26  1  0  0  0  0
 27 20  1  0  0  0  0
 28 26  2  0  0  0  0
 29  6  1  0  0  0  0
 29 30  1  0  0  0  0
 30 31  1  0  0  0  0
M  END
>  <MODEL>
8

>  <REMARK>
 VINA RESULT:      -6.2      3.851      8.734
  Name = 
  4 active torsions:
  status: ('A' for Active; 'I' for Inactive)
    1  A    between atoms: C_9  and  C_22
    2  A    between atoms: C_9  and  N_23
    3  A    between atoms: C_10  and  C_14
    4  A    between atoms: C_10  and  C_18
                            x       y       z     vdW  Elec       q    Type
                         _______ _______ _______ _____ _____    ______ ____

>  <TORSDO>
F 4

$$$$
=
 OpenBabel11052422303D

 31 35  0  0  1  0  0  0  0  0999 V2000
  161.1620  205.4850  148.7310 C   0  0  0  0  0  3  0  0  0  0  0  0
  161.0760  207.3980  150.3840 C   0  0  2  0  0  3  0  0  0  0  0  0
  160.7850  206.4830  151.5070 N   0  0  1  0  0  0  0  0  0  0  0  0
  161.5860  206.7700  149.1020 C   0  0  0  0  0  0  0  0  0  0  0  0
  162.3400  205.6710  146.6280 C   0  0  0  0  0  3  0  0  0  0  0  0
  161.5120  205.2190  151.7060 C   0  0  1  0  0  3  0  0  0  0  0  0
  162.0960  209.5570  149.6490 C   0  0  0  0  0  0  0  0  0  0  0  0
  161.1120  203.5600  147.1430 C   0  0  0  0  0  1  0  0  0  0  0  0
  160.9260  208.4600  153.3030 C   0  0  0  0  0  2  0  0  0  0  0  0
  162.7970  208.9480  148.4660 C   0  0  0  0  0  2  0  0  0  0  0  0
  161.8750  208.6580  150.8190 C   0  0  1  0  0  3  0  0  0  0  0  0
  161.6930  210.7950  149.6790 N   0  0  0  0  0  0  0  0  0  0  0  0
  161.5500  204.9320  147.5090 C   0  0  0  0  0  0  0  0  0  0  0  0
  162.3490  207.5360  148.1810 C   0  0  0  0  0  0  0  0  0  0  0  0
  162.7350  206.9680  146.9630 C   0  0  0  0  0  3  0  0  0  0  0  0
  161.4540  209.3550  152.1440 C   0  0  0  0  0  2  0  0  0  0  0  0
  162.0540  206.4480  152.2810 C   0  0  2  0  0  3  0  0  0  0  0  0
  161.6940  207.1420  153.5880 C   0  0  0  0  0  2  0  0  0  0  0  0
  162.8730  211.8730  147.9480 O   0  0  0  0  0  0  0  0  0  0  0  0
  161.8260  211.7830  148.6410 C   0  0  0  0  0  0  0  0  0  0  0  0
  157.9470  213.4230  148.0530 C   0  0  0  0  0  0  0  0  0  0  0  0
  159.9180  212.2540  147.1370 C   0  0  0  0  0  2  0  0  0  0  0  0
  160.4270  212.8390  151.2130 Cl  0  0  0  0  0  0  0  0  0  0  0  0
  156.7480  214.0320  147.8960 F   0  0  0  0  0  0  0  0  0  0  0  0
  158.6210  212.9970  146.9820 C   0  0  0  0  0  3  0  0  0  0  0  0
  159.7910  212.8970  149.5740 C   0  0  0  0  0  0  0  0  0  0  0  0
  160.6980  212.7260  148.3720 C   0  0  1  0  0  3  0  0  0  0  0  0
  158.5200  213.2770  149.4030 C   0  0  0  0  0  3  0  0  0  0  0  0
  160.8030  204.3790  152.7560 C   0  0  0  0  0  2  0  0  0  0  0  0
  160.7690  202.9220  152.3330 C   0  0  0  0  0  2  0  0  0  0  0  0
  160.7060  202.8300  150.9420 O   0  0  0  0  0  1  0  0  0  0  0  0
  1  4  1  0  0  0  0
  2  4  1  6  0  0  0
  2 11  1  0  0  0  0
  2  3  1  0  0  0  0
  3  6  1  0  0  0  0
  3 17  1  0  0  0  0
  5 15  2  0  0  0  0
  5 13  1  0  0  0  0
  6 17  1  0  0  0  0
  6 29  1  0  0  0  0
  7 12  2  0  0  0  0
  7 11  1  0  0  0  0
  8 13  1  0  0  0  0
  9 18  1  0  0  0  0
 10  7  1  0  0  0  0
 11 16  1  0  0  0  0
 13  1  2  0  0  0  0
 14 10  1  0  0  0  0
 14  4  2  0  0  0  0
 15 14  1  0  0  0  0
 16  9  1  0  0  0  0
 17 18  1  0  0  0  0
 19 20  2  0  0  0  0
 20 12  1  0  0  0  0
 21 28  1  0  0  0  0
 22 27  1  0  0  0  0
 24 21  1  0  0  0  0
 25 22  1  0  0  0  0
 25 21  2  0  0  0  0
 26 23  1  0  0  0  0
 27 20  1  0  0  0  0
 27 26  1  0  0  0  0
 28 26  2  0  0  0  0
 30 29  1  0  0  0  0
 31 30  1  0  0  0  0
M  END
>  <MODEL>
9

>  <REMARK>
 VINA RESULT:      -6.2      2.828      3.982
  Name = 
  4 active torsions:
  status: ('A' for Active; 'I' for Inactive)
    1  A    between atoms: C_9  and  C_22
    2  A    between atoms: C_9  and  N_23
    3  A    between atoms: C_10  and  C_14
    4  A    between atoms: C_10  and  C_18
                            x       y       z     vdW  Elec       q    Type
                         _______ _______ _______ _____ _____    ______ ____

>  <TORSDO>
F 4

$$$$
