=
 OpenBabel11062408123D

 34 39  0  0  1  0  0  0  0  0999 V2000
  160.6720  208.0150  154.9330 C   0  0  0  0  0  0  0  0  0  0  0  0
  161.9730  209.9970  154.4160 C   0  0  0  0  0  0  0  0  0  0  0  0
  161.3890  208.3100  152.6130 C   0  0  0  0  0  0  0  0  0  0  0  0
  161.7730  208.4850  150.2000 C   0  0  0  0  0  0  0  0  0  0  0  0
  160.4460  208.5040  156.2200 C   0  0  0  0  0  3  0  0  0  0  0  0
  161.7300  210.4750  155.7060 C   0  0  0  0  0  3  0  0  0  0  0  0
  161.5010  210.5170  151.4730 C   0  0  0  0  0  3  0  0  0  0  0  0
  161.3330  208.8110  153.9570 C   0  0  0  0  0  0  0  0  0  0  0  0
  161.6910  211.2740  150.3160 C   0  0  0  0  0  3  0  0  0  0  0  0
  161.9790  209.2450  149.0450 C   0  0  0  0  0  3  0  0  0  0  0  0
  160.9450  209.7480  156.5970 C   0  0  0  0  0  3  0  0  0  0  0  0
  161.1210  206.9280  152.4040 C   0  0  0  0  0  0  0  0  0  0  0  0
  160.3000  206.7450  154.6470 N   0  0  0  0  0  0  0  0  0  0  0  0
  162.9380  210.6550  153.6660 O   0  0  0  0  0  1  0  0  0  0  0  0
  161.6790  207.1410  150.0900 N   0  0  0  0  0  0  0  0  0  0  0  0
  161.3520  206.3390  151.1360 C   0  0  0  0  0  0  0  0  0  0  0  0
  161.9540  210.6440  149.0990 C   0  0  0  0  0  0  0  0  0  0  0  0
  161.5950  209.1150  151.4540 C   0  0  0  0  0  0  0  0  0  0  0  0
  160.5440  206.1850  153.4400 C   0  0  0  0  0  3  0  0  0  0  0  0
  160.9840  203.0590  149.2780 C   0  0  0  0  0  0  0  0  0  0  0  0
  161.0770  202.1290  150.3160 C   0  0  0  0  0  3  0  0  0  0  0  0
  161.2300  204.8800  150.8740 C   0  0  0  0  0  0  0  0  0  0  0  0
  161.2540  202.5660  151.6300 C   0  0  0  0  0  3  0  0  0  0  0  0
  161.0670  204.4270  149.5560 C   0  0  0  0  0  3  0  0  0  0  0  0
  161.3360  203.9340  151.9060 C   0  0  0  0  0  3  0  0  0  0  0  0
  160.8140  202.6260  147.9700 O   0  0  0  0  0  1  0  0  0  0  0  0
  162.1630  211.4270  147.9620 O   0  0  0  0  0  0  0  0  0  0  0  0
  161.9480  212.8330  147.9480 C   0  0  0  0  0  2  0  0  0  0  0  0
  159.4770  212.8600  148.3090 F   0  0  0  0  0  0  0  0  0  0  0  0
  161.4570  212.7520  144.5370 O   0  0  0  0  0  0  0  0  0  0  0  0
  160.2340  212.7200  145.7040 P   0  0  2  0  0  0  0  0  0  0  0  0
  160.3980  214.3060  146.6560 C   0  0  0  0  0  2  0  0  0  0  0  0
  160.5410  213.1300  147.4700 C   0  0  2  0  0  0  0  0  0  0  0  0
  158.8230  212.6860  145.1670 O   0  0  0  0  0  1  0  0  0  0  0  0
  1  5  2  0  0  0  0
  2  6  1  0  0  0  0
  3  8  1  0  0  0  0
  4 18  1  0  0  0  0
  5 11  1  0  0  0  0
  6 11  2  0  0  0  0
  8  2  2  0  0  0  0
  8  1  1  0  0  0  0
  9  7  2  0  0  0  0
 10 17  2  0  0  0  0
 10  4  1  0  0  0  0
 12  3  1  0  0  0  0
 12 19  1  0  0  0  0
 13  1  1  0  0  0  0
 14  2  1  0  0  0  0
 15  4  2  0  0  0  0
 15 16  1  0  0  0  0
 16 12  2  0  0  0  0
 17  9  1  0  0  0  0
 18  7  1  0  0  0  0
 18  3  2  0  0  0  0
 19 13  2  0  0  0  0
 20 24  2  0  0  0  0
 20 21  1  0  0  0  0
 21 23  2  0  0  0  0
 22 16  1  0  0  0  0
 22 25  2  0  0  0  0
 23 25  1  0  0  0  0
 24 22  1  0  0  0  0
 26 20  1  0  0  0  0
 27 17  1  0  0  0  0
 28 27  1  0  0  0  0
 31 30  2  6  0  0  0
 31 32  1  0  0  0  0
 31 33  1  0  0  0  0
 32 33  1  0  0  0  0
 33 28  1  0  0  0  0
 33 29  1  1  0  0  0
 34 31  1  0  0  0  0
M  END
>  <MODEL>
1

>  <REMARK>
 VINA RESULT:      -8.9      0.000      0.000
  Name = 
  4 active torsions:
  status: ('A' for Active; 'I' for Inactive)
    1  A    between atoms: O_3  and  C_13
    2  A    between atoms: O_3  and  C_29
    3  A    between atoms: C_12  and  C_28
    4  A    between atoms: C_13  and  C_33
                            x       y       z     vdW  Elec       q    Type
                         _______ _______ _______ _____ _____    ______ ____

>  <TORSDO>
F 4

$$$$
=
 OpenBabel11062408123D

 34 39  0  0  1  0  0  0  0  0999 V2000
  161.1780  206.1000  149.1210 C   0  0  0  0  0  0  0  0  0  0  0  0
  161.8050  205.4740  151.3800 C   0  0  0  0  0  0  0  0  0  0  0  0
  161.5250  207.9100  150.7300 C   0  0  0  0  0  0  0  0  0  0  0  0
  161.5780  209.8780  152.1880 C   0  0  0  0  0  0  0  0  0  0  0  0
  160.9660  204.7560  148.8120 C   0  0  0  0  0  3  0  0  0  0  0  0
  161.5810  204.1340  151.0550 C   0  0  0  0  0  3  0  0  0  0  0  0
  160.8870  207.7650  153.1290 C   0  0  0  0  0  3  0  0  0  0  0  0
  161.4770  206.5030  150.4520 C   0  0  0  0  0  0  0  0  0  0  0  0
  160.7290  208.3680  154.3780 C   0  0  0  0  0  3  0  0  0  0  0  0
  161.4350  210.4760  153.4430 C   0  0  0  0  0  3  0  0  0  0  0  0
  161.1340  203.7760  149.7860 C   0  0  0  0  0  3  0  0  0  0  0  0
  161.6340  208.8040  149.6270 C   0  0  0  0  0  0  0  0  0  0  0  0
  161.1480  207.0090  148.1190 N   0  0  0  0  0  0  0  0  0  0  0  0
  162.4590  205.7360  152.5770 O   0  0  0  0  0  1  0  0  0  0  0  0
  161.8540  210.6590  151.1190 N   0  0  0  0  0  0  0  0  0  0  0  0
  161.8810  210.1820  149.8480 C   0  0  0  0  0  0  0  0  0  0  0  0
  161.0240  209.7210  154.5490 C   0  0  0  0  0  0  0  0  0  0  0  0
  161.3680  208.4880  152.0240 C   0  0  0  0  0  0  0  0  0  0  0  0
  161.4060  208.3190  148.3360 C   0  0  0  0  0  3  0  0  0  0  0  0
  161.2890  212.5990  146.9920 C   0  0  0  0  0  0  0  0  0  0  0  0
  162.5830  213.0540  146.7280 C   0  0  0  0  0  3  0  0  0  0  0  0
  162.1460  211.1540  148.7530 C   0  0  0  0  0  0  0  0  0  0  0  0
  163.6580  212.5710  147.4770 C   0  0  0  0  0  3  0  0  0  0  0  0
  161.0720  211.6590  148.0040 C   0  0  0  0  0  3  0  0  0  0  0  0
  163.4400  211.6310  148.4870 C   0  0  0  0  0  3  0  0  0  0  0  0
  160.2180  213.0830  146.2540 O   0  0  0  0  0  1  0  0  0  0  0  0
  160.8790  210.2920  155.8150 O   0  0  0  0  0  0  0  0  0  0  0  0
  159.6400  210.3070  156.5130 C   0  0  0  0  0  2  0  0  0  0  0  0
  158.0040  210.9550  154.7420 F   0  0  0  0  0  0  0  0  0  0  0  0
  160.4200  213.6250  157.0180 O   0  0  0  0  0  1  0  0  0  0  0  0
  159.3480  213.0380  155.8510 P   0  0  2  0  0  0  0  0  0  0  0  0
  158.0000  212.1710  156.7890 C   0  0  0  0  0  2  0  0  0  0  0  0
  158.7060  211.3150  155.8760 C   0  0  2  0  0  0  0  0  0  0  0  0
  158.6720  214.0880  155.0010 O   0  0  0  0  0  0  0  0  0  0  0  0
  1  8  1  0  0  0  0
  2 14  1  0  0  0  0
  3 18  1  0  0  0  0
  4 10  1  0  0  0  0
  5  1  2  0  0  0  0
  5 11  1  0  0  0  0
  6  2  1  0  0  0  0
  7  9  2  0  0  0  0
  8  3  1  0  0  0  0
  8  2  2  0  0  0  0
  9 17  1  0  0  0  0
 10 17  2  0  0  0  0
 11  6  2  0  0  0  0
 12 16  1  0  0  0  0
 12  3  2  0  0  0  0
 13 19  2  0  0  0  0
 13  1  1  0  0  0  0
 15  4  1  0  0  0  0
 16 15  2  0  0  0  0
 17 27  1  0  0  0  0
 18  4  2  0  0  0  0
 18  7  1  0  0  0  0
 19 12  1  0  0  0  0
 20 24  1  0  0  0  0
 21 20  2  0  0  0  0
 21 23  1  0  0  0  0
 22 16  1  0  0  0  0
 23 25  2  0  0  0  0
 24 22  2  0  0  0  0
 25 22  1  0  0  0  0
 26 20  1  0  0  0  0
 27 28  1  0  0  0  0
 31 34  2  6  0  0  0
 31 33  1  0  0  0  0
 31 32  1  0  0  0  0
 31 30  1  0  0  0  0
 33 29  1  6  0  0  0
 33 28  1  0  0  0  0
 33 32  1  0  0  0  0
M  END
>  <MODEL>
2

>  <REMARK>
 VINA RESULT:      -8.8      3.052      7.531
  Name = 
  4 active torsions:
  status: ('A' for Active; 'I' for Inactive)
    1  A    between atoms: O_3  and  C_13
    2  A    between atoms: O_3  and  C_29
    3  A    between atoms: C_12  and  C_28
    4  A    between atoms: C_13  and  C_33
                            x       y       z     vdW  Elec       q    Type
                         _______ _______ _______ _____ _____    ______ ____

>  <TORSDO>
F 4

$$$$
=
 OpenBabel11062408123D

 34 39  0  0  1  0  0  0  0  0999 V2000
  160.8310  207.1230  153.3370 C   0  0  0  0  0  0  0  0  0  0  0  0
  161.8680  209.2920  153.6710 C   0  0  0  0  0  0  0  0  0  0  0  0
  161.4990  208.3650  151.3380 C   0  0  0  0  0  0  0  0  0  0  0  0
  161.8500  209.4930  149.1920 C   0  0  0  0  0  0  0  0  0  0  0  0
  160.5490  207.0530  154.7020 C   0  0  0  0  0  3  0  0  0  0  0  0
  161.5710  209.2080  155.0330 C   0  0  0  0  0  3  0  0  0  0  0  0
  161.3260  210.8370  151.1270 C   0  0  0  0  0  3  0  0  0  0  0  0
  161.3830  208.3040  152.7670 C   0  0  0  0  0  0  0  0  0  0  0  0
  161.4150  211.9950  150.3530 C   0  0  0  0  0  3  0  0  0  0  0  0
  161.9550  210.6550  148.4220 C   0  0  0  0  0  3  0  0  0  0  0  0
  160.8870  208.1080  155.5450 C   0  0  0  0  0  3  0  0  0  0  0  0
  161.4070  207.1460  150.6090 C   0  0  0  0  0  0  0  0  0  0  0  0
  160.6220  206.0250  152.5740 N   0  0  0  0  0  0  0  0  0  0  0  0
  162.7410  210.2960  153.2720 O   0  0  0  0  0  1  0  0  0  0  0  0
  161.9270  208.2910  148.5760 N   0  0  0  0  0  0  0  0  0  0  0  0
  161.7070  207.1190  149.2240 C   0  0  0  0  0  0  0  0  0  0  0  0
  161.7530  211.9140  149.0020 C   0  0  0  0  0  0  0  0  0  0  0  0
  161.5970  209.5700  150.5820 C   0  0  0  0  0  0  0  0  0  0  0  0
  160.9320  206.0020  151.2580 C   0  0  0  0  0  3  0  0  0  0  0  0
  161.2180  203.5080  148.1880 C   0  0  0  0  0  0  0  0  0  0  0  0
  161.7900  203.4950  146.9140 C   0  0  0  0  0  3  0  0  0  0  0  0
  161.7700  205.8670  148.4230 C   0  0  0  0  0  0  0  0  0  0  0  0
  162.3450  204.6630  146.3870 C   0  0  0  0  0  3  0  0  0  0  0  0
  161.2030  204.6900  148.9350 C   0  0  0  0  0  3  0  0  0  0  0  0
  162.3300  205.8430  147.1350 C   0  0  0  0  0  3  0  0  0  0  0  0
  160.6600  202.3490  148.7120 O   0  0  0  0  0  1  0  0  0  0  0  0
  161.8580  213.0900  148.2570 O   0  0  0  0  0  0  0  0  0  0  0  0
  161.2990  213.2280  146.9570 C   0  0  0  0  0  2  0  0  0  0  0  0
  159.2510  213.6610  148.3190 F   0  0  0  0  0  0  0  0  0  0  0  0
  159.3350  212.2010  144.3170 O   0  0  0  0  0  0  0  0  0  0  0  0
  158.7650  212.6650  145.8390 P   0  0  2  0  0  0  0  0  0  0  0  0
  159.2990  214.4300  146.0650 C   0  0  0  0  0  2  0  0  0  0  0  0
  159.8200  213.5390  147.0650 C   0  0  2  0  0  0  0  0  0  0  0  0
  157.2640  212.6460  146.0060 O   0  0  0  0  0  1  0  0  0  0  0  0
  1  5  2  0  0  0  0
  2  6  1  0  0  0  0
  3  8  1  0  0  0  0
  4 18  1  0  0  0  0
  5 11  1  0  0  0  0
  6 11  2  0  0  0  0
  8  1  1  0  0  0  0
  8  2  2  0  0  0  0
  9  7  2  0  0  0  0
 10 17  2  0  0  0  0
 10  4  1  0  0  0  0
 12 19  1  0  0  0  0
 12  3  1  0  0  0  0
 13  1  1  0  0  0  0
 14  2  1  0  0  0  0
 15  4  2  0  0  0  0
 15 16  1  0  0  0  0
 16 12  2  0  0  0  0
 17  9  1  0  0  0  0
 18  7  1  0  0  0  0
 18  3  2  0  0  0  0
 19 13  2  0  0  0  0
 20 26  1  0  0  0  0
 20 24  1  0  0  0  0
 21 20  2  0  0  0  0
 22 24  2  0  0  0  0
 22 16  1  0  0  0  0
 23 21  1  0  0  0  0
 23 25  2  0  0  0  0
 25 22  1  0  0  0  0
 27 17  1  0  0  0  0
 28 33  1  0  0  0  0
 28 27  1  0  0  0  0
 31 30  2  6  0  0  0
 31 34  1  0  0  0  0
 31 32  1  0  0  0  0
 31 33  1  0  0  0  0
 32 33  1  0  0  0  0
 33 29  1  1  0  0  0
M  END
>  <MODEL>
3

>  <REMARK>
 VINA RESULT:      -8.2      1.427      2.098
  Name = 
  4 active torsions:
  status: ('A' for Active; 'I' for Inactive)
    1  A    between atoms: O_3  and  C_13
    2  A    between atoms: O_3  and  C_29
    3  A    between atoms: C_12  and  C_28
    4  A    between atoms: C_13  and  C_33
                            x       y       z     vdW  Elec       q    Type
                         _______ _______ _______ _____ _____    ______ ____

>  <TORSDO>
F 4

$$$$
=
 OpenBabel11062408123D

 34 39  0  0  1  0  0  0  0  0999 V2000
  162.2140  209.8970  148.8020 C   0  0  0  0  0  0  0  0  0  0  0  0
  161.2370  211.4890  150.3500 C   0  0  0  0  0  0  0  0  0  0  0  0
  161.5030  209.0470  150.9820 C   0  0  0  0  0  0  0  0  0  0  0  0
  161.0990  207.9980  153.1590 C   0  0  0  0  0  0  0  0  0  0  0  0
  162.5430  210.9440  147.9390 C   0  0  0  0  0  3  0  0  0  0  0  0
  161.5810  212.5260  149.4790 C   0  0  0  0  0  3  0  0  0  0  0  0
  161.7220  210.3280  153.1020 C   0  0  0  0  0  3  0  0  0  0  0  0
  161.6680  210.1580  150.0890 C   0  0  0  0  0  0  0  0  0  0  0  0
  161.6300  210.3920  154.4930 C   0  0  0  0  0  3  0  0  0  0  0  0
  160.9920  208.0670  154.5500 C   0  0  0  0  0  3  0  0  0  0  0  0
  162.2590  212.2600  148.2920 C   0  0  0  0  0  3  0  0  0  0  0  0
  161.5420  207.7350  150.4300 C   0  0  0  0  0  0  0  0  0  0  0  0
  162.3710  208.6250  148.3670 N   0  0  0  0  0  0  0  0  0  0  0  0
  160.3730  211.7970  151.3930 O   0  0  0  0  0  1  0  0  0  0  0  0
  160.9740  206.7950  152.5520 N   0  0  0  0  0  0  0  0  0  0  0  0
  161.1910  206.6160  151.2240 C   0  0  0  0  0  0  0  0  0  0  0  0
  161.2430  209.2690  155.2250 C   0  0  0  0  0  0  0  0  0  0  0  0
  161.4040  209.1520  152.4000 C   0  0  0  0  0  0  0  0  0  0  0  0
  162.0140  207.5630  149.1240 C   0  0  0  0  0  3  0  0  0  0  0  0
  161.1290  203.7220  148.7800 C   0  0  0  0  0  0  0  0  0  0  0  0
  160.9370  202.6310  149.6310 C   0  0  0  0  0  3  0  0  0  0  0  0
  161.0720  205.2330  150.6870 C   0  0  0  0  0  0  0  0  0  0  0  0
  160.8210  202.8330  151.0080 C   0  0  0  0  0  3  0  0  0  0  0  0
  161.2020  205.0150  149.3070 C   0  0  0  0  0  3  0  0  0  0  0  0
  160.8930  204.1260  151.5330 C   0  0  0  0  0  3  0  0  0  0  0  0
  161.2510  203.5230  147.4120 O   0  0  0  0  0  1  0  0  0  0  0  0
  161.1370  209.3680  156.6130 O   0  0  0  0  0  0  0  0  0  0  0  0
  160.5070  210.4680  157.2580 C   0  0  0  0  0  2  0  0  0  0  0  0
  158.5830  209.8200  155.8050 F   0  0  0  0  0  0  0  0  0  0  0  0
  160.0400  213.7770  156.4120 O   0  0  0  0  0  1  0  0  0  0  0  0
  159.1550  212.4740  155.7970 P   0  0  2  0  0  0  0  0  0  0  0  0
  158.3270  211.6870  157.2610 C   0  0  0  0  0  2  0  0  0  0  0  0
  159.2080  210.7990  156.5530 C   0  0  2  0  0  0  0  0  0  0  0  0
  158.0570  212.8350  154.8240 O   0  0  0  0  0  0  0  0  0  0  0  0
  1  8  1  0  0  0  0
  2 14  1  0  0  0  0
  3 18  1  0  0  0  0
  4 10  1  0  0  0  0
  5 11  2  0  0  0  0
  5  1  1  0  0  0  0
  6  2  2  0  0  0  0
  7  9  2  0  0  0  0
  8  2  1  0  0  0  0
  8  3  2  0  0  0  0
  9 17  1  0  0  0  0
 10 17  2  0  0  0  0
 11  6  1  0  0  0  0
 12  3  1  0  0  0  0
 12 16  1  0  0  0  0
 13  1  2  0  0  0  0
 13 19  1  0  0  0  0
 15  4  1  0  0  0  0
 16 15  2  0  0  0  0
 17 27  1  0  0  0  0
 18  7  1  0  0  0  0
 18  4  2  0  0  0  0
 19 12  2  0  0  0  0
 20 24  2  0  0  0  0
 20 21  1  0  0  0  0
 21 23  2  0  0  0  0
 22 16  1  0  0  0  0
 22 25  2  0  0  0  0
 23 25  1  0  0  0  0
 24 22  1  0  0  0  0
 26 20  1  0  0  0  0
 27 28  1  0  0  0  0
 31 34  2  6  0  0  0
 31 30  1  0  0  0  0
 31 33  1  0  0  0  0
 31 32  1  0  0  0  0
 33 29  1  6  0  0  0
 33 28  1  0  0  0  0
 33 32  1  0  0  0  0
M  END
>  <MODEL>
4

>  <REMARK>
 VINA RESULT:      -7.7      3.139      6.135
  Name = 
  4 active torsions:
  status: ('A' for Active; 'I' for Inactive)
    1  A    between atoms: O_3  and  C_13
    2  A    between atoms: O_3  and  C_29
    3  A    between atoms: C_12  and  C_28
    4  A    between atoms: C_13  and  C_33
                            x       y       z     vdW  Elec       q    Type
                         _______ _______ _______ _____ _____    ______ ____

>  <TORSDO>
F 4

$$$$
=
 OpenBabel11062408123D

 34 39  0  0  1  0  0  0  0  0999 V2000
  160.1620  212.9190  150.9450 C   0  0  0  0  0  0  0  0  0  0  0  0
  161.5780  212.4510  149.0310 C   0  0  0  0  0  0  0  0  0  0  0  0
  161.2440  210.7280  150.8620 C   0  0  0  0  0  0  0  0  0  0  0  0
  162.0100  208.4010  150.9030 C   0  0  0  0  0  0  0  0  0  0  0  0
  159.7480  214.1080  150.3420 C   0  0  0  0  0  3  0  0  0  0  0  0
  161.1470  213.6410  148.4390 C   0  0  0  0  0  3  0  0  0  0  0  0
  161.5910  209.4380  148.7650 C   0  0  0  0  0  3  0  0  0  0  0  0
  160.9890  211.9980  150.2450 C   0  0  0  0  0  0  0  0  0  0  0  0
  161.9820  208.2660  148.1150 C   0  0  0  0  0  3  0  0  0  0  0  0
  162.4160  207.2330  150.2510 C   0  0  0  0  0  3  0  0  0  0  0  0
  160.2130  214.4530  149.0760 C   0  0  0  0  0  3  0  0  0  0  0  0
  160.9770  210.5960  152.2540 C   0  0  0  0  0  0  0  0  0  0  0  0
  159.8070  212.6860  152.2300 N   0  0  0  0  0  0  0  0  0  0  0  0
  162.6670  211.8130  148.4520 O   0  0  0  0  0  1  0  0  0  0  0  0
  161.9000  208.3920  152.2510 N   0  0  0  0  0  0  0  0  0  0  0  0
  161.3910  209.4360  152.9540 C   0  0  0  0  0  0  0  0  0  0  0  0
  162.4180  207.1640  148.8520 C   0  0  0  0  0  0  0  0  0  0  0  0
  161.6520  209.5530  150.1640 C   0  0  0  0  0  0  0  0  0  0  0  0
  160.2240  211.5860  152.8960 C   0  0  0  0  0  3  0  0  0  0  0  0
  160.4440  208.0190  156.3370 C   0  0  0  0  0  0  0  0  0  0  0  0
  161.0920  208.8990  157.2080 C   0  0  0  0  0  3  0  0  0  0  0  0
  161.2740  209.2820  154.4290 C   0  0  0  0  0  0  0  0  0  0  0  0
  161.8370  209.9630  156.6970 C   0  0  0  0  0  3  0  0  0  0  0  0
  160.5400  208.2070  154.9550 C   0  0  0  0  0  3  0  0  0  0  0  0
  161.9320  210.1490  155.3160 C   0  0  0  0  0  3  0  0  0  0  0  0
  159.7070  206.9570  156.8430 O   0  0  0  0  0  1  0  0  0  0  0  0
  162.8250  206.0130  148.1740 O   0  0  0  0  0  0  0  0  0  0  0  0
  161.9050  205.0440  147.6870 C   0  0  0  0  0  2  0  0  0  0  0  0
  163.5820  204.5790  145.8960 F   0  0  0  0  0  0  0  0  0  0  0  0
  159.5810  205.9160  145.2950 O   0  0  0  0  0  1  0  0  0  0  0  0
  161.1850  205.4790  144.9890 P   0  0  2  0  0  0  0  0  0  0  0  0
  161.3690  203.7430  145.6230 C   0  0  0  0  0  2  0  0  0  0  0  0
  162.2520  204.6820  146.2570 C   0  0  2  0  0  0  0  0  0  0  0  0
  161.5850  205.4480  143.5320 O   0  0  0  0  0  0  0  0  0  0  0  0
  1 13  1  0  0  0  0
  2  8  1  0  0  0  0
  3 12  1  0  0  0  0
  4 15  2  0  0  0  0
  5  1  1  0  0  0  0
  6  2  2  0  0  0  0
  6 11  1  0  0  0  0
  7 18  1  0  0  0  0
  8  3  1  0  0  0  0
  8  1  2  0  0  0  0
  9  7  2  0  0  0  0
  9 17  1  0  0  0  0
 10  4  1  0  0  0  0
 11  5  2  0  0  0  0
 12 19  1  0  0  0  0
 12 16  2  0  0  0  0
 13 19  2  0  0  0  0
 14  2  1  0  0  0  0
 15 16  1  0  0  0  0
 16 22  1  0  0  0  0
 17 10  2  0  0  0  0
 18  3  2  0  0  0  0
 18  4  1  0  0  0  0
 20 26  1  0  0  0  0
 20 21  1  0  0  0  0
 22 24  1  0  0  0  0
 22 25  2  0  0  0  0
 23 21  2  0  0  0  0
 24 20  2  0  0  0  0
 25 23  1  0  0  0  0
 27 17  1  0  0  0  0
 28 27  1  0  0  0  0
 31 34  2  6  0  0  0
 31 30  1  0  0  0  0
 31 32  1  0  0  0  0
 31 33  1  0  0  0  0
 32 33  1  0  0  0  0
 33 29  1  6  0  0  0
 33 28  1  0  0  0  0
M  END
>  <MODEL>
5

>  <REMARK>
 VINA RESULT:      -7.7      3.269      6.653
  Name = 
  4 active torsions:
  status: ('A' for Active; 'I' for Inactive)
    1  A    between atoms: O_3  and  C_13
    2  A    between atoms: O_3  and  C_29
    3  A    between atoms: C_12  and  C_28
    4  A    between atoms: C_13  and  C_33
                            x       y       z     vdW  Elec       q    Type
                         _______ _______ _______ _____ _____    ______ ____

>  <TORSDO>
F 4

$$$$
=
 OpenBabel11062408123D

 34 39  0  0  1  0  0  0  0  0999 V2000
  160.1650  213.0180  150.1750 C   0  0  0  0  0  0  0  0  0  0  0  0
  161.9490  211.4720  149.6160 C   0  0  0  0  0  0  0  0  0  0  0  0
  160.5610  211.1600  151.7170 C   0  0  0  0  0  0  0  0  0  0  0  0
  160.5930  209.2760  153.2820 C   0  0  0  0  0  0  0  0  0  0  0  0
  160.3220  213.6400  148.9360 C   0  0  0  0  0  3  0  0  0  0  0  0
  162.0870  212.1020  148.3770 C   0  0  0  0  0  3  0  0  0  0  0  0
  161.2150  208.8750  150.9850 C   0  0  0  0  0  3  0  0  0  0  0  0
  160.8880  211.8350  150.4930 C   0  0  0  0  0  0  0  0  0  0  0  0
  161.4590  207.5330  151.2800 C   0  0  0  0  0  3  0  0  0  0  0  0
  160.8530  207.9360  153.5790 C   0  0  0  0  0  3  0  0  0  0  0  0
  161.2580  213.1630  148.0230 C   0  0  0  0  0  3  0  0  0  0  0  0
  159.8200  211.8790  152.6970 C   0  0  0  0  0  0  0  0  0  0  0  0
  159.3530  213.5940  151.0930 N   0  0  0  0  0  0  0  0  0  0  0  0
  162.9460  210.5800  149.9890 O   0  0  0  0  0  1  0  0  0  0  0  0
  160.0420  210.0620  154.2350 N   0  0  0  0  0  0  0  0  0  0  0  0
  159.6390  211.3360  153.9940 C   0  0  0  0  0  0  0  0  0  0  0  0
  161.3010  207.0590  152.5830 C   0  0  0  0  0  0  0  0  0  0  0  0
  160.8350  209.7870  151.9850 C   0  0  0  0  0  0  0  0  0  0  0  0
  159.2030  213.0800  152.3340 C   0  0  0  0  0  3  0  0  0  0  0  0
  156.9920  212.6460  156.3650 C   0  0  0  0  0  0  0  0  0  0  0  0
  157.7550  213.3990  157.2610 C   0  0  0  0  0  3  0  0  0  0  0  0
  159.0000  212.0800  155.1120 C   0  0  0  0  0  0  0  0  0  0  0  0
  159.1390  213.4890  157.0930 C   0  0  0  0  0  3  0  0  0  0  0  0
  157.6130  211.9850  155.3010 C   0  0  0  0  0  3  0  0  0  0  0  0
  159.7570  212.8290  156.0280 C   0  0  0  0  0  3  0  0  0  0  0  0
  155.6170  212.5510  156.5340 O   0  0  0  0  0  1  0  0  0  0  0  0
  161.5750  205.7170  152.8540 O   0  0  0  0  0  0  0  0  0  0  0  0
  162.3720  204.9090  151.9970 C   0  0  0  0  0  2  0  0  0  0  0  0
  161.9750  202.4440  151.9820 F   0  0  0  0  0  0  0  0  0  0  0  0
  160.7010  205.2050  148.9970 O   0  0  0  0  0  0  0  0  0  0  0  0
  161.0160  203.7530  149.8050 P   0  0  2  0  0  0  0  0  0  0  0  0
  160.1600  203.8880  151.4470 C   0  0  0  0  0  2  0  0  0  0  0  0
  161.5800  203.6960  151.5540 C   0  0  2  0  0  0  0  0  0  0  0  0
  160.4750  202.5080  149.1400 O   0  0  0  0  0  1  0  0  0  0  0  0
  1  8  2  0  0  0  0
  1 13  1  0  0  0  0
  2 14  1  0  0  0  0
  2  8  1  0  0  0  0
  3 18  2  0  0  0  0
  3 12  1  0  0  0  0
  4 10  1  0  0  0  0
  4 15  2  0  0  0  0
  5  1  1  0  0  0  0
  6  2  2  0  0  0  0
  7  9  2  0  0  0  0
  7 18  1  0  0  0  0
  8  3  1  0  0  0  0
  9 17  1  0  0  0  0
 11  6  1  0  0  0  0
 11  5  2  0  0  0  0
 12 16  2  0  0  0  0
 13 19  2  0  0  0  0
 16 15  1  0  0  0  0
 16 22  1  0  0  0  0
 17 27  1  0  0  0  0
 17 10  2  0  0  0  0
 18  4  1  0  0  0  0
 19 12  1  0  0  0  0
 20 26  1  0  0  0  0
 20 21  1  0  0  0  0
 22 24  1  0  0  0  0
 22 25  2  0  0  0  0
 23 21  2  0  0  0  0
 24 20  2  0  0  0  0
 25 23  1  0  0  0  0
 28 27  1  0  0  0  0
 31 30  2  6  0  0  0
 31 32  1  0  0  0  0
 31 33  1  0  0  0  0
 32 33  1  0  0  0  0
 33 29  1  1  0  0  0
 33 28  1  0  0  0  0
 34 31  1  0  0  0  0
M  END
>  <MODEL>
6

>  <REMARK>
 VINA RESULT:      -6.8      3.997      8.389
  Name = 
  4 active torsions:
  status: ('A' for Active; 'I' for Inactive)
    1  A    between atoms: O_3  and  C_13
    2  A    between atoms: O_3  and  C_29
    3  A    between atoms: C_12  and  C_28
    4  A    between atoms: C_13  and  C_33
                            x       y       z     vdW  Elec       q    Type
                         _______ _______ _______ _____ _____    ______ ____

>  <TORSDO>
F 4

$$$$
=
 OpenBabel11062408123D

 34 39  0  0  1  0  0  0  0  0999 V2000
  160.6850  206.9720  154.8630 C   0  0  0  0  0  0  0  0  0  0  0  0
  161.2830  209.2080  155.5940 C   0  0  0  0  0  0  0  0  0  0  0  0
  160.9330  208.6870  153.1360 C   0  0  0  0  0  0  0  0  0  0  0  0
  160.8860  210.2530  151.2530 C   0  0  0  0  0  0  0  0  0  0  0  0
  160.5270  206.5840  156.1940 C   0  0  0  0  0  3  0  0  0  0  0  0
  161.1120  208.8030  156.9210 C   0  0  0  0  0  3  0  0  0  0  0  0
  160.2470  211.0580  153.4370 C   0  0  0  0  0  3  0  0  0  0  0  0
  160.9410  208.3300  154.5260 C   0  0  0  0  0  0  0  0  0  0  0  0
  160.0410  212.3340  152.9110 C   0  0  0  0  0  3  0  0  0  0  0  0
  160.6940  211.5350  150.7310 C   0  0  0  0  0  3  0  0  0  0  0  0
  160.7070  207.5060  157.2210 C   0  0  0  0  0  3  0  0  0  0  0  0
  161.0360  207.6390  152.1780 C   0  0  0  0  0  0  0  0  0  0  0  0
  160.6470  206.0210  153.9000 N   0  0  0  0  0  0  0  0  0  0  0  0
  161.9000  210.4320  155.3780 O   0  0  0  0  0  1  0  0  0  0  0  0
  161.1580  209.2360  150.4040 N   0  0  0  0  0  0  0  0  0  0  0  0
  161.2310  207.9420  150.8070 C   0  0  0  0  0  0  0  0  0  0  0  0
  160.2840  212.5870  151.5610 C   0  0  0  0  0  0  0  0  0  0  0  0
  160.7280  210.0070  152.6370 C   0  0  0  0  0  0  0  0  0  0  0  0
  160.8540  206.3170  152.5970 C   0  0  0  0  0  3  0  0  0  0  0  0
  161.2360  204.6130  148.9990 C   0  0  0  0  0  0  0  0  0  0  0  0
  161.8700  204.9400  147.7970 C   0  0  0  0  0  3  0  0  0  0  0  0
  161.4860  206.9090  149.7670 C   0  0  0  0  0  0  0  0  0  0  0  0
  162.3040  206.2480  147.5720 C   0  0  0  0  0  3  0  0  0  0  0  0
  161.0400  205.5950  149.9750 C   0  0  0  0  0  3  0  0  0  0  0  0
  162.1080  207.2270  148.5490 C   0  0  0  0  0  3  0  0  0  0  0  0
  160.7970  203.3150  149.2220 O   0  0  0  0  0  1  0  0  0  0  0  0
  160.0920  213.8790  151.0670 O   0  0  0  0  0  0  0  0  0  0  0  0
  160.7390  214.3570  149.8940 C   0  0  0  0  0  2  0  0  0  0  0  0
  158.7460  213.3530  148.7750 F   0  0  0  0  0  0  0  0  0  0  0  0
  162.7920  212.9770  147.4940 O   0  0  0  0  0  1  0  0  0  0  0  0
  161.1190  212.7570  147.5960 P   0  0  2  0  0  0  0  0  0  0  0  0
  160.3720  214.4490  147.4250 C   0  0  0  0  0  2  0  0  0  0  0  0
  160.0480  213.8010  148.6660 C   0  0  2  0  0  0  0  0  0  0  0  0
  160.5060  211.9060  146.5090 O   0  0  0  0  0  0  0  0  0  0  0  0
  1  5  2  0  0  0  0
  2  6  1  0  0  0  0
  3  8  1  0  0  0  0
  4 18  1  0  0  0  0
  5 11  1  0  0  0  0
  6 11  2  0  0  0  0
  8  1  1  0  0  0  0
  8  2  2  0  0  0  0
  9  7  1  0  0  0  0
 10  4  2  0  0  0  0
 10 17  1  0  0  0  0
 12 19  1  0  0  0  0
 12  3  2  0  0  0  0
 13  1  1  0  0  0  0
 14  2  1  0  0  0  0
 15 16  2  0  0  0  0
 15  4  1  0  0  0  0
 16 12  1  0  0  0  0
 17  9  2  0  0  0  0
 18  3  1  0  0  0  0
 18  7  2  0  0  0  0
 19 13  2  0  0  0  0
 20 26  1  0  0  0  0
 20 24  1  0  0  0  0
 21 20  2  0  0  0  0
 22 24  2  0  0  0  0
 22 16  1  0  0  0  0
 23 21  1  0  0  0  0
 23 25  2  0  0  0  0
 25 22  1  0  0  0  0
 27 17  1  0  0  0  0
 28 27  1  0  0  0  0
 30 31  1  0  0  0  0
 31 34  2  6  0  0  0
 31 33  1  0  0  0  0
 32 31  1  0  0  0  0
 32 33  1  0  0  0  0
 33 29  1  1  0  0  0
 33 28  1  0  0  0  0
M  END
>  <MODEL>
7

>  <REMARK>
 VINA RESULT:      -6.6      1.804      2.492
  Name = 
  4 active torsions:
  status: ('A' for Active; 'I' for Inactive)
    1  A    between atoms: O_3  and  C_13
    2  A    between atoms: O_3  and  C_29
    3  A    between atoms: C_12  and  C_28
    4  A    between atoms: C_13  and  C_33
                            x       y       z     vdW  Elec       q    Type
                         _______ _______ _______ _____ _____    ______ ____

>  <TORSDO>
F 4

$$$$
=
 OpenBabel11062408123D

 34 39  0  0  1  0  0  0  0  0999 V2000
  160.8620  205.2710  151.8710 C   0  0  0  0  0  0  0  0  0  0  0  0
  161.8440  207.2300  152.9140 C   0  0  0  0  0  0  0  0  0  0  0  0
  161.5640  207.0920  150.3960 C   0  0  0  0  0  0  0  0  0  0  0  0
  161.9560  208.8490  148.7350 C   0  0  0  0  0  0  0  0  0  0  0  0
  160.5410  204.7660  153.1320 C   0  0  0  0  0  3  0  0  0  0  0  0
  161.5070  206.7130  154.1680 C   0  0  0  0  0  3  0  0  0  0  0  0
  161.3450  209.5000  150.9770 C   0  0  0  0  0  3  0  0  0  0  0  0
  161.4060  206.5770  151.7270 C   0  0  0  0  0  0  0  0  0  0  0  0
  161.4340  210.8450  150.6160 C   0  0  0  0  0  3  0  0  0  0  0  0
  162.0600  210.1960  148.3790 C   0  0  0  0  0  3  0  0  0  0  0  0
  160.8310  205.5010  154.2780 C   0  0  0  0  0  3  0  0  0  0  0  0
  161.5190  206.1680  149.3140 C   0  0  0  0  0  0  0  0  0  0  0  0
  160.7000  204.4710  150.7920 N   0  0  0  0  0  0  0  0  0  0  0  0
  162.7060  208.3180  152.8860 O   0  0  0  0  0  1  0  0  0  0  0  0
  162.0770  207.9070  147.7720 N   0  0  0  0  0  0  0  0  0  0  0  0
  161.8620  206.5870  148.0040 C   0  0  0  0  0  0  0  0  0  0  0  0
  161.8140  211.2030  149.3220 C   0  0  0  0  0  0  0  0  0  0  0  0
  161.6600  208.4760  150.0670 C   0  0  0  0  0  0  0  0  0  0  0  0
  161.0490  204.8720  149.5480 C   0  0  0  0  0  3  0  0  0  0  0  0
  160.9380  204.5690  144.9340 C   0  0  0  0  0  0  0  0  0  0  0  0
  162.1570  203.9710  144.6060 C   0  0  0  0  0  3  0  0  0  0  0  0
  161.9750  205.6570  146.8490 C   0  0  0  0  0  0  0  0  0  0  0  0
  163.2880  204.2190  145.3870 C   0  0  0  0  0  3  0  0  0  0  0  0
  160.8500  205.4120  146.0460 C   0  0  0  0  0  3  0  0  0  0  0  0
  163.1980  205.0600  146.4990 C   0  0  0  0  0  3  0  0  0  0  0  0
  159.8140  204.3300  144.1550 O   0  0  0  0  0  1  0  0  0  0  0  0
  161.9170  212.5560  148.9950 O   0  0  0  0  0  0  0  0  0  0  0  0
  161.6830  213.0480  147.6810 C   0  0  0  0  0  2  0  0  0  0  0  0
  159.3620  213.2400  148.5820 F   0  0  0  0  0  0  0  0  0  0  0  0
  160.4170  212.3600  144.5500 O   0  0  0  0  0  0  0  0  0  0  0  0
  159.4970  212.5930  145.9480 P   0  0  2  0  0  0  0  0  0  0  0  0
  159.8710  214.3190  146.5220 C   0  0  0  0  0  2  0  0  0  0  0  0
  160.2030  213.3080  147.4880 C   0  0  2  0  0  0  0  0  0  0  0  0
  158.0000  212.5170  145.7630 O   0  0  0  0  0  1  0  0  0  0  0  0
  1  5  2  0  0  0  0
  2  6  1  0  0  0  0
  3  8  1  0  0  0  0
  4 18  1  0  0  0  0
  5 11  1  0  0  0  0
  6 11  2  0  0  0  0
  8  1  1  0  0  0  0
  8  2  2  0  0  0  0
  9  7  1  0  0  0  0
 10  4  2  0  0  0  0
 10 17  1  0  0  0  0
 12 19  1  0  0  0  0
 12  3  2  0  0  0  0
 13  1  1  0  0  0  0
 14  2  1  0  0  0  0
 15 16  2  0  0  0  0
 15  4  1  0  0  0  0
 16 12  1  0  0  0  0
 17  9  2  0  0  0  0
 18  3  1  0  0  0  0
 18  7  2  0  0  0  0
 19 13  2  0  0  0  0
 20 24  1  0  0  0  0
 21 20  2  0  0  0  0
 21 23  1  0  0  0  0
 22 16  1  0  0  0  0
 23 25  2  0  0  0  0
 24 22  2  0  0  0  0
 25 22  1  0  0  0  0
 26 20  1  0  0  0  0
 27 17  1  0  0  0  0
 28 27  1  0  0  0  0
 31 30  2  6  0  0  0
 31 32  1  0  0  0  0
 31 33  1  0  0  0  0
 32 33  1  0  0  0  0
 33 28  1  0  0  0  0
 33 29  1  1  0  0  0
 34 31  1  0  0  0  0
M  END
>  <MODEL>
8

>  <REMARK>
 VINA RESULT:      -6.2      2.249      3.336
  Name = 
  4 active torsions:
  status: ('A' for Active; 'I' for Inactive)
    1  A    between atoms: O_3  and  C_13
    2  A    between atoms: O_3  and  C_29
    3  A    between atoms: C_12  and  C_28
    4  A    between atoms: C_13  and  C_33
                            x       y       z     vdW  Elec       q    Type
                         _______ _______ _______ _____ _____    ______ ____

>  <TORSDO>
F 4

$$$$
