=
 OpenBabel11052423033D

 28 32  0  0  1  0  0  0  0  0999 V2000
  161.3700  207.4350  153.7460 C   0  0  2  0  0  3  0  0  0  0  0  0
  161.8870  210.6270  149.7250 C   0  0  0  0  0  3  0  0  0  0  0  0
  158.7970  211.5860  155.1430 C   0  0  0  0  0  1  0  0  0  0  0  0
  160.6270  212.6600  150.4500 C   0  0  0  0  0  0  0  0  0  0  0  0
  160.7340  210.7410  151.9550 C   0  0  0  0  0  0  0  0  0  0  0  0
  161.7840  212.5380  148.2140 C   0  0  0  0  0  0  0  0  0  0  0  0
  161.0730  211.3490  150.7270 C   0  0  0  0  0  0  0  0  0  0  0  0
  159.5230  212.7460  152.6030 C   0  0  0  0  0  3  0  0  0  0  0  0
  160.9560  213.3610  149.1590 C   0  0  0  0  0  2  0  0  0  0  0  0
  160.0680  209.5340  154.4190 C   0  0  0  0  0  0  0  0  0  0  0  0
  161.1600  209.4430  152.2520 C   0  0  0  0  0  3  0  0  0  0  0  0
  159.8580  213.3450  151.3900 C   0  0  0  0  0  3  0  0  0  0  0  0
  160.6810  207.8020  156.1270 C   0  0  0  0  0  2  0  0  0  0  0  0
  159.6200  210.8400  154.1320 C   0  0  0  0  0  0  0  0  0  0  0  0
  159.6860  208.8790  155.7230 C   0  0  0  0  0  2  0  0  0  0  0  0
  162.1150  213.0250  147.1030 O   0  0  0  0  0  0  0  0  0  0  0  0
  162.2180  211.1780  148.5600 C   0  0  0  0  0  3  0  0  0  0  0  0
  159.9530  211.4450  152.9020 C   0  0  0  0  0  0  0  0  0  0  0  0
  160.7840  206.7870  155.0030 C   0  0  0  0  0  2  0  0  0  0  0  0
  160.8160  208.8190  153.4550 C   0  0  0  0  0  0  0  0  0  0  0  0
  161.2370  206.5030  152.5790 C   0  0  0  0  0  0  0  0  0  0  0  0
  161.0950  206.9940  151.2720 C   0  0  0  0  0  3  0  0  0  0  0  0
  161.0140  204.7250  150.4200 C   0  0  0  0  0  0  0  0  0  0  0  0
  161.2670  205.1230  152.7990 C   0  0  0  0  0  3  0  0  0  0  0  0
  160.8420  206.6340  148.8760 N   0  0  0  0  0  1  0  0  0  0  0  0
  160.9840  206.1110  150.1940 C   0  0  0  0  0  0  0  0  0  0  0  0
  160.9000  203.7570  149.2940 C   0  0  0  0  0  1  0  0  0  0  0  0
  161.1560  204.2370  151.7240 C   0  0  0  0  0  3  0  0  0  0  0  0
  1 21  1  6  0  0  0
  1 19  1  0  0  0  0
  2  7  1  0  0  0  0
  4  7  2  0  0  0  0
  4 12  1  0  0  0  0
  5 11  2  0  0  0  0
  5 18  1  0  0  0  0
  6 17  1  0  0  0  0
  6  9  1  0  0  0  0
  7  5  1  0  0  0  0
  8 18  1  0  0  0  0
  9  4  1  0  0  0  0
 10 15  1  0  0  0  0
 11 20  1  0  0  0  0
 12  8  2  0  0  0  0
 14 10  1  0  0  0  0
 14  3  1  0  0  0  0
 15 13  1  0  0  0  0
 16  6  2  0  0  0  0
 17  2  2  0  0  0  0
 18 14  2  0  0  0  0
 19 13  1  0  0  0  0
 20  1  1  0  0  0  0
 20 10  2  0  0  0  0
 21 24  1  0  0  0  0
 22 21  2  0  0  0  0
 23 28  1  0  0  0  0
 25 26  1  0  0  0  0
 26 23  2  0  0  0  0
 26 22  1  0  0  0  0
 27 23  1  0  0  0  0
 28 24  2  0  0  0  0
M  END
>  <MODEL>
1

>  <REMARK>
 VINA RESULT:      -9.4      0.000      0.000
  Name = 
  1 active torsions:
  status: ('A' for Active; 'I' for Inactive)
    1  A    between atoms: C_1  and  C_2
                            x       y       z     vdW  Elec       q    Type
                         _______ _______ _______ _____ _____    ______ ____

>  <TORSDO>
F 1

$$$$
=
 OpenBabel11052423033D

 28 32  0  0  1  0  0  0  0  0999 V2000
  161.4020  207.4510  153.7080 C   0  0  2  0  0  3  0  0  0  0  0  0
  161.9300  210.6420  149.6880 C   0  0  0  0  0  3  0  0  0  0  0  0
  158.7800  211.5810  155.0740 C   0  0  0  0  0  1  0  0  0  0  0  0
  160.6460  212.6650  150.3970 C   0  0  0  0  0  0  0  0  0  0  0  0
  160.7550  210.7480  151.9060 C   0  0  0  0  0  0  0  0  0  0  0  0
  161.8250  212.5500  148.1720 C   0  0  0  0  0  0  0  0  0  0  0  0
  161.1010  211.3580  150.6800 C   0  0  0  0  0  0  0  0  0  0  0  0
  159.5200  212.7440  152.5390 C   0  0  0  0  0  3  0  0  0  0  0  0
  160.9810  213.3670  149.1080 C   0  0  0  0  0  2  0  0  0  0  0  0
  160.0760  209.5390  154.3650 C   0  0  0  0  0  0  0  0  0  0  0  0
  161.1890  209.4550  152.2080 C   0  0  0  0  0  3  0  0  0  0  0  0
  159.8620  213.3440  151.3290 C   0  0  0  0  0  3  0  0  0  0  0  0
  160.6870  207.8150  156.0820 C   0  0  0  0  0  2  0  0  0  0  0  0
  159.6190  210.8410  154.0720 C   0  0  0  0  0  0  0  0  0  0  0  0
  159.6870  208.8820  155.6660 C   0  0  0  0  0  2  0  0  0  0  0  0
  162.1630  213.0380  147.0640 O   0  0  0  0  0  0  0  0  0  0  0  0
  162.2670  211.1940  148.5250 C   0  0  0  0  0  3  0  0  0  0  0  0
  159.9590  211.4470  152.8450 C   0  0  0  0  0  0  0  0  0  0  0  0
  160.8100  206.7990  154.9600 C   0  0  0  0  0  2  0  0  0  0  0  0
  160.8390  208.8290  153.4090 C   0  0  0  0  0  0  0  0  0  0  0  0
  161.2880  206.5160  152.5400 C   0  0  0  0  0  0  0  0  0  0  0  0
  161.2520  205.1260  152.7260 C   0  0  0  0  0  3  0  0  0  0  0  0
  161.0520  204.8040  150.3310 C   0  0  0  0  0  0  0  0  0  0  0  0
  161.2070  207.0440  151.2480 C   0  0  0  0  0  3  0  0  0  0  0  0
  161.0970  202.8610  151.8410 N   0  0  0  0  0  1  0  0  0  0  0  0
  161.1340  204.2700  151.6270 C   0  0  0  0  0  0  0  0  0  0  0  0
  160.9240  203.9200  149.1380 C   0  0  0  0  0  1  0  0  0  0  0  0
  161.0890  206.1900  150.1480 C   0  0  0  0  0  3  0  0  0  0  0  0
  1 21  1  6  0  0  0
  1 19  1  0  0  0  0
  2  7  1  0  0  0  0
  4  7  2  0  0  0  0
  4 12  1  0  0  0  0
  5 11  2  0  0  0  0
  5 18  1  0  0  0  0
  6 17  1  0  0  0  0
  6  9  1  0  0  0  0
  7  5  1  0  0  0  0
  8 18  1  0  0  0  0
  9  4  1  0  0  0  0
 10 15  1  0  0  0  0
 11 20  1  0  0  0  0
 12  8  2  0  0  0  0
 14 10  1  0  0  0  0
 14  3  1  0  0  0  0
 15 13  1  0  0  0  0
 16  6  2  0  0  0  0
 17  2  2  0  0  0  0
 18 14  2  0  0  0  0
 19 13  1  0  0  0  0
 20  1  1  0  0  0  0
 20 10  2  0  0  0  0
 21 22  1  0  0  0  0
 23 26  1  0  0  0  0
 24 21  2  0  0  0  0
 26 25  1  0  0  0  0
 26 22  2  0  0  0  0
 27 23  1  0  0  0  0
 28 23  2  0  0  0  0
 28 24  1  0  0  0  0
M  END
>  <MODEL>
2

>  <REMARK>
 VINA RESULT:      -9.4      0.912      1.292
  Name = 
  1 active torsions:
  status: ('A' for Active; 'I' for Inactive)
    1  A    between atoms: C_1  and  C_2
                            x       y       z     vdW  Elec       q    Type
                         _______ _______ _______ _____ _____    ______ ____

>  <TORSDO>
F 1

$$$$
=
 OpenBabel11052423033D

 28 32  0  0  1  0  0  0  0  0999 V2000
  160.0760  211.0540  152.1100 C   0  0  2  0  0  3  0  0  0  0  0  0
  160.7330  206.6050  149.5790 C   0  0  0  0  0  3  0  0  0  0  0  0
  161.1160  207.7010  155.7810 C   0  0  0  0  0  1  0  0  0  0  0  0
  161.2250  204.9780  151.4100 C   0  0  0  0  0  0  0  0  0  0  0  0
  160.8310  207.3180  151.9860 C   0  0  0  0  0  0  0  0  0  0  0  0
  161.1280  204.2710  148.9930 C   0  0  0  0  0  0  0  0  0  0  0  0
  160.9300  206.3000  151.0120 C   0  0  0  0  0  0  0  0  0  0  0  0
  161.3160  205.6880  153.7230 C   0  0  0  0  0  3  0  0  0  0  0  0
  161.3450  203.8520  150.4190 C   0  0  0  0  0  2  0  0  0  0  0  0
  160.6160  209.3460  153.9380 C   0  0  0  0  0  0  0  0  0  0  0  0
  160.5440  208.6350  151.6180 C   0  0  0  0  0  3  0  0  0  0  0  0
  161.4140  204.6860  152.7610 C   0  0  0  0  0  3  0  0  0  0  0  0
  159.6540  211.5880  154.5210 C   0  0  0  0  0  2  0  0  0  0  0  0
  160.9180  208.0240  154.3280 C   0  0  0  0  0  0  0  0  0  0  0  0
  160.5320  210.4340  154.9790 C   0  0  0  0  0  2  0  0  0  0  0  0
  161.2070  203.4100  148.0800 O   0  0  0  0  0  0  0  0  0  0  0  0
  160.8240  205.6650  148.6420 C   0  0  0  0  0  3  0  0  0  0  0  0
  161.0240  207.0090  153.3540 C   0  0  0  0  0  0  0  0  0  0  0  0
  160.1930  212.1180  153.2040 C   0  0  0  0  0  2  0  0  0  0  0  0
  160.4620  209.6580  152.5680 C   0  0  0  0  0  0  0  0  0  0  0  0
  160.8310  211.4890  150.8890 C   0  0  0  0  0  0  0  0  0  0  0  0
  160.4980  212.6730  150.2150 C   0  0  0  0  0  3  0  0  0  0  0  0
  162.2830  212.2770  148.6220 C   0  0  0  0  0  0  0  0  0  0  0  0
  161.8900  210.7030  150.4240 C   0  0  0  0  0  3  0  0  0  0  0  0
  160.8640  214.2780  148.4180 N   0  0  0  0  0  1  0  0  0  0  0  0
  161.2190  213.0700  149.0850 C   0  0  0  0  0  0  0  0  0  0  0  0
  163.0740  212.6710  147.4220 C   0  0  0  0  0  1  0  0  0  0  0  0
  162.6140  211.0970  149.2950 C   0  0  0  0  0  3  0  0  0  0  0  0
  1 21  1  6  0  0  0
  1 20  1  0  0  0  0
  1 19  1  0  0  0  0
  2  7  1  0  0  0  0
  4 12  1  0  0  0  0
  5 18  1  0  0  0  0
  6  9  1  0  0  0  0
  7  4  2  0  0  0  0
  7  5  1  0  0  0  0
  9  4  1  0  0  0  0
 10 14  1  0  0  0  0
 10 15  1  0  0  0  0
 11  5  2  0  0  0  0
 11 20  1  0  0  0  0
 12  8  2  0  0  0  0
 13 15  1  0  0  0  0
 14  3  1  0  0  0  0
 16  6  2  0  0  0  0
 17  6  1  0  0  0  0
 17  2  2  0  0  0  0
 18  8  1  0  0  0  0
 18 14  2  0  0  0  0
 19 13  1  0  0  0  0
 20 10  2  0  0  0  0
 22 21  2  0  0  0  0
 23 26  2  0  0  0  0
 23 28  1  0  0  0  0
 24 21  1  0  0  0  0
 25 26  1  0  0  0  0
 26 22  1  0  0  0  0
 27 23  1  0  0  0  0
 28 24  2  0  0  0  0
M  END
>  <MODEL>
3

>  <REMARK>
 VINA RESULT:      -9.3      2.487      6.196
  Name = 
  1 active torsions:
  status: ('A' for Active; 'I' for Inactive)
    1  A    between atoms: C_1  and  C_2
                            x       y       z     vdW  Elec       q    Type
                         _______ _______ _______ _____ _____    ______ ____

>  <TORSDO>
F 1

$$$$
=
 OpenBabel11052423033D

 28 32  0  0  1  0  0  0  0  0999 V2000
  159.7660  211.3570  152.5500 C   0  0  2  0  0  3  0  0  0  0  0  0
  160.5640  207.0870  149.7650 C   0  0  0  0  0  3  0  0  0  0  0  0
  161.4030  207.9640  155.9570 C   0  0  0  0  0  1  0  0  0  0  0  0
  161.3500  205.4380  151.4690 C   0  0  0  0  0  0  0  0  0  0  0  0
  160.8160  207.7090  152.1860 C   0  0  0  0  0  0  0  0  0  0  0  0
  161.0980  204.8220  149.0380 C   0  0  0  0  0  0  0  0  0  0  0  0
  160.9120  206.7440  151.1600 C   0  0  0  0  0  0  0  0  0  0  0  0
  161.5870  206.0600  153.7970 C   0  0  0  0  0  3  0  0  0  0  0  0
  161.4750  204.3660  150.4190 C   0  0  0  0  0  2  0  0  0  0  0  0
  160.6070  209.6320  154.2430 C   0  0  0  0  0  0  0  0  0  0  0  0
  160.3890  209.0100  151.9060 C   0  0  0  0  0  3  0  0  0  0  0  0
  161.6830  205.1090  152.7830 C   0  0  0  0  0  3  0  0  0  0  0  0
  159.5180  211.7570  155.0110 C   0  0  0  0  0  2  0  0  0  0  0  0
  161.0510  208.3270  154.5430 C   0  0  0  0  0  0  0  0  0  0  0  0
  160.5260  210.6660  155.3380 C   0  0  0  0  0  2  0  0  0  0  0  0
  161.1670  204.0080  148.0820 O   0  0  0  0  0  0  0  0  0  0  0  0
  160.6490  206.1960  148.7800 C   0  0  0  0  0  3  0  0  0  0  0  0
  161.1550  207.3650  153.5170 C   0  0  0  0  0  0  0  0  0  0  0  0
  159.8910  212.3830  153.6800 C   0  0  0  0  0  2  0  0  0  0  0  0
  160.3060  209.9830  152.9070 C   0  0  0  0  0  0  0  0  0  0  0  0
  160.3710  211.9050  151.2910 C   0  0  0  0  0  0  0  0  0  0  0  0
  161.2600  211.1390  150.5220 C   0  0  0  0  0  3  0  0  0  0  0  0
  161.4610  212.9580  148.9310 C   0  0  0  0  0  0  0  0  0  0  0  0
  160.0310  213.1960  150.8750 C   0  0  0  0  0  3  0  0  0  0  0  0
  162.7050  210.8630  148.5800 N   0  0  0  0  0  1  0  0  0  0  0  0
  161.8050  211.6610  149.3450 C   0  0  0  0  0  0  0  0  0  0  0  0
  162.0230  213.5440  147.6810 C   0  0  0  0  0  1  0  0  0  0  0  0
  160.5750  213.7200  149.6990 C   0  0  0  0  0  3  0  0  0  0  0  0
  1 21  1  6  0  0  0
  1 20  1  0  0  0  0
  1 19  1  0  0  0  0
  2  7  1  0  0  0  0
  4 12  1  0  0  0  0
  5 18  1  0  0  0  0
  6  9  1  0  0  0  0
  7  4  2  0  0  0  0
  7  5  1  0  0  0  0
  9  4  1  0  0  0  0
 10 14  1  0  0  0  0
 10 15  1  0  0  0  0
 11  5  2  0  0  0  0
 11 20  1  0  0  0  0
 12  8  2  0  0  0  0
 13 15  1  0  0  0  0
 14  3  1  0  0  0  0
 16  6  2  0  0  0  0
 17  6  1  0  0  0  0
 17  2  2  0  0  0  0
 18  8  1  0  0  0  0
 18 14  2  0  0  0  0
 19 13  1  0  0  0  0
 20 10  2  0  0  0  0
 22 21  2  0  0  0  0
 23 26  2  0  0  0  0
 23 28  1  0  0  0  0
 24 21  1  0  0  0  0
 25 26  1  0  0  0  0
 26 22  1  0  0  0  0
 27 23  1  0  0  0  0
 28 24  2  0  0  0  0
M  END
>  <MODEL>
4

>  <REMARK>
 VINA RESULT:      -8.6      2.160      6.094
  Name = 
  1 active torsions:
  status: ('A' for Active; 'I' for Inactive)
    1  A    between atoms: C_1  and  C_2
                            x       y       z     vdW  Elec       q    Type
                         _______ _______ _______ _____ _____    ______ ____

>  <TORSDO>
F 1

$$$$
=
 OpenBabel11052423033D

 28 32  0  0  1  0  0  0  0  0999 V2000
  162.0130  204.8110  149.9470 C   0  0  2  0  0  3  0  0  0  0  0  0
  162.1400  209.8580  148.8810 C   0  0  0  0  0  3  0  0  0  0  0  0
  160.2350  206.9970  154.1730 C   0  0  0  0  0  1  0  0  0  0  0  0
  161.2770  210.9030  150.9810 C   0  0  0  0  0  0  0  0  0  0  0  0
  161.4400  208.4700  150.8550 C   0  0  0  0  0  0  0  0  0  0  0  0
  161.9790  212.2890  148.9960 C   0  0  0  0  0  0  0  0  0  0  0  0
  161.6140  209.7380  150.2580 C   0  0  0  0  0  0  0  0  0  0  0  0
  160.6070  209.5450  152.8700 C   0  0  0  0  0  3  0  0  0  0  0  0
  161.4400  212.2810  150.3980 C   0  0  0  0  0  2  0  0  0  0  0  0
  161.1070  205.9380  152.0590 C   0  0  0  0  0  0  0  0  0  0  0  0
  161.7610  207.3010  150.1590 C   0  0  0  0  0  3  0  0  0  0  0  0
  160.7780  210.7950  152.2790 C   0  0  0  0  0  3  0  0  0  0  0  0
  161.8220  203.5340  152.0950 C   0  0  0  0  0  2  0  0  0  0  0  0
  160.7660  207.1060  152.7730 C   0  0  0  0  0  0  0  0  0  0  0  0
  160.9000  204.5850  152.6920 C   0  0  0  0  0  2  0  0  0  0  0  0
  162.1530  213.3870  148.4100 O   0  0  0  0  0  0  0  0  0  0  0  0
  162.3110  211.0410  148.2960 C   0  0  0  0  0  3  0  0  0  0  0  0
  160.9330  208.3720  152.1730 C   0  0  0  0  0  0  0  0  0  0  0  0
  161.5990  203.4860  150.5940 C   0  0  0  0  0  2  0  0  0  0  0  0
  161.5770  206.0380  150.7290 C   0  0  0  0  0  0  0  0  0  0  0  0
  161.5610  204.8480  148.5170 C   0  0  0  0  0  0  0  0  0  0  0  0
  161.5510  203.6860  147.7310 C   0  0  0  0  0  3  0  0  0  0  0  0
  160.6860  204.9560  145.8540 C   0  0  0  0  0  0  0  0  0  0  0  0
  161.1330  206.0600  147.9670 C   0  0  0  0  0  3  0  0  0  0  0  0
  161.1120  202.5430  145.6250 N   0  0  0  0  0  1  0  0  0  0  0  0
  161.1150  203.7360  146.4030 C   0  0  0  0  0  0  0  0  0  0  0  0
  160.2140  205.0440  144.4440 C   0  0  0  0  0  1  0  0  0  0  0  0
  160.6970  206.1130  146.6400 C   0  0  0  0  0  3  0  0  0  0  0  0
  1 21  1  6  0  0  0
  1 19  1  0  0  0  0
  1 20  1  0  0  0  0
  2  7  1  0  0  0  0
  4 12  1  0  0  0  0
  5 18  1  0  0  0  0
  6  9  1  0  0  0  0
  7  5  1  0  0  0  0
  7  4  2  0  0  0  0
  9  4  1  0  0  0  0
 10 15  1  0  0  0  0
 10 14  1  0  0  0  0
 11 20  1  0  0  0  0
 11  5  2  0  0  0  0
 12  8  2  0  0  0  0
 13 15  1  0  0  0  0
 14  3  1  0  0  0  0
 16  6  2  0  0  0  0
 17  2  2  0  0  0  0
 17  6  1  0  0  0  0
 18 14  2  0  0  0  0
 18  8  1  0  0  0  0
 19 13  1  0  0  0  0
 20 10  2  0  0  0  0
 22 21  2  0  0  0  0
 23 26  2  0  0  0  0
 23 28  1  0  0  0  0
 24 21  1  0  0  0  0
 25 26  1  0  0  0  0
 26 22  1  0  0  0  0
 27 23  1  0  0  0  0
 28 24  2  0  0  0  0
M  END
>  <MODEL>
5

>  <REMARK>
 VINA RESULT:      -7.9      2.049      3.989
  Name = 
  1 active torsions:
  status: ('A' for Active; 'I' for Inactive)
    1  A    between atoms: C_1  and  C_2
                            x       y       z     vdW  Elec       q    Type
                         _______ _______ _______ _____ _____    ______ ____

>  <TORSDO>
F 1

$$$$
=
 OpenBabel11052423033D

 28 32  0  0  1  0  0  0  0  0999 V2000
  159.1490  212.9630  151.9170 C   0  0  2  0  0  3  0  0  0  0  0  0
  160.8660  208.1200  151.4420 C   0  0  0  0  0  3  0  0  0  0  0  0
  159.8070  211.4250  156.7120 C   0  0  0  0  0  1  0  0  0  0  0  0
  161.1630  207.3900  153.8130 C   0  0  0  0  0  0  0  0  0  0  0  0
  160.3710  209.6550  153.3690 C   0  0  0  0  0  0  0  0  0  0  0  0
  161.6610  205.8560  151.8750 C   0  0  0  0  0  0  0  0  0  0  0  0
  160.7960  208.3960  152.8930 C   0  0  0  0  0  0  0  0  0  0  0  0
  160.6810  208.8860  155.6540 C   0  0  0  0  0  3  0  0  0  0  0  0
  161.6260  206.0280  153.3670 C   0  0  0  0  0  2  0  0  0  0  0  0
  159.5030  212.1670  154.3240 C   0  0  0  0  0  0  0  0  0  0  0  0
  160.0060  210.6700  152.4790 C   0  0  0  0  0  3  0  0  0  0  0  0
  161.1010  207.6450  155.1830 C   0  0  0  0  0  3  0  0  0  0  0  0
  158.1700  214.2360  153.8400 C   0  0  0  0  0  2  0  0  0  0  0  0
  159.8780  211.1590  155.2370 C   0  0  0  0  0  0  0  0  0  0  0  0
  159.0700  213.5180  154.8340 C   0  0  0  0  0  2  0  0  0  0  0  0
  162.0350  204.7570  151.3920 O   0  0  0  0  0  0  0  0  0  0  0  0
  161.2660  206.9430  150.9700 C   0  0  0  0  0  3  0  0  0  0  0  0
  160.3110  209.9030  154.7610 C   0  0  0  0  0  0  0  0  0  0  0  0
  158.9020  214.3500  152.5150 C   0  0  0  0  0  2  0  0  0  0  0  0
  159.6000  211.9290  152.9330 C   0  0  0  0  0  0  0  0  0  0  0  0
  160.0820  213.0680  150.7470 C   0  0  0  0  0  0  0  0  0  0  0  0
  160.7250  211.9330  150.2290 C   0  0  0  0  0  3  0  0  0  0  0  0
  161.8010  213.3040  148.5430 C   0  0  0  0  0  0  0  0  0  0  0  0
  160.3030  214.3170  150.1590 C   0  0  0  0  0  3  0  0  0  0  0  0
  162.2230  210.8800  148.6220 N   0  0  0  0  0  1  0  0  0  0  0  0
  161.5820  212.0470  149.1310 C   0  0  0  0  0  0  0  0  0  0  0  0
  162.7080  213.4600  147.3710 C   0  0  0  0  0  1  0  0  0  0  0  0
  161.1600  214.4340  149.0610 C   0  0  0  0  0  3  0  0  0  0  0  0
  1 21  1  6  0  0  0
  1 19  1  0  0  0  0
  1 20  1  0  0  0  0
  2  7  1  0  0  0  0
  4 12  1  0  0  0  0
  5 18  1  0  0  0  0
  6  9  1  0  0  0  0
  7  5  1  0  0  0  0
  7  4  2  0  0  0  0
  9  4  1  0  0  0  0
 10 15  1  0  0  0  0
 10 14  1  0  0  0  0
 11 20  1  0  0  0  0
 11  5  2  0  0  0  0
 12  8  2  0  0  0  0
 13 15  1  0  0  0  0
 14  3  1  0  0  0  0
 16  6  2  0  0  0  0
 17  2  2  0  0  0  0
 17  6  1  0  0  0  0
 18 14  2  0  0  0  0
 18  8  1  0  0  0  0
 19 13  1  0  0  0  0
 20 10  2  0  0  0  0
 22 21  1  0  0  0  0
 23 28  2  0  0  0  0
 23 26  1  0  0  0  0
 24 21  2  0  0  0  0
 25 26  1  0  0  0  0
 26 22  2  0  0  0  0
 27 23  1  0  0  0  0
 28 24  1  0  0  0  0
M  END
>  <MODEL>
6

>  <REMARK>
 VINA RESULT:      -7.7      2.287      6.291
  Name = 
  1 active torsions:
  status: ('A' for Active; 'I' for Inactive)
    1  A    between atoms: C_1  and  C_2
                            x       y       z     vdW  Elec       q    Type
                         _______ _______ _______ _____ _____    ______ ____

>  <TORSDO>
F 1

$$$$
=
 OpenBabel11052423033D

 28 32  0  0  1  0  0  0  0  0999 V2000
  161.0160  212.5780  150.4660 C   0  0  2  0  0  3  0  0  0  0  0  0
  160.2810  209.4310  154.4890 C   0  0  0  0  0  3  0  0  0  0  0  0
  162.5210  208.0380  148.7570 C   0  0  0  0  0  1  0  0  0  0  0  0
  161.0450  207.2150  153.6220 C   0  0  0  0  0  0  0  0  0  0  0  0
  161.1310  209.1540  152.1400 C   0  0  0  0  0  0  0  0  0  0  0  0
  160.1880  207.5000  155.9750 C   0  0  0  0  0  0  0  0  0  0  0  0
  160.8270  208.5920  153.4000 C   0  0  0  0  0  0  0  0  0  0  0  0
  161.8580  206.9710  151.3550 C   0  0  0  0  0  3  0  0  0  0  0  0
  160.7400  206.5590  154.9430 C   0  0  0  0  0  2  0  0  0  0  0  0
  161.7540  210.2750  149.6260 C   0  0  0  0  0  0  0  0  0  0  0  0
  160.9210  210.5130  151.8940 C   0  0  0  0  0  3  0  0  0  0  0  0
  161.5580  206.4190  152.5980 C   0  0  0  0  0  3  0  0  0  0  0  0
  162.3560  212.3560  148.3600 C   0  0  0  0  0  2  0  0  0  0  0  0
  161.9620  208.8980  149.8520 C   0  0  0  0  0  0  0  0  0  0  0  0
  162.0590  210.8670  148.2720 C   0  0  0  0  0  2  0  0  0  0  0  0
  159.8960  207.0580  157.1160 O   0  0  0  0  0  0  0  0  0  0  0  0
  159.9850  208.9250  155.6830 C   0  0  0  0  0  3  0  0  0  0  0  0
  161.6520  208.3370  151.1080 C   0  0  0  0  0  0  0  0  0  0  0  0
  161.1770  213.0500  149.0190 C   0  0  0  0  0  2  0  0  0  0  0  0
  161.1980  211.0810  150.6460 C   0  0  0  0  0  0  0  0  0  0  0  0
  159.7150  213.0720  151.0250 C   0  0  0  0  0  0  0  0  0  0  0  0
  158.6190  213.3330  150.1890 C   0  0  0  0  0  3  0  0  0  0  0  0
  157.2920  213.9730  152.1150 C   0  0  0  0  0  0  0  0  0  0  0  0
  159.5930  213.2630  152.4050 C   0  0  0  0  0  3  0  0  0  0  0  0
  156.3110  214.0400  149.8580 N   0  0  0  0  0  1  0  0  0  0  0  0
  157.4110  213.7820  150.7280 C   0  0  0  0  0  0  0  0  0  0  0  0
  156.0170  214.4490  152.7220 C   0  0  0  0  0  1  0  0  0  0  0  0
  158.3850  213.7120  152.9470 C   0  0  0  0  0  3  0  0  0  0  0  0
  1 20  1  0  0  0  0
  1 21  1  6  0  0  0
  2 17  2  0  0  0  0
  3 14  1  0  0  0  0
  4  9  1  0  0  0  0
  5  7  2  0  0  0  0
  6 16  2  0  0  0  0
  7  4  1  0  0  0  0
  7  2  1  0  0  0  0
  8 12  1  0  0  0  0
  9  6  1  0  0  0  0
 10 14  2  0  0  0  0
 10 20  1  0  0  0  0
 11  5  1  0  0  0  0
 12  4  2  0  0  0  0
 13 19  1  0  0  0  0
 14 18  1  0  0  0  0
 15 13  1  0  0  0  0
 15 10  1  0  0  0  0
 17  6  1  0  0  0  0
 18  8  2  0  0  0  0
 18  5  1  0  0  0  0
 19  1  1  0  0  0  0
 20 11  2  0  0  0  0
 21 24  1  0  0  0  0
 22 26  1  0  0  0  0
 22 21  2  0  0  0  0
 23 27  1  0  0  0  0
 23 28  1  0  0  0  0
 24 28  2  0  0  0  0
 25 26  1  0  0  0  0
 26 23  2  0  0  0  0
M  END
>  <MODEL>
7

>  <REMARK>
 VINA RESULT:      -7.7      3.091      7.614
  Name = 
  1 active torsions:
  status: ('A' for Active; 'I' for Inactive)
    1  A    between atoms: C_1  and  C_2
                            x       y       z     vdW  Elec       q    Type
                         _______ _______ _______ _____ _____    ______ ____

>  <TORSDO>
F 1

$$$$
=
 OpenBabel11052423033D

 28 32  0  0  1  0  0  0  0  0999 V2000
  160.4710  205.6110  148.9720 C   0  0  2  0  0  3  0  0  0  0  0  0
  160.4360  207.0560  153.9260 C   0  0  0  0  0  3  0  0  0  0  0  0
  162.4990  210.2670  148.9010 C   0  0  0  0  0  1  0  0  0  0  0  0
  161.4220  209.3510  153.8530 C   0  0  0  0  0  0  0  0  0  0  0  0
  161.1860  208.1030  151.7680 C   0  0  0  0  0  0  0  0  0  0  0  0
  160.6690  208.2930  156.0140 C   0  0  0  0  0  0  0  0  0  0  0  0
  161.0210  208.1840  153.1680 C   0  0  0  0  0  0  0  0  0  0  0  0
  162.1390  210.3400  151.7630 C   0  0  0  0  0  3  0  0  0  0  0  0
  161.2710  209.4950  155.3450 C   0  0  0  0  0  2  0  0  0  0  0  0
  161.5030  207.9540  148.9670 C   0  0  0  0  0  0  0  0  0  0  0  0
  160.8010  206.9570  151.0670 C   0  0  0  0  0  3  0  0  0  0  0  0
  161.9760  210.4170  153.1450 C   0  0  0  0  0  3  0  0  0  0  0  0
  160.7240  206.8910  146.8330 C   0  0  0  0  0  2  0  0  0  0  0  0
  161.9080  209.1140  149.6590 C   0  0  0  0  0  0  0  0  0  0  0  0
  161.7010  207.8630  147.4740 C   0  0  0  0  0  2  0  0  0  0  0  0
  160.5000  208.3040  157.2600 O   0  0  0  0  0  0  0  0  0  0  0  0
  160.2720  207.1070  155.2450 C   0  0  0  0  0  3  0  0  0  0  0  0
  161.7490  209.1910  151.0590 C   0  0  0  0  0  0  0  0  0  0  0  0
  160.8770  205.5350  147.4980 C   0  0  0  0  0  2  0  0  0  0  0  0
  160.9760  206.8550  149.6830 C   0  0  0  0  0  0  0  0  0  0  0  0
  160.8590  204.3460  149.6770 C   0  0  0  0  0  0  0  0  0  0  0  0
  160.8830  203.1170  149.0010 C   0  0  0  0  0  3  0  0  0  0  0  0
  161.6130  202.0060  151.0290 C   0  0  0  0  0  0  0  0  0  0  0  0
  161.2130  204.3970  151.0290 C   0  0  0  0  0  3  0  0  0  0  0  0
  161.2760  200.7130  148.9610 N   0  0  0  0  0  1  0  0  0  0  0  0
  161.2580  201.9490  149.6700 C   0  0  0  0  0  0  0  0  0  0  0  0
  162.0190  200.7800  151.7720 C   0  0  0  0  0  1  0  0  0  0  0  0
  161.5880  203.2310  151.7020 C   0  0  0  0  0  3  0  0  0  0  0  0
  1 21  1  1  0  0  0
  1 20  1  0  0  0  0
  2 17  2  0  0  0  0
  3 14  1  0  0  0  0
  4  9  1  0  0  0  0
  5  7  2  0  0  0  0
  6 16  2  0  0  0  0
  7  4  1  0  0  0  0
  7  2  1  0  0  0  0
  8 12  1  0  0  0  0
  9  6  1  0  0  0  0
 10 14  2  0  0  0  0
 10 20  1  0  0  0  0
 11  5  1  0  0  0  0
 12  4  2  0  0  0  0
 13 15  1  0  0  0  0
 13 19  1  0  0  0  0
 14 18  1  0  0  0  0
 15 10  1  0  0  0  0
 17  6  1  0  0  0  0
 18  8  2  0  0  0  0
 18  5  1  0  0  0  0
 19  1  1  0  0  0  0
 20 11  2  0  0  0  0
 21 24  1  0  0  0  0
 22 26  1  0  0  0  0
 22 21  2  0  0  0  0
 23 28  1  0  0  0  0
 23 27  1  0  0  0  0
 24 28  2  0  0  0  0
 25 26  1  0  0  0  0
 26 23  2  0  0  0  0
M  END
>  <MODEL>
8

>  <REMARK>
 VINA RESULT:      -7.6      3.061      5.825
  Name = 
  1 active torsions:
  status: ('A' for Active; 'I' for Inactive)
    1  A    between atoms: C_1  and  C_2
                            x       y       z     vdW  Elec       q    Type
                         _______ _______ _______ _____ _____    ______ ____

>  <TORSDO>
F 1

$$$$
=
 OpenBabel11052423033D

 28 32  0  0  1  0  0  0  0  0999 V2000
  160.6180  208.2030  151.3920 C   0  0  2  0  0  3  0  0  0  0  0  0
  160.5610  206.2810  146.6040 C   0  0  0  0  0  3  0  0  0  0  0  0
  161.9540  203.3420  152.0110 C   0  0  0  0  0  1  0  0  0  0  0  0
  161.2040  203.8900  146.9450 C   0  0  0  0  0  0  0  0  0  0  0  0
  161.0730  205.3640  148.8870 C   0  0  0  0  0  0  0  0  0  0  0  0
  160.6920  204.8170  144.6580 C   0  0  0  0  0  0  0  0  0  0  0  0
  160.9500  205.1660  147.4940 C   0  0  0  0  0  0  0  0  0  0  0  0
  161.6940  203.0290  149.1540 C   0  0  0  0  0  3  0  0  0  0  0  0
  161.0910  203.6170  145.4690 C   0  0  0  0  0  2  0  0  0  0  0  0
  161.3030  205.7520  151.6740 C   0  0  0  0  0  0  0  0  0  0  0  0
  160.8300  206.6180  149.4550 C   0  0  0  0  0  3  0  0  0  0  0  0
  161.5730  202.8360  147.7800 C   0  0  0  0  0  3  0  0  0  0  0  0
  160.6050  207.1250  153.6540 C   0  0  0  0  0  2  0  0  0  0  0  0
  161.5630  204.4830  151.1170 C   0  0  0  0  0  0  0  0  0  0  0  0
  161.4560  205.9660  153.1590 C   0  0  0  0  0  2  0  0  0  0  0  0
  160.5700  204.7040  143.4120 O   0  0  0  0  0  0  0  0  0  0  0  0
  160.4410  206.1190  145.2890 C   0  0  0  0  0  3  0  0  0  0  0  0
  161.4470  204.2870  149.7250 C   0  0  0  0  0  0  0  0  0  0  0  0
  160.9750  208.3720  152.8710 C   0  0  0  0  0  2  0  0  0  0  0  0
  160.9660  206.8360  150.8300 C   0  0  0  0  0  0  0  0  0  0  0  0
  161.2090  209.3240  150.5900 C   0  0  0  0  0  0  0  0  0  0  0  0
  160.9210  210.6630  150.8940 C   0  0  0  0  0  3  0  0  0  0  0  0
  162.3550  211.3910  149.0790 C   0  0  0  0  0  0  0  0  0  0  0  0
  162.0700  209.0260  149.5300 C   0  0  0  0  0  3  0  0  0  0  0  0
  161.1830  213.0480  150.4720 N   0  0  0  0  0  1  0  0  0  0  0  0
  161.4900  211.6960  150.1440 C   0  0  0  0  0  0  0  0  0  0  0  0
  162.9790  212.4680  148.2600 C   0  0  0  0  0  1  0  0  0  0  0  0
  162.6410  210.0560  148.7770 C   0  0  0  0  0  3  0  0  0  0  0  0
  1 21  1  6  0  0  0
  1 19  1  0  0  0  0
  2  7  1  0  0  0  0
  4  7  2  0  0  0  0
  4 12  1  0  0  0  0
  5 11  2  0  0  0  0
  5 18  1  0  0  0  0
  6 17  1  0  0  0  0
  6  9  1  0  0  0  0
  7  5  1  0  0  0  0
  8 18  1  0  0  0  0
  9  4  1  0  0  0  0
 10 15  1  0  0  0  0
 11 20  1  0  0  0  0
 12  8  2  0  0  0  0
 14 10  1  0  0  0  0
 14  3  1  0  0  0  0
 15 13  1  0  0  0  0
 16  6  2  0  0  0  0
 17  2  2  0  0  0  0
 18 14  2  0  0  0  0
 19 13  1  0  0  0  0
 20  1  1  0  0  0  0
 20 10  2  0  0  0  0
 21 22  1  0  0  0  0
 23 26  1  0  0  0  0
 24 21  2  0  0  0  0
 26 25  1  0  0  0  0
 26 22  2  0  0  0  0
 27 23  1  0  0  0  0
 28 23  2  0  0  0  0
 28 24  1  0  0  0  0
M  END
>  <MODEL>
9

>  <REMARK>
 VINA RESULT:      -7.4      2.916      6.933
  Name = 
  1 active torsions:
  status: ('A' for Active; 'I' for Inactive)
    1  A    between atoms: C_1  and  C_2
                            x       y       z     vdW  Elec       q    Type
                         _______ _______ _______ _____ _____    ______ ____

>  <TORSDO>
F 1

$$$$
