=
 OpenBabel11052422573D

 28 32  0  0  1  0  0  0  0  0999 V2000
  161.6350  209.9090  151.5980 N   0  0  0  0  0  0  0  0  0  0  0  0
  160.6690  205.8310  148.5650 C   0  0  0  0  0  2  0  0  0  0  0  0
  160.1940  206.2770  154.6390 C   0  0  0  0  0  1  0  0  0  0  0  0
  160.9250  203.9430  150.1920 C   0  0  0  0  0  0  0  0  0  0  0  0
  160.9540  206.2200  151.0570 C   0  0  0  0  0  0  0  0  0  0  0  0
  161.4430  203.5530  147.8010 C   0  0  0  0  0  0  0  0  0  0  0  0
  160.8660  205.3310  149.9710 C   0  0  0  0  0  0  0  0  0  0  0  0
  161.1480  204.3260  152.5680 C   0  0  0  0  0  3  0  0  0  0  0  0
  160.8100  202.9860  149.0430 C   0  0  0  0  0  2  0  0  0  0  0  0
  161.1150  208.1260  153.2450 C   0  0  1  0  0  3  0  0  0  0  0  0
  160.8710  207.7010  150.8270 C   0  0  0  0  0  2  0  0  0  0  0  0
  161.0650  203.4480  151.4880 C   0  0  0  0  0  3  0  0  0  0  0  0
  161.7700  210.4140  153.9940 C   0  0  0  0  0  2  0  0  0  0  0  0
  161.2200  206.6280  153.5700 C   0  0  2  0  0  3  0  0  0  0  0  0
  161.8190  208.9340  154.3320 C   0  0  0  0  0  2  0  0  0  0  0  0
  161.8870  202.7930  146.9570 O   0  0  0  0  0  0  0  0  0  0  0  0
  161.5200  205.0410  147.5670 C   0  0  0  0  0  2  0  0  0  0  0  0
  161.0730  205.7130  152.3720 C   0  0  0  0  0  0  0  0  0  0  0  0
  162.3970  210.6230  152.6230 C   0  0  0  0  0  2  0  0  0  0  0  0
  161.7000  208.4600  151.8610 C   0  0  1  0  0  3  0  0  0  0  0  0
  162.3320  210.1780  150.3460 C   0  0  0  0  0  2  0  0  0  0  0  0
  161.6840  211.3170  149.6380 C   0  0  0  0  0  0  0  0  0  0  0  0
  160.4320  213.4290  148.2960 C   0  0  0  0  0  0  0  0  0  0  0  0
  160.8390  212.1880  150.3360 C   0  0  0  0  0  3  0  0  0  0  0  0
  161.8960  211.5000  148.2670 C   0  0  0  0  0  3  0  0  0  0  0  0
  161.2720  212.5560  147.5970 C   0  0  0  0  0  3  0  0  0  0  0  0
  159.8290  214.4530  147.6460 F   0  0  0  0  0  0  0  0  0  0  0  0
  160.2150  213.2440  149.6650 C   0  0  0  0  0  3  0  0  0  0  0  0
  1 20  1  0  0  0  0
  1 19  1  0  0  0  0
  2  7  1  0  0  0  0
  4 12  1  0  0  0  0
  5 18  2  0  0  0  0
  6  9  1  0  0  0  0
  7  4  2  0  0  0  0
  7  5  1  0  0  0  0
  9  4  1  0  0  0  0
 10 14  1  0  0  0  0
 10 15  1  1  0  0  0
 11  5  1  0  0  0  0
 12  8  2  0  0  0  0
 13 15  1  0  0  0  0
 14  3  1  1  0  0  0
 16  6  2  0  0  0  0
 17  6  1  0  0  0  0
 17  2  1  0  0  0  0
 18  8  1  0  0  0  0
 18 14  1  0  0  0  0
 19 13  1  0  0  0  0
 20 11  1  6  0  0  0
 20 10  1  0  0  0  0
 21  1  1  0  0  0  0
 22 24  1  0  0  0  0
 22 21  1  0  0  0  0
 23 28  1  0  0  0  0
 25 22  2  0  0  0  0
 26 25  1  0  0  0  0
 26 23  2  0  0  0  0
 27 23  1  0  0  0  0
 28 24  2  0  0  0  0
M  END
>  <MODEL>
1

>  <REMARK>
 VINA RESULT:      -8.6      0.000      0.000
  Name = 
  2 active torsions:
  status: ('A' for Active; 'I' for Inactive)
    1  A    between atoms: N_1  and  C_2
    2  A    between atoms: C_2  and  C_3
                            x       y       z     vdW  Elec       q    Type
                         _______ _______ _______ _____ _____    ______ ____

>  <TORSDO>
F 2

$$$$
=
 OpenBabel11052422573D

 28 32  0  0  1  0  0  0  0  0999 V2000
  160.9010  208.0770  152.2720 N   0  0  0  0  0  0  0  0  0  0  0  0
  160.5460  206.4390  147.3770 C   0  0  0  0  0  2  0  0  0  0  0  0
  160.3620  203.1620  152.5300 C   0  0  0  0  0  1  0  0  0  0  0  0
  161.2540  204.0480  147.6120 C   0  0  0  0  0  0  0  0  0  0  0  0
  160.9020  205.3480  149.6420 C   0  0  0  0  0  0  0  0  0  0  0  0
  161.6910  205.2310  145.4800 C   0  0  0  0  0  0  0  0  0  0  0  0
  160.9190  205.2620  148.2370 C   0  0  0  0  0  0  0  0  0  0  0  0
  161.5430  203.0080  149.7750 C   0  0  0  0  0  3  0  0  0  0  0  0
  161.2540  203.9390  146.1160 C   0  0  0  0  0  2  0  0  0  0  0  0
  160.8290  205.6100  152.5350 C   0  0  1  0  0  3  0  0  0  0  0  0
  160.5260  206.6370  150.3120 C   0  0  0  0  0  2  0  0  0  0  0  0
  161.5640  202.9270  148.3830 C   0  0  0  0  0  3  0  0  0  0  0  0
  161.0820  207.1060  154.5160 C   0  0  0  0  0  2  0  0  0  0  0  0
  161.2360  204.2560  151.9330 C   0  0  2  0  0  3  0  0  0  0  0  0
  161.4320  205.7490  153.9310 C   0  0  0  0  0  2  0  0  0  0  0  0
  162.2210  205.2060  144.3820 O   0  0  0  0  0  0  0  0  0  0  0  0
  161.4700  206.5570  146.1620 C   0  0  0  0  0  2  0  0  0  0  0  0
  161.1940  204.2040  150.4190 C   0  0  0  0  0  0  0  0  0  0  0  0
  161.5740  208.1890  153.5670 C   0  0  0  0  0  2  0  0  0  0  0  0
  161.2550  206.7910  151.6450 C   0  0  1  0  0  3  0  0  0  0  0  0
  161.4570  209.1510  151.4580 C   0  0  0  0  0  2  0  0  0  0  0  0
  160.7210  210.4200  151.7170 C   0  0  0  0  0  0  0  0  0  0  0  0
  159.3080  212.7920  152.1710 C   0  0  0  0  0  0  0  0  0  0  0  0
  159.7260  210.4650  152.7000 C   0  0  0  0  0  3  0  0  0  0  0  0
  161.0030  211.5600  150.9570 C   0  0  0  0  0  3  0  0  0  0  0  0
  160.2980  212.7450  151.1840 C   0  0  0  0  0  3  0  0  0  0  0  0
  158.6250  213.9410  152.3920 F   0  0  0  0  0  0  0  0  0  0  0  0
  159.0210  211.6520  152.9280 C   0  0  0  0  0  3  0  0  0  0  0  0
  1 19  1  0  0  0  0
  2  7  1  0  0  0  0
  4  7  2  0  0  0  0
  4 12  1  0  0  0  0
  5 11  1  0  0  0  0
  5 18  2  0  0  0  0
  6  9  1  0  0  0  0
  6 17  1  0  0  0  0
  7  5  1  0  0  0  0
  8 18  1  0  0  0  0
  9  4  1  0  0  0  0
 10 15  1  1  0  0  0
 12  8  2  0  0  0  0
 14  3  1  1  0  0  0
 14 10  1  0  0  0  0
 15 13  1  0  0  0  0
 16  6  2  0  0  0  0
 17  2  1  0  0  0  0
 18 14  1  0  0  0  0
 19 13  1  0  0  0  0
 20 11  1  6  0  0  0
 20  1  1  0  0  0  0
 20 10  1  0  0  0  0
 21 22  1  0  0  0  0
 21  1  1  0  0  0  0
 22 24  1  0  0  0  0
 23 27  1  0  0  0  0
 23 28  1  0  0  0  0
 24 28  2  0  0  0  0
 25 26  1  0  0  0  0
 25 22  2  0  0  0  0
 26 23  2  0  0  0  0
M  END
>  <MODEL>
2

>  <REMARK>
 VINA RESULT:      -8.3      1.882      2.924
  Name = 
  2 active torsions:
  status: ('A' for Active; 'I' for Inactive)
    1  A    between atoms: N_1  and  C_2
    2  A    between atoms: C_2  and  C_3
                            x       y       z     vdW  Elec       q    Type
                         _______ _______ _______ _____ _____    ______ ____

>  <TORSDO>
F 2

$$$$
=
 OpenBabel11052422573D

 28 32  0  0  1  0  0  0  0  0999 V2000
  161.5250  206.9250  151.0960 N   0  0  0  0  0  0  0  0  0  0  0  0
  160.2950  211.9190  151.6590 C   0  0  0  0  0  2  0  0  0  0  0  0
  161.5210  207.7720  155.9740 C   0  0  0  0  0  1  0  0  0  0  0  0
  159.4010  211.9380  153.9990 C   0  0  0  0  0  0  0  0  0  0  0  0
  160.4600  209.9000  153.1890 C   0  0  0  0  0  0  0  0  0  0  0  0
  158.5290  213.5790  152.3600 C   0  0  0  0  0  0  0  0  0  0  0  0
  160.0400  211.2250  152.9700 C   0  0  0  0  0  0  0  0  0  0  0  0
  159.6060  210.0250  155.4610 C   0  0  0  0  0  3  0  0  0  0  0  0
  158.9690  213.3590  153.7820 C   0  0  0  0  0  2  0  0  0  0  0  0
  161.3710  207.1650  153.5620 C   0  0  1  0  0  3  0  0  0  0  0  0
  161.1610  209.1410  152.1000 C   0  0  0  0  0  2  0  0  0  0  0  0
  159.1870  211.3360  155.2390 C   0  0  0  0  0  3  0  0  0  0  0  0
  161.8640  204.9540  152.5160 C   0  0  0  0  0  2  0  0  0  0  0  0
  160.6520  207.8630  154.7280 C   0  0  2  0  0  3  0  0  0  0  0  0
  161.2050  205.6530  153.6920 C   0  0  0  0  0  2  0  0  0  0  0  0
  157.7140  214.4530  152.1160 O   0  0  0  0  0  0  0  0  0  0  0  0
  159.0890  212.7570  151.2270 C   0  0  0  0  0  2  0  0  0  0  0  0
  160.2620  209.3010  154.4550 C   0  0  0  0  0  0  0  0  0  0  0  0
  161.2590  205.4910  151.2270 C   0  0  0  0  0  2  0  0  0  0  0  0
  160.8570  207.6480  152.1940 C   0  0  1  0  0  3  0  0  0  0  0  0
  160.8960  207.3170  149.8410 C   0  0  0  0  0  2  0  0  0  0  0  0
  161.3120  206.3910  148.7520 C   0  0  0  0  0  0  0  0  0  0  0  0
  162.0530  204.6590  146.6830 C   0  0  0  0  0  0  0  0  0  0  0  0
  162.0730  206.8680  147.6780 C   0  0  0  0  0  3  0  0  0  0  0  0
  160.9160  205.0490  148.7850 C   0  0  0  0  0  3  0  0  0  0  0  0
  161.2870  204.1840  147.7530 C   0  0  0  0  0  3  0  0  0  0  0  0
  162.4130  203.8190  145.6830 F   0  0  0  0  0  0  0  0  0  0  0  0
  162.4440  206.0010  146.6450 C   0  0  0  0  0  3  0  0  0  0  0  0
  1 19  1  0  0  0  0
  1 20  1  0  0  0  0
  2  7  1  0  0  0  0
  4 12  1  0  0  0  0
  5 18  2  0  0  0  0
  6  9  1  0  0  0  0
  7  5  1  0  0  0  0
  7  4  2  0  0  0  0
  9  4  1  0  0  0  0
 10 15  1  1  0  0  0
 10 14  1  0  0  0  0
 11  5  1  0  0  0  0
 12  8  2  0  0  0  0
 13 15  1  0  0  0  0
 14  3  1  1  0  0  0
 16  6  2  0  0  0  0
 17  2  1  0  0  0  0
 17  6  1  0  0  0  0
 18 14  1  0  0  0  0
 18  8  1  0  0  0  0
 19 13  1  0  0  0  0
 20 11  1  6  0  0  0
 20 10  1  0  0  0  0
 21  1  1  0  0  0  0
 22 25  1  0  0  0  0
 22 21  1  0  0  0  0
 23 26  1  0  0  0  0
 24 22  2  0  0  0  0
 26 25  2  0  0  0  0
 27 23  1  0  0  0  0
 28 23  2  0  0  0  0
 28 24  1  0  0  0  0
M  END
>  <MODEL>
3

>  <REMARK>
 VINA RESULT:      -8.2      3.804      7.093
  Name = 
  2 active torsions:
  status: ('A' for Active; 'I' for Inactive)
    1  A    between atoms: N_1  and  C_2
    2  A    between atoms: C_2  and  C_3
                            x       y       z     vdW  Elec       q    Type
                         _______ _______ _______ _____ _____    ______ ____

>  <TORSDO>
F 2

$$$$
=
 OpenBabel11052422573D

 28 32  0  0  1  0  0  0  0  0999 V2000
  161.2120  206.8520  151.5040 N   0  0  0  0  0  0  0  0  0  0  0  0
  160.4950  206.2310  146.4170 C   0  0  0  0  0  2  0  0  0  0  0  0
  160.1920  202.0500  150.8620 C   0  0  0  0  0  1  0  0  0  0  0  0
  160.9680  203.7850  146.1560 C   0  0  0  0  0  0  0  0  0  0  0  0
  160.8310  204.6950  148.4110 C   0  0  0  0  0  0  0  0  0  0  0  0
  161.4340  205.3130  144.2620 C   0  0  0  0  0  0  0  0  0  0  0  0
  160.7820  204.8800  147.0170 C   0  0  0  0  0  0  0  0  0  0  0  0
  161.2380  202.3240  148.0630 C   0  0  0  0  0  3  0  0  0  0  0  0
  160.8950  203.9670  144.6690 C   0  0  0  0  0  2  0  0  0  0  0  0
  160.9040  204.3980  151.3010 C   0  0  1  0  0  3  0  0  0  0  0  0
  160.6140  205.8580  149.3340 C   0  0  0  0  0  2  0  0  0  0  0  0
  161.1940  202.5130  146.6820 C   0  0  0  0  0  3  0  0  0  0  0  0
  161.3860  205.4530  153.5100 C   0  0  0  0  0  2  0  0  0  0  0  0
  161.1470  203.1550  150.4310 C   0  0  2  0  0  3  0  0  0  0  0  0
  161.5730  204.2090  152.6600 C   0  0  0  0  0  2  0  0  0  0  0  0
  161.9130  205.4530  143.1500 O   0  0  0  0  0  0  0  0  0  0  0  0
  161.3760  206.4970  145.1940 C   0  0  0  0  0  2  0  0  0  0  0  0
  161.0380  203.4000  148.9400 C   0  0  0  0  0  0  0  0  0  0  0  0
  161.9460  206.6500  152.7540 C   0  0  0  0  0  2  0  0  0  0  0  0
  161.4100  205.6850  150.6260 C   0  0  1  0  0  3  0  0  0  0  0  0
  161.8400  208.0080  150.8750 C   0  0  0  0  0  2  0  0  0  0  0  0
  161.2900  209.2650  151.4560 C   0  0  0  0  0  0  0  0  0  0  0  0
  160.2200  211.6220  152.5160 C   0  0  0  0  0  0  0  0  0  0  0  0
  160.4560  209.2120  152.5780 C   0  0  0  0  0  3  0  0  0  0  0  0
  161.5810  210.4970  150.8600 C   0  0  0  0  0  3  0  0  0  0  0  0
  161.0480  211.6750  151.3910 C   0  0  0  0  0  3  0  0  0  0  0  0
  159.7040  212.7650  153.0310 F   0  0  0  0  0  0  0  0  0  0  0  0
  159.9230  210.3910  153.1090 C   0  0  0  0  0  3  0  0  0  0  0  0
  1 19  1  0  0  0  0
  2  7  1  0  0  0  0
  4 12  2  0  0  0  0
  4  7  1  0  0  0  0
  5 18  1  0  0  0  0
  5 11  1  0  0  0  0
  6  9  1  0  0  0  0
  6 17  1  0  0  0  0
  7  5  2  0  0  0  0
  8 18  2  0  0  0  0
  9  4  1  0  0  0  0
 10 15  1  1  0  0  0
 12  8  1  0  0  0  0
 14  3  1  1  0  0  0
 14 10  1  0  0  0  0
 15 13  1  0  0  0  0
 16  6  2  0  0  0  0
 17  2  1  0  0  0  0
 18 14  1  0  0  0  0
 19 13  1  0  0  0  0
 20 11  1  6  0  0  0
 20 10  1  0  0  0  0
 20  1  1  0  0  0  0
 21 22  1  0  0  0  0
 21  1  1  0  0  0  0
 22 24  1  0  0  0  0
 23 27  1  0  0  0  0
 23 28  1  0  0  0  0
 24 28  2  0  0  0  0
 25 26  1  0  0  0  0
 25 22  2  0  0  0  0
 26 23  2  0  0  0  0
M  END
>  <MODEL>
4

>  <REMARK>
 VINA RESULT:      -7.9      2.229      4.033
  Name = 
  2 active torsions:
  status: ('A' for Active; 'I' for Inactive)
    1  A    between atoms: N_1  and  C_2
    2  A    between atoms: C_2  and  C_3
                            x       y       z     vdW  Elec       q    Type
                         _______ _______ _______ _____ _____    ______ ____

>  <TORSDO>
F 2

$$$$
=
 OpenBabel11052422573D

 28 32  0  0  1  0  0  0  0  0999 V2000
  161.4660  204.1290  150.0270 N   0  0  0  0  0  0  0  0  0  0  0  0
  162.5620  209.0440  148.8420 C   0  0  0  0  0  2  0  0  0  0  0  0
  161.5830  206.5620  154.3380 C   0  0  0  0  0  1  0  0  0  0  0  0
  161.6480  210.2420  150.8440 C   0  0  0  0  0  0  0  0  0  0  0  0
  161.7290  207.8080  150.8980 C   0  0  0  0  0  0  0  0  0  0  0  0
  161.6860  211.4040  148.6560 C   0  0  0  0  0  0  0  0  0  0  0  0
  161.9560  209.0200  150.2200 C   0  0  0  0  0  0  0  0  0  0  0  0
  160.9020  209.0550  152.8130 C   0  0  0  0  0  3  0  0  0  0  0  0
  161.9060  211.5410  150.1380 C   0  0  0  0  0  2  0  0  0  0  0  0
  161.3060  205.2610  152.2300 C   0  0  1  0  0  3  0  0  0  0  0  0
  162.0750  206.5030  150.2430 C   0  0  0  0  0  2  0  0  0  0  0  0
  161.1230  210.2540  152.1360 C   0  0  0  0  0  3  0  0  0  0  0  0
  160.8170  202.8250  152.0000 C   0  0  0  0  0  2  0  0  0  0  0  0
  160.9130  206.5490  152.9710 C   0  0  2  0  0  3  0  0  0  0  0  0
  160.4770  204.0940  152.7620 C   0  0  0  0  0  2  0  0  0  0  0  0
  161.3600  212.3840  148.0080 O   0  0  0  0  0  0  0  0  0  0  0  0
  161.8810  210.0860  147.9500 C   0  0  0  0  0  2  0  0  0  0  0  0
  161.2190  207.8260  152.2160 C   0  0  0  0  0  0  0  0  0  0  0  0
  160.5830  203.0680  150.5160 C   0  0  0  0  0  2  0  0  0  0  0  0
  161.1340  205.3940  150.7070 C   0  0  1  0  0  3  0  0  0  0  0  0
  161.1450  204.2720  148.6120 C   0  0  0  0  0  2  0  0  0  0  0  0
  161.1820  202.9410  147.9450 C   0  0  0  0  0  0  0  0  0  0  0  0
  161.2060  200.4320  146.7060 C   0  0  0  0  0  0  0  0  0  0  0  0
  160.8170  202.8210  146.5990 C   0  0  0  0  0  3  0  0  0  0  0  0
  161.5510  201.8040  148.6720 C   0  0  0  0  0  3  0  0  0  0  0  0
  161.5650  200.5510  148.0530 C   0  0  0  0  0  3  0  0  0  0  0  0
  161.2210  199.2170  146.1060 F   0  0  0  0  0  0  0  0  0  0  0  0
  160.8310  201.5670  145.9800 C   0  0  0  0  0  3  0  0  0  0  0  0
  1 19  1  0  0  0  0
  1 20  1  0  0  0  0
  2  7  1  0  0  0  0
  4 12  1  0  0  0  0
  5 18  2  0  0  0  0
  6  9  1  0  0  0  0
  7  4  2  0  0  0  0
  7  5  1  0  0  0  0
  9  4  1  0  0  0  0
 10 15  1  1  0  0  0
 10 14  1  0  0  0  0
 11  5  1  0  0  0  0
 12  8  2  0  0  0  0
 13 15  1  0  0  0  0
 14  3  1  1  0  0  0
 16  6  2  0  0  0  0
 17  6  1  0  0  0  0
 17  2  1  0  0  0  0
 18  8  1  0  0  0  0
 18 14  1  0  0  0  0
 19 13  1  0  0  0  0
 20 11  1  6  0  0  0
 20 10  1  0  0  0  0
 21  1  1  0  0  0  0
 22 21  1  0  0  0  0
 22 25  1  0  0  0  0
 23 26  1  0  0  0  0
 24 22  2  0  0  0  0
 26 25  2  0  0  0  0
 27 23  1  0  0  0  0
 28 24  1  0  0  0  0
 28 23  2  0  0  0  0
M  END
>  <MODEL>
5

>  <REMARK>
 VINA RESULT:      -7.3      3.861      7.635
  Name = 
  2 active torsions:
  status: ('A' for Active; 'I' for Inactive)
    1  A    between atoms: N_1  and  C_2
    2  A    between atoms: C_2  and  C_3
                            x       y       z     vdW  Elec       q    Type
                         _______ _______ _______ _____ _____    ______ ____

>  <TORSDO>
F 2

$$$$
=
 OpenBabel11052422573D

 28 32  0  0  1  0  0  0  0  0999 V2000
  161.0610  205.4070  149.1860 N   0  0  0  0  0  0  0  0  0  0  0  0
  160.2070  207.1470  153.9830 C   0  0  0  0  0  2  0  0  0  0  0  0
  161.6830  210.3140  148.9720 C   0  0  0  0  0  1  0  0  0  0  0  0
  161.4590  209.3160  153.9430 C   0  0  0  0  0  0  0  0  0  0  0  0
  161.1960  208.1010  151.8480 C   0  0  0  0  0  0  0  0  0  0  0  0
  161.2320  208.0930  156.0860 C   0  0  0  0  0  0  0  0  0  0  0  0
  160.9800  208.1990  153.2350 C   0  0  0  0  0  0  0  0  0  0  0  0
  162.3550  210.2360  151.8950 C   0  0  0  0  0  3  0  0  0  0  0  0
  161.2140  209.4420  155.4180 C   0  0  0  0  0  2  0  0  0  0  0  0
  161.5880  207.8230  148.9820 C   0  0  1  0  0  3  0  0  0  0  0  0
  160.6700  206.9200  151.0860 C   0  0  0  0  0  2  0  0  0  0  0  0
  162.1430  210.3290  153.2700 C   0  0  0  0  0  3  0  0  0  0  0  0
  161.8530  206.2830  147.0370 C   0  0  0  0  0  2  0  0  0  0  0  0
  162.1710  209.0600  149.6840 C   0  0  2  0  0  3  0  0  0  0  0  0
  162.3850  207.5350  147.7120 C   0  0  0  0  0  2  0  0  0  0  0  0
  161.5480  208.0140  157.2610 O   0  0  0  0  0  0  0  0  0  0  0  0
  160.8480  206.8410  155.3400 C   0  0  0  0  0  2  0  0  0  0  0  0
  161.8710  209.1400  151.1670 C   0  0  0  0  0  0  0  0  0  0  0  0
  161.9140  205.1300  148.0290 C   0  0  0  0  0  2  0  0  0  0  0  0
  161.5740  206.5890  149.9010 C   0  0  1  0  0  3  0  0  0  0  0  0
  161.2090  204.2460  150.0560 C   0  0  0  0  0  2  0  0  0  0  0  0
  161.1910  202.9970  149.2460 C   0  0  0  0  0  0  0  0  0  0  0  0
  161.2050  200.6510  147.7210 C   0  0  0  0  0  0  0  0  0  0  0  0
  161.2010  201.7490  149.8800 C   0  0  0  0  0  3  0  0  0  0  0  0
  161.1960  203.0690  147.8480 C   0  0  0  0  0  3  0  0  0  0  0  0
  161.2020  201.8980  147.0860 C   0  0  0  0  0  3  0  0  0  0  0  0
  161.2100  199.5150  146.9810 F   0  0  0  0  0  0  0  0  0  0  0  0
  161.2060  200.5770  149.1170 C   0  0  0  0  0  3  0  0  0  0  0  0
  1 20  1  0  0  0  0
  1 21  1  0  0  0  0
  2 17  1  0  0  0  0
  4  9  1  0  0  0  0
  5  7  1  0  0  0  0
  6 16  2  0  0  0  0
  7  4  2  0  0  0  0
  7  2  1  0  0  0  0
  8 12  2  0  0  0  0
  9  6  1  0  0  0  0
 10 15  1  6  0  0  0
 10 14  1  0  0  0  0
 10 20  1  0  0  0  0
 11  5  1  0  0  0  0
 12  4  1  0  0  0  0
 13 15  1  0  0  0  0
 13 19  1  0  0  0  0
 14  3  1  6  0  0  0
 14 18  1  0  0  0  0
 17  6  1  0  0  0  0
 18  5  2  0  0  0  0
 18  8  1  0  0  0  0
 19  1  1  0  0  0  0
 20 11  1  1  0  0  0
 22 24  1  0  0  0  0
 22 21  1  0  0  0  0
 23 28  1  0  0  0  0
 25 22  2  0  0  0  0
 26 23  2  0  0  0  0
 26 25  1  0  0  0  0
 27 23  1  0  0  0  0
 28 24  2  0  0  0  0
M  END
>  <MODEL>
6

>  <REMARK>
 VINA RESULT:      -7.3      4.007      8.041
  Name = 
  2 active torsions:
  status: ('A' for Active; 'I' for Inactive)
    1  A    between atoms: N_1  and  C_2
    2  A    between atoms: C_2  and  C_3
                            x       y       z     vdW  Elec       q    Type
                         _______ _______ _______ _____ _____    ______ ____

>  <TORSDO>
F 2

$$$$
=
 OpenBabel11052422573D

 28 32  0  0  1  0  0  0  0  0999 V2000
  161.7280  207.3920  151.9580 N   0  0  0  0  0  0  0  0  0  0  0  0
  162.0210  211.5580  148.9030 C   0  0  0  0  0  2  0  0  0  0  0  0
  160.5930  211.2570  154.8360 C   0  0  0  0  0  1  0  0  0  0  0  0
  160.5470  213.1670  150.1340 C   0  0  0  0  0  0  0  0  0  0  0  0
  161.0990  211.0550  151.2150 C   0  0  0  0  0  0  0  0  0  0  0  0
  160.7420  213.3510  147.6710 C   0  0  0  0  0  0  0  0  0  0  0  0
  161.1970  211.9200  150.1100 C   0  0  0  0  0  0  0  0  0  0  0  0
  159.7140  212.6960  152.3540 C   0  0  0  0  0  3  0  0  0  0  0  0
  160.6630  214.1070  148.9700 C   0  0  0  0  0  2  0  0  0  0  0  0
  160.9580  209.2130  153.4580 C   0  0  1  0  0  3  0  0  0  0  0  0
  161.8070  209.7320  151.2010 C   0  0  0  0  0  2  0  0  0  0  0  0
  159.8090  213.5490  151.2550 C   0  0  0  0  0  3  0  0  0  0  0  0
  161.0110  206.8430  154.2370 C   0  0  0  0  0  2  0  0  0  0  0  0
  160.1930  210.5420  153.5530 C   0  0  2  0  0  3  0  0  0  0  0  0
  160.2960  208.1770  154.3630 C   0  0  0  0  0  2  0  0  0  0  0  0
  160.3480  213.8830  146.6470 O   0  0  0  0  0  0  0  0  0  0  0  0
  161.3160  211.9580  147.6050 C   0  0  0  0  0  2  0  0  0  0  0  0
  160.3690  211.4560  152.3580 C   0  0  0  0  0  0  0  0  0  0  0  0
  161.0010  206.4200  152.7750 C   0  0  0  0  0  2  0  0  0  0  0  0
  161.0370  208.6920  152.0120 C   0  0  1  0  0  3  0  0  0  0  0  0
  161.6420  206.8850  150.5930 C   0  0  0  0  0  2  0  0  0  0  0  0
  161.3860  205.4180  150.6110 C   0  0  0  0  0  0  0  0  0  0  0  0
  160.9420  202.6550  150.6160 C   0  0  0  0  0  0  0  0  0  0  0  0
  161.9220  204.6240  151.6320 C   0  0  0  0  0  3  0  0  0  0  0  0
  160.6330  204.8270  149.5900 C   0  0  0  0  0  3  0  0  0  0  0  0
  160.4100  203.4470  149.5930 C   0  0  0  0  0  3  0  0  0  0  0  0
  160.7240  201.3180  150.6200 F   0  0  0  0  0  0  0  0  0  0  0  0
  161.6980  203.2440  151.6340 C   0  0  0  0  0  3  0  0  0  0  0  0
  1 20  1  0  0  0  0
  1 19  1  0  0  0  0
  2  7  1  0  0  0  0
  4 12  1  0  0  0  0
  5 18  2  0  0  0  0
  6  9  1  0  0  0  0
  7  4  2  0  0  0  0
  7  5  1  0  0  0  0
  8 18  1  0  0  0  0
  9  4  1  0  0  0  0
 10 14  1  0  0  0  0
 10 15  1  1  0  0  0
 11  5  1  0  0  0  0
 12  8  2  0  0  0  0
 13 15  1  0  0  0  0
 14  3  1  1  0  0  0
 16  6  2  0  0  0  0
 17  6  1  0  0  0  0
 17  2  1  0  0  0  0
 18 14  1  0  0  0  0
 19 13  1  0  0  0  0
 20 11  1  6  0  0  0
 20 10  1  0  0  0  0
 21 22  1  0  0  0  0
 21  1  1  0  0  0  0
 22 24  1  0  0  0  0
 23 27  1  0  0  0  0
 23 28  1  0  0  0  0
 24 28  2  0  0  0  0
 25 26  1  0  0  0  0
 25 22  2  0  0  0  0
 26 23  2  0  0  0  0
M  END
>  <MODEL>
7

>  <REMARK>
 VINA RESULT:      -7.1      3.537      7.400
  Name = 
  2 active torsions:
  status: ('A' for Active; 'I' for Inactive)
    1  A    between atoms: N_1  and  C_2
    2  A    between atoms: C_2  and  C_3
                            x       y       z     vdW  Elec       q    Type
                         _______ _______ _______ _____ _____    ______ ____

>  <TORSDO>
F 2

$$$$
=
 OpenBabel11052422573D

 28 32  0  0  1  0  0  0  0  0999 V2000
  161.9390  207.9140  149.1030 N   0  0  0  0  0  0  0  0  0  0  0  0
  160.8560  203.0310  147.7800 C   0  0  0  0  0  2  0  0  0  0  0  0
  160.1660  205.7680  153.1980 C   0  0  0  0  0  1  0  0  0  0  0  0
  160.9350  201.8940  150.0110 C   0  0  0  0  0  0  0  0  0  0  0  0
  161.0640  204.3260  149.9540 C   0  0  0  0  0  0  0  0  0  0  0  0
  161.5240  200.6050  147.9790 C   0  0  0  0  0  0  0  0  0  0  0  0
  160.9670  203.0950  149.2800 C   0  0  0  0  0  0  0  0  0  0  0  0
  161.0850  203.1410  152.0760 C   0  0  0  0  0  3  0  0  0  0  0  0
  160.8090  200.5770  149.3030 C   0  0  0  0  0  2  0  0  0  0  0  0
  161.2500  206.9120  151.2670 C   0  0  1  0  0  3  0  0  0  0  0  0
  161.0780  205.6100  149.1780 C   0  0  0  0  0  2  0  0  0  0  0  0
  160.9940  201.9230  151.4040 C   0  0  0  0  0  3  0  0  0  0  0  0
  162.0080  209.2850  151.1350 C   0  0  0  0  0  2  0  0  0  0  0  0
  161.2520  205.6460  152.1390 C   0  0  2  0  0  3  0  0  0  0  0  0
  161.9570  208.0430  152.0080 C   0  0  0  0  0  2  0  0  0  0  0  0
  161.9560  199.5650  147.5120 O   0  0  0  0  0  0  0  0  0  0  0  0
  161.6980  201.8880  147.2060 C   0  0  0  0  0  2  0  0  0  0  0  0
  161.1000  204.3510  151.3670 C   0  0  0  0  0  0  0  0  0  0  0  0
  162.7010  208.9330  149.8270 C   0  0  0  0  0  2  0  0  0  0  0  0
  161.9080  206.6720  149.8970 C   0  0  1  0  0  3  0  0  0  0  0  0
  162.7000  207.6600  147.8860 C   0  0  0  0  0  2  0  0  0  0  0  0
  161.9100  206.7990  146.9620 C   0  0  0  0  0  0  0  0  0  0  0  0
  160.4290  205.2160  145.1920 C   0  0  0  0  0  0  0  0  0  0  0  0
  162.5500  205.8160  146.1990 C   0  0  0  0  0  3  0  0  0  0  0  0
  160.5300  206.9950  146.8330 C   0  0  0  0  0  3  0  0  0  0  0  0
  159.7900  206.2030  145.9500 C   0  0  0  0  0  3  0  0  0  0  0  0
  159.7110  204.4490  144.3380 F   0  0  0  0  0  0  0  0  0  0  0  0
  161.8080  205.0240  145.3160 C   0  0  0  0  0  3  0  0  0  0  0  0
  1 19  1  0  0  0  0
  1 20  1  0  0  0  0
  2  7  1  0  0  0  0
  4 12  1  0  0  0  0
  5 18  2  0  0  0  0
  6  9  1  0  0  0  0
  7  5  1  0  0  0  0
  7  4  2  0  0  0  0
  9  4  1  0  0  0  0
 10 15  1  1  0  0  0
 10 14  1  0  0  0  0
 11  5  1  0  0  0  0
 12  8  2  0  0  0  0
 13 15  1  0  0  0  0
 14  3  1  1  0  0  0
 16  6  2  0  0  0  0
 17  2  1  0  0  0  0
 17  6  1  0  0  0  0
 18  8  1  0  0  0  0
 18 14  1  0  0  0  0
 19 13  1  0  0  0  0
 20 11  1  6  0  0  0
 20 10  1  0  0  0  0
 21  1  1  0  0  0  0
 22 21  1  0  0  0  0
 23 28  2  0  0  0  0
 23 26  1  0  0  0  0
 24 22  2  0  0  0  0
 25 22  1  0  0  0  0
 26 25  2  0  0  0  0
 27 23  1  0  0  0  0
 28 24  1  0  0  0  0
M  END
>  <MODEL>
8

>  <REMARK>
 VINA RESULT:      -6.5      3.075      4.530
  Name = 
  2 active torsions:
  status: ('A' for Active; 'I' for Inactive)
    1  A    between atoms: N_1  and  C_2
    2  A    between atoms: C_2  and  C_3
                            x       y       z     vdW  Elec       q    Type
                         _______ _______ _______ _____ _____    ______ ____

>  <TORSDO>
F 2

$$$$
=
 OpenBabel11052422573D

 28 32  0  0  1  0  0  0  0  0999 V2000
  160.0570  209.4530  155.8970 N   0  0  0  0  0  0  0  0  0  0  0  0
  160.6450  210.8710  150.9560 C   0  0  0  0  0  2  0  0  0  0  0  0
  160.9500  205.2770  153.3930 C   0  0  0  0  0  1  0  0  0  0  0  0
  161.9930  208.9590  150.0590 C   0  0  0  0  0  0  0  0  0  0  0  0
  161.0930  208.7740  152.3150 C   0  0  0  0  0  0  0  0  0  0  0  0
  162.2620  211.2040  149.0460 C   0  0  0  0  0  0  0  0  0  0  0  0
  161.2640  209.5090  151.1280 C   0  0  0  0  0  0  0  0  0  0  0  0
  162.3720  206.9480  151.3470 C   0  0  0  0  0  3  0  0  0  0  0  0
  162.1620  209.7260  148.7810 C   0  0  0  0  0  2  0  0  0  0  0  0
  160.6820  207.3180  154.7970 C   0  0  1  0  0  3  0  0  0  0  0  0
  160.2980  209.3500  153.4500 C   0  0  0  0  0  2  0  0  0  0  0  0
  162.5440  207.6820  150.1730 C   0  0  0  0  0  3  0  0  0  0  0  0
  160.3050  207.4310  157.2610 C   0  0  0  0  0  2  0  0  0  0  0  0
  161.5190  206.6570  153.6900 C   0  0  2  0  0  3  0  0  0  0  0  0
  161.0870  206.7460  156.1530 C   0  0  0  0  0  2  0  0  0  0  0  0
  162.8740  211.9110  148.2640 O   0  0  0  0  0  0  0  0  0  0  0  0
  161.6030  211.8330  150.2480 C   0  0  0  0  0  2  0  0  0  0  0  0
  161.6330  207.4710  152.4180 C   0  0  0  0  0  0  0  0  0  0  0  0
  160.5460  208.9310  157.1730 C   0  0  0  0  0  2  0  0  0  0  0  0
  160.8260  208.8500  154.7940 C   0  0  1  0  0  3  0  0  0  0  0  0
  160.3490  210.8810  155.9310 C   0  0  0  0  0  2  0  0  0  0  0  0
  159.1890  211.6510  155.4000 C   0  0  0  0  0  0  0  0  0  0  0  0
  157.0120  213.0700  154.3620 C   0  0  0  0  0  0  0  0  0  0  0  0
  157.8830  211.2360  155.6840 C   0  0  0  0  0  3  0  0  0  0  0  0
  159.4050  212.7720  154.5900 C   0  0  0  0  0  3  0  0  0  0  0  0
  158.3180  213.4820  154.0730 C   0  0  0  0  0  3  0  0  0  0  0  0
  155.9590  213.7600  153.8620 F   0  0  0  0  0  0  0  0  0  0  0  0
  156.7960  211.9470  155.1670 C   0  0  0  0  0  3  0  0  0  0  0  0
  1 21  1  0  0  0  0
  1 19  1  0  0  0  0
  2  7  1  0  0  0  0
  4 12  2  0  0  0  0
  4  7  1  0  0  0  0
  5 18  1  0  0  0  0
  5 11  1  0  0  0  0
  6 17  1  0  0  0  0
  7  5  2  0  0  0  0
  8 18  2  0  0  0  0
  9  6  1  0  0  0  0
  9  4  1  0  0  0  0
 10 15  1  1  0  0  0
 12  8  1  0  0  0  0
 14  3  1  6  0  0  0
 14 10  1  0  0  0  0
 15 13  1  0  0  0  0
 16  6  2  0  0  0  0
 17  2  1  0  0  0  0
 18 14  1  0  0  0  0
 19 13  1  0  0  0  0
 20 11  1  6  0  0  0
 20 10  1  0  0  0  0
 20  1  1  0  0  0  0
 22 24  1  0  0  0  0
 22 21  1  0  0  0  0
 23 28  1  0  0  0  0
 25 22  2  0  0  0  0
 26 23  2  0  0  0  0
 26 25  1  0  0  0  0
 27 23  1  0  0  0  0
 28 24  2  0  0  0  0
M  END
>  <MODEL>
9

>  <REMARK>
 VINA RESULT:      -6.3      3.443      5.446
  Name = 
  2 active torsions:
  status: ('A' for Active; 'I' for Inactive)
    1  A    between atoms: N_1  and  C_2
    2  A    between atoms: C_2  and  C_3
                            x       y       z     vdW  Elec       q    Type
                         _______ _______ _______ _____ _____    ______ ____

>  <TORSDO>
F 2

$$$$
