=
 OpenBabel11052422513D

 28 29  0  0  1  0  0  0  0  0999 V2000
  161.5040  207.7590  150.9800 C   0  0  1  0  0  3  0  0  0  0  0  0
  162.6940  206.8620  151.2900 C   0  0  0  0  0  2  0  0  0  0  0  0
  162.3510  205.9330  152.2740 O   0  0  0  0  0  1  0  0  0  0  0  0
  162.5470  209.8440  151.3900 O   0  0  0  0  0  0  0  0  0  0  0  0
  161.6280  209.0890  151.6700 C   0  0  0  0  0  0  0  0  0  0  0  0
  160.6120  209.5240  152.6890 C   0  0  1  0  0  3  0  0  0  0  0  0
  161.1670  209.4620  154.0850 C   0  0  0  0  0  0  0  0  0  0  0  0
  162.2540  209.3090  156.6680 C   0  0  0  0  0  3  0  0  0  0  0  0
  161.8740  210.5490  154.6250 C   0  0  0  0  0  3  0  0  0  0  0  0
  160.3310  207.1960  154.3370 O   0  0  0  0  0  1  0  0  0  0  0  0
  161.0150  208.2910  154.8490 C   0  0  0  0  0  0  0  0  0  0  0  0
  161.5570  208.2210  156.1360 C   0  0  0  0  0  3  0  0  0  0  0  0
  162.4130  210.4730  155.9120 C   0  0  0  0  0  3  0  0  0  0  0  0
  160.0180  210.8910  152.3690 C   0  0  0  0  0  2  0  0  0  0  0  0
  158.7450  211.0010  152.9280 O   0  0  0  0  0  1  0  0  0  0  0  0
  161.3720  207.9640  149.4810 C   0  0  0  0  0  2  0  0  0  0  0  0
  162.1400  206.9470  148.7690 N   0  0  0  0  0  2  0  0  0  0  0  0
  160.6560  206.7260  146.9530 O   0  0  0  0  0  1  0  0  0  0  0  0
  161.2420  206.0580  148.0320 C   0  0  1  0  0  3  0  0  0  0  0  0
  161.9620  204.7970  147.5670 C   0  0  0  0  0  2  0  0  0  0  0  0
  161.1020  202.6250  147.6290 C   0  0  0  0  0  2  0  0  0  0  0  0
  160.5760  204.1370  149.3190 C   0  0  0  0  0  2  0  0  0  0  0  0
  160.5340  201.1400  149.6280 C   0  0  1  0  0  3  0  0  0  0  0  0
  161.6580  203.6880  148.4560 N   0  0  0  0  0  0  0  0  0  0  0  0
  161.1350  202.0340  150.7170 C   0  0  0  0  0  2  0  0  0  0  0  0
  160.6590  203.4930  150.7030 C   0  0  0  0  0  2  0  0  0  0  0  0
  159.1630  201.3590  149.4690 O   0  0  0  0  0  1  0  0  0  0  0  0
  161.2830  201.2660  148.3000 C   0  0  0  0  0  2  0  0  0  0  0  0
  1 16  1  6  0  0  0
  1  2  1  0  0  0  0
  1  5  1  0  0  0  0
  2  3  1  0  0  0  0
  4  5  2  0  0  0  0
  5  6  1  0  0  0  0
  6 14  1  6  0  0  0
  6  7  1  0  0  0  0
  7  9  2  0  0  0  0
  7 11  1  0  0  0  0
  9 13  1  0  0  0  0
 10 11  1  0  0  0  0
 11 12  2  0  0  0  0
 12  8  1  0  0  0  0
 13  8  2  0  0  0  0
 14 15  1  0  0  0  0
 17 16  1  0  0  0  0
 19 18  1  6  0  0  0
 19 17  1  0  0  0  0
 20 19  1  0  0  0  0
 20 24  1  0  0  0  0
 21 28  1  0  0  0  0
 21 24  1  0  0  0  0
 22 26  1  0  0  0  0
 23 27  1  6  0  0  0
 23 25  1  0  0  0  0
 24 22  1  0  0  0  0
 26 25  1  0  0  0  0
 28 23  1  0  0  0  0
M  END
>  <MODEL>
1

>  <REMARK>
 VINA RESULT:      -7.1      0.000      0.000
  Name = 
  10 active torsions:
  status: ('A' for Active; 'I' for Inactive)
    1  A    between atoms: C_1  and  C_2
    2  A    between atoms: C_1  and  C_3
    3  A    between atoms: C_1  and  C_27
    4  A    between atoms: C_5  and  N_20
    5  A    between atoms: C_5  and  C_21
    6  A    between atoms: C_10  and  N_13
    7  A    between atoms: C_10  and  C_25
    8  A    between atoms: C_16  and  C_21
    9  A    between atoms: N_20  and  C_25
   10  A    between atoms: C_21  and  C_27
                            x       y       z     vdW  Elec       q    Type
                         _______ _______ _______ _____ _____    ______ ____

>  <TORSDO>
F 10

$$$$
=
 OpenBabel11052422513D

 28 29  0  0  1  0  0  0  0  0999 V2000
  161.0090  207.2230  152.2230 C   0  0  1  0  0  3  0  0  0  0  0  0
  161.4760  208.6700  152.3100 C   0  0  0  0  0  2  0  0  0  0  0  0
  162.4140  208.9310  151.3110 O   0  0  0  0  0  1  0  0  0  0  0  0
  163.0280  206.0260  151.9180 O   0  0  0  0  0  0  0  0  0  0  0  0
  161.9700  206.3860  151.4250 C   0  0  0  0  0  0  0  0  0  0  0  0
  161.6330  205.9540  150.0250 C   0  0  1  0  0  3  0  0  0  0  0  0
  161.2800  204.4940  149.9660 C   0  0  0  0  0  0  0  0  0  0  0  0
  160.6850  201.7540  149.8490 C   0  0  0  0  0  3  0  0  0  0  0  0
  161.0200  203.7710  151.1420 C   0  0  0  0  0  3  0  0  0  0  0  0
  161.5100  204.5160  147.5490 O   0  0  0  0  0  1  0  0  0  0  0  0
  161.2460  203.8290  148.7280 C   0  0  0  0  0  0  0  0  0  0  0  0
  160.9470  202.4640  148.6750 C   0  0  0  0  0  3  0  0  0  0  0  0
  160.7220  202.4070  151.0830 C   0  0  0  0  0  3  0  0  0  0  0  0
  160.5580  206.8300  149.3910 C   0  0  0  0  0  2  0  0  0  0  0  0
  161.1430  207.7490  148.5210 O   0  0  0  0  0  1  0  0  0  0  0  0
  160.8440  206.6360  153.6140 C   0  0  0  0  0  2  0  0  0  0  0  0
  161.2800  207.6020  154.6180 N   0  0  0  0  0  2  0  0  0  0  0  0
  160.2090  206.8650  156.5830 O   0  0  0  0  0  1  0  0  0  0  0  0
  160.2100  207.8450  155.5860 C   0  0  1  0  0  3  0  0  0  0  0  0
  160.3120  209.2400  156.1930 C   0  0  0  0  0  2  0  0  0  0  0  0
  160.6550  211.1850  154.9440 C   0  0  0  0  0  2  0  0  0  0  0  0
  158.7020  210.9240  156.1830 C   0  0  0  0  0  2  0  0  0  0  0  0
  158.9680  212.6950  153.7600 C   0  0  1  0  0  3  0  0  0  0  0  0
  159.6470  210.2100  155.3390 N   0  0  0  0  0  0  0  0  0  0  0  0
  157.7360  211.8050  153.9520 C   0  0  0  0  0  2  0  0  0  0  0  0
  157.4660  211.3620  155.3970 C   0  0  0  0  0  2  0  0  0  0  0  0
  159.0660  213.6730  154.7540 O   0  0  0  0  0  1  0  0  0  0  0  0
  160.2560  211.8790  153.6440 C   0  0  0  0  0  2  0  0  0  0  0  0
  1  2  1  1  0  0  0
  1 16  1  0  0  0  0
  3  2  1  0  0  0  0
  5  4  2  0  0  0  0
  5  1  1  0  0  0  0
  6 14  1  1  0  0  0
  6  5  1  0  0  0  0
  7  6  1  0  0  0  0
  7  9  1  0  0  0  0
  8 13  1  0  0  0  0
 10 11  1  0  0  0  0
 11  7  2  0  0  0  0
 12 11  1  0  0  0  0
 12  8  2  0  0  0  0
 13  9  2  0  0  0  0
 15 14  1  0  0  0  0
 16 17  1  0  0  0  0
 17 19  1  0  0  0  0
 19 20  1  0  0  0  0
 19 18  1  1  0  0  0
 21 24  1  0  0  0  0
 23 25  1  0  0  0  0
 23 27  1  1  0  0  0
 24 22  1  0  0  0  0
 24 20  1  0  0  0  0
 25 26  1  0  0  0  0
 26 22  1  0  0  0  0
 28 23  1  0  0  0  0
 28 21  1  0  0  0  0
M  END
>  <MODEL>
2

>  <REMARK>
 VINA RESULT:      -6.7      2.618      8.305
  Name = 
  10 active torsions:
  status: ('A' for Active; 'I' for Inactive)
    1  A    between atoms: C_1  and  C_2
    2  A    between atoms: C_1  and  C_3
    3  A    between atoms: C_1  and  C_27
    4  A    between atoms: C_5  and  N_20
    5  A    between atoms: C_5  and  C_21
    6  A    between atoms: C_10  and  N_13
    7  A    between atoms: C_10  and  C_25
    8  A    between atoms: C_16  and  C_21
    9  A    between atoms: N_20  and  C_25
   10  A    between atoms: C_21  and  C_27
                            x       y       z     vdW  Elec       q    Type
                         _______ _______ _______ _____ _____    ______ ____

>  <TORSDO>
F 10

$$$$
=
 OpenBabel11052422513D

 28 29  0  0  1  0  0  0  0  0999 V2000
  161.6590  204.7950  151.0780 C   0  0  1  0  0  3  0  0  0  0  0  0
  160.8220  203.6840  151.6960 C   0  0  0  0  0  2  0  0  0  0  0  0
  161.5510  202.4950  151.7260 O   0  0  0  0  0  1  0  0  0  0  0  0
  159.9170  205.7660  149.8030 O   0  0  0  0  0  0  0  0  0  0  0  0
  161.0450  205.2960  149.8000 C   0  0  0  0  0  0  0  0  0  0  0  0
  161.8160  205.2560  148.5100 C   0  0  1  0  0  3  0  0  0  0  0  0
  161.4470  204.0560  147.6830 C   0  0  0  0  0  0  0  0  0  0  0  0
  160.8230  201.8040  146.1290 C   0  0  0  0  0  3  0  0  0  0  0  0
  161.0810  202.8460  148.2970 C   0  0  0  0  0  3  0  0  0  0  0  0
  161.8750  205.3050  145.6450 O   0  0  0  0  0  1  0  0  0  0  0  0
  161.5050  204.1250  146.2800 C   0  0  0  0  0  0  0  0  0  0  0  0
  161.1910  203.0020  145.5100 C   0  0  0  0  0  3  0  0  0  0  0  0
  160.7690  201.7260  147.5220 C   0  0  0  0  0  3  0  0  0  0  0  0
  161.6950  206.5550  147.7220 C   0  0  0  0  0  2  0  0  0  0  0  0
  162.7310  207.4210  148.0680 O   0  0  0  0  0  1  0  0  0  0  0  0
  161.8200  205.9440  152.0590 C   0  0  0  0  0  2  0  0  0  0  0  0
  162.6040  207.0140  151.4500 N   0  0  0  0  0  2  0  0  0  0  0  0
  161.5410  208.9120  150.5450 O   0  0  0  0  0  1  0  0  0  0  0  0
  161.9890  208.3130  151.7260 C   0  0  1  0  0  3  0  0  0  0  0  0
  160.8540  208.1890  152.7380 C   0  0  0  0  0  2  0  0  0  0  0  0
  160.8170  207.9920  155.0670 C   0  0  0  0  0  2  0  0  0  0  0  0
  160.3400  210.0360  154.0610 C   0  0  0  0  0  2  0  0  0  0  0  0
  161.3820  209.7110  156.8700 C   0  0  1  0  0  3  0  0  0  0  0  0
  161.2070  208.8710  153.9720 N   0  0  0  0  0  0  0  0  0  0  0  0
  161.9440  210.7930  155.9430 C   0  0  0  0  0  2  0  0  0  0  0  0
  161.0310  211.1970  154.7770 C   0  0  0  0  0  2  0  0  0  0  0  0
  160.0330  209.9240  157.1640 O   0  0  0  0  0  1  0  0  0  0  0  0
  161.6250  208.3030  156.3240 C   0  0  0  0  0  2  0  0  0  0  0  0
  1  2  1  1  0  0  0
  1 16  1  0  0  0  0
  2  3  1  0  0  0  0
  5  4  2  0  0  0  0
  5  1  1  0  0  0  0
  6 14  1  6  0  0  0
  6  5  1  0  0  0  0
  7  9  1  0  0  0  0
  7  6  1  0  0  0  0
  8 13  1  0  0  0  0
 10 11  1  0  0  0  0
 11  7  2  0  0  0  0
 12  8  2  0  0  0  0
 12 11  1  0  0  0  0
 13  9  2  0  0  0  0
 14 15  1  0  0  0  0
 17 19  1  0  0  0  0
 17 16  1  0  0  0  0
 19 18  1  6  0  0  0
 19 20  1  0  0  0  0
 20 24  1  0  0  0  0
 21 28  1  0  0  0  0
 22 26  1  0  0  0  0
 23 27  1  6  0  0  0
 24 22  1  0  0  0  0
 24 21  1  0  0  0  0
 25 23  1  0  0  0  0
 26 25  1  0  0  0  0
 28 23  1  0  0  0  0
M  END
>  <MODEL>
3

>  <REMARK>
 VINA RESULT:      -6.7      2.126      8.159
  Name = 
  10 active torsions:
  status: ('A' for Active; 'I' for Inactive)
    1  A    between atoms: C_1  and  C_2
    2  A    between atoms: C_1  and  C_3
    3  A    between atoms: C_1  and  C_27
    4  A    between atoms: C_5  and  N_20
    5  A    between atoms: C_5  and  C_21
    6  A    between atoms: C_10  and  N_13
    7  A    between atoms: C_10  and  C_25
    8  A    between atoms: C_16  and  C_21
    9  A    between atoms: N_20  and  C_25
   10  A    between atoms: C_21  and  C_27
                            x       y       z     vdW  Elec       q    Type
                         _______ _______ _______ _____ _____    ______ ____

>  <TORSDO>
F 10

$$$$
=
 OpenBabel11052422513D

 28 29  0  0  1  0  0  0  0  0999 V2000
  161.5480  207.2950  153.1980 C   0  0  1  0  0  3  0  0  0  0  0  0
  160.8400  207.8730  151.9810 C   0  0  0  0  0  2  0  0  0  0  0  0
  161.7730  208.4150  151.0960 O   0  0  0  0  0  1  0  0  0  0  0  0
  160.1310  207.0980  155.0840 O   0  0  0  0  0  0  0  0  0  0  0  0
  160.9310  207.7930  154.4760 C   0  0  0  0  0  0  0  0  0  0  0  0
  161.3100  209.1340  155.0400 C   0  0  1  0  0  3  0  0  0  0  0  0
  160.1790  210.1180  154.9320 C   0  0  0  0  0  0  0  0  0  0  0  0
  158.0410  211.9190  154.6820 C   0  0  0  0  0  3  0  0  0  0  0  0
  159.1210  210.1000  155.8560 C   0  0  0  0  0  3  0  0  0  0  0  0
  161.1800  211.0780  152.9380 O   0  0  0  0  0  1  0  0  0  0  0  0
  160.1530  211.0440  153.8740 C   0  0  0  0  0  0  0  0  0  0  0  0
  159.0870  211.9410  153.7560 C   0  0  0  0  0  3  0  0  0  0  0  0
  158.0580  210.9990  155.7320 C   0  0  0  0  0  3  0  0  0  0  0  0
  161.8490  209.0330  156.4630 C   0  0  0  0  0  2  0  0  0  0  0  0
  162.7810  210.0430  156.6920 O   0  0  0  0  0  1  0  0  0  0  0  0
  161.5090  205.7770  153.1630 C   0  0  0  0  0  2  0  0  0  0  0  0
  162.2280  205.2870  151.9900 N   0  0  0  0  0  2  0  0  0  0  0  0
  160.9170  203.3700  152.3870 O   0  0  0  0  0  1  0  0  0  0  0  0
  161.5170  204.1540  151.3970 C   0  0  1  0  0  3  0  0  0  0  0  0
  160.4890  204.6160  150.3700 C   0  0  0  0  0  2  0  0  0  0  0  0
  160.4810  206.1890  148.6410 C   0  0  0  0  0  2  0  0  0  0  0  0
  160.8530  203.9390  148.1700 C   0  0  0  0  0  2  0  0  0  0  0  0
  161.7940  206.2270  146.4500 C   0  0  1  0  0  3  0  0  0  0  0  0
  161.1510  204.9910  149.1310 N   0  0  0  0  0  0  0  0  0  0  0  0
  162.7130  205.0380  146.7480 C   0  0  0  0  0  2  0  0  0  0  0  0
  161.9980  203.7480  147.1750 C   0  0  0  0  0  2  0  0  0  0  0  0
  160.6720  205.8480  145.7090 O   0  0  0  0  0  1  0  0  0  0  0  0
  161.4020  206.9850  147.7200 C   0  0  0  0  0  2  0  0  0  0  0  0
  1  2  1  6  0  0  0
  1  5  1  0  0  0  0
  3  2  1  0  0  0  0
  5  6  1  0  0  0  0
  5  4  2  0  0  0  0
  6 14  1  1  0  0  0
  7  6  1  0  0  0  0
  7  9  1  0  0  0  0
  8 13  1  0  0  0  0
 10 11  1  0  0  0  0
 11  7  2  0  0  0  0
 12 11  1  0  0  0  0
 12  8  2  0  0  0  0
 13  9  2  0  0  0  0
 14 15  1  0  0  0  0
 16  1  1  0  0  0  0
 17 16  1  0  0  0  0
 19 17  1  0  0  0  0
 19 18  1  1  0  0  0
 20 19  1  0  0  0  0
 21 24  1  0  0  0  0
 22 24  1  0  0  0  0
 23 27  1  1  0  0  0
 23 25  1  0  0  0  0
 23 28  1  0  0  0  0
 24 20  1  0  0  0  0
 25 26  1  0  0  0  0
 26 22  1  0  0  0  0
 28 21  1  0  0  0  0
M  END
>  <MODEL>
4

>  <REMARK>
 VINA RESULT:      -6.6      2.081      4.192
  Name = 
  10 active torsions:
  status: ('A' for Active; 'I' for Inactive)
    1  A    between atoms: C_1  and  C_2
    2  A    between atoms: C_1  and  C_3
    3  A    between atoms: C_1  and  C_27
    4  A    between atoms: C_5  and  N_20
    5  A    between atoms: C_5  and  C_21
    6  A    between atoms: C_10  and  N_13
    7  A    between atoms: C_10  and  C_25
    8  A    between atoms: C_16  and  C_21
    9  A    between atoms: N_20  and  C_25
   10  A    between atoms: C_21  and  C_27
                            x       y       z     vdW  Elec       q    Type
                         _______ _______ _______ _____ _____    ______ ____

>  <TORSDO>
F 10

$$$$
=
 OpenBabel11052422513D

 28 29  0  0  1  0  0  0  0  0999 V2000
  161.4850  207.7580  149.4360 C   0  0  1  0  0  3  0  0  0  0  0  0
  162.1490  208.6890  148.4310 C   0  0  0  0  0  2  0  0  0  0  0  0
  161.9580  210.0180  148.8100 O   0  0  0  0  0  1  0  0  0  0  0  0
  159.8220  206.3360  148.5340 O   0  0  0  0  0  0  0  0  0  0  0  0
  161.0090  206.4930  148.7780 C   0  0  0  0  0  0  0  0  0  0  0  0
  161.9840  205.4190  148.3840 C   0  0  1  0  0  3  0  0  0  0  0  0
  161.4450  204.0470  148.6810 C   0  0  0  0  0  0  0  0  0  0  0  0
  160.3780  201.5130  149.2410 C   0  0  0  0  0  3  0  0  0  0  0  0
  161.1990  203.1330  147.6430 C   0  0  0  0  0  3  0  0  0  0  0  0
  161.3670  204.5700  151.0510 O   0  0  0  0  0  1  0  0  0  0  0  0
  161.1440  203.6820  150.0050 C   0  0  0  0  0  0  0  0  0  0  0  0
  160.6160  202.4180  150.2790 C   0  0  0  0  0  3  0  0  0  0  0  0
  160.6700  201.8700  147.9230 C   0  0  0  0  0  3  0  0  0  0  0  0
  162.4420  205.5540  146.9360 C   0  0  0  0  0  2  0  0  0  0  0  0
  161.4550  206.1880  146.1820 O   0  0  0  0  0  1  0  0  0  0  0  0
  162.4460  207.4250  150.5650 C   0  0  0  0  0  2  0  0  0  0  0  0
  162.2870  208.3840  151.6540 N   0  0  0  0  0  2  0  0  0  0  0  0
  160.7230  207.5150  153.1870 O   0  0  0  0  0  1  0  0  0  0  0  0
  160.8990  208.3980  152.1180 C   0  0  1  0  0  3  0  0  0  0  0  0
  160.4510  209.8070  152.4940 C   0  0  0  0  0  2  0  0  0  0  0  0
  159.3090  210.8310  154.2580 C   0  0  0  0  0  2  0  0  0  0  0  0
  161.6330  210.6960  154.2940 C   0  0  0  0  0  2  0  0  0  0  0  0
  159.8930  210.9530  156.7410 C   0  0  1  0  0  3  0  0  0  0  0  0
  160.4310  209.9570  153.9400 N   0  0  0  0  0  0  0  0  0  0  0  0
  161.0750  209.9790  156.7160 C   0  0  0  0  0  2  0  0  0  0  0  0
  162.1570  210.2880  155.6720 C   0  0  0  0  0  2  0  0  0  0  0  0
  160.3100  212.2830  156.6320 O   0  0  0  0  0  1  0  0  0  0  0  0
  158.8370  210.6060  155.6920 C   0  0  0  0  0  2  0  0  0  0  0  0
  1  2  1  6  0  0  0
  1 16  1  0  0  0  0
  2  3  1  0  0  0  0
  4  5  2  0  0  0  0
  5  1  1  0  0  0  0
  6 14  1  6  0  0  0
  6  7  1  0  0  0  0
  6  5  1  0  0  0  0
  7 11  1  0  0  0  0
  8 12  1  0  0  0  0
  9 13  1  0  0  0  0
  9  7  2  0  0  0  0
 11 12  2  0  0  0  0
 11 10  1  0  0  0  0
 13  8  2  0  0  0  0
 15 14  1  0  0  0  0
 16 17  1  0  0  0  0
 17 19  1  0  0  0  0
 19 20  1  0  0  0  0
 19 18  1  1  0  0  0
 20 24  1  0  0  0  0
 21 28  1  0  0  0  0
 22 26  1  0  0  0  0
 23 27  1  6  0  0  0
 24 21  1  0  0  0  0
 24 22  1  0  0  0  0
 25 23  1  0  0  0  0
 26 25  1  0  0  0  0
 28 23  1  0  0  0  0
M  END
>  <MODEL>
5

>  <REMARK>
 VINA RESULT:      -6.6      2.063      8.105
  Name = 
  10 active torsions:
  status: ('A' for Active; 'I' for Inactive)
    1  A    between atoms: C_1  and  C_2
    2  A    between atoms: C_1  and  C_3
    3  A    between atoms: C_1  and  C_27
    4  A    between atoms: C_5  and  N_20
    5  A    between atoms: C_5  and  C_21
    6  A    between atoms: C_10  and  N_13
    7  A    between atoms: C_10  and  C_25
    8  A    between atoms: C_16  and  C_21
    9  A    between atoms: N_20  and  C_25
   10  A    between atoms: C_21  and  C_27
                            x       y       z     vdW  Elec       q    Type
                         _______ _______ _______ _____ _____    ______ ____

>  <TORSDO>
F 10

$$$$
=
 OpenBabel11052422513D

 28 29  0  0  1  0  0  0  0  0999 V2000
  161.4390  207.6880  149.3950 C   0  0  1  0  0  3  0  0  0  0  0  0
  162.2450  208.5230  148.4100 C   0  0  0  0  0  2  0  0  0  0  0  0
  162.0230  209.8810  148.6390 O   0  0  0  0  0  1  0  0  0  0  0  0
  159.7680  206.2030  148.6180 O   0  0  0  0  0  0  0  0  0  0  0  0
  160.9640  206.4080  148.7660 C   0  0  0  0  0  0  0  0  0  0  0  0
  161.9460  205.3780  148.2830 C   0  0  1  0  0  3  0  0  0  0  0  0
  161.4580  203.9810  148.5470 C   0  0  0  0  0  0  0  0  0  0  0  0
  160.4840  201.3980  149.0490 C   0  0  0  0  0  3  0  0  0  0  0  0
  161.2070  203.0960  147.4850 C   0  0  0  0  0  3  0  0  0  0  0  0
  161.4370  204.4200  150.9350 O   0  0  0  0  0  1  0  0  0  0  0  0
  161.2090  203.5620  149.8660 C   0  0  0  0  0  0  0  0  0  0  0  0
  160.7260  202.2730  150.1110 C   0  0  0  0  0  3  0  0  0  0  0  0
  160.7240  201.8090  147.7370 C   0  0  0  0  0  3  0  0  0  0  0  0
  162.3310  205.5840  146.8220 C   0  0  0  0  0  2  0  0  0  0  0  0
  161.2750  206.1750  146.1300 O   0  0  0  0  0  1  0  0  0  0  0  0
  162.2680  207.3800  150.6310 C   0  0  0  0  0  2  0  0  0  0  0  0
  162.2430  208.5190  151.5440 N   0  0  0  0  0  2  0  0  0  0  0  0
  160.8320  207.1490  152.8420 O   0  0  0  0  0  1  0  0  0  0  0  0
  161.0570  208.4560  152.3990 C   0  0  1  0  0  3  0  0  0  0  0  0
  161.1660  209.4190  153.5770 C   0  0  0  0  0  2  0  0  0  0  0  0
  160.2550  211.4460  152.8520 C   0  0  0  0  0  2  0  0  0  0  0  0
  159.8810  210.7110  155.0290 C   0  0  0  0  0  2  0  0  0  0  0  0
  158.0810  212.6040  153.5280 C   0  0  1  0  0  3  0  0  0  0  0  0
  159.9810  210.2580  153.6500 N   0  0  0  0  0  0  0  0  0  0  0  0
  157.4980  211.4600  154.3620 C   0  0  0  0  0  2  0  0  0  0  0  0
  158.4250  210.9040  155.4520 C   0  0  0  0  0  2  0  0  0  0  0  0
  158.7600  213.5340  154.3190 O   0  0  0  0  0  1  0  0  0  0  0  0
  158.9560  212.0940  152.3810 C   0  0  0  0  0  2  0  0  0  0  0  0
  1  2  1  6  0  0  0
  1 16  1  0  0  0  0
  2  3  1  0  0  0  0
  4  5  2  0  0  0  0
  5  1  1  0  0  0  0
  6 14  1  6  0  0  0
  6  7  1  0  0  0  0
  6  5  1  0  0  0  0
  7 11  1  0  0  0  0
  8 12  1  0  0  0  0
  9 13  1  0  0  0  0
  9  7  2  0  0  0  0
 11 12  2  0  0  0  0
 11 10  1  0  0  0  0
 13  8  2  0  0  0  0
 15 14  1  0  0  0  0
 16 17  1  0  0  0  0
 17 19  1  0  0  0  0
 19 18  1  1  0  0  0
 19 20  1  0  0  0  0
 20 24  1  0  0  0  0
 21 24  1  0  0  0  0
 22 26  1  0  0  0  0
 23 27  1  1  0  0  0
 23 25  1  0  0  0  0
 24 22  1  0  0  0  0
 25 26  1  0  0  0  0
 28 21  1  0  0  0  0
 28 23  1  0  0  0  0
M  END
>  <MODEL>
6

>  <REMARK>
 VINA RESULT:      -6.4      2.137      8.215
  Name = 
  10 active torsions:
  status: ('A' for Active; 'I' for Inactive)
    1  A    between atoms: C_1  and  C_2
    2  A    between atoms: C_1  and  C_3
    3  A    between atoms: C_1  and  C_27
    4  A    between atoms: C_5  and  N_20
    5  A    between atoms: C_5  and  C_21
    6  A    between atoms: C_10  and  N_13
    7  A    between atoms: C_10  and  C_25
    8  A    between atoms: C_16  and  C_21
    9  A    between atoms: N_20  and  C_25
   10  A    between atoms: C_21  and  C_27
                            x       y       z     vdW  Elec       q    Type
                         _______ _______ _______ _____ _____    ______ ____

>  <TORSDO>
F 10

$$$$
=
 OpenBabel11052422513D

 28 29  0  0  1  0  0  0  0  0999 V2000
  161.1110  207.3650  152.5230 C   0  0  1  0  0  3  0  0  0  0  0  0
  161.8570  206.0410  152.6230 C   0  0  0  0  0  2  0  0  0  0  0  0
  160.9490  204.9840  152.6940 O   0  0  0  0  0  1  0  0  0  0  0  0
  160.3980  207.2550  154.7770 O   0  0  0  0  0  0  0  0  0  0  0  0
  160.8550  207.9520  153.8830 C   0  0  0  0  0  0  0  0  0  0  0  0
  161.1830  209.3900  154.1740 C   0  0  1  0  0  3  0  0  0  0  0  0
  159.9470  210.2460  154.1890 C   0  0  0  0  0  0  0  0  0  0  0  0
  157.6110  211.8010  154.1780 C   0  0  0  0  0  3  0  0  0  0  0  0
  159.0670  210.2170  155.2830 C   0  0  0  0  0  3  0  0  0  0  0  0
  160.4880  211.0990  151.9800 O   0  0  0  0  0  1  0  0  0  0  0  0
  159.6420  211.0580  153.0820 C   0  0  0  0  0  0  0  0  0  0  0  0
  158.4780  211.8330  153.0830 C   0  0  0  0  0  3  0  0  0  0  0  0
  157.9050  210.9930  155.2770 C   0  0  0  0  0  3  0  0  0  0  0  0
  162.0080  209.5510  155.4450 C   0  0  0  0  0  2  0  0  0  0  0  0
  162.7760  210.7110  155.3710 O   0  0  0  0  0  1  0  0  0  0  0  0
  161.8940  208.3510  151.6730 C   0  0  0  0  0  2  0  0  0  0  0  0
  162.4470  207.6720  150.5040 N   0  0  0  0  0  2  0  0  0  0  0  0
  162.3310  208.4160  148.2710 O   0  0  0  0  0  1  0  0  0  0  0  0
  161.5910  207.8960  149.3380 C   0  0  1  0  0  3  0  0  0  0  0  0
  160.8640  206.6200  148.9270 C   0  0  0  0  0  2  0  0  0  0  0  0
  160.0960  206.1820  146.7630 C   0  0  0  0  0  2  0  0  0  0  0  0
  161.7270  204.8230  147.7200 C   0  0  0  0  0  2  0  0  0  0  0  0
  161.3230  205.1850  144.7560 C   0  0  1  0  0  3  0  0  0  0  0  0
  161.2890  206.2060  147.6000 N   0  0  0  0  0  0  0  0  0  0  0  0
  162.7290  205.1830  145.3640 C   0  0  0  0  0  2  0  0  0  0  0  0
  162.8500  204.5020  146.7340 C   0  0  0  0  0  2  0  0  0  0  0  0
  160.6850  203.9510  144.9120 O   0  0  0  0  0  1  0  0  0  0  0  0
  160.4660  206.3340  145.2900 C   0  0  0  0  0  2  0  0  0  0  0  0
  1 16  1  6  0  0  0
  1  2  1  0  0  0  0
  1  5  1  0  0  0  0
  2  3  1  0  0  0  0
  5  6  1  0  0  0  0
  5  4  2  0  0  0  0
  6  7  1  0  0  0  0
  6 14  1  1  0  0  0
  7  9  1  0  0  0  0
  8 13  1  0  0  0  0
 10 11  1  0  0  0  0
 11 12  1  0  0  0  0
 11  7  2  0  0  0  0
 12  8  2  0  0  0  0
 13  9  2  0  0  0  0
 15 14  1  0  0  0  0
 17 16  1  0  0  0  0
 19 18  1  6  0  0  0
 19 17  1  0  0  0  0
 20 19  1  0  0  0  0
 21 24  1  0  0  0  0
 23 27  1  1  0  0  0
 23 28  1  0  0  0  0
 23 25  1  0  0  0  0
 24 22  1  0  0  0  0
 24 20  1  0  0  0  0
 25 26  1  0  0  0  0
 26 22  1  0  0  0  0
 28 21  1  0  0  0  0
M  END
>  <MODEL>
7

>  <REMARK>
 VINA RESULT:      -6.4      2.274      3.927
  Name = 
  10 active torsions:
  status: ('A' for Active; 'I' for Inactive)
    1  A    between atoms: C_1  and  C_2
    2  A    between atoms: C_1  and  C_3
    3  A    between atoms: C_1  and  C_27
    4  A    between atoms: C_5  and  N_20
    5  A    between atoms: C_5  and  C_21
    6  A    between atoms: C_10  and  N_13
    7  A    between atoms: C_10  and  C_25
    8  A    between atoms: C_16  and  C_21
    9  A    between atoms: N_20  and  C_25
   10  A    between atoms: C_21  and  C_27
                            x       y       z     vdW  Elec       q    Type
                         _______ _______ _______ _____ _____    ______ ____

>  <TORSDO>
F 10

$$$$
=
 OpenBabel11052422513D

 28 29  0  0  1  0  0  0  0  0999 V2000
  161.2060  207.4380  150.7320 C   0  0  1  0  0  3  0  0  0  0  0  0
  162.3310  208.4010  150.3790 C   0  0  0  0  0  2  0  0  0  0  0  0
  161.9560  209.2020  149.2990 O   0  0  0  0  0  1  0  0  0  0  0  0
  161.9720  205.2750  151.3100 O   0  0  0  0  0  0  0  0  0  0  0  0
  161.5840  206.0170  150.4200 C   0  0  0  0  0  0  0  0  0  0  0  0
  161.4630  205.4790  149.0220 C   0  0  1  0  0  3  0  0  0  0  0  0
  161.1760  204.0040  149.0200 C   0  0  0  0  0  0  0  0  0  0  0  0
  160.7040  201.2370  149.0250 C   0  0  0  0  0  3  0  0  0  0  0  0
  160.6750  203.3690  150.1690 C   0  0  0  0  0  3  0  0  0  0  0  0
  161.9510  203.8360  146.7250 O   0  0  0  0  0  1  0  0  0  0  0  0
  161.4450  203.2370  147.8720 C   0  0  0  0  0  0  0  0  0  0  0  0
  161.2060  201.8600  147.8790 C   0  0  0  0  0  3  0  0  0  0  0  0
  160.4390  201.9920  150.1700 C   0  0  0  0  0  3  0  0  0  0  0  0
  160.4560  206.2610  148.1850 C   0  0  0  0  0  2  0  0  0  0  0  0
  161.1080  206.9100  147.1380 O   0  0  0  0  0  1  0  0  0  0  0  0
  160.8430  207.5660  152.2020 C   0  0  0  0  0  2  0  0  0  0  0  0
  161.5810  208.6730  152.8030 N   0  0  0  0  0  2  0  0  0  0  0  0
  160.7410  208.4550  154.9940 O   0  0  0  0  0  1  0  0  0  0  0  0
  160.7910  209.2860  153.8710 C   0  0  1  0  0  3  0  0  0  0  0  0
  161.3260  210.6670  154.2390 C   0  0  0  0  0  2  0  0  0  0  0  0
  159.6170  211.7580  155.4020 C   0  0  0  0  0  2  0  0  0  0  0  0
  159.2910  211.1050  153.1920 C   0  0  0  0  0  2  0  0  0  0  0  0
  157.8070  213.3470  154.5520 C   0  0  1  0  0  3  0  0  0  0  0  0
  160.2760  211.6630  154.1060 N   0  0  0  0  0  0  0  0  0  0  0  0
  158.3380  213.5080  153.1250 C   0  0  0  0  0  2  0  0  0  0  0  0
  158.6040  212.1970  152.3720 C   0  0  0  0  0  2  0  0  0  0  0  0
  156.8240  212.3570  154.6350 O   0  0  0  0  0  1  0  0  0  0  0  0
  158.9310  213.1120  155.5620 C   0  0  0  0  0  2  0  0  0  0  0  0
  1  2  1  1  0  0  0
  1 16  1  0  0  0  0
  3  2  1  0  0  0  0
  5  1  1  0  0  0  0
  5  4  2  0  0  0  0
  6 14  1  1  0  0  0
  6  5  1  0  0  0  0
  7  6  1  0  0  0  0
  7  9  1  0  0  0  0
  8 13  1  0  0  0  0
  9 13  2  0  0  0  0
 10 11  1  0  0  0  0
 11 12  1  0  0  0  0
 11  7  2  0  0  0  0
 12  8  2  0  0  0  0
 15 14  1  0  0  0  0
 16 17  1  0  0  0  0
 17 19  1  0  0  0  0
 19 20  1  0  0  0  0
 19 18  1  1  0  0  0
 21 28  1  0  0  0  0
 22 24  1  0  0  0  0
 23 27  1  6  0  0  0
 23 28  1  0  0  0  0
 24 20  1  0  0  0  0
 24 21  1  0  0  0  0
 25 23  1  0  0  0  0
 26 25  1  0  0  0  0
 26 22  1  0  0  0  0
M  END
>  <MODEL>
8

>  <REMARK>
 VINA RESULT:      -6.3      2.447      8.634
  Name = 
  10 active torsions:
  status: ('A' for Active; 'I' for Inactive)
    1  A    between atoms: C_1  and  C_2
    2  A    between atoms: C_1  and  C_3
    3  A    between atoms: C_1  and  C_27
    4  A    between atoms: C_5  and  N_20
    5  A    between atoms: C_5  and  C_21
    6  A    between atoms: C_10  and  N_13
    7  A    between atoms: C_10  and  C_25
    8  A    between atoms: C_16  and  C_21
    9  A    between atoms: N_20  and  C_25
   10  A    between atoms: C_21  and  C_27
                            x       y       z     vdW  Elec       q    Type
                         _______ _______ _______ _____ _____    ______ ____

>  <TORSDO>
F 10

$$$$
=
 OpenBabel11052422513D

 28 29  0  0  1  0  0  0  0  0999 V2000
  161.5840  207.9650  149.1520 C   0  0  1  0  0  3  0  0  0  0  0  0
  161.9190  209.3320  148.5720 C   0  0  0  0  0  2  0  0  0  0  0  0
  162.0610  210.2670  149.5990 O   0  0  0  0  0  1  0  0  0  0  0  0
  163.5150  206.7200  148.5820 O   0  0  0  0  0  0  0  0  0  0  0  0
  162.3120  206.8690  148.4240 C   0  0  0  0  0  0  0  0  0  0  0  0
  161.5720  205.9250  147.5190 C   0  0  1  0  0  3  0  0  0  0  0  0
  161.2810  204.6180  148.2020 C   0  0  0  0  0  0  0  0  0  0  0  0
  160.8040  202.1660  149.4820 C   0  0  0  0  0  3  0  0  0  0  0  0
  160.9590  204.5790  149.5690 C   0  0  0  0  0  3  0  0  0  0  0  0
  161.6970  203.4200  146.1310 O   0  0  0  0  0  1  0  0  0  0  0  0
  161.3690  203.4140  147.4820 C   0  0  0  0  0  0  0  0  0  0  0  0
  161.1280  202.1950  148.1230 C   0  0  0  0  0  3  0  0  0  0  0  0
  160.7200  203.3580  150.2050 C   0  0  0  0  0  3  0  0  0  0  0  0
  160.3160  206.5540  146.9260 C   0  0  0  0  0  2  0  0  0  0  0  0
  160.3210  206.4130  145.5400 O   0  0  0  0  0  1  0  0  0  0  0  0
  161.9260  207.9190  150.6320 C   0  0  0  0  0  2  0  0  0  0  0  0
  160.8650  207.2390  151.3680 N   0  0  0  0  0  2  0  0  0  0  0  0
  161.5890  206.8610  153.5780 O   0  0  0  0  0  1  0  0  0  0  0  0
  160.8340  207.7030  152.7550 C   0  0  1  0  0  3  0  0  0  0  0  0
  161.3100  209.1480  152.8720 C   0  0  0  0  0  2  0  0  0  0  0  0
  159.8360  210.5150  154.0640 C   0  0  0  0  0  2  0  0  0  0  0  0
  162.1130  210.5560  154.5450 C   0  0  0  0  0  2  0  0  0  0  0  0
  159.9380  211.3210  156.4850 C   0  0  1  0  0  3  0  0  0  0  0  0
  161.0140  209.6680  154.1970 N   0  0  0  0  0  0  0  0  0  0  0  0
  161.1220  210.4580  156.9320 C   0  0  0  0  0  2  0  0  0  0  0  0
  162.3750  210.5590  156.0520 C   0  0  0  0  0  2  0  0  0  0  0  0
  160.3410  212.6020  156.0980 O   0  0  0  0  0  1  0  0  0  0  0  0
  159.1050  210.6390  155.3980 C   0  0  0  0  0  2  0  0  0  0  0  0
  1  2  1  6  0  0  0
  1 16  1  0  0  0  0
  2  3  1  0  0  0  0
  5  4  2  0  0  0  0
  5  1  1  0  0  0  0
  6 14  1  1  0  0  0
  6  7  1  0  0  0  0
  6  5  1  0  0  0  0
  7  9  1  0  0  0  0
  8 13  1  0  0  0  0
  9 13  2  0  0  0  0
 10 11  1  0  0  0  0
 11 12  1  0  0  0  0
 11  7  2  0  0  0  0
 12  8  2  0  0  0  0
 15 14  1  0  0  0  0
 16 17  1  0  0  0  0
 17 19  1  0  0  0  0
 19 20  1  0  0  0  0
 19 18  1  1  0  0  0
 20 24  1  0  0  0  0
 21 24  1  0  0  0  0
 21 28  1  0  0  0  0
 22 26  1  0  0  0  0
 23 27  1  6  0  0  0
 23 25  1  0  0  0  0
 24 22  1  0  0  0  0
 26 25  1  0  0  0  0
 28 23  1  0  0  0  0
M  END
>  <MODEL>
9

>  <REMARK>
 VINA RESULT:      -6.3      2.151      8.125
  Name = 
  10 active torsions:
  status: ('A' for Active; 'I' for Inactive)
    1  A    between atoms: C_1  and  C_2
    2  A    between atoms: C_1  and  C_3
    3  A    between atoms: C_1  and  C_27
    4  A    between atoms: C_5  and  N_20
    5  A    between atoms: C_5  and  C_21
    6  A    between atoms: C_10  and  N_13
    7  A    between atoms: C_10  and  C_25
    8  A    between atoms: C_16  and  C_21
    9  A    between atoms: N_20  and  C_25
   10  A    between atoms: C_21  and  C_27
                            x       y       z     vdW  Elec       q    Type
                         _______ _______ _______ _____ _____    ______ ____

>  <TORSDO>
F 10

$$$$
