=
 OpenBabel11062407543D

 34 39  0  0  1  0  0  0  0  0999 V2000
  160.8230  208.2550  154.5990 C   0  0  0  0  0  0  0  0  0  0  0  0
  161.6370  210.4830  153.7050 C   0  0  2  0  0  3  0  0  0  0  0  0
  161.4270  208.4010  152.2310 C   0  0  0  0  0  0  0  0  0  0  0  0
  161.9460  208.4550  149.8220 C   0  0  0  0  0  0  0  0  0  0  0  0
  160.7030  210.2660  155.9910 C   0  0  0  0  0  3  0  0  0  0  0  0
  161.1660  211.0480  155.0170 C   0  0  0  0  0  3  0  0  0  0  0  0
  161.8450  210.5590  150.8160 C   0  0  0  0  0  2  0  0  0  0  0  0
  161.2560  209.0290  153.4940 C   0  0  0  0  0  0  0  0  0  0  0  0
  162.1980  209.3470  148.6790 C   0  0  0  0  0  2  0  0  0  0  0  0
  160.5730  208.8160  155.7850 C   0  0  0  0  0  3  0  0  0  0  0  0
  161.2360  206.9950  152.1050 C   0  0  0  0  0  0  0  0  0  0  0  0
  160.6170  206.8860  154.4570 C   0  0  0  0  0  3  0  0  0  0  0  0
  163.0130  210.6090  153.6370 F   0  0  0  0  0  0  0  0  0  0  0  0
  161.7600  207.1780  149.7340 N   0  0  0  0  0  0  0  0  0  0  0  0
  161.4260  206.3870  150.8940 C   0  0  0  0  0  0  0  0  0  0  0  0
  162.1970  210.7380  149.3270 C   0  0  1  0  0  3  0  0  0  0  0  0
  161.8040  209.1280  151.0460 N   0  0  0  0  0  0  0  0  0  0  0  0
  160.8270  206.2660  153.2310 C   0  0  0  0  0  3  0  0  0  0  0  0
  160.8150  203.0060  149.2500 C   0  0  0  0  0  0  0  0  0  0  0  0
  160.9000  202.1550  150.3540 C   0  0  0  0  0  3  0  0  0  0  0  0
  161.2760  204.9230  150.6800 C   0  0  0  0  0  0  0  0  0  0  0  0
  161.1610  202.6820  151.6210 C   0  0  0  0  0  3  0  0  0  0  0  0
  160.9950  204.3830  149.4130 C   0  0  0  0  0  3  0  0  0  0  0  0
  161.3410  204.0580  151.7830 C   0  0  0  0  0  3  0  0  0  0  0  0
  160.5560  202.4980  148.0210 F   0  0  0  0  0  0  0  0  0  0  0  0
  161.1980  211.5740  148.6820 N   0  0  0  0  0  2  0  0  0  0  0  0
  161.8730  212.3100  147.6260 C   0  0  0  0  0  2  0  0  0  0  0  0
  162.7790  213.3440  144.9870 C   0  0  0  0  0  1  0  0  0  0  0  0
  160.9100  212.6080  146.5250 C   0  0  0  0  0  0  0  0  0  0  0  0
  161.3380  213.0840  145.2730 C   0  0  0  0  0  0  0  0  0  0  0  0
  159.0460  213.0860  144.5210 C   0  0  0  0  0  3  0  0  0  0  0  0
  158.6510  212.6180  145.7360 N   0  0  0  0  0  0  0  0  0  0  0  0
  159.5470  212.3740  146.7300 C   0  0  0  0  0  3  0  0  0  0  0  0
  160.3980  213.3260  144.2690 C   0  0  0  0  0  3  0  0  0  0  0  0
  1 10  2  0  0  0  0
  2 13  1  1  0  0  0
  2  6  1  0  0  0  0
  3  8  2  0  0  0  0
  4 17  1  0  0  0  0
  6  5  2  0  0  0  0
  7 17  1  0  0  0  0
  8  2  1  0  0  0  0
  8  1  1  0  0  0  0
  9 16  1  0  0  0  0
  9  4  1  0  0  0  0
 10  5  1  0  0  0  0
 11  3  1  0  0  0  0
 11 18  1  0  0  0  0
 12  1  1  0  0  0  0
 14  4  2  0  0  0  0
 14 15  1  0  0  0  0
 15 11  2  0  0  0  0
 16 26  1  6  0  0  0
 16  7  1  0  0  0  0
 17  3  1  0  0  0  0
 18 12  2  0  0  0  0
 19 23  2  0  0  0  0
 19 20  1  0  0  0  0
 20 22  2  0  0  0  0
 21 15  1  0  0  0  0
 21 24  2  0  0  0  0
 22 24  1  0  0  0  0
 23 21  1  0  0  0  0
 25 19  1  0  0  0  0
 27 26  1  0  0  0  0
 28 30  1  0  0  0  0
 29 33  1  0  0  0  0
 29 27  1  0  0  0  0
 30 29  2  0  0  0  0
 31 32  1  0  0  0  0
 32 33  2  0  0  0  0
 34 31  2  0  0  0  0
 34 30  1  0  0  0  0
M  END
>  <MODEL>
1

>  <REMARK>
 VINA RESULT:     -10.6      0.000      0.000
  Name = 
  4 active torsions:
  status: ('A' for Active; 'I' for Inactive)
    1  A    between atoms: C_3  and  C_13
    2  A    between atoms: C_3  and  N_17
    3  A    between atoms: C_12  and  C_28
    4  A    between atoms: N_17  and  C_29
                            x       y       z     vdW  Elec       q    Type
                         _______ _______ _______ _____ _____    ______ ____

>  <TORSDO>
F 4

$$$$
=
 OpenBabel11062407543D

 34 39  0  0  1  0  0  0  0  0999 V2000
  161.0450  207.6600  153.6320 C   0  0  0  0  0  0  0  0  0  0  0  0
  161.6990  210.0950  153.3670 C   0  0  2  0  0  3  0  0  0  0  0  0
  161.5360  208.4870  151.3820 C   0  0  0  0  0  0  0  0  0  0  0  0
  161.9470  209.2320  149.0680 C   0  0  0  0  0  0  0  0  0  0  0  0
  160.8780  209.2010  155.5280 C   0  0  0  0  0  3  0  0  0  0  0  0
  161.2560  210.2470  154.7960 C   0  0  0  0  0  3  0  0  0  0  0  0
  161.7780  210.9720  150.6070 C   0  0  0  0  0  2  0  0  0  0  0  0
  161.3880  208.7330  152.7730 C   0  0  0  0  0  0  0  0  0  0  0  0
  162.1020  210.4170  148.2100 C   0  0  0  0  0  2  0  0  0  0  0  0
  160.8160  207.8580  154.9330 C   0  0  0  0  0  3  0  0  0  0  0  0
  161.4150  207.1610  150.8780 C   0  0  0  0  0  0  0  0  0  0  0  0
  160.9050  206.3720  153.1240 C   0  0  0  0  0  3  0  0  0  0  0  0
  163.0620  210.3210  153.2990 F   0  0  0  0  0  0  0  0  0  0  0  0
  161.8260  208.0190  148.6360 N   0  0  0  0  0  0  0  0  0  0  0  0
  161.5850  206.9210  149.5410 C   0  0  0  0  0  0  0  0  0  0  0  0
  162.0550  211.5740  149.2160 C   0  0  1  0  0  3  0  0  0  0  0  0
  161.8230  209.5330  150.4340 N   0  0  0  0  0  0  0  0  0  0  0  0
  161.0940  206.1270  151.7690 C   0  0  0  0  0  3  0  0  0  0  0  0
  161.7240  204.0520  147.0390 C   0  0  0  0  0  0  0  0  0  0  0  0
  161.2310  203.0000  147.8150 C   0  0  0  0  0  3  0  0  0  0  0  0
  161.5030  205.5650  148.9350 C   0  0  0  0  0  0  0  0  0  0  0  0
  160.8630  203.2260  149.1430 C   0  0  0  0  0  3  0  0  0  0  0  0
  161.8520  205.3290  147.5940 C   0  0  0  0  0  3  0  0  0  0  0  0
  160.9930  204.5030  149.6970 C   0  0  0  0  0  3  0  0  0  0  0  0
  162.0740  203.8360  145.7490 F   0  0  0  0  0  0  0  0  0  0  0  0
  160.9860  212.4900  148.8540 N   0  0  0  0  0  2  0  0  0  0  0  0
  160.8010  212.3860  147.4160 C   0  0  0  0  0  2  0  0  0  0  0  0
  159.7680  212.2000  144.6320 C   0  0  0  0  0  1  0  0  0  0  0  0
  159.4420  212.8820  147.0470 C   0  0  0  0  0  0  0  0  0  0  0  0
  158.9480  212.7820  145.7330 C   0  0  0  0  0  0  0  0  0  0  0  0
  156.8810  213.7860  146.4660 C   0  0  0  0  0  3  0  0  0  0  0  0
  157.3730  213.8670  147.7320 N   0  0  0  0  0  0  0  0  0  0  0  0
  158.6230  213.4280  148.0390 C   0  0  0  0  0  3  0  0  0  0  0  0
  157.6610  213.2410  145.4450 C   0  0  0  0  0  3  0  0  0  0  0  0
  1 10  2  0  0  0  0
  2 13  1  1  0  0  0
  2  6  1  0  0  0  0
  3  8  2  0  0  0  0
  4 17  1  0  0  0  0
  6  5  2  0  0  0  0
  8  2  1  0  0  0  0
  8  1  1  0  0  0  0
  9  4  1  0  0  0  0
  9 16  1  0  0  0  0
 10  5  1  0  0  0  0
 11  3  1  0  0  0  0
 11 18  1  0  0  0  0
 12  1  1  0  0  0  0
 14  4  2  0  0  0  0
 14 15  1  0  0  0  0
 15 11  2  0  0  0  0
 16 26  1  6  0  0  0
 16  7  1  0  0  0  0
 17  7  1  0  0  0  0
 17  3  1  0  0  0  0
 18 12  2  0  0  0  0
 19 23  2  0  0  0  0
 19 20  1  0  0  0  0
 20 22  2  0  0  0  0
 21 15  1  0  0  0  0
 21 24  2  0  0  0  0
 22 24  1  0  0  0  0
 23 21  1  0  0  0  0
 25 19  1  0  0  0  0
 27 26  1  0  0  0  0
 28 30  1  0  0  0  0
 29 27  1  0  0  0  0
 29 33  1  0  0  0  0
 30 29  2  0  0  0  0
 31 32  1  0  0  0  0
 32 33  2  0  0  0  0
 34 30  1  0  0  0  0
 34 31  2  0  0  0  0
M  END
>  <MODEL>
2

>  <REMARK>
 VINA RESULT:     -10.2      1.385      1.829
  Name = 
  4 active torsions:
  status: ('A' for Active; 'I' for Inactive)
    1  A    between atoms: C_3  and  C_13
    2  A    between atoms: C_3  and  N_17
    3  A    between atoms: C_12  and  C_28
    4  A    between atoms: N_17  and  C_29
                            x       y       z     vdW  Elec       q    Type
                         _______ _______ _______ _____ _____    ______ ____

>  <TORSDO>
F 4

$$$$
=
 OpenBabel11062407543D

 34 39  0  0  1  0  0  0  0  0999 V2000
  161.0450  207.9670  154.1610 C   0  0  0  0  0  0  0  0  0  0  0  0
  161.8350  210.2400  153.3670 C   0  0  2  0  0  3  0  0  0  0  0  0
  161.5300  208.2560  151.7800 C   0  0  0  0  0  0  0  0  0  0  0  0
  161.9290  208.4560  149.3560 C   0  0  0  0  0  0  0  0  0  0  0  0
  161.0160  209.8870  155.6800 C   0  0  0  0  0  3  0  0  0  0  0  0
  161.4370  210.7250  154.7340 C   0  0  0  0  0  3  0  0  0  0  0  0
  161.9000  210.4950  150.4820 C   0  0  0  0  0  2  0  0  0  0  0  0
  161.4300  208.8050  153.0860 C   0  0  0  0  0  0  0  0  0  0  0  0
  162.1330  209.4170  148.2590 C   0  0  0  0  0  2  0  0  0  0  0  0
  160.8600  208.4550  155.3910 C   0  0  0  0  0  3  0  0  0  0  0  0
  161.3190  206.8620  151.5770 C   0  0  0  0  0  0  0  0  0  0  0  0
  160.8180  206.6110  153.9460 C   0  0  0  0  0  3  0  0  0  0  0  0
  163.2080  210.3600  153.2380 F   0  0  0  0  0  0  0  0  0  0  0  0
  161.7260  207.1890  149.1980 N   0  0  0  0  0  0  0  0  0  0  0  0
  161.4420  206.3290  150.3230 C   0  0  0  0  0  0  0  0  0  0  0  0
  162.1780  210.7640  148.9910 C   0  0  1  0  0  3  0  0  0  0  0  0
  161.8560  209.0530  150.6250 N   0  0  0  0  0  0  0  0  0  0  0  0
  160.9590  206.0670  152.6750 C   0  0  0  0  0  3  0  0  0  0  0  0
  161.0150  203.0350  148.4590 C   0  0  0  0  0  0  0  0  0  0  0  0
  160.8280  202.1510  149.5240 C   0  0  0  0  0  3  0  0  0  0  0  0
  161.2660  204.8830  150.0260 C   0  0  0  0  0  0  0  0  0  0  0  0
  160.8470  202.6270  150.8370 C   0  0  0  0  0  3  0  0  0  0  0  0
  161.2260  204.3940  148.7080 C   0  0  0  0  0  3  0  0  0  0  0  0
  161.0590  203.9860  151.0850 C   0  0  0  0  0  3  0  0  0  0  0  0
  160.9900  202.5760  147.1850 F   0  0  0  0  0  0  0  0  0  0  0  0
  161.1580  211.6460  148.4500 N   0  0  0  0  0  2  0  0  0  0  0  0
  161.1360  212.8370  149.2830 C   0  0  0  0  0  2  0  0  0  0  0  0
  159.6850  213.0120  151.8750 C   0  0  0  0  0  1  0  0  0  0  0  0
  159.7420  213.3650  149.3700 C   0  0  0  0  0  0  0  0  0  0  0  0
  159.0610  213.4610  150.5970 C   0  0  0  0  0  0  0  0  0  0  0  0
  157.1690  214.4090  149.4380 C   0  0  0  0  0  3  0  0  0  0  0  0
  157.8470  214.3160  148.2620 N   0  0  0  0  0  0  0  0  0  0  0  0
  159.1080  213.8110  148.2060 C   0  0  0  0  0  3  0  0  0  0  0  0
  157.7660  213.9830  150.6260 C   0  0  0  0  0  3  0  0  0  0  0  0
  1 10  2  0  0  0  0
  2 13  1  1  0  0  0
  2  6  1  0  0  0  0
  3  8  2  0  0  0  0
  4 17  1  0  0  0  0
  6  5  2  0  0  0  0
  7 17  1  0  0  0  0
  8  2  1  0  0  0  0
  8  1  1  0  0  0  0
  9 16  1  0  0  0  0
  9  4  1  0  0  0  0
 10  5  1  0  0  0  0
 11  3  1  0  0  0  0
 11 18  1  0  0  0  0
 12  1  1  0  0  0  0
 14  4  2  0  0  0  0
 14 15  1  0  0  0  0
 15 11  2  0  0  0  0
 16 26  1  6  0  0  0
 16  7  1  0  0  0  0
 17  3  1  0  0  0  0
 18 12  2  0  0  0  0
 19 23  2  0  0  0  0
 19 20  1  0  0  0  0
 20 22  2  0  0  0  0
 21 15  1  0  0  0  0
 21 24  2  0  0  0  0
 22 24  1  0  0  0  0
 23 21  1  0  0  0  0
 25 19  1  0  0  0  0
 26 27  1  0  0  0  0
 27 29  1  0  0  0  0
 29 30  1  0  0  0  0
 30 34  2  0  0  0  0
 30 28  1  0  0  0  0
 31 34  1  0  0  0  0
 32 31  2  0  0  0  0
 33 32  1  0  0  0  0
 33 29  2  0  0  0  0
M  END
>  <MODEL>
3

>  <REMARK>
 VINA RESULT:     -10.1      1.728      2.457
  Name = 
  4 active torsions:
  status: ('A' for Active; 'I' for Inactive)
    1  A    between atoms: C_3  and  C_13
    2  A    between atoms: C_3  and  N_17
    3  A    between atoms: C_12  and  C_28
    4  A    between atoms: N_17  and  C_29
                            x       y       z     vdW  Elec       q    Type
                         _______ _______ _______ _____ _____    ______ ____

>  <TORSDO>
F 4

$$$$
=
 OpenBabel11062407543D

 34 39  0  0  1  0  0  0  0  0999 V2000
  160.4340  212.7520  150.7570 C   0  0  0  0  0  0  0  0  0  0  0  0
  161.5550  211.9180  148.6420 C   0  0  2  0  0  3  0  0  0  0  0  0
  161.3570  210.4850  150.7530 C   0  0  0  0  0  0  0  0  0  0  0  0
  162.1940  208.1680  150.8360 C   0  0  0  0  0  0  0  0  0  0  0  0
  160.3110  214.0610  148.6910 C   0  0  0  0  0  3  0  0  0  0  0  0
  160.9670  213.1390  147.9890 C   0  0  0  0  0  3  0  0  0  0  0  0
  162.1510  209.0830  148.6940 C   0  0  0  0  0  2  0  0  0  0  0  0
  161.0770  211.6960  150.0650 C   0  0  0  0  0  0  0  0  0  0  0  0
  162.6750  207.0470  150.0120 C   0  0  0  0  0  2  0  0  0  0  0  0
  160.0790  213.8770  150.1310 C   0  0  0  0  0  3  0  0  0  0  0  0
  161.0590  210.3710  152.1410 C   0  0  0  0  0  0  0  0  0  0  0  0
  160.1260  212.6200  152.1070 C   0  0  0  0  0  3  0  0  0  0  0  0
  162.9340  212.0340  148.6360 F   0  0  0  0  0  0  0  0  0  0  0  0
  161.9090  208.0890  152.0950 N   0  0  0  0  0  0  0  0  0  0  0  0
  161.3540  209.2140  152.8090 C   0  0  0  0  0  0  0  0  0  0  0  0
  162.7120  207.6510  148.6030 C   0  0  1  0  0  3  0  0  0  0  0  0
  161.9530  209.3440  150.1070 N   0  0  0  0  0  0  0  0  0  0  0  0
  160.4410  211.4500  152.7890 C   0  0  0  0  0  3  0  0  0  0  0  0
  160.0720  207.8200  156.1140 C   0  0  0  0  0  0  0  0  0  0  0  0
  160.5770  208.7620  157.0130 C   0  0  0  0  0  3  0  0  0  0  0  0
  161.1030  209.0200  154.2620 C   0  0  0  0  0  0  0  0  0  0  0  0
  161.3340  209.8370  156.5430 C   0  0  0  0  0  3  0  0  0  0  0  0
  160.3270  207.9520  154.7460 C   0  0  0  0  0  3  0  0  0  0  0  0
  161.5890  209.9680  155.1750 C   0  0  0  0  0  3  0  0  0  0  0  0
  159.3320  206.7800  156.5670 F   0  0  0  0  0  0  0  0  0  0  0  0
  161.8880  206.8550  147.7100 N   0  0  0  0  0  2  0  0  0  0  0  0
  161.1870  205.8800  148.5290 C   0  0  0  0  0  2  0  0  0  0  0  0
  160.8310  203.3470  150.0480 C   0  0  0  0  0  1  0  0  0  0  0  0
  161.2060  204.5480  147.8540 C   0  0  0  0  0  0  0  0  0  0  0  0
  161.0250  203.3510  148.5690 C   0  0  0  0  0  0  0  0  0  0  0  0
  161.2060  202.1220  146.5020 C   0  0  0  0  0  3  0  0  0  0  0  0
  161.3730  203.2910  145.8260 N   0  0  0  0  0  0  0  0  0  0  0  0
  161.3730  204.4900  146.4670 C   0  0  0  0  0  3  0  0  0  0  0  0
  161.0290  202.1330  147.8860 C   0  0  0  0  0  3  0  0  0  0  0  0
  1 12  1  0  0  0  0
  2 13  1  1  0  0  0
  2  8  1  0  0  0  0
  3 11  1  0  0  0  0
  4 14  2  0  0  0  0
  5 10  1  0  0  0  0
  6  2  1  0  0  0  0
  6  5  2  0  0  0  0
  7 17  1  0  0  0  0
  8  3  2  0  0  0  0
  8  1  1  0  0  0  0
  9  4  1  0  0  0  0
 10  1  2  0  0  0  0
 11 18  1  0  0  0  0
 11 15  2  0  0  0  0
 12 18  2  0  0  0  0
 14 15  1  0  0  0  0
 15 21  1  0  0  0  0
 16 26  1  6  0  0  0
 16  7  1  0  0  0  0
 16  9  1  0  0  0  0
 17  3  1  0  0  0  0
 17  4  1  0  0  0  0
 19 25  1  0  0  0  0
 19 20  1  0  0  0  0
 21 23  1  0  0  0  0
 21 24  2  0  0  0  0
 22 20  2  0  0  0  0
 23 19  2  0  0  0  0
 24 22  1  0  0  0  0
 26 27  1  0  0  0  0
 29 27  1  0  0  0  0
 29 30  1  0  0  0  0
 30 28  1  0  0  0  0
 31 34  1  0  0  0  0
 32 33  1  0  0  0  0
 32 31  2  0  0  0  0
 33 29  2  0  0  0  0
 34 30  2  0  0  0  0
M  END
>  <MODEL>
4

>  <REMARK>
 VINA RESULT:      -9.5      2.816      6.982
  Name = 
  4 active torsions:
  status: ('A' for Active; 'I' for Inactive)
    1  A    between atoms: C_3  and  C_13
    2  A    between atoms: C_3  and  N_17
    3  A    between atoms: C_12  and  C_28
    4  A    between atoms: N_17  and  C_29
                            x       y       z     vdW  Elec       q    Type
                         _______ _______ _______ _____ _____    ______ ____

>  <TORSDO>
F 4

$$$$
=
 OpenBabel11062407543D

 34 39  0  0  1  0  0  0  0  0999 V2000
  160.5300  213.3260  149.6220 C   0  0  0  0  0  0  0  0  0  0  0  0
  161.8710  211.8480  148.0600 C   0  0  2  0  0  3  0  0  0  0  0  0
  161.2110  211.1160  150.4220 C   0  0  0  0  0  0  0  0  0  0  0  0
  161.7900  208.8870  151.3020 C   0  0  0  0  0  0  0  0  0  0  0  0
  160.8540  213.9700  147.2820 C   0  0  0  0  0  3  0  0  0  0  0  0
  161.5150  212.8490  146.9960 C   0  0  0  0  0  3  0  0  0  0  0  0
  162.1660  209.1280  149.0160 C   0  0  0  0  0  2  0  0  0  0  0  0
  161.1620  212.0810  149.3810 C   0  0  0  0  0  0  0  0  0  0  0  0
  162.2760  207.5490  150.9270 C   0  0  0  0  0  2  0  0  0  0  0  0
  160.3890  214.2330  148.6510 C   0  0  0  0  0  3  0  0  0  0  0  0
  160.6950  211.4330  151.7110 C   0  0  0  0  0  0  0  0  0  0  0  0
  160.0080  213.6150  150.8790 C   0  0  0  0  0  3  0  0  0  0  0  0
  163.2390  211.8860  148.2630 F   0  0  0  0  0  0  0  0  0  0  0  0
  161.3090  209.1990  152.4620 N   0  0  0  0  0  0  0  0  0  0  0  0
  160.7680  210.5120  152.7200 C   0  0  0  0  0  0  0  0  0  0  0  0
  162.5880  207.7070  149.4340 C   0  0  1  0  0  3  0  0  0  0  0  0
  161.7810  209.8050  150.2400 N   0  0  0  0  0  0  0  0  0  0  0  0
  160.0960  212.6850  151.9080 C   0  0  0  0  0  3  0  0  0  0  0  0
  158.4790  211.0740  155.7120 C   0  0  0  0  0  0  0  0  0  0  0  0
  159.4130  211.3620  156.7100 C   0  0  0  0  0  3  0  0  0  0  0  0
  160.2790  210.7690  154.1010 C   0  0  0  0  0  0  0  0  0  0  0  0
  160.7760  211.3660  156.4080 C   0  0  0  0  0  3  0  0  0  0  0  0
  158.9090  210.7860  154.4140 C   0  0  0  0  0  3  0  0  0  0  0  0
  161.2050  211.0780  155.1090 C   0  0  0  0  0  3  0  0  0  0  0  0
  157.1560  211.0760  156.0020 F   0  0  0  0  0  0  0  0  0  0  0  0
  161.8340  206.7260  148.6730 N   0  0  0  0  0  2  0  0  0  0  0  0
  161.0730  205.9360  149.6260 C   0  0  0  0  0  2  0  0  0  0  0  0
  160.6560  203.7270  151.5750 C   0  0  0  0  0  1  0  0  0  0  0  0
  161.0630  204.5050  149.2020 C   0  0  0  0  0  0  0  0  0  0  0  0
  160.8530  203.4610  150.1200 C   0  0  0  0  0  0  0  0  0  0  0  0
  161.0120  201.8750  148.3090 C   0  0  0  0  0  3  0  0  0  0  0  0
  161.2060  202.8990  147.4350 N   0  0  0  0  0  0  0  0  0  0  0  0
  161.2320  204.1940  147.8500 C   0  0  0  0  0  3  0  0  0  0  0  0
  160.8310  202.1400  149.6670 C   0  0  0  0  0  3  0  0  0  0  0  0
  1 12  1  0  0  0  0
  2 13  1  1  0  0  0
  2  8  1  0  0  0  0
  3 11  1  0  0  0  0
  4 14  2  0  0  0  0
  5 10  1  0  0  0  0
  6  5  2  0  0  0  0
  6  2  1  0  0  0  0
  7 16  1  0  0  0  0
  7 17  1  0  0  0  0
  8  1  1  0  0  0  0
  8  3  2  0  0  0  0
  9  4  1  0  0  0  0
 10  1  2  0  0  0  0
 11 18  1  0  0  0  0
 11 15  2  0  0  0  0
 12 18  2  0  0  0  0
 14 15  1  0  0  0  0
 15 21  1  0  0  0  0
 16 26  1  6  0  0  0
 16  9  1  0  0  0  0
 17  3  1  0  0  0  0
 17  4  1  0  0  0  0
 19 25  1  0  0  0  0
 19 20  1  0  0  0  0
 21 23  1  0  0  0  0
 21 24  2  0  0  0  0
 22 20  2  0  0  0  0
 23 19  2  0  0  0  0
 24 22  1  0  0  0  0
 26 27  1  0  0  0  0
 29 27  1  0  0  0  0
 29 30  1  0  0  0  0
 30 28  1  0  0  0  0
 31 34  1  0  0  0  0
 32 33  1  0  0  0  0
 32 31  2  0  0  0  0
 33 29  2  0  0  0  0
 34 30  2  0  0  0  0
M  END
>  <MODEL>
5

>  <REMARK>
 VINA RESULT:      -9.4      2.799      7.872
  Name = 
  4 active torsions:
  status: ('A' for Active; 'I' for Inactive)
    1  A    between atoms: C_3  and  C_13
    2  A    between atoms: C_3  and  N_17
    3  A    between atoms: C_12  and  C_28
    4  A    between atoms: N_17  and  C_29
                            x       y       z     vdW  Elec       q    Type
                         _______ _______ _______ _____ _____    ______ ____

>  <TORSDO>
F 4

$$$$
=
 OpenBabel11062407543D

 34 39  0  0  1  0  0  0  0  0999 V2000
  161.1910  204.8440  150.6790 C   0  0  0  0  0  0  0  0  0  0  0  0
  161.0320  206.1470  148.5110 C   0  0  2  0  0  3  0  0  0  0  0  0
  161.2590  207.2880  150.7910 C   0  0  0  0  0  0  0  0  0  0  0  0
  161.4030  209.7380  151.0100 C   0  0  0  0  0  0  0  0  0  0  0  0
  161.2860  203.6810  148.5270 C   0  0  0  0  0  3  0  0  0  0  0  0
  161.2340  204.8190  147.8350 C   0  0  0  0  0  3  0  0  0  0  0  0
  161.6000  208.9720  148.8200 C   0  0  0  0  0  2  0  0  0  0  0  0
  161.2000  206.0970  150.0190 C   0  0  0  0  0  0  0  0  0  0  0  0
  161.6140  210.9900  150.2640 C   0  0  0  0  0  2  0  0  0  0  0  0
  161.2160  203.6970  149.9940 C   0  0  0  0  0  3  0  0  0  0  0  0
  161.2330  207.2140  152.2130 C   0  0  0  0  0  0  0  0  0  0  0  0
  161.1890  204.7850  152.0700 C   0  0  0  0  0  3  0  0  0  0  0  0
  159.7640  206.6090  148.2080 F   0  0  0  0  0  0  0  0  0  0  0  0
  161.3830  209.6440  152.3000 N   0  0  0  0  0  0  0  0  0  0  0  0
  161.2630  208.3630  152.9560 C   0  0  0  0  0  0  0  0  0  0  0  0
  161.6840  210.5100  148.8090 C   0  0  1  0  0  3  0  0  0  0  0  0
  161.3330  208.5970  150.1960 N   0  0  0  0  0  0  0  0  0  0  0  0
  161.2030  205.9520  152.8230 C   0  0  0  0  0  3  0  0  0  0  0  0
  160.4180  207.4900  156.5660 C   0  0  0  0  0  0  0  0  0  0  0  0
  161.0660  208.5240  157.2470 C   0  0  0  0  0  3  0  0  0  0  0  0
  161.2110  208.3800  154.4420 C   0  0  0  0  0  0  0  0  0  0  0  0
  161.7770  209.4910  156.5330 C   0  0  0  0  0  3  0  0  0  0  0  0
  160.4840  207.4230  155.1710 C   0  0  0  0  0  3  0  0  0  0  0  0
  161.8430  209.4220  155.1380 C   0  0  0  0  0  3  0  0  0  0  0  0
  159.7220  206.5560  157.2560 F   0  0  0  0  0  0  0  0  0  0  0  0
  162.9440  210.9300  148.2190 N   0  0  0  0  0  2  0  0  0  0  0  0
  163.0330  212.3710  148.3790 C   0  0  0  0  0  2  0  0  0  0  0  0
  160.6000  213.9890  148.9410 C   0  0  0  0  0  1  0  0  0  0  0  0
  162.2690  213.0470  147.2890 C   0  0  0  0  0  0  0  0  0  0  0  0
  161.1260  213.8230  147.5550 C   0  0  0  0  0  0  0  0  0  0  0  0
  160.9430  214.3090  145.2000 C   0  0  0  0  0  3  0  0  0  0  0  0
  162.0540  213.5610  144.9630 N   0  0  0  0  0  0  0  0  0  0  0  0
  162.7210  212.9370  145.9710 C   0  0  0  0  0  3  0  0  0  0  0  0
  160.4610  214.4530  146.5010 C   0  0  0  0  0  3  0  0  0  0  0  0
  1 12  1  0  0  0  0
  2 13  1  1  0  0  0
  2  8  1  0  0  0  0
  3 11  1  0  0  0  0
  4 14  2  0  0  0  0
  5 10  1  0  0  0  0
  6  2  1  0  0  0  0
  6  5  2  0  0  0  0
  7 17  1  0  0  0  0
  8  1  1  0  0  0  0
  8  3  2  0  0  0  0
  9  4  1  0  0  0  0
 10  1  2  0  0  0  0
 11 18  1  0  0  0  0
 11 15  2  0  0  0  0
 12 18  2  0  0  0  0
 14 15  1  0  0  0  0
 15 21  1  0  0  0  0
 16 26  1  1  0  0  0
 16  7  1  0  0  0  0
 16  9  1  0  0  0  0
 17  3  1  0  0  0  0
 17  4  1  0  0  0  0
 19 20  1  0  0  0  0
 19 25  1  0  0  0  0
 21 24  2  0  0  0  0
 21 23  1  0  0  0  0
 22 20  2  0  0  0  0
 23 19  2  0  0  0  0
 24 22  1  0  0  0  0
 26 27  1  0  0  0  0
 29 30  1  0  0  0  0
 29 27  1  0  0  0  0
 30 28  1  0  0  0  0
 31 34  1  0  0  0  0
 32 31  2  0  0  0  0
 32 33  1  0  0  0  0
 33 29  2  0  0  0  0
 34 30  2  0  0  0  0
M  END
>  <MODEL>
6

>  <REMARK>
 VINA RESULT:      -9.3      1.908      5.334
  Name = 
  4 active torsions:
  status: ('A' for Active; 'I' for Inactive)
    1  A    between atoms: C_3  and  C_13
    2  A    between atoms: C_3  and  N_17
    3  A    between atoms: C_12  and  C_28
    4  A    between atoms: N_17  and  C_29
                            x       y       z     vdW  Elec       q    Type
                         _______ _______ _______ _____ _____    ______ ____

>  <TORSDO>
F 4

$$$$
=
 OpenBabel11062407543D

 34 39  0  0  1  0  0  0  0  0999 V2000
  161.2970  206.1130  149.0660 C   0  0  0  0  0  0  0  0  0  0  0  0
  161.4260  205.5620  151.5360 C   0  0  0  0  0  0  0  0  0  0  0  0
  161.5120  207.9620  150.6530 C   0  0  0  0  0  0  0  0  0  0  0  0
  161.6620  209.9000  152.1690 C   0  0  0  0  0  0  0  0  0  0  0  0
  160.8990  203.8260  149.8460 C   0  0  0  0  0  3  0  0  0  0  0  0
  161.0230  204.1720  151.1270 C   0  0  0  0  0  3  0  0  0  0  0  0
  161.2050  207.8880  153.2490 C   0  0  0  0  0  2  0  0  0  0  0  0
  161.3750  206.5710  150.4030 C   0  0  0  0  0  0  0  0  0  0  0  0
  161.5330  210.3260  153.5720 C   0  0  0  0  0  2  0  0  0  0  0  0
  161.0880  204.8230  148.7840 C   0  0  0  0  0  3  0  0  0  0  0  0
  161.6440  208.8700  149.5640 C   0  0  0  0  0  0  0  0  0  0  0  0
  161.4030  207.0120  148.0090 C   0  0  0  0  0  3  0  0  0  0  0  0
  162.7100  205.5170  152.0500 F   0  0  0  0  0  0  0  0  0  0  0  0
  161.7740  210.7040  151.1620 N   0  0  0  0  0  0  0  0  0  0  0  0
  161.8020  210.2080  149.8070 C   0  0  0  0  0  0  0  0  0  0  0  0
  161.2920  209.0030  154.3090 C   0  0  1  0  0  3  0  0  0  0  0  0
  161.5370  208.5140  151.9840 N   0  0  0  0  0  0  0  0  0  0  0  0
  161.5800  208.3690  148.2560 C   0  0  0  0  0  2  0  0  0  0  0  0
  161.0910  212.5980  146.9280 C   0  0  0  0  0  0  0  0  0  0  0  0
  162.3780  213.0610  146.6440 C   0  0  0  0  0  3  0  0  0  0  0  0
  161.9740  211.2210  148.7310 C   0  0  0  0  0  0  0  0  0  0  0  0
  163.4640  212.6010  147.3900 C   0  0  0  0  0  3  0  0  0  0  0  0
  160.8910  211.6780  147.9610 C   0  0  0  0  0  3  0  0  0  0  0  0
  163.2640  211.6810  148.4230 C   0  0  0  0  0  3  0  0  0  0  0  0
  160.0370  213.0380  146.2000 F   0  0  0  0  0  0  0  0  0  0  0  0
  160.0440  209.0780  155.0490 N   0  0  0  0  0  2  0  0  0  0  0  0
  160.2190  210.0840  156.0820 C   0  0  0  0  0  2  0  0  0  0  0  0
  160.4570  212.8110  157.2500 C   0  0  0  0  0  1  0  0  0  0  0  0
  159.0950  211.0660  156.0250 C   0  0  0  0  0  0  0  0  0  0  0  0
  159.2110  212.3590  156.5650 C   0  0  0  0  0  0  0  0  0  0  0  0
  156.9670  212.8390  155.8240 C   0  0  0  0  0  3  0  0  0  0  0  0
  156.8750  211.5860  155.3010 N   0  0  0  0  0  0  0  0  0  0  0  0
  157.9060  210.7030  155.3850 C   0  0  0  0  0  3  0  0  0  0  0  0
  158.1370  213.2460  156.4640 C   0  0  0  0  0  3  0  0  0  0  0  0
  1  8  1  0  0  0  0
  2 13  1  0  0  0  0
  3 17  1  0  0  0  0
  4  9  1  0  0  0  0
  5  6  1  0  0  0  0
  6  2  2  0  0  0  0
  7 16  1  0  0  0  0
  8  3  2  0  0  0  0
  8  2  1  0  0  0  0
  9 16  1  0  0  0  0
 10  1  1  0  0  0  0
 10  5  2  0  0  0  0
 11 15  2  0  0  0  0
 11  3  1  0  0  0  0
 12 18  1  0  0  0  0
 12  1  2  0  0  0  0
 14  4  2  0  0  0  0
 15 14  1  0  0  0  0
 16 26  1  6  0  0  0
 17  4  1  0  0  0  0
 17  7  1  0  0  0  0
 18 11  1  0  0  0  0
 19 23  1  0  0  0  0
 20 19  2  0  0  0  0
 20 22  1  0  0  0  0
 21 15  1  0  0  0  0
 22 24  2  0  0  0  0
 23 21  2  0  0  0  0
 24 21  1  0  0  0  0
 25 19  1  0  0  0  0
 26 27  1  0  0  0  0
 29 27  1  0  0  0  0
 29 30  1  0  0  0  0
 30 28  1  0  0  0  0
 31 34  1  0  0  0  0
 32 33  1  0  0  0  0
 32 31  2  0  0  0  0
 33 29  2  0  0  0  0
 34 30  2  0  0  0  0
M  END
>  <MODEL>
7

>  <REMARK>
 VINA RESULT:      -9.0      2.780      7.900
  Name = 
  4 active torsions:
  status: ('A' for Active; 'I' for Inactive)
    1  A    between atoms: C_3  and  C_13
    2  A    between atoms: C_3  and  N_17
    3  A    between atoms: C_12  and  C_28
    4  A    between atoms: N_17  and  C_29
                            x       y       z     vdW  Elec       q    Type
                         _______ _______ _______ _____ _____    ______ ____

>  <TORSDO>
F 4

$$$$
=
 OpenBabel11062407543D

 34 39  0  0  1  0  0  0  0  0999 V2000
  160.6030  212.2910  150.7660 C   0  0  0  0  0  0  0  0  0  0  0  0
  162.1090  210.3010  150.3210 C   0  0  2  0  0  3  0  0  0  0  0  0
  160.6580  210.4900  152.4210 C   0  0  0  0  0  0  0  0  0  0  0  0
  160.5900  208.7050  154.1190 C   0  0  0  0  0  0  0  0  0  0  0  0
  161.7180  212.0420  148.6000 C   0  0  0  0  0  3  0  0  0  0  0  0
  162.2510  210.8690  148.9360 C   0  0  0  0  0  3  0  0  0  0  0  0
  161.6740  208.0960  152.1500 C   0  0  0  0  0  2  0  0  0  0  0  0
  161.0780  211.0200  151.1720 C   0  0  0  0  0  0  0  0  0  0  0  0
  160.9530  207.3040  154.3880 C   0  0  0  0  0  2  0  0  0  0  0  0
  160.9060  212.7950  149.5660 C   0  0  0  0  0  3  0  0  0  0  0  0
  159.8310  211.2680  153.2820 C   0  0  0  0  0  0  0  0  0  0  0  0
  159.7760  213.0320  151.6050 C   0  0  0  0  0  3  0  0  0  0  0  0
  163.3390  210.3580  150.9510 F   0  0  0  0  0  0  0  0  0  0  0  0
  159.8350  209.4290  154.8790 N   0  0  0  0  0  0  0  0  0  0  0  0
  159.4500  210.7670  154.4970 C   0  0  0  0  0  0  0  0  0  0  0  0
  161.7240  206.9040  153.1240 C   0  0  1  0  0  3  0  0  0  0  0  0
  161.0460  209.1810  152.8800 N   0  0  0  0  0  0  0  0  0  0  0  0
  159.4020  212.5290  152.8460 C   0  0  0  0  0  3  0  0  0  0  0  0
  156.4460  212.1830  156.3620 C   0  0  0  0  0  0  0  0  0  0  0  0
  157.0760  213.0480  157.2600 C   0  0  0  0  0  3  0  0  0  0  0  0
  158.6120  211.5200  155.4680 C   0  0  0  0  0  0  0  0  0  0  0  0
  158.4670  213.1600  157.2600 C   0  0  0  0  0  3  0  0  0  0  0  0
  157.2090  211.4300  155.4650 C   0  0  0  0  0  3  0  0  0  0  0  0
  159.2300  212.4060  156.3640 C   0  0  0  0  0  3  0  0  0  0  0  0
  155.0960  212.0780  156.3550 F   0  0  0  0  0  0  0  0  0  0  0  0
  161.0930  205.7440  152.5150 N   0  0  0  0  0  2  0  0  0  0  0  0
  161.2770  205.8610  151.0780 C   0  0  0  0  0  2  0  0  0  0  0  0
  161.2740  205.5340  148.1210 C   0  0  0  0  0  1  0  0  0  0  0  0
  161.0720  204.5300  150.4350 C   0  0  0  0  0  0  0  0  0  0  0  0
  161.0840  204.3720  149.0370 C   0  0  0  0  0  0  0  0  0  0  0  0
  160.7330  202.0040  149.3300 C   0  0  0  0  0  3  0  0  0  0  0  0
  160.7320  202.1750  150.6800 N   0  0  0  0  0  0  0  0  0  0  0  0
  160.9000  203.4020  151.2420 C   0  0  0  0  0  3  0  0  0  0  0  0
  160.9100  203.1010  148.4860 C   0  0  0  0  0  3  0  0  0  0  0  0
  1  8  1  0  0  0  0
  1 12  1  0  0  0  0
  2 13  1  1  0  0  0
  2  8  1  0  0  0  0
  3 17  1  0  0  0  0
  3 11  1  0  0  0  0
  4  9  1  0  0  0  0
  4 14  2  0  0  0  0
  5  6  2  0  0  0  0
  5 10  1  0  0  0  0
  6  2  1  0  0  0  0
  7 17  1  0  0  0  0
  7 16  1  0  0  0  0
  8  3  2  0  0  0  0
 10  1  2  0  0  0  0
 11 15  2  0  0  0  0
 12 18  2  0  0  0  0
 15 14  1  0  0  0  0
 15 21  1  0  0  0  0
 16 26  1  6  0  0  0
 16  9  1  0  0  0  0
 17  4  1  0  0  0  0
 18 11  1  0  0  0  0
 19 20  1  0  0  0  0
 21 24  2  0  0  0  0
 22 20  2  0  0  0  0
 23 21  1  0  0  0  0
 23 19  2  0  0  0  0
 24 22  1  0  0  0  0
 25 19  1  0  0  0  0
 27 26  1  0  0  0  0
 28 30  1  0  0  0  0
 29 27  1  0  0  0  0
 29 33  1  0  0  0  0
 30 29  2  0  0  0  0
 31 32  1  0  0  0  0
 32 33  2  0  0  0  0
 34 30  1  0  0  0  0
 34 31  2  0  0  0  0
M  END
>  <MODEL>
8

>  <REMARK>
 VINA RESULT:      -8.7      3.016      8.223
  Name = 
  4 active torsions:
  status: ('A' for Active; 'I' for Inactive)
    1  A    between atoms: C_3  and  C_13
    2  A    between atoms: C_3  and  N_17
    3  A    between atoms: C_12  and  C_28
    4  A    between atoms: N_17  and  C_29
                            x       y       z     vdW  Elec       q    Type
                         _______ _______ _______ _____ _____    ______ ____

>  <TORSDO>
F 4

$$$$
=
 OpenBabel11062407543D

 34 39  0  0  1  0  0  0  0  0999 V2000
  161.9570  208.9160  149.2580 C   0  0  0  0  0  0  0  0  0  0  0  0
  161.4130  210.2130  151.3670 C   0  0  0  0  0  0  0  0  0  0  0  0
  161.3660  207.6560  151.2710 C   0  0  0  0  0  0  0  0  0  0  0  0
  160.8480  206.2900  153.2560 C   0  0  0  0  0  0  0  0  0  0  0  0
  162.3220  211.3360  149.3520 C   0  0  0  0  0  3  0  0  0  0  0  0
  161.9520  211.4080  150.6300 C   0  0  0  0  0  3  0  0  0  0  0  0
  161.2030  208.5430  153.7250 C   0  0  0  0  0  2  0  0  0  0  0  0
  161.6160  208.9000  150.6330 C   0  0  0  0  0  0  0  0  0  0  0  0
  160.6990  206.3270  154.7200 C   0  0  0  0  0  2  0  0  0  0  0  0
  162.2780  210.0540  148.6350 C   0  0  0  0  0  3  0  0  0  0  0  0
  161.3880  206.4510  150.5120 C   0  0  0  0  0  0  0  0  0  0  0  0
  161.9980  207.7300  148.5330 C   0  0  0  0  0  3  0  0  0  0  0  0
  160.0610  210.4060  151.5920 F   0  0  0  0  0  0  0  0  0  0  0  0
  160.8790  205.2100  152.5450 N   0  0  0  0  0  0  0  0  0  0  0  0
  161.1210  205.2560  151.1230 C   0  0  0  0  0  0  0  0  0  0  0  0
  160.8690  207.8170  155.0420 C   0  0  1  0  0  3  0  0  0  0  0  0
  161.0730  207.5490  152.6770 N   0  0  0  0  0  0  0  0  0  0  0  0
  161.7110  206.5180  149.1500 C   0  0  0  0  0  2  0  0  0  0  0  0
  161.1100  202.6460  148.3480 C   0  0  0  0  0  0  0  0  0  0  0  0
  160.9360  201.4740  149.0880 C   0  0  0  0  0  3  0  0  0  0  0  0
  161.0940  203.9550  150.4020 C   0  0  0  0  0  0  0  0  0  0  0  0
  160.8310  201.5370  150.4790 C   0  0  0  0  0  3  0  0  0  0  0  0
  161.1810  203.8800  149.0010 C   0  0  0  0  0  3  0  0  0  0  0  0
  160.9030  202.7710  151.1310 C   0  0  0  0  0  3  0  0  0  0  0  0
  161.2060  202.5880  146.9990 F   0  0  0  0  0  0  0  0  0  0  0  0
  161.9580  207.9890  155.9890 N   0  0  0  0  0  2  0  0  0  0  0  0
  161.3670  208.4030  157.2510 C   0  0  0  0  0  2  0  0  0  0  0  0
  163.2560  210.7010  157.2610 C   0  0  0  0  0  1  0  0  0  0  0  0
  160.8890  209.8130  157.1450 C   0  0  0  0  0  0  0  0  0  0  0  0
  161.7830  210.9000  157.1360 C   0  0  0  0  0  0  0  0  0  0  0  0
  159.9090  212.4000  156.8930 C   0  0  0  0  0  3  0  0  0  0  0  0
  159.0620  211.3360  156.8950 N   0  0  0  0  0  0  0  0  0  0  0  0
  159.5200  210.0610  157.0150 C   0  0  0  0  0  3  0  0  0  0  0  0
  161.2850  212.1990  157.0120 C   0  0  0  0  0  3  0  0  0  0  0  0
  1  8  1  0  0  0  0
  2 13  1  0  0  0  0
  3 17  1  0  0  0  0
  4  9  1  0  0  0  0
  5  6  1  0  0  0  0
  6  2  2  0  0  0  0
  7 16  1  0  0  0  0
  8  3  2  0  0  0  0
  8  2  1  0  0  0  0
  9 16  1  0  0  0  0
 10  1  1  0  0  0  0
 10  5  2  0  0  0  0
 11 15  2  0  0  0  0
 11  3  1  0  0  0  0
 12 18  1  0  0  0  0
 12  1  2  0  0  0  0
 14  4  2  0  0  0  0
 15 14  1  0  0  0  0
 16 26  1  1  0  0  0
 17  4  1  0  0  0  0
 17  7  1  0  0  0  0
 18 11  1  0  0  0  0
 19 23  2  0  0  0  0
 19 20  1  0  0  0  0
 20 22  2  0  0  0  0
 21 15  1  0  0  0  0
 21 24  2  0  0  0  0
 22 24  1  0  0  0  0
 23 21  1  0  0  0  0
 25 19  1  0  0  0  0
 26 27  1  0  0  0  0
 29 27  1  0  0  0  0
 30 29  1  0  0  0  0
 30 28  1  0  0  0  0
 31 32  2  0  0  0  0
 31 34  1  0  0  0  0
 32 33  1  0  0  0  0
 33 29  2  0  0  0  0
 34 30  2  0  0  0  0
M  END
>  <MODEL>
9

>  <REMARK>
 VINA RESULT:      -8.6      3.014      6.747
  Name = 
  4 active torsions:
  status: ('A' for Active; 'I' for Inactive)
    1  A    between atoms: C_3  and  C_13
    2  A    between atoms: C_3  and  N_17
    3  A    between atoms: C_12  and  C_28
    4  A    between atoms: N_17  and  C_29
                            x       y       z     vdW  Elec       q    Type
                         _______ _______ _______ _____ _____    ______ ____

>  <TORSDO>
F 4

$$$$
