=
 OpenBabel11052423193D

 27 30  0  0  1  0  0  0  0  0999 V2000
  160.1390  212.0990  139.8900 N   0  0  0  0  0  0  0  0  0  0  0  0
  159.5160  214.2990  140.3630 O   0  0  0  0  0  0  0  0  0  0  0  0
  159.9470  213.2000  140.8070 C   0  0  0  0  0  0  0  0  0  0  0  0
  160.6840  212.8390  144.9960 C   0  0  0  0  0  3  0  0  0  0  0  0
  162.7220  214.2630  144.8670 C   0  0  0  0  0  1  0  0  0  0  0  0
  161.3340  213.7280  142.8420 C   0  0  0  0  0  0  0  0  0  0  0  0
  162.1980  214.4530  142.0840 F   0  0  0  0  0  0  0  0  0  0  0  0
  160.2290  213.0770  142.2580 C   0  0  0  0  0  0  0  0  0  0  0  0
  161.5580  213.5990  144.2190 C   0  0  0  0  0  0  0  0  0  0  0  0
  159.3940  212.3480  143.0510 N   0  0  0  0  0  0  0  0  0  0  0  0
  159.5960  212.2150  144.3890 C   0  0  0  0  0  3  0  0  0  0  0  0
  161.2570  210.0860  139.1340 N   0  0  0  0  0  2  0  0  0  0  0  0
  160.8260  210.8670  140.3050 C   0  0  1  0  0  3  0  0  0  0  0  0
  162.2640  210.8030  139.9370 C   0  0  2  0  0  3  0  0  0  0  0  0
  164.1110  214.0240  139.1200 C   0  0  0  0  0  3  0  0  0  0  0  0
  164.0170  214.0620  137.7270 C   0  0  0  0  0  3  0  0  0  0  0  0
  163.5290  212.9710  139.8310 C   0  0  0  0  0  3  0  0  0  0  0  0
  163.3490  213.0420  137.0430 C   0  0  0  0  0  3  0  0  0  0  0  0
  162.7650  211.9910  137.7550 C   0  0  0  0  0  3  0  0  0  0  0  0
  162.8280  211.9630  139.1580 C   0  0  0  0  0  0  0  0  0  0  0  0
  159.3500  212.0790  138.6580 C   0  0  0  0  0  2  0  0  0  0  0  0
  155.4450  210.4260  139.3230 C   0  0  0  0  0  3  0  0  0  0  0  0
  157.9950  211.4970  138.8930 C   0  0  0  0  0  0  0  0  0  0  0  0
  156.9420  212.3280  139.2930 C   0  0  0  0  0  3  0  0  0  0  0  0
  155.6690  211.7930  139.5090 C   0  0  0  0  0  3  0  0  0  0  0  0
  156.4930  209.5940  138.9190 C   0  0  0  0  0  3  0  0  0  0  0  0
  157.7670  210.1290  138.7030 C   0  0  0  0  0  3  0  0  0  0  0  0
  1  3  1  0  0  0  0
  2  3  2  0  0  0  0
  3  8  1  0  0  0  0
  6  9  1  0  0  0  0
  7  6  1  0  0  0  0
  8  6  2  0  0  0  0
  8 10  1  0  0  0  0
  9  5  1  0  0  0  0
  9  4  2  0  0  0  0
 10 11  2  0  0  0  0
 11  4  1  0  0  0  0
 12 14  1  0  0  0  0
 12 13  1  0  0  0  0
 13  1  1  6  0  0  0
 14 20  1  6  0  0  0
 14 13  1  0  0  0  0
 15 17  1  0  0  0  0
 16 15  2  0  0  0  0
 18 16  1  0  0  0  0
 18 19  2  0  0  0  0
 19 20  1  0  0  0  0
 20 17  2  0  0  0  0
 21 23  1  0  0  0  0
 21  1  1  0  0  0  0
 22 25  1  0  0  0  0
 23 24  1  0  0  0  0
 24 25  2  0  0  0  0
 26 22  2  0  0  0  0
 27 23  2  0  0  0  0
 27 26  1  0  0  0  0
M  END
>  <MODEL>
1

>  <REMARK>
 VINA RESULT:      -4.0      0.000      0.000
  Name = 
  5 active torsions:
  status: ('A' for Active; 'I' for Inactive)
    1  A    between atoms: N_2  and  C_6
    2  A    between atoms: N_2  and  C_15
    3  A    between atoms: C_6  and  C_9
    4  A    between atoms: C_14  and  C_19
    5  A    between atoms: C_18  and  C_26
                            x       y       z     vdW  Elec       q    Type
                         _______ _______ _______ _____ _____    ______ ____

>  <TORSDO>
F 5

$$$$
=
 OpenBabel11052423193D

 27 30  0  0  1  0  0  0  0  0999 V2000
  161.3120  205.6240  147.9650 N   0  0  0  0  0  0  0  0  0  0  0  0
  159.5240  206.1970  149.3520 O   0  0  0  0  0  0  0  0  0  0  0  0
  160.6400  206.5300  148.8690 C   0  0  0  0  0  0  0  0  0  0  0  0
  162.3660  210.2890  149.9240 C   0  0  0  0  0  3  0  0  0  0  0  0
  162.1380  209.8280  152.3600 C   0  0  0  0  0  1  0  0  0  0  0  0
  161.3900  208.1850  150.6130 C   0  0  0  0  0  0  0  0  0  0  0  0
  160.9780  207.3510  151.6030 F   0  0  0  0  0  0  0  0  0  0  0  0
  161.2260  207.8360  149.2580 C   0  0  0  0  0  0  0  0  0  0  0  0
  161.9610  209.4230  150.9390 C   0  0  0  0  0  0  0  0  0  0  0  0
  161.6400  208.7070  148.2940 N   0  0  0  0  0  0  0  0  0  0  0  0
  162.1970  209.9100  148.5940 C   0  0  0  0  0  3  0  0  0  0  0  0
  163.3980  204.8900  146.9740 N   0  0  0  0  0  2  0  0  0  0  0  0
  162.5080  206.0370  147.2150 C   0  0  1  0  0  3  0  0  0  0  0  0
  162.6210  205.4500  145.8540 C   0  0  2  0  0  3  0  0  0  0  0  0
  159.5030  204.0560  144.1850 C   0  0  0  0  0  3  0  0  0  0  0  0
  159.5980  202.6970  144.4920 C   0  0  0  0  0  3  0  0  0  0  0  0
  160.4800  204.9450  144.6410 C   0  0  0  0  0  3  0  0  0  0  0  0
  160.6750  202.2240  145.2470 C   0  0  0  0  0  3  0  0  0  0  0  0
  161.6490  203.1140  145.7060 C   0  0  0  0  0  3  0  0  0  0  0  0
  161.5440  204.4870  145.4270 C   0  0  0  0  0  0  0  0  0  0  0  0
  161.0030  204.1970  148.0590 C   0  0  0  0  0  2  0  0  0  0  0  0
  161.4070  202.7630  152.0850 C   0  0  0  0  0  3  0  0  0  0  0  0
  161.1410  203.7060  149.4630 C   0  0  0  0  0  0  0  0  0  0  0  0
  160.7960  202.3850  149.7730 C   0  0  0  0  0  3  0  0  0  0  0  0
  160.9280  201.9150  151.0830 C   0  0  0  0  0  3  0  0  0  0  0  0
  161.7560  204.0810  151.7780 C   0  0  0  0  0  3  0  0  0  0  0  0
  161.6240  204.5520  150.4680 C   0  0  0  0  0  3  0  0  0  0  0  0
  1 21  1  0  0  0  0
  1  3  1  0  0  0  0
  3  8  1  0  0  0  0
  3  2  2  0  0  0  0
  4  9  1  0  0  0  0
  6  9  2  0  0  0  0
  6  7  1  0  0  0  0
  8  6  1  0  0  0  0
  9  5  1  0  0  0  0
 10 11  1  0  0  0  0
 10  8  2  0  0  0  0
 11  4  2  0  0  0  0
 12 13  1  0  0  0  0
 13  1  1  1  0  0  0
 14 20  1  1  0  0  0
 14 12  1  0  0  0  0
 14 13  1  0  0  0  0
 15 16  2  0  0  0  0
 15 17  1  0  0  0  0
 16 18  1  0  0  0  0
 17 20  2  0  0  0  0
 18 19  2  0  0  0  0
 20 19  1  0  0  0  0
 21 23  1  0  0  0  0
 23 24  2  0  0  0  0
 23 27  1  0  0  0  0
 24 25  1  0  0  0  0
 25 22  2  0  0  0  0
 26 22  1  0  0  0  0
 27 26  2  0  0  0  0
M  END
>  <MODEL>
2

>  <REMARK>
 VINA RESULT:      -3.9      9.066     11.397
  Name = 
  5 active torsions:
  status: ('A' for Active; 'I' for Inactive)
    1  A    between atoms: N_2  and  C_6
    2  A    between atoms: N_2  and  C_15
    3  A    between atoms: C_6  and  C_9
    4  A    between atoms: C_14  and  C_19
    5  A    between atoms: C_18  and  C_26
                            x       y       z     vdW  Elec       q    Type
                         _______ _______ _______ _____ _____    ______ ____

>  <TORSDO>
F 5

$$$$
=
 OpenBabel11052423193D

 27 30  0  0  1  0  0  0  0  0999 V2000
  159.3400  211.3270  154.9170 N   0  0  0  0  0  0  0  0  0  0  0  0
  157.5040  210.9250  153.5310 O   0  0  0  0  0  0  0  0  0  0  0  0
  158.6160  211.5020  153.6780 C   0  0  0  0  0  0  0  0  0  0  0  0
  160.0330  213.9800  150.5030 C   0  0  0  0  0  3  0  0  0  0  0  0
  161.4580  212.1600  149.5780 C   0  0  0  0  0  1  0  0  0  0  0  0
  160.0390  211.8360  151.6260 C   0  0  0  0  0  0  0  0  0  0  0  0
  160.5000  210.5620  151.7190 F   0  0  0  0  0  0  0  0  0  0  0  0
  159.1320  212.3490  152.5740 C   0  0  0  0  0  0  0  0  0  0  0  0
  160.4900  212.6650  150.5900 C   0  0  0  0  0  0  0  0  0  0  0  0
  158.7030  213.6370  152.4530 N   0  0  0  0  0  0  0  0  0  0  0  0
  159.1300  214.4530  151.4530 C   0  0  0  0  0  3  0  0  0  0  0  0
  161.3140  211.3060  156.3220 N   0  0  0  0  0  2  0  0  0  0  0  0
  160.7230  211.8030  155.0690 C   0  0  1  0  0  3  0  0  0  0  0  0
  161.7550  210.7340  155.0380 C   0  0  2  0  0  3  0  0  0  0  0  0
  160.8800  207.3680  153.5020 C   0  0  0  0  0  3  0  0  0  0  0  0
  160.5170  206.6260  154.6280 C   0  0  0  0  0  3  0  0  0  0  0  0
  161.2680  208.7030  153.6410 C   0  0  0  0  0  3  0  0  0  0  0  0
  160.5510  207.2160  155.8950 C   0  0  0  0  0  3  0  0  0  0  0  0
  160.9350  208.5520  156.0320 C   0  0  0  0  0  3  0  0  0  0  0  0
  161.2720  209.3140  154.9010 C   0  0  0  0  0  0  0  0  0  0  0  0
  158.5810  210.9860  156.1190 C   0  0  0  0  0  2  0  0  0  0  0  0
  155.9200  214.1740  157.2090 C   0  0  0  0  0  3  0  0  0  0  0  0
  157.6500  212.0900  156.5030 C   0  0  0  0  0  0  0  0  0  0  0  0
  158.1610  213.3620  156.7810 C   0  0  0  0  0  3  0  0  0  0  0  0
  157.2970  214.4030  157.1350 C   0  0  0  0  0  3  0  0  0  0  0  0
  155.4070  212.9050  156.9280 C   0  0  0  0  0  3  0  0  0  0  0  0
  156.2710  211.8630  156.5740 C   0  0  0  0  0  3  0  0  0  0  0  0
  1 21  1  0  0  0  0
  2  3  2  0  0  0  0
  3  1  1  0  0  0  0
  4  9  2  0  0  0  0
  4 11  1  0  0  0  0
  5  9  1  0  0  0  0
  6  7  1  0  0  0  0
  6  8  2  0  0  0  0
  8  3  1  0  0  0  0
  9  6  1  0  0  0  0
 10  8  1  0  0  0  0
 11 10  2  0  0  0  0
 13  1  1  1  0  0  0
 13 12  1  0  0  0  0
 14 20  1  1  0  0  0
 14 13  1  0  0  0  0
 14 12  1  0  0  0  0
 15 17  2  0  0  0  0
 15 16  1  0  0  0  0
 16 18  2  0  0  0  0
 17 20  1  0  0  0  0
 18 19  1  0  0  0  0
 20 19  2  0  0  0  0
 21 23  1  0  0  0  0
 23 27  2  0  0  0  0
 23 24  1  0  0  0  0
 24 25  2  0  0  0  0
 25 22  1  0  0  0  0
 26 22  2  0  0  0  0
 27 26  1  0  0  0  0
M  END
>  <MODEL>
3

>  <REMARK>
 VINA RESULT:      -3.8     10.624     14.850
  Name = 
  5 active torsions:
  status: ('A' for Active; 'I' for Inactive)
    1  A    between atoms: N_2  and  C_6
    2  A    between atoms: N_2  and  C_15
    3  A    between atoms: C_6  and  C_9
    4  A    between atoms: C_14  and  C_19
    5  A    between atoms: C_18  and  C_26
                            x       y       z     vdW  Elec       q    Type
                         _______ _______ _______ _____ _____    ______ ____

>  <TORSDO>
F 5

$$$$
=
 OpenBabel11052423193D

 27 30  0  0  1  0  0  0  0  0999 V2000
  161.1280  208.8920  153.3240 N   0  0  0  0  0  0  0  0  0  0  0  0
  162.6380  210.3260  152.2660 O   0  0  0  0  0  0  0  0  0  0  0  0
  161.4520  210.1290  152.6500 C   0  0  0  0  0  0  0  0  0  0  0  0
  158.4690  213.0950  151.9230 C   0  0  0  0  0  3  0  0  0  0  0  0
  159.4620  213.7050  149.7230 C   0  0  0  0  0  1  0  0  0  0  0  0
  160.4530  211.9210  151.1890 C   0  0  0  0  0  0  0  0  0  0  0  0
  161.4330  211.7360  150.2650 F   0  0  0  0  0  0  0  0  0  0  0  0
  160.4330  211.1740  152.3820 C   0  0  0  0  0  0  0  0  0  0  0  0
  159.4640  212.8890  150.9680 C   0  0  0  0  0  0  0  0  0  0  0  0
  159.4410  211.4000  153.2890 N   0  0  0  0  0  0  0  0  0  0  0  0
  158.4730  212.3320  153.0890 C   0  0  0  0  0  3  0  0  0  0  0  0
  159.9210  207.7000  155.0530 N   0  0  0  0  0  2  0  0  0  0  0  0
  159.8230  208.6910  153.9700 C   0  0  1  0  0  3  0  0  0  0  0  0
  159.7600  209.1250  155.3900 C   0  0  2  0  0  3  0  0  0  0  0  0
  162.3750  211.5770  156.6550 C   0  0  0  0  0  3  0  0  0  0  0  0
  163.2990  210.7220  157.2610 C   0  0  0  0  0  3  0  0  0  0  0  0
  161.2360  211.0520  156.0390 C   0  0  0  0  0  3  0  0  0  0  0  0
  163.0800  209.3420  157.2590 C   0  0  0  0  0  3  0  0  0  0  0  0
  161.9430  208.8170  156.6390 C   0  0  0  0  0  3  0  0  0  0  0  0
  161.0260  209.6670  156.0020 C   0  0  0  0  0  0  0  0  0  0  0  0
  161.9680  207.7230  153.0640 C   0  0  0  0  0  2  0  0  0  0  0  0
  160.5890  205.5490  149.6290 C   0  0  0  0  0  3  0  0  0  0  0  0
  161.4940  206.9710  151.8640 C   0  0  0  0  0  0  0  0  0  0  0  0
  161.2470  205.5970  151.9590 C   0  0  0  0  0  3  0  0  0  0  0  0
  160.7970  204.8870  150.8430 C   0  0  0  0  0  3  0  0  0  0  0  0
  160.8310  206.9220  149.5320 C   0  0  0  0  0  3  0  0  0  0  0  0
  161.2820  207.6330  150.6490 C   0  0  0  0  0  3  0  0  0  0  0  0
  2  3  2  0  0  0  0
  3  1  1  0  0  0  0
  4 11  1  0  0  0  0
  5  9  1  0  0  0  0
  6  8  2  0  0  0  0
  7  6  1  0  0  0  0
  8  3  1  0  0  0  0
  8 10  1  0  0  0  0
  9  6  1  0  0  0  0
  9  4  2  0  0  0  0
 11 10  2  0  0  0  0
 12 14  1  0  0  0  0
 13  1  1  1  0  0  0
 13 12  1  0  0  0  0
 13 14  1  0  0  0  0
 14 20  1  1  0  0  0
 15 16  1  0  0  0  0
 17 15  2  0  0  0  0
 18 16  2  0  0  0  0
 19 18  1  0  0  0  0
 20 17  1  0  0  0  0
 20 19  2  0  0  0  0
 21  1  1  0  0  0  0
 22 25  1  0  0  0  0
 23 24  1  0  0  0  0
 23 21  1  0  0  0  0
 25 24  2  0  0  0  0
 26 22  2  0  0  0  0
 26 27  1  0  0  0  0
 27 23  2  0  0  0  0
M  END
>  <MODEL>
4

>  <REMARK>
 VINA RESULT:      -3.4     10.582     13.835
  Name = 
  5 active torsions:
  status: ('A' for Active; 'I' for Inactive)
    1  A    between atoms: N_2  and  C_6
    2  A    between atoms: N_2  and  C_15
    3  A    between atoms: C_6  and  C_9
    4  A    between atoms: C_14  and  C_19
    5  A    between atoms: C_18  and  C_26
                            x       y       z     vdW  Elec       q    Type
                         _______ _______ _______ _____ _____    ______ ____

>  <TORSDO>
F 5

$$$$
=
 OpenBabel11052423193D

 27 30  0  0  1  0  0  0  0  0999 V2000
  161.4010  206.6670  149.2080 N   0  0  0  0  0  0  0  0  0  0  0  0
  159.1380  206.1020  149.3120 O   0  0  0  0  0  0  0  0  0  0  0  0
  160.3200  205.8090  149.6380 C   0  0  0  0  0  0  0  0  0  0  0  0
  161.0310  202.3290  152.0070 C   0  0  0  0  0  3  0  0  0  0  0  0
  161.2060  200.8690  149.9990 C   0  0  0  0  0  1  0  0  0  0  0  0
  160.7620  203.3360  149.8230 C   0  0  0  0  0  0  0  0  0  0  0  0
  160.7100  203.2100  148.4720 F   0  0  0  0  0  0  0  0  0  0  0  0
  160.5560  204.5850  150.4420 C   0  0  0  0  0  0  0  0  0  0  0  0
  160.9960  202.2060  150.6190 C   0  0  0  0  0  0  0  0  0  0  0  0
  160.6030  204.6660  151.8020 N   0  0  0  0  0  0  0  0  0  0  0  0
  160.8310  203.5800  152.5870 C   0  0  0  0  0  3  0  0  0  0  0  0
  163.5580  207.7200  149.5330 N   0  0  0  0  0  2  0  0  0  0  0  0
  162.7680  206.4930  149.7210 C   0  0  1  0  0  3  0  0  0  0  0  0
  163.1070  207.3520  150.8860 C   0  0  2  0  0  3  0  0  0  0  0  0
  160.2580  208.8340  152.9200 C   0  0  0  0  0  3  0  0  0  0  0  0
  160.1640  210.1210  152.3860 C   0  0  0  0  0  3  0  0  0  0  0  0
  161.2050  207.9370  152.4210 C   0  0  0  0  0  3  0  0  0  0  0  0
  161.0260  210.5150  151.3580 C   0  0  0  0  0  3  0  0  0  0  0  0
  161.9700  209.6160  150.8560 C   0  0  0  0  0  3  0  0  0  0  0  0
  162.0490  208.3110  151.3670 C   0  0  0  0  0  0  0  0  0  0  0  0
  161.2020  207.4810  148.0090 C   0  0  0  0  0  2  0  0  0  0  0  0
  161.2380  205.0430  144.4750 C   0  0  0  0  0  3  0  0  0  0  0  0
  161.2100  206.6390  146.7750 C   0  0  0  0  0  0  0  0  0  0  0  0
  162.3510  205.8970  146.4490 C   0  0  0  0  0  3  0  0  0  0  0  0
  162.3650  205.1010  145.3000 C   0  0  0  0  0  3  0  0  0  0  0  0
  160.0960  205.7800  144.8010 C   0  0  0  0  0  3  0  0  0  0  0  0
  160.0810  206.5760  145.9500 C   0  0  0  0  0  3  0  0  0  0  0  0
  1  3  1  0  0  0  0
  2  3  2  0  0  0  0
  3  8  1  0  0  0  0
  4 11  1  0  0  0  0
  5  9  1  0  0  0  0
  6  8  2  0  0  0  0
  6  9  1  0  0  0  0
  7  6  1  0  0  0  0
  8 10  1  0  0  0  0
  9  4  2  0  0  0  0
 10 11  2  0  0  0  0
 12 13  1  0  0  0  0
 12 14  1  0  0  0  0
 13  1  1  6  0  0  0
 13 14  1  0  0  0  0
 14 20  1  6  0  0  0
 16 15  2  0  0  0  0
 17 15  1  0  0  0  0
 18 16  1  0  0  0  0
 19 18  2  0  0  0  0
 19 20  1  0  0  0  0
 20 17  2  0  0  0  0
 21  1  1  0  0  0  0
 22 26  2  0  0  0  0
 22 25  1  0  0  0  0
 23 21  1  0  0  0  0
 24 23  1  0  0  0  0
 25 24  2  0  0  0  0
 26 27  1  0  0  0  0
 27 23  2  0  0  0  0
M  END
>  <MODEL>
5

>  <REMARK>
 VINA RESULT:      -3.4      9.266     12.088
  Name = 
  5 active torsions:
  status: ('A' for Active; 'I' for Inactive)
    1  A    between atoms: N_2  and  C_6
    2  A    between atoms: N_2  and  C_15
    3  A    between atoms: C_6  and  C_9
    4  A    between atoms: C_14  and  C_19
    5  A    between atoms: C_18  and  C_26
                            x       y       z     vdW  Elec       q    Type
                         _______ _______ _______ _____ _____    ______ ____

>  <TORSDO>
F 5

$$$$
=
 OpenBabel11052423193D

 27 30  0  0  1  0  0  0  0  0999 V2000
  160.6720  210.9990  139.1660 N   0  0  0  0  0  0  0  0  0  0  0  0
  159.9140  210.4840  137.0180 O   0  0  0  0  0  0  0  0  0  0  0  0
  159.6140  210.7270  138.2190 C   0  0  0  0  0  0  0  0  0  0  0  0
  155.4900  210.6190  139.3160 C   0  0  0  0  0  3  0  0  0  0  0  0
  155.3680  213.0980  139.5100 C   0  0  0  0  0  1  0  0  0  0  0  0
  157.4870  211.9100  138.8670 C   0  0  0  0  0  0  0  0  0  0  0  0
  158.1150  213.1120  138.7970 F   0  0  0  0  0  0  0  0  0  0  0  0
  158.1840  210.7120  138.6140 C   0  0  0  0  0  0  0  0  0  0  0  0
  156.1320  211.8530  139.2240 C   0  0  0  0  0  0  0  0  0  0  0  0
  157.5200  209.5260  138.7090 N   0  0  0  0  0  0  0  0  0  0  0  0
  156.2070  209.4540  139.0510 C   0  0  0  0  0  3  0  0  0  0  0  0
  161.6000  211.5200  141.3430 N   0  0  0  0  0  2  0  0  0  0  0  0
  160.3790  211.4850  140.5220 C   0  0  1  0  0  3  0  0  0  0  0  0
  161.0130  212.7840  140.8670 C   0  0  2  0  0  3  0  0  0  0  0  0
  164.1300  213.9170  139.0090 C   0  0  0  0  0  3  0  0  0  0  0  0
  163.5870  214.4530  137.8390 C   0  0  0  0  0  3  0  0  0  0  0  0
  163.2890  213.3890  139.9920 C   0  0  0  0  0  3  0  0  0  0  0  0
  162.2020  214.4530  137.6480 C   0  0  0  0  0  3  0  0  0  0  0  0
  161.3620  213.9280  138.6330 C   0  0  0  0  0  3  0  0  0  0  0  0
  161.8990  213.4160  139.8250 C   0  0  0  0  0  0  0  0  0  0  0  0
  162.0040  210.4640  138.8870 C   0  0  0  0  0  2  0  0  0  0  0  0
  162.0770  206.1820  139.1860 C   0  0  0  0  0  3  0  0  0  0  0  0
  162.0230  208.9740  138.9970 C   0  0  0  0  0  0  0  0  0  0  0  0
  162.1160  208.1940  137.8400 C   0  0  0  0  0  3  0  0  0  0  0  0
  162.1420  206.8000  137.9340 C   0  0  0  0  0  3  0  0  0  0  0  0
  161.9880  206.9590  140.3450 C   0  0  0  0  0  3  0  0  0  0  0  0
  161.9630  208.3550  140.2500 C   0  0  0  0  0  3  0  0  0  0  0  0
  2  3  2  0  0  0  0
  3  8  1  0  0  0  0
  3  1  1  0  0  0  0
  6  9  2  0  0  0  0
  7  6  1  0  0  0  0
  8 10  2  0  0  0  0
  8  6  1  0  0  0  0
  9  4  1  0  0  0  0
  9  5  1  0  0  0  0
 10 11  1  0  0  0  0
 11  4  2  0  0  0  0
 13  1  1  6  0  0  0
 13 14  1  0  0  0  0
 13 12  1  0  0  0  0
 14 20  1  6  0  0  0
 14 12  1  0  0  0  0
 15 17  1  0  0  0  0
 16 15  2  0  0  0  0
 18 16  1  0  0  0  0
 18 19  2  0  0  0  0
 19 20  1  0  0  0  0
 20 17  2  0  0  0  0
 21 23  1  0  0  0  0
 21  1  1  0  0  0  0
 22 26  1  0  0  0  0
 23 27  1  0  0  0  0
 24 25  1  0  0  0  0
 24 23  2  0  0  0  0
 25 22  2  0  0  0  0
 27 26  2  0  0  0  0
M  END
>  <MODEL>
6

>  <REMARK>
 VINA RESULT:      -3.1      2.552      5.131
  Name = 
  5 active torsions:
  status: ('A' for Active; 'I' for Inactive)
    1  A    between atoms: N_2  and  C_6
    2  A    between atoms: N_2  and  C_15
    3  A    between atoms: C_6  and  C_9
    4  A    between atoms: C_14  and  C_19
    5  A    between atoms: C_18  and  C_26
                            x       y       z     vdW  Elec       q    Type
                         _______ _______ _______ _____ _____    ______ ____

>  <TORSDO>
F 5

$$$$
=
 OpenBabel11052423193D

 27 30  0  0  1  0  0  0  0  0999 V2000
  158.6770  212.9040  154.4950 N   0  0  0  0  0  0  0  0  0  0  0  0
  157.4000  211.4260  153.2160 O   0  0  0  0  0  0  0  0  0  0  0  0
  158.4050  211.5890  153.9610 C   0  0  0  0  0  0  0  0  0  0  0  0
  160.9200  208.2590  154.8630 C   0  0  0  0  0  3  0  0  0  0  0  0
  161.7610  208.1270  152.5230 C   0  0  0  0  0  1  0  0  0  0  0  0
  160.0840  209.8530  153.2450 C   0  0  0  0  0  0  0  0  0  0  0  0
  160.0570  210.3280  151.9730 F   0  0  0  0  0  0  0  0  0  0  0  0
  159.2770  210.4240  154.2490 C   0  0  0  0  0  0  0  0  0  0  0  0
  160.9040  208.7620  153.5620 C   0  0  0  0  0  0  0  0  0  0  0  0
  159.3240  209.9080  155.5100 N   0  0  0  0  0  0  0  0  0  0  0  0
  160.1150  208.8520  155.8340 C   0  0  0  0  0  3  0  0  0  0  0  0
  159.5820  214.4530  156.1240 N   0  0  0  0  0  2  0  0  0  0  0  0
  159.7060  213.1150  155.5240 C   0  0  1  0  0  3  0  0  0  0  0  0
  159.1810  213.2700  156.9050 C   0  0  2  0  0  3  0  0  0  0  0  0
  155.5680  214.4240  157.1660 C   0  0  0  0  0  3  0  0  0  0  0  0
  154.8860  213.2090  157.2610 C   0  0  0  0  0  3  0  0  0  0  0  0
  156.9620  214.4370  157.0630 C   0  0  0  0  0  3  0  0  0  0  0  0
  155.5970  212.0050  157.2440 C   0  0  0  0  0  3  0  0  0  0  0  0
  156.9900  212.0190  157.1460 C   0  0  0  0  0  3  0  0  0  0  0  0
  157.6850  213.2380  157.0810 C   0  0  0  0  0  0  0  0  0  0  0  0
  158.1670  214.0650  153.7660 C   0  0  0  0  0  2  0  0  0  0  0  0
  158.9460  213.7520  149.5560 C   0  0  0  0  0  3  0  0  0  0  0  0
  158.4440  213.9500  152.3030 C   0  0  0  0  0  0  0  0  0  0  0  0
  157.4020  214.1200  151.3840 C   0  0  0  0  0  3  0  0  0  0  0  0
  157.6530  214.0200  150.0130 C   0  0  0  0  0  3  0  0  0  0  0  0
  159.9900  213.5860  150.4710 C   0  0  0  0  0  3  0  0  0  0  0  0
  159.7390  213.6860  151.8430 C   0  0  0  0  0  3  0  0  0  0  0  0
  2  3  2  0  0  0  0
  3  8  1  0  0  0  0
  3  1  1  0  0  0  0
  4 11  1  0  0  0  0
  5  9  1  0  0  0  0
  6  9  1  0  0  0  0
  6  8  2  0  0  0  0
  7  6  1  0  0  0  0
  8 10  1  0  0  0  0
  9  4  2  0  0  0  0
 10 11  2  0  0  0  0
 12 14  1  0  0  0  0
 13  1  1  6  0  0  0
 13 12  1  0  0  0  0
 13 14  1  0  0  0  0
 14 20  1  6  0  0  0
 15 16  1  0  0  0  0
 17 20  1  0  0  0  0
 17 15  2  0  0  0  0
 18 16  2  0  0  0  0
 19 18  1  0  0  0  0
 20 19  2  0  0  0  0
 21  1  1  0  0  0  0
 22 25  2  0  0  0  0
 22 26  1  0  0  0  0
 23 21  1  0  0  0  0
 24 23  2  0  0  0  0
 25 24  1  0  0  0  0
 26 27  2  0  0  0  0
 27 23  1  0  0  0  0
M  END
>  <MODEL>
7

>  <REMARK>
 VINA RESULT:      -3.0     10.815     14.972
  Name = 
  5 active torsions:
  status: ('A' for Active; 'I' for Inactive)
    1  A    between atoms: N_2  and  C_6
    2  A    between atoms: N_2  and  C_15
    3  A    between atoms: C_6  and  C_9
    4  A    between atoms: C_14  and  C_19
    5  A    between atoms: C_18  and  C_26
                            x       y       z     vdW  Elec       q    Type
                         _______ _______ _______ _____ _____    ______ ____

>  <TORSDO>
F 5

$$$$
=
 OpenBabel11052423193D

 27 30  0  0  1  0  0  0  0  0999 V2000
  162.0010  206.7640  149.4980 N   0  0  0  0  0  0  0  0  0  0  0  0
  163.8560  206.3600  150.8570 O   0  0  0  0  0  0  0  0  0  0  0  0
  162.6560  206.7400  150.7860 C   0  0  0  0  0  0  0  0  0  0  0  0
  160.6450  207.8760  154.3760 C   0  0  0  0  0  3  0  0  0  0  0  0
  160.3280  210.2140  153.5840 C   0  0  0  0  0  1  0  0  0  0  0  0
  161.4910  208.4770  152.1910 C   0  0  0  0  0  0  0  0  0  0  0  0
  161.6890  209.4120  151.2260 F   0  0  0  0  0  0  0  0  0  0  0  0
  161.9660  207.1600  152.0310 C   0  0  0  0  0  0  0  0  0  0  0  0
  160.8320  208.8290  153.3760 C   0  0  0  0  0  0  0  0  0  0  0  0
  161.7590  206.2550  153.0290 N   0  0  0  0  0  0  0  0  0  0  0  0
  161.1190  206.5800  154.1830 C   0  0  0  0  0  3  0  0  0  0  0  0
  159.9830  206.2030  148.2810 N   0  0  0  0  0  2  0  0  0  0  0  0
  160.5550  207.0000  149.3770 C   0  0  1  0  0  3  0  0  0  0  0  0
  159.7060  205.8180  149.6750 C   0  0  2  0  0  3  0  0  0  0  0  0
  161.2070  202.9670  151.6940 C   0  0  0  0  0  3  0  0  0  0  0  0
  161.5910  202.0760  150.6890 C   0  0  0  0  0  3  0  0  0  0  0  0
  160.6080  204.1840  151.3580 C   0  0  0  0  0  3  0  0  0  0  0  0
  161.3680  202.3980  149.3470 C   0  0  0  0  0  3  0  0  0  0  0  0
  160.7720  203.6170  149.0120 C   0  0  0  0  0  3  0  0  0  0  0  0
  160.4120  204.5310  150.0150 C   0  0  0  0  0  0  0  0  0  0  0  0
  162.8340  206.8950  148.3020 C   0  0  0  0  0  2  0  0  0  0  0  0
  161.3200  204.5100  145.0690 C   0  0  0  0  0  3  0  0  0  0  0  0
  162.3070  206.0580  147.1820 C   0  0  0  0  0  0  0  0  0  0  0  0
  161.3300  206.5790  146.3260 C   0  0  0  0  0  3  0  0  0  0  0  0
  160.8370  205.8050  145.2720 C   0  0  0  0  0  3  0  0  0  0  0  0
  162.2980  203.9880  145.9200 C   0  0  0  0  0  3  0  0  0  0  0  0
  162.7930  204.7620  146.9750 C   0  0  0  0  0  3  0  0  0  0  0  0
  1  3  1  0  0  0  0
  3  2  2  0  0  0  0
  3  8  1  0  0  0  0
  6  9  1  0  0  0  0
  7  6  1  0  0  0  0
  8  6  2  0  0  0  0
  8 10  1  0  0  0  0
  9  5  1  0  0  0  0
  9  4  2  0  0  0  0
 10 11  2  0  0  0  0
 11  4  1  0  0  0  0
 12 13  1  0  0  0  0
 12 14  1  0  0  0  0
 13  1  1  1  0  0  0
 13 14  1  0  0  0  0
 14 20  1  1  0  0  0
 16 15  2  0  0  0  0
 17 15  1  0  0  0  0
 18 16  1  0  0  0  0
 19 18  2  0  0  0  0
 19 20  1  0  0  0  0
 20 17  2  0  0  0  0
 21  1  1  0  0  0  0
 22 25  2  0  0  0  0
 22 26  1  0  0  0  0
 23 21  1  0  0  0  0
 24 23  2  0  0  0  0
 25 24  1  0  0  0  0
 26 27  2  0  0  0  0
 27 23  1  0  0  0  0
M  END
>  <MODEL>
8

>  <REMARK>
 VINA RESULT:      -2.9      9.537     12.165
  Name = 
  5 active torsions:
  status: ('A' for Active; 'I' for Inactive)
    1  A    between atoms: N_2  and  C_6
    2  A    between atoms: N_2  and  C_15
    3  A    between atoms: C_6  and  C_9
    4  A    between atoms: C_14  and  C_19
    5  A    between atoms: C_18  and  C_26
                            x       y       z     vdW  Elec       q    Type
                         _______ _______ _______ _____ _____    ______ ____

>  <TORSDO>
F 5

$$$$
=
 OpenBabel11052423193D

 27 30  0  0  1  0  0  0  0  0999 V2000
  160.2440  211.2490  154.4010 N   0  0  0  0  0  0  0  0  0  0  0  0
  158.4910  210.4660  153.0710 O   0  0  0  0  0  0  0  0  0  0  0  0
  159.7270  210.6970  153.1680 C   0  0  0  0  0  0  0  0  0  0  0  0
  162.2800  209.8010  149.8660 C   0  0  0  0  0  3  0  0  0  0  0  0
  162.0740  212.1050  148.9470 C   0  0  0  0  0  1  0  0  0  0  0  0
  160.9020  211.3970  151.0540 C   0  0  0  0  0  0  0  0  0  0  0  0
  160.3670  212.6420  151.1500 F   0  0  0  0  0  0  0  0  0  0  0  0
  160.6010  210.4040  152.0060 C   0  0  0  0  0  0  0  0  0  0  0  0
  161.7440  211.0840  149.9780 C   0  0  0  0  0  0  0  0  0  0  0  0
  161.1480  209.1630  151.8660 N   0  0  0  0  0  0  0  0  0  0  0  0
  161.9680  208.8440  150.8300 C   0  0  0  0  0  3  0  0  0  0  0  0
  161.9760  211.3530  156.0910 N   0  0  0  0  0  2  0  0  0  0  0  0
  161.6900  211.3500  154.6470 C   0  0  1  0  0  3  0  0  0  0  0  0
  162.2940  210.1560  155.2930 C   0  0  2  0  0  3  0  0  0  0  0  0
  160.3870  206.8730  155.0960 C   0  0  0  0  0  3  0  0  0  0  0  0
  159.7650  206.8280  156.3460 C   0  0  0  0  0  3  0  0  0  0  0  0
  161.1950  207.9610  154.7560 C   0  0  0  0  0  3  0  0  0  0  0  0
  159.9590  207.8670  157.2610 C   0  0  0  0  0  3  0  0  0  0  0  0
  160.7640  208.9560  156.9190 C   0  0  0  0  0  3  0  0  0  0  0  0
  161.3670  209.0230  155.6530 C   0  0  0  0  0  0  0  0  0  0  0  0
  159.3330  212.0170  155.2490 C   0  0  0  0  0  2  0  0  0  0  0  0
  156.5380  214.2890  152.9140 C   0  0  0  0  0  3  0  0  0  0  0  0
  158.3650  212.8060  154.4300 C   0  0  0  0  0  0  0  0  0  0  0  0
  156.9910  212.6470  154.6350 C   0  0  0  0  0  3  0  0  0  0  0  0
  156.0780  213.3860  153.8770 C   0  0  0  0  0  3  0  0  0  0  0  0
  157.9100  214.4530  152.7100 C   0  0  0  0  0  3  0  0  0  0  0  0
  158.8240  213.7130  153.4680 C   0  0  0  0  0  3  0  0  0  0  0  0
  1 21  1  0  0  0  0
  2  3  2  0  0  0  0
  3  1  1  0  0  0  0
  4  9  2  0  0  0  0
  4 11  1  0  0  0  0
  5  9  1  0  0  0  0
  6  7  1  0  0  0  0
  6  8  2  0  0  0  0
  8  3  1  0  0  0  0
  9  6  1  0  0  0  0
 10  8  1  0  0  0  0
 11 10  2  0  0  0  0
 13  1  1  1  0  0  0
 13 14  1  0  0  0  0
 13 12  1  0  0  0  0
 14 20  1  1  0  0  0
 14 12  1  0  0  0  0
 15 16  1  0  0  0  0
 16 18  2  0  0  0  0
 17 15  2  0  0  0  0
 17 20  1  0  0  0  0
 19 18  1  0  0  0  0
 20 19  2  0  0  0  0
 22 25  1  0  0  0  0
 23 24  1  0  0  0  0
 23 21  1  0  0  0  0
 25 24  2  0  0  0  0
 26 22  2  0  0  0  0
 26 27  1  0  0  0  0
 27 23  2  0  0  0  0
M  END
>  <MODEL>
9

>  <REMARK>
 VINA RESULT:      -2.6      9.998     14.277
  Name = 
  5 active torsions:
  status: ('A' for Active; 'I' for Inactive)
    1  A    between atoms: N_2  and  C_6
    2  A    between atoms: N_2  and  C_15
    3  A    between atoms: C_6  and  C_9
    4  A    between atoms: C_14  and  C_19
    5  A    between atoms: C_18  and  C_26
                            x       y       z     vdW  Elec       q    Type
                         _______ _______ _______ _____ _____    ______ ____

>  <TORSDO>
F 5

$$$$
