=
 OpenBabel11062409493D

 34 38  0  0  1  0  0  0  0  0999 V2000
  158.2320  211.5740  152.7790 C   0  0  1  0  0  3  0  0  0  0  0  0
  157.5080  214.1320  149.8790 C   0  0  0  0  0  2  0  0  0  0  0  0
  157.0410  214.2530  152.3680 C   0  0  0  0  0  2  0  0  0  0  0  0
  160.3660  211.1610  154.0860 C   0  0  1  0  0  3  0  0  0  0  0  0
  159.2910  210.5470  153.1870 C   0  0  0  0  0  2  0  0  0  0  0  0
  158.7620  212.9200  154.9290 C   0  0  2  0  0  3  0  0  0  0  0  0
  159.4360  214.0130  154.3780 O   0  0  0  0  0  1  0  0  0  0  0  0
  159.7510  211.8250  155.3200 C   0  0  0  0  0  2  0  0  0  0  0  0
  156.6000  213.3920  153.5490 C   0  0  1  0  0  3  0  0  0  0  0  0
  157.6760  212.3750  153.9800 C   0  0  1  0  0  3  0  0  0  0  0  0
  156.1140  214.2580  154.6970 C   0  0  0  0  0  1  0  0  0  0  0  0
  158.6750  213.6860  148.9970 C   0  0  0  0  0  2  0  0  0  0  0  0
  159.9890  214.3330  149.4400 C   0  0  1  0  0  3  0  0  0  0  0  0
  160.1430  214.4490  150.9630 C   0  0  0  0  0  2  0  0  0  0  0  0
  157.4140  213.3480  151.1990 C   0  0  2  0  0  3  0  0  0  0  0  0
  159.9770  213.1240  151.7090 C   0  0  0  0  0  2  0  0  0  0  0  0
  158.6050  212.4290  151.5520 C   0  0  1  0  0  3  0  0  0  0  0  0
  161.1730  213.6230  148.8040 C   0  0  0  0  0  2  0  0  0  0  0  0
  161.7310  211.5460  148.7860 O   0  0  0  0  0  1  0  0  0  0  0  0
  160.7860  212.3550  148.3570 O   0  0  0  0  0  0  0  0  0  0  0  0
  161.4410  210.1380  154.4550 C   0  0  0  0  0  2  0  0  0  0  0  0
  161.0790  206.4480  153.6190 C   0  0  0  0  0  3  0  0  0  0  0  0
  161.4050  208.8840  152.2850 C   0  0  0  0  0  3  0  0  0  0  0  0
  160.7850  205.3430  149.9910 C   0  0  1  0  0  3  0  0  0  0  0  0
  161.0830  205.1610  151.4830 C   0  0  0  0  0  2  0  0  0  0  0  0
  161.1280  206.4690  152.2230 C   0  0  0  0  0  0  0  0  0  0  0  0
  161.3080  207.7810  150.0510 C   0  0  0  0  0  2  0  0  0  0  0  0
  161.3160  207.6980  151.5500 C   0  0  0  0  0  0  0  0  0  0  0  0
  161.6570  206.4470  149.3970 C   0  0  0  0  0  2  0  0  0  0  0  0
  161.3440  208.8580  153.6800 C   0  0  0  0  0  0  0  0  0  0  0  0
  161.1790  207.6370  154.3450 C   0  0  0  0  0  3  0  0  0  0  0  0
  160.9470  204.0350  149.2210 C   0  0  0  0  0  2  0  0  0  0  0  0
  160.6250  202.8140  150.0710 C   0  0  0  0  0  2  0  0  0  0  0  0
  160.1930  201.7270  149.2110 N   0  0  0  0  0  1  0  0  0  0  0  0
  1  5  1  1  0  0  0
  1 10  1  0  0  0  0
  2 15  1  0  0  0  0
  3  9  1  0  0  0  0
  4 21  1  1  0  0  0
  4  8  1  0  0  0  0
  5  4  1  0  0  0  0
  6  7  1  6  0  0  0
  6  8  1  0  0  0  0
  9 10  1  0  0  0  0
  9 11  1  1  0  0  0
 10  6  1  0  0  0  0
 12 13  1  0  0  0  0
 12  2  1  0  0  0  0
 13 14  1  0  0  0  0
 14 16  1  0  0  0  0
 15 17  1  0  0  0  0
 15  3  1  0  0  0  0
 17 16  1  0  0  0  0
 17  1  1  0  0  0  0
 18 13  1  0  0  0  0
 20 19  1  0  0  0  0
 20 18  1  0  0  0  0
 22 31  1  0  0  0  0
 23 30  1  0  0  0  0
 24 25  1  0  0  0  0
 25 26  1  0  0  0  0
 26 22  2  0  0  0  0
 27 28  1  0  0  0  0
 28 26  1  0  0  0  0
 28 23  2  0  0  0  0
 29 24  1  0  0  0  0
 29 27  1  0  0  0  0
 30 31  2  0  0  0  0
 30 21  1  0  0  0  0
 32 24  1  0  0  0  0
 32 33  1  0  0  0  0
 34 33  1  0  0  0  0
M  END
>  <MODEL>
1

>  <REMARK>
 VINA RESULT:      -8.0      0.000      0.000
  Name = 
  6 active torsions:
  status: ('A' for Active; 'I' for Inactive)
    1  A    between atoms: C_3  and  O_24
    2  A    between atoms: C_3  and  C_25
    3  A    between atoms: C_7  and  C_11
    4  A    between atoms: C_8  and  C_18
    5  A    between atoms: C_11  and  C_15
    6  A    between atoms: C_18  and  C_30
                            x       y       z     vdW  Elec       q    Type
                         _______ _______ _______ _____ _____    ______ ____

>  <TORSDO>
F 6

$$$$
=
 OpenBabel11062409493D

 34 38  0  0  1  0  0  0  0  0999 V2000
  157.9390  211.5310  153.8720 C   0  0  1  0  0  3  0  0  0  0  0  0
  156.8920  214.2780  151.2580 C   0  0  0  0  0  2  0  0  0  0  0  0
  157.0490  214.3540  153.7870 C   0  0  0  0  0  2  0  0  0  0  0  0
  160.2480  210.7990  154.6240 C   0  0  1  0  0  3  0  0  0  0  0  0
  158.9200  210.3630  154.0040 C   0  0  0  0  0  2  0  0  0  0  0  0
  159.1360  212.7090  155.8460 C   0  0  2  0  0  3  0  0  0  0  0  0
  159.7980  213.7310  155.1610 O   0  0  0  0  0  1  0  0  0  0  0  0
  160.0360  211.4830  155.9760 C   0  0  0  0  0  2  0  0  0  0  0  0
  156.7900  213.5070  155.0310 C   0  0  1  0  0  3  0  0  0  0  0  0
  157.7940  212.3450  155.1800 C   0  0  1  0  0  3  0  0  0  0  0  0
  156.7090  214.3780  156.2710 C   0  0  0  0  0  1  0  0  0  0  0  0
  157.7480  213.7260  150.1170 C   0  0  0  0  0  2  0  0  0  0  0  0
  159.2030  214.1850  150.2380 C   0  0  1  0  0  3  0  0  0  0  0  0
  159.7280  214.2160  151.6800 C   0  0  0  0  0  2  0  0  0  0  0  0
  157.0120  213.4580  152.5540 C   0  0  2  0  0  3  0  0  0  0  0  0
  159.5700  212.8930  152.4300 C   0  0  0  0  0  2  0  0  0  0  0  0
  158.1210  212.3830  152.6010 C   0  0  1  0  0  3  0  0  0  0  0  0
  160.0980  213.3580  149.3280 C   0  0  0  0  0  2  0  0  0  0  0  0
  162.1190  213.2230  148.6050 O   0  0  0  0  0  1  0  0  0  0  0  0
  161.2070  214.1130  148.9340 O   0  0  0  0  0  0  0  0  0  0  0  0
  161.2360  209.6350  154.7140 C   0  0  0  0  0  2  0  0  0  0  0  0
  161.0860  208.3500  151.1390 C   0  0  0  0  0  3  0  0  0  0  0  0
  161.1940  207.3260  153.7390 C   0  0  0  0  0  3  0  0  0  0  0  0
  161.3940  204.6230  150.4470 C   0  0  1  0  0  3  0  0  0  0  0  0
  160.9970  206.0690  150.1350 C   0  0  0  0  0  2  0  0  0  0  0  0
  161.1110  206.9670  151.3350 C   0  0  0  0  0  0  0  0  0  0  0  0
  161.2380  204.9730  152.9110 C   0  0  0  0  0  2  0  0  0  0  0  0
  161.1420  206.4490  152.6510 C   0  0  0  0  0  0  0  0  0  0  0  0
  160.7280  204.1460  151.7350 C   0  0  0  0  0  2  0  0  0  0  0  0
  161.1800  208.7080  153.5360 C   0  0  0  0  0  0  0  0  0  0  0  0
  161.1270  209.2170  152.2340 C   0  0  0  0  0  3  0  0  0  0  0  0
  161.0770  203.6890  149.2820 C   0  0  0  0  0  2  0  0  0  0  0  0
  160.4380  202.3840  149.7360 C   0  0  0  0  0  2  0  0  0  0  0  0
  160.7740  201.3290  148.7960 N   0  0  0  0  0  1  0  0  0  0  0  0
  1  5  1  1  0  0  0
  1 10  1  0  0  0  0
  2 15  1  0  0  0  0
  3  9  1  0  0  0  0
  4 21  1  1  0  0  0
  4  8  1  0  0  0  0
  5  4  1  0  0  0  0
  6  7  1  6  0  0  0
  6  8  1  0  0  0  0
  9 10  1  0  0  0  0
  9 11  1  1  0  0  0
 10  6  1  0  0  0  0
 12 13  1  0  0  0  0
 12  2  1  0  0  0  0
 13 14  1  0  0  0  0
 14 16  1  0  0  0  0
 15 17  1  0  0  0  0
 15  3  1  0  0  0  0
 16 17  1  0  0  0  0
 17  1  1  0  0  0  0
 18 13  1  0  0  0  0
 19 20  1  0  0  0  0
 20 18  1  0  0  0  0
 22 26  2  0  0  0  0
 22 31  1  0  0  0  0
 24 29  1  0  0  0  0
 25 24  1  0  0  0  0
 25 26  1  0  0  0  0
 26 28  1  0  0  0  0
 28 27  1  0  0  0  0
 28 23  2  0  0  0  0
 29 27  1  0  0  0  0
 30 23  1  0  0  0  0
 30 21  1  0  0  0  0
 31 30  2  0  0  0  0
 32 33  1  0  0  0  0
 32 24  1  0  0  0  0
 34 33  1  0  0  0  0
M  END
>  <MODEL>
2

>  <REMARK>
 VINA RESULT:      -7.8      0.977      1.630
  Name = 
  6 active torsions:
  status: ('A' for Active; 'I' for Inactive)
    1  A    between atoms: C_3  and  O_24
    2  A    between atoms: C_3  and  C_25
    3  A    between atoms: C_7  and  C_11
    4  A    between atoms: C_8  and  C_18
    5  A    between atoms: C_11  and  C_15
    6  A    between atoms: C_18  and  C_30
                            x       y       z     vdW  Elec       q    Type
                         _______ _______ _______ _____ _____    ______ ____

>  <TORSDO>
F 6

$$$$
=
 OpenBabel11062409493D

 34 38  0  0  1  0  0  0  0  0999 V2000
  159.2050  210.1440  153.4130 C   0  0  1  0  0  3  0  0  0  0  0  0
  156.5890  213.0800  153.5490 C   0  0  0  0  0  2  0  0  0  0  0  0
  158.1010  212.1050  155.3370 C   0  0  0  0  0  2  0  0  0  0  0  0
  161.6120  210.1480  152.6150 C   0  0  1  0  0  3  0  0  0  0  0  0
  160.2220  209.5350  152.4440 C   0  0  0  0  0  2  0  0  0  0  0  0
  161.1470  210.7170  155.0310 C   0  0  2  0  0  3  0  0  0  0  0  0
  161.2020  212.1040  154.8710 O   0  0  0  0  0  1  0  0  0  0  0  0
  162.1030  210.0290  154.0590 C   0  0  0  0  0  2  0  0  0  0  0  0
  158.6670  210.7790  155.8370 C   0  0  1  0  0  3  0  0  0  0  0  0
  159.7110  210.1760  154.8740 C   0  0  1  0  0  3  0  0  0  0  0  0
  159.1820  210.9120  157.2580 C   0  0  0  0  0  1  0  0  0  0  0  0
  156.7330  213.4710  152.0780 C   0  0  0  0  0  2  0  0  0  0  0  0
  157.9520  214.3690  151.8550 C   0  0  1  0  0  3  0  0  0  0  0  0
  159.1750  213.9780  152.6950 C   0  0  0  0  0  2  0  0  0  0  0  0
  157.4940  211.9030  153.9530 C   0  0  2  0  0  3  0  0  0  0  0  0
  159.6080  212.5210  152.5280 C   0  0  0  0  0  2  0  0  0  0  0  0
  158.5600  211.4570  152.9270 C   0  0  1  0  0  3  0  0  0  0  0  0
  158.2870  214.4530  150.3740 C   0  0  0  0  0  2  0  0  0  0  0  0
  159.8400  214.2670  148.8980 O   0  0  0  0  0  1  0  0  0  0  0  0
  159.5650  213.9380  150.1420 O   0  0  0  0  0  0  0  0  0  0  0  0
  162.6110  209.5630  151.6150 C   0  0  0  0  0  2  0  0  0  0  0  0
  161.3490  207.1090  149.0020 C   0  0  0  0  0  3  0  0  0  0  0  0
  162.0640  207.1190  151.7050 C   0  0  0  0  0  3  0  0  0  0  0  0
  161.0680  203.4110  149.8480 C   0  0  1  0  0  3  0  0  0  0  0  0
  160.7520  204.6880  149.0630 C   0  0  0  0  0  2  0  0  0  0  0  0
  161.2840  205.9220  149.7370 C   0  0  0  0  0  0  0  0  0  0  0  0
  161.6360  204.6710  151.9240 C   0  0  0  0  0  2  0  0  0  0  0  0
  161.6240  205.9330  151.1090 C   0  0  0  0  0  0  0  0  0  0  0  0
  160.7380  203.5910  151.3280 C   0  0  0  0  0  2  0  0  0  0  0  0
  162.1370  208.2990  150.9620 C   0  0  0  0  0  0  0  0  0  0  0  0
  161.7800  208.2910  149.6090 C   0  0  0  0  0  3  0  0  0  0  0  0
  160.3480  202.1990  149.2640 C   0  0  0  0  0  2  0  0  0  0  0  0
  161.2780  201.0120  149.0550 C   0  0  0  0  0  2  0  0  0  0  0  0
  161.1180  200.5030  147.7050 N   0  0  0  0  0  1  0  0  0  0  0  0
  1  5  1  6  0  0  0
  1 10  1  0  0  0  0
  2 15  1  0  0  0  0
  3  9  1  0  0  0  0
  4 21  1  6  0  0  0
  4  8  1  0  0  0  0
  5  4  1  0  0  0  0
  6  7  1  6  0  0  0
  8  6  1  0  0  0  0
  9 11  1  1  0  0  0
 10  6  1  0  0  0  0
 10  9  1  0  0  0  0
 12  2  1  0  0  0  0
 13 12  1  0  0  0  0
 13 14  1  0  0  0  0
 15  3  1  0  0  0  0
 16 14  1  0  0  0  0
 16 17  1  0  0  0  0
 17  1  1  0  0  0  0
 17 15  1  0  0  0  0
 18 13  1  0  0  0  0
 19 20  1  0  0  0  0
 20 18  1  0  0  0  0
 22 31  2  0  0  0  0
 22 26  1  0  0  0  0
 24 29  1  0  0  0  0
 25 26  1  0  0  0  0
 25 24  1  0  0  0  0
 26 28  2  0  0  0  0
 28 23  1  0  0  0  0
 28 27  1  0  0  0  0
 29 27  1  0  0  0  0
 30 21  1  0  0  0  0
 30 23  2  0  0  0  0
 31 30  1  0  0  0  0
 32 24  1  0  0  0  0
 33 32  1  0  0  0  0
 34 33  1  0  0  0  0
M  END
>  <MODEL>
3

>  <REMARK>
 VINA RESULT:      -7.2      1.598      3.061
  Name = 
  6 active torsions:
  status: ('A' for Active; 'I' for Inactive)
    1  A    between atoms: C_3  and  O_24
    2  A    between atoms: C_3  and  C_25
    3  A    between atoms: C_7  and  C_11
    4  A    between atoms: C_8  and  C_18
    5  A    between atoms: C_11  and  C_15
    6  A    between atoms: C_18  and  C_30
                            x       y       z     vdW  Elec       q    Type
                         _______ _______ _______ _____ _____    ______ ____

>  <TORSDO>
F 6

$$$$
=
 OpenBabel11062409493D

 34 38  0  0  1  0  0  0  0  0999 V2000
  159.7170  212.6640  154.7090 C   0  0  1  0  0  3  0  0  0  0  0  0
  156.2150  214.3500  155.3190 C   0  0  0  0  0  2  0  0  0  0  0  0
  157.6040  214.0990  153.2120 C   0  0  0  0  0  2  0  0  0  0  0  0
  160.3040  210.2250  154.3390 C   0  0  1  0  0  3  0  0  0  0  0  0
  160.5340  211.4670  155.2010 C   0  0  0  0  0  2  0  0  0  0  0  0
  159.7160  211.6370  152.3300 C   0  0  2  0  0  3  0  0  0  0  0  0
  158.3850  211.2220  152.2400 O   0  0  0  0  0  1  0  0  0  0  0  0
  160.5930  210.5070  152.8630 C   0  0  0  0  0  2  0  0  0  0  0  0
  159.0470  214.1290  152.7160 C   0  0  1  0  0  3  0  0  0  0  0  0
  159.8650  212.9090  153.1890 C   0  0  1  0  0  3  0  0  0  0  0  0
  159.0970  214.3250  151.2120 C   0  0  0  0  0  1  0  0  0  0  0  0
  155.8260  213.4540  156.4960 C   0  0  0  0  0  2  0  0  0  0  0  0
  155.2630  212.1140  156.0140 C   0  0  1  0  0  3  0  0  0  0  0  0
  155.9820  211.5420  154.7850 C   0  0  0  0  0  2  0  0  0  0  0  0
  157.5980  214.0130  154.7350 C   0  0  2  0  0  3  0  0  0  0  0  0
  157.4950  211.4010  154.9570 C   0  0  0  0  0  2  0  0  0  0  0  0
  158.2680  212.7120  155.2310 C   0  0  1  0  0  3  0  0  0  0  0  0
  155.2190  211.1150  157.1600 C   0  0  0  0  0  2  0  0  0  0  0  0
  153.9530  209.5340  156.4350 O   0  0  0  0  0  1  0  0  0  0  0  0
  153.9400  210.5590  157.2600 O   0  0  0  0  0  0  0  0  0  0  0  0
  161.0930  209.0240  154.8630 C   0  0  0  0  0  2  0  0  0  0  0  0
  161.2240  205.4870  153.4750 C   0  0  0  0  0  3  0  0  0  0  0  0
  161.1290  208.1160  152.5260 C   0  0  0  0  0  3  0  0  0  0  0  0
  160.9110  204.9040  149.7300 C   0  0  1  0  0  3  0  0  0  0  0  0
  161.3070  204.5490  151.1660 C   0  0  0  0  0  2  0  0  0  0  0  0
  161.2000  205.7230  152.0980 C   0  0  0  0  0  0  0  0  0  0  0  0
  161.0800  207.3560  150.1510 C   0  0  0  0  0  2  0  0  0  0  0  0
  161.1750  207.0530  151.6190 C   0  0  0  0  0  0  0  0  0  0  0  0
  161.5840  206.2020  149.2900 C   0  0  0  0  0  2  0  0  0  0  0  0
  161.1420  207.8730  153.9020 C   0  0  0  0  0  0  0  0  0  0  0  0
  161.1890  206.5560  154.3740 C   0  0  0  0  0  3  0  0  0  0  0  0
  161.2210  203.7640  148.7620 C   0  0  0  0  0  2  0  0  0  0  0  0
  160.4790  202.4830  149.1130 C   0  0  0  0  0  2  0  0  0  0  0  0
  161.1800  201.3460  148.5440 N   0  0  0  0  0  1  0  0  0  0  0  0
  1  5  1  6  0  0  0
  1 17  1  0  0  0  0
  2 12  1  0  0  0  0
  3 15  1  0  0  0  0
  4 21  1  1  0  0  0
  4  5  1  0  0  0  0
  6  7  1  1  0  0  0
  6  8  1  0  0  0  0
  6 10  1  0  0  0  0
  8  4  1  0  0  0  0
  9 11  1  6  0  0  0
  9 10  1  0  0  0  0
  9  3  1  0  0  0  0
 10  1  1  0  0  0  0
 13 12  1  0  0  0  0
 13 18  1  0  0  0  0
 14 16  1  0  0  0  0
 14 13  1  0  0  0  0
 15 17  1  0  0  0  0
 15  2  1  0  0  0  0
 16 17  1  0  0  0  0
 18 20  1  0  0  0  0
 19 20  1  0  0  0  0
 22 31  1  0  0  0  0
 23 30  1  0  0  0  0
 24 25  1  0  0  0  0
 25 26  1  0  0  0  0
 26 22  2  0  0  0  0
 27 28  1  0  0  0  0
 28 26  1  0  0  0  0
 28 23  2  0  0  0  0
 29 24  1  0  0  0  0
 29 27  1  0  0  0  0
 30 31  2  0  0  0  0
 30 21  1  0  0  0  0
 32 33  1  0  0  0  0
 32 24  1  0  0  0  0
 34 33  1  0  0  0  0
M  END
>  <MODEL>
4

>  <REMARK>
 VINA RESULT:      -7.0      2.290      4.564
  Name = 
  6 active torsions:
  status: ('A' for Active; 'I' for Inactive)
    1  A    between atoms: C_3  and  O_24
    2  A    between atoms: C_3  and  C_25
    3  A    between atoms: C_7  and  C_11
    4  A    between atoms: C_8  and  C_18
    5  A    between atoms: C_11  and  C_15
    6  A    between atoms: C_18  and  C_30
                            x       y       z     vdW  Elec       q    Type
                         _______ _______ _______ _____ _____    ______ ____

>  <TORSDO>
F 6

$$$$
=
 OpenBabel11062409493D

 34 38  0  0  1  0  0  0  0  0999 V2000
  158.8790  210.3000  153.5090 C   0  0  1  0  0  3  0  0  0  0  0  0
  156.4980  213.4190  153.2110 C   0  0  0  0  0  2  0  0  0  0  0  0
  157.8230  212.5100  155.1730 C   0  0  0  0  0  2  0  0  0  0  0  0
  161.3200  210.0530  152.8720 C   0  0  1  0  0  3  0  0  0  0  0  0
  159.8980  209.5300  152.6680 C   0  0  0  0  0  2  0  0  0  0  0  0
  160.7630  210.8810  155.1920 C   0  0  2  0  0  3  0  0  0  0  0  0
  160.9360  212.2380  154.9120 O   0  0  0  0  0  1  0  0  0  0  0  0
  161.7160  210.0360  154.3500 C   0  0  0  0  0  2  0  0  0  0  0  0
  158.2530  211.1990  155.8260 C   0  0  1  0  0  3  0  0  0  0  0  0
  159.3010  210.4340  154.9920 C   0  0  1  0  0  3  0  0  0  0  0  0
  158.6940  211.4290  157.2600 C   0  0  0  0  0  1  0  0  0  0  0  0
  156.7570  213.6560  151.7220 C   0  0  0  0  0  2  0  0  0  0  0  0
  158.0540  214.4380  151.4990 C   0  0  1  0  0  3  0  0  0  0  0  0
  159.1920  214.0410  152.4490 C   0  0  0  0  0  2  0  0  0  0  0  0
  157.2820  212.2220  153.7770 C   0  0  2  0  0  3  0  0  0  0  0  0
  159.5170  212.5460  152.4420 C   0  0  0  0  0  2  0  0  0  0  0  0
  158.3680  211.6040  152.8660 C   0  0  1  0  0  3  0  0  0  0  0  0
  158.4790  214.3570  150.0410 C   0  0  0  0  0  2  0  0  0  0  0  0
  160.1310  213.3840  149.0680 O   0  0  0  0  0  1  0  0  0  0  0  0
  159.8740  214.3250  149.9510 O   0  0  0  0  0  0  0  0  0  0  0  0
  162.3270  209.3040  151.9960 C   0  0  0  0  0  2  0  0  0  0  0  0
  161.5840  205.6690  152.8220 C   0  0  0  0  0  3  0  0  0  0  0  0
  161.8580  207.2990  150.5670 C   0  0  0  0  0  3  0  0  0  0  0  0
  160.6380  203.2460  150.0480 C   0  0  1  0  0  3  0  0  0  0  0  0
  161.1580  203.6430  151.4330 C   0  0  0  0  0  2  0  0  0  0  0  0
  161.4100  205.1200  151.5500 C   0  0  0  0  0  0  0  0  0  0  0  0
  161.3280  205.4130  149.0240 C   0  0  0  0  0  2  0  0  0  0  0  0
  161.5710  205.9400  150.4090 C   0  0  0  0  0  0  0  0  0  0  0  0
  161.4760  203.8950  148.9500 C   0  0  0  0  0  2  0  0  0  0  0  0
  162.0200  207.8450  151.8430 C   0  0  0  0  0  0  0  0  0  0  0  0
  161.8810  207.0270  152.9700 C   0  0  0  0  0  3  0  0  0  0  0  0
  160.5850  201.7300  149.8800 C   0  0  0  0  0  2  0  0  0  0  0  0
  159.9600  201.3100  148.5570 C   0  0  0  0  0  2  0  0  0  0  0  0
  160.9910  200.7820  147.6820 N   0  0  0  0  0  1  0  0  0  0  0  0
  1  5  1  6  0  0  0
  1 10  1  0  0  0  0
  2 15  1  0  0  0  0
  3  9  1  0  0  0  0
  4 21  1  6  0  0  0
  4  8  1  0  0  0  0
  5  4  1  0  0  0  0
  6  7  1  6  0  0  0
  8  6  1  0  0  0  0
  9 11  1  1  0  0  0
 10  6  1  0  0  0  0
 10  9  1  0  0  0  0
 12  2  1  0  0  0  0
 13 12  1  0  0  0  0
 13 14  1  0  0  0  0
 15  3  1  0  0  0  0
 16 14  1  0  0  0  0
 16 17  1  0  0  0  0
 17  1  1  0  0  0  0
 17 15  1  0  0  0  0
 18 13  1  0  0  0  0
 19 20  1  0  0  0  0
 20 18  1  0  0  0  0
 22 31  1  0  0  0  0
 23 30  1  0  0  0  0
 24 25  1  0  0  0  0
 25 26  1  0  0  0  0
 26 22  2  0  0  0  0
 27 28  1  0  0  0  0
 28 23  2  0  0  0  0
 28 26  1  0  0  0  0
 29 27  1  0  0  0  0
 29 24  1  0  0  0  0
 30 21  1  0  0  0  0
 30 31  2  0  0  0  0
 32 24  1  0  0  0  0
 33 32  1  0  0  0  0
 34 33  1  0  0  0  0
M  END
>  <MODEL>
5

>  <REMARK>
 VINA RESULT:      -6.8      1.341      2.519
  Name = 
  6 active torsions:
  status: ('A' for Active; 'I' for Inactive)
    1  A    between atoms: C_3  and  O_24
    2  A    between atoms: C_3  and  C_25
    3  A    between atoms: C_7  and  C_11
    4  A    between atoms: C_8  and  C_18
    5  A    between atoms: C_11  and  C_15
    6  A    between atoms: C_18  and  C_30
                            x       y       z     vdW  Elec       q    Type
                         _______ _______ _______ _____ _____    ______ ____

>  <TORSDO>
F 6

$$$$
=
 OpenBabel11062409493D

 34 38  0  0  1  0  0  0  0  0999 V2000
  160.3280  209.6710  156.9250 C   0  0  1  0  0  3  0  0  0  0  0  0
  158.2450  213.0080  156.8880 C   0  0  0  0  0  2  0  0  0  0  0  0
  160.7400  212.5960  156.7100 C   0  0  0  0  0  2  0  0  0  0  0  0
  160.8080  208.0340  155.0490 C   0  0  1  0  0  3  0  0  0  0  0  0
  160.2140  208.2230  156.4460 C   0  0  0  0  0  2  0  0  0  0  0  0
  162.3810  209.9840  155.3740 C   0  0  2  0  0  3  0  0  0  0  0  0
  161.8210  210.7930  154.3820 O   0  0  0  0  0  1  0  0  0  0  0  0
  162.2610  208.5100  154.9900 C   0  0  0  0  0  2  0  0  0  0  0  0
  161.8510  211.7050  157.2600 C   0  0  1  0  0  3  0  0  0  0  0  0
  161.7530  210.2500  156.7570 C   0  0  1  0  0  3  0  0  0  0  0  0
  163.2140  212.3250  157.0110 C   0  0  0  0  0  1  0  0  0  0  0  0
  156.9790  212.3830  156.2990 C   0  0  0  0  0  2  0  0  0  0  0  0
  157.0770  212.2520  154.7770 C   0  0  1  0  0  3  0  0  0  0  0  0
  158.4700  211.8480  154.2750 C   0  0  0  0  0  2  0  0  0  0  0  0
  159.3870  211.9960  157.0780 C   0  0  2  0  0  3  0  0  0  0  0  0
  159.0140  210.5670  154.9090 C   0  0  0  0  0  2  0  0  0  0  0  0
  159.1960  210.5990  156.4440 C   0  0  1  0  0  3  0  0  0  0  0  0
  155.9950  211.3220  154.2530 C   0  0  0  0  0  2  0  0  0  0  0  0
  155.1310  209.4480  154.8610 O   0  0  0  0  0  1  0  0  0  0  0  0
  155.3770  210.6580  155.3170 O   0  0  0  0  0  0  0  0  0  0  0  0
  160.6530  206.5930  154.5620 C   0  0  0  0  0  2  0  0  0  0  0  0
  160.9690  207.4320  150.8680 C   0  0  0  0  0  3  0  0  0  0  0  0
  160.8670  205.1700  152.5090 C   0  0  0  0  0  3  0  0  0  0  0  0
  161.5940  204.6610  148.3380 C   0  0  1  0  0  3  0  0  0  0  0  0
  161.1380  206.0500  148.8000 C   0  0  0  0  0  2  0  0  0  0  0  0
  161.0640  206.1610  150.2970 C   0  0  0  0  0  0  0  0  0  0  0  0
  161.1540  203.6320  150.5660 C   0  0  0  0  0  2  0  0  0  0  0  0
  160.9890  205.0170  151.1240 C   0  0  0  0  0  0  0  0  0  0  0  0
  160.8270  203.5680  149.0770 C   0  0  0  0  0  2  0  0  0  0  0  0
  160.7840  206.4440  153.0750 C   0  0  0  0  0  0  0  0  0  0  0  0
  160.8360  207.5750  152.2510 C   0  0  0  0  0  3  0  0  0  0  0  0
  161.4650  204.5020  146.8250 C   0  0  0  0  0  2  0  0  0  0  0  0
  161.6830  205.8100  146.0790 C   0  0  0  0  0  2  0  0  0  0  0  0
  160.6750  205.9510  145.0440 N   0  0  0  0  0  1  0  0  0  0  0  0
  1  5  1  6  0  0  0
  2 15  1  0  0  0  0
  3 15  1  0  0  0  0
  3  9  1  0  0  0  0
  4 21  1  1  0  0  0
  4  5  1  0  0  0  0
  6  7  1  6  0  0  0
  6 10  1  0  0  0  0
  8  4  1  0  0  0  0
  8  6  1  0  0  0  0
  9 11  1  6  0  0  0
 10  1  1  0  0  0  0
 10  9  1  0  0  0  0
 12  2  1  0  0  0  0
 13 12  1  0  0  0  0
 14 13  1  0  0  0  0
 14 16  1  0  0  0  0
 16 17  1  0  0  0  0
 17  1  1  0  0  0  0
 17 15  1  0  0  0  0
 18 13  1  0  0  0  0
 18 20  1  0  0  0  0
 19 20  1  0  0  0  0
 22 31  1  0  0  0  0
 23 30  1  0  0  0  0
 24 25  1  0  0  0  0
 24 29  1  0  0  0  0
 25 26  1  0  0  0  0
 26 22  2  0  0  0  0
 26 28  1  0  0  0  0
 27 28  1  0  0  0  0
 28 23  2  0  0  0  0
 29 27  1  0  0  0  0
 30 21  1  0  0  0  0
 31 30  2  0  0  0  0
 32 24  1  0  0  0  0
 33 32  1  0  0  0  0
 34 33  1  0  0  0  0
M  END
>  <MODEL>
6

>  <REMARK>
 VINA RESULT:      -6.6      3.200      5.213
  Name = 
  6 active torsions:
  status: ('A' for Active; 'I' for Inactive)
    1  A    between atoms: C_3  and  O_24
    2  A    between atoms: C_3  and  C_25
    3  A    between atoms: C_7  and  C_11
    4  A    between atoms: C_8  and  C_18
    5  A    between atoms: C_11  and  C_15
    6  A    between atoms: C_18  and  C_30
                            x       y       z     vdW  Elec       q    Type
                         _______ _______ _______ _____ _____    ______ ____

>  <TORSDO>
F 6

$$$$
=
 OpenBabel11062409493D

 34 38  0  0  1  0  0  0  0  0999 V2000
  159.5620  209.5630  153.7160 C   0  0  1  0  0  3  0  0  0  0  0  0
  157.1810  211.7400  155.9690 C   0  0  0  0  0  2  0  0  0  0  0  0
  159.3040  210.4690  156.5240 C   0  0  0  0  0  2  0  0  0  0  0  0
  161.4370  210.2800  152.1670 C   0  0  1  0  0  3  0  0  0  0  0  0
  160.1070  209.5350  152.2860 C   0  0  0  0  0  2  0  0  0  0  0  0
  161.9840  209.8460  154.5930 C   0  0  2  0  0  3  0  0  0  0  0  0
  161.9480  211.1830  154.9960 O   0  0  0  0  0  1  0  0  0  0  0  0
  162.4740  209.7360  153.1510 C   0  0  0  0  0  2  0  0  0  0  0  0
  160.0450  209.1730  156.2020 C   0  0  1  0  0  3  0  0  0  0  0  0
  160.6180  209.1540  154.7700 C   0  0  1  0  0  3  0  0  0  0  0  0
  161.0920  208.8730  157.2600 C   0  0  0  0  0  1  0  0  0  0  0  0
  156.7080  212.6540  154.8380 C   0  0  0  0  0  2  0  0  0  0  0  0
  157.7170  213.7720  154.5660 C   0  0  1  0  0  3  0  0  0  0  0  0
  159.1820  213.3270  154.6660 C   0  0  0  0  0  2  0  0  0  0  0  0
  158.1900  210.6760  155.5030 C   0  0  2  0  0  3  0  0  0  0  0  0
  159.5320  212.1300  153.7810 C   0  0  0  0  0  2  0  0  0  0  0  0
  158.7540  210.8260  154.0720 C   0  0  1  0  0  3  0  0  0  0  0  0
  157.4190  214.4440  153.2340 C   0  0  0  0  0  2  0  0  0  0  0  0
  157.3310  213.9130  151.1510 O   0  0  0  0  0  1  0  0  0  0  0  0
  156.9080  213.5080  152.3300 O   0  0  0  0  0  0  0  0  0  0  0  0
  161.9530  210.2820  150.7260 C   0  0  0  0  0  2  0  0  0  0  0  0
  162.0400  207.5750  148.0590 C   0  0  0  0  0  3  0  0  0  0  0  0
  161.4790  207.8210  150.7880 C   0  0  0  0  0  3  0  0  0  0  0  0
  161.4990  203.9370  149.0270 C   0  0  1  0  0  3  0  0  0  0  0  0
  161.5350  205.1340  148.0710 C   0  0  0  0  0  2  0  0  0  0  0  0
  161.6830  206.4430  148.7950 C   0  0  0  0  0  0  0  0  0  0  0  0
  161.0560  205.3740  151.0170 C   0  0  0  0  0  2  0  0  0  0  0  0
  161.3780  206.5710  150.1690 C   0  0  0  0  0  0  0  0  0  0  0  0
  160.5410  204.2010  150.1860 C   0  0  0  0  0  2  0  0  0  0  0  0
  161.8480  208.9480  150.0490 C   0  0  0  0  0  0  0  0  0  0  0  0
  162.1290  208.8220  148.6840 C   0  0  0  0  0  3  0  0  0  0  0  0
  161.1410  202.6450  148.2980 C   0  0  0  0  0  2  0  0  0  0  0  0
  160.7930  202.8770  146.8350 C   0  0  0  0  0  2  0  0  0  0  0  0
  160.7450  201.6030  146.1410 N   0  0  0  0  0  1  0  0  0  0  0  0
  1  5  1  6  0  0  0
  1 17  1  0  0  0  0
  1 10  1  0  0  0  0
  4 21  1  6  0  0  0
  4  5  1  0  0  0  0
  4  8  1  0  0  0  0
  6 10  1  0  0  0  0
  6  7  1  6  0  0  0
  8  6  1  0  0  0  0
  9  3  1  0  0  0  0
  9 11  1  1  0  0  0
 10  9  1  0  0  0  0
 12  2  1  0  0  0  0
 13 14  1  0  0  0  0
 13 12  1  0  0  0  0
 15  2  1  0  0  0  0
 15  3  1  0  0  0  0
 16 17  1  0  0  0  0
 16 14  1  0  0  0  0
 17 15  1  0  0  0  0
 18 13  1  0  0  0  0
 19 20  1  0  0  0  0
 20 18  1  0  0  0  0
 22 31  2  0  0  0  0
 22 26  1  0  0  0  0
 24 29  1  0  0  0  0
 25 26  1  0  0  0  0
 25 24  1  0  0  0  0
 26 28  2  0  0  0  0
 28 23  1  0  0  0  0
 28 27  1  0  0  0  0
 29 27  1  0  0  0  0
 30 21  1  0  0  0  0
 30 23  2  0  0  0  0
 31 30  1  0  0  0  0
 32 24  1  0  0  0  0
 33 32  1  0  0  0  0
 34 33  1  0  0  0  0
M  END
>  <MODEL>
7

>  <REMARK>
 VINA RESULT:      -6.5      2.480      4.381
  Name = 
  6 active torsions:
  status: ('A' for Active; 'I' for Inactive)
    1  A    between atoms: C_3  and  O_24
    2  A    between atoms: C_3  and  C_25
    3  A    between atoms: C_7  and  C_11
    4  A    between atoms: C_8  and  C_18
    5  A    between atoms: C_11  and  C_15
    6  A    between atoms: C_18  and  C_30
                            x       y       z     vdW  Elec       q    Type
                         _______ _______ _______ _____ _____    ______ ____

>  <TORSDO>
F 6

$$$$
=
 OpenBabel11062409493D

 34 38  0  0  1  0  0  0  0  0999 V2000
  159.5690  209.3540  154.1790 C   0  0  1  0  0  3  0  0  0  0  0  0
  160.0620  212.5380  151.9210 C   0  0  0  0  0  2  0  0  0  0  0  0
  160.4650  212.1670  154.3970 C   0  0  0  0  0  2  0  0  0  0  0  0
  161.0910  207.3550  154.5240 C   0  0  1  0  0  3  0  0  0  0  0  0
  159.7040  207.8320  154.0900 C   0  0  0  0  0  2  0  0  0  0  0  0
  161.4020  209.3720  156.0110 C   0  0  2  0  0  3  0  0  0  0  0  0
  162.4650  209.9240  155.2930 O   0  0  0  0  0  1  0  0  0  0  0  0
  161.4380  207.8470  155.9300 C   0  0  0  0  0  2  0  0  0  0  0  0
  159.8820  211.4540  155.6140 C   0  0  1  0  0  3  0  0  0  0  0  0
  160.0410  209.9210  155.5390 C   0  0  1  0  0  3  0  0  0  0  0  0
  160.4330  212.0410  156.9000 C   0  0  0  0  0  1  0  0  0  0  0  0
  160.3330  211.7610  150.6320 C   0  0  0  0  0  2  0  0  0  0  0  0
  161.7900  211.2980  150.5550 C   0  0  1  0  0  3  0  0  0  0  0  0
  162.3670  210.8320  151.8980 C   0  0  0  0  0  2  0  0  0  0  0  0
  159.8050  211.6260  153.1330 C   0  0  2  0  0  3  0  0  0  0  0  0
  161.5450  209.7410  152.5860 C   0  0  0  0  0  2  0  0  0  0  0  0
  160.0910  210.1190  152.9470 C   0  0  1  0  0  3  0  0  0  0  0  0
  161.9560  210.2440  149.4720 C   0  0  0  0  0  2  0  0  0  0  0  0
  162.8180  211.8830  148.3790 O   0  0  0  0  0  1  0  0  0  0  0  0
  162.0150  210.8530  148.2150 O   0  0  0  0  0  0  0  0  0  0  0  0
  161.2300  205.8370  154.3930 C   0  0  0  0  0  2  0  0  0  0  0  0
  160.9390  203.5650  151.3590 C   0  0  0  0  0  3  0  0  0  0  0  0
  161.4640  206.2520  151.9320 C   0  0  0  0  0  3  0  0  0  0  0  0
  161.1080  205.0410  147.8580 C   0  0  1  0  0  3  0  0  0  0  0  0
  161.2070  203.9290  148.9070 C   0  0  0  0  0  2  0  0  0  0  0  0
  161.1700  204.4610  150.3120 C   0  0  0  0  0  0  0  0  0  0  0  0
  161.6450  206.8290  149.5120 C   0  0  0  0  0  2  0  0  0  0  0  0
  161.4570  205.8140  150.6030 C   0  0  0  0  0  0  0  0  0  0  0  0
  162.0620  206.1850  148.1920 C   0  0  0  0  0  2  0  0  0  0  0  0
  161.2210  205.3530  152.9730 C   0  0  0  0  0  0  0  0  0  0  0  0
  160.9570  204.0090  152.6840 C   0  0  0  0  0  3  0  0  0  0  0  0
  161.3540  204.5090  146.4490 C   0  0  0  0  0  2  0  0  0  0  0  0
  161.4030  205.6170  145.4060 C   0  0  0  0  0  2  0  0  0  0  0  0
  160.0830  206.2040  145.2630 N   0  0  0  0  0  1  0  0  0  0  0  0
  1  5  1  6  0  0  0
  1 10  1  0  0  0  0
  2 15  1  0  0  0  0
  3  9  1  0  0  0  0
  4 21  1  1  0  0  0
  4  8  1  0  0  0  0
  5  4  1  0  0  0  0
  6  7  1  6  0  0  0
  8  6  1  0  0  0  0
  9 11  1  1  0  0  0
 10  9  1  0  0  0  0
 10  6  1  0  0  0  0
 12  2  1  0  0  0  0
 13 12  1  0  0  0  0
 13 14  1  0  0  0  0
 14 16  1  0  0  0  0
 15  3  1  0  0  0  0
 16 17  1  0  0  0  0
 17 15  1  0  0  0  0
 17  1  1  0  0  0  0
 18 13  1  0  0  0  0
 20 19  1  0  0  0  0
 20 18  1  0  0  0  0
 22 31  1  0  0  0  0
 23 30  1  0  0  0  0
 24 29  1  0  0  0  0
 24 25  1  0  0  0  0
 25 26  1  0  0  0  0
 26 28  1  0  0  0  0
 26 22  2  0  0  0  0
 27 28  1  0  0  0  0
 28 23  2  0  0  0  0
 29 27  1  0  0  0  0
 30 21  1  0  0  0  0
 31 30  2  0  0  0  0
 32 24  1  0  0  0  0
 33 32  1  0  0  0  0
 34 33  1  0  0  0  0
M  END
>  <MODEL>
8

>  <REMARK>
 VINA RESULT:      -6.2      2.422      3.675
  Name = 
  6 active torsions:
  status: ('A' for Active; 'I' for Inactive)
    1  A    between atoms: C_3  and  O_24
    2  A    between atoms: C_3  and  C_25
    3  A    between atoms: C_7  and  C_11
    4  A    between atoms: C_8  and  C_18
    5  A    between atoms: C_11  and  C_15
    6  A    between atoms: C_18  and  C_30
                            x       y       z     vdW  Elec       q    Type
                         _______ _______ _______ _____ _____    ______ ____

>  <TORSDO>
F 6

$$$$
=
 OpenBabel11062409493D

 34 38  0  0  1  0  0  0  0  0999 V2000
  159.6020  208.9750  153.8420 C   0  0  1  0  0  3  0  0  0  0  0  0
  160.1920  212.3120  151.8430 C   0  0  0  0  0  2  0  0  0  0  0  0
  160.4630  211.7710  154.3050 C   0  0  0  0  0  2  0  0  0  0  0  0
  161.1190  206.9640  154.1290 C   0  0  1  0  0  3  0  0  0  0  0  0
  159.7540  207.4640  153.6550 C   0  0  0  0  0  2  0  0  0  0  0  0
  161.3320  208.8720  155.7690 C   0  0  2  0  0  3  0  0  0  0  0  0
  162.4280  209.4780  155.1510 O   0  0  0  0  0  1  0  0  0  0  0  0
  161.3840  207.3570  155.5840 C   0  0  0  0  0  2  0  0  0  0  0  0
  159.8190  210.9710  155.4350 C   0  0  1  0  0  3  0  0  0  0  0  0
  159.9940  209.4480  155.2620 C   0  0  1  0  0  3  0  0  0  0  0  0
  160.2950  211.4680  156.7880 C   0  0  0  0  0  1  0  0  0  0  0  0
  160.5400  211.6290  150.5200 C   0  0  0  0  0  2  0  0  0  0  0  0
  162.0020  211.1790  150.4910 C   0  0  1  0  0  3  0  0  0  0  0  0
  162.5090  210.6220  151.8280 C   0  0  0  0  0  2  0  0  0  0  0  0
  159.8770  211.3170  152.9730 C   0  0  2  0  0  3  0  0  0  0  0  0
  161.6590  209.4820  152.3910 C   0  0  0  0  0  2  0  0  0  0  0  0
  160.1840  209.8270  152.6970 C   0  0  1  0  0  3  0  0  0  0  0  0
  162.2360  210.2040  149.3480 C   0  0  0  0  0  2  0  0  0  0  0  0
  161.7650  208.2770  148.5150 O   0  0  0  0  0  1  0  0  0  0  0  0
  161.5260  209.0210  149.5750 O   0  0  0  0  0  0  0  0  0  0  0  0
  161.2770  205.4590  153.9000 C   0  0  0  0  0  2  0  0  0  0  0  0
  161.4350  205.6340  150.1060 C   0  0  0  0  0  3  0  0  0  0  0  0
  160.9540  203.7390  152.1060 C   0  0  0  0  0  3  0  0  0  0  0  0
  161.1470  202.4510  148.0450 C   0  0  1  0  0  3  0  0  0  0  0  0
  161.0780  203.9620  148.2920 C   0  0  0  0  0  2  0  0  0  0  0  0
  161.1730  204.3090  149.7510 C   0  0  0  0  0  0  0  0  0  0  0  0
  160.6860  201.9070  150.4350 C   0  0  0  0  0  2  0  0  0  0  0  0
  160.9070  203.3560  150.7620 C   0  0  0  0  0  0  0  0  0  0  0  0
  160.2160  201.7050  148.9970 C   0  0  0  0  0  2  0  0  0  0  0  0
  161.2290  205.0640  152.4550 C   0  0  0  0  0  0  0  0  0  0  0  0
  161.4700  206.0100  151.4520 C   0  0  0  0  0  3  0  0  0  0  0  0
  160.8430  202.1050  146.5890 C   0  0  0  0  0  2  0  0  0  0  0  0
  161.3550  203.1600  145.6190 C   0  0  0  0  0  2  0  0  0  0  0  0
  160.2730  203.5840  144.7490 N   0  0  0  0  0  1  0  0  0  0  0  0
  1  5  1  6  0  0  0
  1 10  1  0  0  0  0
  2 15  1  0  0  0  0
  3  9  1  0  0  0  0
  4 21  1  1  0  0  0
  4  8  1  0  0  0  0
  5  4  1  0  0  0  0
  6  7  1  6  0  0  0
  8  6  1  0  0  0  0
  9 11  1  1  0  0  0
 10  9  1  0  0  0  0
 10  6  1  0  0  0  0
 12  2  1  0  0  0  0
 13 12  1  0  0  0  0
 13 14  1  0  0  0  0
 14 16  1  0  0  0  0
 15  3  1  0  0  0  0
 16 17  1  0  0  0  0
 17 15  1  0  0  0  0
 17  1  1  0  0  0  0
 18 20  1  0  0  0  0
 18 13  1  0  0  0  0
 19 20  1  0  0  0  0
 22 31  1  0  0  0  0
 23 30  1  0  0  0  0
 24 25  1  0  0  0  0
 24 29  1  0  0  0  0
 25 26  1  0  0  0  0
 26 22  2  0  0  0  0
 26 28  1  0  0  0  0
 27 28  1  0  0  0  0
 28 23  2  0  0  0  0
 29 27  1  0  0  0  0
 30 21  1  0  0  0  0
 31 30  2  0  0  0  0
 32 24  1  0  0  0  0
 33 32  1  0  0  0  0
 34 33  1  0  0  0  0
M  END
>  <MODEL>
9

>  <REMARK>
 VINA RESULT:      -5.7      2.556      4.189
  Name = 
  6 active torsions:
  status: ('A' for Active; 'I' for Inactive)
    1  A    between atoms: C_3  and  O_24
    2  A    between atoms: C_3  and  C_25
    3  A    between atoms: C_7  and  C_11
    4  A    between atoms: C_8  and  C_18
    5  A    between atoms: C_11  and  C_15
    6  A    between atoms: C_18  and  C_30
                            x       y       z     vdW  Elec       q    Type
                         _______ _______ _______ _____ _____    ______ ____

>  <TORSDO>
F 6

$$$$
