=
 OpenBabel11062408253D

 32 36  0  0  1  0  0  0  0  0999 V2000
  161.7280  207.4820  152.1490 C   0  0  2  0  0  3  0  0  0  0  0  0
  161.2230  209.9220  152.6590 C   0  0  1  0  0  3  0  0  0  0  0  0
  161.2770  206.0350  152.3730 C   0  0  0  0  0  2  0  0  0  0  0  0
  160.8630  208.4490  152.9780 C   0  0  2  0  0  3  0  0  0  0  0  0
  162.3250  210.4520  153.5820 C   0  0  0  0  0  2  0  0  0  0  0  0
  161.6110  210.1140  151.1810 C   0  0  1  0  0  3  0  0  0  0  0  0
  161.7850  210.9180  154.9420 C   0  0  2  0  0  3  0  0  0  0  0  0
  160.9580  208.0810  154.4760 C   0  0  1  0  0  3  0  0  0  0  0  0
  160.1250  208.9690  155.4060 C   0  0  0  0  0  2  0  0  0  0  0  0
  160.5400  206.6270  154.6910 C   0  0  0  0  0  2  0  0  0  0  0  0
  161.0710  209.0810  150.3960 O   0  0  0  0  0  0  0  0  0  0  0  0
  162.7440  210.5420  156.0570 C   0  0  0  0  0  1  0  0  0  0  0  0
  161.8410  207.9320  150.6660 C   0  0  2  0  0  3  0  0  0  0  0  0
  160.3440  210.4820  155.2560 C   0  0  0  0  0  2  0  0  0  0  0  0
  161.3980  205.6850  153.8520 C   0  0  0  0  0  2  0  0  0  0  0  0
  162.0870  205.8560  147.3580 C   0  0  0  0  0  0  0  0  0  0  0  0
  162.7420  205.9160  146.1350 O   0  0  0  0  0  1  0  0  0  0  0  0
  161.5850  206.8620  149.6400 C   0  0  0  0  0  0  0  0  0  0  0  0
  161.4610  204.7340  147.7190 C   0  0  0  0  0  3  0  0  0  0  0  0
  160.9750  205.7220  149.9910 C   0  0  0  0  0  3  0  0  0  0  0  0
  162.1090  207.0130  148.2690 C   0  0  0  0  0  0  0  0  0  0  0  0
  162.6160  208.1030  147.8940 O   0  0  0  0  0  0  0  0  0  0  0  0
  160.6710  204.6260  149.0020 C   0  0  2  0  0  3  0  0  0  0  0  0
  160.8550  202.1760  148.9180 C   0  0  0  0  0  2  0  0  0  0  0  0
  160.8680  203.2920  149.6430 C   0  0  0  0  0  3  0  0  0  0  0  0
  161.1000  211.4500  150.6590 C   0  0  0  0  0  2  0  0  0  0  0  0
  162.9300  211.4100  148.8410 C   0  0  0  0  0  3  0  0  0  0  0  0
  161.9740  212.6030  147.3300 O   0  0  0  0  0  0  0  0  0  0  0  0
  161.1300  212.5310  148.3230 C   0  0  0  0  0  0  0  0  0  0  0  0
  159.9980  213.0790  148.3410 O   0  0  0  0  0  0  0  0  0  0  0  0
  161.6850  211.7740  149.3230 C   0  0  0  0  0  0  0  0  0  0  0  0
  163.0360  211.9400  147.6360 O   0  0  0  0  0  0  0  0  0  0  0  0
  1  3  1  6  0  0  0
  1  4  1  0  0  0  0
  2  4  1  0  0  0  0
  2  5  1  1  0  0  0
  3 15  1  0  0  0  0
  4  8  1  0  0  0  0
  5  7  1  0  0  0  0
  6  2  1  0  0  0  0
  7 14  1  0  0  0  0
  7 12  1  0  0  0  0
  8 10  1  0  0  0  0
  8  9  1  0  0  0  0
 11 13  1  0  0  0  0
 11  6  1  0  0  0  0
 13  1  1  0  0  0  0
 14  9  1  0  0  0  0
 15 10  1  0  0  0  0
 16 19  2  0  0  0  0
 16 21  1  0  0  0  0
 17 16  1  0  0  0  0
 18 20  2  0  0  0  0
 18 13  1  0  0  0  0
 19 23  1  0  0  0  0
 21 18  1  0  0  0  0
 22 21  2  0  0  0  0
 23 25  1  0  0  0  0
 23 20  1  0  0  0  0
 24 25  2  0  0  0  0
 26  6  1  0  0  0  0
 27 31  2  0  0  0  0
 28 32  1  0  0  0  0
 28 29  1  0  0  0  0
 29 30  2  0  0  0  0
 29 31  1  0  0  0  0
 31 26  1  0  0  0  0
 32 27  1  0  0  0  0
M  END
>  <MODEL>
1

>  <REMARK>
 VINA RESULT:      -8.8      0.000      0.000
  Name = 
  4 active torsions:
  status: ('A' for Active; 'I' for Inactive)
    1  A    between atoms: C_10  and  C_32
    2  A    between atoms: C_15  and  C_26
    3  A    between atoms: C_16  and  C_27
    4  A    between atoms: C_28  and  C_32
                            x       y       z     vdW  Elec       q    Type
                         _______ _______ _______ _____ _____    ______ ____

>  <TORSDO>
F 4

$$$$
=
 OpenBabel11062408253D

 32 36  0  0  1  0  0  0  0  0999 V2000
  160.8930  205.8550  150.7260 C   0  0  2  0  0  3  0  0  0  0  0  0
  161.4440  203.9900  149.0860 C   0  0  1  0  0  3  0  0  0  0  0  0
  161.1270  206.3880  152.1440 C   0  0  0  0  0  2  0  0  0  0  0  0
  161.5610  204.4790  150.5520 C   0  0  2  0  0  3  0  0  0  0  0  0
  160.1720  203.1660  148.8610 C   0  0  0  0  0  2  0  0  0  0  0  0
  161.5230  205.1550  148.0820 C   0  0  1  0  0  3  0  0  0  0  0  0
  160.3300  201.7020  149.2960 C   0  0  2  0  0  3  0  0  0  0  0  0
  160.9990  203.4900  151.5990 C   0  0  1  0  0  3  0  0  0  0  0  0
  161.6000  202.0820  151.5340 C   0  0  0  0  0  2  0  0  0  0  0  0
  161.2050  204.0410  153.0100 C   0  0  0  0  0  2  0  0  0  0  0  0
  162.1740  206.2570  148.6630 O   0  0  0  0  0  0  0  0  0  0  0  0
  159.0580  201.1970  149.9510 C   0  0  0  0  0  1  0  0  0  0  0  0
  161.2590  206.8270  149.5700 C   0  0  2  0  0  3  0  0  0  0  0  0
  161.5710  201.4070  150.1550 C   0  0  0  0  0  2  0  0  0  0  0  0
  160.5490  205.4090  153.1600 C   0  0  0  0  0  2  0  0  0  0  0  0
  162.0130  210.6640  149.4420 C   0  0  0  0  0  0  0  0  0  0  0  0
  161.9490  211.7100  148.5310 O   0  0  0  0  0  1  0  0  0  0  0  0
  161.7070  208.2000  149.9920 C   0  0  0  0  0  0  0  0  0  0  0  0
  162.2060  210.9260  150.7360 C   0  0  0  0  0  3  0  0  0  0  0  0
  161.8860  208.4830  151.2890 C   0  0  0  0  0  3  0  0  0  0  0  0
  161.8380  209.2740  148.9890 C   0  0  0  0  0  0  0  0  0  0  0  0
  161.7510  209.0160  147.7600 O   0  0  0  0  0  0  0  0  0  0  0  0
  162.3560  209.8320  151.7680 C   0  0  2  0  0  3  0  0  0  0  0  0
  160.3490  210.0030  153.1780 C   0  0  0  0  0  2  0  0  0  0  0  0
  161.6600  210.1940  153.0380 C   0  0  0  0  0  3  0  0  0  0  0  0
  162.2820  204.7360  146.8300 C   0  0  0  0  0  2  0  0  0  0  0  0
  161.1140  202.7900  145.6050 C   0  0  0  0  0  3  0  0  0  0  0  0
  159.9900  203.8950  144.1440 O   0  0  0  0  0  0  0  0  0  0  0  0
  160.6320  204.7820  144.8560 C   0  0  0  0  0  0  0  0  0  0  0  0
  160.5730  206.0250  144.6720 O   0  0  0  0  0  0  0  0  0  0  0  0
  161.3680  204.1330  145.8140 C   0  0  0  0  0  0  0  0  0  0  0  0
  160.2750  202.7190  144.5870 O   0  0  0  0  0  0  0  0  0  0  0  0
  1  3  1  1  0  0  0
  2  5  1  1  0  0  0
  2  4  1  0  0  0  0
  3 15  1  0  0  0  0
  4  1  1  0  0  0  0
  4  8  1  0  0  0  0
  5  7  1  0  0  0  0
  6 11  1  0  0  0  0
  6  2  1  0  0  0  0
  7 12  1  0  0  0  0
  7 14  1  0  0  0  0
  8 10  1  0  0  0  0
  9  8  1  0  0  0  0
 10 15  1  0  0  0  0
 11 13  1  0  0  0  0
 13 18  1  0  0  0  0
 13  1  1  0  0  0  0
 14  9  1  0  0  0  0
 16 19  2  0  0  0  0
 17 16  1  0  0  0  0
 18 20  2  0  0  0  0
 19 23  1  0  0  0  0
 20 23  1  0  0  0  0
 21 16  1  0  0  0  0
 21 18  1  0  0  0  0
 22 21  2  0  0  0  0
 23 25  1  0  0  0  0
 25 24  2  0  0  0  0
 26  6  1  0  0  0  0
 27 31  2  0  0  0  0
 28 32  1  0  0  0  0
 28 29  1  0  0  0  0
 29 31  1  0  0  0  0
 30 29  2  0  0  0  0
 31 26  1  0  0  0  0
 32 27  1  0  0  0  0
M  END
>  <MODEL>
2

>  <REMARK>
 VINA RESULT:      -8.2      1.861      6.930
  Name = 
  4 active torsions:
  status: ('A' for Active; 'I' for Inactive)
    1  A    between atoms: C_10  and  C_32
    2  A    between atoms: C_15  and  C_26
    3  A    between atoms: C_16  and  C_27
    4  A    between atoms: C_28  and  C_32
                            x       y       z     vdW  Elec       q    Type
                         _______ _______ _______ _____ _____    ______ ____

>  <TORSDO>
F 4

$$$$
=
 OpenBabel11062408253D

 32 36  0  0  1  0  0  0  0  0999 V2000
  160.9510  206.8760  150.1930 C   0  0  2  0  0  3  0  0  0  0  0  0
  161.4050  207.8320  152.5060 C   0  0  1  0  0  3  0  0  0  0  0  0
  161.4480  206.8070  148.7450 C   0  0  0  0  0  2  0  0  0  0  0  0
  161.8140  207.8530  151.0120 C   0  0  2  0  0  3  0  0  0  0  0  0
  160.3170  208.8650  152.8130 C   0  0  0  0  0  2  0  0  0  0  0  0
  160.9680  206.4280  152.9640 C   0  0  1  0  0  3  0  0  0  0  0  0
  160.8840  210.2760  153.0280 C   0  0  2  0  0  3  0  0  0  0  0  0
  161.7730  209.2550  150.3610 C   0  0  1  0  0  3  0  0  0  0  0  0
  162.6090  210.3180  151.0820 C   0  0  0  0  0  2  0  0  0  0  0  0
  162.2370  209.1770  148.9070 C   0  0  0  0  0  2  0  0  0  0  0  0
  161.5120  205.4470  152.1180 O   0  0  0  0  0  0  0  0  0  0  0  0
  159.9690  211.3210  152.4150 C   0  0  0  0  0  1  0  0  0  0  0  0
  160.7810  205.5090  150.9140 C   0  0  2  0  0  3  0  0  0  0  0  0
  162.3440  210.4660  152.5870 C   0  0  0  0  0  2  0  0  0  0  0  0
  161.3810  208.1940  148.1150 C   0  0  0  0  0  2  0  0  0  0  0  0
  160.7980  201.7830  149.7210 C   0  0  0  0  0  0  0  0  0  0  0  0
  160.3980  200.5370  150.1860 O   0  0  0  0  0  1  0  0  0  0  0  0
  161.0360  204.2910  150.0680 C   0  0  0  0  0  0  0  0  0  0  0  0
  161.1480  201.9300  148.4420 C   0  0  0  0  0  3  0  0  0  0  0  0
  161.3690  204.4230  148.7780 C   0  0  0  0  0  3  0  0  0  0  0  0
  160.8050  202.9450  150.6260 C   0  0  0  0  0  0  0  0  0  0  0  0
  160.5690  202.7920  151.8530 O   0  0  0  0  0  0  0  0  0  0  0  0
  161.6590  203.2400  147.8900 C   0  0  2  0  0  3  0  0  0  0  0  0
  161.6520  204.4320  145.7390 C   0  0  0  0  0  2  0  0  0  0  0  0
  161.1250  203.4900  146.5180 C   0  0  0  0  0  3  0  0  0  0  0  0
  161.4260  206.1590  154.3910 C   0  0  0  0  0  2  0  0  0  0  0  0
  161.7790  208.2770  155.8200 C   0  0  0  0  0  3  0  0  0  0  0  0
  159.8110  208.4870  156.6610 O   0  0  0  0  0  0  0  0  0  0  0  0
  159.7670  207.4350  155.8880 C   0  0  0  0  0  0  0  0  0  0  0  0
  158.7470  206.7180  155.7150 O   0  0  0  0  0  0  0  0  0  0  0  0
  161.0000  207.2510  155.3160 C   0  0  0  0  0  0  0  0  0  0  0  0
  161.0000  208.9840  156.6190 O   0  0  0  0  0  0  0  0  0  0  0  0
  1  3  1  6  0  0  0
  1 13  1  0  0  0  0
  1  4  1  0  0  0  0
  2  5  1  6  0  0  0
  2  6  1  0  0  0  0
  4  2  1  0  0  0  0
  5  7  1  0  0  0  0
  6 26  1  0  0  0  0
  8  4  1  0  0  0  0
  8  9  1  0  0  0  0
  9 14  1  0  0  0  0
 10  8  1  0  0  0  0
 11  6  1  0  0  0  0
 12  7  1  0  0  0  0
 13 11  1  0  0  0  0
 14  7  1  0  0  0  0
 15  3  1  0  0  0  0
 15 10  1  0  0  0  0
 16 17  1  0  0  0  0
 16 21  1  0  0  0  0
 18 21  1  0  0  0  0
 18 13  1  0  0  0  0
 19 16  2  0  0  0  0
 20 18  2  0  0  0  0
 21 22  2  0  0  0  0
 23 19  1  0  0  0  0
 23 20  1  0  0  0  0
 24 25  2  0  0  0  0
 25 23  1  0  0  0  0
 26 31  1  0  0  0  0
 27 32  1  0  0  0  0
 29 28  1  0  0  0  0
 30 29  2  0  0  0  0
 31 27  2  0  0  0  0
 31 29  1  0  0  0  0
 32 28  1  0  0  0  0
M  END
>  <MODEL>
3

>  <REMARK>
 VINA RESULT:      -8.2      3.338      5.531
  Name = 
  4 active torsions:
  status: ('A' for Active; 'I' for Inactive)
    1  A    between atoms: C_10  and  C_32
    2  A    between atoms: C_15  and  C_26
    3  A    between atoms: C_16  and  C_27
    4  A    between atoms: C_28  and  C_32
                            x       y       z     vdW  Elec       q    Type
                         _______ _______ _______ _____ _____    ______ ____

>  <TORSDO>
F 4

$$$$
=
 OpenBabel11062408253D

 32 36  0  0  1  0  0  0  0  0999 V2000
  161.5370  207.7760  152.8960 C   0  0  2  0  0  3  0  0  0  0  0  0
  160.9660  210.1710  153.5350 C   0  0  1  0  0  3  0  0  0  0  0  0
  161.1430  206.3050  153.0660 C   0  0  0  0  0  2  0  0  0  0  0  0
  160.6670  208.6730  153.7950 C   0  0  2  0  0  3  0  0  0  0  0  0
  162.0790  210.6960  154.4480 C   0  0  0  0  0  2  0  0  0  0  0  0
  161.3000  210.4440  152.0570 C   0  0  1  0  0  3  0  0  0  0  0  0
  161.5680  211.0800  155.8450 C   0  0  2  0  0  3  0  0  0  0  0  0
  160.8230  208.2400  155.2710 C   0  0  1  0  0  3  0  0  0  0  0  0
  159.9910  209.0550  156.2670 C   0  0  0  0  0  2  0  0  0  0  0  0
  160.4610  206.7640  155.4300 C   0  0  0  0  0  2  0  0  0  0  0  0
  160.7700  209.4300  151.2420 O   0  0  0  0  0  0  0  0  0  0  0  0
  162.5740  210.6870  156.9110 C   0  0  0  0  0  1  0  0  0  0  0  0
  161.5870  208.2980  151.4330 C   0  0  2  0  0  3  0  0  0  0  0  0
  160.1530  210.5790  156.1820 C   0  0  0  0  0  2  0  0  0  0  0  0
  161.3230  205.8920  154.5220 C   0  0  0  0  0  2  0  0  0  0  0  0
  161.7570  206.4140  148.0080 C   0  0  0  0  0  0  0  0  0  0  0  0
  162.3310  206.5780  146.7540 O   0  0  0  0  0  1  0  0  0  0  0  0
  161.3340  207.2670  150.3660 C   0  0  0  0  0  0  0  0  0  0  0  0
  161.2230  205.2380  148.3410 C   0  0  0  0  0  3  0  0  0  0  0  0
  160.8170  206.0750  150.6890 C   0  0  0  0  0  3  0  0  0  0  0  0
  161.7640  207.5220  148.9780 C   0  0  0  0  0  0  0  0  0  0  0  0
  162.1800  208.6600  148.6350 O   0  0  0  0  0  0  0  0  0  0  0  0
  160.5200  205.0140  149.6600 C   0  0  2  0  0  3  0  0  0  0  0  0
  160.8300  202.5850  149.4340 C   0  0  0  0  0  2  0  0  0  0  0  0
  160.8370  203.6640  150.2140 C   0  0  0  0  0  3  0  0  0  0  0  0
  160.7270  211.7840  151.6140 C   0  0  0  0  0  2  0  0  0  0  0  0
  158.6150  211.2320  152.9870 C   0  0  0  0  0  3  0  0  0  0  0  0
  157.7870  213.2040  153.1990 O   0  0  0  0  0  0  0  0  0  0  0  0
  158.8920  213.3450  152.5180 C   0  0  0  0  0  0  0  0  0  0  0  0
  159.3320  214.4430  152.0890 O   0  0  0  0  0  0  0  0  0  0  0  0
  159.4730  212.1130  152.3540 C   0  0  0  0  0  0  0  0  0  0  0  0
  157.6240  211.9560  153.4760 O   0  0  0  0  0  0  0  0  0  0  0  0
  1  3  1  6  0  0  0
  1  4  1  0  0  0  0
  2  4  1  0  0  0  0
  2  5  1  1  0  0  0
  3 15  1  0  0  0  0
  4  8  1  0  0  0  0
  5  7  1  0  0  0  0
  6  2  1  0  0  0  0
  7 14  1  0  0  0  0
  7 12  1  0  0  0  0
  8 10  1  0  0  0  0
  8  9  1  0  0  0  0
 11 13  1  0  0  0  0
 11  6  1  0  0  0  0
 13  1  1  0  0  0  0
 14  9  1  0  0  0  0
 15 10  1  0  0  0  0
 16 19  2  0  0  0  0
 16 21  1  0  0  0  0
 17 16  1  0  0  0  0
 18 20  2  0  0  0  0
 18 13  1  0  0  0  0
 19 23  1  0  0  0  0
 21 18  1  0  0  0  0
 22 21  2  0  0  0  0
 23 25  1  0  0  0  0
 23 20  1  0  0  0  0
 24 25  2  0  0  0  0
 26  6  1  0  0  0  0
 26 31  1  0  0  0  0
 27 32  1  0  0  0  0
 28 32  1  0  0  0  0
 29 28  1  0  0  0  0
 30 29  2  0  0  0  0
 31 29  1  0  0  0  0
 31 27  2  0  0  0  0
M  END
>  <MODEL>
4

>  <REMARK>
 VINA RESULT:      -7.6      1.936      2.654
  Name = 
  4 active torsions:
  status: ('A' for Active; 'I' for Inactive)
    1  A    between atoms: C_10  and  C_32
    2  A    between atoms: C_15  and  C_26
    3  A    between atoms: C_16  and  C_27
    4  A    between atoms: C_28  and  C_32
                            x       y       z     vdW  Elec       q    Type
                         _______ _______ _______ _____ _____    ______ ____

>  <TORSDO>
F 4

$$$$
=
 OpenBabel11062408253D

 32 36  0  0  1  0  0  0  0  0999 V2000
  160.8850  206.6110  150.4050 C   0  0  2  0  0  3  0  0  0  0  0  0
  161.9010  207.3480  148.1930 C   0  0  1  0  0  3  0  0  0  0  0  0
  160.9080  205.5410  151.5000 C   0  0  0  0  0  2  0  0  0  0  0  0
  161.8150  206.2140  149.2440 C   0  0  2  0  0  3  0  0  0  0  0  0
  160.8310  207.1990  147.1060 C   0  0  0  0  0  2  0  0  0  0  0  0
  161.8280  208.7430  148.8410 C   0  0  1  0  0  3  0  0  0  0  0  0
  161.2350  206.2030  146.0090 C   0  0  2  0  0  3  0  0  0  0  0  0
  161.3790  204.8460  148.6710 C   0  0  1  0  0  3  0  0  0  0  0  0
  162.2420  204.3350  147.5130 C   0  0  0  0  0  2  0  0  0  0  0  0
  161.3720  203.7880  149.7740 C   0  0  0  0  0  2  0  0  0  0  0  0
  162.2110  208.6740  150.1910 O   0  0  0  0  0  0  0  0  0  0  0  0
  160.0390  205.3820  145.5630 C   0  0  0  0  0  1  0  0  0  0  0  0
  161.1400  208.0690  150.8790 C   0  0  2  0  0  3  0  0  0  0  0  0
  162.4440  205.3150  146.3480 C   0  0  0  0  0  2  0  0  0  0  0  0
  160.4560  204.2050  150.9210 C   0  0  0  0  0  2  0  0  0  0  0  0
  161.4580  209.8130  154.3670 C   0  0  0  0  0  0  0  0  0  0  0  0
  161.5480  211.0980  154.8870 O   0  0  0  0  0  1  0  0  0  0  0  0
  161.2840  208.2540  152.3650 C   0  0  0  0  0  0  0  0  0  0  0  0
  161.2280  208.7840  155.1840 C   0  0  0  0  0  3  0  0  0  0  0  0
  161.0380  207.2350  153.1990 C   0  0  0  0  0  3  0  0  0  0  0  0
  161.5830  209.5890  152.9170 C   0  0  0  0  0  0  0  0  0  0  0  0
  161.8950  210.5420  152.1550 O   0  0  0  0  0  0  0  0  0  0  0  0
  161.1890  207.3560  154.6940 C   0  0  2  0  0  3  0  0  0  0  0  0
  159.6550  206.9530  156.5730 C   0  0  0  0  0  2  0  0  0  0  0  0
  160.1110  206.5810  155.3790 C   0  0  0  0  0  3  0  0  0  0  0  0
  162.7420  209.7230  148.1170 C   0  0  0  0  0  2  0  0  0  0  0  0
  160.9850  211.5540  148.5760 C   0  0  0  0  0  3  0  0  0  0  0  0
  162.1980  213.3070  148.2960 O   0  0  0  0  0  0  0  0  0  0  0  0
  162.9860  212.2840  148.1020 C   0  0  0  0  0  0  0  0  0  0  0  0
  164.2060  212.3680  147.8030 O   0  0  0  0  0  0  0  0  0  0  0  0
  162.2660  211.1300  148.2720 C   0  0  0  0  0  0  0  0  0  0  0  0
  161.0170  212.8750  148.5770 O   0  0  0  0  0  0  0  0  0  0  0  0
  1 13  1  0  0  0  0
  1  3  1  1  0  0  0
  2  5  1  6  0  0  0
  2  6  1  0  0  0  0
  2  4  1  0  0  0  0
  4  1  1  0  0  0  0
  6 11  1  0  0  0  0
  7 14  1  0  0  0  0
  7  5  1  0  0  0  0
  8  4  1  0  0  0  0
  8 10  1  0  0  0  0
  9  8  1  0  0  0  0
 10 15  1  0  0  0  0
 11 13  1  0  0  0  0
 12  7  1  0  0  0  0
 13 18  1  0  0  0  0
 14  9  1  0  0  0  0
 15  3  1  0  0  0  0
 16 17  1  0  0  0  0
 16 19  2  0  0  0  0
 18 21  1  0  0  0  0
 18 20  2  0  0  0  0
 20 23  1  0  0  0  0
 21 16  1  0  0  0  0
 22 21  2  0  0  0  0
 23 19  1  0  0  0  0
 23 25  1  0  0  0  0
 25 24  2  0  0  0  0
 26 31  1  0  0  0  0
 26  6  1  0  0  0  0
 27 32  1  0  0  0  0
 28 32  1  0  0  0  0
 29 31  1  0  0  0  0
 29 28  1  0  0  0  0
 30 29  2  0  0  0  0
 31 27  2  0  0  0  0
M  END
>  <MODEL>
5

>  <REMARK>
 VINA RESULT:      -7.6      1.574      6.079
  Name = 
  4 active torsions:
  status: ('A' for Active; 'I' for Inactive)
    1  A    between atoms: C_10  and  C_32
    2  A    between atoms: C_15  and  C_26
    3  A    between atoms: C_16  and  C_27
    4  A    between atoms: C_28  and  C_32
                            x       y       z     vdW  Elec       q    Type
                         _______ _______ _______ _____ _____    ______ ____

>  <TORSDO>
F 4

$$$$
=
 OpenBabel11062408253D

 32 36  0  0  1  0  0  0  0  0999 V2000
  161.7420  207.2990  150.2770 C   0  0  2  0  0  3  0  0  0  0  0  0
  160.8860  205.1960  149.1330 C   0  0  1  0  0  3  0  0  0  0  0  0
  161.7050  208.8310  150.2760 C   0  0  0  0  0  2  0  0  0  0  0  0
  160.9670  206.7420  149.0700 C   0  0  2  0  0  3  0  0  0  0  0  0
  162.0650  204.5340  148.4120 C   0  0  0  0  0  2  0  0  0  0  0  0
  160.7740  204.6820  150.5800 C   0  0  1  0  0  3  0  0  0  0  0  0
  161.8570  204.4450  146.8930 C   0  0  2  0  0  3  0  0  0  0  0  0
  161.5730  207.2950  147.7600 C   0  0  1  0  0  3  0  0  0  0  0  0
  160.8740  206.8180  146.4820 C   0  0  0  0  0  2  0  0  0  0  0  0
  161.5650  208.8220  147.7770 C   0  0  0  0  0  2  0  0  0  0  0  0
  160.2690  205.6910  151.4180 O   0  0  0  0  0  0  0  0  0  0  0  0
  163.1570  204.7120  146.1580 C   0  0  0  0  0  1  0  0  0  0  0  0
  161.3160  206.6140  151.6060 C   0  0  2  0  0  3  0  0  0  0  0  0
  160.7030  205.2990  146.3420 C   0  0  0  0  0  2  0  0  0  0  0  0
  162.3250  209.3560  148.9860 C   0  0  0  0  0  2  0  0  0  0  0  0
  161.1990  208.0980  155.2240 C   0  0  0  0  0  0  0  0  0  0  0  0
  161.5940  207.7480  156.5090 O   0  0  0  0  0  1  0  0  0  0  0  0
  161.0130  207.5440  152.7490 C   0  0  0  0  0  0  0  0  0  0  0  0
  160.8080  209.3480  154.9710 C   0  0  0  0  0  3  0  0  0  0  0  0
  160.6390  208.8080  152.5100 C   0  0  0  0  0  3  0  0  0  0  0  0
  161.2410  207.1040  154.1380 C   0  0  0  0  0  0  0  0  0  0  0  0
  161.5170  205.9020  154.3920 O   0  0  0  0  0  0  0  0  0  0  0  0
  160.2990  209.7760  153.6140 C   0  0  2  0  0  3  0  0  0  0  0  0
  160.1070  211.9220  152.4280 C   0  0  0  0  0  2  0  0  0  0  0  0
  160.7910  211.1420  153.2630 C   0  0  0  0  0  3  0  0  0  0  0  0
  159.8530  203.4710  150.6530 C   0  0  0  0  0  2  0  0  0  0  0  0
  160.0490  201.7890  148.7080 C   0  0  0  0  0  3  0  0  0  0  0  0
  161.6300  200.5410  149.4580 O   0  0  0  0  0  0  0  0  0  0  0  0
  161.4360  201.4630  150.3610 C   0  0  0  0  0  0  0  0  0  0  0  0
  162.0730  201.5500  151.4430 O   0  0  0  0  0  0  0  0  0  0  0  0
  160.4350  202.2990  149.9350 C   0  0  0  0  0  0  0  0  0  0  0  0
  160.8120  200.7350  148.4810 O   0  0  0  0  0  0  0  0  0  0  0  0
  1  3  1  1  0  0  0
  1 13  1  0  0  0  0
  2  5  1  1  0  0  0
  2  6  1  0  0  0  0
  4  2  1  0  0  0  0
  4  1  1  0  0  0  0
  6 26  1  0  0  0  0
  6 11  1  0  0  0  0
  7  5  1  0  0  0  0
  8 10  1  0  0  0  0
  8  4  1  0  0  0  0
  9  8  1  0  0  0  0
 10 15  1  0  0  0  0
 11 13  1  0  0  0  0
 12  7  1  0  0  0  0
 13 18  1  0  0  0  0
 14  9  1  0  0  0  0
 14  7  1  0  0  0  0
 15  3  1  0  0  0  0
 16 17  1  0  0  0  0
 18 21  1  0  0  0  0
 19 16  2  0  0  0  0
 20 18  2  0  0  0  0
 20 23  1  0  0  0  0
 21 22  2  0  0  0  0
 21 16  1  0  0  0  0
 23 19  1  0  0  0  0
 24 25  2  0  0  0  0
 25 23  1  0  0  0  0
 27 31  2  0  0  0  0
 28 29  1  0  0  0  0
 29 30  2  0  0  0  0
 31 29  1  0  0  0  0
 31 26  1  0  0  0  0
 32 27  1  0  0  0  0
 32 28  1  0  0  0  0
M  END
>  <MODEL>
6

>  <REMARK>
 VINA RESULT:      -7.5      3.184      8.202
  Name = 
  4 active torsions:
  status: ('A' for Active; 'I' for Inactive)
    1  A    between atoms: C_10  and  C_32
    2  A    between atoms: C_15  and  C_26
    3  A    between atoms: C_16  and  C_27
    4  A    between atoms: C_28  and  C_32
                            x       y       z     vdW  Elec       q    Type
                         _______ _______ _______ _____ _____    ______ ____

>  <TORSDO>
F 4

$$$$
=
 OpenBabel11062408253D

 32 36  0  0  1  0  0  0  0  0999 V2000
  160.6440  204.7370  150.9260 C   0  0  2  0  0  3  0  0  0  0  0  0
  161.5020  204.3220  148.5680 C   0  0  1  0  0  3  0  0  0  0  0  0
  160.7630  204.3200  152.3950 C   0  0  0  0  0  2  0  0  0  0  0  0
  161.5120  203.8290  150.0370 C   0  0  2  0  0  3  0  0  0  0  0  0
  160.3720  203.6780  147.7590 C   0  0  0  0  0  2  0  0  0  0  0  0
  161.4310  205.8570  148.4760 C   0  0  1  0  0  3  0  0  0  0  0  0
  160.7350  202.2770  147.2450 C   0  0  2  0  0  3  0  0  0  0  0  0
  161.0790  202.3550  150.2160 C   0  0  1  0  0  3  0  0  0  0  0  0
  161.8830  201.3480  149.3870 C   0  0  0  0  0  2  0  0  0  0  0  0
  161.1680  201.9530  151.6880 C   0  0  0  0  0  2  0  0  0  0  0  0
  161.8980  206.4400  149.6660 O   0  0  0  0  0  0  0  0  0  0  0  0
  159.5370  201.3490  147.3260 C   0  0  0  0  0  1  0  0  0  0  0  0
  160.8880  206.2430  150.6290 C   0  0  2  0  0  3  0  0  0  0  0  0
  161.9860  201.6520  147.8850 C   0  0  0  0  0  2  0  0  0  0  0  0
  160.3130  202.8720  152.5540 C   0  0  0  0  0  2  0  0  0  0  0  0
  161.2880  209.4410  152.8480 C   0  0  0  0  0  0  0  0  0  0  0  0
  161.2970  210.8210  152.6970 O   0  0  0  0  0  1  0  0  0  0  0  0
  161.1180  207.1140  151.8340 C   0  0  0  0  0  0  0  0  0  0  0  0
  161.2100  208.9100  154.0700 C   0  0  0  0  0  3  0  0  0  0  0  0
  161.0240  206.6000  153.0670 C   0  0  0  0  0  3  0  0  0  0  0  0
  161.3320  208.5640  151.6650 C   0  0  0  0  0  0  0  0  0  0  0  0
  161.5020  209.0570  150.5190 O   0  0  0  0  0  0  0  0  0  0  0  0
  161.2670  207.4190  154.3080 C   0  0  2  0  0  3  0  0  0  0  0  0
  159.6910  207.9220  156.1280 C   0  0  0  0  0  2  0  0  0  0  0  0
  160.3140  207.0110  155.3830 C   0  0  0  0  0  3  0  0  0  0  0  0
  162.2720  206.3670  147.3130 C   0  0  0  0  0  2  0  0  0  0  0  0
  160.5520  206.2800  145.3940 C   0  0  0  0  0  3  0  0  0  0  0  0
  161.4800  204.8090  144.1320 O   0  0  0  0  0  0  0  0  0  0  0  0
  162.2730  204.9610  145.1580 C   0  0  0  0  0  0  0  0  0  0  0  0
  163.3530  204.3360  145.3270 O   0  0  0  0  0  0  0  0  0  0  0  0
  161.7330  205.8970  146.0020 C   0  0  0  0  0  0  0  0  0  0  0  0
  160.4640  205.5890  144.2720 O   0  0  0  0  0  0  0  0  0  0  0  0
  1  3  1  1  0  0  0
  2  5  1  6  0  0  0
  2  4  1  0  0  0  0
  3 15  1  0  0  0  0
  4  8  1  0  0  0  0
  4  1  1  0  0  0  0
  6  2  1  0  0  0  0
  6 11  1  0  0  0  0
  7 12  1  0  0  0  0
  7  5  1  0  0  0  0
  7 14  1  0  0  0  0
  8 10  1  0  0  0  0
  9  8  1  0  0  0  0
 10 15  1  0  0  0  0
 11 13  1  0  0  0  0
 13  1  1  0  0  0  0
 13 18  1  0  0  0  0
 14  9  1  0  0  0  0
 16 19  2  0  0  0  0
 17 16  1  0  0  0  0
 18 20  2  0  0  0  0
 19 23  1  0  0  0  0
 20 23  1  0  0  0  0
 21 18  1  0  0  0  0
 21 16  1  0  0  0  0
 22 21  2  0  0  0  0
 23 25  1  0  0  0  0
 25 24  2  0  0  0  0
 26  6  1  0  0  0  0
 27 31  2  0  0  0  0
 28 32  1  0  0  0  0
 28 29  1  0  0  0  0
 29 30  2  0  0  0  0
 29 31  1  0  0  0  0
 31 26  1  0  0  0  0
 32 27  1  0  0  0  0
M  END
>  <MODEL>
7

>  <REMARK>
 VINA RESULT:      -6.7      2.421      7.173
  Name = 
  4 active torsions:
  status: ('A' for Active; 'I' for Inactive)
    1  A    between atoms: C_10  and  C_32
    2  A    between atoms: C_15  and  C_26
    3  A    between atoms: C_16  and  C_27
    4  A    between atoms: C_28  and  C_32
                            x       y       z     vdW  Elec       q    Type
                         _______ _______ _______ _____ _____    ______ ____

>  <TORSDO>
F 4

$$$$
=
 OpenBabel11062408253D

 32 36  0  0  1  0  0  0  0  0999 V2000
  160.7410  208.5810  152.7880 C   0  0  2  0  0  3  0  0  0  0  0  0
  161.8760  208.8060  150.5230 C   0  0  1  0  0  3  0  0  0  0  0  0
  160.8110  207.9130  154.1640 C   0  0  0  0  0  2  0  0  0  0  0  0
  161.8550  208.0440  151.8710 C   0  0  2  0  0  3  0  0  0  0  0  0
  160.9820  208.1350  149.4750 C   0  0  0  0  0  2  0  0  0  0  0  0
  161.4980  210.2890  150.6920 C   0  0  1  0  0  3  0  0  0  0  0  0
  161.6720  206.9550  148.7760 C   0  0  2  0  0  3  0  0  0  0  0  0
  161.7220  206.5100  151.7330 C   0  0  1  0  0  3  0  0  0  0  0  0
  162.7880  205.8530  150.8500 C   0  0  0  0  0  2  0  0  0  0  0  0
  161.7590  205.8500  153.1110 C   0  0  0  0  0  2  0  0  0  0  0  0
  161.7250  210.7020  152.0160 O   0  0  0  0  0  0  0  0  0  0  0  0
  160.6890  205.8230  148.5390 C   0  0  0  0  0  1  0  0  0  0  0  0
  160.6950  210.1360  152.7930 C   0  0  2  0  0  3  0  0  0  0  0  0
  162.9610  206.4600  149.4510 C   0  0  0  0  0  2  0  0  0  0  0  0
  160.6570  206.4050  154.0090 C   0  0  0  0  0  2  0  0  0  0  0  0
  159.2340  211.6800  156.0780 C   0  0  0  0  0  0  0  0  0  0  0  0
  157.9960  211.9910  156.6230 O   0  0  0  0  0  1  0  0  0  0  0  0
  160.6300  210.7790  154.1510 C   0  0  0  0  0  0  0  0  0  0  0  0
  160.3210  211.6980  156.8520 C   0  0  0  0  0  3  0  0  0  0  0  0
  161.7070  210.7880  154.9460 C   0  0  0  0  0  3  0  0  0  0  0  0
  159.3460  211.3000  154.6590 C   0  0  0  0  0  0  0  0  0  0  0  0
  158.3410  211.3740  153.9040 O   0  0  0  0  0  0  0  0  0  0  0  0
  161.7060  211.4390  156.3060 C   0  0  2  0  0  3  0  0  0  0  0  0
  162.4540  209.2960  157.2510 C   0  0  0  0  0  2  0  0  0  0  0  0
  162.5160  210.6260  157.2610 C   0  0  0  0  0  3  0  0  0  0  0  0
  162.3170  211.1650  149.7540 C   0  0  0  0  0  2  0  0  0  0  0  0
  161.3020  212.0330  147.5480 C   0  0  0  0  0  3  0  0  0  0  0  0
  160.0570  213.6110  148.3100 O   0  0  0  0  0  0  0  0  0  0  0  0
  160.6320  213.0670  149.3490 C   0  0  0  0  0  0  0  0  0  0  0  0
  160.4600  213.4410  150.5390 O   0  0  0  0  0  0  0  0  0  0  0  0
  161.4410  212.0440  148.9240 C   0  0  0  0  0  0  0  0  0  0  0  0
  160.4520  212.9990  147.2470 O   0  0  0  0  0  0  0  0  0  0  0  0
  1 13  1  0  0  0  0
  1  3  1  1  0  0  0
  2  5  1  6  0  0  0
  2  6  1  0  0  0  0
  2  4  1  0  0  0  0
  4  1  1  0  0  0  0
  6 11  1  0  0  0  0
  7 14  1  0  0  0  0
  7  5  1  0  0  0  0
  8  4  1  0  0  0  0
  8 10  1  0  0  0  0
  9  8  1  0  0  0  0
 10 15  1  0  0  0  0
 11 13  1  0  0  0  0
 12  7  1  0  0  0  0
 13 18  1  0  0  0  0
 14  9  1  0  0  0  0
 15  3  1  0  0  0  0
 16 17  1  0  0  0  0
 16 19  2  0  0  0  0
 18 21  1  0  0  0  0
 18 20  2  0  0  0  0
 20 23  1  0  0  0  0
 21 16  1  0  0  0  0
 22 21  2  0  0  0  0
 23 19  1  0  0  0  0
 23 25  1  0  0  0  0
 24 25  2  0  0  0  0
 26  6  1  0  0  0  0
 27 31  2  0  0  0  0
 28 29  1  0  0  0  0
 29 30  2  0  0  0  0
 31 29  1  0  0  0  0
 31 26  1  0  0  0  0
 32 27  1  0  0  0  0
 32 28  1  0  0  0  0
M  END
>  <MODEL>
8

>  <REMARK>
 VINA RESULT:      -6.6      2.135      6.403
  Name = 
  4 active torsions:
  status: ('A' for Active; 'I' for Inactive)
    1  A    between atoms: C_10  and  C_32
    2  A    between atoms: C_15  and  C_26
    3  A    between atoms: C_16  and  C_27
    4  A    between atoms: C_28  and  C_32
                            x       y       z     vdW  Elec       q    Type
                         _______ _______ _______ _____ _____    ______ ____

>  <TORSDO>
F 4

$$$$
=
 OpenBabel11062408253D

 32 36  0  0  1  0  0  0  0  0999 V2000
  161.7760  208.2810  150.0110 C   0  0  2  0  0  3  0  0  0  0  0  0
  160.9570  206.9970  152.0480 C   0  0  1  0  0  3  0  0  0  0  0  0
  161.5840  208.5010  148.5070 C   0  0  0  0  0  2  0  0  0  0  0  0
  160.8690  207.1410  150.5080 C   0  0  2  0  0  3  0  0  0  0  0  0
  162.0590  206.0170  152.4650 C   0  0  0  0  0  2  0  0  0  0  0  0
  161.1450  208.3570  152.7450 C   0  0  1  0  0  3  0  0  0  0  0  0
  161.6070  204.5510  152.3920 C   0  0  2  0  0  3  0  0  0  0  0  0
  161.1860  205.8440  149.7280 C   0  0  1  0  0  3  0  0  0  0  0  0
  160.3330  204.6350  150.1260 C   0  0  0  0  0  2  0  0  0  0  0  0
  161.0250  206.0780  148.2260 C   0  0  0  0  0  2  0  0  0  0  0  0
  160.6890  209.3960  151.9160 O   0  0  0  0  0  0  0  0  0  0  0  0
  162.7300  203.6690  151.8790 C   0  0  0  0  0  1  0  0  0  0  0  0
  161.6530  209.5490  150.9010 C   0  0  2  0  0  3  0  0  0  0  0  0
  160.2960  204.3100  151.6260 C   0  0  0  0  0  2  0  0  0  0  0  0
  161.9210  207.2190  147.7550 C   0  0  0  0  0  2  0  0  0  0  0  0
  160.7750  213.2960  150.1930 C   0  0  0  0  0  0  0  0  0  0  0  0
  160.2670  214.3950  150.8730 O   0  0  0  0  0  1  0  0  0  0  0  0
  161.4550  210.8450  150.1620 C   0  0  0  0  0  0  0  0  0  0  0  0
  161.3300  213.4610  148.9910 C   0  0  0  0  0  3  0  0  0  0  0  0
  162.0220  211.0320  148.9630 C   0  0  0  0  0  3  0  0  0  0  0  0
  160.7320  211.9580  150.8070 C   0  0  0  0  0  0  0  0  0  0  0  0
  160.1260  211.7820  151.8970 O   0  0  0  0  0  0  0  0  0  0  0  0
  161.8370  212.2990  148.1680 C   0  0  2  0  0  3  0  0  0  0  0  0
  163.0930  213.2670  146.2880 C   0  0  0  0  0  2  0  0  0  0  0  0
  163.1090  212.6520  147.4690 C   0  0  0  0  0  3  0  0  0  0  0  0
  160.3770  208.3990  154.0590 C   0  0  0  0  0  2  0  0  0  0  0  0
  161.6670  208.0560  156.2670 C   0  0  0  0  0  3  0  0  0  0  0  0
  162.4760  210.0300  156.5320 O   0  0  0  0  0  0  0  0  0  0  0  0
  161.7960  210.0620  155.4180 C   0  0  0  0  0  0  0  0  0  0  0  0
  161.6670  211.0790  154.6880 O   0  0  0  0  0  0  0  0  0  0  0  0
  161.2560  208.8220  155.1910 C   0  0  0  0  0  0  0  0  0  0  0  0
  162.4000  208.8440  157.0320 O   0  0  0  0  0  0  0  0  0  0  0  0
  1  3  1  6  0  0  0
  1  4  1  0  0  0  0
  1 13  1  0  0  0  0
  2  5  1  6  0  0  0
  2  6  1  0  0  0  0
  4  2  1  0  0  0  0
  6 26  1  0  0  0  0
  7  5  1  0  0  0  0
  8  9  1  0  0  0  0
  8  4  1  0  0  0  0
  9 14  1  0  0  0  0
 10  8  1  0  0  0  0
 11  6  1  0  0  0  0
 12  7  1  0  0  0  0
 13 11  1  0  0  0  0
 14  7  1  0  0  0  0
 15 10  1  0  0  0  0
 15  3  1  0  0  0  0
 16 21  1  0  0  0  0
 16 17  1  0  0  0  0
 18 21  1  0  0  0  0
 18 13  1  0  0  0  0
 19 16  2  0  0  0  0
 20 18  2  0  0  0  0
 21 22  2  0  0  0  0
 23 20  1  0  0  0  0
 23 19  1  0  0  0  0
 24 25  2  0  0  0  0
 25 23  1  0  0  0  0
 26 31  1  0  0  0  0
 27 32  1  0  0  0  0
 28 32  1  0  0  0  0
 29 28  1  0  0  0  0
 30 29  2  0  0  0  0
 31 29  1  0  0  0  0
 31 27  2  0  0  0  0
M  END
>  <MODEL>
9

>  <REMARK>
 VINA RESULT:      -6.5      2.381      6.784
  Name = 
  4 active torsions:
  status: ('A' for Active; 'I' for Inactive)
    1  A    between atoms: C_10  and  C_32
    2  A    between atoms: C_15  and  C_26
    3  A    between atoms: C_16  and  C_27
    4  A    between atoms: C_28  and  C_32
                            x       y       z     vdW  Elec       q    Type
                         _______ _______ _______ _____ _____    ______ ____

>  <TORSDO>
F 4

$$$$
