=
 OpenBabel11052423153D

 27 31  0  0  1  0  0  0  0  0999 V2000
  160.6560  210.6460  150.9100 N   0  0  0  0  0  2  0  0  0  0  0  0
  162.3020  209.4880  149.3770 C   0  0  2  0  0  3  0  0  0  0  0  0
  162.4360  209.0420  152.6170 N   0  0  0  0  0  2  0  0  0  0  0  0
  161.4780  206.1220  149.5270 C   0  0  0  0  0  2  0  0  0  0  0  0
  161.3840  208.3680  149.4460 C   0  0  2  0  0  3  0  0  0  0  0  0
  162.2610  206.3770  152.0830 S   0  0  0  0  0  0  0  0  0  0  0  0
  160.8880  211.3670  155.0680 C   0  0  0  0  0  0  0  0  0  0  0  0
  160.9930  211.6650  156.4540 N   0  0  0  0  0  1  0  0  0  0  0  0
  162.5950  208.3830  150.3130 N   0  0  2  0  0  0  0  0  0  0  0  0
  161.8820  210.7660  150.1260 C   0  0  1  0  0  3  0  0  0  0  0  0
  161.4690  205.5090  150.6770 C   0  0  1  0  0  3  0  0  0  0  0  0
  160.6890  210.7950  152.3310 C   0  0  0  0  0  0  0  0  0  0  0  0
  161.9310  208.1390  151.5930 C   0  0  2  0  0  3  0  0  0  0  0  0
  161.7390  210.4230  154.4900 C   0  0  0  0  0  3  0  0  0  0  0  0
  161.5170  207.1020  148.6680 C   0  0  0  0  0  2  0  0  0  0  0  0
  159.9140  211.9980  154.2910 C   0  0  0  0  0  3  0  0  0  0  0  0
  159.8200  211.7150  152.9250 C   0  0  0  0  0  3  0  0  0  0  0  0
  161.6390  210.1140  153.1290 C   0  0  0  0  0  0  0  0  0  0  0  0
  161.6440  214.0880  147.4170 C   0  0  0  0  0  3  0  0  0  0  0  0
  161.7890  211.9260  149.1900 C   0  0  0  0  0  0  0  0  0  0  0  0
  162.6630  212.0000  148.1010 C   0  0  0  0  0  3  0  0  0  0  0  0
  162.5910  213.0800  147.2150 C   0  0  0  0  0  3  0  0  0  0  0  0
  160.7700  214.0190  148.5040 C   0  0  0  0  0  3  0  0  0  0  0  0
  160.8400  212.9400  149.3910 C   0  0  0  0  0  3  0  0  0  0  0  0
  160.7400  203.7210  152.2360 C   0  0  0  0  0  1  0  0  0  0  0  0
  160.5610  203.3940  149.7820 C   0  0  0  0  0  1  0  0  0  0  0  0
  160.4880  204.4060  150.9060 C   0  0  0  0  0  3  0  0  0  0  0  0
  1 12  1  0  0  0  0
  2  5  1  0  0  0  0
  2 10  1  0  0  0  0
  2  9  1  0  0  0  0
  3 18  1  0  0  0  0
  4 11  1  0  0  0  0
  5  9  1  0  0  0  0
  7  8  1  0  0  0  0
  9 13  1  0  0  0  0
 10  1  1  0  0  0  0
 11 27  1  0  0  0  0
 11  6  1  0  0  0  0
 12 17  2  0  0  0  0
 12 18  1  0  0  0  0
 13  6  1  0  0  0  0
 13  3  1  0  0  0  0
 14  7  1  0  0  0  0
 15  5  1  0  0  0  0
 15  4  1  0  0  0  0
 16  7  2  0  0  0  0
 17 16  1  0  0  0  0
 18 14  2  0  0  0  0
 19 23  1  0  0  0  0
 20 24  1  0  0  0  0
 20 10  1  0  0  0  0
 21 20  2  0  0  0  0
 22 19  2  0  0  0  0
 22 21  1  0  0  0  0
 23 24  2  0  0  0  0
 26 27  1  0  0  0  0
 27 25  1  0  0  0  0
M  END
>  <MODEL>
1

>  <REMARK>
 VINA RESULT:      -6.7      0.000      0.000
  Name = 
  2 active torsions:
  status: ('A' for Active; 'I' for Inactive)
    1  A    between atoms: C_9  and  C_15
    2  A    between atoms: C_16  and  C_17
                            x       y       z     vdW  Elec       q    Type
                         _______ _______ _______ _____ _____    ______ ____

>  <TORSDO>
F 2

$$$$
=
 OpenBabel11052423153D

 27 31  0  0  1  0  0  0  0  0999 V2000
  160.5760  208.2410  150.7000 N   0  0  0  0  0  2  0  0  0  0  0  0
  161.6090  210.2480  151.8430 C   0  0  2  0  0  3  0  0  0  0  0  0
  162.6440  209.2900  148.8890 N   0  0  0  0  0  2  0  0  0  0  0  0
  160.6020  212.9860  149.9660 C   0  0  0  0  0  2  0  0  0  0  0  0
  160.6650  211.0210  151.0590 C   0  0  2  0  0  3  0  0  0  0  0  0
  162.1110  211.8330  148.0700 S   0  0  0  0  0  0  0  0  0  0  0  0
  162.0630  205.8830  147.5240 C   0  0  0  0  0  0  0  0  0  0  0  0
  162.5900  205.0510  146.4980 N   0  0  0  0  0  1  0  0  0  0  0  0
  162.0730  210.8840  150.5920 N   0  0  2  0  0  0  0  0  0  0  0  0
  161.5270  208.7170  151.7010 C   0  0  1  0  0  3  0  0  0  0  0  0
  160.8790  213.0360  148.6940 C   0  0  1  0  0  3  0  0  0  0  0  0
  161.0320  207.5120  149.5590 C   0  0  0  0  0  0  0  0  0  0  0  0
  161.7940  210.4200  149.2340 C   0  0  2  0  0  3  0  0  0  0  0  0
  162.6320  207.1340  147.7700 C   0  0  0  0  0  3  0  0  0  0  0  0
  160.4660  212.4950  151.1670 C   0  0  0  0  0  2  0  0  0  0  0  0
  160.9580  205.4600  148.2660 C   0  0  0  0  0  3  0  0  0  0  0  0
  160.4490  206.2710  149.2840 C   0  0  0  0  0  3  0  0  0  0  0  0
  162.1170  207.9650  148.7710 C   0  0  0  0  0  0  0  0  0  0  0  0
  160.7520  206.9010  155.5140 C   0  0  0  0  0  3  0  0  0  0  0  0
  161.2570  208.0740  153.0220 C   0  0  0  0  0  0  0  0  0  0  0  0
  161.0280  208.8780  154.1420 C   0  0  0  0  0  3  0  0  0  0  0  0
  160.7760  208.2930  155.3880 C   0  0  0  0  0  3  0  0  0  0  0  0
  160.9800  206.0940  154.3970 C   0  0  0  0  0  3  0  0  0  0  0  0
  161.2330  206.6760  153.1520 C   0  0  0  0  0  3  0  0  0  0  0  0
  158.4880  213.3810  148.1280 C   0  0  0  0  0  1  0  0  0  0  0  0
  160.2020  213.3050  146.3340 C   0  0  0  0  0  1  0  0  0  0  0  0
  159.9240  213.7120  147.7670 C   0  0  0  0  0  3  0  0  0  0  0  0
  1 10  1  0  0  0  0
  3 13  1  0  0  0  0
  4 15  1  0  0  0  0
  5 15  1  0  0  0  0
  5  2  1  0  0  0  0
  6 11  1  0  0  0  0
  6 13  1  0  0  0  0
  7 14  2  0  0  0  0
  7 16  1  0  0  0  0
  8  7  1  0  0  0  0
  9  5  1  0  0  0  0
  9  2  1  0  0  0  0
 10  2  1  0  0  0  0
 10 20  1  0  0  0  0
 11  4  1  0  0  0  0
 12  1  1  0  0  0  0
 13  9  1  0  0  0  0
 14 18  1  0  0  0  0
 16 17  2  0  0  0  0
 17 12  1  0  0  0  0
 18  3  1  0  0  0  0
 18 12  2  0  0  0  0
 20 24  2  0  0  0  0
 20 21  1  0  0  0  0
 21 22  2  0  0  0  0
 22 19  1  0  0  0  0
 23 19  2  0  0  0  0
 24 23  1  0  0  0  0
 26 27  1  0  0  0  0
 27 25  1  0  0  0  0
 27 11  1  0  0  0  0
M  END
>  <MODEL>
2

>  <REMARK>
 VINA RESULT:      -5.9      2.515      7.384
  Name = 
  2 active torsions:
  status: ('A' for Active; 'I' for Inactive)
    1  A    between atoms: C_9  and  C_15
    2  A    between atoms: C_16  and  C_17
                            x       y       z     vdW  Elec       q    Type
                         _______ _______ _______ _____ _____    ______ ____

>  <TORSDO>
F 2

$$$$
=
 OpenBabel11052423153D

 27 31  0  0  1  0  0  0  0  0999 V2000
  160.1730  209.0960  152.6440 N   0  0  0  0  0  2  0  0  0  0  0  0
  160.4620  211.2590  153.9240 C   0  0  2  0  0  3  0  0  0  0  0  0
  161.5400  210.9810  150.8460 N   0  0  0  0  0  2  0  0  0  0  0  0
  158.3500  213.5290  152.3680 C   0  0  0  0  0  2  0  0  0  0  0  0
  159.2370  211.6660  153.2620 C   0  0  2  0  0  3  0  0  0  0  0  0
  160.0250  213.1780  150.3000 S   0  0  0  0  0  0  0  0  0  0  0  0
  162.1790  207.7160  149.1890 C   0  0  0  0  0  0  0  0  0  0  0  0
  162.8960  207.2240  148.0640 N   0  0  0  0  0  1  0  0  0  0  0  0
  160.5500  212.1110  152.7190 N   0  0  2  0  0  0  0  0  0  0  0  0
  160.9520  209.8270  153.6390 C   0  0  1  0  0  3  0  0  0  0  0  0
  158.4850  213.7710  151.0940 C   0  0  1  0  0  3  0  0  0  0  0  0
  160.7770  208.6790  151.4170 C   0  0  0  0  0  0  0  0  0  0  0  0
  160.3580  211.6730  151.3370 C   0  0  2  0  0  3  0  0  0  0  0  0
  162.2530  209.0690  149.5270 C   0  0  0  0  0  3  0  0  0  0  0  0
  158.5060  212.9400  153.5210 C   0  0  0  0  0  2  0  0  0  0  0  0
  161.3780  206.8520  149.9390 C   0  0  0  0  0  3  0  0  0  0  0  0
  160.6850  207.3330  151.0530 C   0  0  0  0  0  3  0  0  0  0  0  0
  161.5440  209.5670  150.6260 C   0  0  0  0  0  0  0  0  0  0  0  0
  161.2100  207.5360  157.2610 C   0  0  0  0  0  3  0  0  0  0  0  0
  161.0520  209.0380  154.9030 C   0  0  0  0  0  0  0  0  0  0  0  0
  160.2680  207.8900  155.0580 C   0  0  0  0  0  3  0  0  0  0  0  0
  160.3470  207.1390  156.2350 C   0  0  0  0  0  3  0  0  0  0  0  0
  161.9940  208.6820  157.1110 C   0  0  0  0  0  3  0  0  0  0  0  0
  161.9170  209.4340  155.9350 C   0  0  0  0  0  3  0  0  0  0  0  0
  156.0420  214.2020  151.1620 C   0  0  0  0  0  1  0  0  0  0  0  0
  157.0570  213.0380  149.2170 C   0  0  0  0  0  1  0  0  0  0  0  0
  157.2740  214.0940  150.2830 C   0  0  0  0  0  3  0  0  0  0  0  0
  1 10  1  0  0  0  0
  3 13  1  0  0  0  0
  4 15  1  0  0  0  0
  5 15  1  0  0  0  0
  5  2  1  0  0  0  0
  6 11  1  0  0  0  0
  6 13  1  0  0  0  0
  7 14  2  0  0  0  0
  7 16  1  0  0  0  0
  8  7  1  0  0  0  0
  9  5  1  0  0  0  0
  9  2  1  0  0  0  0
 10  2  1  0  0  0  0
 10 20  1  0  0  0  0
 11  4  1  0  0  0  0
 12  1  1  0  0  0  0
 13  9  1  0  0  0  0
 14 18  1  0  0  0  0
 16 17  2  0  0  0  0
 17 12  1  0  0  0  0
 18  3  1  0  0  0  0
 18 12  2  0  0  0  0
 20 21  2  0  0  0  0
 20 24  1  0  0  0  0
 21 22  1  0  0  0  0
 22 19  2  0  0  0  0
 23 19  1  0  0  0  0
 24 23  2  0  0  0  0
 26 27  1  0  0  0  0
 27 11  1  0  0  0  0
 27 25  1  0  0  0  0
M  END
>  <MODEL>
3

>  <REMARK>
 VINA RESULT:      -5.4      2.803      7.517
  Name = 
  2 active torsions:
  status: ('A' for Active; 'I' for Inactive)
    1  A    between atoms: C_9  and  C_15
    2  A    between atoms: C_16  and  C_17
                            x       y       z     vdW  Elec       q    Type
                         _______ _______ _______ _____ _____    ______ ____

>  <TORSDO>
F 2

$$$$
=
 OpenBabel11052423153D

 27 31  0  0  1  0  0  0  0  0999 V2000
  160.6350  207.5370  151.5160 N   0  0  0  0  0  2  0  0  0  0  0  0
  161.2680  206.6130  153.7840 C   0  0  2  0  0  3  0  0  0  0  0  0
  162.4280  209.5010  152.7740 N   0  0  0  0  0  2  0  0  0  0  0  0
  159.7130  208.6930  156.0840 C   0  0  0  0  0  2  0  0  0  0  0  0
  160.1790  207.4320  154.2800 C   0  0  2  0  0  3  0  0  0  0  0  0
  161.3930  210.5280  155.0740 S   0  0  0  0  0  0  0  0  0  0  0  0
  162.5120  210.5370  149.2050 C   0  0  0  0  0  0  0  0  0  0  0  0
  163.1790  211.5010  148.4000 N   0  0  0  0  0  1  0  0  0  0  0  0
  161.5790  207.9300  154.3780 N   0  0  2  0  0  0  0  0  0  0  0  0
  161.4880  206.6150  152.2600 C   0  0  1  0  0  3  0  0  0  0  0  0
  159.9560  209.9730  156.0670 C   0  0  1  0  0  3  0  0  0  0  0  0
  161.2100  208.6230  150.7850 C   0  0  0  0  0  0  0  0  0  0  0  0
  161.3770  209.2310  153.7430 C   0  0  2  0  0  3  0  0  0  0  0  0
  162.8270  210.4220  150.5610 C   0  0  0  0  0  3  0  0  0  0  0  0
  159.6940  207.4500  155.6910 C   0  0  0  0  0  2  0  0  0  0  0  0
  161.5240  209.7240  148.6460 C   0  0  0  0  0  3  0  0  0  0  0  0
  160.8800  208.7670  149.4350 C   0  0  0  0  0  3  0  0  0  0  0  0
  162.1720  209.4840  151.3660 C   0  0  0  0  0  0  0  0  0  0  0  0
  161.1440  202.6600  150.6250 C   0  0  0  0  0  3  0  0  0  0  0  0
  161.3690  205.2340  151.7040 C   0  0  0  0  0  0  0  0  0  0  0  0
  161.3180  205.0560  150.3170 C   0  0  0  0  0  3  0  0  0  0  0  0
  161.2050  203.7700  149.7780 C   0  0  0  0  0  3  0  0  0  0  0  0
  161.1950  202.8330  152.0100 C   0  0  0  0  0  3  0  0  0  0  0  0
  161.3070  204.1170  152.5510 C   0  0  0  0  0  3  0  0  0  0  0  0
  157.8520  211.0690  155.3400 C   0  0  0  0  0  1  0  0  0  0  0  0
  159.4590  212.2810  156.7940 C   0  0  0  0  0  1  0  0  0  0  0  0
  158.8730  210.9250  156.4530 C   0  0  0  0  0  3  0  0  0  0  0  0
  1 10  1  0  0  0  0
  2  5  1  0  0  0  0
  2  9  1  0  0  0  0
  3 13  1  0  0  0  0
  5  9  1  0  0  0  0
  5 15  1  0  0  0  0
  6 11  1  0  0  0  0
  7 14  1  0  0  0  0
  8  7  1  0  0  0  0
 10  2  1  0  0  0  0
 11  4  1  0  0  0  0
 11 27  1  0  0  0  0
 12 18  1  0  0  0  0
 12  1  1  0  0  0  0
 13  9  1  0  0  0  0
 13  6  1  0  0  0  0
 14 18  2  0  0  0  0
 15  4  1  0  0  0  0
 16  7  2  0  0  0  0
 16 17  1  0  0  0  0
 17 12  2  0  0  0  0
 18  3  1  0  0  0  0
 19 23  1  0  0  0  0
 20 10  1  0  0  0  0
 20 24  1  0  0  0  0
 21 20  2  0  0  0  0
 22 21  1  0  0  0  0
 22 19  2  0  0  0  0
 23 24  2  0  0  0  0
 25 27  1  0  0  0  0
 27 26  1  0  0  0  0
M  END
>  <MODEL>
4

>  <REMARK>
 VINA RESULT:      -4.7      2.411      7.035
  Name = 
  2 active torsions:
  status: ('A' for Active; 'I' for Inactive)
    1  A    between atoms: C_9  and  C_15
    2  A    between atoms: C_16  and  C_17
                            x       y       z     vdW  Elec       q    Type
                         _______ _______ _______ _____ _____    ______ ____

>  <TORSDO>
F 2

$$$$
=
 OpenBabel11052423153D

 27 31  0  0  1  0  0  0  0  0999 V2000
  161.0550  208.6770  149.0970 N   0  0  0  0  0  2  0  0  0  0  0  0
  162.1390  207.1300  150.7800 C   0  0  2  0  0  3  0  0  0  0  0  0
  162.8320  210.3280  150.7610 N   0  0  0  0  0  2  0  0  0  0  0  0
  160.7900  208.0280  153.8470 C   0  0  0  0  0  2  0  0  0  0  0  0
  161.0720  207.5540  151.6670 C   0  0  2  0  0  3  0  0  0  0  0  0
  162.0950  210.3280  153.3830 S   0  0  0  0  0  0  0  0  0  0  0  0
  162.2270  212.5350  147.8320 C   0  0  0  0  0  0  0  0  0  0  0  0
  162.6550  213.8070  147.3600 N   0  0  0  0  0  1  0  0  0  0  0  0
  162.4150  208.1910  151.7710 N   0  0  2  0  0  0  0  0  0  0  0  0
  162.1030  207.6920  149.3470 C   0  0  1  0  0  3  0  0  0  0  0  0
  160.9030  209.2560  154.2690 C   0  0  1  0  0  3  0  0  0  0  0  0
  161.3930  210.0210  148.7500 C   0  0  0  0  0  0  0  0  0  0  0  0
  161.9860  209.5860  151.6830 C   0  0  2  0  0  3  0  0  0  0  0  0
  162.7700  212.0070  149.0050 C   0  0  0  0  0  3  0  0  0  0  0  0
  160.8270  207.0100  153.0340 C   0  0  0  0  0  2  0  0  0  0  0  0
  161.2430  211.8280  147.1380 C   0  0  0  0  0  3  0  0  0  0  0  0
  160.8330  210.5720  147.5940 C   0  0  0  0  0  3  0  0  0  0  0  0
  162.3510  210.7610  149.4850 C   0  0  0  0  0  0  0  0  0  0  0  0
  161.8820  204.4940  146.4910 C   0  0  0  0  0  3  0  0  0  0  0  0
  162.0290  206.5880  148.3440 C   0  0  0  0  0  0  0  0  0  0  0  0
  161.6540  205.3070  148.7610 C   0  0  0  0  0  3  0  0  0  0  0  0
  161.5810  204.2600  147.8360 C   0  0  0  0  0  3  0  0  0  0  0  0
  162.2570  205.7720  146.0700 C   0  0  0  0  0  3  0  0  0  0  0  0
  162.3310  206.8190  146.9930 C   0  0  0  0  0  3  0  0  0  0  0  0
  159.6580  211.3280  154.8320 C   0  0  0  0  0  1  0  0  0  0  0  0
  160.0870  209.6110  156.5730 C   0  0  0  0  0  1  0  0  0  0  0  0
  159.8110  209.8430  155.1020 C   0  0  0  0  0  3  0  0  0  0  0  0
  1 10  1  0  0  0  0
  2  5  1  0  0  0  0
  2  9  1  0  0  0  0
  3 13  1  0  0  0  0
  4 11  1  0  0  0  0
  5  9  1  0  0  0  0
  5 15  1  0  0  0  0
  6 11  1  0  0  0  0
  7 14  1  0  0  0  0
  8  7  1  0  0  0  0
 10  2  1  0  0  0  0
 11 27  1  0  0  0  0
 12  1  1  0  0  0  0
 12 18  1  0  0  0  0
 13  9  1  0  0  0  0
 13  6  1  0  0  0  0
 14 18  2  0  0  0  0
 15  4  1  0  0  0  0
 16 17  1  0  0  0  0
 16  7  2  0  0  0  0
 17 12  2  0  0  0  0
 18  3  1  0  0  0  0
 19 22  1  0  0  0  0
 20 21  1  0  0  0  0
 20 10  1  0  0  0  0
 22 21  2  0  0  0  0
 23 19  2  0  0  0  0
 23 24  1  0  0  0  0
 24 20  2  0  0  0  0
 25 27  1  0  0  0  0
 27 26  1  0  0  0  0
M  END
>  <MODEL>
5

>  <REMARK>
 VINA RESULT:      -4.2      2.155      6.043
  Name = 
  2 active torsions:
  status: ('A' for Active; 'I' for Inactive)
    1  A    between atoms: C_9  and  C_15
    2  A    between atoms: C_16  and  C_17
                            x       y       z     vdW  Elec       q    Type
                         _______ _______ _______ _____ _____    ______ ____

>  <TORSDO>
F 2

$$$$
=
 OpenBabel11052423153D

 27 31  0  0  1  0  0  0  0  0999 V2000
  160.5610  206.1950  149.1170 N   0  0  0  0  0  2  0  0  0  0  0  0
  161.9630  207.1280  151.0050 C   0  0  2  0  0  3  0  0  0  0  0  0
  162.7080  207.7880  147.8870 N   0  0  0  0  0  2  0  0  0  0  0  0
  161.3660  210.5450  150.9820 C   0  0  0  0  0  2  0  0  0  0  0  0
  161.1350  208.3110  150.8650 C   0  0  2  0  0  3  0  0  0  0  0  0
  162.5850  210.4150  148.5940 S   0  0  0  0  0  0  0  0  0  0  0  0
  161.5050  205.7490  145.0220 C   0  0  0  0  0  0  0  0  0  0  0  0
  161.8450  205.5410  143.6560 N   0  0  0  0  0  1  0  0  0  0  0  0
  162.4810  208.2740  150.2280 N   0  0  2  0  0  0  0  0  0  0  0  0
  161.6170  205.9380  150.0930 C   0  0  1  0  0  3  0  0  0  0  0  0
  161.5990  211.2360  149.9020 C   0  0  1  0  0  3  0  0  0  0  0  0
  160.8440  206.1430  147.7170 C   0  0  0  0  0  0  0  0  0  0  0  0
  162.0760  208.6500  148.8740 C   0  0  2  0  0  3  0  0  0  0  0  0
  162.2880  206.5910  145.8150 C   0  0  0  0  0  3  0  0  0  0  0  0
  161.1940  209.5080  151.7540 C   0  0  0  0  0  2  0  0  0  0  0  0
  160.3740  205.1340  145.5610 C   0  0  0  0  0  3  0  0  0  0  0  0
  160.0490  205.3270  146.9070 C   0  0  0  0  0  3  0  0  0  0  0  0
  161.9600  206.8110  147.1570 C   0  0  0  0  0  0  0  0  0  0  0  0
  160.6770  202.4310  152.3860 C   0  0  0  0  0  3  0  0  0  0  0  0
  161.2910  204.7250  150.9020 C   0  0  0  0  0  0  0  0  0  0  0  0
  161.1360  203.4930  150.2580 C   0  0  0  0  0  3  0  0  0  0  0  0
  160.8290  202.3470  150.9990 C   0  0  0  0  0  3  0  0  0  0  0  0
  160.8310  203.6590  153.0330 C   0  0  0  0  0  3  0  0  0  0  0  0
  161.1370  204.8060  152.2950 C   0  0  0  0  0  3  0  0  0  0  0  0
  161.5220  213.4830  148.8510 C   0  0  0  0  0  1  0  0  0  0  0  0
  160.1580  212.9950  150.8670 C   0  0  0  0  0  1  0  0  0  0  0  0
  160.7380  212.4160  149.5920 C   0  0  0  0  0  3  0  0  0  0  0  0
  1 10  1  0  0  0  0
  3 13  1  0  0  0  0
  4 15  1  0  0  0  0
  5  2  1  0  0  0  0
  5 15  1  0  0  0  0
  6 13  1  0  0  0  0
  6 11  1  0  0  0  0
  7 16  2  0  0  0  0
  7 14  1  0  0  0  0
  8  7  1  0  0  0  0
  9  5  1  0  0  0  0
  9  2  1  0  0  0  0
 10 20  1  0  0  0  0
 10  2  1  0  0  0  0
 11  4  1  0  0  0  0
 12  1  1  0  0  0  0
 13  9  1  0  0  0  0
 14 18  2  0  0  0  0
 16 17  1  0  0  0  0
 17 12  2  0  0  0  0
 18 12  1  0  0  0  0
 18  3  1  0  0  0  0
 19 23  1  0  0  0  0
 20 24  1  0  0  0  0
 21 20  2  0  0  0  0
 21 22  1  0  0  0  0
 22 19  2  0  0  0  0
 24 23  2  0  0  0  0
 25 27  1  0  0  0  0
 27 11  1  0  0  0  0
 27 26  1  0  0  0  0
M  END
>  <MODEL>
6

>  <REMARK>
 VINA RESULT:      -4.0      2.505      8.167
  Name = 
  2 active torsions:
  status: ('A' for Active; 'I' for Inactive)
    1  A    between atoms: C_9  and  C_15
    2  A    between atoms: C_16  and  C_17
                            x       y       z     vdW  Elec       q    Type
                         _______ _______ _______ _____ _____    ______ ____

>  <TORSDO>
F 2

$$$$
