=
 OpenBabel11062410513D

 32 37  0  0  1  0  0  0  0  0999 V2000
  161.1730  204.4100  148.2900 C   0  0  0  0  0  0  0  0  0  0  0  0
  161.6090  208.5970  150.9700 C   0  0  0  0  0  0  0  0  0  0  0  0
  160.4790  207.2320  155.5610 C   0  0  0  0  0  3  0  0  0  0  0  0
  160.1710  208.5440  155.9240 C   0  0  0  0  0  3  0  0  0  0  0  0
  161.5800  207.0280  149.1990 C   0  0  0  0  0  0  0  0  0  0  0  0
  160.9860  206.3330  151.4070 N   0  0  0  0  0  0  0  0  0  0  0  0
  160.9780  204.7160  149.6450 C   0  0  0  0  0  3  0  0  0  0  0  0
  160.8080  206.9320  154.2380 C   0  0  0  0  0  3  0  0  0  0  0  0
  161.1790  207.6010  151.8670 C   0  0  0  0  0  0  0  0  0  0  0  0
  160.8420  207.9420  153.2670 C   0  0  0  0  0  0  0  0  0  0  0  0
  160.4880  210.3490  152.5620 C   0  0  2  0  0  3  0  0  0  0  0  0
  161.5650  205.4150  147.3970 C   0  0  0  0  0  3  0  0  0  0  0  0
  161.1830  206.0200  150.1010 C   0  0  0  0  0  0  0  0  0  0  0  0
  161.7700  206.7220  147.8500 C   0  0  0  0  0  3  0  0  0  0  0  0
  160.1900  209.5570  154.9640 C   0  0  0  0  0  3  0  0  0  0  0  0
  160.5290  209.2740  153.6300 C   0  0  0  0  0  0  0  0  0  0  0  0
  161.7850  208.2890  149.6570 N   0  0  0  0  0  0  0  0  0  0  0  0
  161.9950  210.2520  151.5500 S   0  0  0  0  0  0  0  0  0  0  0  0
  161.5180  202.8820  146.5070 O   0  0  0  0  0  1  0  0  0  0  0  0
  160.9510  203.0230  147.7750 C   0  0  1  0  0  3  0  0  0  0  0  0
  161.5390  201.9890  148.7240 C   0  0  0  0  0  3  0  0  0  0  0  0
  160.4240  201.1440  149.3060 C   0  0  0  0  0  2  0  0  0  0  0  0
  161.2770  200.5990  148.1810 C   0  0  0  0  0  2  0  0  0  0  0  0
  160.3520  211.7670  153.1090 C   0  0  0  0  0  2  0  0  0  0  0  0
  159.2390  212.4600  152.4600 N   0  0  0  0  0  0  0  0  0  0  0  0
  158.2980  212.8630  153.4290 N   0  0  0  0  0  2  0  0  0  0  0  0
  157.5370  211.9650  154.2030 C   0  0  0  0  0  0  0  0  0  0  0  0
  156.9130  211.2280  154.8390 N   0  0  0  0  0  0  0  0  0  0  0  0
  159.6870  213.6170  151.6700 C   0  0  0  0  0  2  0  0  0  0  0  0
  159.5210  213.4370  150.1620 C   0  0  1  0  0  3  0  0  0  0  0  0
  160.3380  214.4390  149.4460 C   0  0  0  0  0  2  0  0  0  0  0  0
  160.7700  213.1110  149.6040 O   0  0  0  0  0  0  0  0  0  0  0  0
  1  7  1  0  0  0  0
  2 18  1  0  0  0  0
  2  9  1  0  0  0  0
  3  4  1  0  0  0  0
  5 17  1  0  0  0  0
  5 13  1  0  0  0  0
  6  9  2  0  0  0  0
  7 13  2  0  0  0  0
  8  3  2  0  0  0  0
  9 10  1  0  0  0  0
 10 16  2  0  0  0  0
 10  8  1  0  0  0  0
 11 24  1  1  0  0  0
 11 16  1  0  0  0  0
 12 14  1  0  0  0  0
 12  1  2  0  0  0  0
 13  6  1  0  0  0  0
 14  5  2  0  0  0  0
 15  4  2  0  0  0  0
 16 15  1  0  0  0  0
 17  2  2  0  0  0  0
 18 11  1  0  0  0  0
 20 19  1  6  0  0  0
 20  1  1  0  0  0  0
 20 21  1  0  0  0  0
 21 22  1  0  0  0  0
 23 21  1  0  0  0  0
 23 22  1  0  0  0  0
 25 24  1  0  0  0  0
 25 26  1  0  0  0  0
 26 27  1  0  0  0  0
 27 28  3  0  0  0  0
 29 25  1  0  0  0  0
 30 29  1  1  0  0  0
 31 32  1  0  0  0  0
 31 30  1  0  0  0  0
 32 30  1  0  0  0  0
M  END
>  <MODEL>
1

>  <REMARK>
 VINA RESULT:      -8.5      0.000      0.000
  Name = 
  8 active torsions:
  status: ('A' for Active; 'I' for Inactive)
    1  A    between atoms: C_1  and  C_24
    2  A    between atoms: C_2  and  C_24
    3  A    between atoms: C_6  and  N_7
    4  A    between atoms: N_7  and  N_32
    5  A    between atoms: C_11  and  C_22
    6  A    between atoms: C_16  and  C_27
    7  A    between atoms: C_22  and  N_32
    8  A    between atoms: C_27  and  N_32
                            x       y       z     vdW  Elec       q    Type
                         _______ _______ _______ _____ _____    ______ ____

>  <TORSDO>
F 8

$$$$
=
 OpenBabel11062410513D

 32 37  0  0  1  0  0  0  0  0999 V2000
  161.1120  204.6810  148.7170 C   0  0  0  0  0  0  0  0  0  0  0  0
  161.6160  208.6950  151.6390 C   0  0  0  0  0  0  0  0  0  0  0  0
  160.3800  207.1030  156.1280 C   0  0  0  0  0  3  0  0  0  0  0  0
  160.1010  208.3990  156.5610 C   0  0  0  0  0  3  0  0  0  0  0  0
  161.5730  207.2320  149.7810 C   0  0  0  0  0  0  0  0  0  0  0  0
  160.9270  206.4280  151.9370 N   0  0  0  0  0  0  0  0  0  0  0  0
  160.9040  204.9150  150.0840 C   0  0  0  0  0  3  0  0  0  0  0  0
  160.7210  206.8700  154.7950 C   0  0  0  0  0  3  0  0  0  0  0  0
  161.1460  207.6620  152.4710 C   0  0  0  0  0  0  0  0  0  0  0  0
  160.7970  207.9320  153.8830 C   0  0  0  0  0  0  0  0  0  0  0  0
  160.5170  210.3840  153.3120 C   0  0  2  0  0  3  0  0  0  0  0  0
  161.5440  205.7240  147.8890 C   0  0  0  0  0  3  0  0  0  0  0  0
  161.1360  206.1840  150.6180 C   0  0  0  0  0  0  0  0  0  0  0  0
  161.7760  206.9970  148.4190 C   0  0  0  0  0  3  0  0  0  0  0  0
  160.1610  209.4650  155.6610 C   0  0  0  0  0  3  0  0  0  0  0  0
  160.5140  209.2490  154.3180 C   0  0  0  0  0  0  0  0  0  0  0  0
  161.8050  208.4580  150.3130 N   0  0  0  0  0  0  0  0  0  0  0  0
  162.0360  210.3030  152.3180 S   0  0  0  0  0  0  0  0  0  0  0  0
  161.6000  203.1790  146.9450 O   0  0  0  0  0  1  0  0  0  0  0  0
  160.8610  203.3320  148.1200 C   0  0  1  0  0  3  0  0  0  0  0  0
  161.2170  202.2270  149.1040 C   0  0  0  0  0  3  0  0  0  0  0  0
  160.0090  201.3380  149.3240 C   0  0  0  0  0  2  0  0  0  0  0  0
  161.1260  200.8850  148.4090 C   0  0  0  0  0  2  0  0  0  0  0  0
  160.4110  211.7720  153.9380 C   0  0  0  0  0  2  0  0  0  0  0  0
  159.2400  212.4780  153.4160 N   0  0  0  0  0  0  0  0  0  0  0  0
  159.4470  212.8100  152.0620 N   0  0  0  0  0  2  0  0  0  0  0  0
  158.4180  213.2120  151.1880 C   0  0  0  0  0  0  0  0  0  0  0  0
  157.5730  213.5420  150.4710 N   0  0  0  0  0  0  0  0  0  0  0  0
  158.0040  211.6940  153.5680 C   0  0  0  0  0  2  0  0  0  0  0  0
  157.0640  212.2260  154.6480 C   0  0  1  0  0  3  0  0  0  0  0  0
  156.1320  211.1590  155.0690 C   0  0  0  0  0  2  0  0  0  0  0  0
  157.2680  211.4890  155.8290 O   0  0  0  0  0  0  0  0  0  0  0  0
  1  7  1  0  0  0  0
  2 18  1  0  0  0  0
  2  9  1  0  0  0  0
  3  4  1  0  0  0  0
  5 17  1  0  0  0  0
  5 13  1  0  0  0  0
  6  9  2  0  0  0  0
  7 13  2  0  0  0  0
  8  3  2  0  0  0  0
  9 10  1  0  0  0  0
 10 16  2  0  0  0  0
 10  8  1  0  0  0  0
 11 24  1  1  0  0  0
 11 16  1  0  0  0  0
 12 14  1  0  0  0  0
 12  1  2  0  0  0  0
 13  6  1  0  0  0  0
 14  5  2  0  0  0  0
 15  4  2  0  0  0  0
 16 15  1  0  0  0  0
 17  2  2  0  0  0  0
 18 11  1  0  0  0  0
 20 19  1  6  0  0  0
 20  1  1  0  0  0  0
 20 21  1  0  0  0  0
 21 22  1  0  0  0  0
 23 21  1  0  0  0  0
 23 22  1  0  0  0  0
 25 29  1  0  0  0  0
 25 24  1  0  0  0  0
 26 25  1  0  0  0  0
 27 26  1  0  0  0  0
 28 27  3  0  0  0  0
 30 29  1  6  0  0  0
 30 31  1  0  0  0  0
 30 32  1  0  0  0  0
 31 32  1  0  0  0  0
M  END
>  <MODEL>
2

>  <REMARK>
 VINA RESULT:      -8.5      1.640      2.505
  Name = 
  8 active torsions:
  status: ('A' for Active; 'I' for Inactive)
    1  A    between atoms: C_1  and  C_24
    2  A    between atoms: C_2  and  C_24
    3  A    between atoms: C_6  and  N_7
    4  A    between atoms: N_7  and  N_32
    5  A    between atoms: C_11  and  C_22
    6  A    between atoms: C_16  and  C_27
    7  A    between atoms: C_22  and  N_32
    8  A    between atoms: C_27  and  N_32
                            x       y       z     vdW  Elec       q    Type
                         _______ _______ _______ _____ _____    ______ ____

>  <TORSDO>
F 8

$$$$
=
 OpenBabel11062410513D

 32 37  0  0  1  0  0  0  0  0999 V2000
  161.5420  205.3700  148.6020 C   0  0  0  0  0  0  0  0  0  0  0  0
  161.3100  209.1340  151.8710 C   0  0  0  0  0  0  0  0  0  0  0  0
  160.4350  206.9480  156.1930 C   0  0  0  0  0  3  0  0  0  0  0  0
  159.9220  208.1260  156.7370 C   0  0  0  0  0  3  0  0  0  0  0  0
  161.5260  207.8580  149.8910 C   0  0  0  0  0  0  0  0  0  0  0  0
  161.0620  206.7610  151.9630 N   0  0  0  0  0  0  0  0  0  0  0  0
  161.3060  205.4400  149.9840 C   0  0  0  0  0  3  0  0  0  0  0  0
  160.8020  206.9020  154.8470 C   0  0  0  0  0  3  0  0  0  0  0  0
  161.0500  207.9620  152.6060 C   0  0  0  0  0  0  0  0  0  0  0  0
  160.6690  208.0360  154.0330 C   0  0  0  0  0  0  0  0  0  0  0  0
  159.9290  210.4320  153.6790 C   0  0  2  0  0  3  0  0  0  0  0  0
  161.7630  206.5450  147.8730 C   0  0  0  0  0  3  0  0  0  0  0  0
  161.3010  206.6780  150.6290 C   0  0  0  0  0  0  0  0  0  0  0  0
  161.7570  207.7880  148.5150 C   0  0  0  0  0  3  0  0  0  0  0  0
  159.7740  209.2590  155.9350 C   0  0  0  0  0  3  0  0  0  0  0  0
  160.1480  209.2330  154.5800 C   0  0  0  0  0  0  0  0  0  0  0  0
  161.5280  209.0550  150.5320 N   0  0  0  0  0  0  0  0  0  0  0  0
  161.4270  210.7260  152.6930 S   0  0  0  0  0  0  0  0  0  0  0  0
  160.7140  203.1470  148.5470 O   0  0  0  0  0  1  0  0  0  0  0  0
  161.5430  204.0560  147.8870 C   0  0  1  0  0  3  0  0  0  0  0  0
  161.0880  204.2220  146.4450 C   0  0  0  0  0  3  0  0  0  0  0  0
  162.2490  203.9370  145.5130 C   0  0  0  0  0  2  0  0  0  0  0  0
  161.1800  202.8880  145.7320 C   0  0  0  0  0  2  0  0  0  0  0  0
  159.5700  211.7150  154.4240 C   0  0  0  0  0  2  0  0  0  0  0  0
  158.2470  212.1880  154.0150 N   0  0  0  0  0  0  0  0  0  0  0  0
  157.3470  212.0830  155.0950 N   0  0  0  0  0  2  0  0  0  0  0  0
  156.2850  211.1600  155.1410 C   0  0  0  0  0  0  0  0  0  0  0  0
  155.4120  210.4020  155.1790 N   0  0  0  0  0  0  0  0  0  0  0  0
  158.2820  213.5700  153.5110 C   0  0  0  0  0  2  0  0  0  0  0  0
  157.8150  213.7120  152.0640 C   0  0  1  0  0  3  0  0  0  0  0  0
  158.8260  214.4520  151.2820 C   0  0  0  0  0  2  0  0  0  0  0  0
  158.7300  213.0510  151.2250 O   0  0  0  0  0  0  0  0  0  0  0  0
  1  7  1  0  0  0  0
  2  9  1  0  0  0  0
  2 18  1  0  0  0  0
  3  4  1  0  0  0  0
  5 17  1  0  0  0  0
  5 13  1  0  0  0  0
  6  9  2  0  0  0  0
  7 13  2  0  0  0  0
  8  3  2  0  0  0  0
  9 10  1  0  0  0  0
 10 16  2  0  0  0  0
 10  8  1  0  0  0  0
 11 24  1  1  0  0  0
 11 16  1  0  0  0  0
 12 14  1  0  0  0  0
 12  1  2  0  0  0  0
 13  6  1  0  0  0  0
 14  5  2  0  0  0  0
 15  4  2  0  0  0  0
 16 15  1  0  0  0  0
 17  2  2  0  0  0  0
 18 11  1  0  0  0  0
 20 19  1  1  0  0  0
 20  1  1  0  0  0  0
 21 20  1  0  0  0  0
 22 23  1  0  0  0  0
 22 21  1  0  0  0  0
 23 21  1  0  0  0  0
 25 24  1  0  0  0  0
 25 26  1  0  0  0  0
 26 27  1  0  0  0  0
 27 28  3  0  0  0  0
 29 25  1  0  0  0  0
 30 29  1  1  0  0  0
 31 30  1  0  0  0  0
 32 31  1  0  0  0  0
 32 30  1  0  0  0  0
M  END
>  <MODEL>
3

>  <REMARK>
 VINA RESULT:      -7.5      1.545      1.878
  Name = 
  8 active torsions:
  status: ('A' for Active; 'I' for Inactive)
    1  A    between atoms: C_1  and  C_24
    2  A    between atoms: C_2  and  C_24
    3  A    between atoms: C_6  and  N_7
    4  A    between atoms: N_7  and  N_32
    5  A    between atoms: C_11  and  C_22
    6  A    between atoms: C_16  and  C_27
    7  A    between atoms: C_22  and  N_32
    8  A    between atoms: C_27  and  N_32
                            x       y       z     vdW  Elec       q    Type
                         _______ _______ _______ _____ _____    ______ ____

>  <TORSDO>
F 8

$$$$
=
 OpenBabel11062410513D

 32 37  0  0  1  0  0  0  0  0999 V2000
  161.3010  209.0740  154.1760 C   0  0  0  0  0  0  0  0  0  0  0  0
  161.0140  206.8810  149.7030 C   0  0  0  0  0  0  0  0  0  0  0  0
  160.4490  202.0990  150.7190 C   0  0  0  0  0  3  0  0  0  0  0  0
  160.9110  201.7290  149.4560 C   0  0  0  0  0  3  0  0  0  0  0  0
  161.2180  208.4720  151.4410 C   0  0  0  0  0  0  0  0  0  0  0  0
  160.9850  206.1550  151.9770 N   0  0  0  0  0  0  0  0  0  0  0  0
  161.1560  207.7430  153.7590 C   0  0  0  0  0  3  0  0  0  0  0  0
  160.4600  203.4410  151.1020 C   0  0  0  0  0  3  0  0  0  0  0  0
  160.9430  205.8440  150.6510 C   0  0  0  0  0  0  0  0  0  0  0  0
  160.9250  204.4290  150.2220 C   0  0  0  0  0  0  0  0  0  0  0  0
  161.9740  205.1170  148.0210 C   0  0  2  0  0  3  0  0  0  0  0  0
  161.4080  210.0960  153.2250 C   0  0  0  0  0  3  0  0  0  0  0  0
  161.1120  207.4400  152.3960 C   0  0  0  0  0  0  0  0  0  0  0  0
  161.3650  209.7970  151.8590 C   0  0  0  0  0  3  0  0  0  0  0  0
  161.3880  202.7010  148.5740 C   0  0  0  0  0  3  0  0  0  0  0  0
  161.3960  204.0580  148.9390 C   0  0  0  0  0  0  0  0  0  0  0  0
  161.1630  208.1660  150.1200 N   0  0  0  0  0  0  0  0  0  0  0  0
  160.8400  206.5360  147.9490 S   0  0  0  0  0  0  0  0  0  0  0  0
  161.7060  208.2970  156.3820 O   0  0  0  0  0  1  0  0  0  0  0  0
  161.3610  209.4220  155.6300 C   0  0  1  0  0  3  0  0  0  0  0  0
  162.3620  210.5400  155.8810 C   0  0  0  0  0  3  0  0  0  0  0  0
  161.9520  211.3180  157.1160 C   0  0  0  0  0  2  0  0  0  0  0  0
  163.0670  210.2980  157.2000 C   0  0  0  0  0  2  0  0  0  0  0  0
  162.2450  204.6310  146.6000 C   0  0  0  0  0  2  0  0  0  0  0  0
  161.0080  204.6210  145.8210 N   0  0  0  0  0  0  0  0  0  0  0  0
  160.9390  205.7770  145.0180 N   0  0  0  0  0  2  0  0  0  0  0  0
  161.2990  205.8080  143.6560 C   0  0  0  0  0  0  0  0  0  0  0  0
  161.5950  205.8320  142.5380 N   0  0  0  0  0  0  0  0  0  0  0  0
  160.8830  203.4130  144.9890 C   0  0  0  0  0  2  0  0  0  0  0  0
  159.8640  202.4030  145.5150 C   0  0  1  0  0  3  0  0  0  0  0  0
  159.7110  201.2980  144.5470 C   0  0  0  0  0  2  0  0  0  0  0  0
  160.5060  201.1650  145.6980 O   0  0  0  0  0  0  0  0  0  0  0  0
  1 20  1  0  0  0  0
  2 17  2  0  0  0  0
  2  9  1  0  0  0  0
  3  8  1  0  0  0  0
  4  3  2  0  0  0  0
  5 14  2  0  0  0  0
  5 13  1  0  0  0  0
  6 13  1  0  0  0  0
  7  1  1  0  0  0  0
  9  6  2  0  0  0  0
 10  9  1  0  0  0  0
 10  8  2  0  0  0  0
 11 24  1  6  0  0  0
 11 16  1  0  0  0  0
 12  1  2  0  0  0  0
 13  7  2  0  0  0  0
 14 12  1  0  0  0  0
 15 16  2  0  0  0  0
 15  4  1  0  0  0  0
 16 10  1  0  0  0  0
 17  5  1  0  0  0  0
 18 11  1  0  0  0  0
 18  2  1  0  0  0  0
 20 21  1  0  0  0  0
 20 19  1  1  0  0  0
 21 22  1  0  0  0  0
 21 23  1  0  0  0  0
 22 23  1  0  0  0  0
 25 24  1  0  0  0  0
 26 25  1  0  0  0  0
 27 26  1  0  0  0  0
 28 27  3  0  0  0  0
 29 25  1  0  0  0  0
 30 29  1  6  0  0  0
 30 32  1  0  0  0  0
 31 30  1  0  0  0  0
 31 32  1  0  0  0  0
M  END
>  <MODEL>
4

>  <REMARK>
 VINA RESULT:      -7.2      3.230      9.078
  Name = 
  8 active torsions:
  status: ('A' for Active; 'I' for Inactive)
    1  A    between atoms: C_1  and  C_24
    2  A    between atoms: C_2  and  C_24
    3  A    between atoms: C_6  and  N_7
    4  A    between atoms: N_7  and  N_32
    5  A    between atoms: C_11  and  C_22
    6  A    between atoms: C_16  and  C_27
    7  A    between atoms: C_22  and  N_32
    8  A    between atoms: C_27  and  N_32
                            x       y       z     vdW  Elec       q    Type
                         _______ _______ _______ _____ _____    ______ ____

>  <TORSDO>
F 8

$$$$
=
 OpenBabel11062410513D

 32 37  0  0  1  0  0  0  0  0999 V2000
  161.2000  202.6330  148.5580 C   0  0  0  0  0  0  0  0  0  0  0  0
  160.9360  206.7430  151.3760 C   0  0  0  0  0  0  0  0  0  0  0  0
  161.9080  210.4270  148.2610 C   0  0  0  0  0  3  0  0  0  0  0  0
  162.2780  211.2740  149.3060 C   0  0  0  0  0  3  0  0  0  0  0  0
  160.9150  204.4990  150.6280 C   0  0  0  0  0  0  0  0  0  0  0  0
  161.4310  206.2550  149.0920 N   0  0  0  0  0  0  0  0  0  0  0  0
  161.3860  203.9990  148.2970 C   0  0  0  0  0  3  0  0  0  0  0  0
  161.5880  209.0940  148.5220 C   0  0  0  0  0  3  0  0  0  0  0  0
  161.2960  207.1760  150.0870 C   0  0  0  0  0  0  0  0  0  0  0  0
  161.6250  208.5960  149.8320 C   0  0  0  0  0  0  0  0  0  0  0  0
  162.1180  208.8910  152.2990 C   0  0  2  0  0  3  0  0  0  0  0  0
  160.8780  202.2080  149.8520 C   0  0  0  0  0  3  0  0  0  0  0  0
  161.2410  204.9310  149.3270 C   0  0  0  0  0  0  0  0  0  0  0  0
  160.7340  203.1380  150.8870 C   0  0  0  0  0  3  0  0  0  0  0  0
  162.3300  210.7890  150.6140 C   0  0  0  0  0  3  0  0  0  0  0  0
  162.0000  209.4510  150.8960 C   0  0  0  0  0  0  0  0  0  0  0  0
  160.7680  205.4160  151.6180 N   0  0  0  0  0  0  0  0  0  0  0  0
  160.6270  207.9270  152.6900 S   0  0  0  0  0  0  0  0  0  0  0  0
  161.5730  200.3510  148.0260 O   0  0  0  0  0  1  0  0  0  0  0  0
  161.3590  201.6150  147.4730 C   0  0  1  0  0  3  0  0  0  0  0  0
  160.1340  201.5850  146.5710 C   0  0  0  0  0  3  0  0  0  0  0  0
  160.4560  202.2690  145.2580 C   0  0  0  0  0  2  0  0  0  0  0  0
  160.4350  200.7580  145.3380 C   0  0  0  0  0  2  0  0  0  0  0  0
  162.3180  209.9500  153.3800 C   0  0  0  0  0  2  0  0  0  0  0  0
  161.0790  210.1500  154.1310 N   0  0  0  0  0  0  0  0  0  0  0  0
  161.3170  209.9520  155.5070 N   0  0  0  0  0  2  0  0  0  0  0  0
  162.4910  210.3650  156.1650 C   0  0  0  0  0  0  0  0  0  0  0  0
  163.4560  210.7040  156.7060 N   0  0  0  0  0  0  0  0  0  0  0  0
  160.4970  211.4820  153.8990 C   0  0  0  0  0  2  0  0  0  0  0  0
  159.4250  211.5060  152.8110 C   0  0  1  0  0  3  0  0  0  0  0  0
  158.6470  212.7590  152.9050 C   0  0  0  0  0  2  0  0  0  0  0  0
  159.6710  212.5960  151.9570 O   0  0  0  0  0  0  0  0  0  0  0  0
  1 12  1  0  0  0  0
  2 17  1  0  0  0  0
  2 18  1  0  0  0  0
  3  8  2  0  0  0  0
  3  4  1  0  0  0  0
  4 15  2  0  0  0  0
  5 14  1  0  0  0  0
  5 17  2  0  0  0  0
  6 13  2  0  0  0  0
  6  9  1  0  0  0  0
  7  1  2  0  0  0  0
  7 13  1  0  0  0  0
  8 10  1  0  0  0  0
  9  2  2  0  0  0  0
 10  9  1  0  0  0  0
 10 16  2  0  0  0  0
 11 18  1  0  0  0  0
 11 24  1  1  0  0  0
 12 14  2  0  0  0  0
 13  5  1  0  0  0  0
 15 16  1  0  0  0  0
 16 11  1  0  0  0  0
 20 19  1  1  0  0  0
 20  1  1  0  0  0  0
 21 20  1  0  0  0  0
 22 23  1  0  0  0  0
 22 21  1  0  0  0  0
 23 21  1  0  0  0  0
 24 25  1  0  0  0  0
 25 26  1  0  0  0  0
 26 27  1  0  0  0  0
 27 28  3  0  0  0  0
 29 25  1  0  0  0  0
 30 31  1  0  0  0  0
 30 29  1  1  0  0  0
 32 30  1  0  0  0  0
 32 31  1  0  0  0  0
M  END
>  <MODEL>
5

>  <REMARK>
 VINA RESULT:      -6.7      2.393      3.994
  Name = 
  8 active torsions:
  status: ('A' for Active; 'I' for Inactive)
    1  A    between atoms: C_1  and  C_24
    2  A    between atoms: C_2  and  C_24
    3  A    between atoms: C_6  and  N_7
    4  A    between atoms: N_7  and  N_32
    5  A    between atoms: C_11  and  C_22
    6  A    between atoms: C_16  and  C_27
    7  A    between atoms: C_22  and  N_32
    8  A    between atoms: C_27  and  N_32
                            x       y       z     vdW  Elec       q    Type
                         _______ _______ _______ _____ _____    ______ ____

>  <TORSDO>
F 8

$$$$
=
 OpenBabel11062410513D

 32 37  0  0  1  0  0  0  0  0999 V2000
  161.2340  203.7310  148.0740 C   0  0  0  0  0  0  0  0  0  0  0  0
  161.9050  207.9200  150.7030 C   0  0  0  0  0  0  0  0  0  0  0  0
  160.6020  206.7060  155.2910 C   0  0  0  0  0  3  0  0  0  0  0  0
  160.3770  208.0400  155.6290 C   0  0  0  0  0  3  0  0  0  0  0  0
  161.8020  206.3300  148.9550 C   0  0  0  0  0  0  0  0  0  0  0  0
  161.1220  205.7110  151.1600 N   0  0  0  0  0  0  0  0  0  0  0  0
  161.0360  204.0710  149.4210 C   0  0  0  0  0  3  0  0  0  0  0  0
  160.9330  206.3640  153.9790 C   0  0  0  0  0  3  0  0  0  0  0  0
  161.3920  206.9700  151.6060 C   0  0  0  0  0  0  0  0  0  0  0  0
  161.0540  207.3540  152.9940 C   0  0  0  0  0  0  0  0  0  0  0  0
  160.8770  209.7680  152.2480 C   0  0  2  0  0  3  0  0  0  0  0  0
  161.7100  204.6930  147.1750 C   0  0  0  0  0  3  0  0  0  0  0  0
  161.3210  205.3640  149.8630 C   0  0  0  0  0  0  0  0  0  0  0  0
  161.9950  205.9900  147.6130 C   0  0  0  0  0  3  0  0  0  0  0  0
  160.4820  209.0350  154.6550 C   0  0  0  0  0  3  0  0  0  0  0  0
  160.8260  208.7090  153.3320 C   0  0  0  0  0  0  0  0  0  0  0  0
  162.0840  207.5810  149.3990 N   0  0  0  0  0  0  0  0  0  0  0  0
  162.3920  209.5530  151.2670 S   0  0  0  0  0  0  0  0  0  0  0  0
  159.6830  201.9350  148.0500 O   0  0  0  0  0  1  0  0  0  0  0  0
  160.9270  202.3540  147.5750 C   0  0  1  0  0  3  0  0  0  0  0  0
  160.9440  202.3110  146.0540 C   0  0  0  0  0  3  0  0  0  0  0  0
  160.6520  200.8990  145.5860 C   0  0  0  0  0  2  0  0  0  0  0  0
  159.5640  201.9500  145.5450 C   0  0  0  0  0  2  0  0  0  0  0  0
  160.8290  211.2000  152.7720 C   0  0  0  0  0  2  0  0  0  0  0  0
  160.1940  212.0810  151.7910 N   0  0  0  0  0  0  0  0  0  0  0  0
  160.4540  211.6110  150.4880 N   0  0  0  0  0  2  0  0  0  0  0  0
  161.1460  212.3530  149.5110 C   0  0  0  0  0  0  0  0  0  0  0  0
  161.7140  212.9630  148.7090 N   0  0  0  0  0  0  0  0  0  0  0  0
  158.7440  212.2060  152.0110 C   0  0  0  0  0  2  0  0  0  0  0  0
  158.0500  213.1460  151.0280 C   0  0  1  0  0  3  0  0  0  0  0  0
  157.2590  214.1490  151.7700 C   0  0  0  0  0  2  0  0  0  0  0  0
  158.5240  214.4530  151.2380 O   0  0  0  0  0  0  0  0  0  0  0  0
  1  7  1  0  0  0  0
  2 18  1  0  0  0  0
  2  9  1  0  0  0  0
  3  4  1  0  0  0  0
  5 17  1  0  0  0  0
  5 13  1  0  0  0  0
  6  9  2  0  0  0  0
  7 13  2  0  0  0  0
  8  3  2  0  0  0  0
  9 10  1  0  0  0  0
 10 16  2  0  0  0  0
 10  8  1  0  0  0  0
 11 24  1  1  0  0  0
 11 16  1  0  0  0  0
 12 14  1  0  0  0  0
 12  1  2  0  0  0  0
 13  6  1  0  0  0  0
 14  5  2  0  0  0  0
 15  4  2  0  0  0  0
 16 15  1  0  0  0  0
 17  2  2  0  0  0  0
 18 11  1  0  0  0  0
 20 19  1  6  0  0  0
 20  1  1  0  0  0  0
 21 20  1  0  0  0  0
 22 21  1  0  0  0  0
 23 22  1  0  0  0  0
 23 21  1  0  0  0  0
 25 29  1  0  0  0  0
 25 24  1  0  0  0  0
 26 25  1  0  0  0  0
 27 26  1  0  0  0  0
 28 27  3  0  0  0  0
 30 32  1  0  0  0  0
 30 31  1  0  0  0  0
 30 29  1  1  0  0  0
 32 31  1  0  0  0  0
M  END
>  <MODEL>
6

>  <REMARK>
 VINA RESULT:      -6.0      1.676      2.476
  Name = 
  8 active torsions:
  status: ('A' for Active; 'I' for Inactive)
    1  A    between atoms: C_1  and  C_24
    2  A    between atoms: C_2  and  C_24
    3  A    between atoms: C_6  and  N_7
    4  A    between atoms: N_7  and  N_32
    5  A    between atoms: C_11  and  C_22
    6  A    between atoms: C_16  and  C_27
    7  A    between atoms: C_22  and  N_32
    8  A    between atoms: C_27  and  N_32
                            x       y       z     vdW  Elec       q    Type
                         _______ _______ _______ _____ _____    ______ ____

>  <TORSDO>
F 8

$$$$
=
 OpenBabel11062410513D

 32 37  0  0  1  0  0  0  0  0999 V2000
  161.1730  202.5860  148.5700 C   0  0  0  0  0  0  0  0  0  0  0  0
  160.9470  206.6860  151.4060 C   0  0  0  0  0  0  0  0  0  0  0  0
  161.9560  210.3740  148.3070 C   0  0  0  0  0  3  0  0  0  0  0  0
  162.3330  211.2130  149.3550 C   0  0  0  0  0  3  0  0  0  0  0  0
  160.9040  204.4460  150.6480 C   0  0  0  0  0  0  0  0  0  0  0  0
  161.4380  206.2030  149.1200 N   0  0  0  0  0  0  0  0  0  0  0  0
  161.3720  203.9510  148.3150 C   0  0  0  0  0  3  0  0  0  0  0  0
  161.6240  209.0420  148.5620 C   0  0  0  0  0  3  0  0  0  0  0  0
  161.3120  207.1210  150.1180 C   0  0  0  0  0  0  0  0  0  0  0  0
  161.6550  208.5390  149.8700 C   0  0  0  0  0  0  0  0  0  0  0  0
  162.1490  208.8180  152.3390 C   0  0  2  0  0  3  0  0  0  0  0  0
  160.8460  202.1580  149.8630 C   0  0  0  0  0  3  0  0  0  0  0  0
  161.2360  204.8810  149.3490 C   0  0  0  0  0  0  0  0  0  0  0  0
  160.7100  203.0860  150.9010 C   0  0  0  0  0  3  0  0  0  0  0  0
  162.3800  210.7210  150.6610 C   0  0  0  0  0  3  0  0  0  0  0  0
  162.0380  209.3860  150.9370 C   0  0  0  0  0  0  0  0  0  0  0  0
  160.7660  205.3600  151.6420 N   0  0  0  0  0  0  0  0  0  0  0  0
  160.6490  207.8680  152.7250 S   0  0  0  0  0  0  0  0  0  0  0  0
  161.4500  200.2920  148.0280 O   0  0  0  0  0  1  0  0  0  0  0  0
  161.3220  201.5710  147.4810 C   0  0  1  0  0  3  0  0  0  0  0  0
  160.1340  201.6120  146.5320 C   0  0  0  0  0  3  0  0  0  0  0  0
  160.5540  202.2540  145.2240 C   0  0  0  0  0  2  0  0  0  0  0  0
  160.4260  200.7490  145.3210 C   0  0  0  0  0  2  0  0  0  0  0  0
  162.3580  209.8710  153.4240 C   0  0  0  0  0  2  0  0  0  0  0  0
  161.3960  209.6820  154.5090 N   0  0  0  0  0  0  0  0  0  0  0  0
  161.8470  208.6670  155.3770 N   0  0  0  0  0  2  0  0  0  0  0  0
  160.9980  207.9250  156.2210 C   0  0  0  0  0  0  0  0  0  0  0  0
  160.3020  207.3160  156.9150 N   0  0  0  0  0  0  0  0  0  0  0  0
  161.1520  210.9250  155.2590 C   0  0  0  0  0  2  0  0  0  0  0  0
  159.6720  211.2610  155.4320 C   0  0  1  0  0  3  0  0  0  0  0  0
  159.2020  212.0560  154.2780 C   0  0  0  0  0  2  0  0  0  0  0  0
  158.9480  210.6770  154.3760 O   0  0  0  0  0  0  0  0  0  0  0  0
  1 12  1  0  0  0  0
  2 17  1  0  0  0  0
  2 18  1  0  0  0  0
  3  8  2  0  0  0  0
  3  4  1  0  0  0  0
  4 15  2  0  0  0  0
  5 14  1  0  0  0  0
  5 17  2  0  0  0  0
  6 13  2  0  0  0  0
  6  9  1  0  0  0  0
  7  1  2  0  0  0  0
  7 13  1  0  0  0  0
  8 10  1  0  0  0  0
  9  2  2  0  0  0  0
 10  9  1  0  0  0  0
 10 16  2  0  0  0  0
 11 18  1  0  0  0  0
 11 24  1  1  0  0  0
 12 14  2  0  0  0  0
 13  5  1  0  0  0  0
 15 16  1  0  0  0  0
 16 11  1  0  0  0  0
 20 19  1  1  0  0  0
 20  1  1  0  0  0  0
 21 20  1  0  0  0  0
 22 23  1  0  0  0  0
 22 21  1  0  0  0  0
 23 21  1  0  0  0  0
 24 25  1  0  0  0  0
 25 29  1  0  0  0  0
 25 26  1  0  0  0  0
 26 27  1  0  0  0  0
 27 28  3  0  0  0  0
 30 29  1  6  0  0  0
 31 32  1  0  0  0  0
 31 30  1  0  0  0  0
 32 30  1  0  0  0  0
M  END
>  <MODEL>
7

>  <REMARK>
 VINA RESULT:      -6.0      2.533      4.280
  Name = 
  8 active torsions:
  status: ('A' for Active; 'I' for Inactive)
    1  A    between atoms: C_1  and  C_24
    2  A    between atoms: C_2  and  C_24
    3  A    between atoms: C_6  and  N_7
    4  A    between atoms: N_7  and  N_32
    5  A    between atoms: C_11  and  C_22
    6  A    between atoms: C_16  and  C_27
    7  A    between atoms: C_22  and  N_32
    8  A    between atoms: C_27  and  N_32
                            x       y       z     vdW  Elec       q    Type
                         _______ _______ _______ _____ _____    ______ ____

>  <TORSDO>
F 8

$$$$
