=
 OpenBabel11062410353D

 43 47  0  0  1  0  0  0  0  0999 V2000
  161.5030  207.5790  149.4830 N   0  0  0  0  0  0  0  0  0  0  0  0
  162.6010  209.6260  149.9680 C   0  0  2  0  0  3  0  0  0  0  0  0
  162.9220  208.5130  147.8900 O   0  0  0  0  0  1  0  0  0  0  0  0
  161.9610  208.8070  148.8590 C   0  0  1  0  0  3  0  0  0  0  0  0
  160.8210  206.5510  148.7410 C   0  0  0  0  0  0  0  0  0  0  0  0
  160.2240  206.8570  147.6750 O   0  0  0  0  0  0  0  0  0  0  0  0
  161.8280  207.5040  150.9010 C   0  0  1  0  0  3  0  0  0  0  0  0
  162.7590  208.6750  151.1540 C   0  0  0  0  0  2  0  0  0  0  0  0
  160.8280  202.4760  150.0770 C   0  0  0  0  0  0  0  0  0  0  0  0
  161.2100  204.0970  148.3150 C   0  0  0  0  0  0  0  0  0  0  0  0
  160.4570  203.5040  150.9460 C   0  0  0  0  0  3  0  0  0  0  0  0
  160.8060  200.8160  150.6260 Cl  0  0  0  0  0  0  0  0  0  0  0  0
  160.8290  205.1400  149.1840 C   0  0  0  0  0  0  0  0  0  0  0  0
  161.2030  202.7720  148.7650 C   0  0  0  0  0  3  0  0  0  0  0  0
  160.4590  204.8280  150.5020 C   0  0  0  0  0  3  0  0  0  0  0  0
  161.5760  204.3590  147.0000 O   0  0  0  0  0  1  0  0  0  0  0  0
  161.7320  210.8100  150.2970 C   0  0  0  0  0  0  0  0  0  0  0  0
  161.5450  211.8290  149.3130 N   0  0  0  0  0  2  0  0  0  0  0  0
  161.2040  210.9270  151.4360 O   0  0  0  0  0  0  0  0  0  0  0  0
  160.6870  212.9780  149.5380 C   0  0  0  0  0  2  0  0  0  0  0  0
  160.6460  213.8220  148.2790 C   0  0  0  0  0  2  0  0  0  0  0  0
  159.4240  213.5090  147.4770 C   0  0  0  0  0  0  0  0  0  0  0  0
  158.2450  213.3080  145.3630 C   0  0  0  0  0  3  0  0  0  0  0  0
  158.2560  213.1370  148.1510 C   0  0  0  0  0  3  0  0  0  0  0  0
  157.0890  212.8530  147.4370 C   0  0  0  0  0  3  0  0  0  0  0  0
  159.4230  213.5860  146.0690 C   0  0  0  0  0  0  0  0  0  0  0  0
  157.0820  212.9420  146.0440 C   0  0  0  0  0  3  0  0  0  0  0  0
  160.6610  213.9570  145.3080 C   0  0  0  0  0  2  0  0  0  0  0  0
  160.5600  213.5340  143.8800 C   0  0  0  0  0  0  0  0  0  0  0  0
  160.4240  212.7730  141.2150 C   0  0  0  0  0  3  0  0  0  0  0  0
  160.2280  214.1010  141.5970 C   0  0  0  0  0  3  0  0  0  0  0  0
  160.6940  211.8150  142.1930 C   0  0  0  0  0  3  0  0  0  0  0  0
  160.2990  214.4520  142.9090 N   0  0  0  0  0  0  0  0  0  0  0  0
  160.7650  212.1950  143.5350 C   0  0  0  0  0  3  0  0  0  0  0  0
  160.5750  207.6960  151.7530 C   0  0  0  0  0  2  0  0  0  0  0  0
  160.4640  209.4930  155.1630 C   0  0  1  0  0  3  0  0  0  0  0  0
  160.4700  208.2530  156.0260 C   0  0  0  0  0  0  0  0  0  0  0  0
  160.0750  208.2820  157.1820 O   0  0  0  0  0  0  0  0  0  0  0  0
  160.6630  206.7510  154.0540 C   0  0  0  0  0  2  0  0  0  0  0  0
  160.0700  209.1470  153.7280 C   0  0  0  0  0  2  0  0  0  0  0  0
  160.9180  207.9890  153.2020 C   0  0  2  0  0  3  0  0  0  0  0  0
  159.5220  210.5600  155.6950 C   0  0  0  0  0  1  0  0  0  0  0  0
  161.1000  206.9990  155.4960 C   0  0  0  0  0  2  0  0  0  0  0  0
  1  7  1  0  0  0  0
  2 17  1  1  0  0  0
  2  8  1  0  0  0  0
  4  3  1  6  0  0  0
  4  1  1  0  0  0  0
  4  2  1  0  0  0  0
  5 13  1  0  0  0  0
  5  1  1  0  0  0  0
  6  5  2  0  0  0  0
  7  8  1  0  0  0  0
  7 35  1  1  0  0  0
  9 12  1  0  0  0  0
  9 11  1  0  0  0  0
 10 14  1  0  0  0  0
 10 13  2  0  0  0  0
 13 15  1  0  0  0  0
 14  9  2  0  0  0  0
 15 11  2  0  0  0  0
 16 10  1  0  0  0  0
 17 19  2  0  0  0  0
 18 20  1  0  0  0  0
 18 17  1  0  0  0  0
 21 20  1  0  0  0  0
 22 24  1  0  0  0  0
 22 21  1  0  0  0  0
 23 27  2  0  0  0  0
 23 26  1  0  0  0  0
 25 24  2  0  0  0  0
 26 22  2  0  0  0  0
 27 25  1  0  0  0  0
 28 26  1  0  0  0  0
 29 28  1  0  0  0  0
 30 31  2  0  0  0  0
 30 32  1  0  0  0  0
 31 33  1  0  0  0  0
 32 34  2  0  0  0  0
 33 29  2  0  0  0  0
 34 29  1  0  0  0  0
 36 42  1  1  0  0  0
 36 37  1  0  0  0  0
 37 38  2  0  0  0  0
 39 43  1  0  0  0  0
 40 36  1  0  0  0  0
 41 35  1  6  0  0  0
 41 40  1  0  0  0  0
 41 39  1  0  0  0  0
 43 37  1  0  0  0  0
M  END
>  <MODEL>
1

>  <REMARK>
 VINA RESULT:      -7.3      0.000      0.000
  Name = 
  9 active torsions:
  status: ('A' for Active; 'I' for Inactive)
    1  A    between atoms: C_1  and  C_34
    2  A    between atoms: C_1  and  C_35
    3  A    between atoms: C_2  and  C_13
    4  A    between atoms: C_3  and  C_4
    5  A    between atoms: C_3  and  C_12
    6  A    between atoms: N_6  and  C_12
    7  A    between atoms: C_11  and  C_14
    8  A    between atoms: C_14  and  C_41
    9  A    between atoms: C_21  and  C_30
                            x       y       z     vdW  Elec       q    Type
                         _______ _______ _______ _____ _____    ______ ____

>  <TORSDO>
F 9

$$$$
=
 OpenBabel11062410353D

 43 47  0  0  1  0  0  0  0  0999 V2000
  161.5740  206.4890  150.3240 N   0  0  0  0  0  0  0  0  0  0  0  0
  162.3890  206.0000  152.4980 C   0  0  2  0  0  3  0  0  0  0  0  0
  163.1340  207.9160  151.3000 O   0  0  0  0  0  1  0  0  0  0  0  0
  162.0100  207.1280  151.5520 C   0  0  1  0  0  3  0  0  0  0  0  0
  161.1140  207.2460  149.1890 C   0  0  0  0  0  0  0  0  0  0  0  0
  160.6660  208.4100  149.3680 O   0  0  0  0  0  0  0  0  0  0  0  0
  161.6760  205.0370  150.3690 C   0  0  1  0  0  3  0  0  0  0  0  0
  162.4450  204.7350  151.6420 C   0  0  0  0  0  2  0  0  0  0  0  0
  161.2520  205.6710  145.2030 C   0  0  0  0  0  0  0  0  0  0  0  0
  162.4070  206.3180  147.2340 C   0  0  0  0  0  0  0  0  0  0  0  0
  160.0330  206.0410  145.7740 C   0  0  0  0  0  3  0  0  0  0  0  0
  161.2980  205.0500  143.5690 Cl  0  0  0  0  0  0  0  0  0  0  0  0
  161.1800  206.7010  147.8150 C   0  0  0  0  0  0  0  0  0  0  0  0
  162.4350  205.8090  145.9310 C   0  0  0  0  0  3  0  0  0  0  0  0
  159.9980  206.5520  147.0740 C   0  0  0  0  0  3  0  0  0  0  0  0
  163.6030  206.4560  147.9290 O   0  0  0  0  0  1  0  0  0  0  0  0
  161.3760  205.8980  153.6050 C   0  0  0  0  0  0  0  0  0  0  0  0
  161.2290  206.9870  154.5170 N   0  0  0  0  0  2  0  0  0  0  0  0
  160.6870  204.8510  153.7550 O   0  0  0  0  0  0  0  0  0  0  0  0
  160.2430  206.9820  155.5830 C   0  0  0  0  0  2  0  0  0  0  0  0
  159.6090  208.3550  155.6800 C   0  0  0  0  0  2  0  0  0  0  0  0
  160.5840  209.3450  156.2330 C   0  0  0  0  0  0  0  0  0  0  0  0
  161.2680  211.6190  156.7450 C   0  0  0  0  0  3  0  0  0  0  0  0
  161.7960  208.8760  156.7510 C   0  0  0  0  0  3  0  0  0  0  0  0
  162.7390  209.7710  157.2610 C   0  0  0  0  0  3  0  0  0  0  0  0
  160.3110  210.7290  156.2390 C   0  0  0  0  0  0  0  0  0  0  0  0
  162.4770  211.1420  157.2550 C   0  0  0  0  0  3  0  0  0  0  0  0
  159.0130  211.2690  155.7170 C   0  0  0  0  0  2  0  0  0  0  0  0
  159.1950  211.8970  154.3750 C   0  0  0  0  0  0  0  0  0  0  0  0
  159.5710  213.1030  151.9050 C   0  0  0  0  0  3  0  0  0  0  0  0
  158.8090  213.7180  152.9000 C   0  0  0  0  0  3  0  0  0  0  0  0
  160.1530  211.8620  152.1620 C   0  0  0  0  0  3  0  0  0  0  0  0
  158.6380  213.1090  154.1030 N   0  0  0  0  0  0  0  0  0  0  0  0
  159.9670  211.2520  153.4050 C   0  0  0  0  0  3  0  0  0  0  0  0
  160.2930  204.4010  150.4830 C   0  0  0  0  0  2  0  0  0  0  0  0
  160.5960  201.9840  147.4930 C   0  0  1  0  0  3  0  0  0  0  0  0
  161.1650  200.8130  148.2590 C   0  0  0  0  0  0  0  0  0  0  0  0
  161.7780  199.9210  147.6920 O   0  0  0  0  0  0  0  0  0  0  0  0
  161.0140  202.0200  150.4280 C   0  0  0  0  0  2  0  0  0  0  0  0
  160.7490  203.2760  148.2940 C   0  0  0  0  0  2  0  0  0  0  0  0
  160.2060  203.0960  149.7120 C   0  0  2  0  0  3  0  0  0  0  0  0
  161.2550  202.1600  146.1350 C   0  0  0  0  0  1  0  0  0  0  0  0
  160.8530  200.6770  149.7200 C   0  0  0  0  0  2  0  0  0  0  0  0
  1  7  1  0  0  0  0
  1  4  1  0  0  0  0
  2 17  1  1  0  0  0
  4  3  1  6  0  0  0
  4  2  1  0  0  0  0
  5  6  2  0  0  0  0
  5  1  1  0  0  0  0
  7 35  1  1  0  0  0
  7  8  1  0  0  0  0
  8  2  1  0  0  0  0
  9 11  2  0  0  0  0
  9 14  1  0  0  0  0
 10 13  1  0  0  0  0
 10 16  1  0  0  0  0
 11 15  1  0  0  0  0
 12  9  1  0  0  0  0
 13  5  1  0  0  0  0
 14 10  2  0  0  0  0
 15 13  2  0  0  0  0
 17 19  2  0  0  0  0
 17 18  1  0  0  0  0
 18 20  1  0  0  0  0
 20 21  1  0  0  0  0
 21 22  1  0  0  0  0
 22 26  2  0  0  0  0
 22 24  1  0  0  0  0
 23 27  2  0  0  0  0
 24 25  2  0  0  0  0
 26 23  1  0  0  0  0
 27 25  1  0  0  0  0
 28 26  1  0  0  0  0
 29 28  1  0  0  0  0
 30 32  2  0  0  0  0
 30 31  1  0  0  0  0
 31 33  2  0  0  0  0
 32 34  1  0  0  0  0
 33 29  1  0  0  0  0
 34 29  2  0  0  0  0
 36 42  1  6  0  0  0
 36 37  1  0  0  0  0
 36 40  1  0  0  0  0
 37 43  1  0  0  0  0
 38 37  2  0  0  0  0
 40 41  1  0  0  0  0
 41 39  1  0  0  0  0
 41 35  1  1  0  0  0
 43 39  1  0  0  0  0
M  END
>  <MODEL>
2

>  <REMARK>
 VINA RESULT:      -7.2      4.486      8.195
  Name = 
  9 active torsions:
  status: ('A' for Active; 'I' for Inactive)
    1  A    between atoms: C_1  and  C_34
    2  A    between atoms: C_1  and  C_35
    3  A    between atoms: C_2  and  C_13
    4  A    between atoms: C_3  and  C_4
    5  A    between atoms: C_3  and  C_12
    6  A    between atoms: N_6  and  C_12
    7  A    between atoms: C_11  and  C_14
    8  A    between atoms: C_14  and  C_41
    9  A    between atoms: C_21  and  C_30
                            x       y       z     vdW  Elec       q    Type
                         _______ _______ _______ _____ _____    ______ ____

>  <TORSDO>
F 9

$$$$
=
 OpenBabel11062410353D

 43 47  0  0  1  0  0  0  0  0999 V2000
  159.7830  210.5900  154.7260 N   0  0  0  0  0  0  0  0  0  0  0  0
  161.9920  210.4540  153.8690 C   0  0  2  0  0  3  0  0  0  0  0  0
  161.4850  209.7770  156.0930 O   0  0  0  0  0  1  0  0  0  0  0  0
  160.9870  209.7800  154.7890 C   0  0  1  0  0  3  0  0  0  0  0  0
  158.5930  210.2490  155.4600 C   0  0  0  0  0  0  0  0  0  0  0  0
  158.4090  209.0530  155.8110 O   0  0  0  0  0  0  0  0  0  0  0  0
  159.9290  211.7630  153.8750 C   0  0  1  0  0  3  0  0  0  0  0  0
  161.4080  211.8290  153.5450 C   0  0  0  0  0  2  0  0  0  0  0  0
  155.6630  213.1950  156.5220 C   0  0  0  0  0  0  0  0  0  0  0  0
  157.9220  212.3330  156.7100 C   0  0  0  0  0  0  0  0  0  0  0  0
  155.3340  212.1540  155.6530 C   0  0  0  0  0  3  0  0  0  0  0  0
  154.4550  214.3780  156.9650 Cl  0  0  0  0  0  0  0  0  0  0  0  0
  157.5950  211.2740  155.8380 C   0  0  0  0  0  0  0  0  0  0  0  0
  156.9540  213.2840  157.0490 C   0  0  0  0  0  3  0  0  0  0  0  0
  156.2960  211.2000  155.3120 C   0  0  0  0  0  3  0  0  0  0  0  0
  159.1940  212.4420  157.2600 O   0  0  0  0  0  1  0  0  0  0  0  0
  162.2010  209.6170  152.6380 C   0  0  0  0  0  0  0  0  0  0  0  0
  161.9650  208.2090  152.7050 N   0  0  0  0  0  2  0  0  0  0  0  0
  162.6150  210.1360  151.5650 O   0  0  0  0  0  0  0  0  0  0  0  0
  162.1010  207.3410  151.5490 C   0  0  0  0  0  2  0  0  0  0  0  0
  160.7350  206.8080  151.1650 C   0  0  0  0  0  2  0  0  0  0  0  0
  160.8480  205.4220  150.6160 C   0  0  0  0  0  0  0  0  0  0  0  0
  161.2930  203.8670  148.8040 C   0  0  0  0  0  3  0  0  0  0  0  0
  160.5660  204.3410  151.4590 C   0  0  0  0  0  3  0  0  0  0  0  0
  160.6450  203.0310  150.9780 C   0  0  0  0  0  3  0  0  0  0  0  0
  161.2260  205.1840  149.2780 C   0  0  0  0  0  0  0  0  0  0  0  0
  161.0040  202.7940  149.6510 C   0  0  0  0  0  3  0  0  0  0  0  0
  161.5610  206.3130  148.3510 C   0  0  0  0  0  2  0  0  0  0  0  0
  161.4690  205.8810  146.9240 C   0  0  0  0  0  0  0  0  0  0  0  0
  161.3100  205.1350  144.2570 C   0  0  0  0  0  3  0  0  0  0  0  0
  160.2910  205.8730  144.8620 C   0  0  0  0  0  3  0  0  0  0  0  0
  162.4260  204.7690  145.0110 C   0  0  0  0  0  3  0  0  0  0  0  0
  160.3900  206.2280  146.1700 N   0  0  0  0  0  0  0  0  0  0  0  0
  162.5100  205.1450  146.3540 C   0  0  0  0  0  3  0  0  0  0  0  0
  159.1540  211.5840  152.5720 C   0  0  0  0  0  2  0  0  0  0  0  0
  160.6920  213.2670  149.4610 C   0  0  1  0  0  3  0  0  0  0  0  0
  159.4650  214.0440  149.0450 C   0  0  0  0  0  0  0  0  0  0  0  0
  159.3300  214.4530  147.9020 O   0  0  0  0  0  0  0  0  0  0  0  0
  158.1680  213.2570  151.0160 C   0  0  0  0  0  2  0  0  0  0  0  0
  160.3160  212.1440  150.4260 C   0  0  0  0  0  2  0  0  0  0  0  0
  159.4660  212.6870  151.5750 C   0  0  2  0  0  3  0  0  0  0  0  0
  161.4290  212.6740  148.2710 C   0  0  0  0  0  1  0  0  0  0  0  0
  158.4620  214.4360  150.0900 C   0  0  0  0  0  2  0  0  0  0  0  0
  1  4  1  0  0  0  0
  1  5  1  0  0  0  0
  2 17  1  6  0  0  0
  2  4  1  0  0  0  0
  4  3  1  1  0  0  0
  5  6  2  0  0  0  0
  5 13  1  0  0  0  0
  7 35  1  6  0  0  0
  7  1  1  0  0  0  0
  8  2  1  0  0  0  0
  8  7  1  0  0  0  0
  9 12  1  0  0  0  0
  9 14  1  0  0  0  0
 10 14  2  0  0  0  0
 10 16  1  0  0  0  0
 11  9  2  0  0  0  0
 13 10  1  0  0  0  0
 15 11  1  0  0  0  0
 15 13  2  0  0  0  0
 17 18  1  0  0  0  0
 19 17  2  0  0  0  0
 20 18  1  0  0  0  0
 21 20  1  0  0  0  0
 22 21  1  0  0  0  0
 22 24  1  0  0  0  0
 23 26  1  0  0  0  0
 23 27  2  0  0  0  0
 25 24  2  0  0  0  0
 26 22  2  0  0  0  0
 27 25  1  0  0  0  0
 28 26  1  0  0  0  0
 29 28  1  0  0  0  0
 30 31  2  0  0  0  0
 30 32  1  0  0  0  0
 31 33  1  0  0  0  0
 32 34  2  0  0  0  0
 33 29  2  0  0  0  0
 34 29  1  0  0  0  0
 36 42  1  6  0  0  0
 36 40  1  0  0  0  0
 37 36  1  0  0  0  0
 37 43  1  0  0  0  0
 38 37  2  0  0  0  0
 39 41  1  0  0  0  0
 40 41  1  0  0  0  0
 41 35  1  1  0  0  0
 43 39  1  0  0  0  0
M  END
>  <MODEL>
3

>  <REMARK>
 VINA RESULT:      -6.9      4.295      8.866
  Name = 
  9 active torsions:
  status: ('A' for Active; 'I' for Inactive)
    1  A    between atoms: C_1  and  C_34
    2  A    between atoms: C_1  and  C_35
    3  A    between atoms: C_2  and  C_13
    4  A    between atoms: C_3  and  C_4
    5  A    between atoms: C_3  and  C_12
    6  A    between atoms: N_6  and  C_12
    7  A    between atoms: C_11  and  C_14
    8  A    between atoms: C_14  and  C_41
    9  A    between atoms: C_21  and  C_30
                            x       y       z     vdW  Elec       q    Type
                         _______ _______ _______ _____ _____    ______ ____

>  <TORSDO>
F 9

$$$$
=
 OpenBabel11062410353D

 43 47  0  0  1  0  0  0  0  0999 V2000
  161.4800  207.8940  149.5650 N   0  0  0  0  0  0  0  0  0  0  0  0
  162.4750  210.0260  149.8770 C   0  0  2  0  0  3  0  0  0  0  0  0
  162.7990  208.7920  147.8690 O   0  0  0  0  0  1  0  0  0  0  0  0
  161.8510  209.1000  148.8460 C   0  0  1  0  0  3  0  0  0  0  0  0
  160.8360  206.7830  148.9150 C   0  0  0  0  0  0  0  0  0  0  0  0
  160.1920  206.9830  147.8500 O   0  0  0  0  0  0  0  0  0  0  0  0
  161.8480  207.9350  150.9740 C   0  0  1  0  0  3  0  0  0  0  0  0
  162.7190  209.1680  151.1190 C   0  0  0  0  0  2  0  0  0  0  0  0
  161.1130  202.8170  150.5210 C   0  0  0  0  0  0  0  0  0  0  0  0
  161.1950  204.3070  148.6100 C   0  0  0  0  0  0  0  0  0  0  0  0
  160.8620  203.9030  151.3610 C   0  0  0  0  0  3  0  0  0  0  0  0
  161.2020  201.2010  151.1840 Cl  0  0  0  0  0  0  0  0  0  0  0  0
  160.9340  205.4080  149.4520 C   0  0  0  0  0  0  0  0  0  0  0  0
  161.2790  203.0190  149.1490 C   0  0  0  0  0  3  0  0  0  0  0  0
  160.7750  205.1910  150.8290 C   0  0  0  0  0  3  0  0  0  0  0  0
  161.3520  204.4740  147.2390 O   0  0  0  0  0  1  0  0  0  0  0  0
  161.5520  211.1810  150.1530 C   0  0  0  0  0  0  0  0  0  0  0  0
  161.3980  212.2000  149.1630 N   0  0  0  0  0  2  0  0  0  0  0  0
  160.9470  211.2760  151.2560 O   0  0  0  0  0  0  0  0  0  0  0  0
  160.4930  213.3220  149.3370 C   0  0  0  0  0  2  0  0  0  0  0  0
  159.7570  213.1670  150.6530 C   0  0  0  0  0  2  0  0  0  0  0  0
  158.3260  213.5760  150.5060 C   0  0  0  0  0  0  0  0  0  0  0  0
  156.2290  214.3960  151.4170 C   0  0  0  0  0  3  0  0  0  0  0  0
  157.7270  213.4790  149.2450 C   0  0  0  0  0  3  0  0  0  0  0  0
  156.3870  213.8350  149.0710 C   0  0  0  0  0  3  0  0  0  0  0  0
  157.5750  214.0500  151.6010 C   0  0  0  0  0  0  0  0  0  0  0  0
  155.6380  214.2900  150.1570 C   0  0  0  0  0  3  0  0  0  0  0  0
  158.1880  214.1930  152.9620 C   0  0  0  0  0  2  0  0  0  0  0  0
  157.4790  213.3400  153.9620 C   0  0  0  0  0  0  0  0  0  0  0  0
  156.1100  211.7660  155.7910 C   0  0  0  0  0  3  0  0  0  0  0  0
  156.0010  213.1580  155.8130 C   0  0  0  0  0  3  0  0  0  0  0  0
  156.9210  211.1610  154.8300 C   0  0  0  0  0  3  0  0  0  0  0  0
  156.6810  213.9100  154.9070 N   0  0  0  0  0  0  0  0  0  0  0  0
  157.6110  211.9500  153.9070 C   0  0  0  0  0  3  0  0  0  0  0  0
  160.6110  208.1170  151.8500 C   0  0  0  0  0  2  0  0  0  0  0  0
  160.9850  209.8890  155.2540 C   0  0  1  0  0  3  0  0  0  0  0  0
  160.5370  208.7320  156.1160 C   0  0  0  0  0  0  0  0  0  0  0  0
  160.1310  208.9090  157.2550 O   0  0  0  0  0  0  0  0  0  0  0  0
  160.2840  207.2280  154.1520 C   0  0  0  0  0  2  0  0  0  0  0  0
  160.5530  209.6790  153.8040 C   0  0  0  0  0  2  0  0  0  0  0  0
  160.9770  208.2950  153.3130 C   0  0  2  0  0  3  0  0  0  0  0  0
  160.4410  211.2200  155.7480 C   0  0  0  0  0  1  0  0  0  0  0  0
  160.7240  207.3320  155.6110 C   0  0  0  0  0  2  0  0  0  0  0  0
  1  7  1  0  0  0  0
  2 17  1  1  0  0  0
  2  8  1  0  0  0  0
  4  3  1  6  0  0  0
  4  1  1  0  0  0  0
  4  2  1  0  0  0  0
  5 13  1  0  0  0  0
  5  1  1  0  0  0  0
  6  5  2  0  0  0  0
  7  8  1  0  0  0  0
  7 35  1  1  0  0  0
  9 12  1  0  0  0  0
  9 11  1  0  0  0  0
 10 14  1  0  0  0  0
 10 13  2  0  0  0  0
 13 15  1  0  0  0  0
 14  9  2  0  0  0  0
 15 11  2  0  0  0  0
 16 10  1  0  0  0  0
 17 19  2  0  0  0  0
 18 20  1  0  0  0  0
 18 17  1  0  0  0  0
 20 21  1  0  0  0  0
 22 21  1  0  0  0  0
 22 26  1  0  0  0  0
 23 26  2  0  0  0  0
 24 22  2  0  0  0  0
 25 24  1  0  0  0  0
 25 27  2  0  0  0  0
 26 28  1  0  0  0  0
 27 23  1  0  0  0  0
 28 29  1  0  0  0  0
 29 33  1  0  0  0  0
 30 31  1  0  0  0  0
 32 30  2  0  0  0  0
 33 31  2  0  0  0  0
 34 29  2  0  0  0  0
 34 32  1  0  0  0  0
 36 42  1  1  0  0  0
 36 37  1  0  0  0  0
 37 38  2  0  0  0  0
 39 43  1  0  0  0  0
 40 36  1  0  0  0  0
 41 35  1  6  0  0  0
 41 40  1  0  0  0  0
 41 39  1  0  0  0  0
 43 37  1  0  0  0  0
M  END
>  <MODEL>
4

>  <REMARK>
 VINA RESULT:      -6.9      2.910      5.296
  Name = 
  9 active torsions:
  status: ('A' for Active; 'I' for Inactive)
    1  A    between atoms: C_1  and  C_34
    2  A    between atoms: C_1  and  C_35
    3  A    between atoms: C_2  and  C_13
    4  A    between atoms: C_3  and  C_4
    5  A    between atoms: C_3  and  C_12
    6  A    between atoms: N_6  and  C_12
    7  A    between atoms: C_11  and  C_14
    8  A    between atoms: C_14  and  C_41
    9  A    between atoms: C_21  and  C_30
                            x       y       z     vdW  Elec       q    Type
                         _______ _______ _______ _____ _____    ______ ____

>  <TORSDO>
F 9

$$$$
=
 OpenBabel11062410353D

 43 47  0  0  1  0  0  0  0  0999 V2000
  161.6300  206.6080  150.2470 N   0  0  0  0  0  0  0  0  0  0  0  0
  162.4180  206.1980  152.4470 C   0  0  2  0  0  3  0  0  0  0  0  0
  163.2180  208.0400  151.1700 O   0  0  0  0  0  1  0  0  0  0  0  0
  162.0730  207.2910  151.4480 C   0  0  1  0  0  3  0  0  0  0  0  0
  161.1960  207.3240  149.0750 C   0  0  0  0  0  0  0  0  0  0  0  0
  160.7760  208.5050  149.1980 O   0  0  0  0  0  0  0  0  0  0  0  0
  161.6970  205.1570  150.3570 C   0  0  1  0  0  3  0  0  0  0  0  0
  162.4490  204.8950  151.6480 C   0  0  0  0  0  2  0  0  0  0  0  0
  161.3230  205.5690  145.1650 C   0  0  0  0  0  0  0  0  0  0  0  0
  162.4770  206.2610  147.1820 C   0  0  0  0  0  0  0  0  0  0  0  0
  160.1120  206.0100  145.7010 C   0  0  0  0  0  3  0  0  0  0  0  0
  161.3660  204.8750  143.5600 Cl  0  0  0  0  0  0  0  0  0  0  0  0
  161.2590  206.7160  147.7280 C   0  0  0  0  0  0  0  0  0  0  0  0
  162.5020  205.6940  145.9030 C   0  0  0  0  0  3  0  0  0  0  0  0
  160.0810  206.5790  146.9770 C   0  0  0  0  0  3  0  0  0  0  0  0
  163.6680  206.3840  147.8860 O   0  0  0  0  0  1  0  0  0  0  0  0
  161.3950  206.1690  153.5490 C   0  0  0  0  0  0  0  0  0  0  0  0
  161.0980  207.3760  154.2530 N   0  0  0  0  0  2  0  0  0  0  0  0
  160.8310  205.0900  153.8790 O   0  0  0  0  0  0  0  0  0  0  0  0
  160.0910  207.4380  155.2980 C   0  0  0  0  0  2  0  0  0  0  0  0
  160.1540  208.7970  155.9680 C   0  0  0  0  0  2  0  0  0  0  0  0
  160.0930  209.8880  154.9490 C   0  0  0  0  0  0  0  0  0  0  0  0
  159.6170  212.1770  154.2900 C   0  0  0  0  0  3  0  0  0  0  0  0
  160.4500  209.5940  153.6280 C   0  0  0  0  0  3  0  0  0  0  0  0
  160.3890  210.5840  152.6440 C   0  0  0  0  0  3  0  0  0  0  0  0
  159.6820  211.1950  155.2870 C   0  0  0  0  0  0  0  0  0  0  0  0
  159.9690  211.8730  152.9730 C   0  0  0  0  0  3  0  0  0  0  0  0
  159.3170  211.5560  156.6950 C   0  0  0  0  0  2  0  0  0  0  0  0
  157.9640  212.1860  156.7540 C   0  0  0  0  0  0  0  0  0  0  0  0
  155.4640  213.3860  156.8120 C   0  0  0  0  0  3  0  0  0  0  0  0
  156.6120  214.0910  157.1800 C   0  0  0  0  0  3  0  0  0  0  0  0
  155.5820  212.0560  156.4070 C   0  0  0  0  0  3  0  0  0  0  0  0
  157.8270  213.4830  157.1440 N   0  0  0  0  0  0  0  0  0  0  0  0
  156.8390  211.4490  156.3750 C   0  0  0  0  0  3  0  0  0  0  0  0
  160.2970  204.5600  150.4890 C   0  0  0  0  0  2  0  0  0  0  0  0
  160.5430  202.0390  147.5810 C   0  0  1  0  0  3  0  0  0  0  0  0
  161.0840  200.8800  148.3860 C   0  0  0  0  0  0  0  0  0  0  0  0
  161.6750  199.9550  147.8490 O   0  0  0  0  0  0  0  0  0  0  0  0
  160.9610  202.1620  150.5140 C   0  0  0  0  0  2  0  0  0  0  0  0
  160.7270  203.3520  148.3390 C   0  0  0  0  0  2  0  0  0  0  0  0
  160.1800  203.2330  149.7610 C   0  0  2  0  0  3  0  0  0  0  0  0
  161.2070  202.1530  146.2180 C   0  0  0  0  0  1  0  0  0  0  0  0
  160.7680  200.8000  149.8510 C   0  0  0  0  0  2  0  0  0  0  0  0
  1  7  1  0  0  0  0
  1  4  1  0  0  0  0
  2 17  1  1  0  0  0
  4  3  1  6  0  0  0
  4  2  1  0  0  0  0
  5  6  2  0  0  0  0
  5  1  1  0  0  0  0
  7 35  1  1  0  0  0
  7  8  1  0  0  0  0
  8  2  1  0  0  0  0
  9 11  2  0  0  0  0
  9 14  1  0  0  0  0
 10 13  1  0  0  0  0
 10 16  1  0  0  0  0
 11 15  1  0  0  0  0
 12  9  1  0  0  0  0
 13  5  1  0  0  0  0
 14 10  2  0  0  0  0
 15 13  2  0  0  0  0
 17 19  2  0  0  0  0
 17 18  1  0  0  0  0
 18 20  1  0  0  0  0
 20 21  1  0  0  0  0
 22 26  1  0  0  0  0
 22 21  1  0  0  0  0
 23 26  2  0  0  0  0
 24 22  2  0  0  0  0
 25 27  2  0  0  0  0
 25 24  1  0  0  0  0
 26 28  1  0  0  0  0
 27 23  1  0  0  0  0
 28 29  1  0  0  0  0
 29 33  1  0  0  0  0
 30 31  1  0  0  0  0
 32 30  2  0  0  0  0
 33 31  2  0  0  0  0
 34 32  1  0  0  0  0
 34 29  2  0  0  0  0
 36 42  1  6  0  0  0
 36 40  1  0  0  0  0
 36 37  1  0  0  0  0
 37 43  1  0  0  0  0
 38 37  2  0  0  0  0
 40 41  1  0  0  0  0
 41 35  1  1  0  0  0
 41 39  1  0  0  0  0
 43 39  1  0  0  0  0
M  END
>  <MODEL>
5

>  <REMARK>
 VINA RESULT:      -6.5      4.698      8.531
  Name = 
  9 active torsions:
  status: ('A' for Active; 'I' for Inactive)
    1  A    between atoms: C_1  and  C_34
    2  A    between atoms: C_1  and  C_35
    3  A    between atoms: C_2  and  C_13
    4  A    between atoms: C_3  and  C_4
    5  A    between atoms: C_3  and  C_12
    6  A    between atoms: N_6  and  C_12
    7  A    between atoms: C_11  and  C_14
    8  A    between atoms: C_14  and  C_41
    9  A    between atoms: C_21  and  C_30
                            x       y       z     vdW  Elec       q    Type
                         _______ _______ _______ _____ _____    ______ ____

>  <TORSDO>
F 9

$$$$
=
 OpenBabel11062410353D

 43 47  0  0  1  0  0  0  0  0999 V2000
  161.1280  208.5860  153.0950 N   0  0  0  0  0  0  0  0  0  0  0  0
  162.2930  207.4120  151.3940 C   0  0  2  0  0  3  0  0  0  0  0  0
  162.2560  206.6230  153.6380 O   0  0  0  0  0  1  0  0  0  0  0  0
  161.4740  207.2440  152.6630 C   0  0  1  0  0  3  0  0  0  0  0  0
  160.3290  208.8310  154.2670 C   0  0  0  0  0  0  0  0  0  0  0  0
  159.5590  207.9250  154.6860 O   0  0  0  0  0  0  0  0  0  0  0  0
  161.6890  209.6230  152.2390 C   0  0  1  0  0  3  0  0  0  0  0  0
  162.6500  208.8960  151.3170 C   0  0  0  0  0  2  0  0  0  0  0  0
  160.5230  212.5540  156.3860 C   0  0  0  0  0  0  0  0  0  0  0  0
  161.3960  210.3260  155.9930 C   0  0  0  0  0  0  0  0  0  0  0  0
  159.5490  212.3490  155.4070 C   0  0  0  0  0  3  0  0  0  0  0  0
  160.5790  214.0680  157.2590 Cl  0  0  0  0  0  0  0  0  0  0  0  0
  160.4110  210.1090  155.0080 C   0  0  0  0  0  0  0  0  0  0  0  0
  161.4440  211.5450  156.6780 C   0  0  0  0  0  3  0  0  0  0  0  0
  159.4960  211.1330  154.7210 C   0  0  0  0  0  3  0  0  0  0  0  0
  162.3180  209.3370  156.3150 O   0  0  0  0  0  1  0  0  0  0  0  0
  161.4940  206.9540  150.2040 C   0  0  0  0  0  0  0  0  0  0  0  0
  161.7790  207.5100  148.9190 N   0  0  0  0  0  2  0  0  0  0  0  0
  160.5580  206.1190  150.3380 O   0  0  0  0  0  0  0  0  0  0  0  0
  161.0830  207.0870  147.7180 C   0  0  0  0  0  2  0  0  0  0  0  0
  162.0670  206.4080  146.7850 C   0  0  0  0  0  2  0  0  0  0  0  0
  161.3900  205.3310  146.0000 C   0  0  0  0  0  0  0  0  0  0  0  0
  160.9300  202.9930  145.5280 C   0  0  0  0  0  3  0  0  0  0  0  0
  160.5660  205.6980  144.9300 C   0  0  0  0  0  3  0  0  0  0  0  0
  159.9290  204.7200  144.1620 C   0  0  0  0  0  3  0  0  0  0  0  0
  161.5670  203.9670  146.3100 C   0  0  0  0  0  0  0  0  0  0  0  0
  160.1140  203.3680  144.4580 C   0  0  0  0  0  3  0  0  0  0  0  0
  162.4210  203.5340  147.4640 C   0  0  0  0  0  2  0  0  0  0  0  0
  161.5990  202.8700  148.5190 C   0  0  0  0  0  0  0  0  0  0  0  0
  160.0340  201.6810  150.4770 C   0  0  0  0  0  3  0  0  0  0  0  0
  160.8250  202.7960  150.7630 C   0  0  0  0  0  3  0  0  0  0  0  0
  160.0340  201.1600  149.1830 C   0  0  0  0  0  3  0  0  0  0  0  0
  161.5840  203.3620  149.7880 N   0  0  0  0  0  0  0  0  0  0  0  0
  160.8190  201.7570  148.1940 C   0  0  0  0  0  3  0  0  0  0  0  0
  160.5990  210.2650  151.3840 C   0  0  0  0  0  2  0  0  0  0  0  0
  162.2370  212.5790  148.7700 C   0  0  1  0  0  3  0  0  0  0  0  0
  161.1830  213.6610  148.7940 C   0  0  0  0  0  0  0  0  0  0  0  0
  161.0590  214.4460  147.8660 O   0  0  0  0  0  0  0  0  0  0  0  0
  159.8920  212.5130  150.5820 C   0  0  0  0  0  2  0  0  0  0  0  0
  161.6960  211.2870  149.3800 C   0  0  0  0  0  2  0  0  0  0  0  0
  161.0700  211.5610  150.7480 C   0  0  2  0  0  3  0  0  0  0  0  0
  162.7390  212.2940  147.3640 C   0  0  0  0  0  1  0  0  0  0  0  0
  160.3690  213.8580  150.0380 C   0  0  0  0  0  2  0  0  0  0  0  0
  1  5  1  0  0  0  0
  2 17  1  6  0  0  0
  2  4  1  0  0  0  0
  4  1  1  0  0  0  0
  4  3  1  1  0  0  0
  5  6  2  0  0  0  0
  5 13  1  0  0  0  0
  7 35  1  6  0  0  0
  7  1  1  0  0  0  0
  8  2  1  0  0  0  0
  8  7  1  0  0  0  0
  9 14  1  0  0  0  0
  9 12  1  0  0  0  0
 10 16  1  0  0  0  0
 10 14  2  0  0  0  0
 11  9  2  0  0  0  0
 13 10  1  0  0  0  0
 15 13  2  0  0  0  0
 15 11  1  0  0  0  0
 17 19  2  0  0  0  0
 18 17  1  0  0  0  0
 20 18  1  0  0  0  0
 21 20  1  0  0  0  0
 22 26  1  0  0  0  0
 22 21  1  0  0  0  0
 23 26  2  0  0  0  0
 24 22  2  0  0  0  0
 25 27  2  0  0  0  0
 25 24  1  0  0  0  0
 26 28  1  0  0  0  0
 27 23  1  0  0  0  0
 28 29  1  0  0  0  0
 29 33  1  0  0  0  0
 30 31  1  0  0  0  0
 32 30  2  0  0  0  0
 33 31  2  0  0  0  0
 34 29  2  0  0  0  0
 34 32  1  0  0  0  0
 36 42  1  6  0  0  0
 36 37  1  0  0  0  0
 36 40  1  0  0  0  0
 37 43  1  0  0  0  0
 38 37  2  0  0  0  0
 39 41  1  0  0  0  0
 40 41  1  0  0  0  0
 41 35  1  6  0  0  0
 43 39  1  0  0  0  0
M  END
>  <MODEL>
6

>  <REMARK>
 VINA RESULT:      -6.1      4.002      8.961
  Name = 
  9 active torsions:
  status: ('A' for Active; 'I' for Inactive)
    1  A    between atoms: C_1  and  C_34
    2  A    between atoms: C_1  and  C_35
    3  A    between atoms: C_2  and  C_13
    4  A    between atoms: C_3  and  C_4
    5  A    between atoms: C_3  and  C_12
    6  A    between atoms: N_6  and  C_12
    7  A    between atoms: C_11  and  C_14
    8  A    between atoms: C_14  and  C_41
    9  A    between atoms: C_21  and  C_30
                            x       y       z     vdW  Elec       q    Type
                         _______ _______ _______ _____ _____    ______ ____

>  <TORSDO>
F 9

$$$$
=
 OpenBabel11062410353D

 43 47  0  0  1  0  0  0  0  0999 V2000
  161.5670  207.1190  149.2550 N   0  0  0  0  0  0  0  0  0  0  0  0
  162.7280  209.1540  149.6270 C   0  0  2  0  0  3  0  0  0  0  0  0
  162.9190  207.9810  147.5660 O   0  0  0  0  0  1  0  0  0  0  0  0
  162.0160  208.3200  148.5750 C   0  0  1  0  0  3  0  0  0  0  0  0
  160.8260  206.0870  148.5770 C   0  0  0  0  0  0  0  0  0  0  0  0
  160.1800  206.3780  147.5350 O   0  0  0  0  0  0  0  0  0  0  0  0
  161.9630  207.0750  150.6560 C   0  0  1  0  0  3  0  0  0  0  0  0
  162.9290  208.2320  150.8290 C   0  0  0  0  0  2  0  0  0  0  0  0
  160.8140  202.0490  150.0200 C   0  0  0  0  0  0  0  0  0  0  0  0
  161.2720  203.6290  148.2390 C   0  0  0  0  0  0  0  0  0  0  0  0
  160.3800  203.0930  150.8390 C   0  0  0  0  0  3  0  0  0  0  0  0
  160.7840  200.4040  150.6110 Cl  0  0  0  0  0  0  0  0  0  0  0  0
  160.8290  204.6880  149.0580 C   0  0  0  0  0  0  0  0  0  0  0  0
  161.2590  202.3170  148.7230 C   0  0  0  0  0  3  0  0  0  0  0  0
  160.3890  204.4050  150.3600 C   0  0  0  0  0  3  0  0  0  0  0  0
  161.7090  203.8620  146.9400 O   0  0  0  0  0  1  0  0  0  0  0  0
  161.9030  210.3640  149.9660 C   0  0  0  0  0  0  0  0  0  0  0  0
  161.9470  211.5020  149.1030 N   0  0  0  0  0  2  0  0  0  0  0  0
  161.2070  210.3970  151.0180 O   0  0  0  0  0  0  0  0  0  0  0  0
  161.1450  212.6890  149.3390 C   0  0  0  0  0  2  0  0  0  0  0  0
  161.0110  213.4640  148.0430 C   0  0  0  0  0  2  0  0  0  0  0  0
  159.6830  213.2000  147.4080 C   0  0  0  0  0  0  0  0  0  0  0  0
  157.2590  213.3490  147.3760 C   0  0  0  0  0  3  0  0  0  0  0  0
  159.6450  212.4910  146.2030 C   0  0  0  0  0  3  0  0  0  0  0  0
  158.4220  212.2100  145.5880 C   0  0  0  0  0  3  0  0  0  0  0  0
  158.4800  213.6430  147.9970 C   0  0  0  0  0  0  0  0  0  0  0  0
  157.2300  212.6350  146.1760 C   0  0  0  0  0  3  0  0  0  0  0  0
  158.4810  214.4280  149.2740 C   0  0  0  0  0  2  0  0  0  0  0  0
  157.1530  214.3510  149.9520 C   0  0  0  0  0  0  0  0  0  0  0  0
  154.6930  214.2630  151.2310 C   0  0  0  0  0  3  0  0  0  0  0  0
  155.8850  214.1660  151.9520 C   0  0  0  0  0  3  0  0  0  0  0  0
  154.7450  214.4070  149.8450 C   0  0  0  0  0  3  0  0  0  0  0  0
  157.0800  214.2120  151.3040 N   0  0  0  0  0  0  0  0  0  0  0  0
  155.9810  214.4530  149.1970 C   0  0  0  0  0  3  0  0  0  0  0  0
  160.7600  207.3150  151.5650 C   0  0  0  0  0  2  0  0  0  0  0  0
  160.9660  209.3100  154.8590 C   0  0  1  0  0  3  0  0  0  0  0  0
  160.8670  208.1300  155.7960 C   0  0  0  0  0  0  0  0  0  0  0  0
  160.5180  208.2710  156.9590 O   0  0  0  0  0  0  0  0  0  0  0  0
  160.8240  206.5030  153.9160 C   0  0  0  0  0  2  0  0  0  0  0  0
  160.4860  208.9280  153.4600 C   0  0  0  0  0  2  0  0  0  0  0  0
  161.1840  207.6530  152.9830 C   0  0  2  0  0  3  0  0  0  0  0  0
  160.1660  210.5060  155.3500 C   0  0  0  0  0  1  0  0  0  0  0  0
  161.3370  206.7850  155.3270 C   0  0  0  0  0  2  0  0  0  0  0  0
  1  7  1  0  0  0  0
  2 17  1  1  0  0  0
  2  8  1  0  0  0  0
  4  3  1  6  0  0  0
  4  1  1  0  0  0  0
  4  2  1  0  0  0  0
  5 13  1  0  0  0  0
  5  1  1  0  0  0  0
  6  5  2  0  0  0  0
  7  8  1  0  0  0  0
  7 35  1  1  0  0  0
  9 12  1  0  0  0  0
  9 11  1  0  0  0  0
 10 14  1  0  0  0  0
 10 13  2  0  0  0  0
 13 15  1  0  0  0  0
 14  9  2  0  0  0  0
 15 11  2  0  0  0  0
 16 10  1  0  0  0  0
 17 19  2  0  0  0  0
 18 20  1  0  0  0  0
 18 17  1  0  0  0  0
 21 20  1  0  0  0  0
 22 26  1  0  0  0  0
 22 21  1  0  0  0  0
 23 26  2  0  0  0  0
 24 22  2  0  0  0  0
 25 27  2  0  0  0  0
 25 24  1  0  0  0  0
 26 28  1  0  0  0  0
 27 23  1  0  0  0  0
 28 29  1  0  0  0  0
 29 33  1  0  0  0  0
 30 31  1  0  0  0  0
 32 30  2  0  0  0  0
 33 31  2  0  0  0  0
 34 32  1  0  0  0  0
 34 29  2  0  0  0  0
 36 42  1  1  0  0  0
 36 37  1  0  0  0  0
 37 38  2  0  0  0  0
 39 43  1  0  0  0  0
 40 36  1  0  0  0  0
 41 35  1  6  0  0  0
 41 40  1  0  0  0  0
 41 39  1  0  0  0  0
 43 37  1  0  0  0  0
M  END
>  <MODEL>
7

>  <REMARK>
 VINA RESULT:      -6.1      1.832      3.744
  Name = 
  9 active torsions:
  status: ('A' for Active; 'I' for Inactive)
    1  A    between atoms: C_1  and  C_34
    2  A    between atoms: C_1  and  C_35
    3  A    between atoms: C_2  and  C_13
    4  A    between atoms: C_3  and  C_4
    5  A    between atoms: C_3  and  C_12
    6  A    between atoms: N_6  and  C_12
    7  A    between atoms: C_11  and  C_14
    8  A    between atoms: C_14  and  C_41
    9  A    between atoms: C_21  and  C_30
                            x       y       z     vdW  Elec       q    Type
                         _______ _______ _______ _____ _____    ______ ____

>  <TORSDO>
F 9

$$$$
=
 OpenBabel11062410353D

 43 47  0  0  1  0  0  0  0  0999 V2000
  160.1170  209.4860  154.6110 N   0  0  0  0  0  0  0  0  0  0  0  0
  162.2080  208.8990  153.6540 C   0  0  2  0  0  3  0  0  0  0  0  0
  161.6290  208.2340  155.8640 O   0  0  0  0  0  1  0  0  0  0  0  0
  161.1050  208.4220  154.5840 C   0  0  1  0  0  3  0  0  0  0  0  0
  158.9040  209.3850  155.3800 C   0  0  0  0  0  0  0  0  0  0  0  0
  158.4620  208.2450  155.6830 O   0  0  0  0  0  0  0  0  0  0  0  0
  160.5010  210.6410  153.8100 C   0  0  1  0  0  3  0  0  0  0  0  0
  161.9450  210.3860  153.4190 C   0  0  0  0  0  2  0  0  0  0  0  0
  156.7640  212.8580  156.7030 C   0  0  0  0  0  0  0  0  0  0  0  0
  158.7670  211.4930  156.7570 C   0  0  0  0  0  0  0  0  0  0  0  0
  156.1800  211.9710  155.7970 C   0  0  0  0  0  3  0  0  0  0  0  0
  155.8740  214.2590  157.2520 Cl  0  0  0  0  0  0  0  0  0  0  0  0
  158.1810  210.5880  155.8470 C   0  0  0  0  0  0  0  0  0  0  0  0
  158.0540  212.6190  157.1810 C   0  0  0  0  0  3  0  0  0  0  0  0
  156.8860  210.8440  155.3710 C   0  0  0  0  0  3  0  0  0  0  0  0
  160.0440  211.2760  157.2610 O   0  0  0  0  0  1  0  0  0  0  0  0
  162.1800  208.1050  152.3770 C   0  0  0  0  0  0  0  0  0  0  0  0
  162.3570  206.6890  152.4350 N   0  0  0  0  0  2  0  0  0  0  0  0
  162.0390  208.6790  151.2620 O   0  0  0  0  0  0  0  0  0  0  0  0
  162.2980  205.8490  151.2520 C   0  0  0  0  0  2  0  0  0  0  0  0
  160.8590  205.4420  151.0020 C   0  0  0  0  0  2  0  0  0  0  0  0
  160.8010  204.1360  150.2770 C   0  0  0  0  0  0  0  0  0  0  0  0
  161.2470  202.7440  148.3370 C   0  0  0  0  0  3  0  0  0  0  0  0
  160.1800  203.0490  150.9000 C   0  0  0  0  0  3  0  0  0  0  0  0
  160.0910  201.8170  150.2470 C   0  0  0  0  0  3  0  0  0  0  0  0
  161.3500  203.9810  148.9860 C   0  0  0  0  0  0  0  0  0  0  0  0
  160.6210  201.6650  148.9650 C   0  0  0  0  0  3  0  0  0  0  0  0
  162.0460  205.1150  148.2950 C   0  0  0  0  0  2  0  0  0  0  0  0
  161.6020  205.2290  146.8730 C   0  0  0  0  0  0  0  0  0  0  0  0
  160.8020  205.4960  144.2300 C   0  0  0  0  0  3  0  0  0  0  0  0
  160.1410  206.1740  145.2560 C   0  0  0  0  0  3  0  0  0  0  0  0
  161.8830  204.6720  144.5440 C   0  0  0  0  0  3  0  0  0  0  0  0
  160.5500  206.0280  146.5450 N   0  0  0  0  0  0  0  0  0  0  0  0
  162.2900  204.5370  145.8740 C   0  0  0  0  0  3  0  0  0  0  0  0
  159.6650  210.7150  152.5340 C   0  0  0  0  0  2  0  0  0  0  0  0
  161.1030  213.0700  149.8400 C   0  0  1  0  0  3  0  0  0  0  0  0
  159.8270  213.8290  149.5590 C   0  0  0  0  0  0  0  0  0  0  0  0
  159.6720  214.4430  148.5140 O   0  0  0  0  0  0  0  0  0  0  0  0
  158.5750  212.5880  151.3120 C   0  0  0  0  0  2  0  0  0  0  0  0
  160.7990  211.7580  150.5620 C   0  0  0  0  0  2  0  0  0  0  0  0
  159.9050  212.0080  151.7770 C   0  0  2  0  0  3  0  0  0  0  0  0
  161.8870  212.7710  148.5730 C   0  0  0  0  0  1  0  0  0  0  0  0
  158.7920  213.9420  150.6390 C   0  0  0  0  0  2  0  0  0  0  0  0
  1  5  1  0  0  0  0
  2 17  1  6  0  0  0
  2  4  1  0  0  0  0
  4  1  1  0  0  0  0
  4  3  1  1  0  0  0
  5  6  2  0  0  0  0
  5 13  1  0  0  0  0
  7 35  1  6  0  0  0
  7  1  1  0  0  0  0
  8  2  1  0  0  0  0
  8  7  1  0  0  0  0
  9 14  1  0  0  0  0
  9 12  1  0  0  0  0
 10 14  2  0  0  0  0
 10 16  1  0  0  0  0
 11  9  2  0  0  0  0
 13 10  1  0  0  0  0
 15 11  1  0  0  0  0
 15 13  2  0  0  0  0
 17 18  1  0  0  0  0
 19 17  2  0  0  0  0
 20 18  1  0  0  0  0
 21 20  1  0  0  0  0
 22 24  1  0  0  0  0
 22 21  1  0  0  0  0
 23 27  2  0  0  0  0
 23 26  1  0  0  0  0
 25 24  2  0  0  0  0
 26 22  2  0  0  0  0
 27 25  1  0  0  0  0
 28 26  1  0  0  0  0
 29 28  1  0  0  0  0
 30 32  2  0  0  0  0
 30 31  1  0  0  0  0
 31 33  2  0  0  0  0
 32 34  1  0  0  0  0
 33 29  1  0  0  0  0
 34 29  2  0  0  0  0
 36 42  1  6  0  0  0
 36 40  1  0  0  0  0
 37 36  1  0  0  0  0
 37 43  1  0  0  0  0
 38 37  2  0  0  0  0
 39 41  1  0  0  0  0
 40 41  1  0  0  0  0
 41 35  1  6  0  0  0
 43 39  1  0  0  0  0
M  END
>  <MODEL>
8

>  <REMARK>
 VINA RESULT:      -6.1      4.334      8.817
  Name = 
  9 active torsions:
  status: ('A' for Active; 'I' for Inactive)
    1  A    between atoms: C_1  and  C_34
    2  A    between atoms: C_1  and  C_35
    3  A    between atoms: C_2  and  C_13
    4  A    between atoms: C_3  and  C_4
    5  A    between atoms: C_3  and  C_12
    6  A    between atoms: N_6  and  C_12
    7  A    between atoms: C_11  and  C_14
    8  A    between atoms: C_14  and  C_41
    9  A    between atoms: C_21  and  C_30
                            x       y       z     vdW  Elec       q    Type
                         _______ _______ _______ _____ _____    ______ ____

>  <TORSDO>
F 9

$$$$
=
 OpenBabel11062410353D

 43 47  0  0  1  0  0  0  0  0999 V2000
  161.5930  207.8010  150.0640 N   0  0  0  0  0  0  0  0  0  0  0  0
  162.1500  208.2550  152.3260 C   0  0  2  0  0  3  0  0  0  0  0  0
  163.1090  209.5020  150.5410 O   0  0  0  0  0  1  0  0  0  0  0  0
  161.9280  208.8910  150.9630 C   0  0  1  0  0  3  0  0  0  0  0  0
  161.2920  208.0210  148.6740 C   0  0  0  0  0  0  0  0  0  0  0  0
  160.8860  209.1550  148.3050 O   0  0  0  0  0  0  0  0  0  0  0  0
  161.6190  206.4970  150.7140 C   0  0  1  0  0  3  0  0  0  0  0  0
  162.2330  206.7490  152.0780 C   0  0  0  0  0  2  0  0  0  0  0  0
  161.7730  204.9400  145.7300 C   0  0  0  0  0  0  0  0  0  0  0  0
  162.7140  206.2980  147.5040 C   0  0  0  0  0  0  0  0  0  0  0  0
  160.5430  205.5810  145.8860 C   0  0  0  0  0  3  0  0  0  0  0  0
  161.9630  203.7000  144.5120 Cl  0  0  0  0  0  0  0  0  0  0  0  0
  161.4760  206.9550  147.6630 C   0  0  0  0  0  0  0  0  0  0  0  0
  162.8550  205.2970  146.5370 C   0  0  0  0  0  3  0  0  0  0  0  0
  160.3960  206.5820  146.8490 C   0  0  0  0  0  3  0  0  0  0  0  0
  163.8120  206.6400  148.2840 O   0  0  0  0  0  1  0  0  0  0  0  0
  161.0220  208.6200  153.2510 C   0  0  0  0  0  0  0  0  0  0  0  0
  160.6280  209.9890  153.3610 N   0  0  0  0  0  2  0  0  0  0  0  0
  160.4510  207.7410  153.9530 O   0  0  0  0  0  0  0  0  0  0  0  0
  159.5200  210.4150  154.1970 C   0  0  0  0  0  2  0  0  0  0  0  0
  158.5770  211.2710  153.3750 C   0  0  0  0  0  2  0  0  0  0  0  0
  157.5830  211.9530  154.2590 C   0  0  0  0  0  0  0  0  0  0  0  0
  156.3960  213.9320  155.0170 C   0  0  0  0  0  3  0  0  0  0  0  0
  156.9070  211.1940  155.2200 C   0  0  0  0  0  3  0  0  0  0  0  0
  155.9830  211.7980  156.0760 C   0  0  0  0  0  3  0  0  0  0  0  0
  157.3180  213.3340  154.1480 C   0  0  0  0  0  0  0  0  0  0  0  0
  155.7300  213.1670  155.9770 C   0  0  0  0  0  3  0  0  0  0  0  0
  158.0020  214.1780  153.1140 C   0  0  0  0  0  2  0  0  0  0  0  0
  157.3150  214.0680  151.7930 C   0  0  0  0  0  0  0  0  0  0  0  0
  156.0360  213.8050  149.3450 C   0  0  0  0  0  3  0  0  0  0  0  0
  157.3740  213.4370  149.5040 C   0  0  0  0  0  3  0  0  0  0  0  0
  155.3340  214.3110  150.4400 C   0  0  0  0  0  3  0  0  0  0  0  0
  157.9800  213.5750  150.7130 N   0  0  0  0  0  0  0  0  0  0  0  0
  155.9750  214.4440  151.6740 C   0  0  0  0  0  3  0  0  0  0  0  0
  160.2010  205.9670  150.9180 C   0  0  0  0  0  2  0  0  0  0  0  0
  160.4580  202.5490  149.1500 C   0  0  1  0  0  3  0  0  0  0  0  0
  161.1160  201.8030  150.2860 C   0  0  0  0  0  0  0  0  0  0  0  0
  161.7380  200.7690  150.0900 O   0  0  0  0  0  0  0  0  0  0  0  0
  161.0230  203.7840  151.7860 C   0  0  0  0  0  2  0  0  0  0  0  0
  160.5950  204.0580  149.3480 C   0  0  0  0  0  2  0  0  0  0  0  0
  160.1330  204.4600  150.7490 C   0  0  2  0  0  3  0  0  0  0  0  0
  161.0390  202.1700  147.7980 C   0  0  0  0  0  1  0  0  0  0  0  0
  160.8850  202.2660  151.6940 C   0  0  0  0  0  2  0  0  0  0  0  0
  1  7  1  0  0  0  0
  1  4  1  0  0  0  0
  2 17  1  1  0  0  0
  4  3  1  6  0  0  0
  4  2  1  0  0  0  0
  5  1  1  0  0  0  0
  6  5  2  0  0  0  0
  7 35  1  1  0  0  0
  7  8  1  0  0  0  0
  8  2  1  0  0  0  0
  9 11  2  0  0  0  0
  9 14  1  0  0  0  0
 10 13  1  0  0  0  0
 10 16  1  0  0  0  0
 11 15  1  0  0  0  0
 12  9  1  0  0  0  0
 13  5  1  0  0  0  0
 14 10  2  0  0  0  0
 15 13  2  0  0  0  0
 17 18  1  0  0  0  0
 17 19  2  0  0  0  0
 18 20  1  0  0  0  0
 21 20  1  0  0  0  0
 21 22  1  0  0  0  0
 22 24  1  0  0  0  0
 23 27  2  0  0  0  0
 24 25  2  0  0  0  0
 26 22  2  0  0  0  0
 26 23  1  0  0  0  0
 27 25  1  0  0  0  0
 28 26  1  0  0  0  0
 29 28  1  0  0  0  0
 30 31  2  0  0  0  0
 30 32  1  0  0  0  0
 31 33  1  0  0  0  0
 32 34  2  0  0  0  0
 33 29  2  0  0  0  0
 34 29  1  0  0  0  0
 36 42  1  6  0  0  0
 36 40  1  0  0  0  0
 36 37  1  0  0  0  0
 37 43  1  0  0  0  0
 38 37  2  0  0  0  0
 40 41  1  0  0  0  0
 41 35  1  6  0  0  0
 41 39  1  0  0  0  0
 43 39  1  0  0  0  0
M  END
>  <MODEL>
9

>  <REMARK>
 VINA RESULT:      -5.7      3.754      6.559
  Name = 
  9 active torsions:
  status: ('A' for Active; 'I' for Inactive)
    1  A    between atoms: C_1  and  C_34
    2  A    between atoms: C_1  and  C_35
    3  A    between atoms: C_2  and  C_13
    4  A    between atoms: C_3  and  C_4
    5  A    between atoms: C_3  and  C_12
    6  A    between atoms: N_6  and  C_12
    7  A    between atoms: C_11  and  C_14
    8  A    between atoms: C_14  and  C_41
    9  A    between atoms: C_21  and  C_30
                            x       y       z     vdW  Elec       q    Type
                         _______ _______ _______ _____ _____    ______ ____

>  <TORSDO>
F 9

$$$$
