=
 OpenBabel11052422593D

 28 32  0  0  1  0  0  0  0  0999 V2000
  161.1800  204.5820  149.7670 N   0  0  0  0  0  0  0  0  0  0  0  0
  161.9590  209.4920  148.5570 S   0  0  0  0  0  0  0  0  0  0  0  0
  161.5970  206.3950  154.2660 C   0  0  0  0  0  2  0  0  0  0  0  0
  161.6830  210.3490  150.8910 C   0  0  0  0  0  0  0  0  0  0  0  0
  161.3870  207.8470  150.8270 C   0  0  1  0  0  3  0  0  0  0  0  0
  161.6990  209.1610  150.1830 C   0  0  0  0  0  0  0  0  0  0  0  0
  161.0800  209.1210  152.9880 C   0  0  0  0  0  2  0  0  0  0  0  0
  161.9280  211.4890  150.1210 C   0  0  0  0  0  3  0  0  0  0  0  0
  160.8730  205.5280  152.0380 C   0  0  2  0  0  3  0  0  0  0  0  0
  162.0520  206.7840  150.1770 O   0  0  0  0  0  0  0  0  0  0  0  0
  161.4690  210.3570  152.3050 N   0  0  0  0  0  2  0  0  0  0  0  0
  160.2630  203.1700  151.5800 C   0  0  0  0  0  2  0  0  0  0  0  0
  161.3760  206.6060  152.9650 C   0  0  0  0  0  0  0  0  0  0  0  0
  160.8090  204.1250  152.6340 C   0  0  0  0  0  2  0  0  0  0  0  0
  162.0930  211.1620  148.7780 C   0  0  0  0  0  0  0  0  0  0  0  0
  161.7610  207.9090  152.3250 C   0  0  1  0  0  3  0  0  0  0  0  0
  161.1340  203.2240  150.3250 C   0  0  0  0  0  2  0  0  0  0  0  0
  161.7490  205.5100  150.7600 C   0  0  2  0  0  3  0  0  0  0  0  0
  162.3960  212.1390  147.6950 C   0  0  0  0  0  2  0  0  0  0  0  0
  162.1490  213.5500  148.1880 C   0  0  0  0  0  1  0  0  0  0  0  0
  161.9710  204.5620  148.5230 C   0  0  0  0  0  2  0  0  0  0  0  0
  161.4630  203.5990  147.4830 C   0  0  0  0  0  0  0  0  0  0  0  0
  160.5320  201.8030  145.5460 C   0  0  0  0  0  0  0  0  0  0  0  0
  161.3470  204.0040  146.1470 C   0  0  0  0  0  3  0  0  0  0  0  0
  161.1190  202.2900  147.8440 C   0  0  0  0  0  3  0  0  0  0  0  0
  160.6530  201.3950  146.8770 C   0  0  0  0  0  3  0  0  0  0  0  0
  160.0670  200.9140  144.5860 O   0  0  0  0  0  1  0  0  0  0  0  0
  160.8800  203.1070  145.1800 C   0  0  0  0  0  3  0  0  0  0  0  0
  1 17  1  0  0  0  0
  1 18  1  0  0  0  0
  2 15  1  0  0  0  0
  2  6  1  0  0  0  0
  4 11  1  0  0  0  0
  5 10  1  6  0  0  0
  5 16  1  0  0  0  0
  6  5  1  0  0  0  0
  6  4  2  0  0  0  0
  8  4  1  0  0  0  0
  9 14  1  1  0  0  0
  9 13  1  0  0  0  0
 11  7  1  0  0  0  0
 12 14  1  0  0  0  0
 13  3  2  0  0  0  0
 15  8  2  0  0  0  0
 16 13  1  0  0  0  0
 16  7  1  1  0  0  0
 17 12  1  0  0  0  0
 18 10  1  6  0  0  0
 18  9  1  0  0  0  0
 19 20  1  0  0  0  0
 19 15  1  0  0  0  0
 21  1  1  0  0  0  0
 22 25  1  0  0  0  0
 22 21  1  0  0  0  0
 23 26  1  0  0  0  0
 24 22  2  0  0  0  0
 26 25  2  0  0  0  0
 27 23  1  0  0  0  0
 28 23  2  0  0  0  0
 28 24  1  0  0  0  0
M  END
>  <MODEL>
1

>  <REMARK>
 VINA RESULT:      -8.5      0.000      0.000
  Name = 
  3 active torsions:
  status: ('A' for Active; 'I' for Inactive)
    1  A    between atoms: N_1  and  C_2
    2  A    between atoms: C_2  and  C_3
    3  A    between atoms: C_12  and  C_24
                            x       y       z     vdW  Elec       q    Type
                         _______ _______ _______ _____ _____    ______ ____

>  <TORSDO>
F 3

$$$$
=
 OpenBabel11052422593D

 28 32  0  0  1  0  0  0  0  0999 V2000
  161.6830  209.3970  149.6860 N   0  0  0  0  0  0  0  0  0  0  0  0
  160.9400  211.1990  154.4170 S   0  0  0  0  0  0  0  0  0  0  0  0
  161.7900  205.1770  152.1090 C   0  0  0  0  0  2  0  0  0  0  0  0
  160.5490  208.9570  155.4560 C   0  0  0  0  0  0  0  0  0  0  0  0
  160.9890  208.7220  152.9860 C   0  0  1  0  0  3  0  0  0  0  0  0
  160.8720  209.5300  154.2390 C   0  0  0  0  0  0  0  0  0  0  0  0
  160.4390  206.6930  154.3900 C   0  0  0  0  0  2  0  0  0  0  0  0
  160.4120  209.8650  156.5090 C   0  0  0  0  0  3  0  0  0  0  0  0
  161.2340  207.2250  150.7930 C   0  0  2  0  0  3  0  0  0  0  0  0
  161.8990  209.3070  152.0780 O   0  0  0  0  0  0  0  0  0  0  0  0
  160.4160  207.5390  155.5870 N   0  0  0  0  0  2  0  0  0  0  0  0
  161.3110  207.3680  148.3200 C   0  0  0  0  0  2  0  0  0  0  0  0
  161.4500  206.4680  152.0800 C   0  0  0  0  0  0  0  0  0  0  0  0
  161.6110  206.4760  149.5180 C   0  0  0  0  0  2  0  0  0  0  0  0
  160.5950  211.1740  156.0710 C   0  0  0  0  0  0  0  0  0  0  0  0
  161.4070  207.2770  153.3440 C   0  0  1  0  0  3  0  0  0  0  0  0
  162.0630  208.6920  148.4540 C   0  0  0  0  0  2  0  0  0  0  0  0
  162.0090  208.5650  150.8570 C   0  0  2  0  0  3  0  0  0  0  0  0
  160.5450  212.3790  156.9440 C   0  0  0  0  0  2  0  0  0  0  0  0
  159.7610  213.4810  156.2610 C   0  0  0  0  0  1  0  0  0  0  0  0
  162.3800  210.6960  149.7280 C   0  0  0  0  0  2  0  0  0  0  0  0
  162.0920  211.5910  148.5520 C   0  0  0  0  0  0  0  0  0  0  0  0
  161.5570  213.2670  146.3730 C   0  0  0  0  0  0  0  0  0  0  0  0
  160.7710  211.8070  148.1390 C   0  0  0  0  0  3  0  0  0  0  0  0
  163.1430  212.2230  147.8750 C   0  0  0  0  0  3  0  0  0  0  0  0
  162.8760  213.0580  146.7870 C   0  0  0  0  0  3  0  0  0  0  0  0
  161.2920  214.0950  145.2910 O   0  0  0  0  0  1  0  0  0  0  0  0
  160.5050  212.6430  147.0500 C   0  0  0  0  0  3  0  0  0  0  0  0
  1 21  1  0  0  0  0
  1 18  1  0  0  0  0
  2 15  1  0  0  0  0
  4 11  1  0  0  0  0
  4  8  1  0  0  0  0
  5 10  1  6  0  0  0
  5 16  1  0  0  0  0
  5  6  1  0  0  0  0
  6  2  1  0  0  0  0
  6  4  2  0  0  0  0
  7 11  1  0  0  0  0
  9 14  1  6  0  0  0
  9 18  1  0  0  0  0
  9 13  1  0  0  0  0
 12 17  1  0  0  0  0
 12 14  1  0  0  0  0
 13  3  2  0  0  0  0
 13 16  1  0  0  0  0
 15  8  2  0  0  0  0
 15 19  1  0  0  0  0
 16  7  1  1  0  0  0
 17  1  1  0  0  0  0
 18 10  1  1  0  0  0
 20 19  1  0  0  0  0
 22 21  1  0  0  0  0
 23 26  2  0  0  0  0
 23 28  1  0  0  0  0
 24 22  1  0  0  0  0
 25 22  2  0  0  0  0
 26 25  1  0  0  0  0
 27 23  1  0  0  0  0
 28 24  2  0  0  0  0
M  END
>  <MODEL>
2

>  <REMARK>
 VINA RESULT:      -8.3      3.756      6.884
  Name = 
  3 active torsions:
  status: ('A' for Active; 'I' for Inactive)
    1  A    between atoms: N_1  and  C_2
    2  A    between atoms: C_2  and  C_3
    3  A    between atoms: C_12  and  C_24
                            x       y       z     vdW  Elec       q    Type
                         _______ _______ _______ _____ _____    ______ ____

>  <TORSDO>
F 3

$$$$
=
 OpenBabel11052422593D

 28 32  0  0  1  0  0  0  0  0999 V2000
  160.9460  210.9850  153.5200 N   0  0  0  0  0  0  0  0  0  0  0  0
  161.1230  207.7110  149.5930 S   0  0  0  0  0  0  0  0  0  0  0  0
  160.3960  206.8310  155.9970 C   0  0  0  0  0  2  0  0  0  0  0  0
  161.3060  205.6600  151.0140 C   0  0  0  0  0  0  0  0  0  0  0  0
  161.1840  207.7250  152.4530 C   0  0  1  0  0  3  0  0  0  0  0  0
  161.1620  207.0310  151.1280 C   0  0  0  0  0  0  0  0  0  0  0  0
  161.4840  205.4450  153.5030 C   0  0  0  0  0  2  0  0  0  0  0  0
  161.3330  205.1850  149.6990 C   0  0  0  0  0  3  0  0  0  0  0  0
  161.1810  208.9030  154.8450 C   0  0  2  0  0  3  0  0  0  0  0  0
  160.4180  208.9110  152.4270 O   0  0  0  0  0  0  0  0  0  0  0  0
  161.3780  204.8300  152.1760 N   0  0  0  0  0  2  0  0  0  0  0  0
  161.4310  211.1110  155.9440 C   0  0  0  0  0  2  0  0  0  0  0  0
  160.7760  207.4500  154.8760 C   0  0  0  0  0  0  0  0  0  0  0  0
  160.9500  209.6780  156.1390 C   0  0  0  0  0  2  0  0  0  0  0  0
  161.2480  206.2310  148.7850 C   0  0  0  0  0  0  0  0  0  0  0  0
  160.6790  206.7570  153.5480 C   0  0  1  0  0  3  0  0  0  0  0  0
  160.7090  211.7450  154.7550 C   0  0  0  0  0  2  0  0  0  0  0  0
  160.4450  209.6090  153.6780 C   0  0  2  0  0  3  0  0  0  0  0  0
  161.2220  206.0690  147.3060 C   0  0  0  0  0  2  0  0  0  0  0  0
  161.5940  204.6470  146.9350 C   0  0  0  0  0  1  0  0  0  0  0  0
  160.2900  211.6800  152.3970 C   0  0  0  0  0  2  0  0  0  0  0  0
  159.0320  212.4150  152.7740 C   0  0  0  0  0  0  0  0  0  0  0  0
  156.6840  213.7770  153.4640 C   0  0  0  0  0  0  0  0  0  0  0  0
  158.8340  213.7350  152.3490 C   0  0  0  0  0  3  0  0  0  0  0  0
  158.0470  211.7770  153.5390 C   0  0  0  0  0  3  0  0  0  0  0  0
  156.8760  212.4570  153.8850 C   0  0  0  0  0  3  0  0  0  0  0  0
  155.5220  214.4530  153.8090 O   0  0  0  0  0  1  0  0  0  0  0  0
  157.6620  214.4150  152.6960 C   0  0  0  0  0  3  0  0  0  0  0  0
  1 18  1  0  0  0  0
  1 17  1  0  0  0  0
  2  6  1  0  0  0  0
  4  6  2  0  0  0  0
  4 11  1  0  0  0  0
  5  6  1  6  0  0  0
  5 16  1  0  0  0  0
  8  4  1  0  0  0  0
  9 13  1  0  0  0  0
  9 14  1  1  0  0  0
 10  5  1  0  0  0  0
 11  7  1  0  0  0  0
 12 14  1  0  0  0  0
 13  3  2  0  0  0  0
 15  2  1  0  0  0  0
 15  8  2  0  0  0  0
 16  7  1  1  0  0  0
 16 13  1  0  0  0  0
 17 12  1  0  0  0  0
 18 10  1  6  0  0  0
 18  9  1  0  0  0  0
 19 15  1  0  0  0  0
 20 19  1  0  0  0  0
 21 22  1  0  0  0  0
 21  1  1  0  0  0  0
 22 25  1  0  0  0  0
 23 27  1  0  0  0  0
 23 26  1  0  0  0  0
 24 28  1  0  0  0  0
 24 22  2  0  0  0  0
 25 26  2  0  0  0  0
 28 23  2  0  0  0  0
M  END
>  <MODEL>
3

>  <REMARK>
 VINA RESULT:      -8.0      3.584      8.351
  Name = 
  3 active torsions:
  status: ('A' for Active; 'I' for Inactive)
    1  A    between atoms: N_1  and  C_2
    2  A    between atoms: C_2  and  C_3
    3  A    between atoms: C_12  and  C_24
                            x       y       z     vdW  Elec       q    Type
                         _______ _______ _______ _____ _____    ______ ____

>  <TORSDO>
F 3

$$$$
=
 OpenBabel11052422593D

 28 32  0  0  1  0  0  0  0  0999 V2000
  161.8410  208.1660  149.4390 N   0  0  0  0  0  0  0  0  0  0  0  0
  161.0460  203.2620  148.2190 S   0  0  0  0  0  0  0  0  0  0  0  0
  160.8300  206.4540  153.8820 C   0  0  0  0  0  2  0  0  0  0  0  0
  161.0120  202.4410  150.5810 C   0  0  0  0  0  0  0  0  0  0  0  0
  161.3980  204.9300  150.5160 C   0  0  1  0  0  3  0  0  0  0  0  0
  161.1210  203.6150  149.8590 C   0  0  0  0  0  0  0  0  0  0  0  0
  161.4020  203.6890  152.7170 C   0  0  0  0  0  2  0  0  0  0  0  0
  160.8220  201.2950  149.8050 C   0  0  0  0  0  3  0  0  0  0  0  0
  161.8430  207.2540  151.7450 C   0  0  2  0  0  3  0  0  0  0  0  0
  160.8520  206.0020  149.7750 O   0  0  0  0  0  0  0  0  0  0  0  0
  161.0560  202.4530  152.0110 N   0  0  0  0  0  2  0  0  0  0  0  0
  162.5840  209.5830  151.3270 C   0  0  0  0  0  2  0  0  0  0  0  0
  161.1970  206.2110  152.6210 C   0  0  0  0  0  0  0  0  0  0  0  0
  161.8830  208.6660  152.3220 C   0  0  0  0  0  2  0  0  0  0  0  0
  160.8290  201.6010  148.4470 C   0  0  0  0  0  0  0  0  0  0  0  0
  160.8470  204.9090  151.9590 C   0  0  1  0  0  3  0  0  0  0  0  0
  161.8670  209.5330  149.9780 C   0  0  0  0  0  2  0  0  0  0  0  0
  161.1270  207.2760  150.3700 C   0  0  2  0  0  3  0  0  0  0  0  0
  160.6240  200.6150  147.3510 C   0  0  0  0  0  2  0  0  0  0  0  0
  160.4560  201.3370  146.0290 C   0  0  0  0  0  1  0  0  0  0  0  0
  161.2060  208.1880  148.1090 C   0  0  0  0  0  2  0  0  0  0  0  0
  161.5610  207.0160  147.2330 C   0  0  0  0  0  0  0  0  0  0  0  0
  162.2290  204.8440  145.5960 C   0  0  0  0  0  0  0  0  0  0  0  0
  160.6630  206.5710  146.2550 C   0  0  0  0  0  3  0  0  0  0  0  0
  162.7980  206.3750  147.3840 C   0  0  0  0  0  3  0  0  0  0  0  0
  163.1300  205.2900  146.5680 C   0  0  0  0  0  3  0  0  0  0  0  0
  162.5580  203.7660  144.7870 O   0  0  0  0  0  1  0  0  0  0  0  0
  160.9960  205.4850  145.4390 C   0  0  0  0  0  3  0  0  0  0  0  0
  1 17  1  0  0  0  0
  1 18  1  0  0  0  0
  2 15  1  0  0  0  0
  2  6  1  0  0  0  0
  4 11  1  0  0  0  0
  5 10  1  6  0  0  0
  5 16  1  0  0  0  0
  6  5  1  0  0  0  0
  6  4  2  0  0  0  0
  8  4  1  0  0  0  0
  9 14  1  1  0  0  0
  9 13  1  0  0  0  0
 11  7  1  0  0  0  0
 12 14  1  0  0  0  0
 13  3  2  0  0  0  0
 15  8  2  0  0  0  0
 16 13  1  0  0  0  0
 16  7  1  1  0  0  0
 17 12  1  0  0  0  0
 18 10  1  6  0  0  0
 18  9  1  0  0  0  0
 19 15  1  0  0  0  0
 20 19  1  0  0  0  0
 21  1  1  0  0  0  0
 22 25  1  0  0  0  0
 22 21  1  0  0  0  0
 23 26  1  0  0  0  0
 24 22  2  0  0  0  0
 26 25  2  0  0  0  0
 27 23  1  0  0  0  0
 28 23  2  0  0  0  0
 28 24  1  0  0  0  0
M  END
>  <MODEL>
4

>  <REMARK>
 VINA RESULT:      -8.0      2.273      5.902
  Name = 
  3 active torsions:
  status: ('A' for Active; 'I' for Inactive)
    1  A    between atoms: N_1  and  C_2
    2  A    between atoms: C_2  and  C_3
    3  A    between atoms: C_12  and  C_24
                            x       y       z     vdW  Elec       q    Type
                         _______ _______ _______ _____ _____    ______ ____

>  <TORSDO>
F 3

$$$$
=
 OpenBabel11052422593D

 28 32  0  0  1  0  0  0  0  0999 V2000
  160.7370  210.9650  152.8340 N   0  0  0  0  0  0  0  0  0  0  0  0
  161.0930  207.3290  149.2530 S   0  0  0  0  0  0  0  0  0  0  0  0
  160.5080  207.0550  155.7260 C   0  0  0  0  0  2  0  0  0  0  0  0
  161.4360  205.4500  150.8680 C   0  0  0  0  0  0  0  0  0  0  0  0
  161.1880  207.6370  152.0960 C   0  0  1  0  0  3  0  0  0  0  0  0
  161.1980  206.8120  150.8480 C   0  0  0  0  0  0  0  0  0  0  0  0
  161.6600  205.5010  153.3620 C   0  0  0  0  0  2  0  0  0  0  0  0
  161.4800  204.8470  149.6080 C   0  0  0  0  0  3  0  0  0  0  0  0
  161.1330  209.0480  154.3570 C   0  0  2  0  0  3  0  0  0  0  0  0
  160.3420  208.7600  151.9650 O   0  0  0  0  0  0  0  0  0  0  0  0
  161.5800  204.7490  152.1070 N   0  0  0  0  0  2  0  0  0  0  0  0
  161.2410  211.3690  155.2230 C   0  0  0  0  0  2  0  0  0  0  0  0
  160.8310  207.5830  154.5410 C   0  0  0  0  0  0  0  0  0  0  0  0
  160.8640  209.9330  155.5700 C   0  0  0  0  0  2  0  0  0  0  0  0
  161.3120  205.7870  148.5950 C   0  0  0  0  0  0  0  0  0  0  0  0
  160.7660  206.7530  153.2910 C   0  0  1  0  0  3  0  0  0  0  0  0
  160.4620  211.8280  153.9910 C   0  0  0  0  0  2  0  0  0  0  0  0
  160.3350  209.5810  153.1390 C   0  0  2  0  0  3  0  0  0  0  0  0
  161.2780  205.4740  147.1410 C   0  0  0  0  0  2  0  0  0  0  0  0
  161.5820  204.0050  146.9200 C   0  0  0  0  0  1  0  0  0  0  0  0
  160.0200  211.4950  151.6600 C   0  0  0  0  0  2  0  0  0  0  0  0
  160.9020  211.7840  150.4750 C   0  0  0  0  0  0  0  0  0  0  0  0
  162.5330  212.3140  148.2610 C   0  0  0  0  0  0  0  0  0  0  0  0
  161.8900  210.8670  150.0930 C   0  0  0  0  0  3  0  0  0  0  0  0
  160.7290  212.9630  149.7400 C   0  0  0  0  0  3  0  0  0  0  0  0
  161.5440  213.2290  148.6360 C   0  0  0  0  0  3  0  0  0  0  0  0
  163.3440  212.5790  147.1660 O   0  0  0  0  0  1  0  0  0  0  0  0
  162.7050  211.1340  148.9890 C   0  0  0  0  0  3  0  0  0  0  0  0
  1 18  1  0  0  0  0
  1 17  1  0  0  0  0
  2  6  1  0  0  0  0
  4 11  1  0  0  0  0
  5  6  1  6  0  0  0
  5 16  1  0  0  0  0
  6  4  2  0  0  0  0
  8  4  1  0  0  0  0
  9 13  1  0  0  0  0
  9 14  1  1  0  0  0
 10  5  1  0  0  0  0
 11  7  1  0  0  0  0
 12 14  1  0  0  0  0
 13  3  2  0  0  0  0
 15  2  1  0  0  0  0
 15  8  2  0  0  0  0
 16  7  1  1  0  0  0
 16 13  1  0  0  0  0
 17 12  1  0  0  0  0
 18 10  1  6  0  0  0
 18  9  1  0  0  0  0
 19 15  1  0  0  0  0
 20 19  1  0  0  0  0
 21  1  1  0  0  0  0
 22 21  1  0  0  0  0
 23 26  2  0  0  0  0
 23 28  1  0  0  0  0
 24 22  1  0  0  0  0
 25 22  2  0  0  0  0
 26 25  1  0  0  0  0
 27 23  1  0  0  0  0
 28 24  2  0  0  0  0
M  END
>  <MODEL>
5

>  <REMARK>
 VINA RESULT:      -8.0      2.611      7.174
  Name = 
  3 active torsions:
  status: ('A' for Active; 'I' for Inactive)
    1  A    between atoms: N_1  and  C_2
    2  A    between atoms: C_2  and  C_3
    3  A    between atoms: C_12  and  C_24
                            x       y       z     vdW  Elec       q    Type
                         _______ _______ _______ _____ _____    ______ ____

>  <TORSDO>
F 3

$$$$
=
 OpenBabel11052422593D

 28 32  0  0  1  0  0  0  0  0999 V2000
  161.9880  209.0610  150.0820 N   0  0  0  0  0  0  0  0  0  0  0  0
  161.3300  204.4680  147.9270 S   0  0  0  0  0  0  0  0  0  0  0  0
  160.6130  206.5800  154.0370 C   0  0  0  0  0  2  0  0  0  0  0  0
  161.1010  203.2320  150.0900 C   0  0  0  0  0  0  0  0  0  0  0  0
  161.4760  205.6880  150.5110 C   0  0  1  0  0  3  0  0  0  0  0  0
  161.2640  204.5170  149.6050 C   0  0  0  0  0  0  0  0  0  0  0  0
  161.3000  204.0680  152.4420 C   0  0  0  0  0  2  0  0  0  0  0  0
  160.9860  202.2470  149.1050 C   0  0  0  0  0  3  0  0  0  0  0  0
  161.7990  207.7460  152.1750 C   0  0  2  0  0  3  0  0  0  0  0  0
  160.9880  206.8810  149.9330 O   0  0  0  0  0  0  0  0  0  0  0  0
  161.0230  202.9830  151.4960 N   0  0  0  0  0  2  0  0  0  0  0  0
  162.5580  210.1050  152.2520 C   0  0  0  0  0  2  0  0  0  0  0  0
  161.0880  206.5670  152.7890 C   0  0  0  0  0  0  0  0  0  0  0  0
  161.7810  209.0280  153.0010 C   0  0  0  0  0  2  0  0  0  0  0  0
  161.1060  202.7950  147.8300 C   0  0  0  0  0  0  0  0  0  0  0  0
  160.8030  205.4100  151.8740 C   0  0  1  0  0  3  0  0  0  0  0  0
  161.9580  210.3070  150.8600 C   0  0  0  0  0  2  0  0  0  0  0  0
  161.2030  208.0230  150.7710 C   0  0  2  0  0  3  0  0  0  0  0  0
  161.0010  202.0260  146.5600 C   0  0  0  0  0  2  0  0  0  0  0  0
  161.0140  202.9750  145.3780 C   0  0  0  0  0  1  0  0  0  0  0  0
  161.4670  209.3310  148.7290 C   0  0  0  0  0  2  0  0  0  0  0  0
  161.8380  210.6830  148.1800 C   0  0  0  0  0  0  0  0  0  0  0  0
  162.5230  213.2040  147.1720 C   0  0  0  0  0  0  0  0  0  0  0  0
  160.9340  211.3880  147.3760 C   0  0  0  0  0  3  0  0  0  0  0  0
  163.0830  211.2480  148.4840 C   0  0  0  0  0  3  0  0  0  0  0  0
  163.4260  212.5050  147.9800 C   0  0  0  0  0  3  0  0  0  0  0  0
  162.8640  214.4530  146.6700 O   0  0  0  0  0  1  0  0  0  0  0  0
  161.2770  212.6460  146.8720 C   0  0  0  0  0  3  0  0  0  0  0  0
  1 18  1  0  0  0  0
  1 17  1  0  0  0  0
  2  6  1  0  0  0  0
  4 11  1  0  0  0  0
  5  6  1  6  0  0  0
  5 16  1  0  0  0  0
  6  4  2  0  0  0  0
  8  4  1  0  0  0  0
  9 13  1  0  0  0  0
  9 14  1  1  0  0  0
 10  5  1  0  0  0  0
 11  7  1  0  0  0  0
 12 14  1  0  0  0  0
 13  3  2  0  0  0  0
 15  2  1  0  0  0  0
 15  8  2  0  0  0  0
 16  7  1  1  0  0  0
 16 13  1  0  0  0  0
 17 12  1  0  0  0  0
 18 10  1  6  0  0  0
 18  9  1  0  0  0  0
 19 15  1  0  0  0  0
 20 19  1  0  0  0  0
 21  1  1  0  0  0  0
 22 25  1  0  0  0  0
 22 21  1  0  0  0  0
 23 26  1  0  0  0  0
 24 22  2  0  0  0  0
 26 25  2  0  0  0  0
 27 23  1  0  0  0  0
 28 23  2  0  0  0  0
 28 24  1  0  0  0  0
M  END
>  <MODEL>
6

>  <REMARK>
 VINA RESULT:      -7.9      2.174      7.362
  Name = 
  3 active torsions:
  status: ('A' for Active; 'I' for Inactive)
    1  A    between atoms: N_1  and  C_2
    2  A    between atoms: C_2  and  C_3
    3  A    between atoms: C_12  and  C_24
                            x       y       z     vdW  Elec       q    Type
                         _______ _______ _______ _____ _____    ______ ____

>  <TORSDO>
F 3

$$$$
=
 OpenBabel11052422593D

 28 32  0  0  1  0  0  0  0  0999 V2000
  161.0930  208.0130  153.0580 N   0  0  0  0  0  0  0  0  0  0  0  0
  160.6450  212.2340  150.2020 S   0  0  0  0  0  0  0  0  0  0  0  0
  159.6760  211.1110  156.5350 C   0  0  0  0  0  2  0  0  0  0  0  0
  159.4870  213.5800  151.9630 C   0  0  0  0  0  0  0  0  0  0  0  0
  159.9950  211.2630  152.8130 C   0  0  1  0  0  3  0  0  0  0  0  0
  160.0580  212.3360  151.7720 C   0  0  0  0  0  0  0  0  0  0  0  0
  158.7300  212.9090  154.2550 C   0  0  0  0  0  2  0  0  0  0  0  0
  159.5760  214.4380  150.8630 C   0  0  0  0  0  3  0  0  0  0  0  0
  159.8970  209.4060  154.7240 C   0  0  2  0  0  3  0  0  0  0  0  0
  161.1050  210.3930  152.7250 O   0  0  0  0  0  0  0  0  0  0  0  0
  158.8970  213.9320  153.2180 N   0  0  0  0  0  2  0  0  0  0  0  0
  160.1840  206.9750  155.1120 C   0  0  0  0  0  2  0  0  0  0  0  0
  159.7710  210.8200  155.2350 C   0  0  0  0  0  0  0  0  0  0  0  0
  160.1000  208.3360  155.7920 C   0  0  0  0  0  2  0  0  0  0  0  0
  160.1980  213.8110  149.7870 C   0  0  0  0  0  0  0  0  0  0  0  0
  159.9030  211.9120  154.2130 C   0  0  1  0  0  3  0  0  0  0  0  0
  161.3100  206.9780  154.0780 C   0  0  0  0  0  2  0  0  0  0  0  0
  161.0540  209.3410  153.6960 C   0  0  2  0  0  3  0  0  0  0  0  0
  160.4770  214.4530  148.4730 C   0  0  0  0  0  2  0  0  0  0  0  0
  161.8980  214.1530  148.0420 C   0  0  0  0  0  1  0  0  0  0  0  0
  162.1640  207.9230  152.0490 C   0  0  0  0  0  2  0  0  0  0  0  0
  161.7020  207.4540  150.6950 C   0  0  0  0  0  0  0  0  0  0  0  0
  160.8540  206.5740  148.1750 C   0  0  0  0  0  0  0  0  0  0  0  0
  161.9350  208.2410  149.5600 C   0  0  0  0  0  3  0  0  0  0  0  0
  161.0500  206.2210  150.5630 C   0  0  0  0  0  3  0  0  0  0  0  0
  160.6250  205.7830  149.3060 C   0  0  0  0  0  3  0  0  0  0  0  0
  160.4300  206.1390  146.9270 O   0  0  0  0  0  1  0  0  0  0  0  0
  161.5090  207.8020  148.3030 C   0  0  0  0  0  3  0  0  0  0  0  0
  1 18  1  0  0  0  0
  1 17  1  0  0  0  0
  2  6  1  0  0  0  0
  4 11  1  0  0  0  0
  5  6  1  6  0  0  0
  5 16  1  0  0  0  0
  6  4  2  0  0  0  0
  8  4  1  0  0  0  0
  9 13  1  0  0  0  0
  9 14  1  1  0  0  0
 10  5  1  0  0  0  0
 11  7  1  0  0  0  0
 12 14  1  0  0  0  0
 13  3  2  0  0  0  0
 15  2  1  0  0  0  0
 15  8  2  0  0  0  0
 16  7  1  6  0  0  0
 16 13  1  0  0  0  0
 17 12  1  0  0  0  0
 18 10  1  6  0  0  0
 18  9  1  0  0  0  0
 19 15  1  0  0  0  0
 20 19  1  0  0  0  0
 21  1  1  0  0  0  0
 22 21  1  0  0  0  0
 23 28  2  0  0  0  0
 23 26  1  0  0  0  0
 24 22  2  0  0  0  0
 25 22  1  0  0  0  0
 26 25  2  0  0  0  0
 27 23  1  0  0  0  0
 28 24  1  0  0  0  0
M  END
>  <MODEL>
7

>  <REMARK>
 VINA RESULT:      -7.9      3.072      4.684
  Name = 
  3 active torsions:
  status: ('A' for Active; 'I' for Inactive)
    1  A    between atoms: N_1  and  C_2
    2  A    between atoms: C_2  and  C_3
    3  A    between atoms: C_12  and  C_24
                            x       y       z     vdW  Elec       q    Type
                         _______ _______ _______ _____ _____    ______ ____

>  <TORSDO>
F 3

$$$$
=
 OpenBabel11052422593D

 28 32  0  0  1  0  0  0  0  0999 V2000
  161.4600  206.6610  150.5600 N   0  0  0  0  0  0  0  0  0  0  0  0
  160.4980  211.6850  150.6380 S   0  0  0  0  0  0  0  0  0  0  0  0
  161.1960  207.2870  155.3800 C   0  0  0  0  0  2  0  0  0  0  0  0
  159.9280  211.7710  153.0720 C   0  0  0  0  0  0  0  0  0  0  0  0
  160.5170  209.4190  152.3840 C   0  0  1  0  0  3  0  0  0  0  0  0
  160.3590  210.8800  152.1060 C   0  0  0  0  0  0  0  0  0  0  0  0
  159.7750  209.9160  154.7490 C   0  0  0  0  0  2  0  0  0  0  0  0
  159.7680  213.0850  152.6240 C   0  0  0  0  0  3  0  0  0  0  0  0
  160.8300  206.8330  152.9520 C   0  0  2  0  0  3  0  0  0  0  0  0
  161.5130  208.8430  151.5650 O   0  0  0  0  0  0  0  0  0  0  0  0
  159.7150  211.3440  154.4210 N   0  0  0  0  0  2  0  0  0  0  0  0
  161.0770  204.6080  151.8870 C   0  0  0  0  0  2  0  0  0  0  0  0
  160.9230  207.7400  154.1530 C   0  0  0  0  0  0  0  0  0  0  0  0
  161.2530  205.3860  153.1860 C   0  0  0  0  0  2  0  0  0  0  0  0
  160.0450  213.1890  151.2630 C   0  0  0  0  0  0  0  0  0  0  0  0
  160.8370  209.2150  153.8830 C   0  0  1  0  0  3  0  0  0  0  0  0
  161.8840  205.2700  150.7700 C   0  0  0  0  0  2  0  0  0  0  0  0
  161.6660  207.4370  151.7950 C   0  0  2  0  0  3  0  0  0  0  0  0
  159.9970  214.4530  150.4800 C   0  0  0  0  0  2  0  0  0  0  0  0
  160.1780  214.1550  149.0050 C   0  0  0  0  0  1  0  0  0  0  0  0
  162.2160  207.2250  149.4270 C   0  0  0  0  0  2  0  0  0  0  0  0
  161.9310  206.5680  148.1030 C   0  0  0  0  0  0  0  0  0  0  0  0
  161.4060  205.3560  145.6330 C   0  0  0  0  0  0  0  0  0  0  0  0
  160.7190  206.8100  147.4440 C   0  0  0  0  0  3  0  0  0  0  0  0
  162.8820  205.7230  147.5180 C   0  0  0  0  0  3  0  0  0  0  0  0
  162.6200  205.1170  146.2860 C   0  0  0  0  0  3  0  0  0  0  0  0
  161.1450  204.7520  144.4110 O   0  0  0  0  0  1  0  0  0  0  0  0
  160.4570  206.2030  146.2120 C   0  0  0  0  0  3  0  0  0  0  0  0
  1 17  1  0  0  0  0
  1 18  1  0  0  0  0
  2 15  1  0  0  0  0
  2  6  1  0  0  0  0
  4 11  1  0  0  0  0
  5 10  1  6  0  0  0
  5 16  1  0  0  0  0
  6  5  1  0  0  0  0
  6  4  2  0  0  0  0
  8  4  1  0  0  0  0
  9 14  1  1  0  0  0
  9 13  1  0  0  0  0
 11  7  1  0  0  0  0
 12 14  1  0  0  0  0
 13  3  2  0  0  0  0
 15  8  2  0  0  0  0
 16 13  1  0  0  0  0
 16  7  1  1  0  0  0
 17 12  1  0  0  0  0
 18 10  1  6  0  0  0
 18  9  1  0  0  0  0
 19 15  1  0  0  0  0
 20 19  1  0  0  0  0
 21  1  1  0  0  0  0
 22 21  1  0  0  0  0
 23 28  2  0  0  0  0
 23 26  1  0  0  0  0
 24 22  2  0  0  0  0
 25 22  1  0  0  0  0
 26 25  2  0  0  0  0
 27 23  1  0  0  0  0
 28 24  1  0  0  0  0
M  END
>  <MODEL>
8

>  <REMARK>
 VINA RESULT:      -7.8      2.422      2.929
  Name = 
  3 active torsions:
  status: ('A' for Active; 'I' for Inactive)
    1  A    between atoms: N_1  and  C_2
    2  A    between atoms: C_2  and  C_3
    3  A    between atoms: C_12  and  C_24
                            x       y       z     vdW  Elec       q    Type
                         _______ _______ _______ _____ _____    ______ ____

>  <TORSDO>
F 3

$$$$
=
 OpenBabel11052422593D

 28 32  0  0  1  0  0  0  0  0999 V2000
  160.9100  207.0710  151.4710 N   0  0  0  0  0  0  0  0  0  0  0  0
  159.0590  211.8350  151.6950 S   0  0  0  0  0  0  0  0  0  0  0  0
  161.6560  207.9320  156.2030 C   0  0  0  0  0  2  0  0  0  0  0  0
  159.0630  211.9650  154.1920 C   0  0  0  0  0  0  0  0  0  0  0  0
  159.9110  209.7200  153.4220 C   0  0  1  0  0  3  0  0  0  0  0  0
  159.4180  211.1090  153.1660 C   0  0  0  0  0  0  0  0  0  0  0  0
  159.6560  210.2190  155.8870 C   0  0  0  0  0  2  0  0  0  0  0  0
  158.5570  213.1990  153.7740 C   0  0  0  0  0  3  0  0  0  0  0  0
  160.8310  207.2720  153.9410 C   0  0  2  0  0  3  0  0  0  0  0  0
  160.7800  209.2840  152.3980 O   0  0  0  0  0  0  0  0  0  0  0  0
  159.2530  211.5890  155.5600 N   0  0  0  0  0  2  0  0  0  0  0  0
  161.2410  205.0670  152.8840 C   0  0  0  0  0  2  0  0  0  0  0  0
  161.0260  208.2520  155.0700 C   0  0  0  0  0  0  0  0  0  0  0  0
  161.5620  205.9410  154.0910 C   0  0  0  0  0  2  0  0  0  0  0  0
  158.4860  213.2680  152.3850 C   0  0  0  0  0  0  0  0  0  0  0  0
  160.6020  209.6680  154.8040 C   0  0  1  0  0  3  0  0  0  0  0  0
  161.6260  205.7940  151.5960 C   0  0  0  0  0  2  0  0  0  0  0  0
  161.2460  207.9450  152.6080 C   0  0  2  0  0  3  0  0  0  0  0  0
  158.0200  214.4530  151.6150 C   0  0  0  0  0  2  0  0  0  0  0  0
  156.9220  214.0460  150.6540 C   0  0  0  0  0  1  0  0  0  0  0  0
  161.2620  207.6920  150.1810 C   0  0  0  0  0  2  0  0  0  0  0  0
  161.4190  206.7160  149.0460 C   0  0  0  0  0  0  0  0  0  0  0  0
  161.6990  204.9060  146.9270 C   0  0  0  0  0  0  0  0  0  0  0  0
  160.8160  205.4540  149.1150 C   0  0  0  0  0  3  0  0  0  0  0  0
  162.1560  207.0720  147.9090 C   0  0  0  0  0  3  0  0  0  0  0  0
  162.2970  206.1680  146.8520 C   0  0  0  0  0  3  0  0  0  0  0  0
  161.8410  204.0080  145.8780 O   0  0  0  0  0  1  0  0  0  0  0  0
  160.9580  204.5500  148.0580 C   0  0  0  0  0  3  0  0  0  0  0  0
  1 17  1  0  0  0  0
  1 18  1  0  0  0  0
  2 15  1  0  0  0  0
  2  6  1  0  0  0  0
  4 11  1  0  0  0  0
  5 10  1  6  0  0  0
  5 16  1  0  0  0  0
  6  5  1  0  0  0  0
  6  4  2  0  0  0  0
  8  4  1  0  0  0  0
  9 14  1  1  0  0  0
  9 13  1  0  0  0  0
 11  7  1  0  0  0  0
 12 14  1  0  0  0  0
 13  3  2  0  0  0  0
 15  8  2  0  0  0  0
 16 13  1  0  0  0  0
 16  7  1  1  0  0  0
 17 12  1  0  0  0  0
 18 10  1  6  0  0  0
 18  9  1  0  0  0  0
 19 15  1  0  0  0  0
 20 19  1  0  0  0  0
 21  1  1  0  0  0  0
 22 24  1  0  0  0  0
 22 21  1  0  0  0  0
 23 28  1  0  0  0  0
 25 22  2  0  0  0  0
 26 23  2  0  0  0  0
 26 25  1  0  0  0  0
 27 23  1  0  0  0  0
 28 24  2  0  0  0  0
M  END
>  <MODEL>
9

>  <REMARK>
 VINA RESULT:      -7.8      3.009      3.969
  Name = 
  3 active torsions:
  status: ('A' for Active; 'I' for Inactive)
    1  A    between atoms: N_1  and  C_2
    2  A    between atoms: C_2  and  C_3
    3  A    between atoms: C_12  and  C_24
                            x       y       z     vdW  Elec       q    Type
                         _______ _______ _______ _____ _____    ______ ____

>  <TORSDO>
F 3

$$$$
