=
 OpenBabel11052422303D

 31 35  0  0  1  0  0  0  0  0999 V2000
  161.1610  210.2040  155.2980 C   0  0  0  0  0  0  0  0  0  0  0  0
  161.6860  208.9840  151.7040 C   0  0  0  0  0  0  0  0  0  0  0  0
  161.5400  210.1120  150.8380 C   0  0  0  0  0  0  0  0  0  0  0  0
  160.0590  212.1410  150.4950 C   0  0  0  0  0  2  0  0  0  0  0  0
  161.3930  209.0170  153.1790 C   0  0  0  0  0  0  0  0  0  0  0  0
  160.9280  208.9970  155.9590 C   0  0  0  0  0  3  0  0  0  0  0  0
  161.0490  211.4270  151.4010 C   0  0  0  0  0  2  0  0  0  0  0  0
  162.2730  206.5280  152.0450 C   0  0  2  0  0  3  0  0  0  0  0  0
  161.1560  211.4810  156.0570 C   0  0  0  0  0  1  0  0  0  0  0  0
  162.3800  208.7700  148.9830 C   0  0  0  0  0  3  0  0  0  0  0  0
  160.7890  213.0890  149.5460 C   0  0  0  0  0  2  0  0  0  0  0  0
  161.1970  206.5080  153.1290 C   0  0  0  0  0  2  0  0  0  0  0  0
  162.1120  207.7450  151.1570 C   0  0  0  0  0  0  0  0  0  0  0  0
  161.3980  210.2110  153.9220 C   0  0  0  0  0  3  0  0  0  0  0  0
  162.0410  212.4650  148.9290 C   0  0  0  0  0  2  0  0  0  0  0  0
  161.1900  207.8030  153.8700 C   0  0  0  0  0  0  0  0  0  0  0  0
  160.9430  207.7980  155.2460 C   0  0  0  0  0  3  0  0  0  0  0  0
  162.4830  207.6650  149.8130 C   0  0  0  0  0  3  0  0  0  0  0  0
  161.9200  209.9910  149.4670 C   0  0  0  0  0  0  0  0  0  0  0  0
  161.7500  211.0630  148.4210 C   0  0  0  0  0  2  0  0  0  0  0  0
  160.0300  205.6580  150.5200 O   0  0  0  0  0  0  0  0  0  0  0  0
  161.0500  204.9160  150.5130 C   0  0  0  0  0  0  0  0  0  0  0  0
  162.2040  205.2930  151.2720 N   0  0  0  0  0  2  0  0  0  0  0  0
  161.0700  201.2150  148.3370 C   0  0  0  0  0  0  0  0  0  0  0  0
  160.8580  202.4430  150.4080 C   0  0  0  0  0  3  0  0  0  0  0  0
  161.4820  204.8000  147.6130 O   0  0  0  0  0  1  0  0  0  0  0  0
  161.0740  200.0390  147.6650 F   0  0  0  0  0  0  0  0  0  0  0  0
  160.8610  201.2300  149.7160 C   0  0  0  0  0  3  0  0  0  0  0  0
  161.2730  203.6310  148.3350 C   0  0  0  0  0  0  0  0  0  0  0  0
  161.0630  203.6570  149.7330 C   0  0  0  0  0  0  0  0  0  0  0  0
  161.2750  202.4120  147.6500 C   0  0  0  0  0  3  0  0  0  0  0  0
  1  6  1  0  0  0  0
  1  9  1  0  0  0  0
  2  5  1  0  0  0  0
  3  7  1  0  0  0  0
  3  2  2  0  0  0  0
  4  7  1  0  0  0  0
  5 16  2  0  0  0  0
  5 14  1  0  0  0  0
  8 23  1  6  0  0  0
  8 12  1  0  0  0  0
 10 19  2  0  0  0  0
 10 18  1  0  0  0  0
 11  4  1  0  0  0  0
 12 16  1  0  0  0  0
 13  2  1  0  0  0  0
 13  8  1  0  0  0  0
 14  1  2  0  0  0  0
 15 11  1  0  0  0  0
 16 17  1  0  0  0  0
 17  6  2  0  0  0  0
 18 13  2  0  0  0  0
 19  3  1  0  0  0  0
 20 15  1  0  0  0  0
 20 19  1  0  0  0  0
 22 21  2  0  0  0  0
 22 23  1  0  0  0  0
 24 28  1  0  0  0  0
 26 29  1  0  0  0  0
 27 24  1  0  0  0  0
 28 25  2  0  0  0  0
 29 30  2  0  0  0  0
 30 25  1  0  0  0  0
 30 22  1  0  0  0  0
 31 29  1  0  0  0  0
 31 24  2  0  0  0  0
M  END
>  <MODEL>
1

>  <REMARK>
 VINA RESULT:      -9.4      0.000      0.000
  Name = 
  2 active torsions:
  status: ('A' for Active; 'I' for Inactive)
    1  A    between atoms: C_9  and  C_22
    2  A    between atoms: C_15  and  N_23
                            x       y       z     vdW  Elec       q    Type
                         _______ _______ _______ _____ _____    ______ ____

>  <TORSDO>
F 2

$$$$
=
 OpenBabel11052422303D

 31 35  0  0  1  0  0  0  0  0999 V2000
  160.3410  209.6960  155.8440 C   0  0  0  0  0  0  0  0  0  0  0  0
  160.9960  210.1550  152.0970 C   0  0  0  0  0  0  0  0  0  0  0  0
  160.5390  211.4610  151.7350 C   0  0  0  0  0  0  0  0  0  0  0  0
  158.5930  213.0360  152.1270 C   0  0  0  0  0  2  0  0  0  0  0  0
  160.7670  209.5340  153.4480 C   0  0  0  0  0  0  0  0  0  0  0  0
  160.4410  208.3090  155.9660 C   0  0  0  0  0  3  0  0  0  0  0  0
  159.7650  212.2860  152.7380 C   0  0  0  0  0  2  0  0  0  0  0  0
  162.1810  207.9850  151.4840 C   0  0  2  0  0  3  0  0  0  0  0  0
  160.0560  210.5290  157.0410 C   0  0  0  0  0  1  0  0  0  0  0  0
  161.6030  211.2030  149.5550 C   0  0  0  0  0  3  0  0  0  0  0  0
  159.0260  214.4270  151.6690 C   0  0  0  0  0  2  0  0  0  0  0  0
  161.1910  207.2800  152.4080 C   0  0  0  0  0  2  0  0  0  0  0  0
  161.6890  209.3740  151.1350 C   0  0  0  0  0  0  0  0  0  0  0  0
  160.5100  210.3010  154.5970 C   0  0  0  0  0  3  0  0  0  0  0  0
  160.3650  214.4200  150.9320 C   0  0  0  0  0  2  0  0  0  0  0  0
  160.8980  208.1350  153.5950 C   0  0  0  0  0  0  0  0  0  0  0  0
  160.7190  207.5300  154.8430 C   0  0  0  0  0  3  0  0  0  0  0  0
  162.0090  209.9220  149.8910 C   0  0  0  0  0  3  0  0  0  0  0  0
  160.8790  211.9840  150.4500 C   0  0  0  0  0  0  0  0  0  0  0  0
  160.4050  213.3060  149.9000 C   0  0  0  0  0  2  0  0  0  0  0  0
  160.1320  206.6460  150.0280 O   0  0  0  0  0  0  0  0  0  0  0  0
  161.3090  206.5370  149.5900 C   0  0  0  0  0  0  0  0  0  0  0  0
  162.3850  207.1760  150.2860 N   0  0  0  0  0  2  0  0  0  0  0  0
  162.1540  204.3480  145.9950 C   0  0  0  0  0  0  0  0  0  0  0  0
  162.0680  206.4240  147.2290 C   0  0  0  0  0  3  0  0  0  0  0  0
  160.9260  203.6350  149.3910 O   0  0  0  0  0  1  0  0  0  0  0  0
  162.4260  203.6710  144.8530 F   0  0  0  0  0  0  0  0  0  0  0  0
  162.3490  205.7280  146.0520 C   0  0  0  0  0  3  0  0  0  0  0  0
  161.3970  204.3540  148.2990 C   0  0  0  0  0  0  0  0  0  0  0  0
  161.5900  205.7530  148.3660 C   0  0  0  0  0  0  0  0  0  0  0  0
  161.6800  203.6640  147.1150 C   0  0  0  0  0  3  0  0  0  0  0  0
  1  6  1  0  0  0  0
  1  9  1  0  0  0  0
  2  5  1  0  0  0  0
  3  2  1  0  0  0  0
  3  7  1  0  0  0  0
  4  7  1  0  0  0  0
  5 16  2  0  0  0  0
  5 14  1  0  0  0  0
  8 23  1  6  0  0  0
  8 12  1  0  0  0  0
 10 18  2  0  0  0  0
 10 19  1  0  0  0  0
 11  4  1  0  0  0  0
 12 16  1  0  0  0  0
 13  8  1  0  0  0  0
 13  2  2  0  0  0  0
 14  1  2  0  0  0  0
 15 11  1  0  0  0  0
 16 17  1  0  0  0  0
 17  6  2  0  0  0  0
 18 13  1  0  0  0  0
 19  3  2  0  0  0  0
 20 19  1  0  0  0  0
 20 15  1  0  0  0  0
 22 21  2  0  0  0  0
 22 23  1  0  0  0  0
 24 28  2  0  0  0  0
 24 31  1  0  0  0  0
 25 30  2  0  0  0  0
 27 24  1  0  0  0  0
 28 25  1  0  0  0  0
 29 30  1  0  0  0  0
 29 26  1  0  0  0  0
 30 22  1  0  0  0  0
 31 29  2  0  0  0  0
M  END
>  <MODEL>
2

>  <REMARK>
 VINA RESULT:      -8.9      1.829      2.556
  Name = 
  2 active torsions:
  status: ('A' for Active; 'I' for Inactive)
    1  A    between atoms: C_9  and  C_22
    2  A    between atoms: C_15  and  N_23
                            x       y       z     vdW  Elec       q    Type
                         _______ _______ _______ _____ _____    ______ ____

>  <TORSDO>
F 2

$$$$
=
 OpenBabel11052422303D

 31 35  0  0  1  0  0  0  0  0999 V2000
  160.9130  207.7280  155.0010 C   0  0  0  0  0  0  0  0  0  0  0  0
  161.2080  207.1510  151.2250 C   0  0  0  0  0  0  0  0  0  0  0  0
  161.1820  205.7390  151.0000 C   0  0  0  0  0  0  0  0  0  0  0  0
  162.1340  203.5860  151.9380 C   0  0  0  0  0  2  0  0  0  0  0  0
  161.2790  207.7790  152.5900 C   0  0  0  0  0  0  0  0  0  0  0  0
  161.3500  209.0490  155.1060 C   0  0  0  0  0  3  0  0  0  0  0  0
  161.2420  204.7940  152.1780 C   0  0  0  0  0  2  0  0  0  0  0  0
  161.2210  209.5300  150.3120 C   0  0  2  0  0  3  0  0  0  0  0  0
  160.4910  206.9860  156.2170 C   0  0  0  0  0  1  0  0  0  0  0  0
  160.9690  206.1490  148.6040 C   0  0  0  0  0  3  0  0  0  0  0  0
  161.3240  202.4300  151.3520 C   0  0  0  0  0  2  0  0  0  0  0  0
  162.1080  209.8920  151.5010 C   0  0  0  0  0  2  0  0  0  0  0  0
  161.1880  208.0290  150.1090 C   0  0  0  0  0  0  0  0  0  0  0  0
  160.8720  207.1030  153.7530 C   0  0  0  0  0  3  0  0  0  0  0  0
  160.3670  202.8750  150.2470 C   0  0  0  0  0  2  0  0  0  0  0  0
  161.6860  209.1260  152.7100 C   0  0  0  0  0  0  0  0  0  0  0  0
  161.7360  209.7470  153.9610 C   0  0  0  0  0  3  0  0  0  0  0  0
  161.0370  207.5160  148.8190 C   0  0  0  0  0  3  0  0  0  0  0  0
  161.0350  205.2510  149.6660 C   0  0  0  0  0  0  0  0  0  0  0  0
  161.0700  203.7980  149.2650 C   0  0  0  0  0  2  0  0  0  0  0  0
  160.6420  212.2300  149.6150 O   0  0  0  0  0  0  0  0  0  0  0  0
  161.3890  211.5830  148.8300 C   0  0  0  0  0  0  0  0  0  0  0  0
  161.7050  210.2170  149.1200 N   0  0  0  0  0  2  0  0  0  0  0  0
  163.0730  213.4240  145.3370 C   0  0  0  0  0  0  0  0  0  0  0  0
  163.3260  212.4090  147.5160 C   0  0  0  0  0  3  0  0  0  0  0  0
  159.7370  212.4900  146.5810 O   0  0  0  0  0  1  0  0  0  0  0  0
  163.6200  214.0030  144.2410 F   0  0  0  0  0  0  0  0  0  0  0  0
  163.8910  213.0050  146.3860 C   0  0  0  0  0  3  0  0  0  0  0  0
  161.1180  212.6480  146.5420 C   0  0  0  0  0  0  0  0  0  0  0  0
  161.9370  212.2210  147.6120 C   0  0  0  0  0  0  0  0  0  0  0  0
  161.6920  213.2450  145.4150 C   0  0  0  0  0  3  0  0  0  0  0  0
  1  6  1  0  0  0  0
  1  9  1  0  0  0  0
  2  5  1  0  0  0  0
  3  2  1  0  0  0  0
  3  7  1  0  0  0  0
  4  7  1  0  0  0  0
  5 16  2  0  0  0  0
  5 14  1  0  0  0  0
  8 23  1  6  0  0  0
  8 12  1  0  0  0  0
 10 18  2  0  0  0  0
 10 19  1  0  0  0  0
 11  4  1  0  0  0  0
 12 16  1  0  0  0  0
 13  8  1  0  0  0  0
 13  2  2  0  0  0  0
 14  1  2  0  0  0  0
 15 11  1  0  0  0  0
 16 17  1  0  0  0  0
 17  6  2  0  0  0  0
 18 13  1  0  0  0  0
 19  3  2  0  0  0  0
 20 19  1  0  0  0  0
 20 15  1  0  0  0  0
 22 23  1  0  0  0  0
 22 21  2  0  0  0  0
 24 31  2  0  0  0  0
 24 28  1  0  0  0  0
 25 30  1  0  0  0  0
 27 24  1  0  0  0  0
 28 25  2  0  0  0  0
 29 26  1  0  0  0  0
 29 30  2  0  0  0  0
 30 22  1  0  0  0  0
 31 29  1  0  0  0  0
M  END
>  <MODEL>
3

>  <REMARK>
 VINA RESULT:      -8.8      3.722      7.290
  Name = 
  2 active torsions:
  status: ('A' for Active; 'I' for Inactive)
    1  A    between atoms: C_9  and  C_22
    2  A    between atoms: C_15  and  N_23
                            x       y       z     vdW  Elec       q    Type
                         _______ _______ _______ _____ _____    ______ ____

>  <TORSDO>
F 2

$$$$
=
 OpenBabel11052422303D

 31 35  0  0  1  0  0  0  0  0999 V2000
  160.9320  201.3800  149.9030 C   0  0  0  0  0  0  0  0  0  0  0  0
  161.2430  205.1850  149.5740 C   0  0  0  0  0  0  0  0  0  0  0  0
  161.3860  205.4890  148.1840 C   0  0  0  0  0  0  0  0  0  0  0  0
  162.6080  204.6800  146.1160 C   0  0  0  0  0  2  0  0  0  0  0  0
  161.2550  203.7880  150.1300 C   0  0  0  0  0  0  0  0  0  0  0  0
  161.2060  201.2050  151.2600 C   0  0  0  0  0  3  0  0  0  0  0  0
  161.5790  204.3660  147.1900 C   0  0  0  0  0  2  0  0  0  0  0  0
  160.9510  205.9630  151.9820 C   0  0  2  0  0  3  0  0  0  0  0  0
  160.6210  200.2050  149.0500 C   0  0  0  0  0  1  0  0  0  0  0  0
  161.0920  207.8560  148.6940 C   0  0  0  0  0  3  0  0  0  0  0  0
  161.9380  205.3230  144.9030 C   0  0  0  0  0  2  0  0  0  0  0  0
  161.8040  204.7630  152.3860 C   0  0  0  0  0  2  0  0  0  0  0  0
  161.1000  206.2500  150.5020 C   0  0  0  0  0  0  0  0  0  0  0  0
  160.9510  202.6610  149.3470 C   0  0  0  0  0  3  0  0  0  0  0  0
  160.9180  206.3940  145.2870 C   0  0  0  0  0  2  0  0  0  0  0  0
  161.4960  203.5950  151.5090 C   0  0  0  0  0  0  0  0  0  0  0  0
  161.4870  202.3120  152.0620 C   0  0  0  0  0  3  0  0  0  0  0  0
  160.9940  207.5650  150.0460 C   0  0  0  0  0  3  0  0  0  0  0  0
  161.2820  206.8470  147.7550 C   0  0  0  0  0  0  0  0  0  0  0  0
  161.4890  207.3280  146.3410 C   0  0  0  0  0  2  0  0  0  0  0  0
  160.0260  206.5120  154.6190 O   0  0  0  0  0  0  0  0  0  0  0  0
  160.8400  207.3330  154.1160 C   0  0  0  0  0  0  0  0  0  0  0  0
  161.3300  207.1190  152.7880 N   0  0  0  0  0  2  0  0  0  0  0  0
  162.1760  210.7050  156.4130 C   0  0  0  0  0  0  0  0  0  0  0  0
  161.8900  208.3210  156.1370 C   0  0  0  0  0  3  0  0  0  0  0  0
  160.5500  210.0950  153.1680 O   0  0  0  0  0  1  0  0  0  0  0  0
  162.6030  211.7590  157.1500 F   0  0  0  0  0  0  0  0  0  0  0  0
  162.3310  209.4060  156.8970 C   0  0  0  0  0  3  0  0  0  0  0  0
  161.1380  209.8380  154.4010 C   0  0  0  0  0  0  0  0  0  0  0  0
  161.2890  208.5170  154.8830 C   0  0  0  0  0  0  0  0  0  0  0  0
  161.5820  210.9190  155.1690 C   0  0  0  0  0  3  0  0  0  0  0  0
  1  6  1  0  0  0  0
  2  5  1  0  0  0  0
  2 13  1  0  0  0  0
  3  2  2  0  0  0  0
  4  7  1  0  0  0  0
  5 16  2  0  0  0  0
  6 17  2  0  0  0  0
  7  3  1  0  0  0  0
  8 12  1  0  0  0  0
  8 23  1  1  0  0  0
  9  1  1  0  0  0  0
 10 18  1  0  0  0  0
 11 15  1  0  0  0  0
 11  4  1  0  0  0  0
 13  8  1  0  0  0  0
 14  1  2  0  0  0  0
 14  5  1  0  0  0  0
 15 20  1  0  0  0  0
 16 17  1  0  0  0  0
 16 12  1  0  0  0  0
 18 13  2  0  0  0  0
 19  3  1  0  0  0  0
 19 10  2  0  0  0  0
 20 19  1  0  0  0  0
 22 21  2  0  0  0  0
 22 30  1  0  0  0  0
 23 22  1  0  0  0  0
 24 28  1  0  0  0  0
 24 27  1  0  0  0  0
 25 28  2  0  0  0  0
 26 29  1  0  0  0  0
 29 30  2  0  0  0  0
 29 31  1  0  0  0  0
 30 25  1  0  0  0  0
 31 24  2  0  0  0  0
M  END
>  <MODEL>
4

>  <REMARK>
 VINA RESULT:      -8.5      3.802      7.735
  Name = 
  2 active torsions:
  status: ('A' for Active; 'I' for Inactive)
    1  A    between atoms: C_9  and  C_22
    2  A    between atoms: C_15  and  N_23
                            x       y       z     vdW  Elec       q    Type
                         _______ _______ _______ _____ _____    ______ ____

>  <TORSDO>
F 2

$$$$
=
 OpenBabel11052422303D

 31 35  0  0  1  0  0  0  0  0999 V2000
  161.8170  205.5810  146.1910 C   0  0  0  0  0  0  0  0  0  0  0  0
  161.2610  205.1970  149.9630 C   0  0  0  0  0  0  0  0  0  0  0  0
  161.0280  203.8110  150.2270 C   0  0  0  0  0  0  0  0  0  0  0  0
  159.7520  201.8260  149.3020 C   0  0  0  0  0  2  0  0  0  0  0  0
  161.3620  205.7790  148.5800 C   0  0  0  0  0  0  0  0  0  0  0  0
  161.6250  206.9530  146.0310 C   0  0  0  0  0  3  0  0  0  0  0  0
  160.8520  202.8500  149.0730 C   0  0  0  0  0  2  0  0  0  0  0  0
  161.6300  207.5710  150.8100 C   0  0  2  0  0  3  0  0  0  0  0  0
  162.1530  204.7340  145.0180 C   0  0  0  0  0  1  0  0  0  0  0  0
  161.2060  204.2600  152.6180 C   0  0  0  0  0  3  0  0  0  0  0  0
  160.3180  200.5680  149.9570 C   0  0  0  0  0  2  0  0  0  0  0  0
  160.8730  208.0420  149.5700 C   0  0  0  0  0  2  0  0  0  0  0  0
  161.3880  206.0960  151.0540 C   0  0  0  0  0  0  0  0  0  0  0  0
  161.6930  205.0020  147.4560 C   0  0  0  0  0  3  0  0  0  0  0  0
  161.2910  200.8760  151.0950 C   0  0  0  0  0  2  0  0  0  0  0  0
  161.2040  207.1720  148.4040 C   0  0  0  0  0  0  0  0  0  0  0  0
  161.3190  207.7470  147.1360 C   0  0  0  0  0  3  0  0  0  0  0  0
  161.3900  205.6100  152.3630 C   0  0  0  0  0  3  0  0  0  0  0  0
  161.0280  203.3510  151.5790 C   0  0  0  0  0  0  0  0  0  0  0  0
  160.7200  201.9410  152.0160 C   0  0  0  0  0  2  0  0  0  0  0  0
  162.7060  210.1130  151.5100 O   0  0  0  0  0  0  0  0  0  0  0  0
  161.7950  209.6540  152.2510 C   0  0  0  0  0  0  0  0  0  0  0  0
  161.2240  208.3740  151.9590 N   0  0  0  0  0  2  0  0  0  0  0  0
  160.4600  211.8240  155.7060 C   0  0  0  0  0  0  0  0  0  0  0  0
  161.7910  210.0770  154.6970 C   0  0  0  0  0  3  0  0  0  0  0  0
  159.8890  211.8770  152.0700 O   0  0  0  0  0  1  0  0  0  0  0  0
  160.0480  212.4980  156.8060 F   0  0  0  0  0  0  0  0  0  0  0  0
  161.3680  210.7720  155.8320 C   0  0  0  0  0  3  0  0  0  0  0  0
  160.3960  211.4900  153.3050 C   0  0  0  0  0  0  0  0  0  0  0  0
  161.3150  210.4220  153.4220 C   0  0  0  0  0  0  0  0  0  0  0  0
  159.9760  212.1810  154.4470 C   0  0  0  0  0  3  0  0  0  0  0  0
  1 14  1  0  0  0  0
  2  3  2  0  0  0  0
  2 13  1  0  0  0  0
  3 19  1  0  0  0  0
  4 11  1  0  0  0  0
  5  2  1  0  0  0  0
  6  1  2  0  0  0  0
  6 17  1  0  0  0  0
  7  4  1  0  0  0  0
  7  3  1  0  0  0  0
  8 13  1  0  0  0  0
  8 23  1  1  0  0  0
  9  1  1  0  0  0  0
 11 15  1  0  0  0  0
 12  8  1  0  0  0  0
 13 18  2  0  0  0  0
 14  5  2  0  0  0  0
 15 20  1  0  0  0  0
 16  5  1  0  0  0  0
 16 12  1  0  0  0  0
 17 16  2  0  0  0  0
 18 10  1  0  0  0  0
 19 20  1  0  0  0  0
 19 10  2  0  0  0  0
 21 22  2  0  0  0  0
 22 30  1  0  0  0  0
 23 22  1  0  0  0  0
 24 28  1  0  0  0  0
 24 27  1  0  0  0  0
 25 28  2  0  0  0  0
 26 29  1  0  0  0  0
 29 30  2  0  0  0  0
 29 31  1  0  0  0  0
 30 25  1  0  0  0  0
 31 24  2  0  0  0  0
M  END
>  <MODEL>
5

>  <REMARK>
 VINA RESULT:      -7.9      3.718      8.744
  Name = 
  2 active torsions:
  status: ('A' for Active; 'I' for Inactive)
    1  A    between atoms: C_9  and  C_22
    2  A    between atoms: C_15  and  N_23
                            x       y       z     vdW  Elec       q    Type
                         _______ _______ _______ _____ _____    ______ ____

>  <TORSDO>
F 2

$$$$
=
 OpenBabel11052422303D

 31 35  0  0  1  0  0  0  0  0999 V2000
  161.5790  212.1990  149.8520 C   0  0  0  0  0  0  0  0  0  0  0  0
  161.3290  208.9150  151.8080 C   0  0  0  0  0  0  0  0  0  0  0  0
  161.4200  209.2320  153.2000 C   0  0  0  0  0  0  0  0  0  0  0  0
  162.7380  210.6960  154.7950 C   0  0  0  0  0  2  0  0  0  0  0  0
  161.5480  209.9150  150.7060 C   0  0  0  0  0  0  0  0  0  0  0  0
  161.8810  211.7270  148.5740 C   0  0  0  0  0  3  0  0  0  0  0  0
  161.7710  210.6400  153.6230 C   0  0  0  0  0  2  0  0  0  0  0  0
  160.9370  207.2090  149.9570 C   0  0  2  0  0  3  0  0  0  0  0  0
  161.4400  213.6590  150.0920 C   0  0  0  0  0  1  0  0  0  0  0  0
  160.7850  206.9400  153.7410 C   0  0  0  0  0  3  0  0  0  0  0  0
  161.9760  210.7390  156.1180 C   0  0  0  0  0  2  0  0  0  0  0  0
  161.9580  207.9910  149.1340 C   0  0  0  0  0  2  0  0  0  0  0  0
  161.0360  207.5800  151.4220 C   0  0  0  0  0  0  0  0  0  0  0  0
  161.4080  211.2990  150.9050 C   0  0  0  0  0  3  0  0  0  0  0  0
  160.8120  209.7500  156.1650 C   0  0  0  0  0  2  0  0  0  0  0  0
  161.8210  209.4530  149.4000 C   0  0  0  0  0  0  0  0  0  0  0  0
  162.0020  210.3560  148.3480 C   0  0  0  0  0  3  0  0  0  0  0  0
  160.7370  206.6210  152.3930 C   0  0  0  0  0  3  0  0  0  0  0  0
  161.1170  208.2230  154.1640 C   0  0  0  0  0  0  0  0  0  0  0  0
  161.2450  208.3850  155.6580 C   0  0  0  0  0  2  0  0  0  0  0  0
  160.0870  205.7200  147.6830 O   0  0  0  0  0  0  0  0  0  0  0  0
  160.7060  205.0890  148.5810 C   0  0  0  0  0  0  0  0  0  0  0  0
  161.1470  205.7790  149.7550 N   0  0  0  0  0  2  0  0  0  0  0  0
  161.5090  200.9030  148.0610 C   0  0  0  0  0  0  0  0  0  0  0  0
  161.3130  203.1400  147.1670 C   0  0  0  0  0  3  0  0  0  0  0  0
  160.5820  203.1770  150.8040 O   0  0  0  0  0  1  0  0  0  0  0  0
  161.7660  199.5860  147.8810 F   0  0  0  0  0  0  0  0  0  0  0  0
  161.5780  201.7820  146.9800 C   0  0  0  0  0  3  0  0  0  0  0  0
  160.9110  202.7410  149.5250 C   0  0  0  0  0  0  0  0  0  0  0  0
  160.9770  203.6400  148.4360 C   0  0  0  0  0  0  0  0  0  0  0  0
  161.1770  201.3820  149.3290 C   0  0  0  0  0  3  0  0  0  0  0  0
  1  9  1  0  0  0  0
  1 14  1  0  0  0  0
  2  3  1  0  0  0  0
  3  7  1  0  0  0  0
  3 19  2  0  0  0  0
  4 11  1  0  0  0  0
  5 14  2  0  0  0  0
  5  2  1  0  0  0  0
  6  1  2  0  0  0  0
  7  4  1  0  0  0  0
  8 23  1  1  0  0  0
  8 13  1  0  0  0  0
 10 19  1  0  0  0  0
 11 15  1  0  0  0  0
 12 16  1  0  0  0  0
 12  8  1  0  0  0  0
 13  2  2  0  0  0  0
 13 18  1  0  0  0  0
 16  5  1  0  0  0  0
 17  6  1  0  0  0  0
 17 16  2  0  0  0  0
 18 10  2  0  0  0  0
 19 20  1  0  0  0  0
 20 15  1  0  0  0  0
 21 22  2  0  0  0  0
 22 23  1  0  0  0  0
 24 31  1  0  0  0  0
 25 30  2  0  0  0  0
 27 24  1  0  0  0  0
 28 25  1  0  0  0  0
 28 24  2  0  0  0  0
 29 26  1  0  0  0  0
 30 22  1  0  0  0  0
 30 29  1  0  0  0  0
 31 29  2  0  0  0  0
M  END
>  <MODEL>
6

>  <REMARK>
 VINA RESULT:      -7.7      1.093      4.376
  Name = 
  2 active torsions:
  status: ('A' for Active; 'I' for Inactive)
    1  A    between atoms: C_9  and  C_22
    2  A    between atoms: C_15  and  N_23
                            x       y       z     vdW  Elec       q    Type
                         _______ _______ _______ _____ _____    ______ ____

>  <TORSDO>
F 2

$$$$
=
 OpenBabel11052422303D

 31 35  0  0  1  0  0  0  0  0999 V2000
  161.3830  212.3070  150.1800 C   0  0  0  0  0  0  0  0  0  0  0  0
  161.2730  208.9630  152.0490 C   0  0  0  0  0  0  0  0  0  0  0  0
  161.3860  209.2450  153.4460 C   0  0  0  0  0  0  0  0  0  0  0  0
  162.6960  210.7030  155.0530 C   0  0  0  0  0  2  0  0  0  0  0  0
  161.4380  210.0000  150.9710 C   0  0  0  0  0  0  0  0  0  0  0  0
  161.6700  211.8800  148.8830 C   0  0  0  0  0  3  0  0  0  0  0  0
  161.7050  210.6510  153.9020 C   0  0  0  0  0  2  0  0  0  0  0  0
  160.8900  207.2980  150.1590 C   0  0  2  0  0  3  0  0  0  0  0  0
  161.2060  213.7540  150.4650 C   0  0  0  0  0  1  0  0  0  0  0  0
  160.8310  206.9200  153.9360 C   0  0  0  0  0  3  0  0  0  0  0  0
  161.9640  210.6870  156.3930 C   0  0  0  0  0  2  0  0  0  0  0  0
  161.8680  208.1330  149.3370 C   0  0  0  0  0  2  0  0  0  0  0  0
  161.0100  207.6320  151.6320 C   0  0  0  0  0  0  0  0  0  0  0  0
  161.2620  211.3730  151.2120 C   0  0  0  0  0  3  0  0  0  0  0  0
  160.8300  209.6620  156.4380 C   0  0  0  0  0  2  0  0  0  0  0  0
  161.6940  209.5830  149.6460 C   0  0  0  0  0  0  0  0  0  0  0  0
  161.8250  210.5190  148.6170 C   0  0  0  0  0  3  0  0  0  0  0  0
  160.7620  206.6380  152.5810 C   0  0  0  0  0  3  0  0  0  0  0  0
  161.1340  208.2010  154.3880 C   0  0  0  0  0  0  0  0  0  0  0  0
  161.2910  208.3250  155.8820 C   0  0  0  0  0  2  0  0  0  0  0  0
  160.0810  205.8610  147.8370 O   0  0  0  0  0  0  0  0  0  0  0  0
  160.7150  205.2180  148.7160 C   0  0  0  0  0  0  0  0  0  0  0  0
  161.1370  205.8820  149.9120 N   0  0  0  0  0  2  0  0  0  0  0  0
  161.5820  201.0370  148.2610 C   0  0  0  0  0  0  0  0  0  0  0  0
  160.8310  202.9020  149.6040 C   0  0  0  0  0  3  0  0  0  0  0  0
  161.7150  204.0840  146.2010 O   0  0  0  0  0  1  0  0  0  0  0  0
  161.8500  199.7160  148.1340 F   0  0  0  0  0  0  0  0  0  0  0  0
  161.1070  201.5390  149.4730 C   0  0  0  0  0  3  0  0  0  0  0  0
  161.5040  203.2630  147.3020 C   0  0  0  0  0  0  0  0  0  0  0  0
  161.0240  203.7820  148.5260 C   0  0  0  0  0  0  0  0  0  0  0  0
  161.7780  201.8970  147.1800 C   0  0  0  0  0  3  0  0  0  0  0  0
  1  9  1  0  0  0  0
  1 14  1  0  0  0  0
  2  3  1  0  0  0  0
  3  7  1  0  0  0  0
  3 19  2  0  0  0  0
  4 11  1  0  0  0  0
  5 14  2  0  0  0  0
  5  2  1  0  0  0  0
  6  1  2  0  0  0  0
  7  4  1  0  0  0  0
  8 23  1  1  0  0  0
  8 13  1  0  0  0  0
 10 19  1  0  0  0  0
 11 15  1  0  0  0  0
 12 16  1  0  0  0  0
 12  8  1  0  0  0  0
 13  2  2  0  0  0  0
 13 18  1  0  0  0  0
 16  5  1  0  0  0  0
 17  6  1  0  0  0  0
 17 16  2  0  0  0  0
 18 10  2  0  0  0  0
 19 20  1  0  0  0  0
 20 15  1  0  0  0  0
 21 22  2  0  0  0  0
 22 23  1  0  0  0  0
 24 28  1  0  0  0  0
 26 29  1  0  0  0  0
 27 24  1  0  0  0  0
 28 25  2  0  0  0  0
 29 30  2  0  0  0  0
 30 22  1  0  0  0  0
 30 25  1  0  0  0  0
 31 29  1  0  0  0  0
 31 24  2  0  0  0  0
M  END
>  <MODEL>
7

>  <REMARK>
 VINA RESULT:      -7.7      1.086      4.248
  Name = 
  2 active torsions:
  status: ('A' for Active; 'I' for Inactive)
    1  A    between atoms: C_9  and  C_22
    2  A    between atoms: C_15  and  N_23
                            x       y       z     vdW  Elec       q    Type
                         _______ _______ _______ _____ _____    ______ ____

>  <TORSDO>
F 2

$$$$
=
 OpenBabel11052422303D

 31 35  0  0  1  0  0  0  0  0999 V2000
  160.4010  207.9880  155.4820 C   0  0  0  0  0  0  0  0  0  0  0  0
  159.2720  211.2120  153.7470 C   0  0  0  0  0  0  0  0  0  0  0  0
  158.2150  211.7760  154.5280 C   0  0  0  0  0  0  0  0  0  0  0  0
  156.1200  211.0900  155.7790 C   0  0  0  0  0  2  0  0  0  0  0  0
  159.8730  209.8580  154.0070 C   0  0  0  0  0  0  0  0  0  0  0  0
  161.1040  207.3610  154.4520 C   0  0  0  0  0  3  0  0  0  0  0  0
  157.6340  210.9870  155.6790 C   0  0  0  0  0  2  0  0  0  0  0  0
  160.9000  211.3760  151.7950 C   0  0  2  0  0  3  0  0  0  0  0  0
  160.2940  207.3370  156.8130 C   0  0  0  0  0  1  0  0  0  0  0  0
  158.3360  213.8070  153.1820 C   0  0  0  0  0  3  0  0  0  0  0  0
  155.7210  212.2550  156.6830 C   0  0  0  0  0  2  0  0  0  0  0  0
  160.7430  209.8650  151.6450 C   0  0  0  0  0  2  0  0  0  0  0  0
  159.7840  211.9470  152.6460 C   0  0  0  0  0  0  0  0  0  0  0  0
  159.7980  209.2280  155.2610 C   0  0  0  0  0  3  0  0  0  0  0  0
  156.5330  213.5210  156.4140 C   0  0  0  0  0  2  0  0  0  0  0  0
  160.6170  209.2250  152.9870 C   0  0  0  0  0  0  0  0  0  0  0  0
  161.2110  207.9800  153.2070 C   0  0  0  0  0  3  0  0  0  0  0  0
  159.3310  213.2450  152.3990 C   0  0  0  0  0  3  0  0  0  0  0  0
  157.7710  213.1030  154.2410 C   0  0  0  0  0  0  0  0  0  0  0  0
  156.6190  213.7980  154.9220 C   0  0  0  0  0  2  0  0  0  0  0  0
  162.3290  210.3820  149.5400 O   0  0  0  0  0  0  0  0  0  0  0  0
  161.6580  211.4360  149.3730 C   0  0  0  0  0  0  0  0  0  0  0  0
  160.9290  211.9930  150.4720 N   0  0  0  0  0  2  0  0  0  0  0  0
  161.4480  213.3610  145.5410 C   0  0  0  0  0  0  0  0  0  0  0  0
  160.3910  212.2030  147.3800 C   0  0  0  0  0  3  0  0  0  0  0  0
  164.0170  212.5860  148.0600 O   0  0  0  0  0  1  0  0  0  0  0  0
  161.3650  213.9660  144.3320 F   0  0  0  0  0  0  0  0  0  0  0  0
  160.3040  212.8260  146.1340 C   0  0  0  0  0  3  0  0  0  0  0  0
  162.7730  212.6530  147.4440 C   0  0  0  0  0  0  0  0  0  0  0  0
  161.6200  212.1060  148.0530 C   0  0  0  0  0  0  0  0  0  0  0  0
  162.6770  213.2750  146.1950 C   0  0  0  0  0  3  0  0  0  0  0  0
  1  9  1  0  0  0  0
  2  5  1  0  0  0  0
  2  3  1  0  0  0  0
  3  7  1  0  0  0  0
  4 11  1  0  0  0  0
  5 14  2  0  0  0  0
  6  1  2  0  0  0  0
  7  4  1  0  0  0  0
  8 23  1  6  0  0  0
  8 13  1  0  0  0  0
 10 19  1  0  0  0  0
 12  8  1  0  0  0  0
 12 16  1  0  0  0  0
 13  2  2  0  0  0  0
 14  1  1  0  0  0  0
 15 11  1  0  0  0  0
 16 17  2  0  0  0  0
 16  5  1  0  0  0  0
 17  6  1  0  0  0  0
 18 13  1  0  0  0  0
 18 10  2  0  0  0  0
 19  3  2  0  0  0  0
 19 20  1  0  0  0  0
 20 15  1  0  0  0  0
 22 21  2  0  0  0  0
 22 23  1  0  0  0  0
 24 28  2  0  0  0  0
 24 31  1  0  0  0  0
 25 30  2  0  0  0  0
 27 24  1  0  0  0  0
 28 25  1  0  0  0  0
 29 30  1  0  0  0  0
 29 26  1  0  0  0  0
 30 22  1  0  0  0  0
 31 29  2  0  0  0  0
M  END
>  <MODEL>
8

>  <REMARK>
 VINA RESULT:      -6.5      4.735      7.418
  Name = 
  2 active torsions:
  status: ('A' for Active; 'I' for Inactive)
    1  A    between atoms: C_9  and  C_22
    2  A    between atoms: C_15  and  N_23
                            x       y       z     vdW  Elec       q    Type
                         _______ _______ _______ _____ _____    ______ ____

>  <TORSDO>
F 2

$$$$
