=
 OpenBabel11052422013D

 30 32  0  0  1  0  0  0  0  0999 V2000
  162.3040  207.9470  150.7800 C   0  0  0  0  0  0  0  0  0  0  0  0
  161.9930  205.7870  147.8400 O   0  0  0  0  0  0  0  0  0  0  0  0
  160.9340  205.0960  148.4510 C   0  0  2  0  0  3  0  0  0  0  0  0
  162.6530  208.0160  149.3280 C   0  0  1  0  0  3  0  0  0  0  0  0
  162.4340  208.9340  151.4900 O   0  0  0  0  0  0  0  0  0  0  0  0
  161.4960  207.0320  147.4100 C   0  0  0  0  0  2  0  0  0  0  0  0
  161.3210  207.9770  148.5930 C   0  0  2  0  0  3  0  0  0  0  0  0
  161.8570  206.6130  151.3460 C   0  0  2  0  0  3  0  0  0  0  0  0
  161.1970  204.9660  149.9670 C   0  0  1  0  0  3  0  0  0  0  0  0
  160.8110  203.8550  147.8510 F   0  0  0  0  0  0  0  0  0  0  0  0
  162.1620  209.2320  148.5640 C   0  0  0  0  0  2  0  0  0  0  0  0
  160.7560  206.1210  150.6290 O   0  0  0  0  0  0  0  0  0  0  0  0
  161.5180  206.6790  152.8020 C   0  0  0  0  0  0  0  0  0  0  0  0
  162.1170  205.9200  153.6110 O   0  0  0  0  0  0  0  0  0  0  0  0
  160.5250  207.5570  153.2450 O   0  0  0  0  0  0  0  0  0  0  0  0
  160.7520  208.5080  154.2820 C   0  0  2  0  0  3  0  0  0  0  0  0
  159.7130  208.3330  155.3920 C   0  0  1  0  0  3  0  0  0  0  0  0
  161.8120  208.0400  156.8660 C   0  0  0  0  0  1  0  0  0  0  0  0
  159.7940  206.9280  155.9570 C   0  0  0  0  0  2  0  0  0  0  0  0
  160.2910  208.0900  156.7930 C   0  0  2  0  0  3  0  0  0  0  0  0
  160.7560  209.9410  153.7440 C   0  0  0  0  0  2  0  0  0  0  0  0
  162.6520  210.8120  155.1130 O   0  0  0  0  0  0  0  0  0  0  0  0
  160.6120  211.8550  155.1690 O   0  0  0  0  0  1  0  0  0  0  0  0
  161.3260  210.9240  154.7150 C   0  0  0  0  0  0  0  0  0  0  0  0
  160.4800  203.7640  150.5680 C   0  0  0  0  0  2  0  0  0  0  0  0
  161.3970  202.5480  150.5560 C   0  0  0  0  0  2  0  0  0  0  0  0
  160.7440  201.3380  149.8950 C   0  0  0  0  0  0  0  0  0  0  0  0
  160.7180  200.2590  150.7790 O   0  0  0  0  0  1  0  0  0  0  0  0
  159.3290  201.6690  149.4540 C   0  0  0  0  0  1  0  0  0  0  0  0
  161.5540  200.9550  148.6740 C   0  0  0  0  0  1  0  0  0  0  0  0
  1  8  1  0  0  0  0
  1  5  2  0  0  0  0
  2  3  1  0  0  0  0
  3 10  1  6  0  0  0
  3  9  1  0  0  0  0
  4 11  1  1  0  0  0
  4  1  1  0  0  0  0
  6  2  1  0  0  0  0
  7  6  1  6  0  0  0
  7  4  1  0  0  0  0
  8 13  1  1  0  0  0
  9 25  1  1  0  0  0
  9 12  1  0  0  0  0
 11  7  1  0  0  0  0
 12  8  1  0  0  0  0
 13 15  1  0  0  0  0
 13 14  2  0  0  0  0
 15 16  1  0  0  0  0
 16 21  1  6  0  0  0
 17 16  1  6  0  0  0
 17 19  1  0  0  0  0
 17 20  1  0  0  0  0
 19 20  1  0  0  0  0
 20 18  1  6  0  0  0
 21 24  1  0  0  0  0
 24 22  2  0  0  0  0
 24 23  1  0  0  0  0
 26 25  1  0  0  0  0
 27 26  1  0  0  0  0
 27 28  1  0  0  0  0
 29 27  1  0  0  0  0
 30 27  1  0  0  0  0
M  END
>  <MODEL>
1

>  <REMARK>
 VINA RESULT:      -6.6      0.000      0.000
  Name = 
  9 active torsions:
  status: ('A' for Active; 'I' for Inactive)
    1  A    between atoms: C_1  and  O_4
    2  A    between atoms: C_1  and  C_22
    3  A    between atoms: O_4  and  C_12
    4  A    between atoms: C_7  and  C_10
    5  A    between atoms: C_7  and  C_25
    6  A    between atoms: C_8  and  C_12
    7  A    between atoms: C_9  and  C_12
    8  A    between atoms: C_9  and  C_21
    9  A    between atoms: C_23  and  C_25
                            x       y       z     vdW  Elec       q    Type
                         _______ _______ _______ _____ _____    ______ ____

>  <TORSDO>
F 9

$$$$
=
 OpenBabel11052422013D

 30 32  0  0  1  0  0  0  0  0999 V2000
  161.9080  208.3780  150.0400 C   0  0  0  0  0  0  0  0  0  0  0  0
  161.7600  204.8140  150.8670 O   0  0  0  0  0  0  0  0  0  0  0  0
  161.0170  205.1060  152.0230 C   0  0  2  0  0  3  0  0  0  0  0  0
  162.0160  207.0780  149.3100 C   0  0  1  0  0  3  0  0  0  0  0  0
  161.8730  209.4310  149.4180 O   0  0  0  0  0  0  0  0  0  0  0  0
  160.8980  204.9490  149.7620 C   0  0  0  0  0  2  0  0  0  0  0  0
  160.6510  206.4220  149.4530 C   0  0  2  0  0  3  0  0  0  0  0  0
  161.9110  208.3490  151.5560 C   0  0  2  0  0  3  0  0  0  0  0  0
  161.5170  206.4250  152.6490 C   0  0  1  0  0  3  0  0  0  0  0  0
  161.1400  204.0470  152.9060 F   0  0  0  0  0  0  0  0  0  0  0  0
  161.1200  206.8980  148.0980 C   0  0  0  0  0  2  0  0  0  0  0  0
  160.8870  207.5150  152.0330 O   0  0  0  0  0  0  0  0  0  0  0  0
  161.7760  209.7080  152.1680 C   0  0  0  0  0  0  0  0  0  0  0  0
  162.8100  210.3150  152.5570 O   0  0  0  0  0  0  0  0  0  0  0  0
  160.5090  210.2760  152.3250 O   0  0  0  0  0  0  0  0  0  0  0  0
  160.2710  211.6710  152.1580 C   0  0  2  0  0  3  0  0  0  0  0  0
  158.8310  212.0090  152.5530 C   0  0  1  0  0  3  0  0  0  0  0  0
  159.9130  212.4720  154.8510 C   0  0  0  0  0  1  0  0  0  0  0  0
  158.3390  211.0270  153.5980 C   0  0  0  0  0  2  0  0  0  0  0  0
  158.6420  212.4530  154.0100 C   0  0  2  0  0  3  0  0  0  0  0  0
  160.5780  212.1300  150.7300 C   0  0  0  0  0  2  0  0  0  0  0  0
  159.0040  213.4250  149.2920 O   0  0  0  0  0  0  0  0  0  0  0  0
  160.0890  214.4500  151.0320 O   0  0  0  0  0  1  0  0  0  0  0  0
  159.8830  213.4020  150.3660 C   0  0  0  0  0  0  0  0  0  0  0  0
  161.2330  206.4890  154.1450 C   0  0  0  0  0  2  0  0  0  0  0  0
  160.1630  207.5340  154.4300 C   0  0  0  0  0  2  0  0  0  0  0  0
  160.3240  208.1650  155.8090 C   0  0  0  0  0  0  0  0  0  0  0  0
  159.3000  209.0840  156.0430 O   0  0  0  0  0  1  0  0  0  0  0  0
  160.3080  207.0990  156.8900 C   0  0  0  0  0  1  0  0  0  0  0  0
  161.6540  208.8880  155.8610 C   0  0  0  0  0  1  0  0  0  0  0  0
  1  8  1  0  0  0  0
  2  3  1  0  0  0  0
  3  9  1  0  0  0  0
  3 10  1  1  0  0  0
  4 11  1  6  0  0  0
  4  7  1  0  0  0  0
  4  1  1  0  0  0  0
  5  1  2  0  0  0  0
  6  2  1  0  0  0  0
  7 11  1  6  0  0  0
  7  6  1  0  0  0  0
  8 12  1  0  0  0  0
  8 13  1  1  0  0  0
  9 25  1  1  0  0  0
 12  9  1  0  0  0  0
 13 15  1  0  0  0  0
 13 14  2  0  0  0  0
 16 21  1  6  0  0  0
 16 15  1  0  0  0  0
 17 16  1  1  0  0  0
 17 19  1  0  0  0  0
 17 20  1  0  0  0  0
 19 20  1  0  0  0  0
 20 18  1  1  0  0  0
 22 24  2  0  0  0  0
 24 21  1  0  0  0  0
 24 23  1  0  0  0  0
 25 26  1  0  0  0  0
 26 27  1  0  0  0  0
 27 30  1  0  0  0  0
 27 28  1  0  0  0  0
 27 29  1  0  0  0  0
M  END
>  <MODEL>
2

>  <REMARK>
 VINA RESULT:      -6.6      2.647      5.231
  Name = 
  9 active torsions:
  status: ('A' for Active; 'I' for Inactive)
    1  A    between atoms: C_1  and  O_4
    2  A    between atoms: C_1  and  C_22
    3  A    between atoms: O_4  and  C_12
    4  A    between atoms: C_7  and  C_10
    5  A    between atoms: C_7  and  C_25
    6  A    between atoms: C_8  and  C_12
    7  A    between atoms: C_9  and  C_12
    8  A    between atoms: C_9  and  C_21
    9  A    between atoms: C_23  and  C_25
                            x       y       z     vdW  Elec       q    Type
                         _______ _______ _______ _____ _____    ______ ____

>  <TORSDO>
F 9

$$$$
=
 OpenBabel11052422013D

 30 32  0  0  1  0  0  0  0  0999 V2000
  161.6200  205.6610  150.7360 C   0  0  0  0  0  0  0  0  0  0  0  0
  162.4410  208.9190  152.1930 O   0  0  0  0  0  0  0  0  0  0  0  0
  161.6910  209.5620  151.1940 C   0  0  2  0  0  3  0  0  0  0  0  0
  162.0370  206.1920  152.0710 C   0  0  1  0  0  3  0  0  0  0  0  0
  161.2880  204.4900  150.6170 O   0  0  0  0  0  0  0  0  0  0  0  0
  161.5330  208.3500  153.1060 C   0  0  0  0  0  2  0  0  0  0  0  0
  160.8980  207.0950  152.5180 C   0  0  2  0  0  3  0  0  0  0  0  0
  161.6880  206.5940  149.5420 C   0  0  2  0  0  3  0  0  0  0  0  0
  161.8530  208.8140  149.8530 C   0  0  1  0  0  3  0  0  0  0  0  0
  162.1200  210.8750  151.0970 F   0  0  0  0  0  0  0  0  0  0  0  0
  161.1740  205.8070  153.2590 C   0  0  0  0  0  2  0  0  0  0  0  0
  160.9360  207.7550  149.7850 O   0  0  0  0  0  0  0  0  0  0  0  0
  161.2260  205.9540  148.2720 C   0  0  0  0  0  0  0  0  0  0  0  0
  160.0730  206.2140  147.8330 O   0  0  0  0  0  0  0  0  0  0  0  0
  162.0620  205.0580  147.6010 O   0  0  0  0  0  0  0  0  0  0  0  0
  161.5620  204.0690  146.7050 C   0  0  2  0  0  3  0  0  0  0  0  0
  161.8880  202.6700  147.2330 C   0  0  1  0  0  3  0  0  0  0  0  0
  159.9710  201.9800  145.6470 C   0  0  0  0  0  1  0  0  0  0  0  0
  160.7050  202.1230  148.0080 C   0  0  0  0  0  2  0  0  0  0  0  0
  161.0310  201.5380  146.6490 C   0  0  2  0  0  3  0  0  0  0  0  0
  162.1010  204.2680  145.2860 C   0  0  0  0  0  2  0  0  0  0  0  0
  161.7160  205.6360  143.2350 O   0  0  0  0  0  0  0  0  0  0  0  0
  160.1340  205.5670  144.8920 O   0  0  0  0  0  1  0  0  0  0  0  0
  161.2590  205.1930  144.4690 C   0  0  0  0  0  0  0  0  0  0  0  0
  161.6190  209.7310  148.6590 C   0  0  0  0  0  2  0  0  0  0  0  0
  162.3830  211.0350  148.8420 C   0  0  0  0  0  2  0  0  0  0  0  0
  161.7510  212.1890  148.0720 C   0  0  0  0  0  0  0  0  0  0  0  0
  160.7740  211.7090  147.1980 O   0  0  0  0  0  1  0  0  0  0  0  0
  161.1300  213.1930  149.0270 C   0  0  0  0  0  1  0  0  0  0  0  0
  162.8290  212.8870  147.2680 C   0  0  0  0  0  1  0  0  0  0  0  0
  1  4  1  0  0  0  0
  2  6  1  0  0  0  0
  3 10  1  6  0  0  0
  3  2  1  0  0  0  0
  4  7  1  0  0  0  0
  4 11  1  1  0  0  0
  5  1  2  0  0  0  0
  7  6  1  1  0  0  0
  7 11  1  0  0  0  0
  8 13  1  6  0  0  0
  8 12  1  0  0  0  0
  8  1  1  0  0  0  0
  9 25  1  6  0  0  0
  9  3  1  0  0  0  0
 12  9  1  0  0  0  0
 14 13  2  0  0  0  0
 15 13  1  0  0  0  0
 16 21  1  6  0  0  0
 16 15  1  0  0  0  0
 17 16  1  6  0  0  0
 17 19  1  0  0  0  0
 20 18  1  6  0  0  0
 20 17  1  0  0  0  0
 20 19  1  0  0  0  0
 22 24  2  0  0  0  0
 24 23  1  0  0  0  0
 24 21  1  0  0  0  0
 25 26  1  0  0  0  0
 27 26  1  0  0  0  0
 27 29  1  0  0  0  0
 28 27  1  0  0  0  0
 30 27  1  0  0  0  0
M  END
>  <MODEL>
3

>  <REMARK>
 VINA RESULT:      -6.4      2.879      8.498
  Name = 
  9 active torsions:
  status: ('A' for Active; 'I' for Inactive)
    1  A    between atoms: C_1  and  O_4
    2  A    between atoms: C_1  and  C_22
    3  A    between atoms: O_4  and  C_12
    4  A    between atoms: C_7  and  C_10
    5  A    between atoms: C_7  and  C_25
    6  A    between atoms: C_8  and  C_12
    7  A    between atoms: C_9  and  C_12
    8  A    between atoms: C_9  and  C_21
    9  A    between atoms: C_23  and  C_25
                            x       y       z     vdW  Elec       q    Type
                         _______ _______ _______ _____ _____    ______ ____

>  <TORSDO>
F 9

$$$$
=
 OpenBabel11052422013D

 30 32  0  0  1  0  0  0  0  0999 V2000
  160.7810  210.3170  154.3400 C   0  0  0  0  0  0  0  0  0  0  0  0
  158.8870  213.4510  154.3740 O   0  0  0  0  0  0  0  0  0  0  0  0
  158.4350  213.1990  153.0680 C   0  0  2  0  0  3  0  0  0  0  0  0
  160.1930  211.2310  155.3670 C   0  0  1  0  0  3  0  0  0  0  0  0
  161.2590  209.2430  154.6760 O   0  0  0  0  0  0  0  0  0  0  0  0
  158.1720  212.6040  155.2420 C   0  0  0  0  0  2  0  0  0  0  0  0
  158.6900  211.1740  155.1420 C   0  0  2  0  0  3  0  0  0  0  0  0
  160.8240  210.7910  152.9000 C   0  0  2  0  0  3  0  0  0  0  0  0
  159.5540  212.5260  152.2450 C   0  0  1  0  0  3  0  0  0  0  0  0
  158.0390  214.3980  152.4990 F   0  0  0  0  0  0  0  0  0  0  0  0
  159.2860  210.5990  156.4060 C   0  0  0  0  0  2  0  0  0  0  0  0
  159.5370  211.1400  152.4610 O   0  0  0  0  0  0  0  0  0  0  0  0
  161.4150  209.7810  151.9680 C   0  0  0  0  0  0  0  0  0  0  0  0
  162.5860  209.9520  151.5330 O   0  0  0  0  0  0  0  0  0  0  0  0
  160.6570  208.6760  151.5700 O   0  0  0  0  0  0  0  0  0  0  0  0
  161.2320  207.5500  150.9140 C   0  0  2  0  0  3  0  0  0  0  0  0
  162.1630  206.8030  151.8710 C   0  0  1  0  0  3  0  0  0  0  0  0
  160.7690  204.7640  151.1200 C   0  0  0  0  0  1  0  0  0  0  0  0
  161.3650  206.2300  153.0260 C   0  0  0  0  0  2  0  0  0  0  0  0
  161.9170  205.2910  151.9720 C   0  0  2  0  0  3  0  0  0  0  0  0
  161.9620  207.9560  149.6300 C   0  0  0  0  0  2  0  0  0  0  0  0
  160.3170  206.5620  148.3770 O   0  0  0  0  0  1  0  0  0  0  0  0
  162.4250  206.8930  147.5410 O   0  0  0  0  0  0  0  0  0  0  0  0
  161.5900  207.1090  148.4570 C   0  0  0  0  0  0  0  0  0  0  0  0
  159.3950  212.7820  150.7510 C   0  0  0  0  0  2  0  0  0  0  0  0
  160.5200  213.6780  150.2520 C   0  0  0  0  0  2  0  0  0  0  0  0
  160.9320  213.3450  148.8220 C   0  0  0  0  0  0  0  0  0  0  0  0
  159.8030  213.1750  148.0200 O   0  0  0  0  0  1  0  0  0  0  0  0
  161.8040  214.4470  148.2460 C   0  0  0  0  0  1  0  0  0  0  0  0
  161.7260  212.0550  148.8320 C   0  0  0  0  0  1  0  0  0  0  0  0
  1  5  2  0  0  0  0
  1  4  1  0  0  0  0
  2  6  1  0  0  0  0
  3 10  1  6  0  0  0
  3  2  1  0  0  0  0
  4 11  1  1  0  0  0
  7  6  1  1  0  0  0
  7  4  1  0  0  0  0
  7 11  1  0  0  0  0
  8 13  1  6  0  0  0
  8  1  1  0  0  0  0
  9 25  1  6  0  0  0
  9 12  1  0  0  0  0
  9  3  1  0  0  0  0
 12  8  1  0  0  0  0
 14 13  2  0  0  0  0
 15 13  1  0  0  0  0
 16 21  1  6  0  0  0
 16 15  1  0  0  0  0
 17 16  1  6  0  0  0
 17 20  1  0  0  0  0
 17 19  1  0  0  0  0
 20 18  1  6  0  0  0
 20 19  1  0  0  0  0
 22 24  1  0  0  0  0
 23 24  2  0  0  0  0
 24 21  1  0  0  0  0
 26 25  1  0  0  0  0
 27 30  1  0  0  0  0
 27 26  1  0  0  0  0
 28 27  1  0  0  0  0
 29 27  1  0  0  0  0
M  END
>  <MODEL>
4

>  <REMARK>
 VINA RESULT:      -6.4      3.524      8.150
  Name = 
  9 active torsions:
  status: ('A' for Active; 'I' for Inactive)
    1  A    between atoms: C_1  and  O_4
    2  A    between atoms: C_1  and  C_22
    3  A    between atoms: O_4  and  C_12
    4  A    between atoms: C_7  and  C_10
    5  A    between atoms: C_7  and  C_25
    6  A    between atoms: C_8  and  C_12
    7  A    between atoms: C_9  and  C_12
    8  A    between atoms: C_9  and  C_21
    9  A    between atoms: C_23  and  C_25
                            x       y       z     vdW  Elec       q    Type
                         _______ _______ _______ _____ _____    ______ ____

>  <TORSDO>
F 9

$$$$
=
 OpenBabel11052422013D

 30 32  0  0  1  0  0  0  0  0999 V2000
  161.6190  208.3580  151.6170 C   0  0  0  0  0  0  0  0  0  0  0  0
  160.2660  204.9900  151.1280 O   0  0  0  0  0  0  0  0  0  0  0  0
  160.8970  204.9130  149.8750 C   0  0  2  0  0  3  0  0  0  0  0  0
  161.1200  207.2410  152.4770 C   0  0  1  0  0  3  0  0  0  0  0  0
  162.1420  209.3390  152.1270 O   0  0  0  0  0  0  0  0  0  0  0  0
  161.2580  204.8260  152.1130 C   0  0  0  0  0  2  0  0  0  0  0  0
  162.0930  206.0940  152.2500 C   0  0  2  0  0  3  0  0  0  0  0  0
  161.3940  208.2640  150.1210 C   0  0  2  0  0  3  0  0  0  0  0  0
  160.8610  206.2920  149.1820 C   0  0  1  0  0  3  0  0  0  0  0  0
  160.2540  203.9490  149.1170 F   0  0  0  0  0  0  0  0  0  0  0  0
  162.0360  206.7790  153.5960 C   0  0  0  0  0  2  0  0  0  0  0  0
  161.9420  207.0720  149.6180 O   0  0  0  0  0  0  0  0  0  0  0  0
  161.9560  209.4290  149.3690 C   0  0  0  0  0  0  0  0  0  0  0  0
  162.3800  209.2600  148.1940 O   0  0  0  0  0  0  0  0  0  0  0  0
  162.0270  210.6820  149.9830 O   0  0  0  0  0  0  0  0  0  0  0  0
  161.1580  211.7560  149.6340 C   0  0  2  0  0  3  0  0  0  0  0  0
  161.9610  212.9000  149.0100 C   0  0  1  0  0  3  0  0  0  0  0  0
  160.6440  212.2380  146.8910 C   0  0  0  0  0  1  0  0  0  0  0  0
  162.8860  212.3570  147.9380 C   0  0  0  0  0  2  0  0  0  0  0  0
  161.6720  213.1660  147.5260 C   0  0  2  0  0  3  0  0  0  0  0  0
  160.3440  212.2390  150.8370 C   0  0  0  0  0  2  0  0  0  0  0  0
  158.6690  213.4290  149.4220 O   0  0  0  0  0  0  0  0  0  0  0  0
  159.5540  214.4520  151.2720 O   0  0  0  0  0  1  0  0  0  0  0  0
  159.5070  213.4370  150.5290 C   0  0  0  0  0  0  0  0  0  0  0  0
  160.9370  206.1690  147.6650 C   0  0  0  0  0  2  0  0  0  0  0  0
  162.3440  205.7640  147.2440 C   0  0  0  0  0  2  0  0  0  0  0  0
  162.3420  204.8750  146.0040 C   0  0  0  0  0  0  0  0  0  0  0  0
  163.6490  204.5490  145.6400 O   0  0  0  0  0  1  0  0  0  0  0  0
  161.5530  203.6020  146.2600 C   0  0  0  0  0  1  0  0  0  0  0  0
  161.6870  205.6290  144.8650 C   0  0  0  0  0  1  0  0  0  0  0  0
  1  5  2  0  0  0  0
  1  4  1  0  0  0  0
  2  6  1  0  0  0  0
  3 10  1  6  0  0  0
  3  2  1  0  0  0  0
  4 11  1  1  0  0  0
  7  6  1  1  0  0  0
  7  4  1  0  0  0  0
  7 11  1  0  0  0  0
  8 13  1  6  0  0  0
  8  1  1  0  0  0  0
  9 25  1  6  0  0  0
  9 12  1  0  0  0  0
  9  3  1  0  0  0  0
 12  8  1  0  0  0  0
 13 15  1  0  0  0  0
 14 13  2  0  0  0  0
 16 15  1  0  0  0  0
 16 21  1  1  0  0  0
 17 16  1  6  0  0  0
 19 17  1  0  0  0  0
 20 18  1  6  0  0  0
 20 19  1  0  0  0  0
 20 17  1  0  0  0  0
 22 24  2  0  0  0  0
 24 21  1  0  0  0  0
 24 23  1  0  0  0  0
 26 25  1  0  0  0  0
 27 29  1  0  0  0  0
 27 26  1  0  0  0  0
 28 27  1  0  0  0  0
 30 27  1  0  0  0  0
M  END
>  <MODEL>
5

>  <REMARK>
 VINA RESULT:      -6.3      2.802      5.571
  Name = 
  9 active torsions:
  status: ('A' for Active; 'I' for Inactive)
    1  A    between atoms: C_1  and  O_4
    2  A    between atoms: C_1  and  C_22
    3  A    between atoms: O_4  and  C_12
    4  A    between atoms: C_7  and  C_10
    5  A    between atoms: C_7  and  C_25
    6  A    between atoms: C_8  and  C_12
    7  A    between atoms: C_9  and  C_12
    8  A    between atoms: C_9  and  C_21
    9  A    between atoms: C_23  and  C_25
                            x       y       z     vdW  Elec       q    Type
                         _______ _______ _______ _____ _____    ______ ____

>  <TORSDO>
F 9

$$$$
=
 OpenBabel11052422013D

 30 32  0  0  1  0  0  0  0  0999 V2000
  162.2470  206.5630  151.7160 C   0  0  0  0  0  0  0  0  0  0  0  0
  161.6420  209.4010  153.9490 O   0  0  0  0  0  0  0  0  0  0  0  0
  160.8820  210.0330  152.9510 C   0  0  2  0  0  3  0  0  0  0  0  0
  162.2380  206.8150  153.1890 C   0  0  1  0  0  3  0  0  0  0  0  0
  162.3670  205.4230  151.2890 O   0  0  0  0  0  0  0  0  0  0  0  0
  160.8580  208.3630  154.4870 C   0  0  0  0  0  2  0  0  0  0  0  0
  160.8010  207.1810  153.5260 C   0  0  2  0  0  3  0  0  0  0  0  0
  162.1720  207.7570  150.7840 C   0  0  2  0  0  3  0  0  0  0  0  0
  161.5020  209.7560  151.5640 C   0  0  1  0  0  3  0  0  0  0  0  0
  160.8360  211.3890  153.2230 F   0  0  0  0  0  0  0  0  0  0  0  0
  161.3890  205.8860  154.0380 C   0  0  0  0  0  2  0  0  0  0  0  0
  161.0350  208.5300  151.0690 O   0  0  0  0  0  0  0  0  0  0  0  0
  162.1670  207.3730  149.3380 C   0  0  0  0  0  0  0  0  0  0  0  0
  163.1430  207.6980  148.6100 O   0  0  0  0  0  0  0  0  0  0  0  0
  161.0740  206.6840  148.8070 O   0  0  0  0  0  0  0  0  0  0  0  0
  161.1570  205.3240  148.3870 C   0  0  2  0  0  3  0  0  0  0  0  0
  160.6000  205.1770  146.9690 C   0  0  1  0  0  3  0  0  0  0  0  0
  163.0800  204.7650  146.3850 C   0  0  0  0  0  1  0  0  0  0  0  0
  161.1440  206.2800  146.0830 C   0  0  0  0  0  2  0  0  0  0  0  0
  161.6430  204.8630  145.8880 C   0  0  2  0  0  3  0  0  0  0  0  0
  160.4450  204.3860  149.3650 C   0  0  0  0  0  2  0  0  0  0  0  0
  161.2050  202.3000  150.5030 O   0  0  0  0  0  1  0  0  0  0  0  0
  161.2080  202.4350  148.2160 O   0  0  0  0  0  0  0  0  0  0  0  0
  160.9740  202.9900  149.3200 C   0  0  0  0  0  0  0  0  0  0  0  0
  161.1530  210.8450  150.5570 C   0  0  0  0  0  2  0  0  0  0  0  0
  162.3040  211.0390  149.5780 C   0  0  0  0  0  2  0  0  0  0  0  0
  161.9710  212.0540  148.4890 C   0  0  0  0  0  0  0  0  0  0  0  0
  161.2070  211.4540  147.4870 O   0  0  0  0  0  1  0  0  0  0  0  0
  161.2100  213.2320  149.0710 C   0  0  0  0  0  1  0  0  0  0  0  0
  163.2640  212.5620  147.8860 C   0  0  0  0  0  1  0  0  0  0  0  0
  1  4  1  0  0  0  0
  2  6  1  0  0  0  0
  3 10  1  1  0  0  0
  3  2  1  0  0  0  0
  4  7  1  0  0  0  0
  4 11  1  1  0  0  0
  5  1  2  0  0  0  0
  7 11  1  1  0  0  0
  7  6  1  0  0  0  0
  8 13  1  6  0  0  0
  8 12  1  0  0  0  0
  8  1  1  0  0  0  0
  9 25  1  6  0  0  0
  9  3  1  0  0  0  0
 12  9  1  0  0  0  0
 14 13  2  0  0  0  0
 15 13  1  0  0  0  0
 16 15  1  0  0  0  0
 16 21  1  1  0  0  0
 17 16  1  1  0  0  0
 19 17  1  0  0  0  0
 20 19  1  0  0  0  0
 20 18  1  1  0  0  0
 20 17  1  0  0  0  0
 23 24  2  0  0  0  0
 24 21  1  0  0  0  0
 24 22  1  0  0  0  0
 26 25  1  0  0  0  0
 27 29  1  0  0  0  0
 27 26  1  0  0  0  0
 28 27  1  0  0  0  0
 30 27  1  0  0  0  0
M  END
>  <MODEL>
6

>  <REMARK>
 VINA RESULT:      -6.2      2.756      8.038
  Name = 
  9 active torsions:
  status: ('A' for Active; 'I' for Inactive)
    1  A    between atoms: C_1  and  O_4
    2  A    between atoms: C_1  and  C_22
    3  A    between atoms: O_4  and  C_12
    4  A    between atoms: C_7  and  C_10
    5  A    between atoms: C_7  and  C_25
    6  A    between atoms: C_8  and  C_12
    7  A    between atoms: C_9  and  C_12
    8  A    between atoms: C_9  and  C_21
    9  A    between atoms: C_23  and  C_25
                            x       y       z     vdW  Elec       q    Type
                         _______ _______ _______ _____ _____    ______ ____

>  <TORSDO>
F 9

$$$$
=
 OpenBabel11052422013D

 30 32  0  0  1  0  0  0  0  0999 V2000
  161.3110  208.5070  154.6110 C   0  0  0  0  0  0  0  0  0  0  0  0
  160.1980  211.7140  155.9860 O   0  0  0  0  0  0  0  0  0  0  0  0
  159.5390  212.0080  154.7810 C   0  0  2  0  0  3  0  0  0  0  0  0
  161.0810  209.0990  155.9650 C   0  0  1  0  0  3  0  0  0  0  0  0
  161.5720  207.3170  154.4970 O   0  0  0  0  0  0  0  0  0  0  0  0
  159.4260  210.7560  156.6700 C   0  0  0  0  0  2  0  0  0  0  0  0
  159.5880  209.3810  156.0310 C   0  0  2  0  0  3  0  0  0  0  0  0
  161.2780  209.4330  153.4110 C   0  0  2  0  0  3  0  0  0  0  0  0
  160.3630  211.4780  153.5880 C   0  0  1  0  0  3  0  0  0  0  0  0
  159.3570  213.3780  154.7010 F   0  0  0  0  0  0  0  0  0  0  0  0
  160.1930  208.3130  156.9120 C   0  0  0  0  0  2  0  0  0  0  0  0
  160.0590  210.1280  153.3610 O   0  0  0  0  0  0  0  0  0  0  0  0
  161.5010  208.7190  152.1140 C   0  0  0  0  0  0  0  0  0  0  0  0
  162.3340  209.1830  151.2900 O   0  0  0  0  0  0  0  0  0  0  0  0
  160.7670  207.5670  151.8210 O   0  0  0  0  0  0  0  0  0  0  0  0
  161.2410  206.5660  150.9240 C   0  0  2  0  0  3  0  0  0  0  0  0
  162.0620  205.5230  151.6860 C   0  0  1  0  0  3  0  0  0  0  0  0
  160.4560  203.8770  150.5120 C   0  0  0  0  0  1  0  0  0  0  0  0
  161.1800  204.8070  152.6910 C   0  0  0  0  0  2  0  0  0  0  0  0
  161.6400  204.0660  151.4520 C   0  0  2  0  0  3  0  0  0  0  0  0
  162.0470  207.1750  149.7730 C   0  0  0  0  0  2  0  0  0  0  0  0
  160.2110  206.3830  148.2810 O   0  0  0  0  0  1  0  0  0  0  0  0
  162.3010  206.7830  147.4290 O   0  0  0  0  0  0  0  0  0  0  0  0
  161.5370  206.7700  148.4280 C   0  0  0  0  0  0  0  0  0  0  0  0
  160.0780  212.2550  152.3090 C   0  0  0  0  0  2  0  0  0  0  0  0
  158.5890  212.2080  151.9890 C   0  0  0  0  0  2  0  0  0  0  0  0
  158.0750  213.5340  151.4370 C   0  0  0  0  0  0  0  0  0  0  0  0
  159.1190  214.4530  151.3350 O   0  0  0  0  0  1  0  0  0  0  0  0
  157.4390  213.3330  150.0720 C   0  0  0  0  0  1  0  0  0  0  0  0
  157.0270  214.0820  152.3840 C   0  0  0  0  0  1  0  0  0  0  0  0
  1  4  1  0  0  0  0
  2  6  1  0  0  0  0
  3 10  1  6  0  0  0
  3  2  1  0  0  0  0
  4  7  1  0  0  0  0
  4 11  1  1  0  0  0
  5  1  2  0  0  0  0
  7  6  1  1  0  0  0
  7 11  1  0  0  0  0
  8 13  1  6  0  0  0
  8  1  1  0  0  0  0
  9 25  1  6  0  0  0
  9  3  1  0  0  0  0
 12  8  1  0  0  0  0
 12  9  1  0  0  0  0
 14 13  2  0  0  0  0
 15 13  1  0  0  0  0
 16 21  1  6  0  0  0
 16 15  1  0  0  0  0
 17 16  1  6  0  0  0
 17 19  1  0  0  0  0
 20 18  1  6  0  0  0
 20 17  1  0  0  0  0
 20 19  1  0  0  0  0
 22 24  1  0  0  0  0
 23 24  2  0  0  0  0
 24 21  1  0  0  0  0
 26 25  1  0  0  0  0
 27 26  1  0  0  0  0
 27 30  1  0  0  0  0
 28 27  1  0  0  0  0
 29 27  1  0  0  0  0
M  END
>  <MODEL>
7

>  <REMARK>
 VINA RESULT:      -6.2      3.308      8.287
  Name = 
  9 active torsions:
  status: ('A' for Active; 'I' for Inactive)
    1  A    between atoms: C_1  and  O_4
    2  A    between atoms: C_1  and  C_22
    3  A    between atoms: O_4  and  C_12
    4  A    between atoms: C_7  and  C_10
    5  A    between atoms: C_7  and  C_25
    6  A    between atoms: C_8  and  C_12
    7  A    between atoms: C_9  and  C_12
    8  A    between atoms: C_9  and  C_21
    9  A    between atoms: C_23  and  C_25
                            x       y       z     vdW  Elec       q    Type
                         _______ _______ _______ _____ _____    ______ ____

>  <TORSDO>
F 9

$$$$
=
 OpenBabel11052422013D

 30 32  0  0  1  0  0  0  0  0999 V2000
  161.9440  208.8630  150.5330 C   0  0  0  0  0  0  0  0  0  0  0  0
  161.8750  205.2320  151.0070 O   0  0  0  0  0  0  0  0  0  0  0  0
  160.9140  205.3770  152.0220 C   0  0  2  0  0  3  0  0  0  0  0  0
  162.2680  207.6460  149.7270 C   0  0  1  0  0  3  0  0  0  0  0  0
  161.9580  209.9680  150.0090 O   0  0  0  0  0  0  0  0  0  0  0  0
  161.2250  205.4340  149.7750 C   0  0  0  0  0  2  0  0  0  0  0  0
  160.9460  206.9160  149.5520 C   0  0  2  0  0  3  0  0  0  0  0  0
  161.6700  208.6880  152.0140 C   0  0  2  0  0  3  0  0  0  0  0  0
  161.2050  206.6510  152.8430 C   0  0  1  0  0  3  0  0  0  0  0  0
  160.9400  204.2450  152.8180 F   0  0  0  0  0  0  0  0  0  0  0  0
  161.6250  207.5420  148.3570 C   0  0  0  0  0  2  0  0  0  0  0  0
  160.6310  207.7650  152.2140 O   0  0  0  0  0  0  0  0  0  0  0  0
  161.3380  209.9740  152.7040 C   0  0  0  0  0  0  0  0  0  0  0  0
  162.2630  210.6460  153.2350 O   0  0  0  0  0  0  0  0  0  0  0  0
  160.0100  210.4010  152.7750 O   0  0  0  0  0  0  0  0  0  0  0  0
  159.6220  211.5830  153.4700 C   0  0  2  0  0  3  0  0  0  0  0  0
  159.6980  212.7910  152.5340 C   0  0  1  0  0  3  0  0  0  0  0  0
  157.2800  213.1700  153.3560 C   0  0  0  0  0  1  0  0  0  0  0  0
  158.7030  212.6300  151.4020 C   0  0  0  0  0  2  0  0  0  0  0  0
  158.4310  213.6560  152.4830 C   0  0  2  0  0  3  0  0  0  0  0  0
  160.4660  211.8010  154.7290 C   0  0  0  0  0  2  0  0  0  0  0  0
  158.5310  211.7520  156.3030 O   0  0  0  0  0  0  0  0  0  0  0  0
  160.0670  213.4480  156.4140 O   0  0  0  0  0  1  0  0  0  0  0  0
  159.6840  212.3860  155.8600 C   0  0  0  0  0  0  0  0  0  0  0  0
  160.6470  206.5570  154.2580 C   0  0  0  0  0  2  0  0  0  0  0  0
  161.4290  207.4720  155.1910 C   0  0  0  0  0  2  0  0  0  0  0  0
  160.5550  208.0510  156.2990 C   0  0  0  0  0  0  0  0  0  0  0  0
  159.4500  208.7040  155.7520 O   0  0  0  0  0  1  0  0  0  0  0  0
  160.0840  206.9530  157.2360 C   0  0  0  0  0  1  0  0  0  0  0  0
  161.3730  209.0480  157.0930 C   0  0  0  0  0  1  0  0  0  0  0  0
  1  8  1  0  0  0  0
  2  3  1  0  0  0  0
  3 10  1  1  0  0  0
  3  9  1  0  0  0  0
  4 11  1  6  0  0  0
  4  1  1  0  0  0  0
  5  1  2  0  0  0  0
  6  2  1  0  0  0  0
  7 11  1  6  0  0  0
  7  4  1  0  0  0  0
  7  6  1  0  0  0  0
  8 12  1  0  0  0  0
  8 13  1  6  0  0  0
  9 25  1  1  0  0  0
 12  9  1  0  0  0  0
 13 15  1  0  0  0  0
 13 14  2  0  0  0  0
 15 16  1  0  0  0  0
 16 21  1  1  0  0  0
 17 16  1  1  0  0  0
 19 20  1  0  0  0  0
 19 17  1  0  0  0  0
 20 17  1  0  0  0  0
 20 18  1  1  0  0  0
 21 24  1  0  0  0  0
 24 22  2  0  0  0  0
 24 23  1  0  0  0  0
 25 26  1  0  0  0  0
 26 27  1  0  0  0  0
 27 30  1  0  0  0  0
 27 29  1  0  0  0  0
 28 27  1  0  0  0  0
M  END
>  <MODEL>
8

>  <REMARK>
 VINA RESULT:      -6.2      2.409      5.312
  Name = 
  9 active torsions:
  status: ('A' for Active; 'I' for Inactive)
    1  A    between atoms: C_1  and  O_4
    2  A    between atoms: C_1  and  C_22
    3  A    between atoms: O_4  and  C_12
    4  A    between atoms: C_7  and  C_10
    5  A    between atoms: C_7  and  C_25
    6  A    between atoms: C_8  and  C_12
    7  A    between atoms: C_9  and  C_12
    8  A    between atoms: C_9  and  C_21
    9  A    between atoms: C_23  and  C_25
                            x       y       z     vdW  Elec       q    Type
                         _______ _______ _______ _____ _____    ______ ____

>  <TORSDO>
F 9

$$$$
=
 OpenBabel11052422013D

 30 32  0  0  1  0  0  0  0  0999 V2000
  160.8720  206.8880  152.1370 C   0  0  0  0  0  0  0  0  0  0  0  0
  160.9720  206.0150  148.5820 O   0  0  0  0  0  0  0  0  0  0  0  0
  161.9600  206.9890  148.3640 C   0  0  2  0  0  3  0  0  0  0  0  0
  160.5310  205.7050  151.2890 C   0  0  1  0  0  3  0  0  0  0  0  0
  160.8390  206.8000  153.3560 O   0  0  0  0  0  0  0  0  0  0  0  0
  161.5850  204.9230  149.2250 C   0  0  0  0  0  2  0  0  0  0  0  0
  161.8510  205.2450  150.6910 C   0  0  2  0  0  3  0  0  0  0  0  0
  161.1900  208.1990  151.4420 C   0  0  2  0  0  3  0  0  0  0  0  0
  161.6870  208.2220  149.2510 C   0  0  1  0  0  3  0  0  0  0  0  0
  161.9630  207.3220  147.0200 F   0  0  0  0  0  0  0  0  0  0  0  0
  161.1350  204.3740  151.6970 C   0  0  0  0  0  2  0  0  0  0  0  0
  162.2380  208.0250  150.5250 O   0  0  0  0  0  0  0  0  0  0  0  0
  161.5350  209.2980  152.3960 C   0  0  0  0  0  0  0  0  0  0  0  0
  162.6880  209.8080  152.3600 O   0  0  0  0  0  0  0  0  0  0  0  0
  160.5910  209.7290  153.3310 O   0  0  0  0  0  0  0  0  0  0  0  0
  160.8570  210.7750  154.2610 C   0  0  2  0  0  3  0  0  0  0  0  0
  160.5280  210.3120  155.6820 C   0  0  1  0  0  3  0  0  0  0  0  0
  163.0500  210.7160  156.0510 C   0  0  0  0  0  1  0  0  0  0  0  0
  161.2520  209.0140  155.9830 C   0  0  0  0  0  2  0  0  0  0  0  0
  161.7170  210.2910  156.6530 C   0  0  2  0  0  3  0  0  0  0  0  0
  160.0990  212.0570  153.9040 C   0  0  0  0  0  2  0  0  0  0  0  0
  157.7000  211.4050  154.1200 O   0  0  0  0  0  1  0  0  0  0  0  0
  158.5780  211.9160  152.0660 O   0  0  0  0  0  0  0  0  0  0  0  0
  158.7570  211.7900  153.3050 C   0  0  0  0  0  0  0  0  0  0  0  0
  162.2860  209.4930  148.6590 C   0  0  0  0  0  2  0  0  0  0  0  0
  161.6120  210.7180  149.2610 C   0  0  0  0  0  2  0  0  0  0  0  0
  161.6290  211.9120  148.3110 C   0  0  0  0  0  0  0  0  0  0  0  0
  160.8720  211.6340  147.1720 O   0  0  0  0  0  1  0  0  0  0  0  0
  161.0790  213.1490  148.9980 C   0  0  0  0  0  1  0  0  0  0  0  0
  163.0600  212.1830  147.8960 C   0  0  0  0  0  1  0  0  0  0  0  0
  1  5  2  0  0  0  0
  2  6  1  0  0  0  0
  3 10  1  6  0  0  0
  3  2  1  0  0  0  0
  3  9  1  0  0  0  0
  4 11  1  1  0  0  0
  4  1  1  0  0  0  0
  7  6  1  6  0  0  0
  7  4  1  0  0  0  0
  7 11  1  0  0  0  0
  8  1  1  0  0  0  0
  8 13  1  1  0  0  0
  9 25  1  6  0  0  0
  9 12  1  0  0  0  0
 12  8  1  0  0  0  0
 13 15  1  0  0  0  0
 14 13  2  0  0  0  0
 15 16  1  0  0  0  0
 16 21  1  6  0  0  0
 17 16  1  6  0  0  0
 17 19  1  0  0  0  0
 17 20  1  0  0  0  0
 19 20  1  0  0  0  0
 20 18  1  6  0  0  0
 23 24  2  0  0  0  0
 24 21  1  0  0  0  0
 24 22  1  0  0  0  0
 25 26  1  0  0  0  0
 27 29  1  0  0  0  0
 27 26  1  0  0  0  0
 28 27  1  0  0  0  0
 30 27  1  0  0  0  0
M  END
>  <MODEL>
9

>  <REMARK>
 VINA RESULT:      -6.1      2.296      5.382
  Name = 
  9 active torsions:
  status: ('A' for Active; 'I' for Inactive)
    1  A    between atoms: C_1  and  O_4
    2  A    between atoms: C_1  and  C_22
    3  A    between atoms: O_4  and  C_12
    4  A    between atoms: C_7  and  C_10
    5  A    between atoms: C_7  and  C_25
    6  A    between atoms: C_8  and  C_12
    7  A    between atoms: C_9  and  C_12
    8  A    between atoms: C_9  and  C_21
    9  A    between atoms: C_23  and  C_25
                            x       y       z     vdW  Elec       q    Type
                         _______ _______ _______ _____ _____    ______ ____

>  <TORSDO>
F 9

$$$$
