=
 OpenBabel11052422173D

 25 27  0  0  1  0  0  0  0  0999 V2000
  161.3970  205.4240  149.5660 N   0  0  0  0  0  0  0  0  0  0  0  0
  161.4140  206.3960  150.5230 C   0  0  0  0  0  0  0  0  0  0  0  0
  162.1110  206.9460  147.8840 C   0  0  0  0  0  3  0  0  0  0  0  0
  161.0870  204.1120  149.6070 C   0  0  0  0  0  0  0  0  0  0  0  0
  162.1350  207.9370  148.8230 N   0  0  0  0  0  0  0  0  0  0  0  0
  161.2580  203.6080  148.3290 C   0  0  0  0  0  0  0  0  0  0  0  0
  161.8210  208.7220  151.0870 C   0  0  0  0  0  0  0  0  0  0  0  0
  162.2150  210.1130  150.7200 C   0  0  0  0  0  1  0  0  0  0  0  0
  161.0650  206.1520  151.8540 C   0  0  0  0  0  3  0  0  0  0  0  0
  161.7300  205.6690  148.2850 C   0  0  0  0  0  0  0  0  0  0  0  0
  161.6610  204.5850  147.4850 N   0  0  0  0  0  0  0  0  0  0  0  0
  161.4770  208.4490  152.3750 N   0  0  0  0  0  0  0  0  0  0  0  0
  161.1100  207.2010  152.7750 C   0  0  0  0  0  0  0  0  0  0  0  0
  161.7980  207.6990  150.1280 C   0  0  0  0  0  0  0  0  0  0  0  0
  160.8910  201.1450  147.5980 N   0  0  0  0  0  0  0  0  0  0  0  0
  161.0550  202.2430  147.9230 C   0  0  0  0  0  0  0  0  0  0  0  0
  161.9380  202.7400  151.4710 C   0  0  0  0  0  1  0  0  0  0  0  0
  160.7020  203.3330  150.8260 C   0  0  0  0  0  2  0  0  0  0  0  0
  160.7220  206.9610  154.1910 C   0  0  0  0  0  2  0  0  0  0  0  0
  160.7050  208.2750  154.9530 C   0  0  0  0  0  2  0  0  0  0  0  0
  161.3420  208.1040  156.3230 C   0  0  2  0  0  3  0  0  0  0  0  0
  160.3950  207.3510  157.2360 C   0  0  0  0  0  1  0  0  0  0  0  0
  161.6960  209.4260  156.9250 C   0  0  0  0  0  0  0  0  0  0  0  0
  160.7060  210.3820  157.1120 O   0  0  0  0  0  0  0  0  0  0  0  0
  162.8830  209.6840  157.2600 O   0  0  0  0  0  1  0  0  0  0  0  0
  1  4  1  0  0  0  0
  1  2  1  0  0  0  0
  2  9  1  0  0  0  0
  3 10  1  0  0  0  0
  3  5  2  0  0  0  0
  4 18  1  0  0  0  0
  5 14  1  0  0  0  0
  6  4  2  0  0  0  0
  7 12  2  0  0  0  0
  8  7  1  0  0  0  0
  9 13  2  0  0  0  0
 10  1  1  0  0  0  0
 11 10  2  0  0  0  0
 11  6  1  0  0  0  0
 12 13  1  0  0  0  0
 13 19  1  0  0  0  0
 14  2  2  0  0  0  0
 14  7  1  0  0  0  0
 15 16  3  0  0  0  0
 16  6  1  0  0  0  0
 18 17  1  0  0  0  0
 19 20  1  0  0  0  0
 20 21  1  0  0  0  0
 21 23  1  0  0  0  0
 21 22  1  1  0  0  0
 23 24  2  0  0  0  0
 23 25  1  0  0  0  0
M  END
>  <MODEL>
1

>  <REMARK>
 VINA RESULT:      -7.9      0.000      0.000
  Name = 
  6 active torsions:
  status: ('A' for Active; 'I' for Inactive)
    1  A    between atoms: C_2  and  C_21
    2  A    between atoms: C_5  and  C_22
    3  A    between atoms: C_6  and  C_15
    4  A    between atoms: C_6  and  C_23
    5  A    between atoms: C_10  and  C_11
    6  A    between atoms: C_15  and  C_21
                            x       y       z     vdW  Elec       q    Type
                         _______ _______ _______ _____ _____    ______ ____

>  <TORSDO>
F 6

$$$$
=
 OpenBabel11052422173D

 25 27  0  0  1  0  0  0  0  0999 V2000
  161.3370  204.0580  147.9370 N   0  0  0  0  0  0  0  0  0  0  0  0
  161.3850  205.0170  148.9050 C   0  0  0  0  0  0  0  0  0  0  0  0
  161.7480  205.6500  146.2190 C   0  0  0  0  0  3  0  0  0  0  0  0
  161.1330  202.7250  147.9840 C   0  0  0  0  0  0  0  0  0  0  0  0
  161.7990  206.6280  147.1690 N   0  0  0  0  0  0  0  0  0  0  0  0
  161.2020  202.2520  146.6850 C   0  0  0  0  0  0  0  0  0  0  0  0
  161.6750  207.3610  149.4690 C   0  0  0  0  0  0  0  0  0  0  0  0
  161.9220  208.7820  149.0900 C   0  0  0  0  0  1  0  0  0  0  0  0
  161.2020  204.7310  150.2610 C   0  0  0  0  0  3  0  0  0  0  0  0
  161.5100  204.3430  146.6330 C   0  0  0  0  0  0  0  0  0  0  0  0
  161.4360  203.2660  145.8230 N   0  0  0  0  0  0  0  0  0  0  0  0
  161.4940  207.0460  150.7810 N   0  0  0  0  0  0  0  0  0  0  0  0
  161.2670  205.7690  151.1930 C   0  0  0  0  0  0  0  0  0  0  0  0
  161.6250  206.3500  148.4980 C   0  0  0  0  0  0  0  0  0  0  0  0
  160.9420  199.7770  145.9470 N   0  0  0  0  0  0  0  0  0  0  0  0
  161.0580  200.8800  146.2760 C   0  0  0  0  0  0  0  0  0  0  0  0
  159.4890  201.4890  149.3440 C   0  0  0  0  0  1  0  0  0  0  0  0
  160.9410  201.9050  149.2210 C   0  0  0  0  0  2  0  0  0  0  0  0
  161.0540  205.4830  152.6380 C   0  0  0  0  0  2  0  0  0  0  0  0
  161.7130  206.5600  153.4810 C   0  0  0  0  0  2  0  0  0  0  0  0
  160.6640  207.4860  154.0770 C   0  0  2  0  0  3  0  0  0  0  0  0
  160.8790  208.8960  153.5660 C   0  0  0  0  0  1  0  0  0  0  0  0
  160.7110  207.4670  155.5720 C   0  0  0  0  0  0  0  0  0  0  0  0
  161.8200  207.9820  156.2300 O   0  0  0  0  0  0  0  0  0  0  0  0
  159.7580  206.9850  156.2400 O   0  0  0  0  0  1  0  0  0  0  0  0
  1  4  1  0  0  0  0
  1  2  1  0  0  0  0
  2  9  1  0  0  0  0
  3 10  1  0  0  0  0
  3  5  2  0  0  0  0
  4 18  1  0  0  0  0
  5 14  1  0  0  0  0
  6  4  2  0  0  0  0
  7 12  2  0  0  0  0
  8  7  1  0  0  0  0
  9 13  2  0  0  0  0
 10  1  1  0  0  0  0
 11 10  2  0  0  0  0
 11  6  1  0  0  0  0
 12 13  1  0  0  0  0
 13 19  1  0  0  0  0
 14  2  2  0  0  0  0
 14  7  1  0  0  0  0
 15 16  3  0  0  0  0
 16  6  1  0  0  0  0
 18 17  1  0  0  0  0
 19 20  1  0  0  0  0
 20 21  1  0  0  0  0
 21 22  1  6  0  0  0
 21 23  1  0  0  0  0
 23 24  2  0  0  0  0
 23 25  1  0  0  0  0
M  END
>  <MODEL>
2

>  <REMARK>
 VINA RESULT:      -7.9      1.663      2.488
  Name = 
  6 active torsions:
  status: ('A' for Active; 'I' for Inactive)
    1  A    between atoms: C_2  and  C_21
    2  A    between atoms: C_5  and  C_22
    3  A    between atoms: C_6  and  C_15
    4  A    between atoms: C_6  and  C_23
    5  A    between atoms: C_10  and  C_11
    6  A    between atoms: C_15  and  C_21
                            x       y       z     vdW  Elec       q    Type
                         _______ _______ _______ _____ _____    ______ ____

>  <TORSDO>
F 6

$$$$
=
 OpenBabel11052422173D

 25 27  0  0  1  0  0  0  0  0999 V2000
  161.1980  204.7110  149.4090 N   0  0  0  0  0  0  0  0  0  0  0  0
  161.3440  205.9920  149.8520 C   0  0  0  0  0  0  0  0  0  0  0  0
  160.8050  203.9020  151.6100 C   0  0  0  0  0  3  0  0  0  0  0  0
  161.2600  204.1600  148.1780 C   0  0  0  0  0  0  0  0  0  0  0  0
  160.9480  205.1750  152.0790 N   0  0  0  0  0  0  0  0  0  0  0  0
  161.0210  202.8040  148.3210 C   0  0  0  0  0  0  0  0  0  0  0  0
  161.3620  207.5300  151.7310 C   0  0  0  0  0  0  0  0  0  0  0  0
  161.2370  207.8270  153.1870 C   0  0  0  0  0  1  0  0  0  0  0  0
  161.6190  207.0610  148.9950 C   0  0  0  0  0  3  0  0  0  0  0  0
  160.9370  203.6860  150.2420 C   0  0  0  0  0  0  0  0  0  0  0  0
  160.8200  202.4930  149.6220 N   0  0  0  0  0  0  0  0  0  0  0  0
  161.6280  208.5480  150.8680 N   0  0  0  0  0  0  0  0  0  0  0  0
  161.7530  208.3460  149.5280 C   0  0  0  0  0  0  0  0  0  0  0  0
  161.2130  206.2240  151.2410 C   0  0  0  0  0  0  0  0  0  0  0  0
  160.9420  201.0590  146.4020 N   0  0  0  0  0  0  0  0  0  0  0  0
  160.9770  201.8360  147.2580 C   0  0  0  0  0  0  0  0  0  0  0  0
  162.9190  204.7570  146.4540 C   0  0  0  0  0  1  0  0  0  0  0  0
  161.4750  204.8950  146.8930 C   0  0  0  0  0  2  0  0  0  0  0  0
  162.0660  209.4910  148.6300 C   0  0  0  0  0  2  0  0  0  0  0  0
  161.9610  210.7950  149.4000 C   0  0  0  0  0  2  0  0  0  0  0  0
  161.8380  211.9700  148.4430 C   0  0  2  0  0  3  0  0  0  0  0  0
  163.2040  212.3220  147.8890 C   0  0  0  0  0  1  0  0  0  0  0  0
  161.2340  213.1600  149.1190 C   0  0  0  0  0  0  0  0  0  0  0  0
  160.3180  212.9730  150.1460 O   0  0  0  0  0  1  0  0  0  0  0  0
  161.5440  214.3280  148.7650 O   0  0  0  0  0  0  0  0  0  0  0  0
  1  2  1  0  0  0  0
  1 10  1  0  0  0  0
  2 14  1  0  0  0  0
  3  5  2  0  0  0  0
  4  6  2  0  0  0  0
  4  1  1  0  0  0  0
  6 11  1  0  0  0  0
  7  8  1  0  0  0  0
  9 13  1  0  0  0  0
  9  2  2  0  0  0  0
 10  3  1  0  0  0  0
 11 10  2  0  0  0  0
 12  7  1  0  0  0  0
 13 12  2  0  0  0  0
 14  7  2  0  0  0  0
 14  5  1  0  0  0  0
 15 16  3  0  0  0  0
 16  6  1  0  0  0  0
 17 18  1  0  0  0  0
 18  4  1  0  0  0  0
 19 20  1  0  0  0  0
 19 13  1  0  0  0  0
 21 22  1  1  0  0  0
 21 23  1  0  0  0  0
 21 20  1  0  0  0  0
 23 24  1  0  0  0  0
 25 23  2  0  0  0  0
M  END
>  <MODEL>
3

>  <REMARK>
 VINA RESULT:      -7.8      2.945      5.140
  Name = 
  6 active torsions:
  status: ('A' for Active; 'I' for Inactive)
    1  A    between atoms: C_2  and  C_21
    2  A    between atoms: C_5  and  C_22
    3  A    between atoms: C_6  and  C_15
    4  A    between atoms: C_6  and  C_23
    5  A    between atoms: C_10  and  C_11
    6  A    between atoms: C_15  and  C_21
                            x       y       z     vdW  Elec       q    Type
                         _______ _______ _______ _____ _____    ______ ____

>  <TORSDO>
F 6

$$$$
=
 OpenBabel11052422173D

 25 27  0  0  1  0  0  0  0  0999 V2000
  161.0370  207.0660  152.3090 N   0  0  0  0  0  0  0  0  0  0  0  0
  160.9710  206.2920  151.1880 C   0  0  0  0  0  0  0  0  0  0  0  0
  161.1500  205.1590  153.7250 C   0  0  0  0  0  3  0  0  0  0  0  0
  161.0360  208.4030  152.4930 C   0  0  0  0  0  0  0  0  0  0  0  0
  161.0840  204.3630  152.6190 N   0  0  0  0  0  0  0  0  0  0  0  0
  161.1330  208.6310  153.8550 C   0  0  0  0  0  0  0  0  0  0  0  0
  160.9260  204.0630  150.2260 C   0  0  0  0  0  0  0  0  0  0  0  0
  160.9450  202.5770  150.3530 C   0  0  0  0  0  1  0  0  0  0  0  0
  160.8770  206.8310  149.9020 C   0  0  0  0  0  3  0  0  0  0  0  0
  161.1240  206.5390  153.5440 C   0  0  0  0  0  0  0  0  0  0  0  0
  161.1850  207.4590  154.5290 N   0  0  0  0  0  0  0  0  0  0  0  0
  160.8360  204.6220  148.9890 N   0  0  0  0  0  0  0  0  0  0  0  0
  160.8150  205.9700  148.8040 C   0  0  0  0  0  0  0  0  0  0  0  0
  160.9960  204.8880  151.3580 C   0  0  0  0  0  0  0  0  0  0  0  0
  161.2240  210.9530  155.0110 N   0  0  0  0  0  0  0  0  0  0  0  0
  161.1830  209.9180  154.4960 C   0  0  0  0  0  0  0  0  0  0  0  0
  162.4190  209.9070  151.1130 C   0  0  0  0  0  1  0  0  0  0  0  0
  161.0090  209.4430  151.4170 C   0  0  0  0  0  2  0  0  0  0  0  0
  160.6940  206.5290  147.4300 C   0  0  0  0  0  2  0  0  0  0  0  0
  162.0420  206.4800  146.7310 C   0  0  0  0  0  2  0  0  0  0  0  0
  161.9250  205.7500  145.4020 C   0  0  2  0  0  3  0  0  0  0  0  0
  160.4840  205.7720  144.9330 C   0  0  0  0  0  1  0  0  0  0  0  0
  162.4100  204.3400  145.5140 C   0  0  0  0  0  0  0  0  0  0  0  0
  161.4910  203.2990  145.5390 O   0  0  0  0  0  0  0  0  0  0  0  0
  163.6420  204.0860  145.5890 O   0  0  0  0  0  1  0  0  0  0  0  0
  1  4  1  0  0  0  0
  1 10  1  0  0  0  0
  2 14  1  0  0  0  0
  2  1  1  0  0  0  0
  4  6  2  0  0  0  0
  5  3  2  0  0  0  0
  6 16  1  0  0  0  0
  6 11  1  0  0  0  0
  7  8  1  0  0  0  0
  7 14  2  0  0  0  0
  9  2  2  0  0  0  0
 10  3  1  0  0  0  0
 10 11  2  0  0  0  0
 12  7  1  0  0  0  0
 13 12  2  0  0  0  0
 13  9  1  0  0  0  0
 14  5  1  0  0  0  0
 16 15  3  0  0  0  0
 17 18  1  0  0  0  0
 18  4  1  0  0  0  0
 19 13  1  0  0  0  0
 20 19  1  0  0  0  0
 21 22  1  1  0  0  0
 21 23  1  0  0  0  0
 21 20  1  0  0  0  0
 23 24  2  0  0  0  0
 23 25  1  0  0  0  0
M  END
>  <MODEL>
4

>  <REMARK>
 VINA RESULT:      -7.7      4.162      8.092
  Name = 
  6 active torsions:
  status: ('A' for Active; 'I' for Inactive)
    1  A    between atoms: C_2  and  C_21
    2  A    between atoms: C_5  and  C_22
    3  A    between atoms: C_6  and  C_15
    4  A    between atoms: C_6  and  C_23
    5  A    between atoms: C_10  and  C_11
    6  A    between atoms: C_15  and  C_21
                            x       y       z     vdW  Elec       q    Type
                         _______ _______ _______ _____ _____    ______ ____

>  <TORSDO>
F 6

$$$$
=
 OpenBabel11052422173D

 25 27  0  0  1  0  0  0  0  0999 V2000
  161.5840  208.9290  151.3400 N   0  0  0  0  0  0  0  0  0  0  0  0
  161.4310  207.7700  152.0420 C   0  0  0  0  0  0  0  0  0  0  0  0
  160.9170  210.2470  153.2030 C   0  0  0  0  0  3  0  0  0  0  0  0
  161.9700  209.1810  150.0720 C   0  0  0  0  0  0  0  0  0  0  0  0
  160.7550  209.1020  153.9270 N   0  0  0  0  0  0  0  0  0  0  0  0
  161.9530  210.5550  149.9020 C   0  0  0  0  0  0  0  0  0  0  0  0
  160.8280  206.6950  154.1340 C   0  0  0  0  0  0  0  0  0  0  0  0
  160.3720  206.7460  155.5530 C   0  0  0  0  0  1  0  0  0  0  0  0
  161.6760  206.5120  151.4860 C   0  0  0  0  0  3  0  0  0  0  0  0
  161.3410  210.1370  151.8830 C   0  0  0  0  0  0  0  0  0  0  0  0
  161.5530  211.1680  151.0390 N   0  0  0  0  0  0  0  0  0  0  0  0
  161.0780  205.4860  153.5610 N   0  0  0  0  0  0  0  0  0  0  0  0
  161.4980  205.3710  152.2720 C   0  0  0  0  0  0  0  0  0  0  0  0
  161.0000  207.8690  153.3850 C   0  0  0  0  0  0  0  0  0  0  0  0
  162.6020  211.8330  147.7380 N   0  0  0  0  0  0  0  0  0  0  0  0
  162.3120  211.2630  148.7020 C   0  0  0  0  0  0  0  0  0  0  0  0
  161.2150  207.7060  148.2450 C   0  0  0  0  0  1  0  0  0  0  0  0
  162.4060  208.1660  149.0630 C   0  0  0  0  0  2  0  0  0  0  0  0
  161.7360  204.0230  151.6860 C   0  0  0  0  0  2  0  0  0  0  0  0
  160.6950  203.7320  150.6190 C   0  0  0  0  0  2  0  0  0  0  0  0
  161.3450  203.0980  149.4000 C   0  0  2  0  0  3  0  0  0  0  0  0
  161.3240  204.0770  148.2440 C   0  0  0  0  0  1  0  0  0  0  0  0
  160.6520  201.8290  149.0140 C   0  0  0  0  0  0  0  0  0  0  0  0
  161.3400  200.8670  148.2870 O   0  0  0  0  0  0  0  0  0  0  0  0
  159.4510  201.6280  149.3370 O   0  0  0  0  0  1  0  0  0  0  0  0
  1 10  1  0  0  0  0
  1  2  1  0  0  0  0
  2 14  1  0  0  0  0
  3  5  2  0  0  0  0
  4  1  1  0  0  0  0
  6  4  2  0  0  0  0
  6 11  1  0  0  0  0
  7  8  1  0  0  0  0
  9  2  2  0  0  0  0
  9 13  1  0  0  0  0
 10  3  1  0  0  0  0
 11 10  2  0  0  0  0
 12  7  1  0  0  0  0
 13 12  2  0  0  0  0
 14  5  1  0  0  0  0
 14  7  2  0  0  0  0
 15 16  3  0  0  0  0
 16  6  1  0  0  0  0
 17 18  1  0  0  0  0
 18  4  1  0  0  0  0
 19 13  1  0  0  0  0
 20 19  1  0  0  0  0
 21 22  1  6  0  0  0
 21 20  1  0  0  0  0
 23 25  1  0  0  0  0
 23 21  1  0  0  0  0
 24 23  2  0  0  0  0
M  END
>  <MODEL>
5

>  <REMARK>
 VINA RESULT:      -7.6      4.129      7.074
  Name = 
  6 active torsions:
  status: ('A' for Active; 'I' for Inactive)
    1  A    between atoms: C_2  and  C_21
    2  A    between atoms: C_5  and  C_22
    3  A    between atoms: C_6  and  C_15
    4  A    between atoms: C_6  and  C_23
    5  A    between atoms: C_10  and  C_11
    6  A    between atoms: C_15  and  C_21
                            x       y       z     vdW  Elec       q    Type
                         _______ _______ _______ _____ _____    ______ ____

>  <TORSDO>
F 6

$$$$
=
 OpenBabel11052422173D

 25 27  0  0  1  0  0  0  0  0999 V2000
  161.2150  205.0430  149.5190 N   0  0  0  0  0  0  0  0  0  0  0  0
  161.3710  206.3350  149.9270 C   0  0  0  0  0  0  0  0  0  0  0  0
  160.9580  204.2750  151.7550 C   0  0  0  0  0  3  0  0  0  0  0  0
  161.2120  204.4690  148.2980 C   0  0  0  0  0  0  0  0  0  0  0  0
  161.1140  205.5590  152.1890 N   0  0  0  0  0  0  0  0  0  0  0  0
  160.9970  203.1130  148.4810 C   0  0  0  0  0  0  0  0  0  0  0  0
  161.4800  207.9110  151.7710 C   0  0  0  0  0  0  0  0  0  0  0  0
  161.4350  208.2350  153.2260 C   0  0  0  0  0  1  0  0  0  0  0  0
  161.5850  207.3890  149.0360 C   0  0  0  0  0  3  0  0  0  0  0  0
  161.0140  204.0330  150.3850 C   0  0  0  0  0  0  0  0  0  0  0  0
  160.8740  202.8270  149.7970 N   0  0  0  0  0  0  0  0  0  0  0  0
  161.6850  208.9140  150.8740 N   0  0  0  0  0  0  0  0  0  0  0  0
  161.7340  208.6850  149.5340 C   0  0  0  0  0  0  0  0  0  0  0  0
  161.3180  206.5940  151.3170 C   0  0  0  0  0  0  0  0  0  0  0  0
  160.8270  201.3290  146.6040 N   0  0  0  0  0  0  0  0  0  0  0  0
  160.9030  202.1240  147.4410 C   0  0  0  0  0  0  0  0  0  0  0  0
  162.7350  204.9670  146.4230 C   0  0  0  0  0  1  0  0  0  0  0  0
  161.3450  205.1790  146.9870 C   0  0  0  0  0  2  0  0  0  0  0  0
  161.9820  209.8150  148.5970 C   0  0  0  0  0  2  0  0  0  0  0  0
  161.9940  211.1280  149.3620 C   0  0  0  0  0  2  0  0  0  0  0  0
  161.5710  212.2740  148.4570 C   0  0  2  0  0  3  0  0  0  0  0  0
  160.7480  211.7360  147.3030 C   0  0  0  0  0  1  0  0  0  0  0  0
  162.7580  213.0220  147.9380 C   0  0  0  0  0  0  0  0  0  0  0  0
  162.5990  214.3170  147.4630 O   0  0  0  0  0  0  0  0  0  0  0  0
  163.8990  212.4880  147.9240 O   0  0  0  0  0  1  0  0  0  0  0  0
  1  2  1  0  0  0  0
  1 10  1  0  0  0  0
  2 14  1  0  0  0  0
  3  5  2  0  0  0  0
  4  6  2  0  0  0  0
  4  1  1  0  0  0  0
  6 11  1  0  0  0  0
  7  8  1  0  0  0  0
  9 13  1  0  0  0  0
  9  2  2  0  0  0  0
 10  3  1  0  0  0  0
 11 10  2  0  0  0  0
 12  7  1  0  0  0  0
 13 12  2  0  0  0  0
 14  7  2  0  0  0  0
 14  5  1  0  0  0  0
 15 16  3  0  0  0  0
 16  6  1  0  0  0  0
 17 18  1  0  0  0  0
 18  4  1  0  0  0  0
 19 20  1  0  0  0  0
 19 13  1  0  0  0  0
 21 22  1  6  0  0  0
 21 20  1  0  0  0  0
 23 21  1  0  0  0  0
 24 23  2  0  0  0  0
 25 23  1  0  0  0  0
M  END
>  <MODEL>
6

>  <REMARK>
 VINA RESULT:      -7.4      3.428      5.419
  Name = 
  6 active torsions:
  status: ('A' for Active; 'I' for Inactive)
    1  A    between atoms: C_2  and  C_21
    2  A    between atoms: C_5  and  C_22
    3  A    between atoms: C_6  and  C_15
    4  A    between atoms: C_6  and  C_23
    5  A    between atoms: C_10  and  C_11
    6  A    between atoms: C_15  and  C_21
                            x       y       z     vdW  Elec       q    Type
                         _______ _______ _______ _____ _____    ______ ____

>  <TORSDO>
F 6

$$$$
=
 OpenBabel11052422173D

 25 27  0  0  1  0  0  0  0  0999 V2000
  161.5480  207.8110  150.6900 N   0  0  0  0  0  0  0  0  0  0  0  0
  161.4240  206.7060  149.9020 C   0  0  0  0  0  0  0  0  0  0  0  0
  162.2680  209.1440  148.8570 C   0  0  0  0  0  3  0  0  0  0  0  0
  161.3320  208.0210  152.0050 C   0  0  0  0  0  0  0  0  0  0  0  0
  162.1530  208.0520  148.0470 N   0  0  0  0  0  0  0  0  0  0  0  0
  161.6120  209.3520  152.2620 C   0  0  0  0  0  0  0  0  0  0  0  0
  161.6280  205.7190  147.6920 C   0  0  0  0  0  0  0  0  0  0  0  0
  161.9530  205.8080  146.2390 C   0  0  0  0  0  1  0  0  0  0  0  0
  161.0070  205.4680  150.3970 C   0  0  0  0  0  3  0  0  0  0  0  0
  161.9540  209.0000  150.2050 C   0  0  0  0  0  0  0  0  0  0  0  0
  162.0100  209.9780  151.1310 N   0  0  0  0  0  0  0  0  0  0  0  0
  161.2170  204.5290  148.2080 N   0  0  0  0  0  0  0  0  0  0  0  0
  160.9030  204.3820  149.5240 C   0  0  0  0  0  0  0  0  0  0  0  0
  161.7410  206.8390  148.5300 C   0  0  0  0  0  0  0  0  0  0  0  0
  161.4080  210.5400  154.5600 N   0  0  0  0  0  0  0  0  0  0  0  0
  161.4990  210.0100  153.5360 C   0  0  0  0  0  0  0  0  0  0  0  0
  161.9640  206.2100  153.5550 C   0  0  0  0  0  1  0  0  0  0  0  0
  160.8130  207.0160  152.9860 C   0  0  0  0  0  2  0  0  0  0  0  0
  160.4800  203.0520  150.0420 C   0  0  0  0  0  2  0  0  0  0  0  0
  159.8110  202.2560  148.9350 C   0  0  0  0  0  2  0  0  0  0  0  0
  160.5650  200.9600  148.6820 C   0  0  2  0  0  3  0  0  0  0  0  0
  161.7520  200.8690  149.6210 C   0  0  0  0  0  1  0  0  0  0  0  0
  161.0240  200.8690  147.2610 C   0  0  0  0  0  0  0  0  0  0  0  0
  160.8310  201.9470  146.4080 O   0  0  0  0  0  0  0  0  0  0  0  0
  161.5790  199.8230  146.8300 O   0  0  0  0  0  1  0  0  0  0  0  0
  1  4  1  0  0  0  0
  2  9  1  0  0  0  0
  2  1  1  0  0  0  0
  3 10  1  0  0  0  0
  4  6  2  0  0  0  0
  4 18  1  0  0  0  0
  5 14  1  0  0  0  0
  5  3  2  0  0  0  0
  6 16  1  0  0  0  0
  7 12  2  0  0  0  0
  7 14  1  0  0  0  0
  8  7  1  0  0  0  0
 10  1  1  0  0  0  0
 10 11  2  0  0  0  0
 11  6  1  0  0  0  0
 12 13  1  0  0  0  0
 13 19  1  0  0  0  0
 13  9  2  0  0  0  0
 14  2  2  0  0  0  0
 16 15  3  0  0  0  0
 18 17  1  0  0  0  0
 20 19  1  0  0  0  0
 21 20  1  0  0  0  0
 21 22  1  1  0  0  0
 23 21  1  0  0  0  0
 24 23  2  0  0  0  0
 25 23  1  0  0  0  0
M  END
>  <MODEL>
7

>  <REMARK>
 VINA RESULT:      -7.4      4.248      7.481
  Name = 
  6 active torsions:
  status: ('A' for Active; 'I' for Inactive)
    1  A    between atoms: C_2  and  C_21
    2  A    between atoms: C_5  and  C_22
    3  A    between atoms: C_6  and  C_15
    4  A    between atoms: C_6  and  C_23
    5  A    between atoms: C_10  and  C_11
    6  A    between atoms: C_15  and  C_21
                            x       y       z     vdW  Elec       q    Type
                         _______ _______ _______ _____ _____    ______ ____

>  <TORSDO>
F 6

$$$$
=
 OpenBabel11052422173D

 25 27  0  0  1  0  0  0  0  0999 V2000
  161.4340  208.5850  152.9040 N   0  0  0  0  0  0  0  0  0  0  0  0
  161.3680  207.6580  151.9060 C   0  0  0  0  0  0  0  0  0  0  0  0
  161.9620  210.3250  151.3720 C   0  0  0  0  0  3  0  0  0  0  0  0
  161.2590  208.4990  154.2390 C   0  0  0  0  0  0  0  0  0  0  0  0
  161.9020  209.4170  150.3550 N   0  0  0  0  0  0  0  0  0  0  0  0
  161.4400  209.7690  154.7610 C   0  0  0  0  0  0  0  0  0  0  0  0
  161.5560  207.1700  149.5350 C   0  0  0  0  0  0  0  0  0  0  0  0
  161.8110  207.5840  148.1250 C   0  0  0  0  0  1  0  0  0  0  0  0
  161.0760  206.3120  152.1430 C   0  0  0  0  0  3  0  0  0  0  0  0
  161.7200  209.8790  152.6670 C   0  0  0  0  0  0  0  0  0  0  0  0
  161.7350  210.6470  153.7760 N   0  0  0  0  0  0  0  0  0  0  0  0
  161.2680  205.8670  149.8020 N   0  0  0  0  0  0  0  0  0  0  0  0
  161.0250  205.4240  151.0650 C   0  0  0  0  0  0  0  0  0  0  0  0
  161.6130  208.0990  150.5840 C   0  0  0  0  0  0  0  0  0  0  0  0
  161.2360  210.4350  157.2610 N   0  0  0  0  0  0  0  0  0  0  0  0
  161.3270  210.1380  156.1470 C   0  0  0  0  0  0  0  0  0  0  0  0
  159.5340  207.4920  155.6860 C   0  0  0  0  0  1  0  0  0  0  0  0
  160.8680  207.2720  155.0010 C   0  0  0  0  0  2  0  0  0  0  0  0
  160.7360  203.9840  151.3050 C   0  0  0  0  0  2  0  0  0  0  0  0
  161.5400  203.1280  150.3420 C   0  0  0  0  0  2  0  0  0  0  0  0
  160.6180  202.4110  149.3700 C   0  0  2  0  0  3  0  0  0  0  0  0
  160.5330  200.9430  149.7350 C   0  0  0  0  0  1  0  0  0  0  0  0
  161.0910  202.5650  147.9590 C   0  0  0  0  0  0  0  0  0  0  0  0
  161.8970  203.6440  147.6200 O   0  0  0  0  0  1  0  0  0  0  0  0
  160.7640  201.7290  147.0750 O   0  0  0  0  0  0  0  0  0  0  0  0
  1  4  1  0  0  0  0
  2  9  1  0  0  0  0
  2  1  1  0  0  0  0
  3 10  1  0  0  0  0
  4  6  2  0  0  0  0
  4 18  1  0  0  0  0
  5 14  1  0  0  0  0
  5  3  2  0  0  0  0
  6 16  1  0  0  0  0
  7 12  2  0  0  0  0
  7 14  1  0  0  0  0
  8  7  1  0  0  0  0
 10  1  1  0  0  0  0
 10 11  2  0  0  0  0
 11  6  1  0  0  0  0
 12 13  1  0  0  0  0
 13 19  1  0  0  0  0
 13  9  2  0  0  0  0
 14  2  2  0  0  0  0
 16 15  3  0  0  0  0
 18 17  1  0  0  0  0
 20 19  1  0  0  0  0
 21 22  1  1  0  0  0
 21 20  1  0  0  0  0
 23 21  1  0  0  0  0
 24 23  1  0  0  0  0
 25 23  2  0  0  0  0
M  END
>  <MODEL>
8

>  <REMARK>
 VINA RESULT:      -7.3      3.835      7.467
  Name = 
  6 active torsions:
  status: ('A' for Active; 'I' for Inactive)
    1  A    between atoms: C_2  and  C_21
    2  A    between atoms: C_5  and  C_22
    3  A    between atoms: C_6  and  C_15
    4  A    between atoms: C_6  and  C_23
    5  A    between atoms: C_10  and  C_11
    6  A    between atoms: C_15  and  C_21
                            x       y       z     vdW  Elec       q    Type
                         _______ _______ _______ _____ _____    ______ ____

>  <TORSDO>
F 6

$$$$
=
 OpenBabel11052422173D

 25 27  0  0  1  0  0  0  0  0999 V2000
  161.1710  205.8280  150.6470 N   0  0  0  0  0  0  0  0  0  0  0  0
  161.1030  206.7950  151.6050 C   0  0  0  0  0  0  0  0  0  0  0  0
  161.0470  204.0920  152.2680 C   0  0  0  0  0  3  0  0  0  0  0  0
  161.2690  205.8830  149.3020 C   0  0  0  0  0  0  0  0  0  0  0  0
  160.9790  205.0410  153.2450 N   0  0  0  0  0  0  0  0  0  0  0  0
  161.2890  204.5800  148.8370 C   0  0  0  0  0  0  0  0  0  0  0  0
  160.9370  207.3480  153.9640 C   0  0  0  0  0  0  0  0  0  0  0  0
  160.8350  206.9590  155.4000 C   0  0  0  0  0  1  0  0  0  0  0  0
  161.1330  208.1590  151.3050 C   0  0  0  0  0  3  0  0  0  0  0  0
  161.1450  204.5150  150.9460 C   0  0  0  0  0  0  0  0  0  0  0  0
  161.2160  203.7070  149.8670 N   0  0  0  0  0  0  0  0  0  0  0  0
  160.9670  208.6680  153.6350 N   0  0  0  0  0  0  0  0  0  0  0  0
  161.0580  209.0900  152.3450 C   0  0  0  0  0  0  0  0  0  0  0  0
  161.0040  206.3780  152.9530 C   0  0  0  0  0  0  0  0  0  0  0  0
  161.4320  203.8490  146.3500 N   0  0  0  0  0  0  0  0  0  0  0  0
  161.3680  204.1750  147.4580 C   0  0  0  0  0  0  0  0  0  0  0  0
  162.7050  207.5940  148.2570 C   0  0  0  0  0  1  0  0  0  0  0  0
  161.2790  207.1260  148.4690 C   0  0  0  0  0  2  0  0  0  0  0  0
  161.1090  210.5460  152.0410 C   0  0  0  0  0  2  0  0  0  0  0  0
  160.4150  211.3280  153.1420 C   0  0  0  0  0  2  0  0  0  0  0  0
  158.9180  211.3950  152.8840 C   0  0  2  0  0  3  0  0  0  0  0  0
  158.6040  212.5960  152.0130 C   0  0  0  0  0  1  0  0  0  0  0  0
  158.1490  211.4730  154.1650 C   0  0  0  0  0  0  0  0  0  0  0  0
  158.5290  210.6820  155.2410 O   0  0  0  0  0  1  0  0  0  0  0  0
  157.1600  212.2440  154.2770 O   0  0  0  0  0  0  0  0  0  0  0  0
  1 10  1  0  0  0  0
  1  2  1  0  0  0  0
  2 14  1  0  0  0  0
  3  5  2  0  0  0  0
  4  1  1  0  0  0  0
  6  4  2  0  0  0  0
  6 11  1  0  0  0  0
  7  8  1  0  0  0  0
  9  2  2  0  0  0  0
  9 13  1  0  0  0  0
 10  3  1  0  0  0  0
 11 10  2  0  0  0  0
 12  7  1  0  0  0  0
 13 12  2  0  0  0  0
 14  5  1  0  0  0  0
 14  7  2  0  0  0  0
 15 16  3  0  0  0  0
 16  6  1  0  0  0  0
 17 18  1  0  0  0  0
 18  4  1  0  0  0  0
 19 13  1  0  0  0  0
 19 20  1  0  0  0  0
 21 22  1  6  0  0  0
 21 20  1  0  0  0  0
 21 23  1  0  0  0  0
 23 25  2  0  0  0  0
 23 24  1  0  0  0  0
M  END
>  <MODEL>
9

>  <REMARK>
 VINA RESULT:      -7.2      2.351      4.056
  Name = 
  6 active torsions:
  status: ('A' for Active; 'I' for Inactive)
    1  A    between atoms: C_2  and  C_21
    2  A    between atoms: C_5  and  C_22
    3  A    between atoms: C_6  and  C_15
    4  A    between atoms: C_6  and  C_23
    5  A    between atoms: C_10  and  C_11
    6  A    between atoms: C_15  and  C_21
                            x       y       z     vdW  Elec       q    Type
                         _______ _______ _______ _____ _____    ______ ____

>  <TORSDO>
F 6

$$$$
