=
 OpenBabel11062410383D

 32 37  0  0  1  0  0  0  0  0999 V2000
  160.8320  208.7090  154.0480 C   0  0  0  0  0  0  0  0  0  0  0  0
  161.4490  206.4630  150.4390 C   0  0  0  0  0  0  0  0  0  0  0  0
  160.7560  201.8990  152.2710 O   0  0  0  0  0  0  0  0  0  0  0  0
  161.0700  201.4340  150.9360 C   0  0  0  0  0  2  0  0  0  0  0  0
  161.3320  206.6720  147.7800 C   0  0  0  0  0  0  0  0  0  0  0  0
  161.1530  206.0010  146.6060 C   0  0  0  0  0  0  0  0  0  0  0  0
  161.9090  208.5900  151.7780 C   0  0  2  0  0  3  0  0  0  0  0  0
  161.3230  206.4510  152.9190 C   0  0  0  0  0  2  0  0  0  0  0  0
  161.1000  204.3570  144.2510 C   0  0  0  0  0  3  0  0  0  0  0  0
  161.4480  208.5040  155.2380 C   0  0  0  0  0  2  0  0  0  0  0  0
  161.0340  203.2780  152.5280 C   0  0  0  0  0  2  0  0  0  0  0  0
  161.2050  205.7300  151.5830 C   0  0  0  0  0  0  0  0  0  0  0  0
  161.1020  204.3080  151.4140 C   0  0  0  0  0  0  0  0  0  0  0  0
  161.1720  204.5310  149.0540 C   0  0  0  0  0  0  0  0  0  0  0  0
  161.0100  205.8870  144.2090 C   0  0  0  0  0  3  0  0  0  0  0  0
  160.4990  210.5820  152.4320 C   0  0  0  0  0  2  0  0  0  0  0  0
  161.0120  207.9300  152.8330 C   0  0  1  0  0  3  0  0  0  0  0  0
  161.0280  206.6690  145.2740 C   0  0  0  0  0  2  0  0  0  0  0  0
  161.7420  210.1190  151.7750 C   0  0  0  0  0  2  0  0  0  0  0  0
  160.3030  210.0340  153.7600 N   0  0  0  0  0  0  0  0  0  0  0  0
  160.8690  202.4180  149.9280 O   0  0  0  0  0  0  0  0  0  0  0  0
  161.0850  203.8100  150.1430 C   0  0  0  0  0  0  0  0  0  0  0  0
  161.3920  203.8710  147.8010 O   0  0  0  0  0  0  0  0  0  0  0  0
  161.4340  208.0120  150.4640 C   0  0  0  0  0  2  0  0  0  0  0  0
  161.5320  208.0650  147.7580 O   0  0  0  0  0  1  0  0  0  0  0  0
  161.0700  203.6730  145.3840 C   0  0  0  0  0  3  0  0  0  0  0  0
  161.2520  205.9380  149.0820 C   0  0  0  0  0  0  0  0  0  0  0  0
  160.9170  204.4680  146.6520 C   0  0  0  0  0  0  0  0  0  0  0  0
  159.4830  210.9190  154.6940 C   0  0  0  0  0  0  0  0  0  0  0  0
  158.8120  210.2190  155.9130 C   0  0  0  0  0  1  0  0  0  0  0  0
  160.3550  212.0000  155.4020 C   0  0  0  0  0  1  0  0  0  0  0  0
  158.4020  211.6970  153.9860 C   0  0  0  0  0  1  0  0  0  0  0  0
  1 10  2  0  0  0  0
  2 24  1  0  0  0  0
  2 12  1  0  0  0  0
  3 11  1  0  0  0  0
  4  3  1  0  0  0  0
  5 27  1  0  0  0  0
  6 28  1  0  0  0  0
  6  5  2  0  0  0  0
  7 24  1  6  0  0  0
  7 17  1  0  0  0  0
  9 26  1  0  0  0  0
 12  8  1  0  0  0  0
 13 12  2  0  0  0  0
 13 11  1  0  0  0  0
 14 27  1  0  0  0  0
 14 22  2  0  0  0  0
 15  9  2  0  0  0  0
 15 18  1  0  0  0  0
 16 20  1  0  0  0  0
 17  8  1  1  0  0  0
 17  1  1  0  0  0  0
 18  6  1  0  0  0  0
 19  7  1  0  0  0  0
 19 16  1  0  0  0  0
 20  1  1  0  0  0  0
 20 29  1  0  0  0  0
 21 22  1  0  0  0  0
 21  4  1  0  0  0  0
 22 13  1  0  0  0  0
 23 14  1  0  0  0  0
 25  5  1  0  0  0  0
 26 28  2  0  0  0  0
 27  2  2  0  0  0  0
 28 23  1  0  0  0  0
 29 31  1  0  0  0  0
 29 30  1  0  0  0  0
 32 29  1  0  0  0  0
M  END
>  <MODEL>
1

>  <REMARK>
 VINA RESULT:      -9.5      0.000      0.000
  Name = 
  1 active torsions:
  status: ('A' for Active; 'I' for Inactive)
    1  A    between atoms: C_1  and  N_24
                            x       y       z     vdW  Elec       q    Type
                         _______ _______ _______ _____ _____    ______ ____

>  <TORSDO>
F 1

$$$$
=
 OpenBabel11062410383D

 32 37  0  0  1  0  0  0  0  0999 V2000
  161.5370  204.1850  148.8020 C   0  0  0  0  0  0  0  0  0  0  0  0
  161.5690  207.5010  151.5310 C   0  0  0  0  0  0  0  0  0  0  0  0
  161.7000  211.1970  148.2170 O   0  0  0  0  0  0  0  0  0  0  0  0
  161.7620  212.0780  149.3640 C   0  0  0  0  0  2  0  0  0  0  0  0
  160.8680  208.1960  154.0120 C   0  0  0  0  0  0  0  0  0  0  0  0
  160.5030  209.2240  154.8320 C   0  0  0  0  0  0  0  0  0  0  0  0
  162.1100  205.0420  151.0960 C   0  0  2  0  0  3  0  0  0  0  0  0
  161.9780  206.6840  149.2230 C   0  0  0  0  0  2  0  0  0  0  0  0
  160.0970  211.5630  156.4490 C   0  0  0  0  0  3  0  0  0  0  0  0
  162.4100  203.9710  147.7860 C   0  0  0  0  0  2  0  0  0  0  0  0
  161.9010  209.8080  148.4910 C   0  0  0  0  0  2  0  0  0  0  0  0
  161.6420  207.8120  150.1890 C   0  0  0  0  0  0  0  0  0  0  0  0
  161.6350  209.2100  149.8610 C   0  0  0  0  0  0  0  0  0  0  0  0
  161.1790  209.7890  152.1150 C   0  0  0  0  0  0  0  0  0  0  0  0
  159.8620  210.1360  156.9610 C   0  0  0  0  0  3  0  0  0  0  0  0
  160.6990  202.9670  150.8120 C   0  0  0  0  0  2  0  0  0  0  0  0
  161.5230  205.3230  149.7070 C   0  0  1  0  0  3  0  0  0  0  0  0
  160.0370  209.0430  156.2410 C   0  0  0  0  0  3  0  0  0  0  0  0
  161.8080  203.6050  151.5530 C   0  0  0  0  0  2  0  0  0  0  0  0
  160.8410  203.0410  149.3700 N   0  0  0  0  0  0  0  0  0  0  0  0
  161.2620  211.4910  150.5610 O   0  0  0  0  0  0  0  0  0  0  0  0
  161.3920  210.1050  150.8630 C   0  0  0  0  0  0  0  0  0  0  0  0
  161.1840  210.8280  153.1030 O   0  0  0  0  0  0  0  0  0  0  0  0
  161.4190  206.0330  152.0050 C   0  0  0  0  0  2  0  0  0  0  0  0
  160.9310  206.8890  154.5280 O   0  0  0  0  0  1  0  0  0  0  0  0
  160.3720  211.8280  155.1820 C   0  0  0  0  0  3  0  0  0  0  0  0
  161.1350  208.4530  152.5610 C   0  0  0  0  0  0  0  0  0  0  0  0
  160.4230  210.6570  154.2390 C   0  0  2  0  0  3  0  0  0  0  0  0
  160.1630  201.9050  148.6090 C   0  0  0  0  0  0  0  0  0  0  0  0
  159.8020  202.1800  147.1190 C   0  0  0  0  0  1  0  0  0  0  0  0
  161.0790  200.6510  148.4770 C   0  0  0  0  0  1  0  0  0  0  0  0
  158.9090  201.4010  149.2790 C   0  0  0  0  0  1  0  0  0  0  0  0
  1 20  1  0  0  0  0
  1 17  1  0  0  0  0
  2 24  1  0  0  0  0
  2 27  1  0  0  0  0
  3 11  1  0  0  0  0
  3  4  1  0  0  0  0
  4 21  1  0  0  0  0
  5 25  1  0  0  0  0
  5  6  2  0  0  0  0
  6 18  1  0  0  0  0
  7 19  1  1  0  0  0
  7 24  1  0  0  0  0
  8 12  1  0  0  0  0
  9 15  1  0  0  0  0
 10  1  2  0  0  0  0
 11 13  1  0  0  0  0
 12  2  2  0  0  0  0
 13 12  1  0  0  0  0
 13 22  2  0  0  0  0
 14 27  2  0  0  0  0
 14 23  1  0  0  0  0
 16 19  1  0  0  0  0
 17  8  1  6  0  0  0
 17  7  1  0  0  0  0
 18 15  2  0  0  0  0
 20 16  1  0  0  0  0
 21 22  1  0  0  0  0
 22 14  1  0  0  0  0
 23 28  1  0  0  0  0
 26  9  2  0  0  0  0
 27  5  1  0  0  0  0
 28  6  1  0  0  0  0
 28 26  1  1  0  0  0
 29 32  1  0  0  0  0
 29 20  1  0  0  0  0
 30 29  1  0  0  0  0
 31 29  1  0  0  0  0
M  END
>  <MODEL>
2

>  <REMARK>
 VINA RESULT:      -8.0      3.046      8.700
  Name = 
  1 active torsions:
  status: ('A' for Active; 'I' for Inactive)
    1  A    between atoms: C_1  and  N_24
                            x       y       z     vdW  Elec       q    Type
                         _______ _______ _______ _____ _____    ______ ____

>  <TORSDO>
F 1

$$$$
