=
 OpenBabel11052421543D

 30 33  0  0  1  0  0  0  0  0999 V2000
  159.6700  210.0310  152.7610 N   0  0  0  0  0  0  0  0  0  0  0  0
  159.0850  211.9510  153.9670 C   0  0  0  0  0  0  0  0  0  0  0  0
  160.3700  208.7690  152.5130 C   0  0  2  0  0  3  0  0  0  0  0  0
  159.1720  212.7020  155.1410 C   0  0  0  0  0  3  0  0  0  0  0  0
  158.3230  212.5190  152.8160 C   0  0  0  0  0  1  0  0  0  0  0  0
  161.0040  208.9730  154.9480 C   0  0  0  0  0  0  0  0  0  0  0  0
  159.8870  212.2190  156.2350 C   0  0  0  0  0  3  0  0  0  0  0  0
  159.7290  210.7010  153.8770 C   0  0  0  0  0  0  0  0  0  0  0  0
  160.8660  208.1770  153.7570 N   0  0  0  0  0  0  0  0  0  0  0  0
  161.2070  206.7620  153.7640 C   0  0  0  0  0  1  0  0  0  0  0  0
  160.5120  210.9750  156.1650 C   0  0  0  0  0  3  0  0  0  0  0  0
  160.4390  210.1960  154.9960 C   0  0  0  0  0  0  0  0  0  0  0  0
  161.4970  208.9740  151.4780 C   0  0  1  0  0  0  0  0  0  0  0  0
  162.5030  207.8450  151.3840 C   0  0  0  0  0  2  0  0  0  0  0  0
  161.5050  208.0560  150.2550 C   0  0  1  0  0  3  0  0  0  0  0  0
  163.4610  210.3340  151.2250 O   0  0  0  0  0  1  0  0  0  0  0  0
  162.0650  210.3670  151.1680 C   0  0  1  0  0  3  0  0  0  0  0  0
  160.8350  212.2050  149.9790 C   0  0  0  0  0  2  0  0  0  0  0  0
  162.7060  211.1680  148.9850 O   0  0  0  0  0  0  0  0  0  0  0  0
  161.6050  210.9120  149.8160 C   0  0  1  0  0  3  0  0  0  0  0  0
  161.2480  213.0160  148.7890 C   0  0  0  0  0  2  0  0  0  0  0  0
  162.2530  212.1380  148.0800 C   0  0  0  0  0  2  0  0  0  0  0  0
  160.4560  206.9530  150.3010 C   0  0  0  0  0  2  0  0  0  0  0  0
  160.7680  205.9460  149.3020 N   0  0  0  0  0  2  0  0  0  0  0  0
  160.5830  204.1570  150.7910 O   0  0  0  0  0  0  0  0  0  0  0  0
  160.8370  204.5570  149.6240 C   0  0  0  0  0  0  0  0  0  0  0  0
  161.2070  203.5750  148.5710 C   0  0  0  0  0  1  0  0  0  0  0  0
  161.7290  208.4060  156.1360 C   0  0  0  0  0  2  0  0  0  0  0  0
  160.8600  208.3170  157.2230 O   0  0  0  0  0  0  0  0  0  0  0  0
  160.4510  206.9840  157.2320 C   0  0  0  0  0  1  0  0  0  0  0  0
  1  8  2  0  0  0  0
  2  4  2  0  0  0  0
  3  1  1  1  0  0  0
  3  9  1  0  0  0  0
  4  7  1  0  0  0  0
  5  2  1  0  0  0  0
  6 12  2  0  0  0  0
  6 28  1  0  0  0  0
  8  2  1  0  0  0  0
  8 12  1  0  0  0  0
  9 10  1  0  0  0  0
  9  6  1  0  0  0  0
 11  7  2  0  0  0  0
 12 11  1  0  0  0  0
 13 17  1  6  0  0  0
 13  3  1  0  0  0  0
 14 13  1  0  0  0  0
 15 23  1  1  0  0  0
 15 14  1  0  0  0  0
 15 13  1  0  0  0  0
 17 16  1  6  0  0  0
 19 20  1  0  0  0  0
 20 18  1  0  0  0  0
 20 17  1  1  0  0  0
 21 18  1  0  0  0  0
 22 21  1  0  0  0  0
 22 19  1  0  0  0  0
 24 26  1  0  0  0  0
 24 23  1  0  0  0  0
 26 25  2  0  0  0  0
 27 26  1  0  0  0  0
 28 29  1  0  0  0  0
 29 30  1  0  0  0  0
M  END
>  <MODEL>
1

>  <REMARK>
 VINA RESULT:      -4.8      0.000      0.000
  Name = 
  7 active torsions:
  status: ('A' for Active; 'I' for Inactive)
    1  A    between atoms: C_3  and  O_11
    2  A    between atoms: C_3  and  C_19
    3  A    between atoms: C_4  and  C_13
    4  A    between atoms: N_7  and  C_16
    5  A    between atoms: C_8  and  C_12
    6  A    between atoms: C_8  and  C_13
    7  A    between atoms: C_16  and  C_30
                            x       y       z     vdW  Elec       q    Type
                         _______ _______ _______ _____ _____    ______ ____

>  <TORSDO>
F 7

$$$$
=
 OpenBabel11052421543D

 30 33  0  0  1  0  0  0  0  0999 V2000
  161.1410  209.6710  152.4580 N   0  0  0  0  0  0  0  0  0  0  0  0
  161.1940  207.4990  151.5840 C   0  0  0  0  0  0  0  0  0  0  0  0
  161.0820  210.6880  153.5080 C   0  0  2  0  0  3  0  0  0  0  0  0
  161.2560  206.1210  151.8010 C   0  0  0  0  0  3  0  0  0  0  0  0
  161.0540  207.9900  150.1820 C   0  0  0  0  0  1  0  0  0  0  0  0
  161.4880  208.7220  155.0370 C   0  0  0  0  0  0  0  0  0  0  0  0
  161.3710  205.6160  153.0950 C   0  0  0  0  0  3  0  0  0  0  0  0
  161.2390  208.3900  152.6750 C   0  0  0  0  0  0  0  0  0  0  0  0
  161.4800  210.1430  154.8070 N   0  0  0  0  0  0  0  0  0  0  0  0
  161.8790  211.0700  155.8560 C   0  0  0  0  0  1  0  0  0  0  0  0
  161.4350  206.4880  154.1800 C   0  0  0  0  0  3  0  0  0  0  0  0
  161.3780  207.8810  153.9900 C   0  0  0  0  0  0  0  0  0  0  0  0
  159.6790  211.3320  153.5550 C   0  0  1  0  0  0  0  0  0  0  0  0
  159.6620  212.8390  153.7070 C   0  0  0  0  0  2  0  0  0  0  0  0
  159.2700  212.2150  152.3760 C   0  0  1  0  0  3  0  0  0  0  0  0
  158.9320  209.6340  155.0810 O   0  0  0  0  0  1  0  0  0  0  0  0
  158.4810  210.6100  154.1890 C   0  0  1  0  0  3  0  0  0  0  0  0
  156.1140  210.9900  154.9350 C   0  0  0  0  0  2  0  0  0  0  0  0
  157.9240  211.7960  156.2140 O   0  0  0  0  0  0  0  0  0  0  0  0
  157.5140  211.5620  154.8930 C   0  0  1  0  0  3  0  0  0  0  0  0
  155.5920  211.4280  156.2700 C   0  0  0  0  0  2  0  0  0  0  0  0
  156.7540  212.1660  156.8910 C   0  0  0  0  0  2  0  0  0  0  0  0
  160.3820  212.4520  151.3640 C   0  0  0  0  0  2  0  0  0  0  0  0
  159.9040  213.3400  150.3180 N   0  0  0  0  0  2  0  0  0  0  0  0
  161.4580  212.6030  148.7370 O   0  0  0  0  0  0  0  0  0  0  0  0
  160.5080  213.3790  149.0240 C   0  0  0  0  0  0  0  0  0  0  0  0
  160.0070  214.3410  148.0070 C   0  0  0  0  0  1  0  0  0  0  0  0
  161.6730  208.2020  156.4360 C   0  0  0  0  0  2  0  0  0  0  0  0
  160.4630  208.2610  157.1260 O   0  0  0  0  0  0  0  0  0  0  0  0
  160.0730  206.9290  157.2600 C   0  0  0  0  0  1  0  0  0  0  0  0
  1  8  2  0  0  0  0
  2  4  2  0  0  0  0
  2  8  1  0  0  0  0
  3  1  1  6  0  0  0
  3 13  1  0  0  0  0
  3  9  1  0  0  0  0
  4  7  1  0  0  0  0
  5  2  1  0  0  0  0
  6 28  1  0  0  0  0
  7 11  2  0  0  0  0
  8 12  1  0  0  0  0
  9  6  1  0  0  0  0
  9 10  1  0  0  0  0
 12 11  1  0  0  0  0
 12  6  2  0  0  0  0
 13 14  1  0  0  0  0
 13 17  1  1  0  0  0
 15 23  1  6  0  0  0
 15 13  1  0  0  0  0
 15 14  1  0  0  0  0
 17 16  1  1  0  0  0
 18 21  1  0  0  0  0
 19 22  1  0  0  0  0
 20 17  1  1  0  0  0
 20 18  1  0  0  0  0
 20 19  1  0  0  0  0
 21 22  1  0  0  0  0
 24 23  1  0  0  0  0
 25 26  2  0  0  0  0
 26 24  1  0  0  0  0
 27 26  1  0  0  0  0
 28 29  1  0  0  0  0
 29 30  1  0  0  0  0
M  END
>  <MODEL>
2

>  <REMARK>
 VINA RESULT:      -4.6      2.370      6.108
  Name = 
  7 active torsions:
  status: ('A' for Active; 'I' for Inactive)
    1  A    between atoms: C_3  and  O_11
    2  A    between atoms: C_3  and  C_19
    3  A    between atoms: C_4  and  C_13
    4  A    between atoms: N_7  and  C_16
    5  A    between atoms: C_8  and  C_12
    6  A    between atoms: C_8  and  C_13
    7  A    between atoms: C_16  and  C_30
                            x       y       z     vdW  Elec       q    Type
                         _______ _______ _______ _____ _____    ______ ____

>  <TORSDO>
F 7

$$$$
=
 OpenBabel11052421543D

 30 33  0  0  1  0  0  0  0  0999 V2000
  161.2520  210.5550  151.9110 N   0  0  0  0  0  0  0  0  0  0  0  0
  161.5540  208.4090  151.0250 C   0  0  0  0  0  0  0  0  0  0  0  0
  160.8500  211.5440  152.9130 C   0  0  2  0  0  3  0  0  0  0  0  0
  161.4960  207.0240  151.1930 C   0  0  0  0  0  3  0  0  0  0  0  0
  161.9350  208.9460  149.6860 C   0  0  0  0  0  1  0  0  0  0  0  0
  160.6310  209.5200  154.4050 C   0  0  0  0  0  0  0  0  0  0  0  0
  161.1280  206.4780  152.4210 C   0  0  0  0  0  3  0  0  0  0  0  0
  161.2310  209.2660  152.0960 C   0  0  0  0  0  0  0  0  0  0  0  0
  160.7440  210.9460  154.2450 N   0  0  0  0  0  0  0  0  0  0  0  0
  160.7690  211.8260  155.4050 C   0  0  0  0  0  1  0  0  0  0  0  0
  160.8260  207.3150  153.4930 C   0  0  0  0  0  3  0  0  0  0  0  0
  160.8780  208.7140  153.3530 C   0  0  0  0  0  0  0  0  0  0  0  0
  159.5420  212.2420  152.4860 C   0  0  1  0  0  0  0  0  0  0  0  0
  159.6320  213.7450  152.3210 C   0  0  0  0  0  2  0  0  0  0  0  0
  159.4990  212.8630  151.0890 C   0  0  1  0  0  3  0  0  0  0  0  0
  158.2120  210.3420  153.1110 O   0  0  0  0  0  1  0  0  0  0  0  0
  158.1670  211.7280  152.9400 C   0  0  1  0  0  3  0  0  0  0  0  0
  156.4000  213.1890  153.9650 C   0  0  0  0  0  2  0  0  0  0  0  0
  157.3940  211.4470  155.2070 O   0  0  0  0  0  0  0  0  0  0  0  0
  157.6690  212.4030  154.2170 C   0  0  1  0  0  3  0  0  0  0  0  0
  155.6020  212.9860  155.2170 C   0  0  0  0  0  2  0  0  0  0  0  0
  156.4610  212.0650  156.0510 C   0  0  0  0  0  2  0  0  0  0  0  0
  160.8310  212.8260  150.3530 C   0  0  0  0  0  2  0  0  0  0  0  0
  160.6040  213.0180  148.9310 N   0  0  0  0  0  2  0  0  0  0  0  0
  162.6870  212.1680  148.3030 O   0  0  0  0  0  0  0  0  0  0  0  0
  161.5930  212.6840  147.9560 C   0  0  0  0  0  0  0  0  0  0  0  0
  161.3240  212.9460  146.5170 C   0  0  0  0  0  1  0  0  0  0  0  0
  160.2900  208.9530  155.7550 C   0  0  0  0  0  2  0  0  0  0  0  0
  161.4610  208.6380  156.4440 O   0  0  0  0  0  0  0  0  0  0  0  0
  161.1060  207.5650  157.2610 C   0  0  0  0  0  1  0  0  0  0  0  0
  1  8  2  0  0  0  0
  2  4  2  0  0  0  0
  2  8  1  0  0  0  0
  3  1  1  6  0  0  0
  3  9  1  0  0  0  0
  4  7  1  0  0  0  0
  5  2  1  0  0  0  0
  6 28  1  0  0  0  0
  7 11  2  0  0  0  0
  8 12  1  0  0  0  0
  9  6  1  0  0  0  0
  9 10  1  0  0  0  0
 12 11  1  0  0  0  0
 12  6  2  0  0  0  0
 13  3  1  0  0  0  0
 13 17  1  1  0  0  0
 14 13  1  0  0  0  0
 15 23  1  6  0  0  0
 15 14  1  0  0  0  0
 15 13  1  0  0  0  0
 17 16  1  1  0  0  0
 18 20  1  0  0  0  0
 18 21  1  0  0  0  0
 19 22  1  0  0  0  0
 20 17  1  6  0  0  0
 20 19  1  0  0  0  0
 21 22  1  0  0  0  0
 24 23  1  0  0  0  0
 26 25  2  0  0  0  0
 26 24  1  0  0  0  0
 27 26  1  0  0  0  0
 28 29  1  0  0  0  0
 29 30  1  0  0  0  0
M  END
>  <MODEL>
3

>  <REMARK>
 VINA RESULT:      -4.5      2.329      5.837
  Name = 
  7 active torsions:
  status: ('A' for Active; 'I' for Inactive)
    1  A    between atoms: C_3  and  O_11
    2  A    between atoms: C_3  and  C_19
    3  A    between atoms: C_4  and  C_13
    4  A    between atoms: N_7  and  C_16
    5  A    between atoms: C_8  and  C_12
    6  A    between atoms: C_8  and  C_13
    7  A    between atoms: C_16  and  C_30
                            x       y       z     vdW  Elec       q    Type
                         _______ _______ _______ _____ _____    ______ ____

>  <TORSDO>
F 7

$$$$
=
 OpenBabel11052421543D

 30 33  0  0  1  0  0  0  0  0999 V2000
  160.4160  204.6470  149.8350 N   0  0  0  0  0  0  0  0  0  0  0  0
  160.3680  202.3110  149.9780 C   0  0  0  0  0  0  0  0  0  0  0  0
  160.7930  205.9450  149.2730 C   0  0  2  0  0  3  0  0  0  0  0  0
  160.7060  201.0690  149.4350 C   0  0  0  0  0  3  0  0  0  0  0  0
  159.6730  202.3410  151.2990 C   0  0  0  0  0  1  0  0  0  0  0  0
  161.6280  204.5450  147.3460 C   0  0  0  0  0  0  0  0  0  0  0  0
  161.3690  200.9930  148.2120 C   0  0  0  0  0  3  0  0  0  0  0  0
  160.7040  203.4970  149.2960 C   0  0  0  0  0  0  0  0  0  0  0  0
  161.2300  205.8200  147.8810 N   0  0  0  0  0  0  0  0  0  0  0  0
  161.2410  207.0140  147.0480 C   0  0  0  0  0  1  0  0  0  0  0  0
  161.6900  202.1580  147.5190 C   0  0  0  0  0  3  0  0  0  0  0  0
  161.3590  203.4220  148.0410 C   0  0  0  0  0  0  0  0  0  0  0  0
  161.8600  206.6250  150.1570 C   0  0  1  0  0  0  0  0  0  0  0  0
  163.0970  207.1060  149.4260 C   0  0  0  0  0  2  0  0  0  0  0  0
  162.0940  208.1220  149.9520 C   0  0  1  0  0  3  0  0  0  0  0  0
  163.4270  206.4530  151.9700 O   0  0  0  0  0  1  0  0  0  0  0  0
  162.1030  206.1880  151.6100 C   0  0  1  0  0  3  0  0  0  0  0  0
  161.0720  206.0700  153.8960 C   0  0  0  0  0  2  0  0  0  0  0  0
  161.5660  208.1520  152.9030 O   0  0  0  0  0  0  0  0  0  0  0  0
  161.1440  206.8490  152.6000 C   0  0  1  0  0  3  0  0  0  0  0  0
  160.9450  207.1360  154.9430 C   0  0  0  0  0  2  0  0  0  0  0  0
  161.0070  208.4260  154.1590 C   0  0  0  0  0  2  0  0  0  0  0  0
  161.3220  208.7160  148.7820 C   0  0  0  0  0  2  0  0  0  0  0  0
  162.0580  209.8440  148.2390 N   0  0  0  0  0  2  0  0  0  0  0  0
  161.5120  211.2770  150.0010 O   0  0  0  0  0  0  0  0  0  0  0  0
  162.0920  211.1120  148.8950 C   0  0  0  0  0  0  0  0  0  0  0  0
  162.8230  212.2450  148.2690 C   0  0  0  0  0  1  0  0  0  0  0  0
  162.2900  204.4840  145.9970 C   0  0  0  0  0  2  0  0  0  0  0  0
  161.3460  204.1660  145.0220 O   0  0  0  0  0  0  0  0  0  0  0  0
  161.3790  205.2460  144.1410 C   0  0  0  0  0  1  0  0  0  0  0  0
  2  5  1  0  0  0  0
  3  1  1  1  0  0  0
  3 13  1  0  0  0  0
  4  2  2  0  0  0  0
  6  9  1  0  0  0  0
  6 12  2  0  0  0  0
  7  4  1  0  0  0  0
  8  1  2  0  0  0  0
  8  2  1  0  0  0  0
  9  3  1  0  0  0  0
 10  9  1  0  0  0  0
 11 12  1  0  0  0  0
 11  7  2  0  0  0  0
 12  8  1  0  0  0  0
 13 17  1  1  0  0  0
 14 15  1  0  0  0  0
 14 13  1  0  0  0  0
 15 23  1  6  0  0  0
 15 13  1  0  0  0  0
 17 16  1  1  0  0  0
 18 21  1  0  0  0  0
 19 22  1  0  0  0  0
 20 17  1  6  0  0  0
 20 19  1  0  0  0  0
 20 18  1  0  0  0  0
 22 21  1  0  0  0  0
 24 23  1  0  0  0  0
 24 26  1  0  0  0  0
 26 25  2  0  0  0  0
 27 26  1  0  0  0  0
 28  6  1  0  0  0  0
 29 28  1  0  0  0  0
 30 29  1  0  0  0  0
M  END
>  <MODEL>
4

>  <REMARK>
 VINA RESULT:      -4.2      2.849      8.281
  Name = 
  7 active torsions:
  status: ('A' for Active; 'I' for Inactive)
    1  A    between atoms: C_3  and  O_11
    2  A    between atoms: C_3  and  C_19
    3  A    between atoms: C_4  and  C_13
    4  A    between atoms: N_7  and  C_16
    5  A    between atoms: C_8  and  C_12
    6  A    between atoms: C_8  and  C_13
    7  A    between atoms: C_16  and  C_30
                            x       y       z     vdW  Elec       q    Type
                         _______ _______ _______ _____ _____    ______ ____

>  <TORSDO>
F 7

$$$$
=
 OpenBabel11052421543D

 30 33  0  0  1  0  0  0  0  0999 V2000
  162.0040  209.1100  152.1710 N   0  0  0  0  0  0  0  0  0  0  0  0
  162.0470  209.4650  149.8570 C   0  0  0  0  0  0  0  0  0  0  0  0
  161.6940  208.3910  153.4080 C   0  0  2  0  0  3  0  0  0  0  0  0
  161.7900  208.9950  148.5670 C   0  0  0  0  0  3  0  0  0  0  0  0
  162.5660  210.8550  150.0150 C   0  0  0  0  0  1  0  0  0  0  0  0
  161.1210  206.5060  151.8310 C   0  0  0  0  0  0  0  0  0  0  0  0
  161.2890  207.7100  148.3730 C   0  0  0  0  0  3  0  0  0  0  0  0
  161.7940  208.6430  150.9730 C   0  0  0  0  0  0  0  0  0  0  0  0
  161.4400  206.9720  153.1550 N   0  0  0  0  0  0  0  0  0  0  0  0
  161.5290  206.0410  154.2710 C   0  0  0  0  0  1  0  0  0  0  0  0
  161.0530  206.8810  149.4680 C   0  0  0  0  0  3  0  0  0  0  0  0
  161.3060  207.3260  150.7780 C   0  0  0  0  0  0  0  0  0  0  0  0
  160.5180  209.0680  154.1440 C   0  0  1  0  0  0  0  0  0  0  0  0
  159.7500  208.1760  155.0970 C   0  0  0  0  0  2  0  0  0  0  0  0
  160.6530  209.2670  155.6540 C   0  0  1  0  0  3  0  0  0  0  0  0
  158.3230  209.9560  153.7390 O   0  0  0  0  0  1  0  0  0  0  0  0
  159.6790  210.1720  153.4820 C   0  0  1  0  0  3  0  0  0  0  0  0
  159.3130  212.6360  153.1680 C   0  0  0  0  0  2  0  0  0  0  0  0
  159.8300  211.7560  155.2940 O   0  0  0  0  0  0  0  0  0  0  0  0
  160.0840  211.5770  153.9260 C   0  0  1  0  0  3  0  0  0  0  0  0
  159.0770  213.7040  154.1920 C   0  0  0  0  0  2  0  0  0  0  0  0
  159.6880  213.1420  155.4530 C   0  0  0  0  0  2  0  0  0  0  0  0
  161.8980  208.6280  156.2540 C   0  0  0  0  0  2  0  0  0  0  0  0
  162.6290  209.6210  157.0230 N   0  0  0  0  0  2  0  0  0  0  0  0
  163.3870  210.7780  155.1420 O   0  0  0  0  0  0  0  0  0  0  0  0
  163.3760  210.6640  156.3960 C   0  0  0  0  0  0  0  0  0  0  0  0
  164.1430  211.6240  157.2320 C   0  0  0  0  0  1  0  0  0  0  0  0
  160.6390  205.0940  151.6410 C   0  0  0  0  0  2  0  0  0  0  0  0
  161.7200  204.2580  151.3650 O   0  0  0  0  0  0  0  0  0  0  0  0
  161.2340  202.9730  151.5980 C   0  0  0  0  0  1  0  0  0  0  0  0
  2  5  1  0  0  0  0
  2  8  1  0  0  0  0
  3  1  1  6  0  0  0
  3 13  1  0  0  0  0
  4  2  2  0  0  0  0
  6  9  1  0  0  0  0
  7  4  1  0  0  0  0
  7 11  2  0  0  0  0
  8  1  2  0  0  0  0
  9  3  1  0  0  0  0
  9 10  1  0  0  0  0
 11 12  1  0  0  0  0
 12  8  1  0  0  0  0
 12  6  2  0  0  0  0
 13 17  1  6  0  0  0
 13 14  1  0  0  0  0
 13 15  1  0  0  0  0
 14 15  1  0  0  0  0
 15 23  1  1  0  0  0
 17 16  1  1  0  0  0
 18 20  1  0  0  0  0
 18 21  1  0  0  0  0
 19 22  1  0  0  0  0
 20 17  1  6  0  0  0
 20 19  1  0  0  0  0
 21 22  1  0  0  0  0
 23 24  1  0  0  0  0
 25 26  2  0  0  0  0
 26 24  1  0  0  0  0
 26 27  1  0  0  0  0
 28  6  1  0  0  0  0
 29 30  1  0  0  0  0
 29 28  1  0  0  0  0
M  END
>  <MODEL>
5

>  <REMARK>
 VINA RESULT:      -3.5      2.276      6.277
  Name = 
  7 active torsions:
  status: ('A' for Active; 'I' for Inactive)
    1  A    between atoms: C_3  and  O_11
    2  A    between atoms: C_3  and  C_19
    3  A    between atoms: C_4  and  C_13
    4  A    between atoms: N_7  and  C_16
    5  A    between atoms: C_8  and  C_12
    6  A    between atoms: C_8  and  C_13
    7  A    between atoms: C_16  and  C_30
                            x       y       z     vdW  Elec       q    Type
                         _______ _______ _______ _____ _____    ______ ____

>  <TORSDO>
F 7

$$$$
=
 OpenBabel11052421543D

 30 33  0  0  1  0  0  0  0  0999 V2000
  160.3130  208.7680  151.8630 N   0  0  0  0  0  0  0  0  0  0  0  0
  160.4510  209.3200  154.1340 C   0  0  0  0  0  0  0  0  0  0  0  0
  160.5460  207.9550  150.6680 C   0  0  2  0  0  3  0  0  0  0  0  0
  160.8360  208.9740  155.4310 C   0  0  0  0  0  3  0  0  0  0  0  0
  159.8630  210.6740  153.9060 C   0  0  0  0  0  1  0  0  0  0  0  0
  161.3280  206.2340  152.3410 C   0  0  0  0  0  0  0  0  0  0  0  0
  161.4040  207.7280  155.6870 C   0  0  0  0  0  3  0  0  0  0  0  0
  160.6420  208.4130  153.0730 C   0  0  0  0  0  0  0  0  0  0  0  0
  160.8800  206.5720  151.0160 N   0  0  0  0  0  0  0  0  0  0  0  0
  160.7350  205.5460  149.9930 C   0  0  0  0  0  1  0  0  0  0  0  0
  161.5810  206.8150  154.6490 C   0  0  0  0  0  3  0  0  0  0  0  0
  161.1990  207.1370  153.3340 C   0  0  0  0  0  0  0  0  0  0  0  0
  161.6270  208.6050  149.7770 C   0  0  1  0  0  0  0  0  0  0  0  0
  162.7720  207.6960  149.3790 C   0  0  0  0  0  2  0  0  0  0  0  0
  161.7440  208.1080  148.3360 C   0  0  1  0  0  3  0  0  0  0  0  0
  163.0810  210.2220  150.7980 O   0  0  0  0  0  1  0  0  0  0  0  0
  162.0040  210.0870  149.9170 C   0  0  1  0  0  3  0  0  0  0  0  0
  161.1230  211.4660  148.0130 C   0  0  0  0  0  2  0  0  0  0  0  0
  163.3580  211.6920  148.7310 O   0  0  0  0  0  0  0  0  0  0  0  0
  162.3300  210.7490  148.5790 C   0  0  1  0  0  3  0  0  0  0  0  0
  161.7060  212.6880  147.3690 C   0  0  0  0  0  2  0  0  0  0  0  0
  163.1830  212.5870  147.6660 C   0  0  0  0  0  2  0  0  0  0  0  0
  160.8490  206.9180  148.0160 C   0  0  0  0  0  2  0  0  0  0  0  0
  160.9280  206.6210  146.5960 N   0  0  0  0  0  2  0  0  0  0  0  0
  161.8540  204.5000  146.9110 O   0  0  0  0  0  0  0  0  0  0  0  0
  161.4670  205.3910  146.1100 C   0  0  0  0  0  0  0  0  0  0  0  0
  161.5660  205.1600  144.6450 C   0  0  0  0  0  1  0  0  0  0  0  0
  161.8830  204.8620  152.6050 C   0  0  0  0  0  2  0  0  0  0  0  0
  160.8380  203.9520  152.7620 O   0  0  0  0  0  0  0  0  0  0  0  0
  161.2060  202.8610  151.9750 C   0  0  0  0  0  1  0  0  0  0  0  0
  1  8  2  0  0  0  0
  2  4  2  0  0  0  0
  3  9  1  0  0  0  0
  3  1  1  1  0  0  0
  4  7  1  0  0  0  0
  5  2  1  0  0  0  0
  6 28  1  0  0  0  0
  6 12  2  0  0  0  0
  8 12  1  0  0  0  0
  8  2  1  0  0  0  0
  9  6  1  0  0  0  0
 10  9  1  0  0  0  0
 11  7  2  0  0  0  0
 12 11  1  0  0  0  0
 13 17  1  1  0  0  0
 13  3  1  0  0  0  0
 14 13  1  0  0  0  0
 15 23  1  1  0  0  0
 15 14  1  0  0  0  0
 15 13  1  0  0  0  0
 17 16  1  1  0  0  0
 18 20  1  0  0  0  0
 20 19  1  0  0  0  0
 20 17  1  1  0  0  0
 21 22  1  0  0  0  0
 21 18  1  0  0  0  0
 22 19  1  0  0  0  0
 24 23  1  0  0  0  0
 26 24  1  0  0  0  0
 26 25  2  0  0  0  0
 27 26  1  0  0  0  0
 28 29  1  0  0  0  0
 30 29  1  0  0  0  0
M  END
>  <MODEL>
6

>  <REMARK>
 VINA RESULT:      -3.1      1.961      3.353
  Name = 
  7 active torsions:
  status: ('A' for Active; 'I' for Inactive)
    1  A    between atoms: C_3  and  O_11
    2  A    between atoms: C_3  and  C_19
    3  A    between atoms: C_4  and  C_13
    4  A    between atoms: N_7  and  C_16
    5  A    between atoms: C_8  and  C_12
    6  A    between atoms: C_8  and  C_13
    7  A    between atoms: C_16  and  C_30
                            x       y       z     vdW  Elec       q    Type
                         _______ _______ _______ _____ _____    ______ ____

>  <TORSDO>
F 7

$$$$
=
 OpenBabel11052421543D

 30 33  0  0  1  0  0  0  0  0999 V2000
  162.0150  206.7250  151.7220 N   0  0  0  0  0  0  0  0  0  0  0  0
  161.3100  207.7290  153.7160 C   0  0  0  0  0  0  0  0  0  0  0  0
  162.2120  206.6170  150.2750 C   0  0  2  0  0  3  0  0  0  0  0  0
  160.7630  208.8330  154.3740 C   0  0  0  0  0  3  0  0  0  0  0  0
  161.6110  206.5050  154.5140 C   0  0  0  0  0  1  0  0  0  0  0  0
  161.5210  209.0450  150.2900 C   0  0  0  0  0  0  0  0  0  0  0  0
  160.4500  209.9910  153.6660 C   0  0  0  0  0  3  0  0  0  0  0  0
  161.5410  207.7770  152.3270 C   0  0  0  0  0  0  0  0  0  0  0  0
  162.1350  207.9270  149.6250 N   0  0  0  0  0  0  0  0  0  0  0  0
  162.7060  208.0740  148.2930 C   0  0  0  0  0  1  0  0  0  0  0  0
  160.6920  210.0570  152.2950 C   0  0  0  0  0  3  0  0  0  0  0  0
  161.2440  208.9610  151.6070 C   0  0  0  0  0  0  0  0  0  0  0  0
  161.2110  205.6100  149.6690 C   0  0  1  0  0  0  0  0  0  0  0  0
  160.1810  206.2040  148.7300 C   0  0  0  0  0  2  0  0  0  0  0  0
  161.3030  205.3440  148.1660 C   0  0  1  0  0  3  0  0  0  0  0  0
  159.3340  204.3690  150.5090 O   0  0  0  0  0  1  0  0  0  0  0  0
  160.7300  204.3790  150.4530 C   0  0  1  0  0  3  0  0  0  0  0  0
  161.2070  201.9560  150.9030 C   0  0  0  0  0  2  0  0  0  0  0  0
  160.4590  202.6620  148.7810 O   0  0  0  0  0  0  0  0  0  0  0  0
  161.2450  203.0630  149.8720 C   0  0  1  0  0  3  0  0  0  0  0  0
  160.8260  200.7430  150.1080 C   0  0  0  0  0  2  0  0  0  0  0  0
  160.6310  201.2730  148.7070 C   0  0  0  0  0  2  0  0  0  0  0  0
  162.3000  206.2350  147.4390 C   0  0  0  0  0  2  0  0  0  0  0  0
  162.4250  205.7970  146.0590 N   0  0  0  0  0  2  0  0  0  0  0  0
  160.2080  206.2910  145.5170 O   0  0  0  0  0  0  0  0  0  0  0  0
  161.3230  205.8320  145.1520 C   0  0  0  0  0  0  0  0  0  0  0  0
  161.4960  205.3270  143.7650 C   0  0  0  0  0  1  0  0  0  0  0  0
  161.2470  210.3050  149.5180 C   0  0  0  0  0  2  0  0  0  0  0  0
  162.3330  211.1730  149.6300 O   0  0  0  0  0  0  0  0  0  0  0  0
  162.3400  211.8780  148.4270 C   0  0  0  0  0  1  0  0  0  0  0  0
  1  8  2  0  0  0  0
  2  4  2  0  0  0  0
  2  5  1  0  0  0  0
  3  1  1  1  0  0  0
  6 12  2  0  0  0  0
  7  4  1  0  0  0  0
  8  2  1  0  0  0  0
  9  3  1  0  0  0  0
  9  6  1  0  0  0  0
 10  9  1  0  0  0  0
 11  7  2  0  0  0  0
 12 11  1  0  0  0  0
 12  8  1  0  0  0  0
 13  3  1  0  0  0  0
 13 17  1  1  0  0  0
 14 13  1  0  0  0  0
 15 23  1  6  0  0  0
 15 14  1  0  0  0  0
 15 13  1  0  0  0  0
 17 16  1  6  0  0  0
 19 20  1  0  0  0  0
 20 17  1  1  0  0  0
 20 18  1  0  0  0  0
 21 18  1  0  0  0  0
 22 19  1  0  0  0  0
 22 21  1  0  0  0  0
 24 23  1  0  0  0  0
 26 25  2  0  0  0  0
 26 24  1  0  0  0  0
 27 26  1  0  0  0  0
 28 29  1  0  0  0  0
 28  6  1  0  0  0  0
 30 29  1  0  0  0  0
M  END
>  <MODEL>
7

>  <REMARK>
 VINA RESULT:      -3.1      2.489      6.403
  Name = 
  7 active torsions:
  status: ('A' for Active; 'I' for Inactive)
    1  A    between atoms: C_3  and  O_11
    2  A    between atoms: C_3  and  C_19
    3  A    between atoms: C_4  and  C_13
    4  A    between atoms: N_7  and  C_16
    5  A    between atoms: C_8  and  C_12
    6  A    between atoms: C_8  and  C_13
    7  A    between atoms: C_16  and  C_30
                            x       y       z     vdW  Elec       q    Type
                         _______ _______ _______ _____ _____    ______ ____

>  <TORSDO>
F 7

$$$$
=
 OpenBabel11052421543D

 30 33  0  0  1  0  0  0  0  0999 V2000
  161.8710  210.5960  153.8720 N   0  0  0  0  0  0  0  0  0  0  0  0
  161.5000  210.4460  156.1790 C   0  0  0  0  0  0  0  0  0  0  0  0
  161.4990  210.7580  152.4660 C   0  0  2  0  0  3  0  0  0  0  0  0
  160.6190  210.5290  157.2590 C   0  0  0  0  0  3  0  0  0  0  0  0
  162.9120  210.0400  156.4450 C   0  0  0  0  0  1  0  0  0  0  0  0
  159.2660  211.4280  153.4310 C   0  0  0  0  0  0  0  0  0  0  0  0
  159.2880  210.8880  157.0570 C   0  0  0  0  0  3  0  0  0  0  0  0
  161.0450  210.7160  154.8730 C   0  0  0  0  0  0  0  0  0  0  0  0
  160.1880  211.3950  152.3270 N   0  0  0  0  0  0  0  0  0  0  0  0
  159.8450  212.0050  151.0510 C   0  0  0  0  0  1  0  0  0  0  0  0
  158.8320  211.1760  155.7720 C   0  0  0  0  0  3  0  0  0  0  0  0
  159.6980  211.1030  154.6660 C   0  0  0  0  0  0  0  0  0  0  0  0
  161.5640  209.4010  151.7320 C   0  0  1  0  0  0  0  0  0  0  0  0
  160.8070  209.3360  150.4210 C   0  0  0  0  0  2  0  0  0  0  0  0
  162.3290  209.3530  150.4090 C   0  0  1  0  0  3  0  0  0  0  0  0
  160.4710  207.8930  153.2490 O   0  0  0  0  0  1  0  0  0  0  0  0
  161.6360  208.0720  152.4980 C   0  0  1  0  0  3  0  0  0  0  0  0
  162.5070  205.7220  152.3370 C   0  0  0  0  0  2  0  0  0  0  0  0
  160.6490  206.4090  151.0570 O   0  0  0  0  0  0  0  0  0  0  0  0
  161.8650  206.8680  151.5840 C   0  0  1  0  0  3  0  0  0  0  0  0
  161.8660  204.5040  151.7430 C   0  0  0  0  0  2  0  0  0  0  0  0
  160.8810  205.0620  150.7430 C   0  0  0  0  0  2  0  0  0  0  0  0
  162.8110  210.7120  149.9210 C   0  0  0  0  0  2  0  0  0  0  0  0
  162.0410  211.1100  148.7550 N   0  0  0  0  0  2  0  0  0  0  0  0
  163.4510  212.8910  148.2120 O   0  0  0  0  0  0  0  0  0  0  0  0
  162.4100  212.2310  147.9520 C   0  0  0  0  0  0  0  0  0  0  0  0
  161.5590  212.6210  146.7970 C   0  0  0  0  0  1  0  0  0  0  0  0
  157.8490  211.8760  153.1970 C   0  0  0  0  0  2  0  0  0  0  0  0
  157.7460  213.2490  153.4120 O   0  0  0  0  0  0  0  0  0  0  0  0
  156.4610  213.4260  153.9210 C   0  0  0  0  0  1  0  0  0  0  0  0
  1  8  2  0  0  0  0
  2  5  1  0  0  0  0
  2  4  2  0  0  0  0
  3  1  1  1  0  0  0
  6 12  2  0  0  0  0
  7  4  1  0  0  0  0
  8  2  1  0  0  0  0
  9  3  1  0  0  0  0
  9  6  1  0  0  0  0
 10  9  1  0  0  0  0
 11  7  2  0  0  0  0
 12  8  1  0  0  0  0
 12 11  1  0  0  0  0
 13  3  1  0  0  0  0
 13 17  1  1  0  0  0
 14 13  1  0  0  0  0
 15 23  1  6  0  0  0
 15 14  1  0  0  0  0
 15 13  1  0  0  0  0
 17 16  1  6  0  0  0
 19 20  1  0  0  0  0
 20 18  1  0  0  0  0
 20 17  1  1  0  0  0
 21 18  1  0  0  0  0
 22 19  1  0  0  0  0
 22 21  1  0  0  0  0
 24 23  1  0  0  0  0
 26 25  2  0  0  0  0
 26 24  1  0  0  0  0
 27 26  1  0  0  0  0
 28 29  1  0  0  0  0
 28  6  1  0  0  0  0
 29 30  1  0  0  0  0
M  END
>  <MODEL>
8

>  <REMARK>
 VINA RESULT:      -2.9      2.235      5.371
  Name = 
  7 active torsions:
  status: ('A' for Active; 'I' for Inactive)
    1  A    between atoms: C_3  and  O_11
    2  A    between atoms: C_3  and  C_19
    3  A    between atoms: C_4  and  C_13
    4  A    between atoms: N_7  and  C_16
    5  A    between atoms: C_8  and  C_12
    6  A    between atoms: C_8  and  C_13
    7  A    between atoms: C_16  and  C_30
                            x       y       z     vdW  Elec       q    Type
                         _______ _______ _______ _____ _____    ______ ____

>  <TORSDO>
F 7

$$$$
=
 OpenBabel11052421543D

 30 33  0  0  1  0  0  0  0  0999 V2000
  161.2590  209.6780  153.8720 N   0  0  0  0  0  0  0  0  0  0  0  0
  161.0540  207.4610  154.5980 C   0  0  0  0  0  0  0  0  0  0  0  0
  160.9730  211.1130  153.8620 C   0  0  2  0  0  3  0  0  0  0  0  0
  160.5170  206.5400  155.4990 C   0  0  0  0  0  3  0  0  0  0  0  0
  161.8910  206.9480  153.4730 C   0  0  0  0  0  1  0  0  0  0  0  0
  159.7720  210.5980  156.0210 C   0  0  0  0  0  0  0  0  0  0  0  0
  159.7160  206.9720  156.5550 C   0  0  0  0  0  3  0  0  0  0  0  0
  160.7820  208.8360  154.7440 C   0  0  0  0  0  0  0  0  0  0  0  0
  160.3710  211.5490  155.1230 N   0  0  0  0  0  0  0  0  0  0  0  0
  160.4040  212.9670  155.4530 C   0  0  0  0  0  1  0  0  0  0  0  0
  159.4560  208.3310  156.7210 C   0  0  0  0  0  3  0  0  0  0  0  0
  159.9860  209.2810  155.8300 C   0  0  0  0  0  0  0  0  0  0  0  0
  160.0960  211.4790  152.6440 C   0  0  1  0  0  0  0  0  0  0  0  0
  160.7180  212.4550  151.6670 C   0  0  0  0  0  2  0  0  0  0  0  0
  160.5620  210.9950  151.2710 C   0  0  1  0  0  3  0  0  0  0  0  0
  158.1120  210.7110  153.7590 O   0  0  0  0  0  1  0  0  0  0  0  0
  158.5660  211.5610  152.7470 C   0  0  1  0  0  3  0  0  0  0  0  0
  157.5840  213.6190  151.6970 C   0  0  0  0  0  2  0  0  0  0  0  0
  156.9840  212.9810  153.8870 O   0  0  0  0  0  0  0  0  0  0  0  0
  158.0590  212.9830  152.9860 C   0  0  1  0  0  3  0  0  0  0  0  0
  156.4000  214.4350  152.1200 C   0  0  0  0  0  2  0  0  0  0  0  0
  156.2730  214.1540  153.5990 C   0  0  0  0  0  2  0  0  0  0  0  0
  161.9290  210.3240  151.2810 C   0  0  0  0  0  2  0  0  0  0  0  0
  162.2000  209.7570  149.9710 N   0  0  0  0  0  2  0  0  0  0  0  0
  161.2520  207.6830  150.4770 O   0  0  0  0  0  0  0  0  0  0  0  0
  161.8500  208.4120  149.6430 C   0  0  0  0  0  0  0  0  0  0  0  0
  162.1940  207.8690  148.3020 C   0  0  0  0  0  1  0  0  0  0  0  0
  158.9600  211.0920  157.1870 C   0  0  0  0  0  2  0  0  0  0  0  0
  157.6270  211.2390  156.8060 O   0  0  0  0  0  0  0  0  0  0  0  0
  157.2740  212.5080  157.2600 C   0  0  0  0  0  1  0  0  0  0  0  0
  1  8  2  0  0  0  0
  2  8  1  0  0  0  0
  2  4  2  0  0  0  0
  3  1  1  1  0  0  0
  3  9  1  0  0  0  0
  4  7  1  0  0  0  0
  5  2  1  0  0  0  0
  6 28  1  0  0  0  0
  7 11  2  0  0  0  0
  8 12  1  0  0  0  0
  9 10  1  0  0  0  0
  9  6  1  0  0  0  0
 12  6  2  0  0  0  0
 12 11  1  0  0  0  0
 13 17  1  1  0  0  0
 13  3  1  0  0  0  0
 14 13  1  0  0  0  0
 15 23  1  1  0  0  0
 15 14  1  0  0  0  0
 15 13  1  0  0  0  0
 17 16  1  1  0  0  0
 18 21  1  0  0  0  0
 18 20  1  0  0  0  0
 20 17  1  6  0  0  0
 20 19  1  0  0  0  0
 21 22  1  0  0  0  0
 22 19  1  0  0  0  0
 24 23  1  0  0  0  0
 26 24  1  0  0  0  0
 26 25  2  0  0  0  0
 27 26  1  0  0  0  0
 29 28  1  0  0  0  0
 29 30  1  0  0  0  0
M  END
>  <MODEL>
9

>  <REMARK>
 VINA RESULT:      -2.8      2.504      4.779
  Name = 
  7 active torsions:
  status: ('A' for Active; 'I' for Inactive)
    1  A    between atoms: C_3  and  O_11
    2  A    between atoms: C_3  and  C_19
    3  A    between atoms: C_4  and  C_13
    4  A    between atoms: N_7  and  C_16
    5  A    between atoms: C_8  and  C_12
    6  A    between atoms: C_8  and  C_13
    7  A    between atoms: C_16  and  C_30
                            x       y       z     vdW  Elec       q    Type
                         _______ _______ _______ _____ _____    ______ ____

>  <TORSDO>
F 7

$$$$
