=
 OpenBabel11052422553D

 28 32  0  0  1  0  0  0  0  0999 V2000
  159.1490  212.4340  154.5620 C   0  0  2  0  0  0  0  0  0  0  0  0
  159.1940  213.2720  153.2770 C   0  0  0  0  0  2  0  0  0  0  0  0
  156.7060  213.3120  153.1030 C   0  0  0  0  0  2  0  0  0  0  0  0
  161.7860  209.0250  150.9770 C   0  0  0  0  0  3  0  0  0  0  0  0
  162.3100  209.3390  157.1040 C   0  0  0  0  0  1  0  0  0  0  0  0
  157.9670  214.1660  153.1320 C   0  0  0  0  0  2  0  0  0  0  0  0
  157.8160  211.6510  154.6510 C   0  0  0  0  0  2  0  0  0  0  0  0
  161.0440  207.2490  152.4600 C   0  0  0  0  0  0  0  0  0  0  0  0
  161.5060  209.5410  153.4190 C   0  0  1  0  0  3  0  0  0  0  0  0
  156.5590  212.5010  154.3940 C   0  0  1  0  0  3  0  0  0  0  0  0
  161.3170  206.8190  150.0920 C   0  0  0  0  0  0  0  0  0  0  0  0
  161.4550  208.5830  152.2630 C   0  0  0  0  0  0  0  0  0  0  0  0
  160.6200  207.6710  154.8580 C   0  0  0  0  0  2  0  0  0  0  0  0
  160.9830  206.3720  151.3730 C   0  0  0  0  0  3  0  0  0  0  0  0
  160.6820  210.8310  155.8770 C   0  0  0  0  0  0  0  0  0  0  0  0
  160.2460  210.4040  153.4330 C   0  0  0  0  0  2  0  0  0  0  0  0
  160.7300  206.7870  153.7430 O   0  0  0  0  0  0  0  0  0  0  0  0
  159.3610  212.5850  157.0780 C   0  0  0  0  0  2  0  0  0  0  0  0
  161.5610  209.6880  155.9030 N   0  0  0  0  0  0  0  0  0  0  0  0
  160.2980  211.4130  157.0220 C   0  0  0  0  0  3  0  0  0  0  0  0
  161.2520  205.9250  148.9870 N   0  0  0  0  0  1  0  0  0  0  0  0
  161.7190  208.1430  149.8930 C   0  0  0  0  0  3  0  0  0  0  0  0
  161.6620  208.7870  154.7540 C   0  0  2  0  0  3  0  0  0  0  0  0
  159.3350  213.3680  155.7670 C   0  0  0  0  0  2  0  0  0  0  0  0
  160.3430  211.4560  154.5370 C   0  0  1  0  0  3  0  0  0  0  0  0
  156.1770  213.3750  155.5940 C   0  0  1  0  0  3  0  0  0  0  0  0
  155.1490  214.2510  155.2450 O   0  0  0  0  0  1  0  0  0  0  0  0
  155.7110  212.5120  156.7520 C   0  0  0  0  0  1  0  0  0  0  0  0
  1  2  1  6  0  0  0
  1  7  1  0  0  0  0
  1 24  1  0  0  0  0
  3  6  1  0  0  0  0
  3 10  1  0  0  0  0
  4 12  1  0  0  0  0
  6  2  1  0  0  0  0
  8 17  1  0  0  0  0
  9 16  1  1  0  0  0
  9 23  1  0  0  0  0
 10  7  1  0  0  0  0
 10 26  1  1  0  0  0
 11 14  2  0  0  0  0
 12  8  2  0  0  0  0
 12  9  1  0  0  0  0
 14  8  1  0  0  0  0
 15 19  1  0  0  0  0
 15 20  2  0  0  0  0
 17 13  1  0  0  0  0
 19  5  1  0  0  0  0
 20 18  1  0  0  0  0
 21 11  1  0  0  0  0
 22 11  1  0  0  0  0
 22  4  2  0  0  0  0
 23 13  1  1  0  0  0
 23 19  1  0  0  0  0
 24 18  1  0  0  0  0
 25 16  1  6  0  0  0
 25  1  1  0  0  0  0
 25 15  1  0  0  0  0
 26 28  1  1  0  0  0
 27 26  1  0  0  0  0
M  END
>  <MODEL>
1

>  <REMARK>
 VINA RESULT:      -7.1      0.000      0.000
  Name = 
  1 active torsions:
  status: ('A' for Active; 'I' for Inactive)
    1  A    between atoms: C_6  and  C_11
                            x       y       z     vdW  Elec       q    Type
                         _______ _______ _______ _____ _____    ______ ____

>  <TORSDO>
F 1

$$$$
=
 OpenBabel11052422553D

 28 32  0  0  1  0  0  0  0  0999 V2000
  159.5810  212.2350  153.3840 C   0  0  2  0  0  0  0  0  0  0  0  0
  159.8620  212.6700  151.9400 C   0  0  0  0  0  2  0  0  0  0  0  0
  157.4310  212.9150  151.4390 C   0  0  0  0  0  2  0  0  0  0  0  0
  162.0720  207.7080  151.2090 C   0  0  0  0  0  3  0  0  0  0  0  0
  162.0350  209.6670  157.0460 C   0  0  0  0  0  1  0  0  0  0  0  0
  158.7860  213.6090  151.4030 C   0  0  0  0  0  2  0  0  0  0  0  0
  158.1520  211.6480  153.5040 C   0  0  0  0  0  2  0  0  0  0  0  0
  160.9580  206.5030  153.0010 C   0  0  0  0  0  0  0  0  0  0  0  0
  161.6280  208.9120  153.3680 C   0  0  1  0  0  3  0  0  0  0  0  0
  157.0510  212.5160  152.8680 C   0  0  1  0  0  3  0  0  0  0  0  0
  161.4000  205.4020  150.8890 C   0  0  0  0  0  0  0  0  0  0  0  0
  161.5610  207.6800  152.5120 C   0  0  0  0  0  0  0  0  0  0  0  0
  160.3630  207.6190  155.1250 C   0  0  0  0  0  2  0  0  0  0  0  0
  160.8860  205.3680  152.1880 C   0  0  0  0  0  3  0  0  0  0  0  0
  160.7500  210.9150  155.2660 C   0  0  0  0  0  0  0  0  0  0  0  0
  160.5000  209.8690  152.9880 C   0  0  0  0  0  2  0  0  0  0  0  0
  160.4620  206.4530  154.3090 O   0  0  0  0  0  0  0  0  0  0  0  0
  159.5650  213.0600  155.7750 C   0  0  0  0  0  2  0  0  0  0  0  0
  161.4600  209.7410  155.7090 N   0  0  0  0  0  0  0  0  0  0  0  0
  160.3370  211.8300  156.1550 C   0  0  0  0  0  3  0  0  0  0  0  0
  161.3230  204.2470  150.0630 N   0  0  0  0  0  1  0  0  0  0  0  0
  161.9930  206.5700  150.4000 C   0  0  0  0  0  3  0  0  0  0  0  0
  161.5510  208.5490  154.8650 C   0  0  2  0  0  3  0  0  0  0  0  0
  159.7720  213.4440  154.3110 C   0  0  0  0  0  2  0  0  0  0  0  0
  160.6300  211.1720  153.7750 C   0  0  1  0  0  3  0  0  0  0  0  0
  156.6760  213.7250  153.7320 C   0  0  1  0  0  3  0  0  0  0  0  0
  155.6470  214.4490  153.1280 O   0  0  0  0  0  1  0  0  0  0  0  0
  156.2130  213.2730  155.1060 C   0  0  0  0  0  1  0  0  0  0  0  0
  1  2  1  6  0  0  0
  1  7  1  0  0  0  0
  1 25  1  0  0  0  0
  1 24  1  0  0  0  0
  3 10  1  0  0  0  0
  4 12  1  0  0  0  0
  6  3  1  0  0  0  0
  6  2  1  0  0  0  0
  8 17  1  0  0  0  0
  9 16  1  6  0  0  0
  9 23  1  0  0  0  0
 10  7  1  0  0  0  0
 10 26  1  1  0  0  0
 11 14  2  0  0  0  0
 12  8  2  0  0  0  0
 12  9  1  0  0  0  0
 14  8  1  0  0  0  0
 15 19  1  0  0  0  0
 15 20  2  0  0  0  0
 17 13  1  0  0  0  0
 18 20  1  0  0  0  0
 19  5  1  0  0  0  0
 21 11  1  0  0  0  0
 22 11  1  0  0  0  0
 22  4  2  0  0  0  0
 23 13  1  6  0  0  0
 23 19  1  0  0  0  0
 24 18  1  0  0  0  0
 25 16  1  6  0  0  0
 25 15  1  0  0  0  0
 26 28  1  1  0  0  0
 27 26  1  0  0  0  0
M  END
>  <MODEL>
2

>  <REMARK>
 VINA RESULT:      -5.4      1.122      1.347
  Name = 
  1 active torsions:
  status: ('A' for Active; 'I' for Inactive)
    1  A    between atoms: C_6  and  C_11
                            x       y       z     vdW  Elec       q    Type
                         _______ _______ _______ _____ _____    ______ ____

>  <TORSDO>
F 1

$$$$
=
 OpenBabel11052422553D

 28 32  0  0  1  0  0  0  0  0999 V2000
  161.9000  207.7480  151.0000 C   0  0  2  0  0  0  0  0  0  0  0  0
  162.4390  206.9630  152.2050 C   0  0  0  0  0  2  0  0  0  0  0  0
  161.0020  204.9920  151.6850 C   0  0  0  0  0  2  0  0  0  0  0  0
  160.2480  210.8890  155.3400 C   0  0  0  0  0  3  0  0  0  0  0  0
  161.5690  212.6380  149.5860 C   0  0  0  0  0  1  0  0  0  0  0  0
  162.4250  205.4570  151.9620 C   0  0  0  0  0  2  0  0  0  0  0  0
  160.5060  207.2140  150.5880 C   0  0  0  0  0  2  0  0  0  0  0  0
  158.5740  211.7460  153.8020 C   0  0  0  0  0  0  0  0  0  0  0  0
  160.8050  210.9800  152.8930 C   0  0  1  0  0  3  0  0  0  0  0  0
  160.4250  205.6840  150.4460 C   0  0  1  0  0  3  0  0  0  0  0  0
  158.0920  211.6170  156.1720 C   0  0  0  0  0  0  0  0  0  0  0  0
  159.8610  211.2190  154.0370 C   0  0  0  0  0  0  0  0  0  0  0  0
  158.9650  211.7720  151.3610 C   0  0  0  0  0  2  0  0  0  0  0  0
  157.6990  211.9470  154.8730 C   0  0  0  0  0  3  0  0  0  0  0  0
  161.6680  210.2010  150.2410 C   0  0  0  0  0  0  0  0  0  0  0  0
  160.7670  209.5080  152.4890 C   0  0  0  0  0  2  0  0  0  0  0  0
  158.1800  212.1010  152.5070 O   0  0  0  0  0  0  0  0  0  0  0  0
  162.4580  208.4500  148.6360 C   0  0  0  0  0  2  0  0  0  0  0  0
  161.2640  211.5570  150.5160 N   0  0  0  0  0  0  0  0  0  0  0  0
  162.0550  209.8480  149.0060 C   0  0  0  0  0  3  0  0  0  0  0  0
  157.1980  211.8210  157.2590 N   0  0  0  0  0  1  0  0  0  0  0  0
  159.3650  211.0890  156.4060 C   0  0  0  0  0  3  0  0  0  0  0  0
  160.4560  211.8810  151.6910 C   0  0  2  0  0  3  0  0  0  0  0  0
  162.9090  207.6380  149.8480 C   0  0  0  0  0  2  0  0  0  0  0  0
  161.8060  209.2350  151.4030 C   0  0  1  0  0  3  0  0  0  0  0  0
  161.0550  205.1740  149.1450 C   0  0  1  0  0  3  0  0  0  0  0  0
  160.8320  203.8030  149.0050 O   0  0  0  0  0  1  0  0  0  0  0  0
  160.4550  205.8900  147.9480 C   0  0  0  0  0  1  0  0  0  0  0  0
  1 24  1  6  0  0  0
  1 25  1  0  0  0  0
  1  2  1  0  0  0  0
  3  6  1  0  0  0  0
  4 22  1  0  0  0  0
  5 19  1  0  0  0  0
  6  2  1  0  0  0  0
  7  1  1  0  0  0  0
  8 12  1  0  0  0  0
  8 14  2  0  0  0  0
  9 16  1  6  0  0  0
  9 12  1  0  0  0  0
 10 26  1  6  0  0  0
 10  7  1  0  0  0  0
 10  3  1  0  0  0  0
 11 22  2  0  0  0  0
 11 21  1  0  0  0  0
 12  4  2  0  0  0  0
 13 17  1  0  0  0  0
 14 11  1  0  0  0  0
 15 19  1  0  0  0  0
 15 25  1  0  0  0  0
 17  8  1  0  0  0  0
 18 20  1  0  0  0  0
 18 24  1  0  0  0  0
 19 23  1  0  0  0  0
 20 15  2  0  0  0  0
 23 13  1  6  0  0  0
 23  9  1  0  0  0  0
 25 16  1  1  0  0  0
 26 28  1  6  0  0  0
 27 26  1  0  0  0  0
M  END
>  <MODEL>
3

>  <REMARK>
 VINA RESULT:      -5.0      2.590      7.830
  Name = 
  1 active torsions:
  status: ('A' for Active; 'I' for Inactive)
    1  A    between atoms: C_6  and  C_11
                            x       y       z     vdW  Elec       q    Type
                         _______ _______ _______ _____ _____    ______ ____

>  <TORSDO>
F 1

$$$$
