=
 OpenBabel11052422293D

 31 35  0  0  1  0  0  0  0  0999 V2000
  161.2660  204.1930  150.5120 C   0  0  0  0  0  0  0  0  0  0  0  0
  161.9440  207.8630  151.4470 C   0  0  1  0  0  3  0  0  0  0  0  0
  161.5940  207.9330  152.9400 C   0  0  0  0  0  0  0  0  0  0  0  0
  160.2960  206.5200  154.5020 C   0  0  0  0  0  3  0  0  0  0  0  0
  161.5520  206.6080  150.6710 C   0  0  0  0  0  0  0  0  0  0  0  0
  160.9800  204.3060  149.1510 C   0  0  0  0  0  3  0  0  0  0  0  0
  161.5850  206.6860  153.7720 C   0  0  0  0  0  2  0  0  0  0  0  0
  161.8530  209.1180  149.2650 C   0  0  2  0  0  3  0  0  0  0  0  0
  161.2620  202.8580  151.1650 C   0  0  0  0  0  1  0  0  0  0  0  0
  161.9010  210.3650  152.7790 C   0  0  0  0  0  3  0  0  0  0  0  0
  159.9010  207.3670  155.4480 C   0  0  0  0  0  3  0  0  0  0  0  0
  161.3660  207.9390  148.6280 O   0  0  0  0  0  0  0  0  0  0  0  0
  161.4210  209.1230  150.7280 C   0  0  2  0  0  3  0  0  0  0  0  0
  161.5640  205.3340  151.2600 C   0  0  0  0  0  3  0  0  0  0  0  0
  160.6290  208.5920  155.8230 C   0  0  0  0  0  3  0  0  0  0  0  0
  161.3110  206.7040  149.2810 C   0  0  0  0  0  0  0  0  0  0  0  0
  161.0070  205.5590  148.5370 C   0  0  0  0  0  3  0  0  0  0  0  0
  161.8700  210.3590  151.4470 C   0  0  0  0  0  3  0  0  0  0  0  0
  161.5980  209.1450  153.5550 C   0  0  0  0  0  0  0  0  0  0  0  0
  161.3710  209.3490  155.0040 C   0  0  0  0  0  3  0  0  0  0  0  0
  163.3720  211.4130  148.5190 O   0  0  0  0  0  0  0  0  0  0  0  0
  162.1450  211.4040  148.2250 C   0  0  0  0  0  0  0  0  0  0  0  0
  161.3260  210.2890  148.5780 N   0  0  0  0  0  2  0  0  0  0  0  0
  162.4940  213.1540  146.6490 O   0  0  0  0  0  1  0  0  0  0  0  0
  161.5410  212.5430  147.4700 C   0  0  1  0  0  3  0  0  0  0  0  0
  158.2910  213.1270  146.0910 C   0  0  2  0  0  3  0  0  0  0  0  0
  160.4050  212.4850  145.2060 C   0  0  0  0  0  2  0  0  0  0  0  0
  157.0290  212.5380  146.1640 O   0  0  0  0  0  1  0  0  0  0  0  0
  158.9750  212.7060  144.8100 C   0  0  0  0  0  2  0  0  0  0  0  0
  160.3170  212.1000  146.6680 C   0  0  2  0  0  3  0  0  0  0  0  0
  159.1060  212.6940  147.2200 N   0  0  0  0  0  2  0  0  0  0  0  0
  1  9  1  0  0  0  0
  1 14  1  0  0  0  0
  2  5  1  6  0  0  0
  2  3  1  0  0  0  0
  3 19  2  0  0  0  0
  3  7  1  0  0  0  0
  4 11  2  0  0  0  0
  5 14  2  0  0  0  0
  6  1  2  0  0  0  0
  7  4  1  0  0  0  0
  8 23  1  6  0  0  0
  8 13  1  0  0  0  0
 10 19  1  0  0  0  0
 11 15  1  0  0  0  0
 12  8  1  0  0  0  0
 12 16  1  0  0  0  0
 13 18  1  1  0  0  0
 13  2  1  0  0  0  0
 16  5  1  0  0  0  0
 17  6  1  0  0  0  0
 17 16  2  0  0  0  0
 18 10  2  0  0  0  0
 19 20  1  0  0  0  0
 20 15  2  0  0  0  0
 22 21  2  0  0  0  0
 22 23  1  0  0  0  0
 25 24  1  6  0  0  0
 25 22  1  0  0  0  0
 26 28  1  1  0  0  0
 26 31  1  0  0  0  0
 27 30  1  0  0  0  0
 29 27  1  0  0  0  0
 29 26  1  0  0  0  0
 30 31  1  0  0  0  0
 30 25  1  1  0  0  0
M  END
>  <MODEL>
1

>  <REMARK>
 VINA RESULT:      -8.9      0.000      0.000
  Name = 
  3 active torsions:
  status: ('A' for Active; 'I' for Inactive)
    1  A    between atoms: C_9  and  C_22
    2  A    between atoms: C_15  and  N_23
    3  A    between atoms: C_19  and  C_22
                            x       y       z     vdW  Elec       q    Type
                         _______ _______ _______ _____ _____    ______ ____

>  <TORSDO>
F 3

$$$$
=
 OpenBabel11052422293D

 31 35  0  0  1  0  0  0  0  0999 V2000
  161.2900  204.2320  150.6460 C   0  0  0  0  0  0  0  0  0  0  0  0
  161.8850  207.9300  151.5270 C   0  0  1  0  0  3  0  0  0  0  0  0
  161.5200  208.0170  153.0150 C   0  0  0  0  0  0  0  0  0  0  0  0
  160.2340  206.6030  154.5880 C   0  0  0  0  0  3  0  0  0  0  0  0
  161.5260  206.6550  150.7690 C   0  0  0  0  0  0  0  0  0  0  0  0
  161.0150  204.3170  149.2810 C   0  0  0  0  0  3  0  0  0  0  0  0
  161.5270  206.7840  153.8680 C   0  0  0  0  0  2  0  0  0  0  0  0
  161.7910  209.1470  149.3250 C   0  0  2  0  0  3  0  0  0  0  0  0
  161.3060  202.9080  151.3210 C   0  0  0  0  0  1  0  0  0  0  0  0
  161.7800  210.4520  152.8180 C   0  0  0  0  0  3  0  0  0  0  0  0
  159.8130  207.4580  155.5160 C   0  0  0  0  0  3  0  0  0  0  0  0
  161.3340  207.9480  148.7020 O   0  0  0  0  0  0  0  0  0  0  0  0
  161.3450  209.1670  150.7830 C   0  0  2  0  0  3  0  0  0  0  0  0
  161.5580  205.3910  151.3780 C   0  0  0  0  0  3  0  0  0  0  0  0
  160.5130  208.7030  155.8780 C   0  0  0  0  0  3  0  0  0  0  0  0
  161.2970  206.7230  149.3750 C   0  0  0  0  0  0  0  0  0  0  0  0
  161.0230  205.5610  148.6470 C   0  0  0  0  0  3  0  0  0  0  0  0
  161.7620  210.4230  151.4860 C   0  0  0  0  0  3  0  0  0  0  0  0
  161.4930  209.2380  153.6110 C   0  0  0  0  0  0  0  0  0  0  0  0
  161.2470  209.4620  155.0540 C   0  0  0  0  0  3  0  0  0  0  0  0
  163.2680  211.4660  148.5680 O   0  0  0  0  0  0  0  0  0  0  0  0
  162.0470  211.4240  148.2560 C   0  0  0  0  0  0  0  0  0  0  0  0
  161.2480  210.2950  148.6130 N   0  0  0  0  0  2  0  0  0  0  0  0
  160.5980  212.0370  146.4690 O   0  0  0  0  0  1  0  0  0  0  0  0
  161.4280  212.5390  147.4760 C   0  0  1  0  0  3  0  0  0  0  0  0
  158.6200  213.4290  149.5080 C   0  0  2  0  0  3  0  0  0  0  0  0
  160.9710  213.2850  149.8530 C   0  0  0  0  0  2  0  0  0  0  0  0
  157.6750  214.4530  149.5520 O   0  0  0  0  0  1  0  0  0  0  0  0
  159.6970  213.6860  150.5380 C   0  0  0  0  0  2  0  0  0  0  0  0
  160.6760  213.5110  148.3860 C   0  0  2  0  0  3  0  0  0  0  0  0
  159.2370  213.3820  148.1870 N   0  0  0  0  0  2  0  0  0  0  0  0
  1  9  1  0  0  0  0
  1 14  1  0  0  0  0
  2  5  1  6  0  0  0
  2  3  1  0  0  0  0
  3 19  2  0  0  0  0
  3  7  1  0  0  0  0
  4 11  2  0  0  0  0
  5 14  2  0  0  0  0
  6  1  2  0  0  0  0
  7  4  1  0  0  0  0
  8 23  1  6  0  0  0
  8 13  1  0  0  0  0
 10 19  1  0  0  0  0
 11 15  1  0  0  0  0
 12  8  1  0  0  0  0
 12 16  1  0  0  0  0
 13 18  1  1  0  0  0
 13  2  1  0  0  0  0
 16  5  1  0  0  0  0
 17  6  1  0  0  0  0
 17 16  2  0  0  0  0
 18 10  2  0  0  0  0
 19 20  1  0  0  0  0
 20 15  2  0  0  0  0
 22 21  2  0  0  0  0
 22 23  1  0  0  0  0
 25 24  1  6  0  0  0
 25 22  1  0  0  0  0
 26 28  1  6  0  0  0
 26 29  1  0  0  0  0
 27 29  1  0  0  0  0
 30 25  1  6  0  0  0
 30 27  1  0  0  0  0
 31 30  1  0  0  0  0
 31 26  1  0  0  0  0
M  END
>  <MODEL>
2

>  <REMARK>
 VINA RESULT:      -8.2      1.360      1.760
  Name = 
  3 active torsions:
  status: ('A' for Active; 'I' for Inactive)
    1  A    between atoms: C_9  and  C_22
    2  A    between atoms: C_15  and  N_23
    3  A    between atoms: C_19  and  C_22
                            x       y       z     vdW  Elec       q    Type
                         _______ _______ _______ _____ _____    ______ ____

>  <TORSDO>
F 3

$$$$
=
 OpenBabel11052422293D

 31 35  0  0  1  0  0  0  0  0999 V2000
  160.8920  202.0120  150.6640 C   0  0  0  0  0  0  0  0  0  0  0  0
  160.8310  205.5580  149.1740 C   0  0  1  0  0  3  0  0  0  0  0  0
  161.3460  205.3640  147.7410 C   0  0  0  0  0  0  0  0  0  0  0  0
  162.5990  203.5890  146.5560 C   0  0  0  0  0  3  0  0  0  0  0  0
  160.9610  204.3930  150.1520 C   0  0  0  0  0  0  0  0  0  0  0  0
  161.0420  202.2890  152.0230 C   0  0  0  0  0  3  0  0  0  0  0  0
  161.2730  204.0160  147.0890 C   0  0  0  0  0  2  0  0  0  0  0  0
  160.8590  207.1010  151.1640 C   0  0  2  0  0  3  0  0  0  0  0  0
  160.7820  200.6040  150.1990 C   0  0  0  0  0  1  0  0  0  0  0  0
  161.3620  207.8130  147.5390 C   0  0  0  0  0  3  0  0  0  0  0  0
  163.2070  204.2330  145.5640 C   0  0  0  0  0  3  0  0  0  0  0  0
  161.1070  205.9790  152.0080 O   0  0  0  0  0  0  0  0  0  0  0  0
  161.4420  206.8380  149.7800 C   0  0  2  0  0  3  0  0  0  0  0  0
  160.8370  203.0570  149.7400 C   0  0  0  0  0  3  0  0  0  0  0  0
  162.6980  205.4680  144.9420 C   0  0  0  0  0  3  0  0  0  0  0  0
  161.0610  204.6630  151.5370 C   0  0  0  0  0  0  0  0  0  0  0  0
  161.1220  203.6130  152.4580 C   0  0  0  0  0  3  0  0  0  0  0  0
  161.2480  207.9990  148.8530 C   0  0  0  0  0  3  0  0  0  0  0  0
  161.5760  206.4630  146.9750 C   0  0  0  0  0  0  0  0  0  0  0  0
  161.9850  206.4220  145.5520 C   0  0  0  0  0  3  0  0  0  0  0  0
  160.2180  208.1820  153.7240 O   0  0  0  0  0  0  0  0  0  0  0  0
  161.1030  208.7720  153.0460 C   0  0  0  0  0  0  0  0  0  0  0  0
  161.4640  208.2880  151.7520 N   0  0  0  0  0  2  0  0  0  0  0  0
  162.9120  210.3020  152.8100 O   0  0  0  0  0  1  0  0  0  0  0  0
  161.8110  209.9640  153.6030 C   0  0  1  0  0  3  0  0  0  0  0  0
  158.6680  211.5940  153.0800 C   0  0  2  0  0  3  0  0  0  0  0  0
  159.9690  211.0160  154.9880 C   0  0  0  0  0  2  0  0  0  0  0  0
  158.2180  212.7870  152.5140 O   0  0  0  0  0  1  0  0  0  0  0  0
  158.7110  211.7290  154.5850 C   0  0  0  0  0  2  0  0  0  0  0  0
  160.8630  211.1520  153.7740 C   0  0  2  0  0  3  0  0  0  0  0  0
  160.0120  211.2960  152.5980 N   0  0  0  0  0  2  0  0  0  0  0  0
  1  6  1  0  0  0  0
  2  3  1  6  0  0  0
  2 13  1  0  0  0  0
  2  5  1  0  0  0  0
  4  7  1  0  0  0  0
  5 16  2  0  0  0  0
  6 17  2  0  0  0  0
  7  3  1  0  0  0  0
  8 23  1  1  0  0  0
  8 12  1  0  0  0  0
  9  1  1  0  0  0  0
 10 18  2  0  0  0  0
 11  4  2  0  0  0  0
 13 18  1  6  0  0  0
 13  8  1  0  0  0  0
 14  5  1  0  0  0  0
 14  1  2  0  0  0  0
 15 20  2  0  0  0  0
 15 11  1  0  0  0  0
 16 12  1  0  0  0  0
 16 17  1  0  0  0  0
 19 10  1  0  0  0  0
 19  3  2  0  0  0  0
 20 19  1  0  0  0  0
 22 25  1  0  0  0  0
 22 21  2  0  0  0  0
 23 22  1  0  0  0  0
 25 24  1  6  0  0  0
 26 28  1  6  0  0  0
 26 29  1  0  0  0  0
 29 27  1  0  0  0  0
 30 25  1  6  0  0  0
 30 27  1  0  0  0  0
 31 26  1  0  0  0  0
 31 30  1  0  0  0  0
M  END
>  <MODEL>
3

>  <REMARK>
 VINA RESULT:      -7.8      3.508      6.404
  Name = 
  3 active torsions:
  status: ('A' for Active; 'I' for Inactive)
    1  A    between atoms: C_9  and  C_22
    2  A    between atoms: C_15  and  N_23
    3  A    between atoms: C_19  and  C_22
                            x       y       z     vdW  Elec       q    Type
                         _______ _______ _______ _____ _____    ______ ____

>  <TORSDO>
F 3

$$$$
=
 OpenBabel11052422293D

 31 35  0  0  1  0  0  0  0  0999 V2000
  161.0760  204.9870  150.0100 C   0  0  0  0  0  0  0  0  0  0  0  0
  161.9320  208.2610  151.8390 C   0  0  1  0  0  3  0  0  0  0  0  0
  161.5290  207.9860  153.2940 C   0  0  0  0  0  0  0  0  0  0  0  0
  160.0880  206.3240  154.4270 C   0  0  0  0  0  3  0  0  0  0  0  0
  161.4980  207.2640  150.7680 C   0  0  0  0  0  0  0  0  0  0  0  0
  160.8510  205.4490  148.7130 C   0  0  0  0  0  3  0  0  0  0  0  0
  161.4130  206.5770  153.7920 C   0  0  0  0  0  2  0  0  0  0  0  0
  162.0020  210.0160  150.0340 C   0  0  2  0  0  3  0  0  0  0  0  0
  160.9660  203.5360  150.3120 C   0  0  0  0  0  1  0  0  0  0  0  0
  161.9860  210.3570  153.7470 C   0  0  0  0  0  3  0  0  0  0  0  0
  159.7070  206.9380  155.5440 C   0  0  0  0  0  3  0  0  0  0  0  0
  161.4720  209.0650  149.1140 O   0  0  0  0  0  0  0  0  0  0  0  0
  161.5150  209.6910  151.4420 C   0  0  2  0  0  3  0  0  0  0  0  0
  161.4110  205.8870  151.0240 C   0  0  0  0  0  3  0  0  0  0  0  0
  160.4910  207.9810  156.2270 C   0  0  0  0  0  3  0  0  0  0  0  0
  161.3180  207.7140  149.4390 C   0  0  0  0  0  0  0  0  0  0  0  0
  160.9760  206.8100  148.4280 C   0  0  0  0  0  3  0  0  0  0  0  0
  162.0070  210.6800  152.4550 C   0  0  0  0  0  3  0  0  0  0  0  0
  161.5800  209.0070  154.1900 C   0  0  0  0  0  0  0  0  0  0  0  0
  161.3080  208.8650  155.6390 C   0  0  0  0  0  3  0  0  0  0  0  0
  163.2600  211.6390  148.0550 O   0  0  0  0  0  0  0  0  0  0  0  0
  162.2450  212.1090  148.6370 C   0  0  0  0  0  0  0  0  0  0  0  0
  161.5730  211.3520  149.6450 N   0  0  0  0  0  2  0  0  0  0  0  0
  162.7300  214.2690  147.7600 O   0  0  0  0  0  1  0  0  0  0  0  0
  161.7090  213.4510  148.2550 C   0  0  1  0  0  3  0  0  0  0  0  0
  160.3850  213.5950  144.9330 C   0  0  2  0  0  3  0  0  0  0  0  0
  160.4480  211.9490  146.6510 C   0  0  0  0  0  2  0  0  0  0  0  0
  159.3760  214.2890  144.2650 O   0  0  0  0  0  1  0  0  0  0  0  0
  159.9030  212.2040  145.2770 C   0  0  0  0  0  2  0  0  0  0  0  0
  160.5570  213.3330  147.2560 C   0  0  2  0  0  3  0  0  0  0  0  0
  160.7270  214.2900  146.1700 N   0  0  0  0  0  2  0  0  0  0  0  0
  1  9  1  0  0  0  0
  1 14  1  0  0  0  0
  2  5  1  6  0  0  0
  2  3  1  0  0  0  0
  3  7  1  0  0  0  0
  3 19  2  0  0  0  0
  4 11  2  0  0  0  0
  5 14  2  0  0  0  0
  6  1  2  0  0  0  0
  7  4  1  0  0  0  0
  8 23  1  6  0  0  0
  8 13  1  0  0  0  0
 10 19  1  0  0  0  0
 11 15  1  0  0  0  0
 12 16  1  0  0  0  0
 12  8  1  0  0  0  0
 13  2  1  0  0  0  0
 13 18  1  1  0  0  0
 16  5  1  0  0  0  0
 17  6  1  0  0  0  0
 17 16  2  0  0  0  0
 18 10  2  0  0  0  0
 19 20  1  0  0  0  0
 20 15  2  0  0  0  0
 21 22  2  0  0  0  0
 22 23  1  0  0  0  0
 25 24  1  6  0  0  0
 25 22  1  0  0  0  0
 26 28  1  1  0  0  0
 26 29  1  0  0  0  0
 26 31  1  0  0  0  0
 27 30  1  0  0  0  0
 29 27  1  0  0  0  0
 30 25  1  1  0  0  0
 31 30  1  0  0  0  0
M  END
>  <MODEL>
4

>  <REMARK>
 VINA RESULT:      -7.8      1.183      1.305
  Name = 
  3 active torsions:
  status: ('A' for Active; 'I' for Inactive)
    1  A    between atoms: C_9  and  C_22
    2  A    between atoms: C_15  and  N_23
    3  A    between atoms: C_19  and  C_22
                            x       y       z     vdW  Elec       q    Type
                         _______ _______ _______ _____ _____    ______ ____

>  <TORSDO>
F 3

$$$$
=
 OpenBabel11052422293D

 31 35  0  0  1  0  0  0  0  0999 V2000
  161.1010  205.2160  145.7080 C   0  0  0  0  0  0  0  0  0  0  0  0
  161.6340  204.9460  149.5080 C   0  0  1  0  0  3  0  0  0  0  0  0
  161.2560  203.4940  149.8300 C   0  0  0  0  0  0  0  0  0  0  0  0
  159.9800  201.7190  148.6710 C   0  0  0  0  0  3  0  0  0  0  0  0
  161.2990  205.4890  148.1210 C   0  0  0  0  0  0  0  0  0  0  0  0
  160.8350  206.5780  145.5650 C   0  0  0  0  0  3  0  0  0  0  0  0
  161.2750  202.4520  148.7520 C   0  0  0  0  0  2  0  0  0  0  0  0
  161.5380  207.3180  150.3490 C   0  0  2  0  0  3  0  0  0  0  0  0
  161.1310  204.3350  144.5110 C   0  0  0  0  0  1  0  0  0  0  0  0
  161.4810  204.0840  152.2040 C   0  0  0  0  0  3  0  0  0  0  0  0
  159.5390  200.9440  149.6580 C   0  0  0  0  0  3  0  0  0  0  0  0
  161.1030  207.7390  149.0580 O   0  0  0  0  0  0  0  0  0  0  0  0
  161.0810  205.8840  150.5990 C   0  0  2  0  0  3  0  0  0  0  0  0
  161.3460  204.6820  146.9740 C   0  0  0  0  0  3  0  0  0  0  0  0
  160.2170  200.7860  150.9560 C   0  0  0  0  0  3  0  0  0  0  0  0
  161.0800  206.8760  147.9580 C   0  0  0  0  0  0  0  0  0  0  0  0
  160.8290  207.4070  146.6880 C   0  0  0  0  0  3  0  0  0  0  0  0
  161.4730  205.3930  151.9590 C   0  0  0  0  0  3  0  0  0  0  0  0
  161.2060  203.1050  151.1310 C   0  0  0  0  0  0  0  0  0  0  0  0
  160.9460  201.7190  151.5830 C   0  0  0  0  0  3  0  0  0  0  0  0
  162.7060  209.7770  151.1960 O   0  0  0  0  0  0  0  0  0  0  0  0
  161.6160  209.4340  151.7300 C   0  0  0  0  0  0  0  0  0  0  0  0
  160.9830  208.2100  151.3580 N   0  0  0  0  0  2  0  0  0  0  0  0
  159.6130  210.5330  152.3990 O   0  0  0  0  0  1  0  0  0  0  0  0
  160.9540  210.3230  152.7330 C   0  0  1  0  0  3  0  0  0  0  0  0
  161.9000  210.6550  156.1680 C   0  0  2  0  0  3  0  0  0  0  0  0
  159.8950  210.0800  155.0210 C   0  0  0  0  0  2  0  0  0  0  0  0
  162.7510  210.0040  157.0610 O   0  0  0  0  0  1  0  0  0  0  0  0
  160.4760  210.2020  156.3990 C   0  0  0  0  0  2  0  0  0  0  0  0
  161.0960  209.7710  154.1520 C   0  0  2  0  0  3  0  0  0  0  0  0
  162.2780  210.3280  154.7980 N   0  0  0  0  0  2  0  0  0  0  0  0
  1 14  1  0  0  0  0
  2  5  1  6  0  0  0
  2  3  1  0  0  0  0
  2 13  1  0  0  0  0
  3 19  2  0  0  0  0
  4  7  1  0  0  0  0
  4 11  2  0  0  0  0
  6  1  2  0  0  0  0
  6 17  1  0  0  0  0
  7  3  1  0  0  0  0
  8 13  1  0  0  0  0
  8 23  1  1  0  0  0
  9  1  1  0  0  0  0
 11 15  1  0  0  0  0
 12  8  1  0  0  0  0
 13 18  1  1  0  0  0
 14  5  2  0  0  0  0
 15 20  2  0  0  0  0
 16  5  1  0  0  0  0
 16 12  1  0  0  0  0
 17 16  2  0  0  0  0
 18 10  2  0  0  0  0
 19 20  1  0  0  0  0
 19 10  1  0  0  0  0
 21 22  2  0  0  0  0
 22 25  1  0  0  0  0
 23 22  1  0  0  0  0
 25 24  1  6  0  0  0
 26 29  1  0  0  0  0
 26 28  1  1  0  0  0
 27 29  1  0  0  0  0
 30 25  1  6  0  0  0
 30 31  1  0  0  0  0
 30 27  1  0  0  0  0
 31 26  1  0  0  0  0
M  END
>  <MODEL>
5

>  <REMARK>
 VINA RESULT:      -7.7      3.394      6.716
  Name = 
  3 active torsions:
  status: ('A' for Active; 'I' for Inactive)
    1  A    between atoms: C_9  and  C_22
    2  A    between atoms: C_15  and  N_23
    3  A    between atoms: C_19  and  C_22
                            x       y       z     vdW  Elec       q    Type
                         _______ _______ _______ _____ _____    ______ ____

>  <TORSDO>
F 3

$$$$
=
 OpenBabel11052422293D

 31 35  0  0  1  0  0  0  0  0999 V2000
  160.8330  201.8470  150.5110 C   0  0  0  0  0  0  0  0  0  0  0  0
  160.8870  205.4950  149.2890 C   0  0  1  0  0  3  0  0  0  0  0  0
  161.3460  205.3870  147.8280 C   0  0  0  0  0  0  0  0  0  0  0  0
  162.4760  203.6530  146.4710 C   0  0  0  0  0  3  0  0  0  0  0  0
  160.9950  204.2550  150.1730 C   0  0  0  0  0  0  0  0  0  0  0  0
  161.0410  202.0140  151.8800 C   0  0  0  0  0  3  0  0  0  0  0  0
  161.1890  204.0960  147.0810 C   0  0  0  0  0  2  0  0  0  0  0  0
  161.0500  206.8810  151.3850 C   0  0  2  0  0  3  0  0  0  0  0  0
  160.6440  200.4850  149.9480 C   0  0  0  0  0  1  0  0  0  0  0  0
  161.4670  207.8410  147.8060 C   0  0  0  0  0  3  0  0  0  0  0  0
  163.0800  204.3440  145.5080 C   0  0  0  0  0  3  0  0  0  0  0  0
  161.2740  205.6890  152.1350 O   0  0  0  0  0  0  0  0  0  0  0  0
  161.5750  206.6980  149.9650 C   0  0  2  0  0  3  0  0  0  0  0  0
  160.7960  202.9610  149.6690 C   0  0  0  0  0  3  0  0  0  0  0  0
  162.6090  205.6420  144.9970 C   0  0  0  0  0  3  0  0  0  0  0  0
  161.1520  204.4160  151.5700 C   0  0  0  0  0  0  0  0  0  0  0  0
  161.1960  203.2970  152.4080 C   0  0  0  0  0  3  0  0  0  0  0  0
  161.4050  207.9330  149.1340 C   0  0  0  0  0  3  0  0  0  0  0  0
  161.6010  206.5290  147.1370 C   0  0  0  0  0  0  0  0  0  0  0  0
  161.9600  206.5780  145.7020 C   0  0  0  0  0  3  0  0  0  0  0  0
  159.7720  209.2040  152.4360 O   0  0  0  0  0  0  0  0  0  0  0  0
  161.0260  209.1250  152.5500 C   0  0  0  0  0  0  0  0  0  0  0  0
  161.7290  207.9930  152.0370 N   0  0  0  0  0  2  0  0  0  0  0  0
  161.4830  211.4560  152.7230 O   0  0  0  0  0  1  0  0  0  0  0  0
  161.7890  210.1990  153.2550 C   0  0  1  0  0  3  0  0  0  0  0  0
  159.6290  210.2000  156.1080 C   0  0  2  0  0  3  0  0  0  0  0  0
  161.3320  208.7550  155.2860 C   0  0  0  0  0  2  0  0  0  0  0  0
  159.4550  210.9700  157.2580 O   0  0  0  0  0  1  0  0  0  0  0  0
  160.4020  208.9460  156.4480 C   0  0  0  0  0  2  0  0  0  0  0  0
  161.5490  210.1600  154.7650 C   0  0  2  0  0  3  0  0  0  0  0  0
  160.3800  210.9580  155.1140 N   0  0  0  0  0  2  0  0  0  0  0  0
  1  6  1  0  0  0  0
  2  3  1  6  0  0  0
  2 13  1  0  0  0  0
  2  5  1  0  0  0  0
  4  7  1  0  0  0  0
  5 16  2  0  0  0  0
  6 17  2  0  0  0  0
  7  3  1  0  0  0  0
  8 23  1  1  0  0  0
  8 12  1  0  0  0  0
  9  1  1  0  0  0  0
 10 18  2  0  0  0  0
 11  4  2  0  0  0  0
 13 18  1  6  0  0  0
 13  8  1  0  0  0  0
 14  5  1  0  0  0  0
 14  1  2  0  0  0  0
 15 11  1  0  0  0  0
 15 20  2  0  0  0  0
 16 12  1  0  0  0  0
 16 17  1  0  0  0  0
 19 10  1  0  0  0  0
 19  3  2  0  0  0  0
 20 19  1  0  0  0  0
 21 22  2  0  0  0  0
 22 25  1  0  0  0  0
 23 22  1  0  0  0  0
 25 24  1  6  0  0  0
 26 29  1  0  0  0  0
 26 28  1  1  0  0  0
 27 29  1  0  0  0  0
 30 25  1  6  0  0  0
 30 31  1  0  0  0  0
 30 27  1  0  0  0  0
 31 26  1  0  0  0  0
M  END
>  <MODEL>
6

>  <REMARK>
 VINA RESULT:      -7.7      3.632      6.991
  Name = 
  3 active torsions:
  status: ('A' for Active; 'I' for Inactive)
    1  A    between atoms: C_9  and  C_22
    2  A    between atoms: C_15  and  N_23
    3  A    between atoms: C_19  and  C_22
                            x       y       z     vdW  Elec       q    Type
                         _______ _______ _______ _____ _____    ______ ____

>  <TORSDO>
F 3

$$$$
=
 OpenBabel11052422293D

 31 35  0  0  1  0  0  0  0  0999 V2000
  161.2000  205.5820  145.9410 C   0  0  0  0  0  0  0  0  0  0  0  0
  161.5840  204.9410  149.7140 C   0  0  1  0  0  3  0  0  0  0  0  0
  161.2060  203.4620  149.8760 C   0  0  0  0  0  0  0  0  0  0  0  0
  159.9930  201.8040  148.4980 C   0  0  0  0  0  3  0  0  0  0  0  0
  161.3000  205.6160  148.3750 C   0  0  0  0  0  0  0  0  0  0  0  0
  160.9280  206.9500  145.9220 C   0  0  0  0  0  3  0  0  0  0  0  0
  161.2780  202.5320  148.7030 C   0  0  0  0  0  2  0  0  0  0  0  0
  161.4340  207.2180  150.7800 C   0  0  2  0  0  3  0  0  0  0  0  0
  161.2860  204.8230  144.6650 C   0  0  0  0  0  1  0  0  0  0  0  0
  161.3320  203.8170  152.3050 C   0  0  0  0  0  3  0  0  0  0  0  0
  159.5200  200.9340  149.3860 C   0  0  0  0  0  3  0  0  0  0  0  0
  161.0480  207.7620  149.5200 O   0  0  0  0  0  0  0  0  0  0  0  0
  160.9800  205.7650  150.8690 C   0  0  2  0  0  3  0  0  0  0  0  0
  161.3990  204.9260  147.1570 C   0  0  0  0  0  3  0  0  0  0  0  0
  160.1480  200.6520  150.6880 C   0  0  0  0  0  3  0  0  0  0  0  0
  161.0760  207.0120  148.3400 C   0  0  0  0  0  0  0  0  0  0  0  0
  160.8700  207.6640  147.1200 C   0  0  0  0  0  3  0  0  0  0  0  0
  161.3220  205.1440  152.1890 C   0  0  0  0  0  3  0  0  0  0  0  0
  161.1090  202.9470  151.1300 C   0  0  0  0  0  0  0  0  0  0  0  0
  160.8440  201.5220  151.4320 C   0  0  0  0  0  3  0  0  0  0  0  0
  162.4250  209.7080  151.7540 O   0  0  0  0  0  0  0  0  0  0  0  0
  161.3760  209.2500  152.2830 C   0  0  0  0  0  0  0  0  0  0  0  0
  160.8320  208.0030  151.8480 N   0  0  0  0  0  2  0  0  0  0  0  0
  161.5720  210.7890  154.0900 O   0  0  0  0  0  1  0  0  0  0  0  0
  160.6670  210.0240  153.3470 C   0  0  1  0  0  3  0  0  0  0  0  0
  158.3780  212.7680  153.5340 C   0  0  2  0  0  3  0  0  0  0  0  0
  160.0810  212.0960  152.0130 C   0  0  0  0  0  2  0  0  0  0  0  0
  156.9980  212.9540  153.4540 O   0  0  0  0  0  1  0  0  0  0  0  0
  159.0180  213.1360  152.2140 C   0  0  0  0  0  2  0  0  0  0  0  0
  159.5520  210.8920  152.7630 C   0  0  2  0  0  3  0  0  0  0  0  0
  158.6720  211.3690  153.8230 N   0  0  0  0  0  2  0  0  0  0  0  0
  1 14  1  0  0  0  0
  2  5  1  6  0  0  0
  2  3  1  0  0  0  0
  2 13  1  0  0  0  0
  3 19  2  0  0  0  0
  4  7  1  0  0  0  0
  4 11  2  0  0  0  0
  6  1  2  0  0  0  0
  6 17  1  0  0  0  0
  7  3  1  0  0  0  0
  8 13  1  0  0  0  0
  8 23  1  1  0  0  0
  9  1  1  0  0  0  0
 11 15  1  0  0  0  0
 12  8  1  0  0  0  0
 13 18  1  1  0  0  0
 14  5  2  0  0  0  0
 15 20  2  0  0  0  0
 16  5  1  0  0  0  0
 16 12  1  0  0  0  0
 17 16  2  0  0  0  0
 18 10  2  0  0  0  0
 19 20  1  0  0  0  0
 19 10  1  0  0  0  0
 21 22  2  0  0  0  0
 22 25  1  0  0  0  0
 23 22  1  0  0  0  0
 25 24  1  6  0  0  0
 26 28  1  6  0  0  0
 26 31  1  0  0  0  0
 27 29  1  0  0  0  0
 27 30  1  0  0  0  0
 29 26  1  0  0  0  0
 30 25  1  1  0  0  0
 30 31  1  0  0  0  0
M  END
>  <MODEL>
7

>  <REMARK>
 VINA RESULT:      -7.3      3.514      5.922
  Name = 
  3 active torsions:
  status: ('A' for Active; 'I' for Inactive)
    1  A    between atoms: C_9  and  C_22
    2  A    between atoms: C_15  and  N_23
    3  A    between atoms: C_19  and  C_22
                            x       y       z     vdW  Elec       q    Type
                         _______ _______ _______ _____ _____    ______ ____

>  <TORSDO>
F 3

$$$$
=
 OpenBabel11052422293D

 31 35  0  0  1  0  0  0  0  0999 V2000
  161.5480  204.3470  147.2520 C   0  0  0  0  0  0  0  0  0  0  0  0
  162.1650  207.0760  149.8920 C   0  0  1  0  0  3  0  0  0  0  0  0
  161.8720  206.3720  151.2240 C   0  0  0  0  0  0  0  0  0  0  0  0
  160.6730  204.3120  151.8900 C   0  0  0  0  0  3  0  0  0  0  0  0
  161.7760  206.3650  148.5990 C   0  0  0  0  0  0  0  0  0  0  0  0
  161.2060  205.1150  146.1390 C   0  0  0  0  0  3  0  0  0  0  0  0
  161.9290  204.8770  151.3160 C   0  0  0  0  0  2  0  0  0  0  0  0
  161.9560  209.2510  148.6400 C   0  0  2  0  0  3  0  0  0  0  0  0
  161.6040  202.8650  147.1440 C   0  0  0  0  0  1  0  0  0  0  0  0
  162.1090  208.5670  152.3030 C   0  0  0  0  0  3  0  0  0  0  0  0
  160.2930  204.5530  153.1410 C   0  0  0  0  0  3  0  0  0  0  0  0
  161.4750  208.5320  147.5070 O   0  0  0  0  0  0  0  0  0  0  0  0
  161.5820  208.5030  149.9160 C   0  0  2  0  0  3  0  0  0  0  0  0
  161.8450  204.9690  148.4660 C   0  0  0  0  0  3  0  0  0  0  0  0
  161.0040  205.4530  154.0660 C   0  0  0  0  0  3  0  0  0  0  0  0
  161.4790  207.1350  147.4500 C   0  0  0  0  0  0  0  0  0  0  0  0
  161.1760  206.5070  146.2380 C   0  0  0  0  0  3  0  0  0  0  0  0
  162.0260  209.2290  151.1490 C   0  0  0  0  0  3  0  0  0  0  0  0
  161.8680  207.1100  152.3660 C   0  0  0  0  0  0  0  0  0  0  0  0
  161.6920  206.5500  153.7250 C   0  0  0  0  0  3  0  0  0  0  0  0
  163.3090  211.6450  147.8860 O   0  0  0  0  0  0  0  0  0  0  0  0
  162.1050  211.7450  148.2470 C   0  0  0  0  0  0  0  0  0  0  0  0
  161.3720  210.5850  148.6460 N   0  0  0  0  0  2  0  0  0  0  0  0
  162.2940  214.0900  148.6120 O   0  0  0  0  0  1  0  0  0  0  0  0
  161.4170  213.0710  148.2270 C   0  0  1  0  0  3  0  0  0  0  0  0
  161.4600  212.9540  144.6500 C   0  0  2  0  0  3  0  0  0  0  0  0
  159.9610  212.2070  146.3420 C   0  0  0  0  0  2  0  0  0  0  0  0
  161.3870  213.8660  143.5970 O   0  0  0  0  0  1  0  0  0  0  0  0
  160.1100  212.3020  144.8520 C   0  0  0  0  0  2  0  0  0  0  0  0
  160.7940  213.3600  146.8610 C   0  0  2  0  0  3  0  0  0  0  0  0
  161.8330  213.6460  145.8790 N   0  0  0  0  0  2  0  0  0  0  0  0
  1 14  1  0  0  0  0
  2  5  1  6  0  0  0
  2 13  1  0  0  0  0
  2  3  1  0  0  0  0
  3  7  1  0  0  0  0
  3 19  2  0  0  0  0
  4 11  2  0  0  0  0
  6 17  1  0  0  0  0
  6  1  2  0  0  0  0
  7  4  1  0  0  0  0
  8 23  1  1  0  0  0
  8 13  1  0  0  0  0
  9  1  1  0  0  0  0
 10 19  1  0  0  0  0
 11 15  1  0  0  0  0
 12  8  1  0  0  0  0
 13 18  1  1  0  0  0
 14  5  2  0  0  0  0
 16 12  1  0  0  0  0
 16  5  1  0  0  0  0
 17 16  2  0  0  0  0
 18 10  2  0  0  0  0
 19 20  1  0  0  0  0
 20 15  2  0  0  0  0
 21 22  2  0  0  0  0
 22 23  1  0  0  0  0
 25 22  1  0  0  0  0
 25 24  1  6  0  0  0
 26 28  1  6  0  0  0
 26 29  1  0  0  0  0
 26 31  1  0  0  0  0
 27 30  1  0  0  0  0
 29 27  1  0  0  0  0
 30 25  1  1  0  0  0
 31 30  1  0  0  0  0
M  END
>  <MODEL>
8

>  <REMARK>
 VINA RESULT:      -6.9      1.767      2.536
  Name = 
  3 active torsions:
  status: ('A' for Active; 'I' for Inactive)
    1  A    between atoms: C_9  and  C_22
    2  A    between atoms: C_15  and  N_23
    3  A    between atoms: C_19  and  C_22
                            x       y       z     vdW  Elec       q    Type
                         _______ _______ _______ _____ _____    ______ ____

>  <TORSDO>
F 3

$$$$
=
 OpenBabel11052422293D

 31 35  0  0  1  0  0  0  0  0999 V2000
  161.6230  211.3070  149.8870 C   0  0  0  0  0  0  0  0  0  0  0  0
  160.8650  208.2610  152.1110 C   0  0  1  0  0  3  0  0  0  0  0  0
  161.1100  208.7760  153.5360 C   0  0  0  0  0  0  0  0  0  0  0  0
  162.3030  210.7080  154.5190 C   0  0  0  0  0  3  0  0  0  0  0  0
  161.3160  209.1310  150.9410 C   0  0  0  0  0  0  0  0  0  0  0  0
  162.0030  210.6880  148.6960 C   0  0  0  0  0  3  0  0  0  0  0  0
  161.0660  210.2470  153.8250 C   0  0  0  0  0  2  0  0  0  0  0  0
  161.1020  206.2690  150.5890 C   0  0  2  0  0  3  0  0  0  0  0  0
  161.5880  212.7900  149.9760 C   0  0  0  0  0  1  0  0  0  0  0  0
  160.8030  206.4610  154.3010 C   0  0  0  0  0  3  0  0  0  0  0  0
  162.6270  210.2970  155.7410 C   0  0  0  0  0  3  0  0  0  0  0  0
  161.6380  207.1240  149.5820 O   0  0  0  0  0  0  0  0  0  0  0  0
  161.4300  206.8340  151.9670 C   0  0  2  0  0  3  0  0  0  0  0  0
  161.2690  210.5330  150.9940 C   0  0  0  0  0  3  0  0  0  0  0  0
  161.8680  209.2940  156.5080 C   0  0  0  0  0  3  0  0  0  0  0  0
  161.6530  208.5160  149.7130 C   0  0  0  0  0  0  0  0  0  0  0  0
  162.0130  209.2950  148.6090 C   0  0  0  0  0  3  0  0  0  0  0  0
  160.9270  205.9580  153.0740 C   0  0  0  0  0  3  0  0  0  0  0  0
  161.0580  207.8930  154.5680 C   0  0  0  0  0  0  0  0  0  0  0  0
  161.1820  208.2640  155.9960 C   0  0  0  0  0  3  0  0  0  0  0  0
  159.6030  203.8490  150.4130 O   0  0  0  0  0  0  0  0  0  0  0  0
  160.8600  203.7630  150.3490 C   0  0  0  0  0  0  0  0  0  0  0  0
  161.6700  204.9360  150.4400 N   0  0  0  0  0  2  0  0  0  0  0  0
  161.5110  201.6900  151.3220 O   0  0  0  0  0  1  0  0  0  0  0  0
  161.5170  202.4370  150.1400 C   0  0  1  0  0  3  0  0  0  0  0  0
  161.1930  201.6330  146.6680 C   0  0  2  0  0  3  0  0  0  0  0  0
  161.6110  200.3880  148.6530 C   0  0  0  0  0  2  0  0  0  0  0  0
  160.1840  201.6500  145.7050 O   0  0  0  0  0  1  0  0  0  0  0  0
  161.3840  200.2230  147.1790 C   0  0  0  0  0  2  0  0  0  0  0  0
  160.8700  201.6650  148.9890 C   0  0  2  0  0  3  0  0  0  0  0  0
  160.8220  202.4900  147.7880 N   0  0  0  0  0  2  0  0  0  0  0  0
  1  9  1  0  0  0  0
  1 14  1  0  0  0  0
  2  5  1  6  0  0  0
  2  3  1  0  0  0  0
  3  7  1  0  0  0  0
  3 19  2  0  0  0  0
  4 11  2  0  0  0  0
  5 14  2  0  0  0  0
  6  1  2  0  0  0  0
  7  4  1  0  0  0  0
  8 23  1  1  0  0  0
  8 13  1  0  0  0  0
 10 19  1  0  0  0  0
 11 15  1  0  0  0  0
 12 16  1  0  0  0  0
 12  8  1  0  0  0  0
 13  2  1  0  0  0  0
 13 18  1  1  0  0  0
 16  5  1  0  0  0  0
 17  6  1  0  0  0  0
 17 16  2  0  0  0  0
 18 10  2  0  0  0  0
 19 20  1  0  0  0  0
 20 15  2  0  0  0  0
 22 21  2  0  0  0  0
 22 23  1  0  0  0  0
 25 22  1  0  0  0  0
 25 24  1  1  0  0  0
 26 28  1  6  0  0  0
 26 29  1  0  0  0  0
 26 31  1  0  0  0  0
 27 30  1  0  0  0  0
 29 27  1  0  0  0  0
 30 25  1  1  0  0  0
 31 30  1  0  0  0  0
M  END
>  <MODEL>
9

>  <REMARK>
 VINA RESULT:      -6.8      3.375      7.231
  Name = 
  3 active torsions:
  status: ('A' for Active; 'I' for Inactive)
    1  A    between atoms: C_9  and  C_22
    2  A    between atoms: C_15  and  N_23
    3  A    between atoms: C_19  and  C_22
                            x       y       z     vdW  Elec       q    Type
                         _______ _______ _______ _____ _____    ______ ____

>  <TORSDO>
F 3

$$$$
