=
 OpenBabel11062408383D

 55 62  0  0  1  0  0  0  0  0999 V2000
  160.6780  209.4330  152.8980 C   0  0  0  0  0  1  0  0  0  0  0  0
  159.9460  209.3320  154.2180 C   0  0  1  0  0  3  0  0  0  0  0  0
  158.2340  209.9040  154.0040 S   0  0  0  0  0  0  0  0  0  0  0  0
  156.1460  214.1420  154.6200 O   0  0  0  0  0  0  0  0  0  0  0  0
  160.8020  211.6810  155.9600 C   0  0  0  0  0  2  0  0  0  0  0  0
  160.6270  212.4860  157.2460 C   0  0  0  0  0  2  0  0  0  0  0  0
  159.7170  212.0270  154.9410 C   0  0  1  0  0  3  0  0  0  0  0  0
  159.2770  214.1170  156.1170 O   0  0  0  0  0  0  0  0  0  0  0  0
  160.4430  213.9580  156.8880 C   0  0  0  0  0  2  0  0  0  0  0  0
  158.4230  211.2410  155.2250 C   0  0  1  0  0  3  0  0  0  0  0  0
  155.8140  213.3700  153.4960 C   0  0  2  0  0  3  0  0  0  0  0  0
  158.4170  213.9290  153.8750 C   0  0  2  0  0  3  0  0  0  0  0  0
  159.5430  213.5630  154.8470 C   0  0  2  0  0  3  0  0  0  0  0  0
  157.1530  212.0970  155.2920 C   0  0  0  0  0  2  0  0  0  0  0  0
  157.1050  213.1910  154.2260 C   0  0  1  0  0  0  0  0  0  0  0  0
  158.1410  212.9020  151.6150 C   0  0  0  0  0  3  0  0  0  0  0  0
  159.6290  213.4260  149.7640 C   0  0  0  0  0  0  0  0  0  0  0  0
  159.9690  214.4520  151.9380 C   0  0  0  0  0  3  0  0  0  0  0  0
  160.3500  214.2850  150.6060 C   0  0  0  0  0  3  0  0  0  0  0  0
  158.5210  212.7350  150.2820 C   0  0  0  0  0  3  0  0  0  0  0  0
  158.8640  213.7570  152.4500 C   0  0  0  0  0  0  0  0  0  0  0  0
  160.0200  213.2670  148.3930 N   0  0  0  0  0  0  0  0  0  0  0  0
  159.0800  213.2300  147.4150 O   0  0  0  0  0  1  0  0  0  0  0  0
  161.4040  213.0090  148.0270 C   0  0  0  0  0  1  0  0  0  0  0  0
  155.9000  214.2410  152.2560 C   0  0  0  0  0  2  0  0  0  0  0  0
  154.5130  214.4530  151.6820 C   0  0  0  0  0  2  0  0  0  0  0  0
  154.5650  214.3820  150.1670 C   0  0  0  0  0  2  0  0  0  0  0  0
  155.8720  214.1330  149.7460 O   0  0  0  0  0  1  0  0  0  0  0  0
  159.9470  208.0040  154.6510 O   0  0  0  0  0  0  0  0  0  0  0  0
  161.2280  207.5340  154.3490 C   0  0  0  0  0  2  0  0  0  0  0  0
  161.1570  206.0750  153.9270 C   0  0  0  0  0  2  0  0  0  0  0  0
  160.4310  205.9160  152.5950 C   0  0  0  0  0  2  0  0  0  0  0  0
  160.9450  203.0000  152.7360 O   0  0  0  0  0  0  0  0  0  0  0  0
  161.2320  205.0950  151.5780 C   0  0  1  0  0  0  0  0  0  0  0  0
  161.9020  203.9310  152.2870 C   0  0  2  0  0  3  0  0  0  0  0  0
  160.6690  203.2420  150.3830 C   0  0  1  0  0  3  0  0  0  0  0  0
  161.5610  202.7460  151.4990 C   0  0  2  0  0  3  0  0  0  0  0  0
  160.3690  204.6030  150.5800 O   0  0  0  0  0  0  0  0  0  0  0  0
  159.6420  201.7830  146.8000 C   0  0  0  0  0  2  0  0  0  0  0  0
  161.3430  203.0350  149.0270 C   0  0  1  0  0  3  0  0  0  0  0  0
  161.0700  201.6500  147.2760 C   0  0  2  0  0  0  0  0  0  0  0  0
  161.2930  201.6720  148.6610 O   0  0  0  0  0  0  0  0  0  0  0  0
  160.6050  202.9710  146.7430 C   0  0  2  0  0  0  0  0  0  0  0  0
  161.9410  200.9030  146.4830 O   0  0  0  0  0  1  0  0  0  0  0  0
  160.6700  203.8790  147.9480 C   0  0  2  0  0  3  0  0  0  0  0  0
  161.4490  205.1370  147.7120 C   0  0  0  0  0  0  0  0  0  0  0  0
  160.8060  206.3680  147.6580 O   0  0  0  0  0  1  0  0  0  0  0  0
  162.6950  205.0730  147.5540 O   0  0  0  0  0  0  0  0  0  0  0  0
  161.1650  203.3440  145.3720 C   0  0  0  0  0  2  0  0  0  0  0  0
  160.2540  204.1530  144.6930 O   0  0  0  0  0  0  0  0  0  0  0  0
  160.9960  205.2690  144.3120 C   0  0  0  0  0  1  0  0  0  0  0  0
  162.5130  206.1190  150.7960 S   0  0  0  0  0  0  0  0  0  0  0  0
  161.7560  207.4460  150.2820 C   0  0  0  0  0  2  0  0  0  0  0  0
  162.5140  208.5010  149.5560 C   0  0  0  0  0  2  0  0  0  0  0  0
  162.5070  209.6770  150.3040 O   0  0  0  0  0  1  0  0  0  0  0  0
  2  1  1  6  0  0  0
  2 29  1  0  0  0  0
  3  2  1  0  0  0  0
  5  6  1  0  0  0  0
  7 10  1  0  0  0  0
  7  5  1  1  0  0  0
  8  9  1  0  0  0  0
  9  6  1  0  0  0  0
 10  3  1  6  0  0  0
 10 14  1  0  0  0  0
 11 25  1  6  0  0  0
 11 15  1  0  0  0  0
 11  4  1  0  0  0  0
 12 21  1  6  0  0  0
 12 15  1  0  0  0  0
 12 13  1  0  0  0  0
 13  7  1  0  0  0  0
 13  8  1  1  0  0  0
 15  4  1  0  0  0  0
 15 14  1  1  0  0  0
 16 21  1  0  0  0  0
 17 20  1  0  0  0  0
 17 19  2  0  0  0  0
 18 21  2  0  0  0  0
 19 18  1  0  0  0  0
 20 16  2  0  0  0  0
 22 17  1  0  0  0  0
 23 22  1  0  0  0  0
 24 22  1  0  0  0  0
 26 25  1  0  0  0  0
 27 26  1  0  0  0  0
 28 27  1  0  0  0  0
 30 29  1  0  0  0  0
 31 30  1  0  0  0  0
 32 31  1  0  0  0  0
 34 35  1  0  0  0  0
 34 32  1  1  0  0  0
 35 33  1  1  0  0  0
 36 38  1  1  0  0  0
 36 37  1  0  0  0  0
 37 35  1  0  0  0  0
 37 33  1  1  0  0  0
 38 34  1  0  0  0  0
 39 41  1  0  0  0  0
 40 42  1  6  0  0  0
 40 36  1  0  0  0  0
 41 44  1  6  0  0  0
 41 42  1  0  0  0  0
 43 49  1  6  0  0  0
 43 39  1  0  0  0  0
 43 41  1  0  0  0  0
 43 45  1  0  0  0  0
 45 46  1  6  0  0  0
 45 40  1  0  0  0  0
 47 46  1  0  0  0  0
 48 46  2  0  0  0  0
 50 49  1  0  0  0  0
 51 50  1  0  0  0  0
 52 34  1  0  0  0  0
 53 52  1  0  0  0  0
 54 53  1  0  0  0  0
 54 55  1  0  0  0  0
M  END
>  <MODEL>
1

>  <REMARK>
 VINA RESULT:      -2.5      0.000      0.000
  Name = 
  18 active torsions:
  status: ('A' for Active; 'I' for Inactive)
    1  A    between atoms: C_1  and  C_53
    2  A    between atoms: C_4  and  C_35
    3  A    between atoms: C_4  and  O_37
    4  A    between atoms: C_6  and  C_22
    5  A    between atoms: C_8  and  C_43
    6  A    between atoms: C_8  and  S_51
    7  A    between atoms: N_10  and  C_32
    8  A    between atoms: O_11  and  C_29
    9  A    between atoms: S_19  and  C_26
   10  A    between atoms: S_19  and  C_40
   11  A    between atoms: C_24  and  C_44
   12  A    between atoms: C_27  and  C_54
   13  A    between atoms: C_28  and  C_31
   14  A    between atoms: C_29  and  C_38
   15  A    between atoms: C_31  and  C_44
   16  A    between atoms: C_33  and  C_52
   17  A    between atoms: C_35  and  C_43
   18  A    between atoms: O_37  and  C_40
                            x       y       z     vdW  Elec       q    Type
                         _______ _______ _______ _____ _____    ______ ____

>  <TORSDO>
F 18

$$$$
=
 OpenBabel11062408383D

 55 62  0  0  1  0  0  0  0  0999 V2000
  161.5350  207.7100  138.4000 C   0  0  0  0  0  1  0  0  0  0  0  0
  162.1530  207.7650  139.7800 C   0  0  1  0  0  3  0  0  0  0  0  0
  161.4980  209.2040  140.6770 S   0  0  0  0  0  0  0  0  0  0  0  0
  162.0780  213.5070  138.7150 O   0  0  0  0  0  0  0  0  0  0  0  0
  158.4900  209.4290  138.5620 C   0  0  0  0  0  2  0  0  0  0  0  0
  158.3900  209.8350  137.0940 C   0  0  0  0  0  2  0  0  0  0  0  0
  159.4010  210.3810  139.3370 C   0  0  1  0  0  3  0  0  0  0  0  0
  159.1300  212.0620  137.5920 O   0  0  0  0  0  0  0  0  0  0  0  0
  158.0800  211.3280  137.0110 C   0  0  0  0  0  2  0  0  0  0  0  0
  160.8800  209.9940  139.1590 C   0  0  1  0  0  3  0  0  0  0  0  0
  162.6460  213.2430  139.9720 C   0  0  2  0  0  3  0  0  0  0  0  0
  160.0030  212.8190  139.7050 C   0  0  2  0  0  3  0  0  0  0  0  0
  159.0600  211.8510  138.9850 C   0  0  2  0  0  3  0  0  0  0  0  0
  161.7990  211.1460  138.7350 C   0  0  0  0  0  2  0  0  0  0  0  0
  161.4850  212.4620  139.4470 C   0  0  1  0  0  0  0  0  0  0  0  0
  160.0400  211.9360  142.0410 C   0  0  0  0  0  3  0  0  0  0  0  0
  159.0170  213.1320  143.8940 C   0  0  0  0  0  0  0  0  0  0  0  0
  158.9280  214.0470  141.6470 C   0  0  0  0  0  3  0  0  0  0  0  0
  158.6180  214.1400  143.0050 C   0  0  0  0  0  3  0  0  0  0  0  0
  159.7310  212.0280  143.3990 C   0  0  0  0  0  3  0  0  0  0  0  0
  159.6370  212.9410  141.1580 C   0  0  0  0  0  0  0  0  0  0  0  0
  158.7030  213.2400  145.2910 N   0  0  0  0  0  0  0  0  0  0  0  0
  159.1880  212.3280  146.1710 O   0  0  0  0  0  1  0  0  0  0  0  0
  157.7620  214.2350  145.7790 C   0  0  0  0  0  1  0  0  0  0  0  0
  162.2780  214.3660  140.9250 C   0  0  0  0  0  2  0  0  0  0  0  0
  163.1720  214.3120  142.1480 C   0  0  0  0  0  2  0  0  0  0  0  0
  162.8260  213.0960  142.9870 C   0  0  0  0  0  2  0  0  0  0  0  0
  163.6760  213.0220  144.0920 O   0  0  0  0  0  1  0  0  0  0  0  0
  161.8420  206.5950  140.4770 O   0  0  0  0  0  0  0  0  0  0  0  0
  162.2750  206.8360  141.7840 C   0  0  0  0  0  2  0  0  0  0  0  0
  162.0160  205.6120  142.6470 C   0  0  0  0  0  2  0  0  0  0  0  0
  160.7590  205.7860  143.4950 C   0  0  0  0  0  2  0  0  0  0  0  0
  163.0780  206.1940  145.2970 O   0  0  0  0  0  0  0  0  0  0  0  0
  160.9120  205.2080  144.9080 C   0  0  1  0  0  0  0  0  0  0  0  0
  162.3840  204.9720  145.1970 C   0  0  2  0  0  3  0  0  0  0  0  0
  161.3170  206.2300  146.9000 C   0  0  1  0  0  3  0  0  0  0  0  0
  162.6330  205.6050  146.4920 C   0  0  2  0  0  3  0  0  0  0  0  0
  160.3870  206.1130  145.8490 O   0  0  0  0  0  0  0  0  0  0  0  0
  162.0990  202.9300  149.0270 C   0  0  0  0  0  2  0  0  0  0  0  0
  160.7780  205.5640  148.1660 C   0  0  1  0  0  3  0  0  0  0  0  0
  160.6880  203.4700  148.9820 C   0  0  2  0  0  0  0  0  0  0  0  0
  160.3330  204.2560  147.8760 O   0  0  0  0  0  0  0  0  0  0  0  0
  161.6920  204.1400  149.8700 C   0  0  2  0  0  0  0  0  0  0  0  0
  159.6920  202.7080  149.5930 O   0  0  0  0  0  1  0  0  0  0  0  0
  161.8480  205.5110  149.2520 C   0  0  2  0  0  3  0  0  0  0  0  0
  161.6570  206.6340  150.2250 C   0  0  0  0  0  0  0  0  0  0  0  0
  160.4210  207.2570  150.3520 O   0  0  0  0  0  0  0  0  0  0  0  0
  162.6280  207.0190  150.9260 O   0  0  0  0  0  1  0  0  0  0  0  0
  161.4860  203.9060  151.3650 C   0  0  0  0  0  2  0  0  0  0  0  0
  162.0130  204.9750  152.0880 O   0  0  0  0  0  0  0  0  0  0  0  0
  161.1510  205.1210  153.1740 C   0  0  0  0  0  1  0  0  0  0  0  0
  160.0270  203.6280  145.0520 S   0  0  0  0  0  0  0  0  0  0  0  0
  161.0920  202.5870  145.6690 C   0  0  0  0  0  2  0  0  0  0  0  0
  160.7030  201.1680  145.8920 C   0  0  0  0  0  2  0  0  0  0  0  0
  159.7080  200.8100  144.9850 O   0  0  0  0  0  1  0  0  0  0  0  0
  2  1  1  6  0  0  0
  2 29  1  0  0  0  0
  2  3  1  0  0  0  0
  4 15  1  0  0  0  0
  4 11  1  0  0  0  0
  6  5  1  0  0  0  0
  7  5  1  6  0  0  0
  9  6  1  0  0  0  0
  9  8  1  0  0  0  0
 10  7  1  0  0  0  0
 10  3  1  1  0  0  0
 11 25  1  1  0  0  0
 12 21  1  1  0  0  0
 13  8  1  6  0  0  0
 13  7  1  0  0  0  0
 13 12  1  0  0  0  0
 14 10  1  0  0  0  0
 15 14  1  6  0  0  0
 15 12  1  0  0  0  0
 15 11  1  0  0  0  0
 16 20  1  0  0  0  0
 17 22  1  0  0  0  0
 18 19  2  0  0  0  0
 19 17  1  0  0  0  0
 20 17  2  0  0  0  0
 21 18  1  0  0  0  0
 21 16  2  0  0  0  0
 22 24  1  0  0  0  0
 22 23  1  0  0  0  0
 25 26  1  0  0  0  0
 26 27  1  0  0  0  0
 27 28  1  0  0  0  0
 29 30  1  0  0  0  0
 30 31  1  0  0  0  0
 31 32  1  0  0  0  0
 34 32  1  6  0  0  0
 34 52  1  0  0  0  0
 34 35  1  0  0  0  0
 34 38  1  0  0  0  0
 35 33  1  6  0  0  0
 35 37  1  0  0  0  0
 36 38  1  6  0  0  0
 36 40  1  0  0  0  0
 37 33  1  6  0  0  0
 37 36  1  0  0  0  0
 39 43  1  0  0  0  0
 40 42  1  6  0  0  0
 40 45  1  0  0  0  0
 41 39  1  0  0  0  0
 41 44  1  1  0  0  0
 41 43  1  0  0  0  0
 42 41  1  0  0  0  0
 43 49  1  1  0  0  0
 45 43  1  0  0  0  0
 45 46  1  1  0  0  0
 46 47  2  0  0  0  0
 46 48  1  0  0  0  0
 49 50  1  0  0  0  0
 50 51  1  0  0  0  0
 52 53  1  0  0  0  0
 53 54  1  0  0  0  0
 55 54  1  0  0  0  0
M  END
>  <MODEL>
2

>  <REMARK>
 VINA RESULT:      -2.3      5.418     10.926
  Name = 
  18 active torsions:
  status: ('A' for Active; 'I' for Inactive)
    1  A    between atoms: C_1  and  C_53
    2  A    between atoms: C_4  and  C_35
    3  A    between atoms: C_4  and  O_37
    4  A    between atoms: C_6  and  C_22
    5  A    between atoms: C_8  and  C_43
    6  A    between atoms: C_8  and  S_51
    7  A    between atoms: N_10  and  C_32
    8  A    between atoms: O_11  and  C_29
    9  A    between atoms: S_19  and  C_26
   10  A    between atoms: S_19  and  C_40
   11  A    between atoms: C_24  and  C_44
   12  A    between atoms: C_27  and  C_54
   13  A    between atoms: C_28  and  C_31
   14  A    between atoms: C_29  and  C_38
   15  A    between atoms: C_31  and  C_44
   16  A    between atoms: C_33  and  C_52
   17  A    between atoms: C_35  and  C_43
   18  A    between atoms: O_37  and  C_40
                            x       y       z     vdW  Elec       q    Type
                         _______ _______ _______ _____ _____    ______ ____

>  <TORSDO>
F 18

$$$$
=
 OpenBabel11062408383D

 55 62  0  0  1  0  0  0  0  0999 V2000
  161.0500  209.4270  152.5380 C   0  0  0  0  0  1  0  0  0  0  0  0
  160.7250  208.4810  153.6720 C   0  0  1  0  0  3  0  0  0  0  0  0
  159.1230  208.9380  154.3990 S   0  0  0  0  0  0  0  0  0  0  0  0
  157.7870  212.5870  157.1550 O   0  0  0  0  0  0  0  0  0  0  0  0
  162.3890  210.1620  155.5850 C   0  0  0  0  0  2  0  0  0  0  0  0
  162.8180  210.4940  157.0130 C   0  0  0  0  0  2  0  0  0  0  0  0
  161.0090  210.7420  155.2750 C   0  0  1  0  0  3  0  0  0  0  0  0
  161.2450  212.3010  157.1340 O   0  0  0  0  0  0  0  0  0  0  0  0
  162.6100  211.9850  157.2600 C   0  0  0  0  0  2  0  0  0  0  0  0
  159.8940  209.8170  155.7940 C   0  0  1  0  0  3  0  0  0  0  0  0
  156.9660  212.1990  156.0840 C   0  0  2  0  0  3  0  0  0  0  0  0
  159.5280  212.7890  155.5170 C   0  0  2  0  0  3  0  0  0  0  0  0
  160.9240  212.2090  155.7640 C   0  0  2  0  0  3  0  0  0  0  0  0
  158.8300  210.5120  156.6520 C   0  0  0  0  0  2  0  0  0  0  0  0
  158.4270  211.8860  156.1170 C   0  0  1  0  0  0  0  0  0  0  0  0
  159.9780  212.3360  153.1020 C   0  0  0  0  0  3  0  0  0  0  0  0
  158.9840  213.6680  151.3270 C   0  0  0  0  0  0  0  0  0  0  0  0
  158.5120  214.1780  153.6530 C   0  0  0  0  0  3  0  0  0  0  0  0
  158.3390  214.4510  152.2950 C   0  0  0  0  0  3  0  0  0  0  0  0
  159.8060  212.6070  151.7440 C   0  0  0  0  0  3  0  0  0  0  0  0
  159.3360  213.1210  154.0630 C   0  0  0  0  0  0  0  0  0  0  0  0
  158.7940  213.9470  149.9330 N   0  0  0  0  0  0  0  0  0  0  0  0
  159.8640  214.0630  149.1080 O   0  0  0  0  0  1  0  0  0  0  0  0
  157.4750  214.2430  149.3950 C   0  0  0  0  0  1  0  0  0  0  0  0
  156.5980  213.4290  155.2740 C   0  0  0  0  0  2  0  0  0  0  0  0
  155.0920  213.5960  155.2540 C   0  0  0  0  0  2  0  0  0  0  0  0
  154.6390  214.0410  153.8760 C   0  0  0  0  0  2  0  0  0  0  0  0
  154.9110  213.0410  152.9400 O   0  0  0  0  0  1  0  0  0  0  0  0
  160.6650  207.1730  153.1850 O   0  0  0  0  0  0  0  0  0  0  0  0
  161.4920  206.4390  154.0390 C   0  0  0  0  0  2  0  0  0  0  0  0
  161.3310  204.9530  153.7630 C   0  0  0  0  0  2  0  0  0  0  0  0
  160.4250  204.7060  152.5600 C   0  0  0  0  0  2  0  0  0  0  0  0
  160.5910  201.7960  152.0190 O   0  0  0  0  0  0  0  0  0  0  0  0
  161.1620  204.0510  151.3860 C   0  0  1  0  0  0  0  0  0  0  0  0
  161.6650  202.6830  151.8100 C   0  0  2  0  0  3  0  0  0  0  0  0
  160.4340  202.6080  149.7860 C   0  0  1  0  0  3  0  0  0  0  0  0
  161.2190  201.7630  150.7630 C   0  0  2  0  0  3  0  0  0  0  0  0
  160.2870  203.9130  150.2930 O   0  0  0  0  0  0  0  0  0  0  0  0
  159.4860  201.7330  145.9960 C   0  0  0  0  0  2  0  0  0  0  0  0
  161.1300  202.6400  148.4250 C   0  0  1  0  0  3  0  0  0  0  0  0
  160.9110  201.5540  146.4680 C   0  0  2  0  0  0  0  0  0  0  0  0
  161.1150  201.3540  147.8410 O   0  0  0  0  0  0  0  0  0  0  0  0
  160.4220  202.9340  146.1500 C   0  0  2  0  0  0  0  0  0  0  0  0
  161.8100  200.9650  145.5780 O   0  0  0  0  0  1  0  0  0  0  0  0
  160.4510  203.6350  147.4880 C   0  0  2  0  0  3  0  0  0  0  0  0
  161.2040  204.9290  147.4730 C   0  0  0  0  0  0  0  0  0  0  0  0
  162.5930  204.9400  147.4160 O   0  0  0  0  0  0  0  0  0  0  0  0
  160.5700  206.0150  147.5180 O   0  0  0  0  0  1  0  0  0  0  0  0
  160.9910  203.5380  144.8670 C   0  0  0  0  0  2  0  0  0  0  0  0
  160.5150  204.8390  144.7060 O   0  0  0  0  0  0  0  0  0  0  0  0
  161.3700  205.4070  143.7630 C   0  0  0  0  0  1  0  0  0  0  0  0
  162.5830  205.0650  150.8780 S   0  0  0  0  0  0  0  0  0  0  0  0
  161.9570  206.4340  150.3030 C   0  0  0  0  0  2  0  0  0  0  0  0
  162.8530  207.4930  149.7630 C   0  0  0  0  0  2  0  0  0  0  0  0
  162.0850  208.5370  149.2520 O   0  0  0  0  0  1  0  0  0  0  0  0
  2  1  1  6  0  0  0
  2  3  1  0  0  0  0
  5  6  1  0  0  0  0
  6  9  1  0  0  0  0
  7  5  1  1  0  0  0
  7 13  1  0  0  0  0
  7 10  1  0  0  0  0
  8  9  1  0  0  0  0
 10  3  1  6  0  0  0
 10 14  1  0  0  0  0
 11 25  1  6  0  0  0
 11 15  1  0  0  0  0
 11  4  1  0  0  0  0
 12 21  1  6  0  0  0
 12 13  1  0  0  0  0
 12 15  1  0  0  0  0
 13  8  1  1  0  0  0
 15 14  1  1  0  0  0
 15  4  1  0  0  0  0
 16 21  1  0  0  0  0
 17 20  1  0  0  0  0
 17 19  2  0  0  0  0
 18 21  2  0  0  0  0
 19 18  1  0  0  0  0
 20 16  2  0  0  0  0
 22 17  1  0  0  0  0
 23 22  1  0  0  0  0
 24 22  1  0  0  0  0
 26 25  1  0  0  0  0
 27 26  1  0  0  0  0
 28 27  1  0  0  0  0
 29  2  1  0  0  0  0
 29 30  1  0  0  0  0
 31 30  1  0  0  0  0
 32 31  1  0  0  0  0
 34 35  1  0  0  0  0
 34 32  1  1  0  0  0
 35 33  1  1  0  0  0
 36 38  1  1  0  0  0
 36 37  1  0  0  0  0
 37 35  1  0  0  0  0
 37 33  1  1  0  0  0
 38 34  1  0  0  0  0
 39 43  1  0  0  0  0
 39 41  1  0  0  0  0
 40 42  1  6  0  0  0
 40 36  1  0  0  0  0
 41 44  1  6  0  0  0
 41 42  1  0  0  0  0
 43 49  1  6  0  0  0
 43 41  1  0  0  0  0
 43 45  1  0  0  0  0
 45 46  1  6  0  0  0
 45 40  1  0  0  0  0
 46 48  1  0  0  0  0
 47 46  2  0  0  0  0
 50 49  1  0  0  0  0
 51 50  1  0  0  0  0
 52 34  1  0  0  0  0
 53 52  1  0  0  0  0
 54 53  1  0  0  0  0
 55 54  1  0  0  0  0
M  END
>  <MODEL>
3

>  <REMARK>
 VINA RESULT:      -1.2      1.484      2.049
  Name = 
  18 active torsions:
  status: ('A' for Active; 'I' for Inactive)
    1  A    between atoms: C_1  and  C_53
    2  A    between atoms: C_4  and  C_35
    3  A    between atoms: C_4  and  O_37
    4  A    between atoms: C_6  and  C_22
    5  A    between atoms: C_8  and  C_43
    6  A    between atoms: C_8  and  S_51
    7  A    between atoms: N_10  and  C_32
    8  A    between atoms: O_11  and  C_29
    9  A    between atoms: S_19  and  C_26
   10  A    between atoms: S_19  and  C_40
   11  A    between atoms: C_24  and  C_44
   12  A    between atoms: C_27  and  C_54
   13  A    between atoms: C_28  and  C_31
   14  A    between atoms: C_29  and  C_38
   15  A    between atoms: C_31  and  C_44
   16  A    between atoms: C_33  and  C_52
   17  A    between atoms: C_35  and  C_43
   18  A    between atoms: O_37  and  C_40
                            x       y       z     vdW  Elec       q    Type
                         _______ _______ _______ _____ _____    ______ ____

>  <TORSDO>
F 18

$$$$
=
 OpenBabel11062408383D

 55 62  0  0  1  0  0  0  0  0999 V2000
  160.4870  213.9400  151.2820 C   0  0  0  0  0  1  0  0  0  0  0  0
  160.0290  213.0840  152.4430 C   0  0  1  0  0  3  0  0  0  0  0  0
  158.3920  212.3880  152.0690 S   0  0  0  0  0  0  0  0  0  0  0  0
  159.6790  214.4470  156.1680 O   0  0  0  0  0  0  0  0  0  0  0  0
  155.1070  212.9430  153.6440 C   0  0  0  0  0  2  0  0  0  0  0  0
  154.5670  214.2180  154.2890 C   0  0  0  0  0  2  0  0  0  0  0  0
  156.5420  212.6660  154.0910 C   0  0  1  0  0  3  0  0  0  0  0  0
  156.2260  214.1240  156.0180 O   0  0  0  0  0  0  0  0  0  0  0  0
  154.8390  214.1700  155.7890 C   0  0  0  0  0  2  0  0  0  0  0  0
  157.5470  213.4800  153.2550 C   0  0  1  0  0  3  0  0  0  0  0  0
  160.5710  213.5720  155.5290 C   0  0  2  0  0  3  0  0  0  0  0  0
  158.1140  212.6300  156.0830 C   0  0  2  0  0  3  0  0  0  0  0  0
  156.6690  212.8440  155.6240 C   0  0  2  0  0  3  0  0  0  0  0  0
  158.5650  214.2810  154.0750 C   0  0  0  0  0  2  0  0  0  0  0  0
  159.0980  213.5160  155.2870 C   0  0  1  0  0  0  0  0  0  0  0  0
  159.0930  210.6290  157.2130 C   0  0  0  0  0  3  0  0  0  0  0  0
  159.1010  208.4300  156.1750 C   0  0  0  0  0  0  0  0  0  0  0  0
  158.1450  210.3320  155.0090 C   0  0  0  0  0  3  0  0  0  0  0  0
  158.4640  208.9740  155.0510 C   0  0  0  0  0  3  0  0  0  0  0  0
  159.4130  209.2710  157.2570 C   0  0  0  0  0  3  0  0  0  0  0  0
  158.4620  211.1670  156.0890 C   0  0  0  0  0  0  0  0  0  0  0  0
  159.4180  207.0310  156.2160 N   0  0  0  0  0  0  0  0  0  0  0  0
  158.5240  206.1160  155.7670 O   0  0  0  0  0  1  0  0  0  0  0  0
  160.6330  206.5500  156.8550 C   0  0  0  0  0  1  0  0  0  0  0  0
  161.0870  212.5670  156.5430 C   0  0  0  0  0  2  0  0  0  0  0  0
  162.0190  211.5850  155.8610 C   0  0  0  0  0  2  0  0  0  0  0  0
  163.0390  211.0640  156.8560 C   0  0  0  0  0  2  0  0  0  0  0  0
  164.2990  211.0010  156.2590 O   0  0  0  0  0  1  0  0  0  0  0  0
  160.9440  212.0490  152.6480 O   0  0  0  0  0  0  0  0  0  0  0  0
  160.4390  210.9780  151.9070 C   0  0  0  0  0  2  0  0  0  0  0  0
  161.2380  209.7200  152.2060 C   0  0  0  0  0  2  0  0  0  0  0  0
  160.4130  208.4630  151.9500 C   0  0  0  0  0  2  0  0  0  0  0  0
  161.0660  206.0250  153.5050 O   0  0  0  0  0  0  0  0  0  0  0  0
  161.2630  207.2850  151.4580 C   0  0  1  0  0  0  0  0  0  0  0  0
  161.9810  206.6570  152.6400 C   0  0  2  0  0  3  0  0  0  0  0  0
  160.8030  205.0600  151.3440 C   0  0  1  0  0  3  0  0  0  0  0  0
  161.7070  205.2230  152.5450 C   0  0  2  0  0  3  0  0  0  0  0  0
  160.4360  206.3250  150.8470 O   0  0  0  0  0  0  0  0  0  0  0  0
  159.9450  201.8700  149.0820 C   0  0  0  0  0  2  0  0  0  0  0  0
  161.5000  204.2420  150.2560 C   0  0  1  0  0  3  0  0  0  0  0  0
  161.3780  202.1320  149.4870 C   0  0  2  0  0  0  0  0  0  0  0  0
  161.5910  202.8890  150.6490 O   0  0  0  0  0  0  0  0  0  0  0  0
  160.7810  202.9370  148.3730 C   0  0  2  0  0  0  0  0  0  0  0  0
  162.3240  201.1650  149.1500 O   0  0  0  0  0  1  0  0  0  0  0  0
  160.7480  204.3410  148.9320 C   0  0  2  0  0  3  0  0  0  0  0  0
  161.3940  205.3570  148.0430 C   0  0  0  0  0  0  0  0  0  0  0  0
  160.6430  206.0550  147.1030 O   0  0  0  0  0  0  0  0  0  0  0  0
  162.6290  205.5750  148.1440 O   0  0  0  0  0  1  0  0  0  0  0  0
  161.3050  202.5950  146.9800 C   0  0  0  0  0  2  0  0  0  0  0  0
  160.3220  201.9200  146.2580 O   0  0  0  0  0  0  0  0  0  0  0  0
  160.1010  202.7210  145.1390 C   0  0  0  0  0  1  0  0  0  0  0  0
  162.5010  207.8480  150.2540 S   0  0  0  0  0  0  0  0  0  0  0  0
  161.6880  208.7190  149.1680 C   0  0  0  0  0  2  0  0  0  0  0  0
  162.4020  209.3150  148.0060 C   0  0  0  0  0  2  0  0  0  0  0  0
  162.5240  210.6900  148.1890 O   0  0  0  0  0  1  0  0  0  0  0  0
  2  1  1  6  0  0  0
  2 29  1  0  0  0  0
  3  2  1  0  0  0  0
  5  6  1  0  0  0  0
  6  9  1  0  0  0  0
  7  5  1  6  0  0  0
  7 13  1  0  0  0  0
  9  8  1  0  0  0  0
 10  3  1  6  0  0  0
 10 14  1  0  0  0  0
 10  7  1  0  0  0  0
 11  4  1  0  0  0  0
 11 25  1  1  0  0  0
 12 21  1  6  0  0  0
 13  8  1  6  0  0  0
 13 12  1  0  0  0  0
 15 14  1  6  0  0  0
 15 11  1  0  0  0  0
 15 12  1  0  0  0  0
 15  4  1  0  0  0  0
 16 20  1  0  0  0  0
 17 22  1  0  0  0  0
 17 20  2  0  0  0  0
 18 19  2  0  0  0  0
 18 21  1  0  0  0  0
 19 17  1  0  0  0  0
 21 16  2  0  0  0  0
 22 24  1  0  0  0  0
 23 22  1  0  0  0  0
 26 25  1  0  0  0  0
 26 27  1  0  0  0  0
 28 27  1  0  0  0  0
 30 31  1  0  0  0  0
 30 29  1  0  0  0  0
 32 31  1  0  0  0  0
 34 32  1  1  0  0  0
 34 35  1  0  0  0  0
 35 33  1  1  0  0  0
 36 38  1  6  0  0  0
 36 37  1  0  0  0  0
 37 35  1  0  0  0  0
 37 33  1  1  0  0  0
 38 34  1  0  0  0  0
 39 41  1  0  0  0  0
 40 42  1  1  0  0  0
 40 36  1  0  0  0  0
 41 44  1  6  0  0  0
 41 42  1  0  0  0  0
 43 49  1  6  0  0  0
 43 45  1  0  0  0  0
 43 39  1  0  0  0  0
 43 41  1  0  0  0  0
 45 46  1  6  0  0  0
 45 40  1  0  0  0  0
 46 48  1  0  0  0  0
 47 46  2  0  0  0  0
 50 49  1  0  0  0  0
 51 50  1  0  0  0  0
 52 34  1  0  0  0  0
 53 52  1  0  0  0  0
 54 55  1  0  0  0  0
 54 53  1  0  0  0  0
M  END
>  <MODEL>
4

>  <REMARK>
 VINA RESULT:      -0.5      2.376      5.091
  Name = 
  18 active torsions:
  status: ('A' for Active; 'I' for Inactive)
    1  A    between atoms: C_1  and  C_53
    2  A    between atoms: C_4  and  C_35
    3  A    between atoms: C_4  and  O_37
    4  A    between atoms: C_6  and  C_22
    5  A    between atoms: C_8  and  C_43
    6  A    between atoms: C_8  and  S_51
    7  A    between atoms: N_10  and  C_32
    8  A    between atoms: O_11  and  C_29
    9  A    between atoms: S_19  and  C_26
   10  A    between atoms: S_19  and  C_40
   11  A    between atoms: C_24  and  C_44
   12  A    between atoms: C_27  and  C_54
   13  A    between atoms: C_28  and  C_31
   14  A    between atoms: C_29  and  C_38
   15  A    between atoms: C_31  and  C_44
   16  A    between atoms: C_33  and  C_52
   17  A    between atoms: C_35  and  C_43
   18  A    between atoms: O_37  and  C_40
                            x       y       z     vdW  Elec       q    Type
                         _______ _______ _______ _____ _____    ______ ____

>  <TORSDO>
F 18

$$$$
