=
 OpenBabel11052422163D

 25 27  0  0  1  0  0  0  0  0999 V2000
  161.7140  206.4170  149.3580 N   0  0  0  0  0  0  0  0  0  0  0  0
  161.3480  205.1620  149.6540 C   0  0  0  0  0  0  0  0  0  0  0  0
  161.6630  207.0720  150.5440 C   0  0  0  0  0  3  0  0  0  0  0  0
  161.0000  201.6810  148.6610 C   0  0  0  0  0  0  0  0  0  0  0  0
  161.2620  206.2690  151.5670 N   0  0  0  0  0  0  0  0  0  0  0  0
  160.7270  203.7900  151.6100 C   0  0  0  0  0  0  0  0  0  0  0  0
  160.4110  203.7060  153.0610 C   0  0  0  0  0  1  0  0  0  0  0  0
  160.9670  200.6140  147.9110 C   0  0  0  0  0  3  0  0  0  0  0  0
  161.3810  204.0180  148.8030 N   0  0  0  0  0  2  0  0  0  0  0  0
  162.1790  206.9550  148.1090 C   0  0  0  0  0  0  0  0  0  0  0  0
  163.0440  207.8730  148.1220 O   0  0  0  0  0  0  0  0  0  0  0  0
  160.7050  202.6830  150.8480 C   0  0  0  0  0  3  0  0  0  0  0  0
  161.0330  202.7550  149.3960 C   0  0  0  0  0  0  0  0  0  0  0  0
  161.0720  205.0740  150.9790 C   0  0  0  0  0  0  0  0  0  0  0  0
  161.6520  206.4800  146.8120 C   0  0  0  0  0  0  0  0  0  0  0  0
  160.6370  205.5470  144.4080 N   0  0  0  0  0  0  0  0  0  0  0  0
  160.2880  206.6000  146.5240 C   0  0  0  0  0  3  0  0  0  0  0  0
  159.7950  206.1280  145.3050 C   0  0  0  0  0  3  0  0  0  0  0  0
  161.9640  205.4050  144.6690 C   0  0  0  0  0  3  0  0  0  0  0  0
  162.4930  205.8640  145.8760 C   0  0  0  0  0  3  0  0  0  0  0  0
  161.4890  200.6460  146.5110 C   0  0  2  0  0  3  0  0  0  0  0  0
  161.1990  201.9840  145.8490 C   0  0  0  0  0  1  0  0  0  0  0  0
  160.9000  199.5320  145.7090 C   0  0  0  0  0  0  0  0  0  0  0  0
  159.8300  199.7880  144.8640 O   0  0  0  0  0  0  0  0  0  0  0  0
  161.3660  198.3640  145.7920 O   0  0  0  0  0  1  0  0  0  0  0  0
  1  2  1  0  0  0  0
  1  3  1  0  0  0  0
  2 14  2  0  0  0  0
  3  5  2  0  0  0  0
  4 13  2  0  0  0  0
  6  7  1  0  0  0  0
  8  4  2  0  0  0  0
  9 13  1  0  0  0  0
  9  2  1  0  0  0  0
 10 11  2  0  0  0  0
 10  1  1  0  0  0  0
 12  6  2  0  0  0  0
 13 12  1  0  0  0  0
 14  5  1  0  0  0  0
 14  6  1  0  0  0  0
 15 10  1  0  0  0  0
 16 19  2  0  0  0  0
 16 18  1  0  0  0  0
 17 15  1  0  0  0  0
 18 17  2  0  0  0  0
 19 20  1  0  0  0  0
 20 15  2  0  0  0  0
 21 22  1  6  0  0  0
 21  8  1  0  0  0  0
 23 25  1  0  0  0  0
 23 21  1  0  0  0  0
 24 23  2  0  0  0  0
M  END
>  <MODEL>
1

>  <REMARK>
 VINA RESULT:      -6.6      0.000      0.000
  Name = 
  3 active torsions:
  status: ('A' for Active; 'I' for Inactive)
    1  A    between atoms: C_2  and  C_21
    2  A    between atoms: C_5  and  C_18
    3  A    between atoms: C_15  and  C_21
                            x       y       z     vdW  Elec       q    Type
                         _______ _______ _______ _____ _____    ______ ____

>  <TORSDO>
F 3

$$$$
=
 OpenBabel11052422163D

 25 27  0  0  1  0  0  0  0  0999 V2000
  161.4620  204.7630  151.3840 N   0  0  0  0  0  0  0  0  0  0  0  0
  161.1350  203.9670  150.3560 C   0  0  0  0  0  0  0  0  0  0  0  0
  161.1140  204.0520  152.4840 C   0  0  0  0  0  3  0  0  0  0  0  0
  161.2620  203.2330  146.7960 C   0  0  0  0  0  0  0  0  0  0  0  0
  160.5670  202.8440  152.1750 N   0  0  0  0  0  0  0  0  0  0  0  0
  160.2200  201.7140  149.9310 C   0  0  0  0  0  0  0  0  0  0  0  0
  159.6130  200.4630  150.4590 C   0  0  0  0  0  1  0  0  0  0  0  0
  161.4670  203.3840  145.5160 C   0  0  0  0  0  3  0  0  0  0  0  0
  161.4310  204.1590  148.9730 N   0  0  0  0  0  2  0  0  0  0  0  0
  162.1370  206.0310  151.3690 C   0  0  0  0  0  0  0  0  0  0  0  0
  162.9090  206.3240  152.3220 O   0  0  0  0  0  0  0  0  0  0  0  0
  160.4410  201.8540  148.6120 C   0  0  0  0  0  3  0  0  0  0  0  0
  161.0600  203.0990  148.0750 C   0  0  0  0  0  0  0  0  0  0  0  0
  160.5940  202.8170  150.8300 C   0  0  0  0  0  0  0  0  0  0  0  0
  161.9320  207.0120  150.2820 C   0  0  0  0  0  0  0  0  0  0  0  0
  161.5040  208.8760  148.2760 N   0  0  0  0  0  0  0  0  0  0  0  0
  162.2770  208.3540  150.4750 C   0  0  0  0  0  3  0  0  0  0  0  0
  162.0580  209.2780  149.4510 C   0  0  0  0  0  3  0  0  0  0  0  0
  161.1460  207.5800  148.0670 C   0  0  0  0  0  3  0  0  0  0  0  0
  161.3490  206.6280  149.0670 C   0  0  0  0  0  3  0  0  0  0  0  0
  162.2670  204.5350  144.9990 C   0  0  2  0  0  3  0  0  0  0  0  0
  163.0640  205.1920  146.1150 C   0  0  0  0  0  1  0  0  0  0  0  0
  161.3760  205.5340  144.3380 C   0  0  0  0  0  0  0  0  0  0  0  0
  160.3750  206.1520  145.0750 O   0  0  0  0  0  1  0  0  0  0  0  0
  161.5260  205.8240  143.1210 O   0  0  0  0  0  0  0  0  0  0  0  0
  1  3  1  0  0  0  0
  2 14  2  0  0  0  0
  2  1  1  0  0  0  0
  4 13  2  0  0  0  0
  5  3  2  0  0  0  0
  6  7  1  0  0  0  0
  6 14  1  0  0  0  0
  8  4  2  0  0  0  0
  9  2  1  0  0  0  0
 10  1  1  0  0  0  0
 10 11  2  0  0  0  0
 12  6  2  0  0  0  0
 13 12  1  0  0  0  0
 13  9  1  0  0  0  0
 14  5  1  0  0  0  0
 15 17  1  0  0  0  0
 15 10  1  0  0  0  0
 16 18  1  0  0  0  0
 18 17  2  0  0  0  0
 19 16  2  0  0  0  0
 19 20  1  0  0  0  0
 20 15  2  0  0  0  0
 21  8  1  0  0  0  0
 21 22  1  1  0  0  0
 23 21  1  0  0  0  0
 23 24  1  0  0  0  0
 25 23  2  0  0  0  0
M  END
>  <MODEL>
2

>  <REMARK>
 VINA RESULT:      -6.4      2.830      4.103
  Name = 
  3 active torsions:
  status: ('A' for Active; 'I' for Inactive)
    1  A    between atoms: C_2  and  C_21
    2  A    between atoms: C_5  and  C_18
    3  A    between atoms: C_15  and  C_21
                            x       y       z     vdW  Elec       q    Type
                         _______ _______ _______ _____ _____    ______ ____

>  <TORSDO>
F 3

$$$$
=
 OpenBabel11052422163D

 25 27  0  0  1  0  0  0  0  0999 V2000
  161.1050  207.1300  153.3350 N   0  0  0  0  0  0  0  0  0  0  0  0
  161.2010  207.2230  152.0010 C   0  0  0  0  0  0  0  0  0  0  0  0
  161.0150  205.7980  153.5740 C   0  0  0  0  0  3  0  0  0  0  0  0
  161.8410  209.2300  149.0370 C   0  0  0  0  0  0  0  0  0  0  0  0
  161.0360  205.0590  152.4310 N   0  0  0  0  0  0  0  0  0  0  0  0
  161.3260  205.7660  150.0120 C   0  0  0  0  0  0  0  0  0  0  0  0
  161.2600  204.4010  149.4240 C   0  0  0  0  0  1  0  0  0  0  0  0
  162.0440  210.2730  148.2780 C   0  0  0  0  0  3  0  0  0  0  0  0
  161.4770  208.3870  151.2240 N   0  0  0  0  0  2  0  0  0  0  0  0
  161.1960  208.1670  154.3250 C   0  0  0  0  0  0  0  0  0  0  0  0
  161.7180  207.9030  155.4420 O   0  0  0  0  0  0  0  0  0  0  0  0
  161.5510  206.8320  149.2240 C   0  0  0  0  0  3  0  0  0  0  0  0
  161.6330  208.2010  149.8060 C   0  0  0  0  0  0  0  0  0  0  0  0
  161.1550  205.9810  151.4570 C   0  0  0  0  0  0  0  0  0  0  0  0
  160.6720  209.5270  154.0790 C   0  0  0  0  0  0  0  0  0  0  0  0
  159.6590  212.0740  153.6700 N   0  0  0  0  0  0  0  0  0  0  0  0
  161.0760  210.5910  154.8940 C   0  0  0  0  0  3  0  0  0  0  0  0
  160.5570  211.8690  154.6700 C   0  0  0  0  0  3  0  0  0  0  0  0
  159.2390  211.0560  152.8730 C   0  0  0  0  0  3  0  0  0  0  0  0
  159.7340  209.7650  153.0660 C   0  0  0  0  0  3  0  0  0  0  0  0
  162.3280  211.6130  148.8760 C   0  0  2  0  0  3  0  0  0  0  0  0
  161.3360  211.9400  149.9810 C   0  0  0  0  0  1  0  0  0  0  0  0
  162.3000  212.6700  147.8230 C   0  0  0  0  0  0  0  0  0  0  0  0
  161.4240  212.5490  146.7540 O   0  0  0  0  0  0  0  0  0  0  0  0
  163.0610  213.6720  147.8970 O   0  0  0  0  0  1  0  0  0  0  0  0
  1  3  1  0  0  0  0
  1 10  1  0  0  0  0
  2  1  1  0  0  0  0
  4 13  2  0  0  0  0
  5  3  2  0  0  0  0
  6 14  1  0  0  0  0
  7  6  1  0  0  0  0
  8 21  1  0  0  0  0
  8  4  2  0  0  0  0
  9  2  1  0  0  0  0
 10 11  2  0  0  0  0
 12 13  1  0  0  0  0
 12  6  2  0  0  0  0
 13  9  1  0  0  0  0
 14  2  2  0  0  0  0
 14  5  1  0  0  0  0
 15 10  1  0  0  0  0
 15 17  1  0  0  0  0
 16 18  1  0  0  0  0
 18 17  2  0  0  0  0
 19 20  1  0  0  0  0
 19 16  2  0  0  0  0
 20 15  2  0  0  0  0
 21 22  1  1  0  0  0
 23 25  1  0  0  0  0
 23 21  1  0  0  0  0
 24 23  2  0  0  0  0
M  END
>  <MODEL>
3

>  <REMARK>
 VINA RESULT:      -5.9      5.120      8.487
  Name = 
  3 active torsions:
  status: ('A' for Active; 'I' for Inactive)
    1  A    between atoms: C_2  and  C_21
    2  A    between atoms: C_5  and  C_18
    3  A    between atoms: C_15  and  C_21
                            x       y       z     vdW  Elec       q    Type
                         _______ _______ _______ _____ _____    ______ ____

>  <TORSDO>
F 3

$$$$
=
 OpenBabel11052422163D

 25 27  0  0  1  0  0  0  0  0999 V2000
  162.0920  207.5020  149.6800 N   0  0  0  0  0  0  0  0  0  0  0  0
  161.6240  206.5640  150.5140 C   0  0  0  0  0  0  0  0  0  0  0  0
  162.2110  208.6110  150.4520 C   0  0  0  0  0  3  0  0  0  0  0  0
  160.8310  203.0780  151.1830 C   0  0  0  0  0  0  0  0  0  0  0  0
  161.8170  208.3960  151.7370 N   0  0  0  0  0  0  0  0  0  0  0  0
  161.0310  206.2800  152.8940 C   0  0  0  0  0  0  0  0  0  0  0  0
  160.8340  206.8810  154.2400 C   0  0  0  0  0  1  0  0  0  0  0  0
  160.6230  201.8040  150.9870 C   0  0  0  0  0  3  0  0  0  0  0  0
  161.4650  205.1680  150.2600 N   0  0  0  0  0  2  0  0  0  0  0  0
  162.5020  207.3730  148.3090 C   0  0  0  0  0  0  0  0  0  0  0  0
  163.4560  208.0820  147.8860 O   0  0  0  0  0  0  0  0  0  0  0  0
  160.8300  204.9640  152.7040 C   0  0  0  0  0  3  0  0  0  0  0  0
  161.0380  204.3510  151.3630 C   0  0  0  0  0  0  0  0  0  0  0  0
  161.4540  207.1000  151.7480 C   0  0  0  0  0  0  0  0  0  0  0  0
  161.8210  206.4530  147.3740 C   0  0  0  0  0  0  0  0  0  0  0  0
  160.5870  204.7340  145.5830 N   0  0  0  0  0  0  0  0  0  0  0  0
  162.3710  205.1950  147.1040 C   0  0  0  0  0  3  0  0  0  0  0  0
  161.7330  204.3410  146.2010 C   0  0  0  0  0  3  0  0  0  0  0  0
  160.0390  205.9570  145.8180 C   0  0  0  0  0  3  0  0  0  0  0  0
  160.6470  206.8380  146.7120 C   0  0  0  0  0  3  0  0  0  0  0  0
  161.0240  201.1520  149.7040 C   0  0  2  0  0  3  0  0  0  0  0  0
  162.3410  201.7150  149.1920 C   0  0  0  0  0  1  0  0  0  0  0  0
  159.9540  201.3210  148.6770 C   0  0  0  0  0  0  0  0  0  0  0  0
  160.3030  201.4680  147.3410 O   0  0  0  0  0  0  0  0  0  0  0  0
  158.7380  201.3280  149.0090 O   0  0  0  0  0  1  0  0  0  0  0  0
  1  3  1  0  0  0  0
  1  2  1  0  0  0  0
  2 14  2  0  0  0  0
  3  5  2  0  0  0  0
  4 13  2  0  0  0  0
  5 14  1  0  0  0  0
  6  7  1  0  0  0  0
  8  4  2  0  0  0  0
  9  2  1  0  0  0  0
  9 13  1  0  0  0  0
 10  1  1  0  0  0  0
 11 10  2  0  0  0  0
 12  6  2  0  0  0  0
 13 12  1  0  0  0  0
 14  6  1  0  0  0  0
 15 10  1  0  0  0  0
 16 19  2  0  0  0  0
 16 18  1  0  0  0  0
 17 15  1  0  0  0  0
 18 17  2  0  0  0  0
 19 20  1  0  0  0  0
 20 15  2  0  0  0  0
 21 22  1  6  0  0  0
 21  8  1  0  0  0  0
 23 25  1  0  0  0  0
 23 21  1  0  0  0  0
 24 23  2  0  0  0  0
M  END
>  <MODEL>
4

>  <REMARK>
 VINA RESULT:      -5.9      1.766      2.632
  Name = 
  3 active torsions:
  status: ('A' for Active; 'I' for Inactive)
    1  A    between atoms: C_2  and  C_21
    2  A    between atoms: C_5  and  C_18
    3  A    between atoms: C_15  and  C_21
                            x       y       z     vdW  Elec       q    Type
                         _______ _______ _______ _____ _____    ______ ____

>  <TORSDO>
F 3

$$$$
=
 OpenBabel11052422163D

 25 27  0  0  1  0  0  0  0  0999 V2000
  160.8850  201.9630  147.3430 N   0  0  0  0  0  0  0  0  0  0  0  0
  161.1090  202.6680  148.4610 C   0  0  0  0  0  0  0  0  0  0  0  0
  160.7870  200.6800  147.7680 C   0  0  0  0  0  3  0  0  0  0  0  0
  161.3710  205.8840  150.1390 C   0  0  0  0  0  0  0  0  0  0  0  0
  160.9590  200.5600  149.1130 N   0  0  0  0  0  0  0  0  0  0  0  0
  161.3060  202.3290  150.8980 C   0  0  0  0  0  0  0  0  0  0  0  0
  161.3740  201.3970  152.0550 C   0  0  0  0  0  1  0  0  0  0  0  0
  161.4510  207.1750  150.3190 C   0  0  0  0  0  3  0  0  0  0  0  0
  161.1350  204.0880  148.6090 N   0  0  0  0  0  2  0  0  0  0  0  0
  160.6690  202.4340  146.0030 C   0  0  0  0  0  0  0  0  0  0  0  0
  159.8800  201.7990  145.2510 O   0  0  0  0  0  0  0  0  0  0  0  0
  161.3740  203.6580  151.0950 C   0  0  0  0  0  3  0  0  0  0  0  0
  161.2930  204.6000  149.9430 C   0  0  0  0  0  0  0  0  0  0  0  0
  161.1580  201.8270  149.5230 C   0  0  0  0  0  0  0  0  0  0  0  0
  161.3650  203.6250  145.4730 C   0  0  0  0  0  0  0  0  0  0  0  0
  162.6690  205.8830  144.5330 N   0  0  0  0  0  0  0  0  0  0  0  0
  162.6790  203.9020  145.8680 C   0  0  0  0  0  3  0  0  0  0  0  0
  163.3210  205.0430  145.3810 C   0  0  0  0  0  3  0  0  0  0  0  0
  161.3880  205.6450  144.1440 C   0  0  0  0  0  3  0  0  0  0  0  0
  160.7130  204.5160  144.6100 C   0  0  0  0  0  3  0  0  0  0  0  0
  161.1680  208.1230  149.1990 C   0  0  2  0  0  3  0  0  0  0  0  0
  161.5840  207.5310  147.8620 C   0  0  0  0  0  1  0  0  0  0  0  0
  161.8640  209.4240  149.4300 C   0  0  0  0  0  0  0  0  0  0  0  0
  162.2450  209.7780  150.7160 O   0  0  0  0  0  1  0  0  0  0  0  0
  162.1120  210.2000  148.4680 O   0  0  0  0  0  0  0  0  0  0  0  0
  1  3  1  0  0  0  0
  1  2  1  0  0  0  0
  2  9  1  0  0  0  0
  2 14  2  0  0  0  0
  3  5  2  0  0  0  0
  4  8  2  0  0  0  0
  5 14  1  0  0  0  0
  6 12  2  0  0  0  0
  6  7  1  0  0  0  0
  9 13  1  0  0  0  0
 10  1  1  0  0  0  0
 11 10  2  0  0  0  0
 13  4  2  0  0  0  0
 13 12  1  0  0  0  0
 14  6  1  0  0  0  0
 15 17  1  0  0  0  0
 15 10  1  0  0  0  0
 16 18  1  0  0  0  0
 18 17  2  0  0  0  0
 19 16  2  0  0  0  0
 19 20  1  0  0  0  0
 20 15  2  0  0  0  0
 21 22  1  6  0  0  0
 21 23  1  0  0  0  0
 21  8  1  0  0  0  0
 23 24  1  0  0  0  0
 25 23  2  0  0  0  0
M  END
>  <MODEL>
5

>  <REMARK>
 VINA RESULT:      -5.7      1.793      5.821
  Name = 
  3 active torsions:
  status: ('A' for Active; 'I' for Inactive)
    1  A    between atoms: C_2  and  C_21
    2  A    between atoms: C_5  and  C_18
    3  A    between atoms: C_15  and  C_21
                            x       y       z     vdW  Elec       q    Type
                         _______ _______ _______ _____ _____    ______ ____

>  <TORSDO>
F 3

$$$$
=
 OpenBabel11052422163D

 25 27  0  0  1  0  0  0  0  0999 V2000
  160.1550  210.9100  153.4410 N   0  0  0  0  0  0  0  0  0  0  0  0
  160.6870  210.1930  152.4410 C   0  0  0  0  0  0  0  0  0  0  0  0
  160.2100  212.1920  153.0030 C   0  0  0  0  0  3  0  0  0  0  0  0
  161.3760  206.9610  150.9230 C   0  0  0  0  0  0  0  0  0  0  0  0
  160.7730  212.2980  151.7680 N   0  0  0  0  0  0  0  0  0  0  0  0
  161.6010  210.5110  150.1700 C   0  0  0  0  0  0  0  0  0  0  0  0
  162.0230  211.4330  149.0820 C   0  0  0  0  0  1  0  0  0  0  0  0
  161.4840  205.6680  150.7780 C   0  0  0  0  0  3  0  0  0  0  0  0
  160.7310  208.7730  152.3110 N   0  0  0  0  0  2  0  0  0  0  0  0
  159.5450  210.4530  154.6590 C   0  0  0  0  0  0  0  0  0  0  0  0
  158.5800  211.1060  155.1430 O   0  0  0  0  0  0  0  0  0  0  0  0
  161.7000  209.1800  150.0050 C   0  0  0  0  0  3  0  0  0  0  0  0
  161.2670  208.2480  151.0840 C   0  0  0  0  0  0  0  0  0  0  0  0
  161.0630  211.0260  151.4390 C   0  0  0  0  0  0  0  0  0  0  0  0
  160.0330  209.2550  155.3740 C   0  0  0  0  0  0  0  0  0  0  0  0
  160.9100  207.0200  156.7590 N   0  0  0  0  0  0  0  0  0  0  0  0
  159.1960  208.1440  155.5320 C   0  0  0  0  0  3  0  0  0  0  0  0
  159.6570  207.0250  156.2290 C   0  0  0  0  0  3  0  0  0  0  0  0
  161.7380  208.0910  156.6320 C   0  0  0  0  0  3  0  0  0  0  0  0
  161.3130  209.2280  155.9430 C   0  0  0  0  0  3  0  0  0  0  0  0
  160.8660  204.7330  151.7660 C   0  0  2  0  0  3  0  0  0  0  0  0
  161.4200  204.9690  153.1630 C   0  0  0  0  0  1  0  0  0  0  0  0
  161.0890  203.3160  151.3520 C   0  0  0  0  0  0  0  0  0  0  0  0
  160.4320  202.8160  150.2370 O   0  0  0  0  0  0  0  0  0  0  0  0
  161.8700  202.5710  152.0030 O   0  0  0  0  0  1  0  0  0  0  0  0
  1 10  1  0  0  0  0
  2  1  1  0  0  0  0
  3  1  1  0  0  0  0
  4 13  2  0  0  0  0
  5  3  2  0  0  0  0
  6 14  1  0  0  0  0
  7  6  1  0  0  0  0
  8  4  2  0  0  0  0
  8 21  1  0  0  0  0
  9  2  1  0  0  0  0
 10 11  2  0  0  0  0
 10 15  1  0  0  0  0
 12  6  2  0  0  0  0
 12 13  1  0  0  0  0
 13  9  1  0  0  0  0
 14  5  1  0  0  0  0
 14  2  2  0  0  0  0
 15 17  2  0  0  0  0
 15 20  1  0  0  0  0
 17 18  1  0  0  0  0
 18 16  2  0  0  0  0
 19 16  1  0  0  0  0
 20 19  2  0  0  0  0
 21 22  1  1  0  0  0
 23 21  1  0  0  0  0
 23 25  1  0  0  0  0
 24 23  2  0  0  0  0
M  END
>  <MODEL>
6

>  <REMARK>
 VINA RESULT:      -5.4      4.684      7.957
  Name = 
  3 active torsions:
  status: ('A' for Active; 'I' for Inactive)
    1  A    between atoms: C_2  and  C_21
    2  A    between atoms: C_5  and  C_18
    3  A    between atoms: C_15  and  C_21
                            x       y       z     vdW  Elec       q    Type
                         _______ _______ _______ _____ _____    ______ ____

>  <TORSDO>
F 3

$$$$
=
 OpenBabel11052422163D

 25 27  0  0  1  0  0  0  0  0999 V2000
  161.2540  206.5910  152.6800 N   0  0  0  0  0  0  0  0  0  0  0  0
  161.3130  206.8930  151.3750 C   0  0  0  0  0  0  0  0  0  0  0  0
  161.1290  205.2410  152.7080 C   0  0  0  0  0  3  0  0  0  0  0  0
  161.9270  209.3300  148.7460 C   0  0  0  0  0  0  0  0  0  0  0  0
  161.0930  204.6940  151.4620 N   0  0  0  0  0  0  0  0  0  0  0  0
  161.3330  205.7690  149.1780 C   0  0  0  0  0  0  0  0  0  0  0  0
  161.2070  204.5180  148.3830 C   0  0  0  0  0  1  0  0  0  0  0  0
  162.1390  210.4740  148.1550 C   0  0  0  0  0  3  0  0  0  0  0  0
  161.6020  208.1590  150.7830 N   0  0  0  0  0  2  0  0  0  0  0  0
  161.4070  207.4550  153.8180 C   0  0  0  0  0  0  0  0  0  0  0  0
  161.9530  207.0020  154.8610 O   0  0  0  0  0  0  0  0  0  0  0  0
  161.5680  206.9410  148.5610 C   0  0  0  0  0  3  0  0  0  0  0  0
  161.7100  208.1970  149.3500 C   0  0  0  0  0  0  0  0  0  0  0  0
  161.2120  205.7550  150.6440 C   0  0  0  0  0  0  0  0  0  0  0  0
  160.9180  208.8500  153.8090 C   0  0  0  0  0  0  0  0  0  0  0  0
  160.0360  211.4770  153.7440 N   0  0  0  0  0  0  0  0  0  0  0  0
  160.0650  209.2870  152.7900 C   0  0  0  0  0  3  0  0  0  0  0  0
  159.6270  210.6140  152.7760 C   0  0  0  0  0  3  0  0  0  0  0  0
  160.8760  211.0820  154.7380 C   0  0  0  0  0  3  0  0  0  0  0  0
  161.3360  209.7650  154.7850 C   0  0  0  0  0  3  0  0  0  0  0  0
  162.4830  211.6940  148.9480 C   0  0  2  0  0  3  0  0  0  0  0  0
  161.5770  211.8300  150.1620 C   0  0  0  0  0  1  0  0  0  0  0  0
  162.3930  212.9140  148.0930 C   0  0  0  0  0  0  0  0  0  0  0  0
  162.8270  212.8610  146.7760 O   0  0  0  0  0  0  0  0  0  0  0  0
  161.9250  213.9890  148.5540 O   0  0  0  0  0  1  0  0  0  0  0  0
  1  3  1  0  0  0  0
  1 10  1  0  0  0  0
  2  1  1  0  0  0  0
  4 13  2  0  0  0  0
  5  3  2  0  0  0  0
  6 14  1  0  0  0  0
  7  6  1  0  0  0  0
  8  4  2  0  0  0  0
  8 21  1  0  0  0  0
  9  2  1  0  0  0  0
 10 11  2  0  0  0  0
 12  6  2  0  0  0  0
 12 13  1  0  0  0  0
 13  9  1  0  0  0  0
 14  2  2  0  0  0  0
 14  5  1  0  0  0  0
 15 10  1  0  0  0  0
 15 20  1  0  0  0  0
 16 19  1  0  0  0  0
 17 15  2  0  0  0  0
 18 17  1  0  0  0  0
 18 16  2  0  0  0  0
 19 20  2  0  0  0  0
 21 22  1  1  0  0  0
 23 25  1  0  0  0  0
 23 21  1  0  0  0  0
 24 23  2  0  0  0  0
M  END
>  <MODEL>
7

>  <REMARK>
 VINA RESULT:      -5.3      4.736      8.425
  Name = 
  3 active torsions:
  status: ('A' for Active; 'I' for Inactive)
    1  A    between atoms: C_2  and  C_21
    2  A    between atoms: C_5  and  C_18
    3  A    between atoms: C_15  and  C_21
                            x       y       z     vdW  Elec       q    Type
                         _______ _______ _______ _____ _____    ______ ____

>  <TORSDO>
F 3

$$$$
=
 OpenBabel11052422163D

 25 27  0  0  1  0  0  0  0  0999 V2000
  161.0170  207.6320  153.1720 N   0  0  0  0  0  0  0  0  0  0  0  0
  160.6030  208.8230  153.6270 C   0  0  0  0  0  0  0  0  0  0  0  0
  161.2470  206.9050  154.2940 C   0  0  0  0  0  3  0  0  0  0  0  0
  159.1540  212.0950  152.9770 C   0  0  0  0  0  0  0  0  0  0  0  0
  161.0050  207.6110  155.4320 N   0  0  0  0  0  0  0  0  0  0  0  0
  160.1070  209.9600  155.7610 C   0  0  0  0  0  0  0  0  0  0  0  0
  160.1210  209.9450  157.2480 C   0  0  0  0  0  1  0  0  0  0  0  0
  158.7110  213.1370  152.3270 C   0  0  0  0  0  3  0  0  0  0  0  0
  160.0770  209.9130  152.8700 N   0  0  0  0  0  2  0  0  0  0  0  0
  161.0960  207.1560  151.8190 C   0  0  0  0  0  0  0  0  0  0  0  0
  160.8710  205.9370  151.5860 O   0  0  0  0  0  0  0  0  0  0  0  0
  159.6340  211.0310  155.1000 C   0  0  0  0  0  3  0  0  0  0  0  0
  159.6030  211.0500  153.6110 C   0  0  0  0  0  0  0  0  0  0  0  0
  160.6000  208.8130  154.9830 C   0  0  0  0  0  0  0  0  0  0  0  0
  161.4580  208.0480  150.6980 C   0  0  0  0  0  0  0  0  0  0  0  0
  162.1830  209.6850  148.5820 N   0  0  0  0  0  0  0  0  0  0  0  0
  161.2950  207.6150  149.3770 C   0  0  0  0  0  3  0  0  0  0  0  0
  161.6620  208.4560  148.3240 C   0  0  0  0  0  3  0  0  0  0  0  0
  162.3650  210.1250  149.8560 C   0  0  0  0  0  3  0  0  0  0  0  0
  162.0110  209.3130  150.9350 C   0  0  0  0  0  3  0  0  0  0  0  0
  158.4900  213.0800  150.8490 C   0  0  2  0  0  3  0  0  0  0  0  0
  159.5930  213.8140  150.1030 C   0  0  0  0  0  1  0  0  0  0  0  0
  157.1560  213.6540  150.5000 C   0  0  0  0  0  0  0  0  0  0  0  0
  156.3900  214.2580  151.4880 O   0  0  0  0  0  1  0  0  0  0  0  0
  156.7210  213.5980  149.3190 O   0  0  0  0  0  0  0  0  0  0  0  0
  1  2  1  0  0  0  0
  1  3  1  0  0  0  0
  2 14  2  0  0  0  0
  3  5  2  0  0  0  0
  4 13  2  0  0  0  0
  6  7  1  0  0  0  0
  8  4  2  0  0  0  0
  9 13  1  0  0  0  0
  9  2  1  0  0  0  0
 10  1  1  0  0  0  0
 11 10  2  0  0  0  0
 12  6  2  0  0  0  0
 13 12  1  0  0  0  0
 14  5  1  0  0  0  0
 14  6  1  0  0  0  0
 15 20  1  0  0  0  0
 15 10  1  0  0  0  0
 16 19  1  0  0  0  0
 17 15  2  0  0  0  0
 18 16  2  0  0  0  0
 18 17  1  0  0  0  0
 19 20  2  0  0  0  0
 21 22  1  6  0  0  0
 21  8  1  0  0  0  0
 23 21  1  0  0  0  0
 23 24  1  0  0  0  0
 25 23  2  0  0  0  0
M  END
>  <MODEL>
8

>  <REMARK>
 VINA RESULT:      -5.0      5.376      9.117
  Name = 
  3 active torsions:
  status: ('A' for Active; 'I' for Inactive)
    1  A    between atoms: C_2  and  C_21
    2  A    between atoms: C_5  and  C_18
    3  A    between atoms: C_15  and  C_21
                            x       y       z     vdW  Elec       q    Type
                         _______ _______ _______ _____ _____    ______ ____

>  <TORSDO>
F 3

$$$$
=
 OpenBabel11052422163D

 25 27  0  0  1  0  0  0  0  0999 V2000
  160.9340  204.2090  150.5300 N   0  0  0  0  0  0  0  0  0  0  0  0
  161.2310  205.3830  151.1070 C   0  0  0  0  0  0  0  0  0  0  0  0
  160.7950  203.3490  151.5700 C   0  0  0  0  0  3  0  0  0  0  0  0
  161.6980  208.9790  150.8350 C   0  0  0  0  0  0  0  0  0  0  0  0
  161.0100  203.9460  152.7740 N   0  0  0  0  0  0  0  0  0  0  0  0
  161.5010  206.3660  153.3550 C   0  0  0  0  0  0  0  0  0  0  0  0
  161.5700  206.1800  154.8290 C   0  0  0  0  0  1  0  0  0  0  0  0
  161.8430  210.1640  150.3060 C   0  0  0  0  0  3  0  0  0  0  0  0
  161.3260  206.6630  150.4840 N   0  0  0  0  0  2  0  0  0  0  0  0
  160.6900  203.9160  149.1450 C   0  0  0  0  0  0  0  0  0  0  0  0
  159.8460  203.0270  148.8470 O   0  0  0  0  0  0  0  0  0  0  0  0
  161.6360  207.5920  152.8200 C   0  0  0  0  0  3  0  0  0  0  0  0
  161.5560  207.7900  151.3460 C   0  0  0  0  0  0  0  0  0  0  0  0
  161.2810  205.2250  152.4530 C   0  0  0  0  0  0  0  0  0  0  0  0
  161.4200  204.6070  148.0610 C   0  0  0  0  0  0  0  0  0  0  0  0
  162.7410  205.8950  145.9930 N   0  0  0  0  0  0  0  0  0  0  0  0
  160.9670  205.8450  147.5910 C   0  0  0  0  0  3  0  0  0  0  0  0
  161.6480  206.4810  146.5510 C   0  0  0  0  0  3  0  0  0  0  0  0
  163.1940  204.6860  146.4210 C   0  0  0  0  0  3  0  0  0  0  0  0
  162.5390  204.0200  147.4580 C   0  0  0  0  0  3  0  0  0  0  0  0
  161.5610  210.3960  148.8570 C   0  0  2  0  0  3  0  0  0  0  0  0
  162.2730  209.3690  147.9900 C   0  0  0  0  0  1  0  0  0  0  0  0
  161.9660  211.7780  148.4620 C   0  0  0  0  0  0  0  0  0  0  0  0
  161.1010  212.8380  148.6970 O   0  0  0  0  0  1  0  0  0  0  0  0
  163.0850  211.9910  147.9220 O   0  0  0  0  0  0  0  0  0  0  0  0
  1  2  1  0  0  0  0
  1  3  1  0  0  0  0
  2 14  2  0  0  0  0
  3  5  2  0  0  0  0
  4 13  2  0  0  0  0
  6  7  1  0  0  0  0
  8  4  2  0  0  0  0
  9  2  1  0  0  0  0
  9 13  1  0  0  0  0
 10  1  1  0  0  0  0
 11 10  2  0  0  0  0
 12  6  2  0  0  0  0
 13 12  1  0  0  0  0
 14  5  1  0  0  0  0
 14  6  1  0  0  0  0
 15 10  1  0  0  0  0
 16 19  2  0  0  0  0
 16 18  1  0  0  0  0
 17 15  1  0  0  0  0
 18 17  2  0  0  0  0
 19 20  1  0  0  0  0
 20 15  2  0  0  0  0
 21 22  1  6  0  0  0
 21  8  1  0  0  0  0
 23 24  1  0  0  0  0
 23 21  1  0  0  0  0
 25 23  2  0  0  0  0
M  END
>  <MODEL>
9

>  <REMARK>
 VINA RESULT:      -4.9      2.738      6.498
  Name = 
  3 active torsions:
  status: ('A' for Active; 'I' for Inactive)
    1  A    between atoms: C_2  and  C_21
    2  A    between atoms: C_5  and  C_18
    3  A    between atoms: C_15  and  C_21
                            x       y       z     vdW  Elec       q    Type
                         _______ _______ _______ _____ _____    ______ ____

>  <TORSDO>
F 3

$$$$
