=
 OpenBabel11062408113D

 34 38  0  0  1  0  0  0  0  0999 V2000
  161.3640  206.5890  149.1890 C   0  0  0  0  0  0  0  0  0  0  0  0
  161.2480  205.8830  151.5200 C   0  0  0  0  0  0  0  0  0  0  0  0
  161.6760  208.2800  150.8950 C   0  0  0  0  0  0  0  0  0  0  0  0
  162.4040  209.9530  152.4940 C   0  0  2  0  0  3  0  0  0  0  0  0
  161.0480  205.2910  148.7840 C   0  0  0  0  0  3  0  0  0  0  0  0
  160.9380  204.5910  151.0880 C   0  0  0  0  0  3  0  0  0  0  0  0
  160.1670  208.8180  152.7570 C   0  0  0  0  0  2  0  0  0  0  0  0
  161.4190  206.9260  150.5650 C   0  0  0  0  0  0  0  0  0  0  0  0
  160.1630  209.1720  154.2360 C   0  0  0  0  0  2  0  0  0  0  0  0
  162.3250  210.4200  153.9490 C   0  0  0  0  0  2  0  0  0  0  0  0
  160.8200  204.2970  149.7310 C   0  0  0  0  0  3  0  0  0  0  0  0
  161.9770  209.1930  149.8650 C   0  0  0  0  0  0  0  0  0  0  0  0
  161.6430  207.5240  148.2460 N   0  0  0  0  0  0  0  0  0  0  0  0
  161.5560  206.0550  153.2440 Cl  0  0  0  0  0  0  0  0  0  0  0  0
  162.0700  211.0300  151.5680 N   0  0  0  0  0  2  0  0  0  0  0  0
  162.4160  210.6120  150.1990 C   0  0  2  0  0  3  0  0  0  0  0  0
  160.8780  210.5040  154.4350 C   0  0  2  0  0  3  0  0  0  0  0  0
  161.5310  208.8070  152.2190 N   0  0  0  0  0  0  0  0  0  0  0  0
  161.9630  208.7740  148.5730 N   0  0  0  0  0  0  0  0  0  0  0  0
  162.0070  212.7580  147.0840 C   0  0  0  0  0  0  0  0  0  0  0  0
  160.8620  213.4920  147.4120 C   0  0  0  0  0  3  0  0  0  0  0  0
  161.8810  211.6090  149.2180 C   0  0  0  0  0  0  0  0  0  0  0  0
  160.2280  213.2850  148.6400 C   0  0  0  0  0  3  0  0  0  0  0  0
  162.5170  211.8190  147.9850 C   0  0  0  0  0  3  0  0  0  0  0  0
  160.7370  212.3450  149.5410 C   0  0  0  0  0  3  0  0  0  0  0  0
  162.6220  212.9590  145.8950 F   0  0  0  0  0  0  0  0  0  0  0  0
  160.7950  210.9640  155.8230 N   0  0  0  0  0  2  0  0  0  0  0  0
  159.4450  210.7750  156.3550 C   0  0  0  0  0  2  0  0  0  0  0  0
  159.3490  213.0470  155.6080 F   0  0  0  0  0  0  0  0  0  0  0  0
  158.5760  212.0020  156.0860 C   0  0  1  0  0  3  0  0  0  0  0  0
  156.3500  212.8110  155.2670 C   0  0  0  0  0  1  0  0  0  0  0  0
  157.4010  211.7230  155.1440 C   0  0  0  0  0  0  0  0  0  0  0  0
  156.8280  210.4970  155.4320 F   0  0  0  0  0  0  0  0  0  0  0  0
  157.8620  211.7040  153.8420 F   0  0  0  0  0  0  0  0  0  0  0  0
  1  8  1  0  0  0  0
  2 14  1  0  0  0  0
  3 18  1  0  0  0  0
  4 10  1  1  0  0  0
  5  1  2  0  0  0  0
  5 11  1  0  0  0  0
  6  2  1  0  0  0  0
  7  9  1  0  0  0  0
  8  3  1  0  0  0  0
  8  2  2  0  0  0  0
  9 17  1  0  0  0  0
 10 17  1  0  0  0  0
 11  6  2  0  0  0  0
 12 16  1  0  0  0  0
 12  3  2  0  0  0  0
 13 19  2  0  0  0  0
 13  1  1  0  0  0  0
 15  4  1  0  0  0  0
 16 22  1  6  0  0  0
 16 15  1  0  0  0  0
 17 27  1  1  0  0  0
 18  4  1  0  0  0  0
 18  7  1  0  0  0  0
 19 12  1  0  0  0  0
 20 21  2  0  0  0  0
 20 24  1  0  0  0  0
 21 23  1  0  0  0  0
 22 25  1  0  0  0  0
 23 25  2  0  0  0  0
 24 22  2  0  0  0  0
 26 20  1  0  0  0  0
 27 28  1  0  0  0  0
 30 29  1  6  0  0  0
 30 28  1  0  0  0  0
 32 31  1  0  0  0  0
 32 33  1  0  0  0  0
 32 30  1  0  0  0  0
 34 32  1  0  0  0  0
M  END
>  <MODEL>
1

>  <REMARK>
 VINA RESULT:      -7.1      0.000      0.000
  Name = 
  5 active torsions:
  status: ('A' for Active; 'I' for Inactive)
    1  A    between atoms: N_3  and  C_13
    2  A    between atoms: N_3  and  C_29
    3  A    between atoms: C_12  and  C_28
    4  A    between atoms: C_13  and  C_33
    5  A    between atoms: C_20  and  C_33
                            x       y       z     vdW  Elec       q    Type
                         _______ _______ _______ _____ _____    ______ ____

>  <TORSDO>
F 5

$$$$
=
 OpenBabel11062408113D

 34 38  0  0  1  0  0  0  0  0999 V2000
  160.8120  207.2960  155.0280 C   0  0  0  0  0  0  0  0  0  0  0  0
  160.5200  209.6560  155.5640 C   0  0  0  0  0  0  0  0  0  0  0  0
  161.1100  208.9020  153.2400 C   0  0  0  0  0  0  0  0  0  0  0  0
  161.8270  210.4310  151.4970 C   0  0  2  0  0  3  0  0  0  0  0  0
  160.4540  206.9580  156.3340 C   0  0  0  0  0  3  0  0  0  0  0  0
  160.1690  209.2920  156.8670 C   0  0  0  0  0  3  0  0  0  0  0  0
  159.5210  210.6250  152.5020 C   0  0  0  0  0  2  0  0  0  0  0  0
  160.8030  208.6470  154.6000 C   0  0  0  0  0  0  0  0  0  0  0  0
  159.4470  212.0750  152.0470 C   0  0  0  0  0  2  0  0  0  0  0  0
  161.6850  211.8430  150.9280 C   0  0  0  0  0  2  0  0  0  0  0  0
  160.1180  207.9520  157.2480 C   0  0  0  0  0  3  0  0  0  0  0  0
  161.5190  207.8350  152.4160 C   0  0  0  0  0  0  0  0  0  0  0  0
  161.1960  206.3130  154.1750 N   0  0  0  0  0  0  0  0  0  0  0  0
  160.7330  211.3810  155.2890 Cl  0  0  0  0  0  0  0  0  0  0  0  0
  161.6060  209.4160  150.4720 N   0  0  0  0  0  2  0  0  0  0  0  0
  162.0110  208.1020  150.9990 C   0  0  2  0  0  3  0  0  0  0  0  0
  160.2180  212.2300  150.7400 C   0  0  2  0  0  3  0  0  0  0  0  0
  160.9130  210.1770  152.6160 N   0  0  0  0  0  0  0  0  0  0  0  0
  161.5600  206.5760  152.9220 N   0  0  0  0  0  0  0  0  0  0  0  0
  160.8200  204.7650  149.6150 C   0  0  0  0  0  0  0  0  0  0  0  0
  160.8180  205.0290  148.2420 C   0  0  0  0  0  3  0  0  0  0  0  0
  161.5880  207.0250  150.0490 C   0  0  0  0  0  0  0  0  0  0  0  0
  161.2000  206.2890  147.7720 C   0  0  0  0  0  3  0  0  0  0  0  0
  161.2050  205.7600  150.5180 C   0  0  0  0  0  3  0  0  0  0  0  0
  161.5840  207.2850  148.6740 C   0  0  0  0  0  3  0  0  0  0  0  0
  160.4510  203.5430  150.0710 F   0  0  0  0  0  0  0  0  0  0  0  0
  160.0760  213.5760  150.1820 N   0  0  0  0  0  2  0  0  0  0  0  0
  159.7920  213.5180  148.7480 C   0  0  0  0  0  2  0  0  0  0  0  0
  161.9960  214.4530  148.7410 F   0  0  0  0  0  0  0  0  0  0  0  0
  161.0350  213.8700  147.9320 C   0  0  1  0  0  3  0  0  0  0  0  0
  163.0860  212.4890  147.5200 C   0  0  0  0  0  1  0  0  0  0  0  0
  161.6210  212.6770  147.1700 C   0  0  0  0  0  0  0  0  0  0  0  0
  161.4970  212.8640  145.8040 F   0  0  0  0  0  0  0  0  0  0  0  0
  160.9340  211.5330  147.5260 F   0  0  0  0  0  0  0  0  0  0  0  0
  1  5  2  0  0  0  0
  2  6  1  0  0  0  0
  3  8  1  0  0  0  0
  4 10  1  6  0  0  0
  4 18  1  0  0  0  0
  5 11  1  0  0  0  0
  6 11  2  0  0  0  0
  7 18  1  0  0  0  0
  8  1  1  0  0  0  0
  8  2  2  0  0  0  0
  9  7  1  0  0  0  0
 12 19  1  0  0  0  0
 12  3  2  0  0  0  0
 13  1  1  0  0  0  0
 14  2  1  0  0  0  0
 15 16  1  0  0  0  0
 15  4  1  0  0  0  0
 16 22  1  6  0  0  0
 16 12  1  0  0  0  0
 17 27  1  1  0  0  0
 17 10  1  0  0  0  0
 17  9  1  0  0  0  0
 18  3  1  0  0  0  0
 19 13  2  0  0  0  0
 20 26  1  0  0  0  0
 20 24  1  0  0  0  0
 21 20  2  0  0  0  0
 22 24  2  0  0  0  0
 23 21  1  0  0  0  0
 23 25  2  0  0  0  0
 25 22  1  0  0  0  0
 28 27  1  0  0  0  0
 30 29  1  1  0  0  0
 30 28  1  0  0  0  0
 32 31  1  0  0  0  0
 32 34  1  0  0  0  0
 32 30  1  0  0  0  0
 33 32  1  0  0  0  0
M  END
>  <MODEL>
2

>  <REMARK>
 VINA RESULT:      -6.8      3.073      6.497
  Name = 
  5 active torsions:
  status: ('A' for Active; 'I' for Inactive)
    1  A    between atoms: N_3  and  C_13
    2  A    between atoms: N_3  and  C_29
    3  A    between atoms: C_12  and  C_28
    4  A    between atoms: C_13  and  C_33
    5  A    between atoms: C_20  and  C_33
                            x       y       z     vdW  Elec       q    Type
                         _______ _______ _______ _____ _____    ______ ____

>  <TORSDO>
F 5

$$$$
=
 OpenBabel11062408113D

 34 38  0  0  1  0  0  0  0  0999 V2000
  160.8130  207.2890  155.0340 C   0  0  0  0  0  0  0  0  0  0  0  0
  160.5300  209.6530  155.5610 C   0  0  0  0  0  0  0  0  0  0  0  0
  161.0960  208.8860  153.2350 C   0  0  0  0  0  0  0  0  0  0  0  0
  161.7980  210.4050  151.4780 C   0  0  2  0  0  3  0  0  0  0  0  0
  160.4670  206.9590  156.3450 C   0  0  0  0  0  3  0  0  0  0  0  0
  160.1910  209.2950  156.8700 C   0  0  0  0  0  3  0  0  0  0  0  0
  159.5030  210.6080  152.5040 C   0  0  0  0  0  2  0  0  0  0  0  0
  160.8010  208.6390  154.5990 C   0  0  0  0  0  0  0  0  0  0  0  0
  159.4260  212.0550  152.0430 C   0  0  0  0  0  2  0  0  0  0  0  0
  161.6530  211.8150  150.9030 C   0  0  0  0  0  2  0  0  0  0  0  0
  160.1410  207.9580  157.2580 C   0  0  0  0  0  3  0  0  0  0  0  0
  161.4960  207.8150  152.4130 C   0  0  0  0  0  0  0  0  0  0  0  0
  161.1880  206.3020  154.1830 N   0  0  0  0  0  0  0  0  0  0  0  0
  160.7420  211.3760  155.2750 Cl  0  0  0  0  0  0  0  0  0  0  0  0
  161.5660  209.3860  150.4600 N   0  0  0  0  0  2  0  0  0  0  0  0
  161.9740  208.0740  150.9900 C   0  0  2  0  0  3  0  0  0  0  0  0
  160.1840  212.2030  150.7280 C   0  0  2  0  0  3  0  0  0  0  0  0
  160.8950  210.1580  152.6070 N   0  0  0  0  0  0  0  0  0  0  0  0
  161.5400  206.5580  152.9250 N   0  0  0  0  0  0  0  0  0  0  0  0
  160.7400  206.2730  147.8750 C   0  0  0  0  0  0  0  0  0  0  0  0
  160.7210  204.9470  148.3200 C   0  0  0  0  0  3  0  0  0  0  0  0
  161.5410  206.9930  150.0490 C   0  0  0  0  0  0  0  0  0  0  0  0
  161.1110  204.6450  149.6280 C   0  0  0  0  0  3  0  0  0  0  0  0
  161.1480  207.2940  148.7370 C   0  0  0  0  0  3  0  0  0  0  0  0
  161.5200  205.6660  150.4900 C   0  0  0  0  0  3  0  0  0  0  0  0
  160.3610  206.5670  146.6080 F   0  0  0  0  0  0  0  0  0  0  0  0
  160.0390  213.5460  150.1640 N   0  0  0  0  0  2  0  0  0  0  0  0
  159.7580  213.4820  148.7290 C   0  0  0  0  0  2  0  0  0  0  0  0
  161.9460  214.4530  148.7450 F   0  0  0  0  0  0  0  0  0  0  0  0
  160.9780  213.9110  147.9160 C   0  0  1  0  0  3  0  0  0  0  0  0
  161.1750  212.9610  145.6050 C   0  0  0  0  0  1  0  0  0  0  0  0
  161.5670  212.7850  147.0610 C   0  0  0  0  0  0  0  0  0  0  0  0
  161.1260  211.5520  147.5090 F   0  0  0  0  0  0  0  0  0  0  0  0
  162.9450  212.8240  147.1510 F   0  0  0  0  0  0  0  0  0  0  0  0
  1  5  2  0  0  0  0
  2  6  1  0  0  0  0
  3  8  1  0  0  0  0
  4 10  1  6  0  0  0
  4 18  1  0  0  0  0
  5 11  1  0  0  0  0
  6 11  2  0  0  0  0
  7 18  1  0  0  0  0
  8  1  1  0  0  0  0
  8  2  2  0  0  0  0
  9  7  1  0  0  0  0
 12 19  1  0  0  0  0
 12  3  2  0  0  0  0
 13  1  1  0  0  0  0
 14  2  1  0  0  0  0
 15 16  1  0  0  0  0
 15  4  1  0  0  0  0
 16 22  1  6  0  0  0
 16 12  1  0  0  0  0
 17 27  1  1  0  0  0
 17 10  1  0  0  0  0
 17  9  1  0  0  0  0
 18  3  1  0  0  0  0
 19 13  2  0  0  0  0
 20 21  2  0  0  0  0
 20 24  1  0  0  0  0
 21 23  1  0  0  0  0
 22 25  1  0  0  0  0
 23 25  2  0  0  0  0
 24 22  2  0  0  0  0
 26 20  1  0  0  0  0
 28 27  1  0  0  0  0
 30 28  1  0  0  0  0
 30 29  1  1  0  0  0
 31 32  1  0  0  0  0
 32 34  1  0  0  0  0
 32 33  1  0  0  0  0
 32 30  1  0  0  0  0
M  END
>  <MODEL>
3

>  <REMARK>
 VINA RESULT:      -6.8      3.095      6.340
  Name = 
  5 active torsions:
  status: ('A' for Active; 'I' for Inactive)
    1  A    between atoms: N_3  and  C_13
    2  A    between atoms: N_3  and  C_29
    3  A    between atoms: C_12  and  C_28
    4  A    between atoms: C_13  and  C_33
    5  A    between atoms: C_20  and  C_33
                            x       y       z     vdW  Elec       q    Type
                         _______ _______ _______ _____ _____    ______ ____

>  <TORSDO>
F 5

$$$$
=
 OpenBabel11062408113D

 34 38  0  0  1  0  0  0  0  0999 V2000
  160.7940  207.2750  155.0170 C   0  0  0  0  0  0  0  0  0  0  0  0
  160.7090  209.6930  155.3200 C   0  0  0  0  0  0  0  0  0  0  0  0
  161.3090  208.6690  153.1040 C   0  0  0  0  0  0  0  0  0  0  0  0
  162.2330  209.9510  151.2630 C   0  0  2  0  0  3  0  0  0  0  0  0
  160.3570  207.0990  156.3310 C   0  0  0  0  0  3  0  0  0  0  0  0
  160.2770  209.4890  156.6330 C   0  0  0  0  0  3  0  0  0  0  0  0
  159.9220  210.4510  152.1390 C   0  0  0  0  0  2  0  0  0  0  0  0
  160.9290  208.5750  154.4660 C   0  0  0  0  0  0  0  0  0  0  0  0
  160.0030  211.8510  151.5490 C   0  0  0  0  0  2  0  0  0  0  0  0
  162.2480  211.3090  150.5600 C   0  0  0  0  0  2  0  0  0  0  0  0
  160.0840  208.2030  157.1330 C   0  0  0  0  0  3  0  0  0  0  0  0
  161.6450  207.4950  152.4020 C   0  0  0  0  0  0  0  0  0  0  0  0
  161.1140  206.1840  154.2770 N   0  0  0  0  0  0  0  0  0  0  0  0
  161.0950  211.3570  154.8970 Cl  0  0  0  0  0  0  0  0  0  0  0  0
  161.9550  208.8670  150.3260 N   0  0  0  0  0  2  0  0  0  0  0  0
  162.2130  207.5780  150.9910 C   0  0  2  0  0  3  0  0  0  0  0  0
  160.8330  211.8090  150.2710 C   0  0  2  0  0  3  0  0  0  0  0  0
  161.2590  209.8900  152.3570 N   0  0  0  0  0  0  0  0  0  0  0  0
  161.5480  206.2910  153.0230 N   0  0  0  0  0  0  0  0  0  0  0  0
  160.8910  204.1950  149.8600 C   0  0  0  0  0  0  0  0  0  0  0  0
  160.8310  204.3790  148.4750 C   0  0  0  0  0  3  0  0  0  0  0  0
  161.7240  206.4580  150.1250 C   0  0  0  0  0  0  0  0  0  0  0  0
  161.2170  205.6000  147.9160 C   0  0  0  0  0  3  0  0  0  0  0  0
  161.3370  205.2310  150.6840 C   0  0  0  0  0  3  0  0  0  0  0  0
  161.6630  206.6380  148.7390 C   0  0  0  0  0  3  0  0  0  0  0  0
  160.5180  203.0110  150.4030 F   0  0  0  0  0  0  0  0  0  0  0  0
  160.8410  213.1030  149.5840 N   0  0  0  0  0  2  0  0  0  0  0  0
  159.5570  213.7860  149.7440 C   0  0  0  0  0  2  0  0  0  0  0  0
  159.5410  213.2420  147.4130 F   0  0  0  0  0  0  0  0  0  0  0  0
  158.8150  213.8710  148.4110 C   0  0  1  0  0  3  0  0  0  0  0  0
  156.3930  214.3630  147.9980 C   0  0  0  0  0  1  0  0  0  0  0  0
  157.3880  213.3190  148.4720 C   0  0  0  0  0  0  0  0  0  0  0  0
  157.0700  212.9340  149.7620 F   0  0  0  0  0  0  0  0  0  0  0  0
  157.2950  212.2170  147.6430 F   0  0  0  0  0  0  0  0  0  0  0  0
  1  5  2  0  0  0  0
  2  6  1  0  0  0  0
  3  8  1  0  0  0  0
  4 10  1  6  0  0  0
  4 18  1  0  0  0  0
  5 11  1  0  0  0  0
  6 11  2  0  0  0  0
  7 18  1  0  0  0  0
  8  1  1  0  0  0  0
  8  2  2  0  0  0  0
  9  7  1  0  0  0  0
 12 19  1  0  0  0  0
 12  3  2  0  0  0  0
 13  1  1  0  0  0  0
 14  2  1  0  0  0  0
 15 16  1  0  0  0  0
 15  4  1  0  0  0  0
 16 22  1  6  0  0  0
 16 12  1  0  0  0  0
 17 27  1  1  0  0  0
 17 10  1  0  0  0  0
 17  9  1  0  0  0  0
 18  3  1  0  0  0  0
 19 13  2  0  0  0  0
 20 26  1  0  0  0  0
 20 24  1  0  0  0  0
 21 20  2  0  0  0  0
 22 24  2  0  0  0  0
 23 21  1  0  0  0  0
 23 25  2  0  0  0  0
 25 22  1  0  0  0  0
 27 28  1  0  0  0  0
 30 29  1  6  0  0  0
 30 32  1  0  0  0  0
 30 28  1  0  0  0  0
 31 32  1  0  0  0  0
 32 33  1  0  0  0  0
 34 32  1  0  0  0  0
M  END
>  <MODEL>
4

>  <REMARK>
 VINA RESULT:      -6.7      2.943      6.222
  Name = 
  5 active torsions:
  status: ('A' for Active; 'I' for Inactive)
    1  A    between atoms: N_3  and  C_13
    2  A    between atoms: N_3  and  C_29
    3  A    between atoms: C_12  and  C_28
    4  A    between atoms: C_13  and  C_33
    5  A    between atoms: C_20  and  C_33
                            x       y       z     vdW  Elec       q    Type
                         _______ _______ _______ _____ _____    ______ ____

>  <TORSDO>
F 5

$$$$
=
 OpenBabel11062408113D

 34 38  0  0  1  0  0  0  0  0999 V2000
  161.9220  210.1110  150.5620 C   0  0  0  0  0  0  0  0  0  0  0  0
  162.0890  208.4810  148.7550 C   0  0  0  0  0  0  0  0  0  0  0  0
  161.8980  207.7630  151.1570 C   0  0  0  0  0  0  0  0  0  0  0  0
  162.2780  205.4800  151.8870 C   0  0  2  0  0  3  0  0  0  0  0  0
  161.9080  211.1440  149.6230 C   0  0  0  0  0  3  0  0  0  0  0  0
  162.0790  209.5350  147.8370 C   0  0  0  0  0  3  0  0  0  0  0  0
  160.3940  206.0210  150.2990 C   0  0  0  0  0  2  0  0  0  0  0  0
  161.9590  208.7550  150.1460 C   0  0  0  0  0  0  0  0  0  0  0  0
  160.3750  204.5730  149.8320 C   0  0  0  0  0  2  0  0  0  0  0  0
  162.1570  204.0030  151.5080 C   0  0  0  0  0  2  0  0  0  0  0  0
  161.9710  210.8570  148.2630 C   0  0  0  0  0  3  0  0  0  0  0  0
  161.9220  208.1560  152.5090 C   0  0  0  0  0  0  0  0  0  0  0  0
  161.9230  210.4200  151.8820 N   0  0  0  0  0  0  0  0  0  0  0  0
  162.4280  206.8910  148.0840 Cl  0  0  0  0  0  0  0  0  0  0  0  0
  161.6510  205.7550  153.1760 N   0  0  0  0  0  2  0  0  0  0  0  0
  162.0220  207.1110  153.6120 C   0  0  2  0  0  3  0  0  0  0  0  0
  160.7570  203.6660  150.9950 C   0  0  2  0  0  3  0  0  0  0  0  0
  161.6940  206.3720  150.8800 N   0  0  0  0  0  0  0  0  0  0  0  0
  161.9480  209.4770  152.8220 N   0  0  0  0  0  0  0  0  0  0  0  0
  160.6930  209.0360  156.6130 C   0  0  0  0  0  0  0  0  0  0  0  0
  159.7030  208.1630  157.0750 C   0  0  0  0  0  3  0  0  0  0  0  0
  161.2170  207.4910  154.8170 C   0  0  0  0  0  0  0  0  0  0  0  0
  159.4710  206.9560  156.4100 C   0  0  0  0  0  3  0  0  0  0  0  0
  161.4490  208.7020  155.4860 C   0  0  0  0  0  3  0  0  0  0  0  0
  160.2260  206.6210  155.2830 C   0  0  0  0  0  3  0  0  0  0  0  0
  160.9200  210.2060  157.2580 F   0  0  0  0  0  0  0  0  0  0  0  0
  160.6310  202.2490  150.6450 N   0  0  0  0  0  2  0  0  0  0  0  0
  160.1080  202.0920  149.2880 C   0  0  0  0  0  2  0  0  0  0  0  0
  161.4370  200.2010  148.6660 F   0  0  0  0  0  0  0  0  0  0  0  0
  161.1770  201.5250  148.3540 C   0  0  1  0  0  3  0  0  0  0  0  0
  161.4400  202.9440  146.3050 C   0  0  0  0  0  1  0  0  0  0  0  0
  160.8300  201.6730  146.8700 C   0  0  0  0  0  0  0  0  0  0  0  0
  159.4580  201.7050  146.6910 F   0  0  0  0  0  0  0  0  0  0  0  0
  161.3440  200.5950  146.1770 F   0  0  0  0  0  0  0  0  0  0  0  0
  1 13  1  0  0  0  0
  2  8  1  0  0  0  0
  3 12  2  0  0  0  0
  4 10  1  6  0  0  0
  4 15  1  0  0  0  0
  5  1  1  0  0  0  0
  6 11  1  0  0  0  0
  6  2  2  0  0  0  0
  7 18  1  0  0  0  0
  8  1  2  0  0  0  0
  8  3  1  0  0  0  0
  9  7  1  0  0  0  0
  9 17  1  0  0  0  0
 11  5  2  0  0  0  0
 12 19  1  0  0  0  0
 12 16  1  0  0  0  0
 13 19  2  0  0  0  0
 14  2  1  0  0  0  0
 15 16  1  0  0  0  0
 16 22  1  1  0  0  0
 17 27  1  6  0  0  0
 17 10  1  0  0  0  0
 18  3  1  0  0  0  0
 18  4  1  0  0  0  0
 20 21  1  0  0  0  0
 20 26  1  0  0  0  0
 22 25  2  0  0  0  0
 22 24  1  0  0  0  0
 23 21  2  0  0  0  0
 24 20  2  0  0  0  0
 25 23  1  0  0  0  0
 28 27  1  0  0  0  0
 30 29  1  1  0  0  0
 30 28  1  0  0  0  0
 31 32  1  0  0  0  0
 32 30  1  0  0  0  0
 33 32  1  0  0  0  0
 34 32  1  0  0  0  0
M  END
>  <MODEL>
5

>  <REMARK>
 VINA RESULT:      -6.5      4.417      8.551
  Name = 
  5 active torsions:
  status: ('A' for Active; 'I' for Inactive)
    1  A    between atoms: N_3  and  C_13
    2  A    between atoms: N_3  and  C_29
    3  A    between atoms: C_12  and  C_28
    4  A    between atoms: C_13  and  C_33
    5  A    between atoms: C_20  and  C_33
                            x       y       z     vdW  Elec       q    Type
                         _______ _______ _______ _____ _____    ______ ____

>  <TORSDO>
F 5

$$$$
=
 OpenBabel11062408113D

 34 38  0  0  1  0  0  0  0  0999 V2000
  161.5100  206.3240  148.6290 C   0  0  0  0  0  0  0  0  0  0  0  0
  161.2310  205.7770  150.9890 C   0  0  0  0  0  0  0  0  0  0  0  0
  161.7680  208.1150  150.2380 C   0  0  0  0  0  0  0  0  0  0  0  0
  162.4480  209.8710  151.7690 C   0  0  2  0  0  3  0  0  0  0  0  0
  161.1810  205.0100  148.2890 C   0  0  0  0  0  3  0  0  0  0  0  0
  160.9090  204.4670  150.6220 C   0  0  0  0  0  3  0  0  0  0  0  0
  160.1650  208.8140  151.9630 C   0  0  0  0  0  2  0  0  0  0  0  0
  161.4920  206.7490  149.9810 C   0  0  0  0  0  0  0  0  0  0  0  0
  160.0810  209.2650  153.4130 C   0  0  0  0  0  2  0  0  0  0  0  0
  162.2940  210.4340  153.1830 C   0  0  0  0  0  2  0  0  0  0  0  0
  160.8660  204.0870  149.2820 C   0  0  0  0  0  3  0  0  0  0  0  0
  162.1590  208.9500  149.1720 C   0  0  0  0  0  0  0  0  0  0  0  0
  161.8750  207.1860  147.6470 N   0  0  0  0  0  0  0  0  0  0  0  0
  161.4380  206.0540  152.7140 Cl  0  0  0  0  0  0  0  0  0  0  0  0
  162.2030  210.8920  150.7570 N   0  0  0  0  0  2  0  0  0  0  0  0
  162.6200  210.3760  149.4420 C   0  0  2  0  0  3  0  0  0  0  0  0
  160.8230  210.5880  153.5710 C   0  0  2  0  0  3  0  0  0  0  0  0
  161.5590  208.7320  151.5140 N   0  0  0  0  0  0  0  0  0  0  0  0
  162.2110  208.4470  147.9120 N   0  0  0  0  0  0  0  0  0  0  0  0
  160.4530  212.2040  146.9040 C   0  0  0  0  0  0  0  0  0  0  0  0
  161.3820  213.0850  146.3430 C   0  0  0  0  0  3  0  0  0  0  0  0
  162.1750  211.3190  148.3660 C   0  0  0  0  0  0  0  0  0  0  0  0
  162.7060  213.0840  146.7920 C   0  0  0  0  0  3  0  0  0  0  0  0
  160.8480  211.3220  147.9130 C   0  0  0  0  0  3  0  0  0  0  0  0
  163.1010  212.2020  147.8020 C   0  0  0  0  0  3  0  0  0  0  0  0
  159.1700  212.2040  146.4690 F   0  0  0  0  0  0  0  0  0  0  0  0
  160.6690  211.1420  154.9180 N   0  0  0  0  0  2  0  0  0  0  0  0
  161.4040  210.3400  155.8970 C   0  0  0  0  0  2  0  0  0  0  0  0
  159.1580  209.6750  156.3910 F   0  0  0  0  0  0  0  0  0  0  0  0
  160.4850  209.3170  156.5630 C   0  0  1  0  0  3  0  0  0  0  0  0
  160.7060  206.9200  157.2610 C   0  0  0  0  0  1  0  0  0  0  0  0
  160.7240  207.8820  156.0860 C   0  0  0  0  0  0  0  0  0  0  0  0
  161.9390  207.7830  155.4310 F   0  0  0  0  0  0  0  0  0  0  0  0
  159.7170  207.5230  155.2110 F   0  0  0  0  0  0  0  0  0  0  0  0
  1  8  1  0  0  0  0
  2 14  1  0  0  0  0
  3 18  1  0  0  0  0
  4 10  1  1  0  0  0
  5  1  2  0  0  0  0
  5 11  1  0  0  0  0
  6  2  1  0  0  0  0
  7  9  1  0  0  0  0
  8  3  1  0  0  0  0
  8  2  2  0  0  0  0
  9 17  1  0  0  0  0
 10 17  1  0  0  0  0
 11  6  2  0  0  0  0
 12 16  1  0  0  0  0
 12  3  2  0  0  0  0
 13 19  2  0  0  0  0
 13  1  1  0  0  0  0
 15  4  1  0  0  0  0
 16 22  1  6  0  0  0
 16 15  1  0  0  0  0
 17 27  1  1  0  0  0
 18  4  1  0  0  0  0
 18  7  1  0  0  0  0
 19 12  1  0  0  0  0
 20 24  1  0  0  0  0
 21 23  1  0  0  0  0
 21 20  2  0  0  0  0
 23 25  2  0  0  0  0
 24 22  2  0  0  0  0
 25 22  1  0  0  0  0
 26 20  1  0  0  0  0
 27 28  1  0  0  0  0
 28 30  1  0  0  0  0
 30 29  1  6  0  0  0
 32 30  1  0  0  0  0
 32 31  1  0  0  0  0
 33 32  1  0  0  0  0
 34 32  1  0  0  0  0
M  END
>  <MODEL>
6

>  <REMARK>
 VINA RESULT:      -6.0      1.905      2.530
  Name = 
  5 active torsions:
  status: ('A' for Active; 'I' for Inactive)
    1  A    between atoms: N_3  and  C_13
    2  A    between atoms: N_3  and  C_29
    3  A    between atoms: C_12  and  C_28
    4  A    between atoms: C_13  and  C_33
    5  A    between atoms: C_20  and  C_33
                            x       y       z     vdW  Elec       q    Type
                         _______ _______ _______ _____ _____    ______ ____

>  <TORSDO>
F 5

$$$$
=
 OpenBabel11062408113D

 34 38  0  0  1  0  0  0  0  0999 V2000
  159.6400  213.6170  151.1710 C   0  0  0  0  0  0  0  0  0  0  0  0
  161.2060  212.0370  150.1730 C   0  0  0  0  0  0  0  0  0  0  0  0
  160.2590  211.6700  152.4730 C   0  0  0  0  0  0  0  0  0  0  0  0
  161.1190  209.9960  154.0040 C   0  0  2  0  0  3  0  0  0  0  0  0
  159.6500  214.3660  149.9930 C   0  0  0  0  0  3  0  0  0  0  0  0
  161.2020  212.8070  149.0060 C   0  0  0  0  0  3  0  0  0  0  0  0
  160.0940  209.3130  151.8020 C   0  0  0  0  0  2  0  0  0  0  0  0
  160.3770  212.4090  151.2690 C   0  0  0  0  0  0  0  0  0  0  0  0
  160.8430  207.9900  151.8650 C   0  0  0  0  0  2  0  0  0  0  0  0
  161.7580  208.6110  154.1220 C   0  0  0  0  0  2  0  0  0  0  0  0
  160.4170  213.9540  148.9070 C   0  0  0  0  0  3  0  0  0  0  0  0
  159.5250  212.2150  153.5450 C   0  0  0  0  0  0  0  0  0  0  0  0
  158.9350  214.0740  152.2360 N   0  0  0  0  0  0  0  0  0  0  0  0
  162.3910  210.7370  150.2210 Cl  0  0  0  0  0  0  0  0  0  0  0  0
  159.9330  210.1110  154.8460 N   0  0  0  0  0  2  0  0  0  0  0  0
  159.5170  211.5230  154.9010 C   0  0  2  0  0  3  0  0  0  0  0  0
  160.9830  207.5630  153.3220 C   0  0  2  0  0  3  0  0  0  0  0  0
  160.7520  210.3330  152.6250 N   0  0  0  0  0  0  0  0  0  0  0  0
  158.8990  213.4090  153.3890 N   0  0  0  0  0  0  0  0  0  0  0  0
  155.8670  210.9480  155.8060 C   0  0  0  0  0  0  0  0  0  0  0  0
  155.7000  211.8660  156.8470 C   0  0  0  0  0  3  0  0  0  0  0  0
  158.1840  211.6290  155.5750 C   0  0  0  0  0  0  0  0  0  0  0  0
  156.7730  212.6650  157.2520 C   0  0  0  0  0  3  0  0  0  0  0  0
  157.1060  210.8290  155.1700 C   0  0  0  0  0  3  0  0  0  0  0  0
  158.0130  212.5470  156.6170 C   0  0  0  0  0  3  0  0  0  0  0  0
  154.8270  210.1740  155.4120 F   0  0  0  0  0  0  0  0  0  0  0  0
  161.5820  206.2320  153.4430 N   0  0  0  0  0  2  0  0  0  0  0  0
  162.1590  205.8020  152.1700 C   0  0  0  0  0  2  0  0  0  0  0  0
  160.8000  203.9210  152.7580 F   0  0  0  0  0  0  0  0  0  0  0  0
  161.6680  204.4040  151.7940 C   0  0  1  0  0  3  0  0  0  0  0  0
  160.4570  202.9530  150.1490 C   0  0  0  0  0  1  0  0  0  0  0  0
  161.0270  204.3370  150.4050 C   0  0  0  0  0  0  0  0  0  0  0  0
  161.9560  204.6380  149.4250 F   0  0  0  0  0  0  0  0  0  0  0  0
  159.9970  205.2540  150.3390 F   0  0  0  0  0  0  0  0  0  0  0  0
  1  8  2  0  0  0  0
  1 13  1  0  0  0  0
  2 14  1  0  0  0  0
  2  8  1  0  0  0  0
  3 18  1  0  0  0  0
  3 12  2  0  0  0  0
  4 10  1  6  0  0  0
  4 15  1  0  0  0  0
  5  1  1  0  0  0  0
  6  2  2  0  0  0  0
  7  9  1  0  0  0  0
  7 18  1  0  0  0  0
  8  3  1  0  0  0  0
  9 17  1  0  0  0  0
 11  6  1  0  0  0  0
 11  5  2  0  0  0  0
 12 16  1  0  0  0  0
 13 19  2  0  0  0  0
 15 16  1  0  0  0  0
 16 22  1  6  0  0  0
 17 27  1  6  0  0  0
 17 10  1  0  0  0  0
 18  4  1  0  0  0  0
 19 12  1  0  0  0  0
 20 21  1  0  0  0  0
 21 23  2  0  0  0  0
 22 25  2  0  0  0  0
 24 22  1  0  0  0  0
 24 20  2  0  0  0  0
 25 23  1  0  0  0  0
 26 20  1  0  0  0  0
 28 27  1  0  0  0  0
 30 28  1  0  0  0  0
 30 29  1  1  0  0  0
 31 32  1  0  0  0  0
 32 30  1  0  0  0  0
 33 32  1  0  0  0  0
 34 32  1  0  0  0  0
M  END
>  <MODEL>
7

>  <REMARK>
 VINA RESULT:      -5.9      3.191      7.612
  Name = 
  5 active torsions:
  status: ('A' for Active; 'I' for Inactive)
    1  A    between atoms: N_3  and  C_13
    2  A    between atoms: N_3  and  C_29
    3  A    between atoms: C_12  and  C_28
    4  A    between atoms: C_13  and  C_33
    5  A    between atoms: C_20  and  C_33
                            x       y       z     vdW  Elec       q    Type
                         _______ _______ _______ _____ _____    ______ ____

>  <TORSDO>
F 5

$$$$
=
 OpenBabel11062408113D

 34 38  0  0  1  0  0  0  0  0999 V2000
  161.1300  205.2230  152.3960 C   0  0  0  0  0  0  0  0  0  0  0  0
  160.9760  205.7900  150.0300 C   0  0  0  0  0  0  0  0  0  0  0  0
  161.0640  207.5700  151.8030 C   0  0  0  0  0  0  0  0  0  0  0  0
  160.5920  209.9070  151.3520 C   0  0  2  0  0  3  0  0  0  0  0  0
  161.2060  203.8700  152.0630 C   0  0  0  0  0  3  0  0  0  0  0  0
  161.0480  204.4280  149.7240 C   0  0  0  0  0  3  0  0  0  0  0  0
  162.5440  208.7580  150.2420 C   0  0  0  0  0  2  0  0  0  0  0  0
  161.0660  206.2160  151.3860 C   0  0  0  0  0  0  0  0  0  0  0  0
  162.5360  209.8090  149.1430 C   0  0  0  0  0  2  0  0  0  0  0  0
  160.6820  211.0310  150.3180 C   0  0  0  0  0  2  0  0  0  0  0  0
  161.1810  203.4730  150.7300 C   0  0  0  0  0  3  0  0  0  0  0  0
  161.0060  207.8660  153.1790 C   0  0  0  0  0  0  0  0  0  0  0  0
  161.0930  205.5790  153.7050 N   0  0  0  0  0  0  0  0  0  0  0  0
  160.6130  206.8550  148.6770 Cl  0  0  0  0  0  0  0  0  0  0  0  0
  161.1830  210.3050  152.6260 N   0  0  0  0  0  2  0  0  0  0  0  0
  160.8380  209.3050  153.6500 C   0  0  2  0  0  3  0  0  0  0  0  0
  162.0880  211.1430  149.7280 C   0  0  2  0  0  3  0  0  0  0  0  0
  161.2360  208.6700  150.9000 N   0  0  0  0  0  0  0  0  0  0  0  0
  161.0090  206.8530  154.0820 N   0  0  0  0  0  0  0  0  0  0  0  0
  163.4060  210.7120  156.0790 C   0  0  0  0  0  0  0  0  0  0  0  0
  163.0500  210.0510  157.2590 C   0  0  0  0  0  3  0  0  0  0  0  0
  161.6120  209.5770  154.9020 C   0  0  0  0  0  0  0  0  0  0  0  0
  161.9770  209.1540  157.2610 C   0  0  0  0  0  3  0  0  0  0  0  0
  162.6900  210.4750  154.9020 C   0  0  0  0  0  3  0  0  0  0  0  0
  161.2600  208.9180  156.0840 C   0  0  0  0  0  3  0  0  0  0  0  0
  164.4450  211.5800  156.0760 F   0  0  0  0  0  0  0  0  0  0  0  0
  162.1830  212.2270  148.7480 N   0  0  0  0  0  2  0  0  0  0  0  0
  161.1310  213.2200  148.9650 C   0  0  0  0  0  2  0  0  0  0  0  0
  161.8210  214.0210  146.8180 F   0  0  0  0  0  0  0  0  0  0  0  0
  160.7220  213.8770  147.6480 C   0  0  1  0  0  3  0  0  0  0  0  0
  158.3640  213.0460  147.8150 C   0  0  0  0  0  1  0  0  0  0  0  0
  159.5900  213.1410  146.9250 C   0  0  0  0  0  0  0  0  0  0  0  0
  159.9920  211.8680  146.5620 F   0  0  0  0  0  0  0  0  0  0  0  0
  159.2510  213.8430  145.7850 F   0  0  0  0  0  0  0  0  0  0  0  0
  1 13  1  0  0  0  0
  2  8  1  0  0  0  0
  3 12  2  0  0  0  0
  4 10  1  6  0  0  0
  4 15  1  0  0  0  0
  5  1  1  0  0  0  0
  6  2  2  0  0  0  0
  6 11  1  0  0  0  0
  7 18  1  0  0  0  0
  8  3  1  0  0  0  0
  8  1  2  0  0  0  0
  9 17  1  0  0  0  0
  9  7  1  0  0  0  0
 11  5  2  0  0  0  0
 12 16  1  0  0  0  0
 12 19  1  0  0  0  0
 13 19  2  0  0  0  0
 14  2  1  0  0  0  0
 15 16  1  0  0  0  0
 16 22  1  1  0  0  0
 17 27  1  6  0  0  0
 17 10  1  0  0  0  0
 18  4  1  0  0  0  0
 18  3  1  0  0  0  0
 20 21  1  0  0  0  0
 21 23  2  0  0  0  0
 22 25  2  0  0  0  0
 24 22  1  0  0  0  0
 24 20  2  0  0  0  0
 25 23  1  0  0  0  0
 26 20  1  0  0  0  0
 27 28  1  0  0  0  0
 30 29  1  6  0  0  0
 30 28  1  0  0  0  0
 32 30  1  0  0  0  0
 32 31  1  0  0  0  0
 33 32  1  0  0  0  0
 34 32  1  0  0  0  0
M  END
>  <MODEL>
8

>  <REMARK>
 VINA RESULT:      -5.6      2.955      6.347
  Name = 
  5 active torsions:
  status: ('A' for Active; 'I' for Inactive)
    1  A    between atoms: N_3  and  C_13
    2  A    between atoms: N_3  and  C_29
    3  A    between atoms: C_12  and  C_28
    4  A    between atoms: C_13  and  C_33
    5  A    between atoms: C_20  and  C_33
                            x       y       z     vdW  Elec       q    Type
                         _______ _______ _______ _____ _____    ______ ____

>  <TORSDO>
F 5

$$$$
=
 OpenBabel11062408113D

 34 38  0  0  1  0  0  0  0  0999 V2000
  161.2150  206.7080  152.9180 C   0  0  0  0  0  0  0  0  0  0  0  0
  161.2220  209.0050  153.7360 C   0  0  0  0  0  0  0  0  0  0  0  0
  161.7350  208.4660  151.3350 C   0  0  0  0  0  0  0  0  0  0  0  0
  162.6600  210.0870  149.7850 C   0  0  2  0  0  3  0  0  0  0  0  0
  160.8030  206.2650  154.1760 C   0  0  0  0  0  3  0  0  0  0  0  0
  160.8130  208.5350  154.9880 C   0  0  0  0  0  3  0  0  0  0  0  0
  160.3880  210.4540  150.8180 C   0  0  0  0  0  2  0  0  0  0  0  0
  161.3830  208.0910  152.6560 C   0  0  0  0  0  0  0  0  0  0  0  0
  160.5050  211.9450  150.5400 C   0  0  0  0  0  2  0  0  0  0  0  0
  162.7060  211.5640  149.3900 C   0  0  0  0  0  2  0  0  0  0  0  0
  160.5870  207.1780  155.2050 C   0  0  0  0  0  3  0  0  0  0  0  0
  162.0130  207.4620  150.3870 C   0  0  0  0  0  0  0  0  0  0  0  0
  161.4790  205.7940  151.9520 N   0  0  0  0  0  0  0  0  0  0  0  0
  161.6560  210.7090  153.6690 Cl  0  0  0  0  0  0  0  0  0  0  0  0
  162.3220  209.2400  148.6460 N   0  0  0  0  0  2  0  0  0  0  0  0
  162.5500  207.8310  149.0100 C   0  0  2  0  0  3  0  0  0  0  0  0
  161.3020  212.1560  149.2580 C   0  0  2  0  0  3  0  0  0  0  0  0
  161.7100  209.8210  150.8700 N   0  0  0  0  0  0  0  0  0  0  0  0
  161.8880  206.1560  150.7380 N   0  0  0  0  0  0  0  0  0  0  0  0
  162.3040  205.2060  146.2680 C   0  0  0  0  0  0  0  0  0  0  0  0
  160.9500  205.2960  145.9300 C   0  0  0  0  0  3  0  0  0  0  0  0
  162.0030  206.9390  147.9390 C   0  0  0  0  0  0  0  0  0  0  0  0
  160.1230  206.2060  146.5950 C   0  0  0  0  0  3  0  0  0  0  0  0
  162.8310  206.0260  147.2690 C   0  0  0  0  0  3  0  0  0  0  0  0
  160.6490  207.0260  147.5980 C   0  0  0  0  0  3  0  0  0  0  0  0
  163.1060  204.3250  145.6230 F   0  0  0  0  0  0  0  0  0  0  0  0
  161.3400  213.5660  148.8660 N   0  0  0  0  0  2  0  0  0  0  0  0
  160.3640  213.8400  147.8110 C   0  0  0  0  0  2  0  0  0  0  0  0
  159.1130  212.1340  146.6910 F   0  0  0  0  0  0  0  0  0  0  0  0
  160.3630  212.7240  146.7670 C   0  0  1  0  0  3  0  0  0  0  0  0
  162.3400  213.3290  145.3500 C   0  0  0  0  0  1  0  0  0  0  0  0
  160.8290  213.1850  145.3820 C   0  0  0  0  0  0  0  0  0  0  0  0
  160.2460  214.3950  145.0510 F   0  0  0  0  0  0  0  0  0  0  0  0
  160.4580  212.2410  144.4450 F   0  0  0  0  0  0  0  0  0  0  0  0
  1  5  2  0  0  0  0
  2  6  1  0  0  0  0
  3  8  1  0  0  0  0
  4 10  1  6  0  0  0
  4 18  1  0  0  0  0
  5 11  1  0  0  0  0
  6 11  2  0  0  0  0
  7 18  1  0  0  0  0
  8  1  1  0  0  0  0
  8  2  2  0  0  0  0
  9  7  1  0  0  0  0
 12 19  1  0  0  0  0
 12  3  2  0  0  0  0
 13  1  1  0  0  0  0
 14  2  1  0  0  0  0
 15 16  1  0  0  0  0
 15  4  1  0  0  0  0
 16 22  1  6  0  0  0
 16 12  1  0  0  0  0
 17 27  1  1  0  0  0
 17 10  1  0  0  0  0
 17  9  1  0  0  0  0
 18  3  1  0  0  0  0
 19 13  2  0  0  0  0
 20 24  1  0  0  0  0
 21 20  2  0  0  0  0
 21 23  1  0  0  0  0
 23 25  2  0  0  0  0
 24 22  2  0  0  0  0
 25 22  1  0  0  0  0
 26 20  1  0  0  0  0
 28 27  1  0  0  0  0
 30 29  1  6  0  0  0
 30 28  1  0  0  0  0
 31 32  1  0  0  0  0
 32 30  1  0  0  0  0
 33 32  1  0  0  0  0
 34 32  1  0  0  0  0
M  END
>  <MODEL>
9

>  <REMARK>
 VINA RESULT:      -4.7      3.521      6.480
  Name = 
  5 active torsions:
  status: ('A' for Active; 'I' for Inactive)
    1  A    between atoms: N_3  and  C_13
    2  A    between atoms: N_3  and  C_29
    3  A    between atoms: C_12  and  C_28
    4  A    between atoms: C_13  and  C_33
    5  A    between atoms: C_20  and  C_33
                            x       y       z     vdW  Elec       q    Type
                         _______ _______ _______ _____ _____    ______ ____

>  <TORSDO>
F 5

$$$$
