=
 OpenBabel11052422303D

 31 35  0  0  1  0  0  0  0  0999 V2000
  161.3180  202.2620  148.7370 C   0  0  0  0  0  3  0  0  0  0  0  0
  161.2240  204.7250  148.8390 C   0  0  0  0  0  0  0  0  0  0  0  0
  161.5190  204.8470  147.3430 C   0  0  1  0  0  3  0  0  0  0  0  0
  161.2550  203.5670  145.2380 C   0  0  0  0  0  2  0  0  0  0  0  0
  161.1430  203.4530  149.4630 C   0  0  0  0  0  0  0  0  0  0  0  0
  160.9630  200.9470  150.7360 C   0  0  0  0  0  3  0  0  0  0  0  0
  160.5380  204.0420  146.4940 C   0  0  0  0  0  2  0  0  0  0  0  0
  160.8950  205.7830  151.0330 C   0  0  0  0  0  0  0  0  0  0  0  0
  161.3920  199.8830  148.6500 F   0  0  0  0  0  0  0  0  0  0  0  0
  162.2160  207.2150  147.8210 C   0  0  0  0  0  2  0  0  0  0  0  0
  161.1500  204.5380  144.0550 C   0  0  0  0  0  2  0  0  0  0  0  0
  160.7620  204.5190  151.6150 C   0  0  0  0  0  3  0  0  0  0  0  0
  161.1590  205.8880  149.6540 C   0  0  0  0  0  0  0  0  0  0  0  0
  161.2270  201.0190  149.3670 C   0  0  0  0  0  0  0  0  0  0  0  0
  161.2130  206.0330  144.3890 C   0  0  0  0  0  2  0  0  0  0  0  0
  160.8950  203.3650  150.8530 C   0  0  0  0  0  0  0  0  0  0  0  0
  160.8000  202.1180  151.4780 C   0  0  0  0  0  3  0  0  0  0  0  0
  161.3410  207.2610  149.0590 C   0  0  0  0  0  2  0  0  0  0  0  0
  161.5480  206.2920  146.8260 C   0  0  1  0  0  3  0  0  0  0  0  0
  162.2290  206.3810  145.4690 C   0  0  0  0  0  2  0  0  0  0  0  0
  161.9430  206.2880  153.7380 O   0  0  0  0  0  0  0  0  0  0  0  0
  161.3080  207.2000  153.1450 C   0  0  0  0  0  0  0  0  0  0  0  0
  160.7820  206.9770  151.8260 N   0  0  0  0  0  2  0  0  0  0  0  0
  160.6390  210.9550  155.1180 C   0  0  0  0  0  0  0  0  0  0  0  0
  160.4220  208.5500  155.0310 C   0  0  0  0  0  3  0  0  0  0  0  0
  162.2080  209.7550  152.0120 O   0  0  0  0  0  1  0  0  0  0  0  0
  160.4090  212.1910  155.7850 N   0  0  0  0  0  1  0  0  0  0  0  0
  160.1960  209.7610  155.6880 C   0  0  0  0  0  3  0  0  0  0  0  0
  161.5390  209.7280  153.2300 C   0  0  0  0  0  0  0  0  0  0  0  0
  161.0930  208.5120  153.7990 C   0  0  0  0  0  0  0  0  0  0  0  0
  161.3080  210.9370  153.8930 C   0  0  0  0  0  3  0  0  0  0  0  0
  1 14  2  0  0  0  0
  1  5  1  0  0  0  0
  2  5  2  0  0  0  0
  2 13  1  0  0  0  0
  3  7  1  6  0  0  0
  3  2  1  0  0  0  0
  4  7  1  0  0  0  0
  5 16  1  0  0  0  0
  6 17  2  0  0  0  0
  8 12  1  0  0  0  0
  8 23  1  0  0  0  0
  9 14  1  0  0  0  0
 10 18  1  0  0  0  0
 11 15  1  0  0  0  0
 11  4  1  0  0  0  0
 13  8  2  0  0  0  0
 14  6  1  0  0  0  0
 15 20  1  0  0  0  0
 16 17  1  0  0  0  0
 16 12  2  0  0  0  0
 18 13  1  0  0  0  0
 19 20  1  6  0  0  0
 19  3  1  0  0  0  0
 19 10  1  0  0  0  0
 22 21  2  0  0  0  0
 22 30  1  0  0  0  0
 23 22  1  0  0  0  0
 24 28  1  0  0  0  0
 24 27  1  0  0  0  0
 25 28  2  0  0  0  0
 26 29  1  0  0  0  0
 29 30  2  0  0  0  0
 29 31  1  0  0  0  0
 30 25  1  0  0  0  0
 31 24  2  0  0  0  0
M  END
>  <MODEL>
1

>  <REMARK>
 VINA RESULT:      -9.9      0.000      0.000
  Name = 
  2 active torsions:
  status: ('A' for Active; 'I' for Inactive)
    1  A    between atoms: C_9  and  C_22
    2  A    between atoms: C_15  and  N_23
                            x       y       z     vdW  Elec       q    Type
                         _______ _______ _______ _____ _____    ______ ____

>  <TORSDO>
F 2

$$$$
=
 OpenBabel11052422303D

 31 35  0  0  1  0  0  0  0  0999 V2000
  161.6870  210.0270  150.9420 C   0  0  0  0  0  3  0  0  0  0  0  0
  161.2950  207.6210  151.3260 C   0  0  0  0  0  0  0  0  0  0  0  0
  161.1650  207.8340  152.8350 C   0  0  1  0  0  3  0  0  0  0  0  0
  160.5270  209.5870  154.4650 C   0  0  0  0  0  2  0  0  0  0  0  0
  161.5530  208.7140  150.4570 C   0  0  0  0  0  0  0  0  0  0  0  0
  162.0510  210.8570  148.7000 C   0  0  0  0  0  3  0  0  0  0  0  0
  160.1100  208.8820  153.1820 C   0  0  0  0  0  2  0  0  0  0  0  0
  161.4190  206.1040  149.3960 C   0  0  0  0  0  0  0  0  0  0  0  0
  162.0520  212.3490  150.5560 F   0  0  0  0  0  0  0  0  0  0  0  0
  161.6410  205.3760  153.0750 C   0  0  0  0  0  2  0  0  0  0  0  0
  159.9840  208.9310  155.7410 C   0  0  0  0  0  2  0  0  0  0  0  0
  161.6160  207.2020  148.5540 C   0  0  0  0  0  3  0  0  0  0  0  0
  161.2930  206.3070  150.7840 C   0  0  0  0  0  0  0  0  0  0  0  0
  161.9330  211.0900  150.0710 C   0  0  0  0  0  0  0  0  0  0  0  0
  159.9330  207.3990  155.7540 C   0  0  0  0  0  2  0  0  0  0  0  0
  161.6950  208.4900  149.0680 C   0  0  0  0  0  0  0  0  0  0  0  0
  161.9360  209.5590  148.1990 C   0  0  0  0  0  3  0  0  0  0  0  0
  161.1260  205.1030  151.6740 C   0  0  0  0  0  2  0  0  0  0  0  0
  160.8630  206.5520  153.6240 C   0  0  1  0  0  3  0  0  0  0  0  0
  161.1420  206.7360  155.1080 C   0  0  0  0  0  2  0  0  0  0  0  0
  161.1420  205.2580  146.5900 O   0  0  0  0  0  0  0  0  0  0  0  0
  161.2310  204.3810  147.4900 C   0  0  0  0  0  0  0  0  0  0  0  0
  161.3620  204.7680  148.8670 N   0  0  0  0  0  2  0  0  0  0  0  0
  161.1610  200.1860  146.5740 C   0  0  0  0  0  0  0  0  0  0  0  0
  161.4740  201.9970  148.1420 C   0  0  0  0  0  3  0  0  0  0  0  0
  160.6190  203.3670  144.8030 O   0  0  0  0  0  1  0  0  0  0  0  0
  161.1430  198.7930  146.2870 N   0  0  0  0  0  1  0  0  0  0  0  0
  161.4560  200.6300  147.8630 C   0  0  0  0  0  3  0  0  0  0  0  0
  160.9000  202.4810  145.8360 C   0  0  0  0  0  0  0  0  0  0  0  0
  161.1990  202.9410  147.1410 C   0  0  0  0  0  0  0  0  0  0  0  0
  160.8840  201.1100  145.5650 C   0  0  0  0  0  3  0  0  0  0  0  0
  2  3  1  0  0  0  0
  3  7  1  6  0  0  0
  3 19  1  0  0  0  0
  4 11  1  0  0  0  0
  5  1  1  0  0  0  0
  5  2  2  0  0  0  0
  6 14  1  0  0  0  0
  7  4  1  0  0  0  0
  8 13  2  0  0  0  0
 11 15  1  0  0  0  0
 12 16  2  0  0  0  0
 12  8  1  0  0  0  0
 13  2  1  0  0  0  0
 13 18  1  0  0  0  0
 14  9  1  0  0  0  0
 14  1  2  0  0  0  0
 16  5  1  0  0  0  0
 17  6  2  0  0  0  0
 17 16  1  0  0  0  0
 18 10  1  0  0  0  0
 19 10  1  6  0  0  0
 19 20  1  0  0  0  0
 20 15  1  0  0  0  0
 21 22  2  0  0  0  0
 22 23  1  0  0  0  0
 23  8  1  0  0  0  0
 24 28  1  0  0  0  0
 26 29  1  0  0  0  0
 27 24  1  0  0  0  0
 28 25  2  0  0  0  0
 29 30  2  0  0  0  0
 30 22  1  0  0  0  0
 30 25  1  0  0  0  0
 31 29  1  0  0  0  0
 31 24  2  0  0  0  0
M  END
>  <MODEL>
2

>  <REMARK>
 VINA RESULT:      -7.9      3.998      9.061
  Name = 
  2 active torsions:
  status: ('A' for Active; 'I' for Inactive)
    1  A    between atoms: C_9  and  C_22
    2  A    between atoms: C_15  and  N_23
                            x       y       z     vdW  Elec       q    Type
                         _______ _______ _______ _____ _____    ______ ____

>  <TORSDO>
F 2

$$$$
=
 OpenBabel11052422303D

 31 35  0  0  1  0  0  0  0  0999 V2000
  161.5150  211.7600  150.4980 C   0  0  0  0  0  3  0  0  0  0  0  0
  161.1970  209.4520  151.3110 C   0  0  0  0  0  0  0  0  0  0  0  0
  160.9530  209.9380  152.7410 C   0  0  1  0  0  3  0  0  0  0  0  0
  160.1310  211.9300  153.9630 C   0  0  0  0  0  2  0  0  0  0  0  0
  161.4690  210.3740  150.2660 C   0  0  0  0  0  0  0  0  0  0  0  0
  162.0000  212.1710  148.1650 C   0  0  0  0  0  3  0  0  0  0  0  0
  159.8340  210.9750  152.8150 C   0  0  0  0  0  2  0  0  0  0  0  0
  161.5170  207.6080  149.7180 C   0  0  0  0  0  0  0  0  0  0  0  0
  161.8110  213.9840  149.6980 F   0  0  0  0  0  0  0  0  0  0  0  0
  161.5110  207.5990  153.4750 C   0  0  0  0  0  2  0  0  0  0  0  0
  159.5280  211.4980  155.3060 C   0  0  0  0  0  2  0  0  0  0  0  0
  161.7260  208.5360  148.6950 C   0  0  0  0  0  3  0  0  0  0  0  0
  161.2860  208.0610  151.0310 C   0  0  0  0  0  0  0  0  0  0  0  0
  161.7770  212.6520  149.4560 C   0  0  0  0  0  0  0  0  0  0  0  0
  159.5390  209.9950  155.6090 C   0  0  0  0  0  2  0  0  0  0  0  0
  161.7170  209.9000  148.9570 C   0  0  0  0  0  0  0  0  0  0  0  0
  161.9730  210.7980  147.9160 C   0  0  0  0  0  3  0  0  0  0  0  0
  161.1070  207.0390  152.1240 C   0  0  0  0  0  2  0  0  0  0  0  0
  160.6490  208.8130  153.7400 C   0  0  1  0  0  3  0  0  0  0  0  0
  160.8160  209.2880  155.1760 C   0  0  0  0  0  2  0  0  0  0  0  0
  160.0800  206.1020  147.6360 O   0  0  0  0  0  0  0  0  0  0  0  0
  160.8420  205.4840  148.4250 C   0  0  0  0  0  0  0  0  0  0  0  0
  161.5520  206.1950  149.4530 N   0  0  0  0  0  2  0  0  0  0  0  0
  161.3720  201.2450  147.9800 C   0  0  0  0  0  0  0  0  0  0  0  0
  161.3920  203.4810  147.0640 C   0  0  0  0  0  3  0  0  0  0  0  0
  160.4490  203.6070  150.6480 O   0  0  0  0  0  1  0  0  0  0  0  0
  161.5510  199.8440  147.8150 N   0  0  0  0  0  1  0  0  0  0  0  0
  161.5690  202.1060  146.8990 C   0  0  0  0  0  3  0  0  0  0  0  0
  160.8200  203.1360  149.3950 C   0  0  0  0  0  0  0  0  0  0  0  0
  161.0170  204.0170  148.3050 C   0  0  0  0  0  0  0  0  0  0  0  0
  160.9990  201.7600  149.2230 C   0  0  0  0  0  3  0  0  0  0  0  0
  2  3  1  0  0  0  0
  3  7  1  6  0  0  0
  3 19  1  0  0  0  0
  4 11  1  0  0  0  0
  5  1  1  0  0  0  0
  5  2  2  0  0  0  0
  6 14  1  0  0  0  0
  7  4  1  0  0  0  0
  8 13  2  0  0  0  0
 11 15  1  0  0  0  0
 12 16  2  0  0  0  0
 12  8  1  0  0  0  0
 13  2  1  0  0  0  0
 13 18  1  0  0  0  0
 14  9  1  0  0  0  0
 14  1  2  0  0  0  0
 16  5  1  0  0  0  0
 17  6  2  0  0  0  0
 17 16  1  0  0  0  0
 18 10  1  0  0  0  0
 19 10  1  6  0  0  0
 19 20  1  0  0  0  0
 20 15  1  0  0  0  0
 21 22  2  0  0  0  0
 22 23  1  0  0  0  0
 23  8  1  0  0  0  0
 24 31  1  0  0  0  0
 25 30  2  0  0  0  0
 27 24  1  0  0  0  0
 28 25  1  0  0  0  0
 28 24  2  0  0  0  0
 29 26  1  0  0  0  0
 30 22  1  0  0  0  0
 30 29  1  0  0  0  0
 31 29  2  0  0  0  0
M  END
>  <MODEL>
3

>  <REMARK>
 VINA RESULT:      -7.6      3.808      9.071
  Name = 
  2 active torsions:
  status: ('A' for Active; 'I' for Inactive)
    1  A    between atoms: C_9  and  C_22
    2  A    between atoms: C_15  and  N_23
                            x       y       z     vdW  Elec       q    Type
                         _______ _______ _______ _____ _____    ______ ____

>  <TORSDO>
F 2

$$$$
