=
 OpenBabel11052421523D

 30 32  0  0  1  0  0  0  0  0999 V2000
  160.9170  208.0020  152.0900 C   0  0  1  0  0  3  0  0  0  0  0  0
  161.6720  207.3990  150.9160 C   0  0  1  0  0  3  0  0  0  0  0  0
  162.0330  205.9840  151.3240 C   0  0  0  0  0  2  0  0  0  0  0  0
  161.0120  207.0150  153.2420 C   0  0  0  0  0  2  0  0  0  0  0  0
  162.0530  205.9940  152.8360 C   0  0  0  0  0  2  0  0  0  0  0  0
  162.3780  209.8500  151.7960 O   0  0  0  0  0  0  0  0  0  0  0  0
  161.4920  209.3370  152.4700 C   0  0  0  0  0  0  0  0  0  0  0  0
  160.9960  210.0070  153.7150 C   0  0  2  0  0  3  0  0  0  0  0  0
  159.2640  211.0550  152.4210 O   0  0  0  0  0  0  0  0  0  0  0  0
  160.0340  211.1190  153.4180 C   0  0  0  0  0  0  0  0  0  0  0  0
  159.9800  212.2500  154.2790 N   0  0  0  0  0  1  0  0  0  0  0  0
  162.1690  210.4770  154.5730 C   0  0  0  0  0  2  0  0  0  0  0  0
  163.0050  210.7890  156.7790 C   0  0  0  0  0  1  0  0  0  0  0  0
  161.9340  210.1880  155.9910 N   0  0  0  0  0  0  0  0  0  0  0  0
  161.8860  208.7900  156.2250 N   0  0  0  0  0  2  0  0  0  0  0  0
  160.2870  207.0420  156.7720 C   0  0  0  0  0  2  0  0  0  0  0  0
  159.5160  208.2670  156.3360 C   0  0  0  0  0  2  0  0  0  0  0  0
  160.7930  208.4230  157.1330 C   0  0  0  0  0  3  0  0  0  0  0  0
  160.7780  207.3880  149.6850 C   0  0  0  0  0  2  0  0  0  0  0  0
  161.4830  207.9500  148.5410 N   0  0  0  0  0  0  0  0  0  0  0  0
  162.2000  209.0000  149.0050 O   0  0  0  0  0  1  0  0  0  0  0  0
  162.4510  206.9600  148.0880 C   0  0  0  0  0  2  0  0  0  0  0  0
  161.0160  203.5150  145.4310 C   0  0  0  0  0  0  0  0  0  0  0  0
  161.1100  204.7130  144.5440 C   0  0  0  0  0  2  0  0  0  0  0  0
  160.5220  202.3650  144.9150 F   0  0  0  0  0  0  0  0  0  0  0  0
  161.8030  205.9520  147.1960 C   0  0  0  0  0  0  0  0  0  0  0  0
  160.3990  205.8870  145.1280 C   0  0  0  0  0  3  0  0  0  0  0  0
  161.5310  203.4970  146.6630 C   0  0  0  0  0  3  0  0  0  0  0  0
  160.7470  206.4450  146.2870 C   0  0  0  0  0  3  0  0  0  0  0  0
  162.1020  204.6560  147.3790 C   0  0  0  0  0  3  0  0  0  0  0  0
  1  7  1  1  0  0  0
  1  4  1  0  0  0  0
  2 19  1  6  0  0  0
  2  3  1  0  0  0  0
  2  1  1  0  0  0  0
  3  5  1  0  0  0  0
  5  4  1  0  0  0  0
  6  7  2  0  0  0  0
  7  8  1  0  0  0  0
  8 12  1  6  0  0  0
  9 10  2  0  0  0  0
 10  8  1  0  0  0  0
 10 11  1  0  0  0  0
 12 14  1  0  0  0  0
 14 15  1  0  0  0  0
 14 13  1  0  0  0  0
 15 18  1  0  0  0  0
 16 18  1  0  0  0  0
 17 16  1  0  0  0  0
 17 18  1  0  0  0  0
 20 21  1  0  0  0  0
 20 19  1  0  0  0  0
 22 20  1  0  0  0  0
 23 28  2  0  0  0  0
 24 27  1  0  0  0  0
 24 23  1  0  0  0  0
 25 23  1  0  0  0  0
 26 30  2  0  0  0  0
 26 22  1  0  0  0  0
 27 29  2  0  0  0  0
 28 30  1  0  0  0  0
 29 26  1  0  0  0  0
M  END
>  <MODEL>
1

>  <REMARK>
 VINA RESULT:      -7.7      0.000      0.000
  Name = 
  11 active torsions:
  status: ('A' for Active; 'I' for Inactive)
    1  A    between atoms: C_3  and  N_11
    2  A    between atoms: C_3  and  C_19
    3  A    between atoms: C_4  and  C_13
    4  A    between atoms: C_7  and  C_30
    5  A    between atoms: C_8  and  N_12
    6  A    between atoms: C_8  and  C_13
    7  A    between atoms: N_9  and  N_12
    8  A    between atoms: N_9  and  C_21
    9  A    between atoms: C_10  and  C_25
   10  A    between atoms: N_11  and  C_25
   11  A    between atoms: C_13  and  C_30
                            x       y       z     vdW  Elec       q    Type
                         _______ _______ _______ _____ _____    ______ ____

>  <TORSDO>
F 11

$$$$
=
 OpenBabel11052421523D

 30 32  0  0  1  0  0  0  0  0999 V2000
  160.8310  207.9690  152.0990 C   0  0  1  0  0  3  0  0  0  0  0  0
  161.6430  207.3460  150.9750 C   0  0  1  0  0  3  0  0  0  0  0  0
  162.0530  205.9690  151.4590 C   0  0  0  0  0  2  0  0  0  0  0  0
  160.9370  207.0410  153.3000 C   0  0  0  0  0  2  0  0  0  0  0  0
  162.0310  206.0500  152.9680 C   0  0  0  0  0  2  0  0  0  0  0  0
  162.3960  209.7480  151.9630 O   0  0  0  0  0  0  0  0  0  0  0  0
  161.3370  209.3440  152.4300 C   0  0  0  0  0  0  0  0  0  0  0  0
  160.5480  210.1930  153.3790 C   0  0  2  0  0  3  0  0  0  0  0  0
  158.4350  211.1750  152.7890 O   0  0  0  0  0  0  0  0  0  0  0  0
  159.6900  211.1960  152.6660 C   0  0  0  0  0  0  0  0  0  0  0  0
  160.3010  212.1910  151.8520 N   0  0  0  0  0  1  0  0  0  0  0  0
  161.4720  210.8530  154.4010 C   0  0  0  0  0  2  0  0  0  0  0  0
  161.8500  209.3400  156.1980 C   0  0  0  0  0  1  0  0  0  0  0  0
  161.0800  210.5020  155.7700 N   0  0  0  0  0  0  0  0  0  0  0  0
  159.6920  210.2180  155.8450 N   0  0  0  0  0  2  0  0  0  0  0  0
  157.6500  211.4800  156.2270 C   0  0  0  0  0  2  0  0  0  0  0  0
  158.8010  212.4580  156.1490 C   0  0  0  0  0  2  0  0  0  0  0  0
  159.0030  211.1030  156.7920 C   0  0  0  0  0  3  0  0  0  0  0  0
  160.7830  207.2390  149.7240 C   0  0  0  0  0  2  0  0  0  0  0  0
  161.4460  207.8820  148.5970 N   0  0  0  0  0  0  0  0  0  0  0  0
  162.1360  208.9310  149.1000 O   0  0  0  0  0  1  0  0  0  0  0  0
  162.4380  206.9500  148.0770 C   0  0  0  0  0  2  0  0  0  0  0  0
  161.0320  203.4940  145.4180 C   0  0  0  0  0  0  0  0  0  0  0  0
  161.1270  204.6900  144.5300 C   0  0  0  0  0  2  0  0  0  0  0  0
  160.5450  202.3410  144.9020 F   0  0  0  0  0  0  0  0  0  0  0  0
  161.7990  205.9380  147.1830 C   0  0  0  0  0  0  0  0  0  0  0  0
  160.4080  205.8620  145.1070 C   0  0  0  0  0  3  0  0  0  0  0  0
  161.5390  203.4810  146.6540 C   0  0  0  0  0  3  0  0  0  0  0  0
  160.7470  206.4240  146.2660 C   0  0  0  0  0  3  0  0  0  0  0  0
  162.1020  204.6430  147.3710 C   0  0  0  0  0  3  0  0  0  0  0  0
  1  7  1  1  0  0  0
  1  4  1  0  0  0  0
  2 19  1  6  0  0  0
  2  3  1  0  0  0  0
  2  1  1  0  0  0  0
  3  5  1  0  0  0  0
  5  4  1  0  0  0  0
  6  7  2  0  0  0  0
  7  8  1  0  0  0  0
  8 12  1  1  0  0  0
 10  9  2  0  0  0  0
 10  8  1  0  0  0  0
 11 10  1  0  0  0  0
 12 14  1  0  0  0  0
 14 15  1  0  0  0  0
 14 13  1  0  0  0  0
 15 18  1  0  0  0  0
 16 18  1  0  0  0  0
 17 16  1  0  0  0  0
 17 18  1  0  0  0  0
 20 21  1  0  0  0  0
 20 19  1  0  0  0  0
 22 20  1  0  0  0  0
 23 28  2  0  0  0  0
 24 27  1  0  0  0  0
 24 23  1  0  0  0  0
 25 23  1  0  0  0  0
 26 30  2  0  0  0  0
 26 22  1  0  0  0  0
 27 29  2  0  0  0  0
 28 30  1  0  0  0  0
 29 26  1  0  0  0  0
M  END
>  <MODEL>
2

>  <REMARK>
 VINA RESULT:      -7.5      1.297      1.591
  Name = 
  11 active torsions:
  status: ('A' for Active; 'I' for Inactive)
    1  A    between atoms: C_3  and  N_11
    2  A    between atoms: C_3  and  C_19
    3  A    between atoms: C_4  and  C_13
    4  A    between atoms: C_7  and  C_30
    5  A    between atoms: C_8  and  N_12
    6  A    between atoms: C_8  and  C_13
    7  A    between atoms: N_9  and  N_12
    8  A    between atoms: N_9  and  C_21
    9  A    between atoms: C_10  and  C_25
   10  A    between atoms: N_11  and  C_25
   11  A    between atoms: C_13  and  C_30
                            x       y       z     vdW  Elec       q    Type
                         _______ _______ _______ _____ _____    ______ ____

>  <TORSDO>
F 11

$$$$
=
 OpenBabel11052421523D

 30 32  0  0  1  0  0  0  0  0999 V2000
  161.2010  208.1420  151.9070 C   0  0  1  0  0  3  0  0  0  0  0  0
  162.3210  207.4600  151.1400 C   0  0  1  0  0  3  0  0  0  0  0  0
  162.3930  206.0390  151.6640 C   0  0  0  0  0  2  0  0  0  0  0  0
  160.7580  207.1870  153.0040 C   0  0  0  0  0  2  0  0  0  0  0  0
  161.8040  206.0950  153.0550 C   0  0  0  0  0  2  0  0  0  0  0  0
  162.5520  210.0930  151.9350 O   0  0  0  0  0  0  0  0  0  0  0  0
  161.6620  209.4510  152.4810 C   0  0  0  0  0  0  0  0  0  0  0  0
  161.0480  209.9340  153.7600 C   0  0  2  0  0  3  0  0  0  0  0  0
  159.6450  211.2990  152.3650 O   0  0  0  0  0  0  0  0  0  0  0  0
  159.8890  210.8570  153.5210 C   0  0  0  0  0  0  0  0  0  0  0  0
  159.0480  211.2250  154.6080 N   0  0  0  0  0  1  0  0  0  0  0  0
  162.1090  210.5660  154.6580 C   0  0  0  0  0  2  0  0  0  0  0  0
  163.0510  210.6530  156.8410 C   0  0  0  0  0  1  0  0  0  0  0  0
  161.9220  210.1670  156.0560 N   0  0  0  0  0  0  0  0  0  0  0  0
  161.8200  208.7570  156.1740 N   0  0  0  0  0  2  0  0  0  0  0  0
  160.4480  206.8920  156.9160 C   0  0  0  0  0  2  0  0  0  0  0  0
  159.5350  207.9430  156.3250 C   0  0  0  0  0  2  0  0  0  0  0  0
  160.7610  208.3610  157.1100 C   0  0  0  0  0  3  0  0  0  0  0  0
  161.9980  207.4650  149.6530 C   0  0  0  0  0  2  0  0  0  0  0  0
  161.3480  206.2180  149.2710 N   0  0  0  0  0  0  0  0  0  0  0  0
  160.0160  206.4580  149.2760 O   0  0  0  0  0  1  0  0  0  0  0  0
  161.7090  205.9360  147.8880 C   0  0  0  0  0  2  0  0  0  0  0  0
  160.7880  201.7010  146.4010 C   0  0  0  0  0  0  0  0  0  0  0  0
  160.1220  201.8300  147.7310 C   0  0  0  0  0  2  0  0  0  0  0  0
  160.7530  200.5030  145.7720 F   0  0  0  0  0  0  0  0  0  0  0  0
  161.5210  204.4880  147.5740 C   0  0  0  0  0  0  0  0  0  0  0  0
  161.0610  202.3410  148.7710 C   0  0  0  0  0  3  0  0  0  0  0  0
  161.2900  202.7550  145.7500 C   0  0  0  0  0  3  0  0  0  0  0  0
  161.6400  203.5380  148.7010 C   0  0  0  0  0  3  0  0  0  0  0  0
  161.4120  204.1260  146.2860 C   0  0  0  0  0  3  0  0  0  0  0  0
  1  7  1  1  0  0  0
  1  4  1  0  0  0  0
  2 19  1  6  0  0  0
  2  3  1  0  0  0  0
  2  1  1  0  0  0  0
  3  5  1  0  0  0  0
  4  5  1  0  0  0  0
  6  7  2  0  0  0  0
  7  8  1  0  0  0  0
  8 12  1  1  0  0  0
  9 10  2  0  0  0  0
 10  8  1  0  0  0  0
 10 11  1  0  0  0  0
 12 14  1  0  0  0  0
 14 15  1  0  0  0  0
 14 13  1  0  0  0  0
 15 18  1  0  0  0  0
 16 18  1  0  0  0  0
 17 16  1  0  0  0  0
 17 18  1  0  0  0  0
 20 21  1  0  0  0  0
 20 19  1  0  0  0  0
 22 20  1  0  0  0  0
 23 24  1  0  0  0  0
 24 27  1  0  0  0  0
 25 23  1  0  0  0  0
 26 22  1  0  0  0  0
 26 29  1  0  0  0  0
 28 30  1  0  0  0  0
 28 23  2  0  0  0  0
 29 27  2  0  0  0  0
 30 26  2  0  0  0  0
M  END
>  <MODEL>
3

>  <REMARK>
 VINA RESULT:      -7.5      1.233      1.798
  Name = 
  11 active torsions:
  status: ('A' for Active; 'I' for Inactive)
    1  A    between atoms: C_3  and  N_11
    2  A    between atoms: C_3  and  C_19
    3  A    between atoms: C_4  and  C_13
    4  A    between atoms: C_7  and  C_30
    5  A    between atoms: C_8  and  N_12
    6  A    between atoms: C_8  and  C_13
    7  A    between atoms: N_9  and  N_12
    8  A    between atoms: N_9  and  C_21
    9  A    between atoms: C_10  and  C_25
   10  A    between atoms: N_11  and  C_25
   11  A    between atoms: C_13  and  C_30
                            x       y       z     vdW  Elec       q    Type
                         _______ _______ _______ _____ _____    ______ ____

>  <TORSDO>
F 11

$$$$
=
 OpenBabel11052421523D

 30 32  0  0  1  0  0  0  0  0999 V2000
  160.9400  208.1810  152.0480 C   0  0  1  0  0  3  0  0  0  0  0  0
  161.6830  207.4160  150.9650 C   0  0  1  0  0  3  0  0  0  0  0  0
  161.9490  206.0330  151.5270 C   0  0  0  0  0  2  0  0  0  0  0  0
  160.9500  207.3170  153.2990 C   0  0  0  0  0  2  0  0  0  0  0  0
  161.9360  206.2020  153.0300 C   0  0  0  0  0  2  0  0  0  0  0  0
  162.7090  209.7540  151.8780 O   0  0  0  0  0  0  0  0  0  0  0  0
  161.5860  209.5130  152.3030 C   0  0  0  0  0  0  0  0  0  0  0  0
  160.8500  210.5240  153.1290 C   0  0  2  0  0  3  0  0  0  0  0  0
  162.3410  210.7040  155.0060 O   0  0  0  0  0  0  0  0  0  0  0  0
  161.1850  210.4190  154.5880 C   0  0  0  0  0  0  0  0  0  0  0  0
  160.1830  210.0070  155.5110 N   0  0  0  0  0  1  0  0  0  0  0  0
  159.3460  210.4280  152.8780 C   0  0  0  0  0  2  0  0  0  0  0  0
  159.8570  212.5710  151.9790 C   0  0  0  0  0  1  0  0  0  0  0  0
  158.7880  211.7340  152.5130 N   0  0  0  0  0  0  0  0  0  0  0  0
  158.1930  212.3650  153.6360 N   0  0  0  0  0  2  0  0  0  0  0  0
  156.0350  212.3350  154.7540 C   0  0  0  0  0  2  0  0  0  0  0  0
  157.0880  211.9000  155.7490 C   0  0  0  0  0  2  0  0  0  0  0  0
  157.2100  211.4970  154.2940 C   0  0  0  0  0  3  0  0  0  0  0  0
  160.8170  207.3270  149.7170 C   0  0  0  0  0  2  0  0  0  0  0  0
  161.5400  207.8410  148.5600 N   0  0  0  0  0  0  0  0  0  0  0  0
  162.2820  208.8840  149.0000 O   0  0  0  0  0  1  0  0  0  0  0  0
  162.4830  206.8150  148.1360 C   0  0  0  0  0  2  0  0  0  0  0  0
  161.0090  203.4430  145.4070 C   0  0  0  0  0  0  0  0  0  0  0  0
  161.1560  204.6480  144.5380 C   0  0  0  0  0  2  0  0  0  0  0  0
  160.4930  202.3140  144.8670 F   0  0  0  0  0  0  0  0  0  0  0  0
  161.8260  205.8360  147.2180 C   0  0  0  0  0  0  0  0  0  0  0  0
  160.4660  205.8340  145.1200 C   0  0  0  0  0  3  0  0  0  0  0  0
  161.4960  203.3960  146.6510 C   0  0  0  0  0  3  0  0  0  0  0  0
  160.8050  206.3690  146.2920 C   0  0  0  0  0  3  0  0  0  0  0  0
  162.0840  204.5300  147.3920 C   0  0  0  0  0  3  0  0  0  0  0  0
  1  7  1  1  0  0  0
  1  4  1  0  0  0  0
  2 19  1  6  0  0  0
  2  3  1  0  0  0  0
  2  1  1  0  0  0  0
  3  5  1  0  0  0  0
  5  4  1  0  0  0  0
  6  7  2  0  0  0  0
  7  8  1  0  0  0  0
  8 12  1  1  0  0  0
  8 10  1  0  0  0  0
 10  9  2  0  0  0  0
 10 11  1  0  0  0  0
 13 14  1  0  0  0  0
 14 12  1  0  0  0  0
 14 15  1  0  0  0  0
 15 18  1  0  0  0  0
 16 17  1  0  0  0  0
 18 16  1  0  0  0  0
 18 17  1  0  0  0  0
 20 21  1  0  0  0  0
 20 19  1  0  0  0  0
 22 20  1  0  0  0  0
 23 28  2  0  0  0  0
 24 27  1  0  0  0  0
 24 23  1  0  0  0  0
 25 23  1  0  0  0  0
 26 30  2  0  0  0  0
 26 22  1  0  0  0  0
 27 29  2  0  0  0  0
 28 30  1  0  0  0  0
 29 26  1  0  0  0  0
M  END
>  <MODEL>
4

>  <REMARK>
 VINA RESULT:      -7.3      1.563      2.779
  Name = 
  11 active torsions:
  status: ('A' for Active; 'I' for Inactive)
    1  A    between atoms: C_3  and  N_11
    2  A    between atoms: C_3  and  C_19
    3  A    between atoms: C_4  and  C_13
    4  A    between atoms: C_7  and  C_30
    5  A    between atoms: C_8  and  N_12
    6  A    between atoms: C_8  and  C_13
    7  A    between atoms: N_9  and  N_12
    8  A    between atoms: N_9  and  C_21
    9  A    between atoms: C_10  and  C_25
   10  A    between atoms: N_11  and  C_25
   11  A    between atoms: C_13  and  C_30
                            x       y       z     vdW  Elec       q    Type
                         _______ _______ _______ _____ _____    ______ ____

>  <TORSDO>
F 11

$$$$
=
 OpenBabel11052421523D

 30 32  0  0  1  0  0  0  0  0999 V2000
  162.0610  209.1460  151.6600 C   0  0  1  0  0  3  0  0  0  0  0  0
  161.7690  207.8180  150.9810 C   0  0  1  0  0  3  0  0  0  0  0  0
  162.0020  208.0370  149.4980 C   0  0  0  0  0  2  0  0  0  0  0  0
  162.2690  210.1780  150.5630 C   0  0  0  0  0  2  0  0  0  0  0  0
  161.8130  209.5210  149.2780 C   0  0  0  0  0  2  0  0  0  0  0  0
  160.0630  208.7360  152.8730 O   0  0  0  0  0  0  0  0  0  0  0  0
  160.9350  209.5420  152.5710 C   0  0  0  0  0  0  0  0  0  0  0  0
  160.8710  210.9550  153.0660 C   0  0  2  0  0  3  0  0  0  0  0  0
  160.1390  211.5040  155.2880 O   0  0  0  0  0  0  0  0  0  0  0  0
  161.0550  211.0460  154.5520 C   0  0  0  0  0  0  0  0  0  0  0  0
  162.2710  210.5960  155.1380 N   0  0  0  0  0  1  0  0  0  0  0  0
  159.5780  211.6250  152.6060 C   0  0  0  0  0  2  0  0  0  0  0  0
  158.8810  213.8970  152.4850 C   0  0  0  0  0  1  0  0  0  0  0  0
  159.8490  212.9260  151.9870 N   0  0  0  0  0  0  0  0  0  0  0  0
  159.7700  212.8440  150.5730 N   0  0  0  0  0  2  0  0  0  0  0  0
  159.8830  214.1010  148.4950 C   0  0  0  0  0  2  0  0  0  0  0  0
  161.2560  213.5330  148.7790 C   0  0  0  0  0  2  0  0  0  0  0  0
  160.3840  214.0070  149.9220 C   0  0  0  0  0  3  0  0  0  0  0  0
  162.7130  206.7520  151.5170 C   0  0  0  0  0  2  0  0  0  0  0  0
  161.9590  205.6000  151.9950 N   0  0  0  0  0  0  0  0  0  0  0  0
  161.4670  205.9370  153.2100 O   0  0  0  0  0  1  0  0  0  0  0  0
  160.8070  205.4310  151.1190 C   0  0  0  0  0  2  0  0  0  0  0  0
  160.9560  202.0120  148.0720 C   0  0  0  0  0  0  0  0  0  0  0  0
  160.0940  201.5340  149.1940 C   0  0  0  0  0  2  0  0  0  0  0  0
  161.2470  201.1540  147.0670 F   0  0  0  0  0  0  0  0  0  0  0  0
  160.9540  204.2030  150.2810 C   0  0  0  0  0  0  0  0  0  0  0  0
  160.7570  201.7220  150.5160 C   0  0  0  0  0  3  0  0  0  0  0  0
  161.3300  203.2900  147.9550 C   0  0  0  0  0  3  0  0  0  0  0  0
  161.0940  202.9180  150.9960 C   0  0  0  0  0  3  0  0  0  0  0  0
  161.1020  204.3530  148.9550 C   0  0  0  0  0  3  0  0  0  0  0  0
  1  7  1  1  0  0  0
  2 19  1  1  0  0  0
  2  1  1  0  0  0  0
  3  2  1  0  0  0  0
  4  1  1  0  0  0  0
  5  3  1  0  0  0  0
  5  4  1  0  0  0  0
  7  6  2  0  0  0  0
  7  8  1  0  0  0  0
  8 12  1  1  0  0  0
  8 10  1  0  0  0  0
 10 11  1  0  0  0  0
 10  9  2  0  0  0  0
 14 13  1  0  0  0  0
 14 12  1  0  0  0  0
 15 14  1  0  0  0  0
 16 17  1  0  0  0  0
 16 18  1  0  0  0  0
 17 18  1  0  0  0  0
 18 15  1  0  0  0  0
 19 20  1  0  0  0  0
 20 21  1  0  0  0  0
 22 20  1  0  0  0  0
 23 24  1  0  0  0  0
 24 27  1  0  0  0  0
 25 23  1  0  0  0  0
 26 29  1  0  0  0  0
 26 22  1  0  0  0  0
 27 29  2  0  0  0  0
 28 23  2  0  0  0  0
 28 30  1  0  0  0  0
 30 26  2  0  0  0  0
M  END
>  <MODEL>
5

>  <REMARK>
 VINA RESULT:      -7.2      2.879      4.923
  Name = 
  11 active torsions:
  status: ('A' for Active; 'I' for Inactive)
    1  A    between atoms: C_3  and  N_11
    2  A    between atoms: C_3  and  C_19
    3  A    between atoms: C_4  and  C_13
    4  A    between atoms: C_7  and  C_30
    5  A    between atoms: C_8  and  N_12
    6  A    between atoms: C_8  and  C_13
    7  A    between atoms: N_9  and  N_12
    8  A    between atoms: N_9  and  C_21
    9  A    between atoms: C_10  and  C_25
   10  A    between atoms: N_11  and  C_25
   11  A    between atoms: C_13  and  C_30
                            x       y       z     vdW  Elec       q    Type
                         _______ _______ _______ _____ _____    ______ ____

>  <TORSDO>
F 11

$$$$
=
 OpenBabel11052421523D

 30 32  0  0  1  0  0  0  0  0999 V2000
  161.2250  209.0130  154.2230 C   0  0  1  0  0  3  0  0  0  0  0  0
  160.6850  207.9300  153.3030 C   0  0  1  0  0  3  0  0  0  0  0  0
  160.8620  208.4470  151.8880 C   0  0  0  0  0  2  0  0  0  0  0  0
  161.5310  210.2270  153.3600 C   0  0  0  0  0  2  0  0  0  0  0  0
  160.9010  209.9530  152.0120 C   0  0  0  0  0  2  0  0  0  0  0  0
  159.7850  208.4710  156.0300 O   0  0  0  0  0  0  0  0  0  0  0  0
  160.2330  209.3470  155.2990 C   0  0  0  0  0  0  0  0  0  0  0  0
  159.7630  210.7640  155.4320 C   0  0  2  0  0  3  0  0  0  0  0  0
  161.5720  211.0150  156.9940 O   0  0  0  0  0  0  0  0  0  0  0  0
  160.6020  211.5530  156.3930 C   0  0  0  0  0  0  0  0  0  0  0  0
  160.3080  212.9270  156.6180 N   0  0  0  0  0  1  0  0  0  0  0  0
  158.2810  210.8050  155.7960 C   0  0  0  0  0  2  0  0  0  0  0  0
  156.1480  211.2660  154.8480 C   0  0  0  0  0  1  0  0  0  0  0  0
  157.5410  211.6950  154.8970 N   0  0  0  0  0  0  0  0  0  0  0  0
  158.1000  211.6810  153.5930 N   0  0  0  0  0  2  0  0  0  0  0  0
  158.3440  212.8810  151.4930 C   0  0  0  0  0  2  0  0  0  0  0  0
  159.4700  213.3020  152.4100 C   0  0  0  0  0  2  0  0  0  0  0  0
  158.0970  213.0150  152.9810 C   0  0  0  0  0  3  0  0  0  0  0  0
  161.4750  206.6460  153.5050 C   0  0  0  0  0  2  0  0  0  0  0  0
  161.7460  206.0090  152.2230 N   0  0  0  0  0  0  0  0  0  0  0  0
  163.0900  205.8740  152.1340 O   0  0  0  0  0  1  0  0  0  0  0  0
  161.2000  204.6600  152.2750 C   0  0  0  0  0  2  0  0  0  0  0  0
  160.8820  202.4880  148.2530 C   0  0  0  0  0  0  0  0  0  0  0  0
  161.6400  203.7470  147.9880 C   0  0  0  0  0  2  0  0  0  0  0  0
  160.5630  201.6910  147.2070 F   0  0  0  0  0  0  0  0  0  0  0  0
  160.9810  204.1210  150.8980 C   0  0  0  0  0  0  0  0  0  0  0  0
  160.9330  204.9400  148.5360 C   0  0  0  0  0  3  0  0  0  0  0  0
  160.6370  202.0510  149.4920 C   0  0  0  0  0  3  0  0  0  0  0  0
  160.6860  205.1040  149.8350 C   0  0  0  0  0  3  0  0  0  0  0  0
  160.9120  202.7900  150.7400 C   0  0  0  0  0  3  0  0  0  0  0  0
  1  7  1  1  0  0  0
  2 19  1  6  0  0  0
  2  1  1  0  0  0  0
  3  5  1  0  0  0  0
  3  2  1  0  0  0  0
  4  1  1  0  0  0  0
  5  4  1  0  0  0  0
  7  8  1  0  0  0  0
  7  6  2  0  0  0  0
  8 12  1  1  0  0  0
  8 10  1  0  0  0  0
 10 11  1  0  0  0  0
 10  9  2  0  0  0  0
 13 14  1  0  0  0  0
 14 12  1  0  0  0  0
 15 14  1  0  0  0  0
 16 17  1  0  0  0  0
 16 18  1  0  0  0  0
 17 18  1  0  0  0  0
 18 15  1  0  0  0  0
 20 22  1  0  0  0  0
 20 19  1  0  0  0  0
 21 20  1  0  0  0  0
 23 28  2  0  0  0  0
 24 23  1  0  0  0  0
 24 27  1  0  0  0  0
 25 23  1  0  0  0  0
 26 22  1  0  0  0  0
 27 29  2  0  0  0  0
 28 30  1  0  0  0  0
 29 26  1  0  0  0  0
 30 26  2  0  0  0  0
M  END
>  <MODEL>
6

>  <REMARK>
 VINA RESULT:      -7.2      2.662      4.402
  Name = 
  11 active torsions:
  status: ('A' for Active; 'I' for Inactive)
    1  A    between atoms: C_3  and  N_11
    2  A    between atoms: C_3  and  C_19
    3  A    between atoms: C_4  and  C_13
    4  A    between atoms: C_7  and  C_30
    5  A    between atoms: C_8  and  N_12
    6  A    between atoms: C_8  and  C_13
    7  A    between atoms: N_9  and  N_12
    8  A    between atoms: N_9  and  C_21
    9  A    between atoms: C_10  and  C_25
   10  A    between atoms: N_11  and  C_25
   11  A    between atoms: C_13  and  C_30
                            x       y       z     vdW  Elec       q    Type
                         _______ _______ _______ _____ _____    ______ ____

>  <TORSDO>
F 11

$$$$
=
 OpenBabel11052421523D

 30 32  0  0  1  0  0  0  0  0999 V2000
  161.4900  209.1730  152.7730 C   0  0  1  0  0  3  0  0  0  0  0  0
  160.8170  208.0800  151.9580 C   0  0  1  0  0  3  0  0  0  0  0  0
  161.4640  208.1120  150.5870 C   0  0  0  0  0  2  0  0  0  0  0  0
  162.3780  209.9620  151.8240 C   0  0  0  0  0  2  0  0  0  0  0  0
  161.9980  209.5170  150.4280 C   0  0  0  0  0  2  0  0  0  0  0  0
  159.5780  210.5790  152.7640 O   0  0  0  0  0  0  0  0  0  0  0  0
  160.4690  210.0610  153.4260 C   0  0  0  0  0  0  0  0  0  0  0  0
  160.5910  210.3410  154.8930 C   0  0  2  0  0  3  0  0  0  0  0  0
  161.9880  208.9260  156.2420 O   0  0  0  0  0  0  0  0  0  0  0  0
  160.8690  209.0990  155.6870 C   0  0  0  0  0  0  0  0  0  0  0  0
  159.8530  208.1120  155.8270 N   0  0  0  0  0  1  0  0  0  0  0  0
  159.3550  211.0820  155.4000 C   0  0  0  0  0  2  0  0  0  0  0  0
  160.3440  212.7860  156.7340 C   0  0  0  0  0  1  0  0  0  0  0  0
  159.6090  212.5220  155.5020 N   0  0  0  0  0  0  0  0  0  0  0  0
  158.3950  213.2550  155.4940 N   0  0  0  0  0  2  0  0  0  0  0  0
  156.7930  213.3760  153.6690 C   0  0  0  0  0  2  0  0  0  0  0  0
  156.0230  213.2910  154.9680 C   0  0  0  0  0  2  0  0  0  0  0  0
  157.3210  212.5280  154.8070 C   0  0  0  0  0  3  0  0  0  0  0  0
  161.0470  206.7320  152.6250 C   0  0  0  0  0  2  0  0  0  0  0  0
  161.8070  205.8530  151.7450 N   0  0  0  0  0  0  0  0  0  0  0  0
  163.0390  205.7300  152.2920 O   0  0  0  0  0  1  0  0  0  0  0  0
  161.1970  204.5320  151.8050 C   0  0  0  0  0  2  0  0  0  0  0  0
  160.9080  202.2600  147.8360 C   0  0  0  0  0  0  0  0  0  0  0  0
  161.8160  203.4190  147.5870 C   0  0  0  0  0  2  0  0  0  0  0  0
  160.5720  201.4640  146.7940 F   0  0  0  0  0  0  0  0  0  0  0  0
  161.0120  203.9700  150.4330 C   0  0  0  0  0  0  0  0  0  0  0  0
  161.2110  204.7010  148.0500 C   0  0  0  0  0  3  0  0  0  0  0  0
  160.5340  201.8980  149.0670 C   0  0  0  0  0  3  0  0  0  0  0  0
  160.8980  204.9390  149.3230 C   0  0  0  0  0  3  0  0  0  0  0  0
  160.8070  202.6480  150.3100 C   0  0  0  0  0  3  0  0  0  0  0  0
  1  7  1  6  0  0  0
  2 19  1  1  0  0  0
  2  1  1  0  0  0  0
  3  2  1  0  0  0  0
  4  1  1  0  0  0  0
  5  3  1  0  0  0  0
  5  4  1  0  0  0  0
  6  7  2  0  0  0  0
  7  8  1  0  0  0  0
  8 12  1  1  0  0  0
  8 10  1  0  0  0  0
 10 11  1  0  0  0  0
 10  9  2  0  0  0  0
 12 14  1  0  0  0  0
 14 13  1  0  0  0  0
 15 14  1  0  0  0  0
 16 18  1  0  0  0  0
 16 17  1  0  0  0  0
 18 17  1  0  0  0  0
 18 15  1  0  0  0  0
 20 22  1  0  0  0  0
 20 21  1  0  0  0  0
 20 19  1  0  0  0  0
 23 28  2  0  0  0  0
 24 23  1  0  0  0  0
 24 27  1  0  0  0  0
 25 23  1  0  0  0  0
 26 22  1  0  0  0  0
 27 29  2  0  0  0  0
 28 30  1  0  0  0  0
 29 26  1  0  0  0  0
 30 26  2  0  0  0  0
M  END
>  <MODEL>
7

>  <REMARK>
 VINA RESULT:      -7.2      2.514      3.919
  Name = 
  11 active torsions:
  status: ('A' for Active; 'I' for Inactive)
    1  A    between atoms: C_3  and  N_11
    2  A    between atoms: C_3  and  C_19
    3  A    between atoms: C_4  and  C_13
    4  A    between atoms: C_7  and  C_30
    5  A    between atoms: C_8  and  N_12
    6  A    between atoms: C_8  and  C_13
    7  A    between atoms: N_9  and  N_12
    8  A    between atoms: N_9  and  C_21
    9  A    between atoms: C_10  and  C_25
   10  A    between atoms: N_11  and  C_25
   11  A    between atoms: C_13  and  C_30
                            x       y       z     vdW  Elec       q    Type
                         _______ _______ _______ _____ _____    ______ ____

>  <TORSDO>
F 11

$$$$
=
 OpenBabel11052421523D

 30 32  0  0  1  0  0  0  0  0999 V2000
  160.9230  206.5260  151.6090 C   0  0  1  0  0  3  0  0  0  0  0  0
  161.3610  205.0710  151.6690 C   0  0  1  0  0  3  0  0  0  0  0  0
  161.2060  204.6400  153.1150 C   0  0  0  0  0  2  0  0  0  0  0  0
  160.7040  206.9910  153.0400 C   0  0  0  0  0  2  0  0  0  0  0  0
  161.2910  205.9130  153.9250 C   0  0  0  0  0  2  0  0  0  0  0  0
  163.0920  206.9470  150.7430 O   0  0  0  0  0  0  0  0  0  0  0  0
  161.9540  207.3690  150.9160 C   0  0  0  0  0  0  0  0  0  0  0  0
  161.5800  208.7540  150.4820 C   0  0  2  0  0  3  0  0  0  0  0  0
  161.8170  208.0880  148.1850 O   0  0  0  0  0  0  0  0  0  0  0  0
  161.9140  209.0080  149.0420 C   0  0  0  0  0  0  0  0  0  0  0  0
  162.3310  210.3070  148.6360 N   0  0  0  0  0  1  0  0  0  0  0  0
  162.2080  209.7930  151.4090 C   0  0  0  0  0  2  0  0  0  0  0  0
  160.6290  211.4300  152.1070 C   0  0  0  0  0  1  0  0  0  0  0  0
  161.2790  210.1770  152.4760 N   0  0  0  0  0  0  0  0  0  0  0  0
  161.9570  210.3280  153.7120 N   0  0  0  0  0  2  0  0  0  0  0  0
  161.6320  210.5730  156.1090 C   0  0  0  0  0  2  0  0  0  0  0  0
  160.4380  209.8360  155.5440 C   0  0  0  0  0  2  0  0  0  0  0  0
  161.1000  210.9330  154.7380 C   0  0  0  0  0  3  0  0  0  0  0  0
  160.4720  204.2320  150.7630 C   0  0  0  0  0  2  0  0  0  0  0  0
  161.2280  203.1240  150.1960 N   0  0  0  0  0  0  0  0  0  0  0  0
  161.2030  202.1280  151.1120 O   0  0  0  0  0  1  0  0  0  0  0  0
  160.4930  202.6340  149.0370 C   0  0  0  0  0  2  0  0  0  0  0  0
  162.0520  205.0350  145.4610 C   0  0  0  0  0  0  0  0  0  0  0  0
  160.8310  204.3210  144.9820 C   0  0  0  0  0  2  0  0  0  0  0  0
  162.7730  205.7540  144.5690 F   0  0  0  0  0  0  0  0  0  0  0  0
  161.0320  203.2260  147.7760 C   0  0  0  0  0  0  0  0  0  0  0  0
  160.8820  202.8660  145.3060 C   0  0  0  0  0  3  0  0  0  0  0  0
  162.3760  205.1060  146.7550 C   0  0  0  0  0  3  0  0  0  0  0  0
  160.9320  202.4010  146.5540 C   0  0  0  0  0  3  0  0  0  0  0  0
  161.7050  204.3850  147.8560 C   0  0  0  0  0  3  0  0  0  0  0  0
  1  7  1  1  0  0  0
  1  2  1  0  0  0  0
  1  4  1  0  0  0  0
  2 19  1  6  0  0  0
  2  3  1  0  0  0  0
  3  5  1  0  0  0  0
  4  5  1  0  0  0  0
  6  7  2  0  0  0  0
  8  7  1  0  0  0  0
  8 12  1  1  0  0  0
  9 10  2  0  0  0  0
 10  8  1  0  0  0  0
 11 10  1  0  0  0  0
 12 14  1  0  0  0  0
 13 14  1  0  0  0  0
 14 15  1  0  0  0  0
 15 18  1  0  0  0  0
 17 16  1  0  0  0  0
 18 17  1  0  0  0  0
 18 16  1  0  0  0  0
 20 19  1  0  0  0  0
 20 21  1  0  0  0  0
 22 20  1  0  0  0  0
 23 28  2  0  0  0  0
 24 27  1  0  0  0  0
 24 23  1  0  0  0  0
 25 23  1  0  0  0  0
 26 30  2  0  0  0  0
 26 22  1  0  0  0  0
 27 29  2  0  0  0  0
 28 30  1  0  0  0  0
 29 26  1  0  0  0  0
M  END
>  <MODEL>
8

>  <REMARK>
 VINA RESULT:      -7.2      2.391      3.693
  Name = 
  11 active torsions:
  status: ('A' for Active; 'I' for Inactive)
    1  A    between atoms: C_3  and  N_11
    2  A    between atoms: C_3  and  C_19
    3  A    between atoms: C_4  and  C_13
    4  A    between atoms: C_7  and  C_30
    5  A    between atoms: C_8  and  N_12
    6  A    between atoms: C_8  and  C_13
    7  A    between atoms: N_9  and  N_12
    8  A    between atoms: N_9  and  C_21
    9  A    between atoms: C_10  and  C_25
   10  A    between atoms: N_11  and  C_25
   11  A    between atoms: C_13  and  C_30
                            x       y       z     vdW  Elec       q    Type
                         _______ _______ _______ _____ _____    ______ ____

>  <TORSDO>
F 11

$$$$
=
 OpenBabel11052421523D

 30 32  0  0  1  0  0  0  0  0999 V2000
  160.9810  208.3560  152.0500 C   0  0  1  0  0  3  0  0  0  0  0  0
  161.7060  207.5890  150.9560 C   0  0  1  0  0  3  0  0  0  0  0  0
  161.9630  206.2010  151.5080 C   0  0  0  0  0  2  0  0  0  0  0  0
  160.9930  207.4850  153.2960 C   0  0  0  0  0  2  0  0  0  0  0  0
  161.9660  206.3610  153.0120 C   0  0  0  0  0  2  0  0  0  0  0  0
  162.7510  209.9240  151.8440 O   0  0  0  0  0  0  0  0  0  0  0  0
  161.6420  209.6800  152.3060 C   0  0  0  0  0  0  0  0  0  0  0  0
  160.9430  210.6780  153.1780 C   0  0  2  0  0  3  0  0  0  0  0  0
  162.3350  210.6120  155.1360 O   0  0  0  0  0  0  0  0  0  0  0  0
  161.1910  210.4310  154.6370 C   0  0  0  0  0  0  0  0  0  0  0  0
  160.1190  210.0010  155.4690 N   0  0  0  0  0  1  0  0  0  0  0  0
  159.4520  210.7250  152.8500 C   0  0  0  0  0  2  0  0  0  0  0  0
  157.7750  212.1140  153.8060 C   0  0  0  0  0  1  0  0  0  0  0  0
  158.9380  212.0950  152.9260 N   0  0  0  0  0  0  0  0  0  0  0  0
  158.5820  212.5790  151.6410 N   0  0  0  0  0  2  0  0  0  0  0  0
  158.5960  214.4230  150.0580 C   0  0  0  0  0  2  0  0  0  0  0  0
  160.0300  214.0750  150.3880 C   0  0  0  0  0  2  0  0  0  0  0  0
  158.9640  213.9840  151.4590 C   0  0  0  0  0  3  0  0  0  0  0  0
  160.8270  207.5160  149.7160 C   0  0  0  0  0  2  0  0  0  0  0  0
  161.5710  207.9510  148.5410 N   0  0  0  0  0  0  0  0  0  0  0  0
  162.3260  209.0050  148.9290 O   0  0  0  0  0  1  0  0  0  0  0  0
  162.5010  206.8870  148.1870 C   0  0  0  0  0  2  0  0  0  0  0  0
  161.0750  203.5080  145.4410 C   0  0  0  0  0  0  0  0  0  0  0  0
  161.1830  204.7250  144.5820 C   0  0  0  0  0  2  0  0  0  0  0  0
  160.5800  202.3720  144.8950 F   0  0  0  0  0  0  0  0  0  0  0  0
  161.8560  205.9020  147.2670 C   0  0  0  0  0  0  0  0  0  0  0  0
  160.4720  205.8890  145.1850 C   0  0  0  0  0  3  0  0  0  0  0  0
  161.5780  203.4610  146.6780 C   0  0  0  0  0  3  0  0  0  0  0  0
  160.8120  206.4200  146.3590 C   0  0  0  0  0  3  0  0  0  0  0  0
  162.1480  204.6010  147.4240 C   0  0  0  0  0  3  0  0  0  0  0  0
  1  7  1  1  0  0  0
  1  4  1  0  0  0  0
  2 19  1  6  0  0  0
  2  3  1  0  0  0  0
  2  1  1  0  0  0  0
  3  5  1  0  0  0  0
  5  4  1  0  0  0  0
  6  7  2  0  0  0  0
  7  8  1  0  0  0  0
  8 12  1  1  0  0  0
  8 10  1  0  0  0  0
 10  9  2  0  0  0  0
 10 11  1  0  0  0  0
 12 14  1  0  0  0  0
 14 13  1  0  0  0  0
 15 14  1  0  0  0  0
 16 17  1  0  0  0  0
 16 18  1  0  0  0  0
 17 18  1  0  0  0  0
 18 15  1  0  0  0  0
 20 21  1  0  0  0  0
 20 19  1  0  0  0  0
 22 20  1  0  0  0  0
 23 28  2  0  0  0  0
 24 27  1  0  0  0  0
 24 23  1  0  0  0  0
 25 23  1  0  0  0  0
 26 30  2  0  0  0  0
 26 22  1  0  0  0  0
 27 29  2  0  0  0  0
 28 30  1  0  0  0  0
 29 26  1  0  0  0  0
M  END
>  <MODEL>
9

>  <REMARK>
 VINA RESULT:      -7.1      1.756      3.576
  Name = 
  11 active torsions:
  status: ('A' for Active; 'I' for Inactive)
    1  A    between atoms: C_3  and  N_11
    2  A    between atoms: C_3  and  C_19
    3  A    between atoms: C_4  and  C_13
    4  A    between atoms: C_7  and  C_30
    5  A    between atoms: C_8  and  N_12
    6  A    between atoms: C_8  and  C_13
    7  A    between atoms: N_9  and  N_12
    8  A    between atoms: N_9  and  C_21
    9  A    between atoms: C_10  and  C_25
   10  A    between atoms: N_11  and  C_25
   11  A    between atoms: C_13  and  C_30
                            x       y       z     vdW  Elec       q    Type
                         _______ _______ _______ _____ _____    ______ ____

>  <TORSDO>
F 11

$$$$
