=
 OpenBabel11062409373D

 34 39  0  0  0  0  0  0  0  0999 V2000
  161.6190  207.0000  150.2600 C   0  0  0  0  0  0  0  0  0  0  0  0
  161.3860  203.9750  148.2670 C   0  0  0  0  0  2  0  0  0  0  0  0
  161.1360  204.8340  150.5920 C   0  0  0  0  0  0  0  0  0  0  0  0
  161.7940  208.5760  152.1370 N   0  0  0  0  0  0  0  0  0  0  0  0
  161.8190  208.4350  150.6660 C   0  0  0  0  0  2  0  0  0  0  0  0
  161.3040  206.2480  152.5170 C   0  0  0  0  0  0  0  0  0  0  0  0
  161.0340  205.1640  153.3000 N   0  0  0  0  0  0  0  0  0  0  0  0
  161.5170  207.4660  153.0220 C   0  0  0  0  0  3  0  0  0  0  0  0
  160.8720  203.7400  151.4090 C   0  0  0  0  0  3  0  0  0  0  0  0
  161.3610  206.0600  151.1490 C   0  0  0  0  0  0  0  0  0  0  0  0
  160.8280  203.9510  152.7610 N   0  0  0  0  0  0  0  0  0  0  0  0
  161.8700  204.2050  146.8710 C   0  0  0  0  0  2  0  0  0  0  0  0
  161.0900  205.2270  146.1020 C   0  0  0  0  0  0  0  0  0  0  0  0
  160.9760  206.5070  146.4900 C   0  0  0  0  0  3  0  0  0  0  0  0
  161.2850  204.9680  149.1460 C   0  0  0  0  0  0  0  0  0  0  0  0
  161.3670  207.0880  147.7890 C   0  0  0  0  0  2  0  0  0  0  0  0
  161.5380  206.4010  148.9220 C   0  0  0  0  0  0  0  0  0  0  0  0
  160.5760  204.8200  144.7590 C   0  0  0  0  0  3  0  0  0  0  0  0
  161.4230  205.2890  143.7540 O   0  0  0  0  0  1  0  0  0  0  0  0
  160.4700  203.4310  144.6760 O   0  0  0  0  0  1  0  0  0  0  0  0
  162.0920  209.8750  152.7170 C   0  0  0  0  0  2  0  0  0  0  0  0
  159.3250  212.3810  152.0650 C   0  0  0  0  0  3  0  0  0  0  0  0
  160.0410  210.4940  154.0130 C   0  0  0  0  0  3  0  0  0  0  0  0
  156.5560  212.7980  154.4930 C   0  0  0  0  0  0  0  0  0  0  0  0
  157.3620  212.9710  153.3580 C   0  0  0  0  0  3  0  0  0  0  0  0
  158.5200  212.2060  153.1940 C   0  0  0  0  0  0  0  0  0  0  0  0
  158.0800  211.0860  155.3060 C   0  0  0  0  0  3  0  0  0  0  0  0
  158.8820  211.2560  154.1760 C   0  0  0  0  0  0  0  0  0  0  0  0
  156.9220  211.8530  155.4640 C   0  0  0  0  0  3  0  0  0  0  0  0
  160.8390  210.6670  152.8760 C   0  0  0  0  0  0  0  0  0  0  0  0
  160.4830  211.6140  151.9070 C   0  0  0  0  0  3  0  0  0  0  0  0
  155.3370  213.6060  154.6590 C   0  0  0  0  0  0  0  0  0  0  0  0
  154.9580  213.9590  155.8080 O   0  0  0  0  0  1  0  0  0  0  0  0
  154.5910  213.9860  153.5500 O   0  0  0  0  0  0  0  0  0  0  0  0
  1  5  1  0  0  0  0
  1 10  2  0  0  0  0
  2 15  1  0  0  0  0
  3 10  1  0  0  0  0
  3  9  2  0  0  0  0
  4 21  1  0  0  0  0
  4  8  1  0  0  0  0
  5  4  1  0  0  0  0
  6  8  2  0  0  0  0
  6  7  1  0  0  0  0
  9 11  1  0  0  0  0
 10  6  1  0  0  0  0
 11  7  2  0  0  0  0
 12  2  1  0  0  0  0
 13 14  2  0  0  0  0
 13 12  1  0  0  0  0
 14 16  1  0  0  0  0
 15  3  1  0  0  0  0
 16 17  1  0  0  0  0
 17 15  2  0  0  0  0
 17  1  1  0  0  0  0
 18 13  1  0  0  0  0
 19 18  1  0  0  0  0
 20 18  1  0  0  0  0
 21 30  1  0  0  0  0
 22 26  1  0  0  0  0
 23 28  1  0  0  0  0
 24 32  1  0  0  0  0
 24 29  1  0  0  0  0
 25 24  2  0  0  0  0
 26 25  1  0  0  0  0
 26 28  2  0  0  0  0
 27 29  2  0  0  0  0
 28 27  1  0  0  0  0
 30 23  2  0  0  0  0
 31 22  2  0  0  0  0
 31 30  1  0  0  0  0
 32 33  1  0  0  0  0
 34 32  2  0  0  0  0
M  END
>  <MODEL>
1

>  <REMARK>
 VINA RESULT:     -10.6      0.000      0.000
  Name = 
  4 active torsions:
  status: ('A' for Active; 'I' for Inactive)
    1  A    between atoms: C_3  and  C_25
    2  A    between atoms: C_7  and  C_11
    3  A    between atoms: N_8  and  C_18
    4  A    between atoms: C_18  and  C_30
                            x       y       z     vdW  Elec       q    Type
                         _______ _______ _______ _____ _____    ______ ____

>  <TORSDO>
F 4

$$$$
=
 OpenBabel11062409373D

 34 39  0  0  0  0  0  0  0  0999 V2000
  161.2280  206.8030  151.8480 C   0  0  0  0  0  0  0  0  0  0  0  0
  160.9060  204.6770  148.9230 C   0  0  0  0  0  2  0  0  0  0  0  0
  161.5880  206.9630  149.6380 C   0  0  0  0  0  0  0  0  0  0  0  0
  161.4760  208.7450  153.3310 N   0  0  0  0  0  0  0  0  0  0  0  0
  161.2080  207.2930  153.2690 C   0  0  0  0  0  2  0  0  0  0  0  0
  161.8380  208.9460  150.9570 C   0  0  0  0  0  0  0  0  0  0  0  0
  162.1430  209.6310  149.8170 N   0  0  0  0  0  0  0  0  0  0  0  0
  161.8030  209.5280  152.1590 C   0  0  0  0  0  3  0  0  0  0  0  0
  161.8910  207.6820  148.4860 C   0  0  0  0  0  3  0  0  0  0  0  0
  161.5500  207.6000  150.8460 C   0  0  0  0  0  0  0  0  0  0  0  0
  162.1660  209.0170  148.6230 N   0  0  0  0  0  0  0  0  0  0  0  0
  160.2260  203.3880  149.2590 C   0  0  0  0  0  2  0  0  0  0  0  0
  160.9510  202.5460  150.2630 C   0  0  0  0  0  0  0  0  0  0  0  0
  161.2250  202.9610  151.5090 C   0  0  0  0  0  3  0  0  0  0  0  0
  161.2220  205.5680  149.8580 C   0  0  0  0  0  0  0  0  0  0  0  0
  161.0920  204.3300  152.0470 C   0  0  0  0  0  2  0  0  0  0  0  0
  161.0490  205.4460  151.3150 C   0  0  0  0  0  0  0  0  0  0  0  0
  161.2120  201.1210  149.8910 C   0  0  0  0  0  3  0  0  0  0  0  0
  160.1630  200.3090  150.3230 O   0  0  0  0  0  1  0  0  0  0  0  0
  161.3690  200.9960  148.5100 O   0  0  0  0  0  1  0  0  0  0  0  0
  161.3770  209.4190  154.6150 C   0  0  0  0  0  2  0  0  0  0  0  0
  158.0030  210.7050  155.7650 C   0  0  0  0  0  3  0  0  0  0  0  0
  159.8370  211.1650  153.6930 C   0  0  0  0  0  3  0  0  0  0  0  0
  156.2430  213.3420  153.8450 C   0  0  0  0  0  0  0  0  0  0  0  0
  156.5270  212.3850  154.8300 C   0  0  0  0  0  3  0  0  0  0  0  0
  157.7210  211.6600  154.7840 C   0  0  0  0  0  0  0  0  0  0  0  0
  158.3610  212.8420  152.7580 C   0  0  0  0  0  3  0  0  0  0  0  0
  158.6450  211.8910  153.7400 C   0  0  0  0  0  0  0  0  0  0  0  0
  157.1640  213.5640  152.8110 C   0  0  0  0  0  3  0  0  0  0  0  0
  160.1180  210.2150  154.6830 C   0  0  0  0  0  0  0  0  0  0  0  0
  159.1980  209.9820  155.7130 C   0  0  0  0  0  3  0  0  0  0  0  0
  154.9840  214.1010  153.8990 C   0  0  0  0  0  0  0  0  0  0  0  0
  154.4020  214.4490  152.8360 O   0  0  0  0  0  0  0  0  0  0  0  0
  154.4240  214.4450  155.1240 O   0  0  0  0  0  1  0  0  0  0  0  0
  1  5  1  0  0  0  0
  2 12  1  0  0  0  0
  2 15  1  0  0  0  0
  3 15  1  0  0  0  0
  3 10  1  0  0  0  0
  4 21  1  0  0  0  0
  5  4  1  0  0  0  0
  6  8  2  0  0  0  0
  7  6  1  0  0  0  0
  8  4  1  0  0  0  0
  9 11  1  0  0  0  0
  9  3  2  0  0  0  0
 10  6  1  0  0  0  0
 10  1  2  0  0  0  0
 11  7  2  0  0  0  0
 12 13  1  0  0  0  0
 13 14  2  0  0  0  0
 14 16  1  0  0  0  0
 15 17  2  0  0  0  0
 17  1  1  0  0  0  0
 17 16  1  0  0  0  0
 18 13  1  0  0  0  0
 18 19  1  0  0  0  0
 20 18  1  0  0  0  0
 21 30  1  0  0  0  0
 23 28  2  0  0  0  0
 23 30  1  0  0  0  0
 24 32  1  0  0  0  0
 24 25  2  0  0  0  0
 26 25  1  0  0  0  0
 26 22  2  0  0  0  0
 27 29  2  0  0  0  0
 27 28  1  0  0  0  0
 28 26  1  0  0  0  0
 29 24  1  0  0  0  0
 30 31  2  0  0  0  0
 31 22  1  0  0  0  0
 32 34  1  0  0  0  0
 33 32  2  0  0  0  0
M  END
>  <MODEL>
2

>  <REMARK>
 VINA RESULT:      -9.5      2.167      3.691
  Name = 
  4 active torsions:
  status: ('A' for Active; 'I' for Inactive)
    1  A    between atoms: C_3  and  C_25
    2  A    between atoms: C_7  and  C_11
    3  A    between atoms: N_8  and  C_18
    4  A    between atoms: C_18  and  C_30
                            x       y       z     vdW  Elec       q    Type
                         _______ _______ _______ _____ _____    ______ ____

>  <TORSDO>
F 4

$$$$
=
 OpenBabel11062409373D

 34 39  0  0  0  0  0  0  0  0999 V2000
  161.6240  206.4550  149.5190 C   0  0  0  0  0  0  0  0  0  0  0  0
  161.2860  203.0640  148.2690 C   0  0  0  0  0  2  0  0  0  0  0  0
  161.1080  204.4310  150.3420 C   0  0  0  0  0  0  0  0  0  0  0  0
  161.8730  208.4090  150.9850 N   0  0  0  0  0  0  0  0  0  0  0  0
  161.8600  207.9380  149.5840 C   0  0  0  0  0  2  0  0  0  0  0  0
  161.3490  206.2400  151.8930 C   0  0  0  0  0  0  0  0  0  0  0  0
  161.0780  205.3680  152.9060 N   0  0  0  0  0  0  0  0  0  0  0  0
  161.5960  207.5350  152.1050 C   0  0  0  0  0  3  0  0  0  0  0  0
  160.8440  203.5570  151.3920 C   0  0  0  0  0  3  0  0  0  0  0  0
  161.3690  205.7460  150.6030 C   0  0  0  0  0  0  0  0  0  0  0  0
  160.8350  204.0700  152.6610 N   0  0  0  0  0  0  0  0  0  0  0  0
  161.7400  202.9590  146.8480 C   0  0  0  0  0  2  0  0  0  0  0  0
  160.9620  203.7990  145.8830 C   0  0  0  0  0  0  0  0  0  0  0  0
  160.8810  205.1360  145.9720 C   0  0  0  0  0  3  0  0  0  0  0  0
  161.2250  204.2310  148.9020 C   0  0  0  0  0  0  0  0  0  0  0  0
  161.3140  205.9870  147.0980 C   0  0  0  0  0  2  0  0  0  0  0  0
  161.4990  205.5700  148.3540 C   0  0  0  0  0  0  0  0  0  0  0  0
  160.4080  203.1110  144.6770 C   0  0  0  0  0  3  0  0  0  0  0  0
  160.0300  201.8060  144.9950 O   0  0  0  0  0  1  0  0  0  0  0  0
  159.3110  203.8110  144.1730 O   0  0  0  0  0  1  0  0  0  0  0  0
  162.2090  209.7990  151.2510 C   0  0  0  0  0  2  0  0  0  0  0  0
  161.1630  210.6970  154.7800 C   0  0  0  0  0  3  0  0  0  0  0  0
  160.1210  210.8230  152.1790 C   0  0  0  0  0  3  0  0  0  0  0  0
  157.8320  212.1860  155.4320 C   0  0  0  0  0  0  0  0  0  0  0  0
  159.1170  211.6680  155.6450 C   0  0  0  0  0  3  0  0  0  0  0  0
  159.8830  211.2160  154.5670 C   0  0  0  0  0  0  0  0  0  0  0  0
  158.0770  211.7910  153.0440 C   0  0  0  0  0  3  0  0  0  0  0  0
  159.3570  211.2780  153.2560 C   0  0  0  0  0  0  0  0  0  0  0  0
  157.3170  212.2430  154.1280 C   0  0  0  0  0  3  0  0  0  0  0  0
  161.4060  210.3120  152.3970 C   0  0  0  0  0  0  0  0  0  0  0  0
  161.9220  210.2440  153.6980 C   0  0  0  0  0  3  0  0  0  0  0  0
  157.0320  212.6610  156.5720 C   0  0  0  0  0  0  0  0  0  0  0  0
  157.0910  213.8670  156.9350 O   0  0  0  0  0  0  0  0  0  0  0  0
  156.2020  211.7840  157.2610 O   0  0  0  0  0  1  0  0  0  0  0  0
  1  5  1  0  0  0  0
  1 10  2  0  0  0  0
  2 15  1  0  0  0  0
  3 10  1  0  0  0  0
  3  9  2  0  0  0  0
  4 21  1  0  0  0  0
  4  8  1  0  0  0  0
  5  4  1  0  0  0  0
  6  8  2  0  0  0  0
  6  7  1  0  0  0  0
  9 11  1  0  0  0  0
 10  6  1  0  0  0  0
 11  7  2  0  0  0  0
 12  2  1  0  0  0  0
 13 14  2  0  0  0  0
 13 12  1  0  0  0  0
 14 16  1  0  0  0  0
 15  3  1  0  0  0  0
 16 17  1  0  0  0  0
 17 15  2  0  0  0  0
 17  1  1  0  0  0  0
 18 19  1  0  0  0  0
 18 13  1  0  0  0  0
 20 18  1  0  0  0  0
 21 30  1  0  0  0  0
 23 30  2  0  0  0  0
 23 28  1  0  0  0  0
 24 25  1  0  0  0  0
 24 32  1  0  0  0  0
 26 22  1  0  0  0  0
 26 25  2  0  0  0  0
 27 28  2  0  0  0  0
 27 29  1  0  0  0  0
 28 26  1  0  0  0  0
 29 24  2  0  0  0  0
 30 31  1  0  0  0  0
 31 22  2  0  0  0  0
 32 33  2  0  0  0  0
 32 34  1  0  0  0  0
M  END
>  <MODEL>
3

>  <REMARK>
 VINA RESULT:      -9.5      1.358      1.909
  Name = 
  4 active torsions:
  status: ('A' for Active; 'I' for Inactive)
    1  A    between atoms: C_3  and  C_25
    2  A    between atoms: C_7  and  C_11
    3  A    between atoms: N_8  and  C_18
    4  A    between atoms: C_18  and  C_30
                            x       y       z     vdW  Elec       q    Type
                         _______ _______ _______ _____ _____    ______ ____

>  <TORSDO>
F 4

$$$$
=
 OpenBabel11062409373D

 34 39  0  0  0  0  0  0  0  0999 V2000
  159.6510  210.6700  153.5800 C   0  0  0  0  0  0  0  0  0  0  0  0
  157.1370  211.3790  156.1010 C   0  0  0  0  0  2  0  0  0  0  0  0
  159.3450  210.2760  155.7680 C   0  0  0  0  0  0  0  0  0  0  0  0
  161.5620  209.7230  152.3620 N   0  0  0  0  0  0  0  0  0  0  0  0
  160.3890  210.6170  152.2710 C   0  0  0  0  0  2  0  0  0  0  0  0
  161.2360  209.2630  154.7040 C   0  0  0  0  0  0  0  0  0  0  0  0
  161.5630  208.6880  155.8980 N   0  0  0  0  0  0  0  0  0  0  0  0
  161.9600  209.0820  153.5970 C   0  0  0  0  0  3  0  0  0  0  0  0
  159.6900  209.6720  156.9730 C   0  0  0  0  0  3  0  0  0  0  0  0
  160.1050  210.0550  154.6550 C   0  0  0  0  0  0  0  0  0  0  0  0
  160.8110  208.8870  156.9940 N   0  0  0  0  0  0  0  0  0  0  0  0
  155.9110  211.9820  155.4930 C   0  0  0  0  0  2  0  0  0  0  0  0
  156.1390  213.2930  154.8040 C   0  0  0  0  0  0  0  0  0  0  0  0
  156.9750  213.4410  153.7650 C   0  0  0  0  0  3  0  0  0  0  0  0
  158.2270  211.1300  155.3810 C   0  0  0  0  0  0  0  0  0  0  0  0
  157.9610  212.4640  153.2610 C   0  0  0  0  0  2  0  0  0  0  0  0
  158.4620  211.4430  153.9610 C   0  0  0  0  0  0  0  0  0  0  0  0
  155.2520  214.4300  155.1980 C   0  0  0  0  0  3  0  0  0  0  0  0
  154.1100  214.4530  154.3960 O   0  0  0  0  0  1  0  0  0  0  0  0
  154.8840  214.3220  156.5400 O   0  0  0  0  0  1  0  0  0  0  0  0
  162.3280  209.4530  151.1560 C   0  0  0  0  0  2  0  0  0  0  0  0
  161.2500  206.7260  148.7560 C   0  0  0  0  0  3  0  0  0  0  0  0
  161.9630  206.9940  151.4550 C   0  0  0  0  0  3  0  0  0  0  0  0
  160.8760  203.2300  149.9280 C   0  0  0  0  0  0  0  0  0  0  0  0
  160.8830  204.3530  149.0890 C   0  0  0  0  0  3  0  0  0  0  0  0
  161.2450  205.6060  149.5920 C   0  0  0  0  0  0  0  0  0  0  0  0
  161.5930  204.6230  151.7890 C   0  0  0  0  0  3  0  0  0  0  0  0
  161.6030  205.7410  150.9520 C   0  0  0  0  0  0  0  0  0  0  0  0
  161.2310  203.3720  151.2780 C   0  0  0  0  0  3  0  0  0  0  0  0
  161.9740  208.1110  150.6120 C   0  0  0  0  0  0  0  0  0  0  0  0
  161.6120  207.9760  149.2650 C   0  0  0  0  0  3  0  0  0  0  0  0
  160.4940  201.9140  149.3920 C   0  0  0  0  0  0  0  0  0  0  0  0
  160.2190  200.9620  150.1720 O   0  0  0  0  0  1  0  0  0  0  0  0
  160.4330  201.7070  148.0190 O   0  0  0  0  0  0  0  0  0  0  0  0
  1 17  1  0  0  0  0
  1 10  2  0  0  0  0
  3  9  2  0  0  0  0
  4  8  1  0  0  0  0
  5  4  1  0  0  0  0
  5  1  1  0  0  0  0
  6  7  1  0  0  0  0
  7 11  2  0  0  0  0
  8  6  2  0  0  0  0
  9 11  1  0  0  0  0
 10  6  1  0  0  0  0
 10  3  1  0  0  0  0
 12  2  1  0  0  0  0
 13 18  1  0  0  0  0
 13 12  1  0  0  0  0
 14 13  2  0  0  0  0
 15  3  1  0  0  0  0
 15  2  1  0  0  0  0
 16 14  1  0  0  0  0
 16 17  1  0  0  0  0
 17 15  2  0  0  0  0
 18 20  1  0  0  0  0
 19 18  1  0  0  0  0
 21  4  1  0  0  0  0
 22 31  2  0  0  0  0
 22 26  1  0  0  0  0
 24 29  1  0  0  0  0
 25 26  1  0  0  0  0
 25 24  2  0  0  0  0
 26 28  2  0  0  0  0
 28 23  1  0  0  0  0
 28 27  1  0  0  0  0
 29 27  2  0  0  0  0
 30 21  1  0  0  0  0
 30 23  2  0  0  0  0
 31 30  1  0  0  0  0
 32 24  1  0  0  0  0
 32 33  1  0  0  0  0
 34 32  2  0  0  0  0
M  END
>  <MODEL>
4

>  <REMARK>
 VINA RESULT:      -9.3      2.185      9.569
  Name = 
  4 active torsions:
  status: ('A' for Active; 'I' for Inactive)
    1  A    between atoms: C_3  and  C_25
    2  A    between atoms: C_7  and  C_11
    3  A    between atoms: N_8  and  C_18
    4  A    between atoms: C_18  and  C_30
                            x       y       z     vdW  Elec       q    Type
                         _______ _______ _______ _____ _____    ______ ____

>  <TORSDO>
F 4

$$$$
=
 OpenBabel11062409373D

 34 39  0  0  0  0  0  0  0  0999 V2000
  161.1180  209.0340  151.9980 C   0  0  0  0  0  0  0  0  0  0  0  0
  160.4730  212.5090  151.1690 C   0  0  0  0  0  2  0  0  0  0  0  0
  160.5300  210.9120  153.0780 C   0  0  0  0  0  0  0  0  0  0  0  0
  161.2150  206.8680  153.1530 N   0  0  0  0  0  0  0  0  0  0  0  0
  161.4690  207.5770  151.8810 C   0  0  0  0  0  2  0  0  0  0  0  0
  160.5530  208.8670  154.3240 C   0  0  0  0  0  0  0  0  0  0  0  0
  160.1430  209.5650  155.4220 N   0  0  0  0  0  0  0  0  0  0  0  0
  160.7770  207.5510  154.3510 C   0  0  0  0  0  3  0  0  0  0  0  0
  160.1020  211.6030  154.2070 C   0  0  0  0  0  3  0  0  0  0  0  0
  160.7350  209.5630  153.1450 C   0  0  0  0  0  0  0  0  0  0  0  0
  159.9230  210.8890  155.3620 N   0  0  0  0  0  0  0  0  0  0  0  0
  160.4680  212.7240  149.6890 C   0  0  0  0  0  2  0  0  0  0  0  0
  161.7650  212.4050  149.0100 C   0  0  0  0  0  0  0  0  0  0  0  0
  162.3270  211.1870  149.0360 C   0  0  0  0  0  3  0  0  0  0  0  0
  160.7880  211.3350  151.7060 C   0  0  0  0  0  0  0  0  0  0  0  0
  161.9400  210.0390  149.8790 C   0  0  0  0  0  2  0  0  0  0  0  0
  161.2360  210.1150  151.0120 C   0  0  0  0  0  0  0  0  0  0  0  0
  162.3440  213.4610  148.1240 C   0  0  0  0  0  3  0  0  0  0  0  0
  162.8550  212.8890  146.9590 O   0  0  0  0  0  1  0  0  0  0  0  0
  161.3770  214.4120  147.7980 O   0  0  0  0  0  1  0  0  0  0  0  0
  161.3820  205.4250  153.1920 C   0  0  0  0  0  2  0  0  0  0  0  0
  161.2150  205.1970  149.4130 C   0  0  0  0  0  3  0  0  0  0  0  0
  161.2140  203.4770  151.6290 C   0  0  0  0  0  3  0  0  0  0  0  0
  160.9310  201.9020  147.7400 C   0  0  0  0  0  0  0  0  0  0  0  0
  161.0270  203.2880  147.9320 C   0  0  0  0  0  3  0  0  0  0  0  0
  161.1220  203.8160  149.2220 C   0  0  0  0  0  0  0  0  0  0  0  0
  161.0230  201.5700  150.1480 C   0  0  0  0  0  3  0  0  0  0  0  0
  161.1210  202.9490  150.3390 C   0  0  0  0  0  0  0  0  0  0  0  0
  160.9290  201.0490  148.8530 C   0  0  0  0  0  3  0  0  0  0  0  0
  161.3140  204.8610  151.8140 C   0  0  0  0  0  0  0  0  0  0  0  0
  161.3080  205.7190  150.7070 C   0  0  0  0  0  3  0  0  0  0  0  0
  160.8310  201.3530  146.3780 C   0  0  0  0  0  0  0  0  0  0  0  0
  160.4450  202.0800  145.4240 O   0  0  0  0  0  0  0  0  0  0  0  0
  161.1610  200.0250  146.1320 O   0  0  0  0  0  1  0  0  0  0  0  0
  1 10  2  0  0  0  0
  2 15  1  0  0  0  0
  3 10  1  0  0  0  0
  3  9  2  0  0  0  0
  4 21  1  0  0  0  0
  4  8  1  0  0  0  0
  5  1  1  0  0  0  0
  5  4  1  0  0  0  0
  6  8  2  0  0  0  0
  6  7  1  0  0  0  0
  9 11  1  0  0  0  0
 10  6  1  0  0  0  0
 11  7  2  0  0  0  0
 12  2  1  0  0  0  0
 13 14  2  0  0  0  0
 13 12  1  0  0  0  0
 14 16  1  0  0  0  0
 15  3  1  0  0  0  0
 16 17  1  0  0  0  0
 17 15  2  0  0  0  0
 17  1  1  0  0  0  0
 18 13  1  0  0  0  0
 19 18  1  0  0  0  0
 20 18  1  0  0  0  0
 22 31  1  0  0  0  0
 23 30  1  0  0  0  0
 24 25  2  0  0  0  0
 24 29  1  0  0  0  0
 25 26  1  0  0  0  0
 26 22  2  0  0  0  0
 26 28  1  0  0  0  0
 27 28  1  0  0  0  0
 28 23  2  0  0  0  0
 29 27  2  0  0  0  0
 30 21  1  0  0  0  0
 31 30  2  0  0  0  0
 32 24  1  0  0  0  0
 33 32  2  0  0  0  0
 34 32  1  0  0  0  0
M  END
>  <MODEL>
5

>  <REMARK>
 VINA RESULT:      -9.1      3.194      8.909
  Name = 
  4 active torsions:
  status: ('A' for Active; 'I' for Inactive)
    1  A    between atoms: C_3  and  C_25
    2  A    between atoms: C_7  and  C_11
    3  A    between atoms: N_8  and  C_18
    4  A    between atoms: C_18  and  C_30
                            x       y       z     vdW  Elec       q    Type
                         _______ _______ _______ _____ _____    ______ ____

>  <TORSDO>
F 4

$$$$
=
 OpenBabel11062409373D

 34 39  0  0  0  0  0  0  0  0999 V2000
  160.8670  209.4200  152.3610 C   0  0  0  0  0  0  0  0  0  0  0  0
  160.0840  212.8700  151.5460 C   0  0  0  0  0  2  0  0  0  0  0  0
  160.2270  211.2740  153.4520 C   0  0  0  0  0  0  0  0  0  0  0  0
  161.0600  207.2580  153.5110 N   0  0  0  0  0  0  0  0  0  0  0  0
  161.2690  207.9770  152.2360 C   0  0  0  0  0  2  0  0  0  0  0  0
  160.3430  209.2300  154.6950 C   0  0  0  0  0  0  0  0  0  0  0  0
  159.9240  209.9120  155.7990 N   0  0  0  0  0  0  0  0  0  0  0  0
  160.6150  207.9230  154.7160 C   0  0  0  0  0  3  0  0  0  0  0  0
  159.7910  211.9480  154.5880 C   0  0  0  0  0  3  0  0  0  0  0  0
  160.4820  209.9340  153.5140 C   0  0  0  0  0  0  0  0  0  0  0  0
  159.6550  211.2270  155.7440 N   0  0  0  0  0  0  0  0  0  0  0  0
  160.0500  213.0850  150.0660 C   0  0  0  0  0  2  0  0  0  0  0  0
  161.3470  212.8150  149.3680 C   0  0  0  0  0  0  0  0  0  0  0  0
  161.9540  211.6190  149.3840 C   0  0  0  0  0  3  0  0  0  0  0  0
  160.4490  211.7070  152.0770 C   0  0  0  0  0  0  0  0  0  0  0  0
  161.6210  210.4560  150.2310 C   0  0  0  0  0  2  0  0  0  0  0  0
  160.9310  210.5060  151.3740 C   0  0  0  0  0  0  0  0  0  0  0  0
  161.8750  213.8920  148.4760 C   0  0  0  0  0  3  0  0  0  0  0  0
  163.0780  213.4920  147.8940 O   0  0  0  0  0  1  0  0  0  0  0  0
  160.9470  214.2010  147.4800 O   0  0  0  0  0  1  0  0  0  0  0  0
  161.2810  205.8220  153.5460 C   0  0  0  0  0  2  0  0  0  0  0  0
  161.0370  203.3480  150.6850 C   0  0  0  0  0  3  0  0  0  0  0  0
  161.4170  206.1010  151.0610 C   0  0  0  0  0  3  0  0  0  0  0  0
  161.3760  204.4930  147.1760 C   0  0  0  0  0  0  0  0  0  0  0  0
  161.1990  203.6540  148.2860 C   0  0  0  0  0  3  0  0  0  0  0  0
  161.2110  204.1840  149.5790 C   0  0  0  0  0  0  0  0  0  0  0  0
  161.5820  206.4060  148.6640 C   0  0  0  0  0  3  0  0  0  0  0  0
  161.4030  205.5720  149.7690 C   0  0  0  0  0  0  0  0  0  0  0  0
  161.5670  205.8680  147.3730 C   0  0  0  0  0  3  0  0  0  0  0  0
  161.2350  205.2600  152.1650 C   0  0  0  0  0  0  0  0  0  0  0  0
  161.0520  203.8850  151.9760 C   0  0  0  0  0  3  0  0  0  0  0  0
  161.3620  203.9270  145.8180 C   0  0  0  0  0  0  0  0  0  0  0  0
  161.2030  202.6900  145.6430 O   0  0  0  0  0  1  0  0  0  0  0  0
  161.5260  204.7550  144.7130 O   0  0  0  0  0  0  0  0  0  0  0  0
  1 10  2  0  0  0  0
  2 15  1  0  0  0  0
  3 10  1  0  0  0  0
  3  9  2  0  0  0  0
  4 21  1  0  0  0  0
  4  8  1  0  0  0  0
  5  1  1  0  0  0  0
  5  4  1  0  0  0  0
  6  8  2  0  0  0  0
  6  7  1  0  0  0  0
  9 11  1  0  0  0  0
 10  6  1  0  0  0  0
 11  7  2  0  0  0  0
 12  2  1  0  0  0  0
 13 14  2  0  0  0  0
 13 12  1  0  0  0  0
 14 16  1  0  0  0  0
 15  3  1  0  0  0  0
 16 17  1  0  0  0  0
 17 15  2  0  0  0  0
 17  1  1  0  0  0  0
 18 13  1  0  0  0  0
 19 18  1  0  0  0  0
 20 18  1  0  0  0  0
 22 31  1  0  0  0  0
 23 30  1  0  0  0  0
 24 29  1  0  0  0  0
 24 25  2  0  0  0  0
 25 26  1  0  0  0  0
 26 28  1  0  0  0  0
 26 22  2  0  0  0  0
 27 28  1  0  0  0  0
 28 23  2  0  0  0  0
 29 27  2  0  0  0  0
 30 21  1  0  0  0  0
 31 30  2  0  0  0  0
 32 24  1  0  0  0  0
 33 32  1  0  0  0  0
 34 32  2  0  0  0  0
M  END
>  <MODEL>
6

>  <REMARK>
 VINA RESULT:      -9.1      2.910      8.579
  Name = 
  4 active torsions:
  status: ('A' for Active; 'I' for Inactive)
    1  A    between atoms: C_3  and  C_25
    2  A    between atoms: C_7  and  C_11
    3  A    between atoms: N_8  and  C_18
    4  A    between atoms: C_18  and  C_30
                            x       y       z     vdW  Elec       q    Type
                         _______ _______ _______ _____ _____    ______ ____

>  <TORSDO>
F 4

$$$$
=
 OpenBabel11062409373D

 34 39  0  0  0  0  0  0  0  0999 V2000
  161.7780  207.6670  150.7410 C   0  0  0  0  0  0  0  0  0  0  0  0
  161.1800  204.4020  152.2120 C   0  0  0  0  0  2  0  0  0  0  0  0
  161.1280  206.8390  152.7230 C   0  0  0  0  0  0  0  0  0  0  0  0
  162.1880  210.0680  150.4270 N   0  0  0  0  0  0  0  0  0  0  0  0
  162.1220  208.7520  149.7580 C   0  0  0  0  0  2  0  0  0  0  0  0
  161.5190  209.1960  152.5720 C   0  0  0  0  0  0  0  0  0  0  0  0
  161.1980  209.3050  153.8930 N   0  0  0  0  0  0  0  0  0  0  0  0
  161.8620  210.2500  151.8250 C   0  0  0  0  0  3  0  0  0  0  0  0
  160.8150  206.9710  154.0730 C   0  0  0  0  0  3  0  0  0  0  0  0
  161.4870  207.9400  151.9990 C   0  0  0  0  0  0  0  0  0  0  0  0
  160.8600  208.2260  154.6170 N   0  0  0  0  0  0  0  0  0  0  0  0
  161.6070  203.3040  151.2910 C   0  0  0  0  0  2  0  0  0  0  0  0
  160.8800  203.2700  149.9830 C   0  0  0  0  0  0  0  0  0  0  0  0
  160.8970  204.2870  149.1070 C   0  0  0  0  0  3  0  0  0  0  0  0
  161.2110  205.6790  151.8420 C   0  0  0  0  0  0  0  0  0  0  0  0
  161.4040  205.6550  149.3310 C   0  0  0  0  0  2  0  0  0  0  0  0
  161.5750  206.2290  150.5250 C   0  0  0  0  0  0  0  0  0  0  0  0
  160.2620  201.9690  149.5830 C   0  0  0  0  0  3  0  0  0  0  0  0
  159.9680  201.9720  148.2190 O   0  0  0  0  0  1  0  0  0  0  0  0
  161.1210  200.9090  149.8780 O   0  0  0  0  0  1  0  0  0  0  0  0
  162.6260  211.2200  149.6570 C   0  0  0  0  0  2  0  0  0  0  0  0
  159.4470  213.2290  149.1930 C   0  0  0  0  0  3  0  0  0  0  0  0
  161.2330  211.7260  147.6390 C   0  0  0  0  0  3  0  0  0  0  0  0
  157.8830  213.5270  145.8460 C   0  0  0  0  0  0  0  0  0  0  0  0
  158.1100  213.6770  147.2220 C   0  0  0  0  0  3  0  0  0  0  0  0
  159.2230  213.0820  147.8220 C   0  0  0  0  0  0  0  0  0  0  0  0
  159.8950  212.1720  145.6700 C   0  0  0  0  0  3  0  0  0  0  0  0
  160.1220  212.3230  147.0390 C   0  0  0  0  0  0  0  0  0  0  0  0
  158.7800  212.7720  145.0760 C   0  0  0  0  0  3  0  0  0  0  0  0
  161.4570  211.8840  149.0120 C   0  0  0  0  0  0  0  0  0  0  0  0
  160.5610  212.6300  149.7870 C   0  0  0  0  0  3  0  0  0  0  0  0
  156.7100  214.1570  145.2210 C   0  0  0  0  0  0  0  0  0  0  0  0
  155.6910  214.4330  145.9090 O   0  0  0  0  0  1  0  0  0  0  0  0
  156.7130  214.4530  143.8620 O   0  0  0  0  0  0  0  0  0  0  0  0
  1 10  2  0  0  0  0
  3  9  2  0  0  0  0
  4  8  1  0  0  0  0
  5  4  1  0  0  0  0
  5  1  1  0  0  0  0
  6  7  1  0  0  0  0
  7 11  2  0  0  0  0
  8  6  2  0  0  0  0
  9 11  1  0  0  0  0
 10  6  1  0  0  0  0
 10  3  1  0  0  0  0
 12  2  1  0  0  0  0
 13 12  1  0  0  0  0
 14 16  1  0  0  0  0
 14 13  2  0  0  0  0
 15  2  1  0  0  0  0
 15  3  1  0  0  0  0
 16 17  1  0  0  0  0
 17  1  1  0  0  0  0
 17 15  2  0  0  0  0
 18 20  1  0  0  0  0
 18 13  1  0  0  0  0
 19 18  1  0  0  0  0
 21  4  1  0  0  0  0
 22 31  1  0  0  0  0
 23 30  1  0  0  0  0
 24 25  2  0  0  0  0
 25 26  1  0  0  0  0
 26 22  2  0  0  0  0
 27 28  1  0  0  0  0
 28 23  2  0  0  0  0
 28 26  1  0  0  0  0
 29 27  2  0  0  0  0
 29 24  1  0  0  0  0
 30 21  1  0  0  0  0
 30 31  2  0  0  0  0
 32 24  1  0  0  0  0
 32 33  1  0  0  0  0
 34 32  2  0  0  0  0
M  END
>  <MODEL>
7

>  <REMARK>
 VINA RESULT:      -9.0      3.996      5.580
  Name = 
  4 active torsions:
  status: ('A' for Active; 'I' for Inactive)
    1  A    between atoms: C_3  and  C_25
    2  A    between atoms: C_7  and  C_11
    3  A    between atoms: N_8  and  C_18
    4  A    between atoms: C_18  and  C_30
                            x       y       z     vdW  Elec       q    Type
                         _______ _______ _______ _____ _____    ______ ____

>  <TORSDO>
F 4

$$$$
=
 OpenBabel11062409373D

 34 39  0  0  0  0  0  0  0  0999 V2000
  161.7750  207.6270  148.8980 C   0  0  0  0  0  0  0  0  0  0  0  0
  161.4940  204.0380  148.4340 C   0  0  0  0  0  2  0  0  0  0  0  0
  161.2170  205.8380  150.1320 C   0  0  0  0  0  0  0  0  0  0  0  0
  161.9560  209.8650  149.8950 N   0  0  0  0  0  0  0  0  0  0  0  0
  162.0100  209.0900  148.6380 C   0  0  0  0  0  2  0  0  0  0  0  0
  161.3840  207.9520  151.2430 C   0  0  0  0  0  0  0  0  0  0  0  0
  161.0630  207.3300  152.4140 N   0  0  0  0  0  0  0  0  0  0  0  0
  161.6230  209.2640  151.1680 C   0  0  0  0  0  3  0  0  0  0  0  0
  160.9010  205.2210  151.3390 C   0  0  0  0  0  3  0  0  0  0  0  0
  161.4670  207.1800  150.1010 C   0  0  0  0  0  0  0  0  0  0  0  0
  160.8310  206.0070  152.4570 N   0  0  0  0  0  0  0  0  0  0  0  0
  162.0170  203.6200  147.0960 C   0  0  0  0  0  2  0  0  0  0  0  0
  161.2880  204.2120  145.9300 C   0  0  0  0  0  0  0  0  0  0  0  0
  161.2050  205.5340  145.7100 C   0  0  0  0  0  3  0  0  0  0  0  0
  161.4040  205.3180  148.7820 C   0  0  0  0  0  0  0  0  0  0  0  0
  161.5830  206.6210  146.6340 C   0  0  0  0  0  2  0  0  0  0  0  0
  161.7060  206.5010  147.9590 C   0  0  0  0  0  0  0  0  0  0  0  0
  160.7930  203.2640  144.8860 C   0  0  0  0  0  3  0  0  0  0  0  0
  160.4560  202.0400  145.4650 O   0  0  0  0  0  1  0  0  0  0  0  0
  159.6840  203.7960  144.2270 O   0  0  0  0  0  1  0  0  0  0  0  0
  162.2800  211.2820  149.8540 C   0  0  0  0  0  2  0  0  0  0  0  0
  162.7410  212.9530  146.4840 C   0  0  0  0  0  3  0  0  0  0  0  0
  160.6730  211.8370  148.0160 C   0  0  0  0  0  3  0  0  0  0  0  0
  159.8400  213.4930  144.2420 C   0  0  0  0  0  0  0  0  0  0  0  0
  161.1520  213.4970  144.7370 C   0  0  0  0  0  3  0  0  0  0  0  0
  161.4340  212.9460  145.9900 C   0  0  0  0  0  0  0  0  0  0  0  0
  159.0850  212.3830  146.2710 C   0  0  0  0  0  3  0  0  0  0  0  0
  160.3920  212.3850  146.7630 C   0  0  0  0  0  0  0  0  0  0  0  0
  158.8110  212.9340  145.0150 C   0  0  0  0  0  3  0  0  0  0  0  0
  161.9860  211.8390  148.5030 C   0  0  0  0  0  0  0  0  0  0  0  0
  163.0160  212.4020  147.7400 C   0  0  0  0  0  3  0  0  0  0  0  0
  159.5500  214.0740  142.9220 C   0  0  0  0  0  0  0  0  0  0  0  0
  158.3690  214.3790  142.6040 O   0  0  0  0  0  1  0  0  0  0  0  0
  160.5770  214.2900  142.0100 O   0  0  0  0  0  0  0  0  0  0  0  0
  1 10  2  0  0  0  0
  2 15  1  0  0  0  0
  3  9  2  0  0  0  0
  4  8  1  0  0  0  0
  5  1  1  0  0  0  0
  5  4  1  0  0  0  0
  6  7  1  0  0  0  0
  7 11  2  0  0  0  0
  8  6  2  0  0  0  0
  9 11  1  0  0  0  0
 10  3  1  0  0  0  0
 10  6  1  0  0  0  0
 12  2  1  0  0  0  0
 13 12  1  0  0  0  0
 14 13  2  0  0  0  0
 14 16  1  0  0  0  0
 15  3  1  0  0  0  0
 16 17  1  0  0  0  0
 17 15  2  0  0  0  0
 17  1  1  0  0  0  0
 18 19  1  0  0  0  0
 18 13  1  0  0  0  0
 20 18  1  0  0  0  0
 21  4  1  0  0  0  0
 22 31  1  0  0  0  0
 23 30  1  0  0  0  0
 24 25  2  0  0  0  0
 24 29  1  0  0  0  0
 25 26  1  0  0  0  0
 26 22  2  0  0  0  0
 26 28  1  0  0  0  0
 27 28  1  0  0  0  0
 28 23  2  0  0  0  0
 29 27  2  0  0  0  0
 30 21  1  0  0  0  0
 31 30  2  0  0  0  0
 32 24  1  0  0  0  0
 33 32  1  0  0  0  0
 34 32  2  0  0  0  0
M  END
>  <MODEL>
8

>  <REMARK>
 VINA RESULT:      -9.0      4.448      6.029
  Name = 
  4 active torsions:
  status: ('A' for Active; 'I' for Inactive)
    1  A    between atoms: C_3  and  C_25
    2  A    between atoms: C_7  and  C_11
    3  A    between atoms: N_8  and  C_18
    4  A    between atoms: C_18  and  C_30
                            x       y       z     vdW  Elec       q    Type
                         _______ _______ _______ _____ _____    ______ ____

>  <TORSDO>
F 4

$$$$
=
 OpenBabel11062409373D

 34 39  0  0  0  0  0  0  0  0999 V2000
  160.5930  208.7130  153.6340 C   0  0  0  0  0  0  0  0  0  0  0  0
  160.0810  212.3030  153.7970 C   0  0  0  0  0  2  0  0  0  0  0  0
  160.8780  210.4880  152.2900 C   0  0  0  0  0  0  0  0  0  0  0  0
  161.3390  206.4690  152.9690 N   0  0  0  0  0  0  0  0  0  0  0  0
  160.6300  207.2550  154.0000 C   0  0  0  0  0  2  0  0  0  0  0  0
  161.6800  208.3670  151.5230 C   0  0  0  0  0  0  0  0  0  0  0  0
  162.1200  208.9770  150.3850 N   0  0  0  0  0  0  0  0  0  0  0  0
  161.8300  207.0570  151.7410 C   0  0  0  0  0  3  0  0  0  0  0  0
  161.3420  211.0930  151.1260 C   0  0  0  0  0  3  0  0  0  0  0  0
  161.0630  209.1490  152.4800 C   0  0  0  0  0  0  0  0  0  0  0  0
  161.9560  210.2970  150.1970 N   0  0  0  0  0  0  0  0  0  0  0  0
  159.7020  212.7370  155.1780 C   0  0  0  0  0  2  0  0  0  0  0  0
  158.4220  212.1470  155.6850 C   0  0  0  0  0  0  0  0  0  0  0  0
  158.2270  210.8270  155.8270 C   0  0  0  0  0  3  0  0  0  0  0  0
  160.2200  211.0200  153.4790 C   0  0  0  0  0  0  0  0  0  0  0  0
  159.0850  209.7350  155.3240 C   0  0  0  0  0  2  0  0  0  0  0  0
  159.9750  209.8460  154.3340 C   0  0  0  0  0  0  0  0  0  0  0  0
  157.4000  213.0990  156.2160 C   0  0  0  0  0  3  0  0  0  0  0  0
  157.1350  214.0980  155.2790 O   0  0  0  0  0  1  0  0  0  0  0  0
  156.2200  212.4240  156.5330 O   0  0  0  0  0  1  0  0  0  0  0  0
  161.5780  205.0560  153.2110 C   0  0  0  0  0  2  0  0  0  0  0  0
  160.8330  202.1660  150.8750 C   0  0  0  0  0  3  0  0  0  0  0  0
  161.4910  204.8880  150.7140 C   0  0  0  0  0  3  0  0  0  0  0  0
  160.9200  202.6480  147.2020 C   0  0  0  0  0  0  0  0  0  0  0  0
  160.7820  202.0360  148.4560 C   0  0  0  0  0  3  0  0  0  0  0  0
  160.9690  202.7770  149.6260 C   0  0  0  0  0  0  0  0  0  0  0  0
  161.4420  204.7570  148.2960 C   0  0  0  0  0  3  0  0  0  0  0  0
  161.3010  204.1480  149.5450 C   0  0  0  0  0  0  0  0  0  0  0  0
  161.2520  204.0100  147.1290 C   0  0  0  0  0  3  0  0  0  0  0  0
  161.3460  204.2730  151.9640 C   0  0  0  0  0  0  0  0  0  0  0  0
  161.0240  202.9130  152.0420 C   0  0  0  0  0  3  0  0  0  0  0  0
  160.7220  201.8620  145.9740 C   0  0  0  0  0  0  0  0  0  0  0  0
  160.4490  202.4370  144.8860 O   0  0  0  0  0  0  0  0  0  0  0  0
  160.8310  200.4770  146.0030 O   0  0  0  0  0  1  0  0  0  0  0  0
  1  5  1  0  0  0  0
  1 17  1  0  0  0  0
  2 12  1  0  0  0  0
  3 10  1  0  0  0  0
  3 15  1  0  0  0  0
  4 21  1  0  0  0  0
  4  5  1  0  0  0  0
  6  8  2  0  0  0  0
  6 10  1  0  0  0  0
  7  6  1  0  0  0  0
  8  4  1  0  0  0  0
  9  3  2  0  0  0  0
 10  1  2  0  0  0  0
 11  7  2  0  0  0  0
 11  9  1  0  0  0  0
 12 13  1  0  0  0  0
 13 14  2  0  0  0  0
 13 18  1  0  0  0  0
 15  2  1  0  0  0  0
 15 17  2  0  0  0  0
 16 14  1  0  0  0  0
 17 16  1  0  0  0  0
 18 20  1  0  0  0  0
 19 18  1  0  0  0  0
 22 31  1  0  0  0  0
 23 30  1  0  0  0  0
 24 25  2  0  0  0  0
 25 26  1  0  0  0  0
 26 22  2  0  0  0  0
 27 28  1  0  0  0  0
 28 26  1  0  0  0  0
 28 23  2  0  0  0  0
 29 24  1  0  0  0  0
 29 27  2  0  0  0  0
 30 31  2  0  0  0  0
 30 21  1  0  0  0  0
 32 34  1  0  0  0  0
 32 24  1  0  0  0  0
 33 32  2  0  0  0  0
M  END
>  <MODEL>
9

>  <REMARK>
 VINA RESULT:      -8.9      1.766     10.050
  Name = 
  4 active torsions:
  status: ('A' for Active; 'I' for Inactive)
    1  A    between atoms: C_3  and  C_25
    2  A    between atoms: C_7  and  C_11
    3  A    between atoms: N_8  and  C_18
    4  A    between atoms: C_18  and  C_30
                            x       y       z     vdW  Elec       q    Type
                         _______ _______ _______ _____ _____    ______ ____

>  <TORSDO>
F 4

$$$$
