=
 OpenBabel11052423033D

 28 31  0  0  1  0  0  0  0  0999 V2000
  159.5590  212.1870  139.0320 C   0  0  2  0  0  0  0  0  0  0  0  0
  158.7210  211.2240  138.1440 C   0  0  2  0  0  3  0  0  0  0  0  0
  161.5830  213.7760  138.6640 C   0  0  0  0  0  2  0  0  0  0  0  0
  156.7150  212.7510  138.2970 C   0  0  1  0  0  3  0  0  0  0  0  0
  157.5280  213.7400  139.1200 C   0  0  0  0  0  2  0  0  0  0  0  0
  161.3430  213.0710  141.5850 C   0  0  2  0  0  3  0  0  0  0  0  0
  158.5960  213.0020  139.9280 C   0  0  0  0  0  2  0  0  0  0  0  0
  163.2200  214.4460  140.9370 O   0  0  0  0  0  1  0  0  0  0  0  0
  161.9920  211.3150  139.2670 C   0  0  1  0  0  0  0  0  0  0  0  0
  160.6520  211.7160  141.3730 C   0  0  0  0  0  2  0  0  0  0  0  0
  162.9020  210.3410  140.0110 C   0  0  0  0  0  1  0  0  0  0  0  0
  162.5240  212.7610  139.3570 C   0  0  2  0  0  3  0  0  0  0  0  0
  161.9460  210.9000  137.9330 O   0  0  0  0  0  1  0  0  0  0  0  0
  155.6820  213.5010  137.4820 C   0  0  0  0  0  1  0  0  0  0  0  0
  162.6850  213.1600  140.8360 C   0  0  2  0  0  3  0  0  0  0  0  0
  160.3030  213.1620  138.0820 C   0  0  0  0  0  2  0  0  0  0  0  0
  160.5740  211.3290  139.8780 C   0  0  1  0  0  3  0  0  0  0  0  0
  157.6310  211.9670  137.3600 C   0  0  0  0  0  2  0  0  0  0  0  0
  162.6480  212.9530  143.7380 C   0  0  0  0  0  3  0  0  0  0  0  0
  160.4780  214.0380  143.7420 C   0  0  0  0  0  0  0  0  0  0  0  0
  161.7720  213.8980  145.7870 C   0  0  0  0  0  0  0  0  0  0  0  0
  161.4950  213.3610  143.0490 C   0  0  0  0  0  0  0  0  0  0  0  0
  160.6200  214.3040  145.1070 C   0  0  0  0  0  3  0  0  0  0  0  0
  159.3250  214.4490  143.0830 O   0  0  0  0  0  1  0  0  0  0  0  0
  161.9050  214.1580  147.1090 F   0  0  0  0  0  0  0  0  0  0  0  0
  162.7850  213.2220  145.1030 C   0  0  0  0  0  3  0  0  0  0  0  0
  158.0920  210.0650  138.9180 C   0  0  0  0  0  2  0  0  0  0  0  0
  157.2670  209.2030  137.9840 C   0  0  0  0  0  1  0  0  0  0  0  0
  1 16  1  6  0  0  0
  1 17  1  0  0  0  0
  1  7  1  0  0  0  0
  2 27  1  1  0  0  0
  2  1  1  0  0  0  0
  4 14  1  6  0  0  0
  4  5  1  0  0  0  0
  5  7  1  0  0  0  0
  6 22  1  1  0  0  0
  9 12  1  0  0  0  0
  9 17  1  0  0  0  0
  9 11  1  1  0  0  0
 10  6  1  0  0  0  0
 12  3  1  1  0  0  0
 12 15  1  0  0  0  0
 13  9  1  0  0  0  0
 15  8  1  6  0  0  0
 15  6  1  0  0  0  0
 16  3  1  0  0  0  0
 17 10  1  1  0  0  0
 18  2  1  0  0  0  0
 18  4  1  0  0  0  0
 19 26  1  0  0  0  0
 20 23  2  0  0  0  0
 21 25  1  0  0  0  0
 22 19  2  0  0  0  0
 22 20  1  0  0  0  0
 23 21  1  0  0  0  0
 24 20  1  0  0  0  0
 26 21  2  0  0  0  0
 28 27  1  0  0  0  0
M  END
>  <MODEL>
1

>  <REMARK>
 VINA RESULT:      -4.4      0.000      0.000
  Name = 
  2 active torsions:
  status: ('A' for Active; 'I' for Inactive)
    1  A    between atoms: C_2  and  C_3
    2  A    between atoms: C_10  and  C_13
                            x       y       z     vdW  Elec       q    Type
                         _______ _______ _______ _____ _____    ______ ____

>  <TORSDO>
F 2

$$$$
=
 OpenBabel11052423033D

 28 31  0  0  1  0  0  0  0  0999 V2000
  161.1940  208.7360  153.4380 C   0  0  2  0  0  0  0  0  0  0  0  0
  161.6450  207.3110  153.0090 C   0  0  2  0  0  3  0  0  0  0  0  0
  162.2850  210.7400  154.6840 C   0  0  0  0  0  2  0  0  0  0  0  0
  161.6350  207.9870  150.5750 C   0  0  1  0  0  3  0  0  0  0  0  0
  161.2490  209.4060  150.9700 C   0  0  0  0  0  2  0  0  0  0  0  0
  159.2810  210.9540  154.8170 C   0  0  2  0  0  3  0  0  0  0  0  0
  160.4330  209.3920  152.2620 C   0  0  0  0  0  2  0  0  0  0  0  0
  160.5550  212.6290  156.0020 O   0  0  0  0  0  1  0  0  0  0  0  0
  161.0830  208.9120  156.0250 C   0  0  1  0  0  0  0  0  0  0  0  0
  159.0010  209.4490  154.6950 C   0  0  0  0  0  2  0  0  0  0  0  0
  160.2370  208.6140  157.2600 C   0  0  0  0  0  1  0  0  0  0  0  0
  161.4800  210.4010  155.9620 C   0  0  2  0  0  3  0  0  0  0  0  0
  162.2260  208.1100  156.1040 O   0  0  0  0  0  1  0  0  0  0  0  0
  162.4670  208.0210  149.3120 C   0  0  0  0  0  1  0  0  0  0  0  0
  160.2130  211.2750  156.0000 C   0  0  2  0  0  3  0  0  0  0  0  0
  162.4780  209.5600  153.7220 C   0  0  0  0  0  2  0  0  0  0  0  0
  160.3010  208.6100  154.7290 C   0  0  1  0  0  3  0  0  0  0  0  0
  162.4380  207.3290  151.6950 C   0  0  0  0  0  2  0  0  0  0  0  0
  157.1590  211.6090  156.0090 C   0  0  0  0  0  3  0  0  0  0  0  0
  157.6170  212.5620  153.8250 C   0  0  0  0  0  0  0  0  0  0  0  0
  155.5900  213.1590  155.0120 C   0  0  0  0  0  0  0  0  0  0  0  0
  157.9960  211.7240  154.8880 C   0  0  0  0  0  0  0  0  0  0  0  0
  156.4180  213.2760  153.8910 C   0  0  0  0  0  3  0  0  0  0  0  0
  158.4270  212.6900  152.7020 O   0  0  0  0  0  1  0  0  0  0  0  0
  154.4290  213.8530  155.0720 F   0  0  0  0  0  0  0  0  0  0  0  0
  155.9610  212.3260  156.0700 C   0  0  0  0  0  3  0  0  0  0  0  0
  160.4940  206.3110  152.8970 C   0  0  0  0  0  2  0  0  0  0  0  0
  161.0340  204.9290  152.5920 C   0  0  0  0  0  1  0  0  0  0  0  0
  1  7  1  6  0  0  0
  1 16  1  0  0  0  0
  1 17  1  0  0  0  0
  2 27  1  6  0  0  0
  2  1  1  0  0  0  0
  4 14  1  6  0  0  0
  4  5  1  0  0  0  0
  4 18  1  0  0  0  0
  5  7  1  0  0  0  0
  6 22  1  1  0  0  0
  6 15  1  0  0  0  0
  9 13  1  0  0  0  0
  9 11  1  1  0  0  0
 10  6  1  0  0  0  0
 12  3  1  6  0  0  0
 12 15  1  0  0  0  0
 12  9  1  0  0  0  0
 15  8  1  6  0  0  0
 16  3  1  0  0  0  0
 17 10  1  6  0  0  0
 17  9  1  0  0  0  0
 18  2  1  0  0  0  0
 19 26  1  0  0  0  0
 20 23  2  0  0  0  0
 20 22  1  0  0  0  0
 21 25  1  0  0  0  0
 21 26  2  0  0  0  0
 22 19  2  0  0  0  0
 23 21  1  0  0  0  0
 24 20  1  0  0  0  0
 28 27  1  0  0  0  0
M  END
>  <MODEL>
2

>  <REMARK>
 VINA RESULT:      -4.3     11.004     14.398
  Name = 
  2 active torsions:
  status: ('A' for Active; 'I' for Inactive)
    1  A    between atoms: C_2  and  C_3
    2  A    between atoms: C_10  and  C_13
                            x       y       z     vdW  Elec       q    Type
                         _______ _______ _______ _____ _____    ______ ____

>  <TORSDO>
F 2

$$$$
=
 OpenBabel11052423033D

 28 31  0  0  1  0  0  0  0  0999 V2000
  160.0900  213.1540  142.2830 C   0  0  2  0  0  0  0  0  0  0  0  0
  159.4610  213.5700  143.6430 C   0  0  2  0  0  3  0  0  0  0  0  0
  160.6430  214.3490  140.0410 C   0  0  0  0  0  2  0  0  0  0  0  0
  161.6870  213.3110  144.8080 C   0  0  1  0  0  3  0  0  0  0  0  0
  162.3420  212.9560  143.4800 C   0  0  0  0  0  2  0  0  0  0  0  0
  160.4580  211.3720  139.6050 C   0  0  2  0  0  3  0  0  0  0  0  0
  161.3320  212.2730  142.5580 C   0  0  0  0  0  2  0  0  0  0  0  0
  160.8450  212.7460  137.6560 O   0  0  0  0  0  1  0  0  0  0  0  0
  158.3260  213.3010  140.3850 C   0  0  1  0  0  0  0  0  0  0  0  0
  159.4940  211.0930  140.7690 C   0  0  0  0  0  2  0  0  0  0  0  0
  157.1600  212.5870  139.7080 C   0  0  0  0  0  1  0  0  0  0  0  0
  159.4220  213.6790  139.3670 C   0  0  2  0  0  3  0  0  0  0  0  0
  157.8100  214.4530  140.9880 O   0  0  0  0  0  1  0  0  0  0  0  0
  162.6930  214.0120  145.6960 C   0  0  0  0  0  1  0  0  0  0  0  0
  159.8930  212.4150  138.6240 C   0  0  2  0  0  3  0  0  0  0  0  0
  160.5480  214.4530  141.5690 C   0  0  0  0  0  2  0  0  0  0  0  0
  158.9980  212.3960  141.4390 C   0  0  1  0  0  3  0  0  0  0  0  0
  160.4890  214.2270  144.5750 C   0  0  0  0  0  2  0  0  0  0  0  0
  160.0630  209.6130  137.8440 C   0  0  0  0  0  3  0  0  0  0  0  0
  161.9550  209.3660  139.3410 C   0  0  0  0  0  0  0  0  0  0  0  0
  161.5320  207.7010  137.6310 C   0  0  0  0  0  0  0  0  0  0  0  0
  160.8320  210.0950  138.9140 C   0  0  0  0  0  0  0  0  0  0  0  0
  162.3010  208.1740  138.6990 C   0  0  0  0  0  3  0  0  0  0  0  0
  162.7310  209.8200  140.4020 O   0  0  0  0  0  1  0  0  0  0  0  0
  161.8710  206.5460  137.0110 F   0  0  0  0  0  0  0  0  0  0  0  0
  160.4130  208.4210  137.2040 C   0  0  0  0  0  3  0  0  0  0  0  0
  158.7680  212.4220  144.3750 C   0  0  0  0  0  2  0  0  0  0  0  0
  158.1330  212.9290  145.6540 C   0  0  0  0  0  1  0  0  0  0  0  0
  1 16  1  6  0  0  0
  1  7  1  0  0  0  0
  1  2  1  0  0  0  0
  2 27  1  1  0  0  0
  2 18  1  0  0  0  0
  3 16  1  0  0  0  0
  4 14  1  1  0  0  0
  5  4  1  0  0  0  0
  6 22  1  6  0  0  0
  6 10  1  0  0  0  0
  7  5  1  0  0  0  0
  9 11  1  6  0  0  0
  9 13  1  0  0  0  0
  9 17  1  0  0  0  0
 12  3  1  1  0  0  0
 12  9  1  0  0  0  0
 15  8  1  6  0  0  0
 15 12  1  0  0  0  0
 15  6  1  0  0  0  0
 17 10  1  6  0  0  0
 17  1  1  0  0  0  0
 18  4  1  0  0  0  0
 19 22  1  0  0  0  0
 20 24  1  0  0  0  0
 21 23  2  0  0  0  0
 22 20  2  0  0  0  0
 23 20  1  0  0  0  0
 25 21  1  0  0  0  0
 26 21  1  0  0  0  0
 26 19  2  0  0  0  0
 27 28  1  0  0  0  0
M  END
>  <MODEL>
3

>  <REMARK>
 VINA RESULT:      -4.0      3.030      6.649
  Name = 
  2 active torsions:
  status: ('A' for Active; 'I' for Inactive)
    1  A    between atoms: C_2  and  C_3
    2  A    between atoms: C_10  and  C_13
                            x       y       z     vdW  Elec       q    Type
                         _______ _______ _______ _____ _____    ______ ____

>  <TORSDO>
F 2

$$$$
=
 OpenBabel11052423033D

 28 31  0  0  1  0  0  0  0  0999 V2000
  159.2780  211.3900  155.2430 C   0  0  2  0  0  0  0  0  0  0  0  0
  159.0660  212.9290  155.1850 C   0  0  2  0  0  3  0  0  0  0  0  0
  159.7060  209.6360  157.1140 C   0  0  0  0  0  2  0  0  0  0  0  0
  156.6420  212.6200  154.5460 C   0  0  1  0  0  3  0  0  0  0  0  0
  156.8060  211.1090  154.6510 C   0  0  0  0  0  2  0  0  0  0  0  0
  160.6090  208.5460  154.4520 C   0  0  2  0  0  3  0  0  0  0  0  0
  158.2430  210.7090  154.3170 C   0  0  0  0  0  2  0  0  0  0  0  0
  161.0010  207.1650  156.3940 O   0  0  0  0  0  1  0  0  0  0  0  0
  161.6920  210.8370  156.0190 C   0  0  1  0  0  0  0  0  0  0  0  0
  160.9010  209.9080  153.8050 C   0  0  0  0  0  2  0  0  0  0  0  0
  163.1460  210.7060  155.5740 C   0  0  0  0  0  1  0  0  0  0  0  0
  161.1980  209.5490  156.7100 C   0  0  2  0  0  3  0  0  0  0  0  0
  161.6280  211.9160  156.9060 O   0  0  0  0  0  1  0  0  0  0  0  0
  155.2230  213.0010  154.9080 C   0  0  0  0  0  1  0  0  0  0  0  0
  161.3900  208.3490  155.7640 C   0  0  2  0  0  3  0  0  0  0  0  0
  159.0110  210.9410  156.7040 C   0  0  0  0  0  2  0  0  0  0  0  0
  160.7600  211.0740  154.8120 C   0  0  1  0  0  3  0  0  0  0  0  0
  157.6140  213.3210  155.4920 C   0  0  0  0  0  2  0  0  0  0  0  0
  160.9800  206.1100  153.9230 C   0  0  0  0  0  3  0  0  0  0  0  0
  160.9830  207.7170  152.1050 C   0  0  0  0  0  0  0  0  0  0  0  0
  161.3370  205.3630  151.6480 C   0  0  0  0  0  0  0  0  0  0  0  0
  160.8590  207.4350  153.4760 C   0  0  0  0  0  0  0  0  0  0  0  0
  161.2210  206.6810  151.1970 C   0  0  0  0  0  3  0  0  0  0  0  0
  160.8720  209.0220  151.6380 O   0  0  0  0  0  1  0  0  0  0  0  0
  161.5670  204.3630  150.7650 F   0  0  0  0  0  0  0  0  0  0  0  0
  161.2170  205.0780  153.0110 C   0  0  0  0  0  3  0  0  0  0  0  0
  159.4960  213.5590  153.8610 C   0  0  0  0  0  2  0  0  0  0  0  0
  158.3950  214.4520  153.3280 C   0  0  0  0  0  1  0  0  0  0  0  0
  1  7  1  6  0  0  0
  1 16  1  0  0  0  0
  2 27  1  6  0  0  0
  2  1  1  0  0  0  0
  2 18  1  0  0  0  0
  4  5  1  0  0  0  0
  4 14  1  1  0  0  0
  4 18  1  0  0  0  0
  6 22  1  6  0  0  0
  6 15  1  0  0  0  0
  7  5  1  0  0  0  0
  9 11  1  6  0  0  0
  9 12  1  0  0  0  0
  9 13  1  0  0  0  0
 10  6  1  0  0  0  0
 12  3  1  6  0  0  0
 15  8  1  1  0  0  0
 15 12  1  0  0  0  0
 16  3  1  0  0  0  0
 17 10  1  6  0  0  0
 17  1  1  0  0  0  0
 17  9  1  0  0  0  0
 20 22  2  0  0  0  0
 21 26  1  0  0  0  0
 22 19  1  0  0  0  0
 23 21  2  0  0  0  0
 23 20  1  0  0  0  0
 24 20  1  0  0  0  0
 25 21  1  0  0  0  0
 26 19  2  0  0  0  0
 28 27  1  0  0  0  0
M  END
>  <MODEL>
4

>  <REMARK>
 VINA RESULT:      -3.9     12.518     15.118
  Name = 
  2 active torsions:
  status: ('A' for Active; 'I' for Inactive)
    1  A    between atoms: C_2  and  C_3
    2  A    between atoms: C_10  and  C_13
                            x       y       z     vdW  Elec       q    Type
                         _______ _______ _______ _____ _____    ______ ____

>  <TORSDO>
F 2

$$$$
=
 OpenBabel11052423033D

 28 31  0  0  1  0  0  0  0  0999 V2000
  157.2690  211.5020  138.3270 C   0  0  2  0  0  0  0  0  0  0  0  0
  156.0080  210.6790  137.9380 C   0  0  2  0  0  3  0  0  0  0  0  0
  159.3850  212.3660  137.0890 C   0  0  0  0  0  2  0  0  0  0  0  0
  154.5370  212.7140  138.2110 C   0  0  1  0  0  3  0  0  0  0  0  0
  155.7620  213.5570  138.5390 C   0  0  0  0  0  2  0  0  0  0  0  0
  159.8960  212.2650  140.0580 C   0  0  2  0  0  3  0  0  0  0  0  0
  156.8330  212.6960  139.2080 C   0  0  0  0  0  2  0  0  0  0  0  0
  161.7440  212.9220  138.6470 O   0  0  0  0  0  1  0  0  0  0  0  0
  159.4000  210.0300  138.1510 C   0  0  1  0  0  0  0  0  0  0  0  0
  158.8900  211.1440  140.3620 C   0  0  0  0  0  2  0  0  0  0  0  0
  160.2520  208.9800  138.8570 C   0  0  0  0  0  1  0  0  0  0  0  0
  160.2420  211.2600  137.7500 C   0  0  2  0  0  3  0  0  0  0  0  0
  158.8580  209.4250  137.0120 O   0  0  0  0  0  1  0  0  0  0  0  0
  153.5000  213.5760  137.5230 C   0  0  0  0  0  1  0  0  0  0  0  0
  160.9310  211.8410  138.9990 C   0  0  2  0  0  3  0  0  0  0  0  0
  157.8860  212.0500  137.0130 C   0  0  0  0  0  2  0  0  0  0  0  0
  158.2760  210.5480  139.0740 C   0  0  1  0  0  3  0  0  0  0  0  0
  154.9250  211.5560  137.2950 C   0  0  0  0  0  2  0  0  0  0  0  0
  161.7260  212.1380  141.7870 C   0  0  0  0  0  3  0  0  0  0  0  0
  159.9770  213.7990  142.0520 C   0  0  0  0  0  0  0  0  0  0  0  0
  161.7580  213.6360  143.6880 C   0  0  0  0  0  0  0  0  0  0  0  0
  160.5480  212.7430  141.3210 C   0  0  0  0  0  0  0  0  0  0  0  0
  160.5840  214.2410  143.2310 C   0  0  0  0  0  3  0  0  0  0  0  0
  158.8090  214.4120  141.6130 O   0  0  0  0  0  1  0  0  0  0  0  0
  162.3430  214.0690  144.8300 F   0  0  0  0  0  0  0  0  0  0  0  0
  162.3290  212.5850  142.9660 C   0  0  0  0  0  3  0  0  0  0  0  0
  155.4040  209.8940  139.1030 C   0  0  0  0  0  2  0  0  0  0  0  0
  155.1690  208.4550  138.6930 C   0  0  0  0  0  1  0  0  0  0  0  0
  1 16  1  6  0  0  0
  1 17  1  0  0  0  0
  1  7  1  0  0  0  0
  2  1  1  0  0  0  0
  2 27  1  1  0  0  0
  4 14  1  6  0  0  0
  4  5  1  0  0  0  0
  5  7  1  0  0  0  0
  6 10  1  0  0  0  0
  6 22  1  1  0  0  0
  9 11  1  1  0  0  0
  9 17  1  0  0  0  0
 12  3  1  1  0  0  0
 12  9  1  0  0  0  0
 12 15  1  0  0  0  0
 13  9  1  0  0  0  0
 15  8  1  6  0  0  0
 15  6  1  0  0  0  0
 16  3  1  0  0  0  0
 17 10  1  1  0  0  0
 18  2  1  0  0  0  0
 18  4  1  0  0  0  0
 19 26  1  0  0  0  0
 20 23  2  0  0  0  0
 21 25  1  0  0  0  0
 22 19  2  0  0  0  0
 22 20  1  0  0  0  0
 23 21  1  0  0  0  0
 24 20  1  0  0  0  0
 26 21  2  0  0  0  0
 28 27  1  0  0  0  0
M  END
>  <MODEL>
5

>  <REMARK>
 VINA RESULT:      -3.8      1.681      2.526
  Name = 
  2 active torsions:
  status: ('A' for Active; 'I' for Inactive)
    1  A    between atoms: C_2  and  C_3
    2  A    between atoms: C_10  and  C_13
                            x       y       z     vdW  Elec       q    Type
                         _______ _______ _______ _____ _____    ______ ____

>  <TORSDO>
F 2

$$$$
=
 OpenBabel11052423033D

 28 31  0  0  1  0  0  0  0  0999 V2000
  160.2560  212.9390  140.9690 C   0  0  2  0  0  0  0  0  0  0  0  0
  159.0580  213.8900  141.2520 C   0  0  2  0  0  3  0  0  0  0  0  0
  162.7510  213.2310  140.2990 C   0  0  0  0  0  2  0  0  0  0  0  0
  159.1100  213.3030  143.7080 C   0  0  1  0  0  3  0  0  0  0  0  0
  160.3190  212.4090  143.4710 C   0  0  0  0  0  2  0  0  0  0  0  0
  161.8110  210.4550  139.5940 C   0  0  2  0  0  3  0  0  0  0  0  0
  160.2830  211.8360  142.0540 C   0  0  0  0  0  2  0  0  0  0  0  0
  164.0690  211.0420  138.9690 O   0  0  0  0  0  1  0  0  0  0  0  0
  160.9530  213.0790  138.4730 C   0  0  1  0  0  0  0  0  0  0  0  0
  160.3290  210.8200  139.4200 C   0  0  0  0  0  2  0  0  0  0  0  0
  160.6390  212.5930  137.0610 C   0  0  0  0  0  1  0  0  0  0  0  0
  162.4250  212.8040  138.8470 C   0  0  2  0  0  3  0  0  0  0  0  0
  160.6960  214.4530  138.5040 O   0  0  0  0  0  1  0  0  0  0  0  0
  159.1770  213.8840  145.1040 C   0  0  0  0  0  1  0  0  0  0  0  0
  162.7250  211.3020  138.6900 C   0  0  2  0  0  3  0  0  0  0  0  0
  161.5530  213.7830  141.0830 C   0  0  0  0  0  2  0  0  0  0  0  0
  160.0890  212.3440  139.5200 C   0  0  1  0  0  3  0  0  0  0  0  0
  159.0850  214.4370  142.6860 C   0  0  0  0  0  2  0  0  0  0  0  0
  162.4220  208.1650  140.4500 C   0  0  0  0  0  3  0  0  0  0  0  0
  161.8200  208.4190  138.1140 C   0  0  0  0  0  0  0  0  0  0  0  0
  162.4160  206.2370  138.9860 C   0  0  0  0  0  0  0  0  0  0  0  0
  162.0190  208.9850  139.3850 C   0  0  0  0  0  0  0  0  0  0  0  0
  162.0180  207.0490  137.9200 C   0  0  0  0  0  3  0  0  0  0  0  0
  161.4250  209.2110  137.0410 O   0  0  0  0  0  1  0  0  0  0  0  0
  162.6060  204.9110  138.7930 F   0  0  0  0  0  0  0  0  0  0  0  0
  162.6180  206.7950  140.2510 C   0  0  0  0  0  3  0  0  0  0  0  0
  157.6940  213.2600  140.9710 C   0  0  0  0  0  2  0  0  0  0  0  0
  156.8980  214.1430  140.0310 C   0  0  0  0  0  1  0  0  0  0  0  0
  1 16  1  1  0  0  0
  1  2  1  0  0  0  0
  1  7  1  0  0  0  0
  2 27  1  1  0  0  0
  2 18  1  0  0  0  0
  3 16  1  0  0  0  0
  4 14  1  1  0  0  0
  5  4  1  0  0  0  0
  6 22  1  6  0  0  0
  7  5  1  0  0  0  0
  9 11  1  6  0  0  0
  9 13  1  0  0  0  0
  9 12  1  0  0  0  0
  9 17  1  0  0  0  0
 10  6  1  0  0  0  0
 12  3  1  1  0  0  0
 15 12  1  0  0  0  0
 15  8  1  1  0  0  0
 15  6  1  0  0  0  0
 17 10  1  1  0  0  0
 17  1  1  0  0  0  0
 18  4  1  0  0  0  0
 20 22  1  0  0  0  0
 21 26  2  0  0  0  0
 22 19  2  0  0  0  0
 23 20  2  0  0  0  0
 23 21  1  0  0  0  0
 24 20  1  0  0  0  0
 25 21  1  0  0  0  0
 26 19  1  0  0  0  0
 28 27  1  0  0  0  0
M  END
>  <MODEL>
6

>  <REMARK>
 VINA RESULT:      -3.7      3.168      5.890
  Name = 
  2 active torsions:
  status: ('A' for Active; 'I' for Inactive)
    1  A    between atoms: C_2  and  C_3
    2  A    between atoms: C_10  and  C_13
                            x       y       z     vdW  Elec       q    Type
                         _______ _______ _______ _____ _____    ______ ____

>  <TORSDO>
F 2

$$$$
=
 OpenBabel11052423033D

 28 31  0  0  1  0  0  0  0  0999 V2000
  157.4790  212.6460  154.4550 C   0  0  2  0  0  0  0  0  0  0  0  0
  156.2540  213.5220  154.0670 C   0  0  2  0  0  3  0  0  0  0  0  0
  159.8690  213.0880  155.3790 C   0  0  0  0  0  2  0  0  0  0  0  0
  154.9440  212.6510  156.0430 C   0  0  1  0  0  3  0  0  0  0  0  0
  156.1470  211.8270  156.4790 C   0  0  0  0  0  2  0  0  0  0  0  0
  159.7620  210.3880  154.0430 C   0  0  2  0  0  3  0  0  0  0  0  0
  156.9810  211.4250  155.2630 C   0  0  0  0  0  2  0  0  0  0  0  0
  161.9060  211.1110  154.8900 O   0  0  0  0  0  1  0  0  0  0  0  0
  159.4630  213.1000  152.8450 C   0  0  1  0  0  0  0  0  0  0  0  0
  158.6200  210.7270  153.0720 C   0  0  0  0  0  2  0  0  0  0  0  0
  160.0600  212.7750  151.4790 C   0  0  0  0  0  1  0  0  0  0  0  0
  160.4740  212.8260  153.9790 C   0  0  2  0  0  3  0  0  0  0  0  0
  159.1100  214.4530  152.8300 O   0  0  0  0  0  1  0  0  0  0  0  0
  154.1460  213.0650  157.2610 C   0  0  0  0  0  1  0  0  0  0  0  0
  160.9470  211.3620  153.9060 C   0  0  2  0  0  3  0  0  0  0  0  0
  158.3930  213.5080  155.3660 C   0  0  0  0  0  2  0  0  0  0  0  0
  158.2270  212.2220  153.1360 C   0  0  1  0  0  3  0  0  0  0  0  0
  155.4040  213.8970  155.2890 C   0  0  0  0  0  2  0  0  0  0  0  0
  160.6340  208.4900  152.6320 C   0  0  0  0  0  3  0  0  0  0  0  0
  160.1310  208.0770  154.9690 C   0  0  0  0  0  0  0  0  0  0  0  0
  160.9710  206.2850  153.5700 C   0  0  0  0  0  0  0  0  0  0  0  0
  160.1870  208.9590  153.8770 C   0  0  0  0  0  0  0  0  0  0  0  0
  160.5230  206.7450  154.8120 C   0  0  0  0  0  3  0  0  0  0  0  0
  159.6870  208.5160  156.2120 O   0  0  0  0  0  1  0  0  0  0  0  0
  161.3500  204.9930  153.4220 F   0  0  0  0  0  0  0  0  0  0  0  0
  161.0260  207.1570  152.4800 C   0  0  0  0  0  3  0  0  0  0  0  0
  155.3620  212.8900  152.9990 C   0  0  0  0  0  2  0  0  0  0  0  0
  154.7830  213.9660  152.1030 C   0  0  0  0  0  1  0  0  0  0  0  0
  1  7  1  1  0  0  0
  1 16  1  0  0  0  0
  2 27  1  6  0  0  0
  2  1  1  0  0  0  0
  2 18  1  0  0  0  0
  4  5  1  0  0  0  0
  4 14  1  1  0  0  0
  6 22  1  6  0  0  0
  7  5  1  0  0  0  0
  9 11  1  6  0  0  0
  9 17  1  0  0  0  0
  9 12  1  0  0  0  0
 10  6  1  0  0  0  0
 12  3  1  1  0  0  0
 13  9  1  0  0  0  0
 15 12  1  0  0  0  0
 15  6  1  0  0  0  0
 15  8  1  1  0  0  0
 16  3  1  0  0  0  0
 17 10  1  1  0  0  0
 17  1  1  0  0  0  0
 18  4  1  0  0  0  0
 19 22  1  0  0  0  0
 20 24  1  0  0  0  0
 21 23  2  0  0  0  0
 22 20  2  0  0  0  0
 23 20  1  0  0  0  0
 25 21  1  0  0  0  0
 26 19  2  0  0  0  0
 26 21  1  0  0  0  0
 28 27  1  0  0  0  0
M  END
>  <MODEL>
7

>  <REMARK>
 VINA RESULT:      -3.0     11.683     14.512
  Name = 
  2 active torsions:
  status: ('A' for Active; 'I' for Inactive)
    1  A    between atoms: C_2  and  C_3
    2  A    between atoms: C_10  and  C_13
                            x       y       z     vdW  Elec       q    Type
                         _______ _______ _______ _____ _____    ______ ____

>  <TORSDO>
F 2

$$$$
=
 OpenBabel11052423033D

 28 31  0  0  1  0  0  0  0  0999 V2000
  161.3410  212.9460  140.9110 C   0  0  2  0  0  0  0  0  0  0  0  0
  160.4660  213.8330  141.8410 C   0  0  2  0  0  3  0  0  0  0  0  0
  162.9790  213.3650  138.9360 C   0  0  0  0  0  2  0  0  0  0  0  0
  161.9500  213.3120  143.8170 C   0  0  1  0  0  3  0  0  0  0  0  0
  162.8580  212.4830  142.9180 C   0  0  0  0  0  2  0  0  0  0  0  0
  161.9780  210.5220  138.8620 C   0  0  2  0  0  3  0  0  0  0  0  0
  162.0520  211.8740  141.7710 C   0  0  0  0  0  2  0  0  0  0  0  0
  163.4290  211.2220  137.0630 O   0  0  0  0  0  1  0  0  0  0  0  0
  160.4730  213.0630  138.4680 C   0  0  1  0  0  0  0  0  0  0  0  0
  160.6440  210.7960  139.5730 C   0  0  0  0  0  2  0  0  0  0  0  0
  159.4380  212.5250  137.4850 C   0  0  0  0  0  1  0  0  0  0  0  0
  161.9080  212.8830  137.9270 C   0  0  2  0  0  3  0  0  0  0  0  0
  160.1960  214.4210  138.6570 O   0  0  0  0  0  1  0  0  0  0  0  0
  162.7690  213.9300  144.9300 C   0  0  0  0  0  1  0  0  0  0  0  0
  162.1550  211.3970  137.6070 C   0  0  2  0  0  3  0  0  0  0  0  0
  162.4150  213.8660  140.2720 C   0  0  0  0  0  2  0  0  0  0  0  0
  160.4120  212.3070  139.8120 C   0  0  1  0  0  3  0  0  0  0  0  0
  161.2750  214.4160  143.0080 C   0  0  0  0  0  2  0  0  0  0  0  0
  161.7440  208.5610  137.2950 C   0  0  0  0  0  3  0  0  0  0  0  0
  162.6200  208.1800  139.5260 C   0  0  0  0  0  0  0  0  0  0  0  0
  162.3750  206.3280  137.9820 C   0  0  0  0  0  0  0  0  0  0  0  0
  162.1180  209.0610  138.5520 C   0  0  0  0  0  0  0  0  0  0  0  0
  162.7470  206.8190  139.2370 C   0  0  0  0  0  3  0  0  0  0  0  0
  162.9940  208.6510  140.7800 O   0  0  0  0  0  1  0  0  0  0  0  0
  162.5000  205.0080  137.7070 F   0  0  0  0  0  0  0  0  0  0  0  0
  161.8730  207.1990  137.0120 C   0  0  0  0  0  3  0  0  0  0  0  0
  159.2280  213.1190  142.3840 C   0  0  0  0  0  2  0  0  0  0  0  0
  158.1160  214.1190  142.6260 C   0  0  0  0  0  1  0  0  0  0  0  0
  1 16  1  6  0  0  0
  1  7  1  0  0  0  0
  1  2  1  0  0  0  0
  2 27  1  1  0  0  0
  2 18  1  0  0  0  0
  3 16  1  0  0  0  0
  4 14  1  1  0  0  0
  5  4  1  0  0  0  0
  6 22  1  6  0  0  0
  6 10  1  0  0  0  0
  7  5  1  0  0  0  0
  9 11  1  6  0  0  0
  9 13  1  0  0  0  0
  9 17  1  0  0  0  0
 12  9  1  0  0  0  0
 12  3  1  1  0  0  0
 15  8  1  1  0  0  0
 15 12  1  0  0  0  0
 15  6  1  0  0  0  0
 17 10  1  6  0  0  0
 17  1  1  0  0  0  0
 18  4  1  0  0  0  0
 19 22  1  0  0  0  0
 20 24  1  0  0  0  0
 21 23  2  0  0  0  0
 22 20  2  0  0  0  0
 23 20  1  0  0  0  0
 25 21  1  0  0  0  0
 26 19  2  0  0  0  0
 26 21  1  0  0  0  0
 27 28  1  0  0  0  0
M  END
>  <MODEL>
8

>  <REMARK>
 VINA RESULT:      -2.1      3.308      6.527
  Name = 
  2 active torsions:
  status: ('A' for Active; 'I' for Inactive)
    1  A    between atoms: C_2  and  C_3
    2  A    between atoms: C_10  and  C_13
                            x       y       z     vdW  Elec       q    Type
                         _______ _______ _______ _____ _____    ______ ____

>  <TORSDO>
F 2

$$$$
=
 OpenBabel11052423033D

 28 31  0  0  1  0  0  0  0  0999 V2000
  157.2420  211.8700  155.0360 C   0  0  2  0  0  0  0  0  0  0  0  0
  155.9120  212.6710  154.9760 C   0  0  2  0  0  3  0  0  0  0  0  0
  159.4820  212.0690  156.3420 C   0  0  0  0  0  2  0  0  0  0  0  0
  154.6670  210.7840  156.1030 C   0  0  1  0  0  3  0  0  0  0  0  0
  155.9670  210.0000  156.2270 C   0  0  0  0  0  2  0  0  0  0  0  0
  159.8790  210.4040  153.8610 C   0  0  2  0  0  3  0  0  0  0  0  0
  156.9120  210.3590  155.0810 C   0  0  0  0  0  2  0  0  0  0  0  0
  161.8340  210.8540  155.2070 O   0  0  0  0  0  1  0  0  0  0  0  0
  159.2020  213.2950  154.1050 C   0  0  1  0  0  0  0  0  0  0  0  0
  158.7460  211.0460  153.0470 C   0  0  0  0  0  2  0  0  0  0  0  0
  159.9080  213.7680  152.8380 C   0  0  0  0  0  1  0  0  0  0  0  0
  160.1880  212.6130  155.0770 C   0  0  2  0  0  3  0  0  0  0  0  0
  158.6340  214.4230  154.7070 O   0  0  0  0  0  1  0  0  0  0  0  0
  153.7550  210.4390  157.2610 C   0  0  0  0  0  1  0  0  0  0  0  0
  160.8950  211.4480  154.3600 C   0  0  2  0  0  3  0  0  0  0  0  0
  157.9600  212.2630  156.3550 C   0  0  0  0  0  2  0  0  0  0  0  0
  158.1120  212.2510  153.7800 C   0  0  1  0  0  3  0  0  0  0  0  0
  154.9550  212.2840  156.1120 C   0  0  0  0  0  2  0  0  0  0  0  0
  160.5550  207.9950  153.5640 C   0  0  0  0  0  3  0  0  0  0  0  0
  161.1510  209.5980  151.8430 C   0  0  0  0  0  0  0  0  0  0  0  0
  161.7790  207.2690  151.6060 C   0  0  0  0  0  0  0  0  0  0  0  0
  160.5380  209.3100  153.0750 C   0  0  0  0  0  0  0  0  0  0  0  0
  161.7680  208.5780  151.1140 C   0  0  0  0  0  3  0  0  0  0  0  0
  161.1510  210.8940  151.3400 O   0  0  0  0  0  1  0  0  0  0  0  0
  162.3770  206.2840  150.8950 F   0  0  0  0  0  0  0  0  0  0  0  0
  161.1730  206.9780  152.8300 C   0  0  0  0  0  3  0  0  0  0  0  0
  155.1860  212.5570  153.6360 C   0  0  0  0  0  2  0  0  0  0  0  0
  154.7930  213.9340  153.1390 C   0  0  0  0  0  1  0  0  0  0  0  0
  1  7  1  6  0  0  0
  1 16  1  0  0  0  0
  2 27  1  6  0  0  0
  2  1  1  0  0  0  0
  2 18  1  0  0  0  0
  3 16  1  0  0  0  0
  4 18  1  0  0  0  0
  4  5  1  0  0  0  0
  4 14  1  1  0  0  0
  6 22  1  6  0  0  0
  6 15  1  0  0  0  0
  7  5  1  0  0  0  0
  9 11  1  6  0  0  0
  9 13  1  0  0  0  0
  9 12  1  0  0  0  0
 10  6  1  0  0  0  0
 12  3  1  1  0  0  0
 15 12  1  0  0  0  0
 15  8  1  1  0  0  0
 17 10  1  1  0  0  0
 17  9  1  0  0  0  0
 17  1  1  0  0  0  0
 20 22  2  0  0  0  0
 21 26  1  0  0  0  0
 22 19  1  0  0  0  0
 23 21  2  0  0  0  0
 23 20  1  0  0  0  0
 24 20  1  0  0  0  0
 25 21  1  0  0  0  0
 26 19  2  0  0  0  0
 28 27  1  0  0  0  0
M  END
>  <MODEL>
9

>  <REMARK>
 VINA RESULT:      -1.9     11.789     14.593
  Name = 
  2 active torsions:
  status: ('A' for Active; 'I' for Inactive)
    1  A    between atoms: C_2  and  C_3
    2  A    between atoms: C_10  and  C_13
                            x       y       z     vdW  Elec       q    Type
                         _______ _______ _______ _____ _____    ______ ____

>  <TORSDO>
F 2

$$$$
