=
 OpenBabel11052422473D

 28 31  0  0  1  0  0  0  0  0999 V2000
  160.0910  210.0890  153.9980 N   0  0  0  0  0  0  0  0  0  0  0  0
  161.6780  208.8360  155.1390 C   0  0  2  0  0  3  0  0  0  0  0  0
  161.6570  210.3010  155.5220 C   0  0  1  0  0  3  0  0  0  0  0  0
  162.9620  210.7840  155.5930 O   0  0  0  0  0  1  0  0  0  0  0  0
  160.9500  211.0020  154.5280 O   0  0  0  0  0  0  0  0  0  0  0  0
  160.8230  208.8230  153.9110 C   0  0  2  0  0  3  0  0  0  0  0  0
  160.4250  208.8440  157.1700 O   0  0  0  0  0  1  0  0  0  0  0  0
  161.0200  208.0060  156.2260 C   0  0  0  0  0  2  0  0  0  0  0  0
  159.6370  210.5710  152.6980 C   0  0  0  0  0  2  0  0  0  0  0  0
  158.7320  211.6960  152.8780 N   0  0  0  0  0  0  0  0  0  0  0  0
  157.7770  213.8910  152.6410 C   0  0  1  0  0  3  0  0  0  0  0  0
  157.7010  211.7470  153.8900 C   0  0  0  0  0  3  0  0  0  0  0  0
  159.6210  213.1560  151.2620 O   0  0  0  0  0  0  0  0  0  0  0  0
  158.7880  212.9210  152.1770 C   0  0  0  0  0  0  0  0  0  0  0  0
  156.7850  214.1790  151.5300 C   0  0  0  0  0  1  0  0  0  0  0  0
  157.0660  213.1410  153.7740 C   0  0  0  0  0  3  0  0  0  0  0  0
  161.7560  208.7350  152.6900 C   0  0  0  0  0  2  0  0  0  0  0  0
  162.0870  208.0960  149.8260 C   0  0  0  0  0  3  0  0  0  0  0  0
  160.9430  205.9910  150.2070 C   0  0  0  0  0  0  0  0  0  0  0  0
  161.9430  207.2950  152.2000 C   0  0  2  0  0  3  0  0  0  0  0  0
  161.1570  206.8810  147.9590 C   0  0  0  0  0  0  0  0  0  0  0  0
  161.6050  207.1320  150.7270 C   0  0  0  0  0  0  0  0  0  0  0  0
  161.3350  204.6830  152.2770 C   0  0  0  0  0  2  0  0  0  0  0  0
  160.7070  205.8900  148.8320 C   0  0  0  0  0  3  0  0  0  0  0  0
  160.4410  204.8800  151.0730 C   0  0  0  0  0  2  0  0  0  0  0  0
  160.9250  206.7690  146.6290 F   0  0  0  0  0  0  0  0  0  0  0  0
  161.8590  207.9780  148.4550 C   0  0  0  0  0  3  0  0  0  0  0  0
  161.1370  206.1200  153.3560 S   0  0  0  0  0  0  0  0  0  0  0  0
  1  5  1  0  0  0  0
  2  3  1  0  0  0  0
  2  8  1  1  0  0  0
  3  4  1  6  0  0  0
  5  3  1  0  0  0  0
  6 17  1  6  0  0  0
  6  1  1  0  0  0  0
  6  2  1  0  0  0  0
  8  7  1  0  0  0  0
  9 10  1  0  0  0  0
  9  1  1  0  0  0  0
 10 12  1  0  0  0  0
 11 15  1  6  0  0  0
 11 16  1  0  0  0  0
 13 14  2  0  0  0  0
 14 11  1  0  0  0  0
 14 10  1  0  0  0  0
 16 12  2  0  0  0  0
 18 22  1  0  0  0  0
 19 22  2  0  0  0  0
 19 25  1  0  0  0  0
 20 17  1  1  0  0  0
 20 28  1  0  0  0  0
 21 27  1  0  0  0  0
 21 24  2  0  0  0  0
 22 20  1  0  0  0  0
 23 28  1  0  0  0  0
 24 19  1  0  0  0  0
 25 23  1  0  0  0  0
 26 21  1  0  0  0  0
 27 18  2  0  0  0  0
M  END
>  <MODEL>
1

>  <REMARK>
 VINA RESULT:      -7.3      0.000      0.000
  Name = 
  5 active torsions:
  status: ('A' for Active; 'I' for Inactive)
    1  A    between atoms: N_1  and  C_2
    2  A    between atoms: C_2  and  N_3
    3  A    between atoms: C_10  and  C_17
    4  A    between atoms: C_16  and  C_20
    5  A    between atoms: C_17  and  C_27
                            x       y       z     vdW  Elec       q    Type
                         _______ _______ _______ _____ _____    ______ ____

>  <TORSDO>
F 5

$$$$
=
 OpenBabel11052422473D

 28 31  0  0  1  0  0  0  0  0999 V2000
  160.3850  210.7150  153.7140 N   0  0  0  0  0  0  0  0  0  0  0  0
  161.1620  208.9810  155.0480 C   0  0  2  0  0  3  0  0  0  0  0  0
  161.5580  210.3580  155.5350 C   0  0  1  0  0  3  0  0  0  0  0  0
  162.9010  210.3540  155.9070 O   0  0  0  0  0  1  0  0  0  0  0  0
  161.3670  211.2680  154.4780 O   0  0  0  0  0  0  0  0  0  0  0  0
  160.6420  209.2730  153.6760 C   0  0  2  0  0  3  0  0  0  0  0  0
  160.1780  207.0460  156.0390 O   0  0  0  0  0  1  0  0  0  0  0  0
  160.0400  208.4290  155.9100 C   0  0  0  0  0  2  0  0  0  0  0  0
  160.4160  211.3320  152.3920 C   0  0  0  0  0  2  0  0  0  0  0  0
  159.3180  212.2770  152.2620 N   0  0  0  0  0  0  0  0  0  0  0  0
  158.0130  214.1310  151.4600 C   0  0  1  0  0  3  0  0  0  0  0  0
  158.2250  212.3750  153.2020 C   0  0  0  0  0  3  0  0  0  0  0  0
  160.0500  213.4450  150.3560 O   0  0  0  0  0  0  0  0  0  0  0  0
  159.2080  213.2850  151.2800 C   0  0  0  0  0  0  0  0  0  0  0  0
  157.0670  213.9520  150.2870 C   0  0  0  0  0  1  0  0  0  0  0  0
  157.3650  213.5560  152.7260 C   0  0  0  0  0  3  0  0  0  0  0  0
  161.7310  208.8700  152.6650 C   0  0  0  0  0  2  0  0  0  0  0  0
  160.8850  206.0440  152.7800 C   0  0  0  0  0  3  0  0  0  0  0  0
  161.5540  205.7930  150.4620 C   0  0  0  0  0  0  0  0  0  0  0  0
  161.1540  208.1490  151.4410 C   0  0  2  0  0  3  0  0  0  0  0  0
  161.2540  203.8380  151.8690 C   0  0  0  0  0  0  0  0  0  0  0  0
  161.2480  206.6370  151.5590 C   0  0  0  0  0  0  0  0  0  0  0  0
  161.1510  207.6020  148.8150 C   0  0  0  0  0  2  0  0  0  0  0  0
  161.5760  204.4050  150.6360 C   0  0  0  0  0  3  0  0  0  0  0  0
  161.8980  206.3200  149.1060 C   0  0  0  0  0  2  0  0  0  0  0  0
  161.2740  202.4930  152.0240 F   0  0  0  0  0  0  0  0  0  0  0  0
  160.8950  204.6570  152.9390 C   0  0  0  0  0  3  0  0  0  0  0  0
  161.8150  208.8890  149.8970 S   0  0  0  0  0  0  0  0  0  0  0  0
  1  5  1  0  0  0  0
  2  3  1  0  0  0  0
  2  8  1  1  0  0  0
  3  4  1  6  0  0  0
  5  3  1  0  0  0  0
  6 17  1  6  0  0  0
  6  1  1  0  0  0  0
  6  2  1  0  0  0  0
  8  7  1  0  0  0  0
  9  1  1  0  0  0  0
 10  9  1  0  0  0  0
 10 12  1  0  0  0  0
 11 15  1  6  0  0  0
 11 16  1  0  0  0  0
 13 14  2  0  0  0  0
 14 11  1  0  0  0  0
 14 10  1  0  0  0  0
 16 12  2  0  0  0  0
 18 27  1  0  0  0  0
 19 24  2  0  0  0  0
 19 22  1  0  0  0  0
 20 22  1  0  0  0  0
 20 17  1  1  0  0  0
 21 26  1  0  0  0  0
 21 27  2  0  0  0  0
 22 18  2  0  0  0  0
 23 25  1  0  0  0  0
 23 28  1  0  0  0  0
 24 21  1  0  0  0  0
 25 19  1  0  0  0  0
 28 20  1  0  0  0  0
M  END
>  <MODEL>
2

>  <REMARK>
 VINA RESULT:      -7.3      1.847      2.636
  Name = 
  5 active torsions:
  status: ('A' for Active; 'I' for Inactive)
    1  A    between atoms: N_1  and  C_2
    2  A    between atoms: C_2  and  N_3
    3  A    between atoms: C_10  and  C_17
    4  A    between atoms: C_16  and  C_20
    5  A    between atoms: C_17  and  C_27
                            x       y       z     vdW  Elec       q    Type
                         _______ _______ _______ _____ _____    ______ ____

>  <TORSDO>
F 5

$$$$
=
 OpenBabel11052422473D

 28 31  0  0  1  0  0  0  0  0999 V2000
  160.0430  210.7900  155.5870 N   0  0  0  0  0  0  0  0  0  0  0  0
  161.7480  209.2310  155.8180 C   0  0  2  0  0  3  0  0  0  0  0  0
  162.1600  210.6490  156.1540 C   0  0  1  0  0  3  0  0  0  0  0  0
  163.3980  210.9260  155.5780 O   0  0  0  0  0  1  0  0  0  0  0  0
  161.1910  211.5220  155.6260 O   0  0  0  0  0  0  0  0  0  0  0  0
  160.4190  209.4400  155.1630 C   0  0  2  0  0  3  0  0  0  0  0  0
  160.2320  208.0430  157.2260 O   0  0  0  0  0  1  0  0  0  0  0  0
  161.5660  208.4280  157.0930 C   0  0  0  0  0  2  0  0  0  0  0  0
  159.1080  211.4340  154.6700 C   0  0  0  0  0  2  0  0  0  0  0  0
  157.8910  211.7950  155.3800 N   0  0  0  0  0  0  0  0  0  0  0  0
  156.4010  212.9530  156.8720 C   0  0  1  0  0  3  0  0  0  0  0  0
  156.6860  210.9960  155.3720 C   0  0  0  0  0  3  0  0  0  0  0  0
  158.6490  213.7410  156.4610 O   0  0  0  0  0  0  0  0  0  0  0  0
  157.7360  212.9000  156.2450 C   0  0  0  0  0  0  0  0  0  0  0  0
  155.6560  214.1890  156.4040 C   0  0  0  0  0  1  0  0  0  0  0  0
  155.7060  211.7030  156.3200 C   0  0  0  0  0  3  0  0  0  0  0  0
  160.6200  209.3080  153.6420 C   0  0  0  0  0  2  0  0  0  0  0  0
  161.8520  208.9210  150.9870 C   0  0  0  0  0  3  0  0  0  0  0  0
  161.2680  206.5690  151.1050 C   0  0  0  0  0  0  0  0  0  0  0  0
  161.3150  207.9970  153.2570 C   0  0  2  0  0  3  0  0  0  0  0  0
  161.8120  207.5910  148.9720 C   0  0  0  0  0  0  0  0  0  0  0  0
  161.4330  207.8200  151.7520 C   0  0  0  0  0  0  0  0  0  0  0  0
  161.4460  205.3170  153.2380 C   0  0  0  0  0  2  0  0  0  0  0  0
  161.4380  206.4750  149.7190 C   0  0  0  0  0  3  0  0  0  0  0  0
  160.8800  205.3240  151.8350 C   0  0  0  0  0  2  0  0  0  0  0  0
  161.9780  207.4860  147.6320 F   0  0  0  0  0  0  0  0  0  0  0  0
  162.0320  208.8120  149.6070 C   0  0  0  0  0  3  0  0  0  0  0  0
  160.5870  206.5930  154.1880 S   0  0  0  0  0  0  0  0  0  0  0  0
  1  5  1  0  0  0  0
  2  3  1  0  0  0  0
  2  8  1  1  0  0  0
  3  4  1  6  0  0  0
  5  3  1  0  0  0  0
  6 17  1  6  0  0  0
  6  1  1  0  0  0  0
  6  2  1  0  0  0  0
  8  7  1  0  0  0  0
  9 10  1  0  0  0  0
  9  1  1  0  0  0  0
 10 14  1  0  0  0  0
 11 15  1  6  0  0  0
 12 10  1  0  0  0  0
 12 16  2  0  0  0  0
 14 13  2  0  0  0  0
 14 11  1  0  0  0  0
 16 11  1  0  0  0  0
 18 22  1  0  0  0  0
 19 22  2  0  0  0  0
 19 25  1  0  0  0  0
 20 17  1  6  0  0  0
 20 28  1  0  0  0  0
 21 27  1  0  0  0  0
 21 24  2  0  0  0  0
 22 20  1  0  0  0  0
 23 28  1  0  0  0  0
 24 19  1  0  0  0  0
 25 23  1  0  0  0  0
 26 21  1  0  0  0  0
 27 18  2  0  0  0  0
M  END
>  <MODEL>
3

>  <REMARK>
 VINA RESULT:      -6.5      1.972      2.308
  Name = 
  5 active torsions:
  status: ('A' for Active; 'I' for Inactive)
    1  A    between atoms: N_1  and  C_2
    2  A    between atoms: C_2  and  N_3
    3  A    between atoms: C_10  and  C_17
    4  A    between atoms: C_16  and  C_20
    5  A    between atoms: C_17  and  C_27
                            x       y       z     vdW  Elec       q    Type
                         _______ _______ _______ _____ _____    ______ ____

>  <TORSDO>
F 5

$$$$
=
 OpenBabel11052422473D

 28 31  0  0  1  0  0  0  0  0999 V2000
  161.5550  210.5500  150.8190 N   0  0  0  0  0  0  0  0  0  0  0  0
  160.9550  209.2380  152.6380 C   0  0  2  0  0  3  0  0  0  0  0  0
  161.9460  210.3340  152.9690 C   0  0  1  0  0  3  0  0  0  0  0  0
  162.9550  209.8220  153.7830 O   0  0  0  0  0  1  0  0  0  0  0  0
  162.5050  210.7960  151.7630 O   0  0  0  0  0  0  0  0  0  0  0  0
  160.9680  209.2470  151.1420 C   0  0  2  0  0  3  0  0  0  0  0  0
  159.5350  210.9820  153.4350 O   0  0  0  0  0  1  0  0  0  0  0  0
  159.5730  209.6200  153.1370 C   0  0  0  0  0  2  0  0  0  0  0  0
  162.1850  210.5790  149.5030 C   0  0  0  0  0  2  0  0  0  0  0  0
  162.0020  211.8880  148.8970 N   0  0  0  0  0  0  0  0  0  0  0  0
  162.4710  213.8830  147.6360 C   0  0  1  0  0  3  0  0  0  0  0  0
  160.8960  212.7690  149.2000 C   0  0  0  0  0  3  0  0  0  0  0  0
  163.9750  211.9910  147.6210 O   0  0  0  0  0  0  0  0  0  0  0  0
  162.9070  212.5260  148.0200 C   0  0  0  0  0  0  0  0  0  0  0  0
  162.1810  213.9330  146.1480 C   0  0  0  0  0  1  0  0  0  0  0  0
  161.1610  214.0620  148.4130 C   0  0  0  0  0  3  0  0  0  0  0  0
  161.8220  208.0560  150.6720 C   0  0  0  0  0  2  0  0  0  0  0  0
  160.8240  205.3750  151.4050 C   0  0  0  0  0  3  0  0  0  0  0  0
  161.2370  204.6460  149.1280 C   0  0  0  0  0  0  0  0  0  0  0  0
  161.0810  207.1660  149.6670 C   0  0  2  0  0  3  0  0  0  0  0  0
  160.9660  203.0170  150.9070 C   0  0  0  0  0  0  0  0  0  0  0  0
  161.0950  205.7000  150.0650 C   0  0  0  0  0  0  0  0  0  0  0  0
  160.7760  206.1420  147.2060 C   0  0  0  0  0  2  0  0  0  0  0  0
  161.1930  203.3170  149.5640 C   0  0  0  0  0  3  0  0  0  0  0  0
  161.4710  204.8820  147.6710 C   0  0  0  0  0  2  0  0  0  0  0  0
  160.9210  201.7260  151.3160 F   0  0  0  0  0  0  0  0  0  0  0  0
  160.7680  204.0460  151.8260 C   0  0  0  0  0  3  0  0  0  0  0  0
  161.6240  207.5520  147.9570 S   0  0  0  0  0  0  0  0  0  0  0  0
  1  6  1  0  0  0  0
  1  5  1  0  0  0  0
  2  3  1  0  0  0  0
  2  8  1  6  0  0  0
  3  4  1  1  0  0  0
  5  3  1  0  0  0  0
  6 17  1  1  0  0  0
  6  2  1  0  0  0  0
  8  7  1  0  0  0  0
  9  1  1  0  0  0  0
 10 12  1  0  0  0  0
 10  9  1  0  0  0  0
 11 15  1  6  0  0  0
 11 14  1  0  0  0  0
 11 16  1  0  0  0  0
 13 14  2  0  0  0  0
 14 10  1  0  0  0  0
 16 12  2  0  0  0  0
 18 27  1  0  0  0  0
 19 24  2  0  0  0  0
 19 22  1  0  0  0  0
 20 22  1  0  0  0  0
 20 17  1  1  0  0  0
 21 26  1  0  0  0  0
 21 27  2  0  0  0  0
 22 18  2  0  0  0  0
 23 25  1  0  0  0  0
 23 28  1  0  0  0  0
 24 21  1  0  0  0  0
 25 19  1  0  0  0  0
 28 20  1  0  0  0  0
M  END
>  <MODEL>
4

>  <REMARK>
 VINA RESULT:      -6.4      3.456      4.573
  Name = 
  5 active torsions:
  status: ('A' for Active; 'I' for Inactive)
    1  A    between atoms: N_1  and  C_2
    2  A    between atoms: C_2  and  N_3
    3  A    between atoms: C_10  and  C_17
    4  A    between atoms: C_16  and  C_20
    5  A    between atoms: C_17  and  C_27
                            x       y       z     vdW  Elec       q    Type
                         _______ _______ _______ _____ _____    ______ ____

>  <TORSDO>
F 5

$$$$
=
 OpenBabel11052422473D

 28 31  0  0  1  0  0  0  0  0999 V2000
  161.9680  209.9970  152.9780 N   0  0  0  0  0  0  0  0  0  0  0  0
  161.2350  210.4110  150.8140 C   0  0  2  0  0  3  0  0  0  0  0  0
  160.7080  211.3910  151.8410 C   0  0  1  0  0  3  0  0  0  0  0  0
  159.3480  211.6050  151.6270 O   0  0  0  0  0  1  0  0  0  0  0  0
  160.9000  210.8310  153.1180 O   0  0  0  0  0  0  0  0  0  0  0  0
  161.8200  209.3380  151.6780 C   0  0  2  0  0  3  0  0  0  0  0  0
  162.1270  210.8130  148.6380 O   0  0  0  0  0  1  0  0  0  0  0  0
  162.3360  211.0610  149.9950 C   0  0  0  0  0  2  0  0  0  0  0  0
  161.9760  209.0560  154.0940 C   0  0  0  0  0  2  0  0  0  0  0  0
  161.3040  209.6450  155.2410 N   0  0  0  0  0  0  0  0  0  0  0  0
  160.9610  210.9060  157.2610 C   0  0  1  0  0  3  0  0  0  0  0  0
  159.9640  209.2950  155.6570 C   0  0  0  0  0  3  0  0  0  0  0  0
  163.0530  210.9920  156.0530 O   0  0  0  0  0  0  0  0  0  0  0  0
  161.8780  210.5490  156.1610 C   0  0  0  0  0  0  0  0  0  0  0  0
  160.6180  212.3830  157.1920 C   0  0  0  0  0  1  0  0  0  0  0  0
  159.7070  210.0800  156.9520 C   0  0  0  0  0  3  0  0  0  0  0  0
  160.8310  208.1590  151.6960 C   0  0  0  0  0  2  0  0  0  0  0  0
  161.4090  207.3150  148.9260 C   0  0  0  0  0  3  0  0  0  0  0  0
  161.0560  205.0110  149.5990 C   0  0  0  0  0  0  0  0  0  0  0  0
  161.5120  206.8210  151.3840 C   0  0  2  0  0  3  0  0  0  0  0  0
  160.9860  205.6280  147.2520 C   0  0  0  0  0  0  0  0  0  0  0  0
  161.2740  206.3670  149.9540 C   0  0  0  0  0  0  0  0  0  0  0  0
  161.8410  204.1920  151.8030 C   0  0  0  0  0  2  0  0  0  0  0  0
  160.8920  204.6620  148.2540 C   0  0  0  0  0  3  0  0  0  0  0  0
  160.9540  203.9150  150.6100 C   0  0  0  0  0  2  0  0  0  0  0  0
  160.8300  205.2760  145.9540 F   0  0  0  0  0  0  0  0  0  0  0  0
  161.2580  206.9530  147.5870 C   0  0  0  0  0  3  0  0  0  0  0  0
  161.1420  205.5970  152.7010 S   0  0  0  0  0  0  0  0  0  0  0  0
  1  5  1  0  0  0  0
  1  9  1  0  0  0  0
  2  8  1  6  0  0  0
  2  6  1  0  0  0  0
  2  3  1  0  0  0  0
  3  4  1  6  0  0  0
  3  5  1  0  0  0  0
  6 17  1  1  0  0  0
  6  1  1  0  0  0  0
  7  8  1  0  0  0  0
  9 10  1  0  0  0  0
 10 12  1  0  0  0  0
 10 14  1  0  0  0  0
 11 15  1  6  0  0  0
 12 16  2  0  0  0  0
 13 14  2  0  0  0  0
 14 11  1  0  0  0  0
 16 11  1  0  0  0  0
 18 22  1  0  0  0  0
 19 22  2  0  0  0  0
 19 25  1  0  0  0  0
 20 17  1  1  0  0  0
 20 28  1  0  0  0  0
 21 27  1  0  0  0  0
 21 24  2  0  0  0  0
 22 20  1  0  0  0  0
 23 28  1  0  0  0  0
 24 19  1  0  0  0  0
 25 23  1  0  0  0  0
 26 21  1  0  0  0  0
 27 18  2  0  0  0  0
M  END
>  <MODEL>
5

>  <REMARK>
 VINA RESULT:      -6.3      2.193      4.035
  Name = 
  5 active torsions:
  status: ('A' for Active; 'I' for Inactive)
    1  A    between atoms: N_1  and  C_2
    2  A    between atoms: C_2  and  N_3
    3  A    between atoms: C_10  and  C_17
    4  A    between atoms: C_16  and  C_20
    5  A    between atoms: C_17  and  C_27
                            x       y       z     vdW  Elec       q    Type
                         _______ _______ _______ _____ _____    ______ ____

>  <TORSDO>
F 5

$$$$
=
 OpenBabel11052422473D

 28 31  0  0  1  0  0  0  0  0999 V2000
  161.1840  206.9370  151.4440 N   0  0  0  0  0  0  0  0  0  0  0  0
  161.7010  204.6730  151.4210 C   0  0  2  0  0  3  0  0  0  0  0  0
  162.4870  205.4750  152.4370 C   0  0  1  0  0  3  0  0  0  0  0  0
  163.8280  205.0980  152.3940 O   0  0  0  0  0  1  0  0  0  0  0  0
  162.3710  206.8370  152.1040 O   0  0  0  0  0  0  0  0  0  0  0  0
  161.0750  205.7510  150.5920 C   0  0  2  0  0  3  0  0  0  0  0  0
  160.9240  202.5120  152.0670 O   0  0  0  0  0  1  0  0  0  0  0  0
  160.6170  203.8720  152.1180 C   0  0  0  0  0  2  0  0  0  0  0  0
  161.1730  208.1840  150.6860 C   0  0  0  0  0  2  0  0  0  0  0  0
  160.8560  209.2950  151.5680 N   0  0  0  0  0  0  0  0  0  0  0  0
  160.7840  211.5300  152.4550 C   0  0  1  0  0  3  0  0  0  0  0  0
  160.2530  209.1410  152.8730 C   0  0  0  0  0  3  0  0  0  0  0  0
  161.7380  211.0580  150.2850 O   0  0  0  0  0  0  0  0  0  0  0  0
  161.1730  210.6510  151.3360 C   0  0  0  0  0  0  0  0  0  0  0  0
  159.7050  212.4980  152.0050 C   0  0  0  0  0  1  0  0  0  0  0  0
  160.1920  210.5520  153.4780 C   0  0  0  0  0  3  0  0  0  0  0  0
  161.8760  205.8600  149.2820 C   0  0  0  0  0  2  0  0  0  0  0  0
  161.0320  203.1290  148.5400 C   0  0  0  0  0  3  0  0  0  0  0  0
  161.1250  203.7800  146.2050 C   0  0  0  0  0  0  0  0  0  0  0  0
  161.0110  205.5890  148.0450 C   0  0  2  0  0  3  0  0  0  0  0  0
  161.1350  201.4340  146.8250 C   0  0  0  0  0  0  0  0  0  0  0  0
  161.1040  204.1470  147.5740 C   0  0  0  0  0  0  0  0  0  0  0  0
  160.3720  206.0270  145.4760 C   0  0  0  0  0  2  0  0  0  0  0  0
  161.1640  202.4280  145.8470 C   0  0  0  0  0  3  0  0  0  0  0  0
  161.1440  204.7840  145.0970 C   0  0  0  0  0  2  0  0  0  0  0  0
  161.1690  200.1280  146.4650 F   0  0  0  0  0  0  0  0  0  0  0  0
  161.0560  201.7840  148.1710 C   0  0  0  0  0  3  0  0  0  0  0  0
  161.2980  206.8810  146.7740 S   0  0  0  0  0  0  0  0  0  0  0  0
  1  5  1  0  0  0  0
  2  8  1  1  0  0  0
  2  3  1  0  0  0  0
  3  4  1  6  0  0  0
  5  3  1  0  0  0  0
  6 17  1  6  0  0  0
  6  2  1  0  0  0  0
  6  1  1  0  0  0  0
  7  8  1  0  0  0  0
  9  1  1  0  0  0  0
  9 10  1  0  0  0  0
 10 12  1  0  0  0  0
 11 15  1  6  0  0  0
 11 16  1  0  0  0  0
 12 16  2  0  0  0  0
 13 14  2  0  0  0  0
 14 10  1  0  0  0  0
 14 11  1  0  0  0  0
 19 22  1  0  0  0  0
 20 17  1  1  0  0  0
 21 27  2  0  0  0  0
 22 20  1  0  0  0  0
 22 18  2  0  0  0  0
 23 28  1  0  0  0  0
 24 19  2  0  0  0  0
 24 21  1  0  0  0  0
 25 23  1  0  0  0  0
 25 19  1  0  0  0  0
 26 21  1  0  0  0  0
 27 18  1  0  0  0  0
 28 20  1  0  0  0  0
M  END
>  <MODEL>
6

>  <REMARK>
 VINA RESULT:      -6.2      3.696      5.167
  Name = 
  5 active torsions:
  status: ('A' for Active; 'I' for Inactive)
    1  A    between atoms: N_1  and  C_2
    2  A    between atoms: C_2  and  N_3
    3  A    between atoms: C_10  and  C_17
    4  A    between atoms: C_16  and  C_20
    5  A    between atoms: C_17  and  C_27
                            x       y       z     vdW  Elec       q    Type
                         _______ _______ _______ _____ _____    ______ ____

>  <TORSDO>
F 5

$$$$
=
 OpenBabel11052422473D

 28 31  0  0  1  0  0  0  0  0999 V2000
  161.5820  207.9950  152.9900 N   0  0  0  0  0  0  0  0  0  0  0  0
  160.8750  209.0610  154.9270 C   0  0  2  0  0  3  0  0  0  0  0  0
  160.6940  207.5580  154.9490 C   0  0  1  0  0  3  0  0  0  0  0  0
  159.4350  207.2460  155.4600 O   0  0  0  0  0  1  0  0  0  0  0  0
  160.7940  207.0860  153.6280 O   0  0  0  0  0  0  0  0  0  0  0  0
  161.1890  209.3160  153.4860 C   0  0  2  0  0  3  0  0  0  0  0  0
  162.5430  210.7030  155.3900 O   0  0  0  0  0  1  0  0  0  0  0  0
  162.0650  209.4530  155.7840 C   0  0  0  0  0  2  0  0  0  0  0  0
  161.3930  207.8510  151.5500 C   0  0  0  0  0  2  0  0  0  0  0  0
  161.3600  206.4400  151.1950 N   0  0  0  0  0  0  0  0  0  0  0  0
  160.7850  204.4120  150.0370 C   0  0  1  0  0  3  0  0  0  0  0  0
  161.9310  205.3920  152.0100 C   0  0  0  0  0  3  0  0  0  0  0  0
  160.0810  206.5770  149.2260 O   0  0  0  0  0  0  0  0  0  0  0  0
  160.6940  205.8840  150.0820 C   0  0  0  0  0  0  0  0  0  0  0  0
  161.5750  203.9760  148.8170 C   0  0  0  0  0  1  0  0  0  0  0  0
  161.5820  204.0730  151.3040 C   0  0  0  0  0  3  0  0  0  0  0  0
  159.9160  209.8680  152.8200 C   0  0  0  0  0  2  0  0  0  0  0  0
  158.1920  211.0780  154.8890 C   0  0  0  0  0  3  0  0  0  0  0  0
  157.7550  212.9290  153.3830 C   0  0  0  0  0  0  0  0  0  0  0  0
  159.7870  211.3880  152.9770 C   0  0  2  0  0  3  0  0  0  0  0  0
  156.2920  212.5170  155.2750 C   0  0  0  0  0  0  0  0  0  0  0  0
  158.5280  211.7910  153.7260 C   0  0  0  0  0  0  0  0  0  0  0  0
  159.5500  213.8510  151.9420 C   0  0  0  0  0  2  0  0  0  0  0  0
  156.6330  213.2650  154.1480 C   0  0  0  0  0  3  0  0  0  0  0  0
  158.0610  213.7900  152.1990 C   0  0  0  0  0  2  0  0  0  0  0  0
  155.2060  212.8560  156.0100 F   0  0  0  0  0  0  0  0  0  0  0  0
  157.0790  211.4310  155.6540 C   0  0  0  0  0  3  0  0  0  0  0  0
  160.0820  212.2210  151.3690 S   0  0  0  0  0  0  0  0  0  0  0  0
  1  6  1  0  0  0  0
  1  5  1  0  0  0  0
  2  3  1  0  0  0  0
  2  8  1  1  0  0  0
  3  4  1  6  0  0  0
  5  3  1  0  0  0  0
  6 17  1  6  0  0  0
  6  2  1  0  0  0  0
  7  8  1  0  0  0  0
  9  1  1  0  0  0  0
 10  9  1  0  0  0  0
 10 12  1  0  0  0  0
 11 15  1  6  0  0  0
 11 14  1  0  0  0  0
 11 16  1  0  0  0  0
 13 14  2  0  0  0  0
 14 10  1  0  0  0  0
 16 12  2  0  0  0  0
 18 27  1  0  0  0  0
 19 22  1  0  0  0  0
 19 24  2  0  0  0  0
 20 17  1  6  0  0  0
 20 22  1  0  0  0  0
 21 27  2  0  0  0  0
 21 26  1  0  0  0  0
 22 18  2  0  0  0  0
 23 25  1  0  0  0  0
 24 21  1  0  0  0  0
 25 19  1  0  0  0  0
 28 23  1  0  0  0  0
 28 20  1  0  0  0  0
M  END
>  <MODEL>
7

>  <REMARK>
 VINA RESULT:      -6.1      3.419      7.299
  Name = 
  5 active torsions:
  status: ('A' for Active; 'I' for Inactive)
    1  A    between atoms: N_1  and  C_2
    2  A    between atoms: C_2  and  N_3
    3  A    between atoms: C_10  and  C_17
    4  A    between atoms: C_16  and  C_20
    5  A    between atoms: C_17  and  C_27
                            x       y       z     vdW  Elec       q    Type
                         _______ _______ _______ _____ _____    ______ ____

>  <TORSDO>
F 5

$$$$
=
 OpenBabel11052422473D

 28 31  0  0  1  0  0  0  0  0999 V2000
  162.0680  205.0970  149.3920 N   0  0  0  0  0  0  0  0  0  0  0  0
  161.1690  204.1930  151.3320 C   0  0  2  0  0  3  0  0  0  0  0  0
  160.6630  203.5480  150.0600 C   0  0  1  0  0  3  0  0  0  0  0  0
  159.2810  203.3790  150.1390 O   0  0  0  0  0  1  0  0  0  0  0  0
  160.9700  204.4020  148.9840 O   0  0  0  0  0  0  0  0  0  0  0  0
  161.8670  205.4090  150.8090 C   0  0  2  0  0  3  0  0  0  0  0  0
  161.9530  201.9590  151.6280 O   0  0  0  0  0  1  0  0  0  0  0  0
  162.1760  203.2810  152.0110 C   0  0  0  0  0  2  0  0  0  0  0  0
  162.2020  206.2900  148.5620 C   0  0  0  0  0  2  0  0  0  0  0  0
  161.6800  206.0260  147.2300 N   0  0  0  0  0  0  0  0  0  0  0  0
  161.5730  205.2540  144.9540 C   0  0  1  0  0  3  0  0  0  0  0  0
  160.4520  206.5930  146.7190 C   0  0  0  0  0  3  0  0  0  0  0  0
  163.4340  204.7020  146.3930 O   0  0  0  0  0  0  0  0  0  0  0  0
  162.3260  205.2780  146.2230 C   0  0  0  0  0  0  0  0  0  0  0  0
  161.1180  203.8400  144.6460 C   0  0  0  0  0  1  0  0  0  0  0  0
  160.3470  206.1250  145.2600 C   0  0  0  0  0  3  0  0  0  0  0  0
  160.9450  206.6180  151.0470 C   0  0  0  0  0  2  0  0  0  0  0  0
  160.8450  206.8280  153.9910 C   0  0  0  0  0  3  0  0  0  0  0  0
  160.9220  209.2430  153.7790 C   0  0  0  0  0  0  0  0  0  0  0  0
  161.6500  207.7510  151.8010 C   0  0  2  0  0  3  0  0  0  0  0  0
  160.1650  208.2160  155.8450 C   0  0  0  0  0  0  0  0  0  0  0  0
  161.0870  207.9610  153.1970 C   0  0  0  0  0  0  0  0  0  0  0  0
  162.3460  210.3290  152.0650 C   0  0  0  0  0  2  0  0  0  0  0  0
  160.4410  209.3560  155.0890 C   0  0  0  0  0  3  0  0  0  0  0  0
  161.2060  210.5120  153.0410 C   0  0  0  0  0  2  0  0  0  0  0  0
  159.7050  208.3390  157.1130 F   0  0  0  0  0  0  0  0  0  0  0  0
  160.3800  206.9510  155.3000 C   0  0  0  0  0  3  0  0  0  0  0  0
  161.7720  209.2430  150.7380 S   0  0  0  0  0  0  0  0  0  0  0  0
  1  6  1  0  0  0  0
  2  8  1  6  0  0  0
  3  4  1  1  0  0  0
  3  2  1  0  0  0  0
  5  1  1  0  0  0  0
  5  3  1  0  0  0  0
  6 17  1  6  0  0  0
  6  2  1  0  0  0  0
  7  8  1  0  0  0  0
  9  1  1  0  0  0  0
 10  9  1  0  0  0  0
 11 15  1  1  0  0  0
 11 16  1  0  0  0  0
 11 14  1  0  0  0  0
 12 10  1  0  0  0  0
 14 13  2  0  0  0  0
 14 10  1  0  0  0  0
 16 12  2  0  0  0  0
 18 27  1  0  0  0  0
 19 24  2  0  0  0  0
 20 17  1  6  0  0  0
 20 22  1  0  0  0  0
 21 26  1  0  0  0  0
 22 19  1  0  0  0  0
 22 18  2  0  0  0  0
 23 25  1  0  0  0  0
 24 21  1  0  0  0  0
 25 19  1  0  0  0  0
 27 21  2  0  0  0  0
 28 20  1  0  0  0  0
 28 23  1  0  0  0  0
M  END
>  <MODEL>
8

>  <REMARK>
 VINA RESULT:      -6.1      5.036      7.962
  Name = 
  5 active torsions:
  status: ('A' for Active; 'I' for Inactive)
    1  A    between atoms: N_1  and  C_2
    2  A    between atoms: C_2  and  N_3
    3  A    between atoms: C_10  and  C_17
    4  A    between atoms: C_16  and  C_20
    5  A    between atoms: C_17  and  C_27
                            x       y       z     vdW  Elec       q    Type
                         _______ _______ _______ _____ _____    ______ ____

>  <TORSDO>
F 5

$$$$
=
 OpenBabel11052422473D

 28 31  0  0  1  0  0  0  0  0999 V2000
  161.8390  204.3010  149.2330 N   0  0  0  0  0  0  0  0  0  0  0  0
  160.9910  203.6050  151.2790 C   0  0  2  0  0  3  0  0  0  0  0  0
  160.4310  202.8520  150.0920 C   0  0  1  0  0  3  0  0  0  0  0  0
  159.0510  202.7190  150.2310 O   0  0  0  0  0  1  0  0  0  0  0  0
  160.7170  203.5920  148.9290 O   0  0  0  0  0  0  0  0  0  0  0  0
  161.6910  204.7510  150.6190 C   0  0  2  0  0  3  0  0  0  0  0  0
  161.9550  201.4370  151.5240 O   0  0  0  0  0  1  0  0  0  0  0  0
  162.0050  202.7440  152.0100 C   0  0  0  0  0  2  0  0  0  0  0  0
  161.9650  205.4060  148.2870 C   0  0  0  0  0  2  0  0  0  0  0  0
  161.5930  204.9590  146.9540 N   0  0  0  0  0  0  0  0  0  0  0  0
  160.5680  204.9430  144.7770 C   0  0  1  0  0  3  0  0  0  0  0  0
  161.8550  203.6310  146.4470 C   0  0  0  0  0  3  0  0  0  0  0  0
  160.4560  206.8820  146.2160 O   0  0  0  0  0  0  0  0  0  0  0  0
  160.8470  205.7010  146.0120 C   0  0  0  0  0  0  0  0  0  0  0  0
  161.2650  205.5960  143.5980 C   0  0  0  0  0  1  0  0  0  0  0  0
  161.2110  203.5780  145.0530 C   0  0  0  0  0  3  0  0  0  0  0  0
  160.7980  205.9960  150.7680 C   0  0  0  0  0  2  0  0  0  0  0  0
  160.8580  206.6290  153.6510 C   0  0  0  0  0  3  0  0  0  0  0  0
  160.9760  208.9850  153.0890 C   0  0  0  0  0  0  0  0  0  0  0  0
  161.5660  207.2050  151.3140 C   0  0  2  0  0  3  0  0  0  0  0  0
  160.3080  208.2880  155.3160 C   0  0  0  0  0  0  0  0  0  0  0  0
  161.0830  207.6290  152.6910 C   0  0  0  0  0  0  0  0  0  0  0  0
  162.3310  209.7720  151.1680 C   0  0  0  0  0  2  0  0  0  0  0  0
  160.5680  209.2990  154.3900 C   0  0  0  0  0  3  0  0  0  0  0  0
  161.2480  210.1260  152.1620 C   0  0  0  0  0  2  0  0  0  0  0  0
  159.9170  208.6040  156.5740 F   0  0  0  0  0  0  0  0  0  0  0  0
  160.4660  206.9520  154.9510 C   0  0  0  0  0  3  0  0  0  0  0  0
  161.6640  208.5240  150.0420 S   0  0  0  0  0  0  0  0  0  0  0  0
  1  6  1  0  0  0  0
  2  8  1  6  0  0  0
  3  4  1  1  0  0  0
  3  2  1  0  0  0  0
  5  1  1  0  0  0  0
  5  3  1  0  0  0  0
  6 17  1  6  0  0  0
  6  2  1  0  0  0  0
  7  8  1  0  0  0  0
  9  1  1  0  0  0  0
 10  9  1  0  0  0  0
 11 15  1  6  0  0  0
 11 16  1  0  0  0  0
 11 14  1  0  0  0  0
 12 10  1  0  0  0  0
 14 13  2  0  0  0  0
 14 10  1  0  0  0  0
 16 12  2  0  0  0  0
 18 27  1  0  0  0  0
 19 24  2  0  0  0  0
 20 17  1  6  0  0  0
 20 22  1  0  0  0  0
 21 26  1  0  0  0  0
 22 19  1  0  0  0  0
 22 18  2  0  0  0  0
 23 25  1  0  0  0  0
 24 21  1  0  0  0  0
 25 19  1  0  0  0  0
 27 21  2  0  0  0  0
 28 23  1  0  0  0  0
 28 20  1  0  0  0  0
M  END
>  <MODEL>
9

>  <REMARK>
 VINA RESULT:      -5.9      5.170      8.134
  Name = 
  5 active torsions:
  status: ('A' for Active; 'I' for Inactive)
    1  A    between atoms: N_1  and  C_2
    2  A    between atoms: C_2  and  N_3
    3  A    between atoms: C_10  and  C_17
    4  A    between atoms: C_16  and  C_20
    5  A    between atoms: C_17  and  C_27
                            x       y       z     vdW  Elec       q    Type
                         _______ _______ _______ _____ _____    ______ ____

>  <TORSDO>
F 5

$$$$
