=
 OpenBabel11062407423D

 27 31  0  0  1  0  0  0  0  0999 V2000
  161.1420  205.4060  152.1360 C   0  0  0  0  0  3  0  0  0  0  0  0
  161.3190  207.3460  150.6770 C   0  0  0  0  0  0  0  0  0  0  0  0
  160.6580  204.1590  148.6570 C   0  0  0  0  0  2  0  0  0  0  0  0
  161.4720  208.7080  150.3020 N   0  0  0  0  0  2  0  0  0  0  0  0
  160.4060  202.2850  150.2680 C   0  0  2  0  0  3  0  0  0  0  0  0
  161.2520  206.8800  151.9430 C   0  0  0  0  0  0  0  0  0  0  0  0
  161.4250  207.0920  148.3760 C   0  0  0  0  0  0  0  0  0  0  0  0
  161.0630  204.5490  151.1080 C   0  0  0  0  0  0  0  0  0  0  0  0
  161.2800  206.4490  149.5410 C   0  0  0  0  0  0  0  0  0  0  0  0
  161.0130  202.7040  148.9320 C   0  0  0  0  0  2  0  0  0  0  0  0
  161.5660  208.8820  148.5410 S   0  0  0  0  0  0  0  0  0  0  0  0
  161.0500  203.0770  151.4010 C   0  0  0  0  0  2  0  0  0  0  0  0
  161.1120  205.0290  149.7430 N   0  0  0  0  0  0  0  0  0  0  0  0
  160.6020  206.4960  146.1110 C   0  0  0  0  0  3  0  0  0  0  0  0
  161.9800  205.2000  144.5990 C   0  0  0  0  0  3  0  0  0  0  0  0
  162.9920  205.1410  145.5650 C   0  0  0  0  0  3  0  0  0  0  0  0
  162.8080  205.7550  146.8050 C   0  0  0  0  0  3  0  0  0  0  0  0
  161.6160  206.4400  147.0790 C   0  0  0  0  0  0  0  0  0  0  0  0
  160.7840  205.8750  144.8730 C   0  0  0  0  0  3  0  0  0  0  0  0
  161.4510  209.3470  155.4690 C   0  0  0  0  0  3  0  0  0  0  0  0
  161.3070  207.7530  153.1520 C   0  0  0  0  0  0  0  0  0  0  0  0
  161.4730  209.1470  153.0580 C   0  0  0  0  0  3  0  0  0  0  0  0
  161.5390  209.9400  154.2080 C   0  0  0  0  0  3  0  0  0  0  0  0
  161.2860  207.9630  155.5810 C   0  0  0  0  0  3  0  0  0  0  0  0
  161.2120  207.1740  154.4310 C   0  0  0  0  0  3  0  0  0  0  0  0
  161.2840  200.2010  149.3580 N   0  0  0  0  0  1  0  0  0  0  0  0
  160.6330  200.8030  150.5110 C   0  0  0  0  0  2  0  0  0  0  0  0
  2  6  2  0  0  0  0
  3 10  1  0  0  0  0
  3 13  1  0  0  0  0
  4  2  1  0  0  0  0
  5 27  1  1  0  0  0
  5 12  1  0  0  0  0
  6  1  1  0  0  0  0
  6 21  1  0  0  0  0
  7 11  1  0  0  0  0
  7  9  2  0  0  0  0
  8 12  1  0  0  0  0
  8  1  2  0  0  0  0
  9 13  1  0  0  0  0
  9  2  1  0  0  0  0
 10  5  1  0  0  0  0
 11  4  1  0  0  0  0
 13  8  1  0  0  0  0
 14 18  1  0  0  0  0
 15 19  1  0  0  0  0
 15 16  2  0  0  0  0
 16 17  1  0  0  0  0
 17 18  2  0  0  0  0
 18  7  1  0  0  0  0
 19 14  2  0  0  0  0
 20 24  1  0  0  0  0
 21 25  1  0  0  0  0
 22 21  2  0  0  0  0
 22 23  1  0  0  0  0
 23 20  2  0  0  0  0
 25 24  2  0  0  0  0
 26 27  1  0  0  0  0
M  END
>  <MODEL>
1

>  <REMARK>
 VINA RESULT:      -8.6      0.000      0.000
  Name = 
  3 active torsions:
  status: ('A' for Active; 'I' for Inactive)
    1  A    between atoms: C_9  and  C_15
    2  A    between atoms: C_13  and  C_22
    3  A    between atoms: C_14  and  C_17
                            x       y       z     vdW  Elec       q    Type
                         _______ _______ _______ _____ _____    ______ ____

>  <TORSDO>
F 3

$$$$
=
 OpenBabel11062407423D

 27 31  0  0  1  0  0  0  0  0999 V2000
  161.3280  209.3300  152.3650 C   0  0  0  0  0  3  0  0  0  0  0  0
  161.2110  206.9050  152.1950 C   0  0  0  0  0  0  0  0  0  0  0  0
  162.2130  208.4720  148.8470 C   0  0  0  0  0  2  0  0  0  0  0  0
  161.0350  205.5570  152.6120 N   0  0  0  0  0  2  0  0  0  0  0  0
  162.3860  210.9270  149.1870 C   0  0  2  0  0  3  0  0  0  0  0  0
  161.1730  207.9900  152.9990 C   0  0  0  0  0  0  0  0  0  0  0  0
  161.3470  205.8530  150.1350 C   0  0  0  0  0  0  0  0  0  0  0  0
  161.5480  209.4830  151.0520 C   0  0  0  0  0  0  0  0  0  0  0  0
  161.4040  207.0320  150.7660 C   0  0  0  0  0  0  0  0  0  0  0  0
  161.8980  209.8330  148.2410 C   0  0  0  0  0  2  0  0  0  0  0  0
  161.1100  204.4440  151.2350 S   0  0  0  0  0  0  0  0  0  0  0  0
  161.5980  210.8750  150.4910 C   0  0  0  0  0  2  0  0  0  0  0  0
  161.6150  208.3330  150.1760 N   0  0  0  0  0  0  0  0  0  0  0  0
  160.3720  206.3810  147.9140 C   0  0  0  0  0  3  0  0  0  0  0  0
  161.2580  205.3630  145.9030 C   0  0  0  0  0  3  0  0  0  0  0  0
  162.2000  204.6640  146.6670 C   0  0  0  0  0  3  0  0  0  0  0  0
  162.2250  204.8190  148.0540 C   0  0  0  0  0  3  0  0  0  0  0  0
  161.3160  205.6830  148.6810 C   0  0  0  0  0  0  0  0  0  0  0  0
  160.3410  206.2190  146.5270 C   0  0  0  0  0  3  0  0  0  0  0  0
  160.5550  207.8690  157.2610 C   0  0  0  0  0  3  0  0  0  0  0  0
  160.9570  207.9220  154.4740 C   0  0  0  0  0  0  0  0  0  0  0  0
  160.0990  206.9730  155.0600 C   0  0  0  0  0  3  0  0  0  0  0  0
  159.9030  206.9420  156.4430 C   0  0  0  0  0  3  0  0  0  0  0  0
  161.4110  208.8180  156.6960 C   0  0  0  0  0  3  0  0  0  0  0  0
  161.6130  208.8420  155.3140 C   0  0  0  0  0  3  0  0  0  0  0  0
  161.2460  212.2170  147.4620 N   0  0  0  0  0  1  0  0  0  0  0  0
  162.2030  212.2950  148.5540 C   0  0  0  0  0  2  0  0  0  0  0  0
  1  6  1  0  0  0  0
  2  4  1  0  0  0  0
  2  6  2  0  0  0  0
  3 13  1  0  0  0  0
  5 27  1  6  0  0  0
  5 12  1  0  0  0  0
  6 21  1  0  0  0  0
  7  9  2  0  0  0  0
  7 11  1  0  0  0  0
  8  1  2  0  0  0  0
  9  2  1  0  0  0  0
 10  3  1  0  0  0  0
 10  5  1  0  0  0  0
 11  4  1  0  0  0  0
 12  8  1  0  0  0  0
 13  9  1  0  0  0  0
 13  8  1  0  0  0  0
 14 18  1  0  0  0  0
 15 19  1  0  0  0  0
 15 16  2  0  0  0  0
 16 17  1  0  0  0  0
 17 18  2  0  0  0  0
 18  7  1  0  0  0  0
 19 14  2  0  0  0  0
 21 22  2  0  0  0  0
 21 25  1  0  0  0  0
 22 23  1  0  0  0  0
 23 20  2  0  0  0  0
 24 20  1  0  0  0  0
 25 24  2  0  0  0  0
 26 27  1  0  0  0  0
M  END
>  <MODEL>
2

>  <REMARK>
 VINA RESULT:      -8.1      2.394      4.961
  Name = 
  3 active torsions:
  status: ('A' for Active; 'I' for Inactive)
    1  A    between atoms: C_9  and  C_15
    2  A    between atoms: C_13  and  C_22
    3  A    between atoms: C_14  and  C_17
                            x       y       z     vdW  Elec       q    Type
                         _______ _______ _______ _____ _____    ______ ____

>  <TORSDO>
F 3

$$$$
=
 OpenBabel11062407423D

 27 31  0  0  1  0  0  0  0  0999 V2000
  161.5980  206.9660  149.8060 C   0  0  0  0  0  3  0  0  0  0  0  0
  160.9560  206.3380  152.0680 C   0  0  0  0  0  0  0  0  0  0  0  0
  161.0740  210.1460  151.6790 C   0  0  0  0  0  2  0  0  0  0  0  0
  160.6180  205.4920  153.1600 N   0  0  0  0  0  2  0  0  0  0  0  0
  161.6450  210.6440  149.3130 C   0  0  2  0  0  3  0  0  0  0  0  0
  161.2090  205.9300  150.8050 C   0  0  0  0  0  0  0  0  0  0  0  0
  160.8280  207.9270  153.7490 C   0  0  0  0  0  0  0  0  0  0  0  0
  161.6570  208.2710  150.1080 C   0  0  0  0  0  0  0  0  0  0  0  0
  161.0510  207.7320  152.4440 C   0  0  0  0  0  0  0  0  0  0  0  0
  161.9040  211.0370  150.7650 C   0  0  0  0  0  2  0  0  0  0  0  0
  160.4160  206.4230  154.6540 S   0  0  0  0  0  0  0  0  0  0  0  0
  162.1500  209.2280  149.0620 C   0  0  0  0  0  2  0  0  0  0  0  0
  161.3690  208.7310  151.4510 N   0  0  0  0  0  0  0  0  0  0  0  0
  159.9580  210.0490  154.6980 C   0  0  0  0  0  3  0  0  0  0  0  0
  161.4450  211.6090  155.8050 C   0  0  0  0  0  3  0  0  0  0  0  0
  162.5280  210.7550  155.5610 C   0  0  0  0  0  3  0  0  0  0  0  0
  162.3280  209.5520  154.8800 C   0  0  0  0  0  3  0  0  0  0  0  0
  161.0410  209.1930  154.4540 C   0  0  0  0  0  0  0  0  0  0  0  0
  160.1600  211.2570  155.3710 C   0  0  0  0  0  3  0  0  0  0  0  0
  161.0710  201.8350  149.4740 C   0  0  0  0  0  3  0  0  0  0  0  0
  161.1460  204.5060  150.3650 C   0  0  0  0  0  0  0  0  0  0  0  0
  161.1520  203.4400  151.2830 C   0  0  0  0  0  3  0  0  0  0  0  0
  161.1090  202.1140  150.8420 C   0  0  0  0  0  3  0  0  0  0  0  0
  161.0630  202.8820  148.5480 C   0  0  0  0  0  3  0  0  0  0  0  0
  161.0980  204.2070  148.9900 C   0  0  0  0  0  3  0  0  0  0  0  0
  161.4020  212.2300  147.4780 N   0  0  0  0  0  1  0  0  0  0  0  0
  162.3600  211.5970  148.3710 C   0  0  0  0  0  2  0  0  0  0  0  0
  1  8  2  0  0  0  0
  1  6  1  0  0  0  0
  2  9  1  0  0  0  0
  2  4  1  0  0  0  0
  4 11  1  0  0  0  0
  5 27  1  6  0  0  0
  5 10  1  0  0  0  0
  6  2  2  0  0  0  0
  7 18  1  0  0  0  0
  7 11  1  0  0  0  0
  8 13  1  0  0  0  0
  9  7  2  0  0  0  0
 10  3  1  0  0  0  0
 12  5  1  0  0  0  0
 12  8  1  0  0  0  0
 13  3  1  0  0  0  0
 13  9  1  0  0  0  0
 14 19  1  0  0  0  0
 16 15  1  0  0  0  0
 17 16  2  0  0  0  0
 18 14  2  0  0  0  0
 18 17  1  0  0  0  0
 19 15  2  0  0  0  0
 20 23  1  0  0  0  0
 21  6  1  0  0  0  0
 21 22  1  0  0  0  0
 23 22  2  0  0  0  0
 24 25  1  0  0  0  0
 24 20  2  0  0  0  0
 25 21  2  0  0  0  0
 26 27  1  0  0  0  0
M  END
>  <MODEL>
3

>  <REMARK>
 VINA RESULT:      -7.3      2.772      7.835
  Name = 
  3 active torsions:
  status: ('A' for Active; 'I' for Inactive)
    1  A    between atoms: C_9  and  C_15
    2  A    between atoms: C_13  and  C_22
    3  A    between atoms: C_14  and  C_17
                            x       y       z     vdW  Elec       q    Type
                         _______ _______ _______ _____ _____    ______ ____

>  <TORSDO>
F 3

$$$$
=
 OpenBabel11062407423D

 27 31  0  0  1  0  0  0  0  0999 V2000
  161.7110  207.3930  149.2000 C   0  0  0  0  0  3  0  0  0  0  0  0
  161.0970  206.5060  151.3820 C   0  0  0  0  0  0  0  0  0  0  0  0
  161.1500  210.3350  151.4190 C   0  0  0  0  0  2  0  0  0  0  0  0
  160.7810  205.5390  152.3750 N   0  0  0  0  0  2  0  0  0  0  0  0
  161.6950  211.1030  149.1190 C   0  0  2  0  0  3  0  0  0  0  0  0
  161.3460  206.2460  150.0800 C   0  0  0  0  0  0  0  0  0  0  0  0
  160.9560  207.8970  153.2300 C   0  0  0  0  0  0  0  0  0  0  0  0
  161.7510  208.6570  149.6450 C   0  0  0  0  0  0  0  0  0  0  0  0
  161.1720  207.8520  151.9100 C   0  0  0  0  0  0  0  0  0  0  0  0
  161.9580  211.3370  150.6050 C   0  0  0  0  0  2  0  0  0  0  0  0
  160.5760  206.2940  153.9650 S   0  0  0  0  0  0  0  0  0  0  0  0
  162.2210  209.7320  148.7090 C   0  0  0  0  0  2  0  0  0  0  0  0
  161.4660  208.9600  151.0320 N   0  0  0  0  0  0  0  0  0  0  0  0
  162.4480  209.5740  154.2900 C   0  0  0  0  0  3  0  0  0  0  0  0
  161.5330  211.3410  155.6720 C   0  0  0  0  0  3  0  0  0  0  0  0
  160.2410  210.8470  155.4560 C   0  0  0  0  0  3  0  0  0  0  0  0
  160.0520  209.7140  154.6620 C   0  0  0  0  0  3  0  0  0  0  0  0
  161.1540  209.0790  154.0710 C   0  0  0  0  0  0  0  0  0  0  0  0
  162.6370  210.7020  155.0920 C   0  0  0  0  0  3  0  0  0  0  0  0
  161.1590  202.2820  148.4030 C   0  0  0  0  0  3  0  0  0  0  0  0
  161.3030  204.8790  149.4840 C   0  0  0  0  0  0  0  0  0  0  0  0
  161.6300  204.6410  148.1360 C   0  0  0  0  0  3  0  0  0  0  0  0
  161.5640  203.3520  147.6000 C   0  0  0  0  0  3  0  0  0  0  0  0
  160.8320  202.5010  149.7430 C   0  0  0  0  0  3  0  0  0  0  0  0
  160.9060  203.7880  150.2800 C   0  0  0  0  0  3  0  0  0  0  0  0
  161.5850  212.4840  147.1140 N   0  0  0  0  0  1  0  0  0  0  0  0
  162.3860  212.1670  148.2850 C   0  0  0  0  0  2  0  0  0  0  0  0
  1  8  2  0  0  0  0
  1  6  1  0  0  0  0
  2  9  1  0  0  0  0
  2  4  1  0  0  0  0
  4 11  1  0  0  0  0
  5 27  1  6  0  0  0
  5 10  1  0  0  0  0
  6  2  2  0  0  0  0
  7 11  1  0  0  0  0
  7 18  1  0  0  0  0
  8 13  1  0  0  0  0
  9  7  2  0  0  0  0
 10  3  1  0  0  0  0
 12  5  1  0  0  0  0
 12  8  1  0  0  0  0
 13  3  1  0  0  0  0
 13  9  1  0  0  0  0
 14 19  1  0  0  0  0
 16 15  1  0  0  0  0
 17 16  2  0  0  0  0
 18 14  2  0  0  0  0
 18 17  1  0  0  0  0
 19 15  2  0  0  0  0
 20 24  1  0  0  0  0
 21  6  1  0  0  0  0
 21 25  1  0  0  0  0
 22 21  2  0  0  0  0
 23 22  1  0  0  0  0
 23 20  2  0  0  0  0
 24 25  2  0  0  0  0
 26 27  1  0  0  0  0
M  END
>  <MODEL>
4

>  <REMARK>
 VINA RESULT:      -6.8      2.464      7.903
  Name = 
  3 active torsions:
  status: ('A' for Active; 'I' for Inactive)
    1  A    between atoms: C_9  and  C_15
    2  A    between atoms: C_13  and  C_22
    3  A    between atoms: C_14  and  C_17
                            x       y       z     vdW  Elec       q    Type
                         _______ _______ _______ _____ _____    ______ ____

>  <TORSDO>
F 3

$$$$
=
 OpenBabel11062407423D

 27 31  0  0  1  0  0  0  0  0999 V2000
  161.0320  206.7920  152.3130 C   0  0  0  0  0  3  0  0  0  0  0  0
  161.6410  207.0370  149.9690 C   0  0  0  0  0  0  0  0  0  0  0  0
  162.0200  210.3550  151.8430 C   0  0  0  0  0  2  0  0  0  0  0  0
  161.8910  206.6590  148.6220 N   0  0  0  0  0  2  0  0  0  0  0  0
  161.4610  209.9410  154.2280 C   0  0  2  0  0  3  0  0  0  0  0  0
  161.3050  206.1980  150.9740 C   0  0  0  0  0  0  0  0  0  0  0  0
  162.0210  209.1320  149.0560 C   0  0  0  0  0  0  0  0  0  0  0  0
  161.1540  208.1040  152.5560 C   0  0  0  0  0  0  0  0  0  0  0  0
  161.7420  208.4650  150.1820 C   0  0  0  0  0  0  0  0  0  0  0  0
  161.2930  210.9100  153.0610 C   0  0  0  0  0  2  0  0  0  0  0  0
  162.2520  208.0720  147.6150 S   0  0  0  0  0  0  0  0  0  0  0  0
  160.7660  208.6220  153.9110 C   0  0  0  0  0  2  0  0  0  0  0  0
  161.5340  209.0180  151.4990 N   0  0  0  0  0  0  0  0  0  0  0  0
  163.0860  211.2570  148.3420 C   0  0  0  0  0  3  0  0  0  0  0  0
  161.9480  213.3740  148.6510 C   0  0  0  0  0  3  0  0  0  0  0  0
  160.8600  212.7080  149.2290 C   0  0  0  0  0  3  0  0  0  0  0  0
  160.8860  211.3190  149.3690 C   0  0  0  0  0  3  0  0  0  0  0  0
  161.9960  210.5900  148.9180 C   0  0  0  0  0  0  0  0  0  0  0  0
  163.0630  212.6480  148.2100 C   0  0  0  0  0  3  0  0  0  0  0  0
  160.8760  201.9300  150.5690 C   0  0  0  0  0  3  0  0  0  0  0  0
  161.1670  204.7210  150.8090 C   0  0  0  0  0  0  0  0  0  0  0  0
  160.8270  204.1360  149.5760 C   0  0  0  0  0  3  0  0  0  0  0  0
  160.6880  202.7500  149.4540 C   0  0  0  0  0  3  0  0  0  0  0  0
  161.2150  202.4950  151.8020 C   0  0  0  0  0  3  0  0  0  0  0  0
  161.3620  203.8790  151.9200 C   0  0  0  0  0  3  0  0  0  0  0  0
  159.6190  209.8360  155.8220 N   0  0  0  0  0  1  0  0  0  0  0  0
  160.8560  210.5260  155.4920 C   0  0  0  0  0  2  0  0  0  0  0  0
  1  8  2  0  0  0  0
  2  9  1  0  0  0  0
  2  6  2  0  0  0  0
  3 10  1  0  0  0  0
  4  2  1  0  0  0  0
  5 27  1  1  0  0  0
  6  1  1  0  0  0  0
  7  9  2  0  0  0  0
  8 12  1  0  0  0  0
  9 13  1  0  0  0  0
 10  5  1  0  0  0  0
 11  4  1  0  0  0  0
 11  7  1  0  0  0  0
 12  5  1  0  0  0  0
 13  3  1  0  0  0  0
 13  8  1  0  0  0  0
 14 18  1  0  0  0  0
 15 16  2  0  0  0  0
 16 17  1  0  0  0  0
 18  7  1  0  0  0  0
 18 17  2  0  0  0  0
 19 14  2  0  0  0  0
 19 15  1  0  0  0  0
 20 24  1  0  0  0  0
 21  6  1  0  0  0  0
 21 25  1  0  0  0  0
 22 21  2  0  0  0  0
 23 22  1  0  0  0  0
 23 20  2  0  0  0  0
 24 25  2  0  0  0  0
 27 26  1  0  0  0  0
M  END
>  <MODEL>
5

>  <REMARK>
 VINA RESULT:      -6.6      2.817      6.514
  Name = 
  3 active torsions:
  status: ('A' for Active; 'I' for Inactive)
    1  A    between atoms: C_9  and  C_15
    2  A    between atoms: C_13  and  C_22
    3  A    between atoms: C_14  and  C_17
                            x       y       z     vdW  Elec       q    Type
                         _______ _______ _______ _____ _____    ______ ____

>  <TORSDO>
F 3

$$$$
=
 OpenBabel11062407423D

 27 31  0  0  1  0  0  0  0  0999 V2000
  161.1340  206.0400  148.5840 C   0  0  0  0  0  3  0  0  0  0  0  0
  161.1940  203.8820  149.7090 C   0  0  0  0  0  0  0  0  0  0  0  0
  161.6870  203.4800  145.9320 C   0  0  0  0  0  2  0  0  0  0  0  0
  161.1760  202.9490  150.7810 N   0  0  0  0  0  2  0  0  0  0  0  0
  161.6980  205.7520  144.9280 C   0  0  2  0  0  3  0  0  0  0  0  0
  161.1580  205.2270  149.8330 C   0  0  0  0  0  0  0  0  0  0  0  0
  161.1850  201.9100  148.4910 C   0  0  0  0  0  0  0  0  0  0  0  0
  161.1930  205.4870  147.3650 C   0  0  0  0  0  0  0  0  0  0  0  0
  161.2160  203.2460  148.4090 C   0  0  0  0  0  0  0  0  0  0  0  0
  161.1970  204.3200  144.7600 C   0  0  0  0  0  2  0  0  0  0  0  0
  161.1870  201.2810  150.1820 S   0  0  0  0  0  0  0  0  0  0  0  0
  161.0670  206.3800  146.1650 C   0  0  0  0  0  2  0  0  0  0  0  0
  161.2540  204.0480  147.2090 N   0  0  0  0  0  0  0  0  0  0  0  0
  160.0860  201.3230  146.3450 C   0  0  0  0  0  3  0  0  0  0  0  0
  160.6650  199.2800  145.1790 C   0  0  0  0  0  3  0  0  0  0  0  0
  161.5820  198.9600  146.1880 C   0  0  0  0  0  3  0  0  0  0  0  0
  161.7480  199.8180  147.2770 C   0  0  0  0  0  3  0  0  0  0  0  0
  161.0060  201.0050  147.3540 C   0  0  0  0  0  0  0  0  0  0  0  0
  159.9140  200.4600  145.2600 C   0  0  0  0  0  3  0  0  0  0  0  0
  160.9790  207.3230  153.5930 C   0  0  0  0  0  3  0  0  0  0  0  0
  161.1150  205.9370  151.1450 C   0  0  0  0  0  0  0  0  0  0  0  0
  161.2630  205.2560  152.3680 C   0  0  0  0  0  3  0  0  0  0  0  0
  161.2010  205.9440  153.5830 C   0  0  0  0  0  3  0  0  0  0  0  0
  160.8310  208.0150  152.3870 C   0  0  0  0  0  3  0  0  0  0  0  0
  160.9020  207.3280  151.1740 C   0  0  0  0  0  3  0  0  0  0  0  0
  161.5810  205.8280  142.4940 N   0  0  0  0  0  1  0  0  0  0  0  0
  161.3350  206.5850  143.7110 C   0  0  0  0  0  2  0  0  0  0  0  0
  1  6  1  0  0  0  0
  2  6  2  0  0  0  0
  2  4  1  0  0  0  0
  3 13  1  0  0  0  0
  5 27  1  6  0  0  0
  5 12  1  0  0  0  0
  6 21  1  0  0  0  0
  7 11  1  0  0  0  0
  8  1  2  0  0  0  0
  9  7  2  0  0  0  0
  9  2  1  0  0  0  0
 10  5  1  0  0  0  0
 10  3  1  0  0  0  0
 11  4  1  0  0  0  0
 12  8  1  0  0  0  0
 13  8  1  0  0  0  0
 13  9  1  0  0  0  0
 14 18  1  0  0  0  0
 15 19  1  0  0  0  0
 15 16  2  0  0  0  0
 16 17  1  0  0  0  0
 17 18  2  0  0  0  0
 18  7  1  0  0  0  0
 19 14  2  0  0  0  0
 21 25  2  0  0  0  0
 21 22  1  0  0  0  0
 22 23  2  0  0  0  0
 23 20  1  0  0  0  0
 24 20  2  0  0  0  0
 25 24  1  0  0  0  0
 26 27  1  0  0  0  0
M  END
>  <MODEL>
6

>  <REMARK>
 VINA RESULT:      -6.6      2.993      5.188
  Name = 
  3 active torsions:
  status: ('A' for Active; 'I' for Inactive)
    1  A    between atoms: C_9  and  C_15
    2  A    between atoms: C_13  and  C_22
    3  A    between atoms: C_14  and  C_17
                            x       y       z     vdW  Elec       q    Type
                         _______ _______ _______ _____ _____    ______ ____

>  <TORSDO>
F 3

$$$$
=
 OpenBabel11062407423D

 27 31  0  0  1  0  0  0  0  0999 V2000
  161.6580  206.7690  148.4790 C   0  0  0  0  0  3  0  0  0  0  0  0
  161.0520  205.3380  150.3530 C   0  0  0  0  0  0  0  0  0  0  0  0
  161.0510  209.0280  151.3810 C   0  0  0  0  0  2  0  0  0  0  0  0
  160.7470  204.1430  151.0590 N   0  0  0  0  0  2  0  0  0  0  0  0
  161.5900  210.3720  149.3620 C   0  0  2  0  0  3  0  0  0  0  0  0
  161.3080  205.4280  149.0290 C   0  0  0  0  0  0  0  0  0  0  0  0
  160.8870  206.2010  152.4970 C   0  0  0  0  0  0  0  0  0  0  0  0
  161.6800  207.8740  149.2370 C   0  0  0  0  0  0  0  0  0  0  0  0
  161.1070  206.5020  151.2120 C   0  0  0  0  0  0  0  0  0  0  0  0
  161.8470  210.2160  150.8590 C   0  0  0  0  0  2  0  0  0  0  0  0
  160.5280  204.4580  152.7890 S   0  0  0  0  0  0  0  0  0  0  0  0
  162.1360  209.1620  148.6140 C   0  0  0  0  0  2  0  0  0  0  0  0
  161.3870  207.8040  150.6530 N   0  0  0  0  0  0  0  0  0  0  0  0
  160.4140  206.8890  154.8350 C   0  0  0  0  0  3  0  0  0  0  0  0
  161.4100  208.8950  155.7570 C   0  0  0  0  0  3  0  0  0  0  0  0
  162.0600  209.1360  154.5410 C   0  0  0  0  0  3  0  0  0  0  0  0
  161.8840  208.2580  153.4700 C   0  0  0  0  0  3  0  0  0  0  0  0
  161.0660  207.1280  153.6170 C   0  0  0  0  0  0  0  0  0  0  0  0
  160.5840  207.7720  155.9030 C   0  0  0  0  0  3  0  0  0  0  0  0
  161.1840  202.0300  146.3850 C   0  0  0  0  0  3  0  0  0  0  0  0
  161.2850  204.2620  148.1000 C   0  0  0  0  0  0  0  0  0  0  0  0
  161.5370  204.4000  146.7220 C   0  0  0  0  0  3  0  0  0  0  0  0
  161.4930  203.2920  145.8710 C   0  0  0  0  0  3  0  0  0  0  0  0
  160.9320  201.8750  147.7510 C   0  0  0  0  0  3  0  0  0  0  0  0
  160.9850  202.9810  148.6010 C   0  0  0  0  0  3  0  0  0  0  0  0
  161.2860  212.6780  148.6310 N   0  0  0  0  0  1  0  0  0  0  0  0
  162.2680  211.6250  148.8360 C   0  0  0  0  0  2  0  0  0  0  0  0
  1  6  1  0  0  0  0
  1  8  2  0  0  0  0
  2  4  1  0  0  0  0
  2  9  1  0  0  0  0
  4 11  1  0  0  0  0
  5 27  1  6  0  0  0
  5 10  1  0  0  0  0
  6  2  2  0  0  0  0
  7 11  1  0  0  0  0
  7 18  1  0  0  0  0
  8 13  1  0  0  0  0
  9  7  2  0  0  0  0
 10  3  1  0  0  0  0
 12  8  1  0  0  0  0
 12  5  1  0  0  0  0
 13  9  1  0  0  0  0
 13  3  1  0  0  0  0
 14 19  1  0  0  0  0
 15 19  2  0  0  0  0
 16 15  1  0  0  0  0
 17 18  1  0  0  0  0
 17 16  2  0  0  0  0
 18 14  2  0  0  0  0
 20 24  1  0  0  0  0
 21 25  1  0  0  0  0
 21  6  1  0  0  0  0
 22 21  2  0  0  0  0
 23 20  2  0  0  0  0
 23 22  1  0  0  0  0
 24 25  2  0  0  0  0
 26 27  1  0  0  0  0
M  END
>  <MODEL>
7

>  <REMARK>
 VINA RESULT:      -5.9      2.244      7.824
  Name = 
  3 active torsions:
  status: ('A' for Active; 'I' for Inactive)
    1  A    between atoms: C_9  and  C_15
    2  A    between atoms: C_13  and  C_22
    3  A    between atoms: C_14  and  C_17
                            x       y       z     vdW  Elec       q    Type
                         _______ _______ _______ _____ _____    ______ ____

>  <TORSDO>
F 3

$$$$
=
 OpenBabel11062407423D

 27 31  0  0  1  0  0  0  0  0999 V2000
  161.5260  208.6410  150.0400 C   0  0  0  0  0  3  0  0  0  0  0  0
  161.4560  210.1810  151.9240 C   0  0  0  0  0  0  0  0  0  0  0  0
  161.5950  206.5450  153.1210 C   0  0  0  0  0  2  0  0  0  0  0  0
  161.4290  211.4220  152.6170 N   0  0  0  0  0  2  0  0  0  0  0  0
  161.7580  205.0960  151.1100 C   0  0  2  0  0  3  0  0  0  0  0  0
  161.5690  210.0280  150.5860 C   0  0  0  0  0  0  0  0  0  0  0  0
  161.1450  209.3980  154.0820 C   0  0  0  0  0  0  0  0  0  0  0  0
  161.4280  207.5610  150.8260 C   0  0  0  0  0  0  0  0  0  0  0  0
  161.3060  209.0410  152.8030 C   0  0  0  0  0  0  0  0  0  0  0  0
  161.1010  205.2570  152.4780 C   0  0  0  0  0  2  0  0  0  0  0  0
  161.2200  211.1790  154.3600 S   0  0  0  0  0  0  0  0  0  0  0  0
  161.2970  206.2120  150.1790 C   0  0  0  0  0  2  0  0  0  0  0  0
  161.3280  207.7010  152.2640 N   0  0  0  0  0  0  0  0  0  0  0  0
  161.6750  208.2620  156.2240 C   0  0  0  0  0  3  0  0  0  0  0  0
  160.0870  206.7430  157.2430 C   0  0  0  0  0  3  0  0  0  0  0  0
  159.1940  206.9620  156.1870 C   0  0  0  0  0  3  0  0  0  0  0  0
  159.5430  207.8260  155.1470 C   0  0  0  0  0  3  0  0  0  0  0  0
  160.7810  208.4850  155.1680 C   0  0  0  0  0  0  0  0  0  0  0  0
  161.3300  207.3910  157.2600 C   0  0  0  0  0  3  0  0  0  0  0  0
  161.9860  213.2630  147.7720 C   0  0  0  0  0  3  0  0  0  0  0  0
  161.7060  211.1650  149.6300 C   0  0  0  0  0  0  0  0  0  0  0  0
  160.8220  212.2600  149.6410 C   0  0  0  0  0  3  0  0  0  0  0  0
  160.9630  213.3040  148.7220 C   0  0  0  0  0  3  0  0  0  0  0  0
  162.8740  212.1830  147.7480 C   0  0  0  0  0  3  0  0  0  0  0  0
  162.7360  211.1450  148.6710 C   0  0  0  0  0  3  0  0  0  0  0  0
  161.1410  203.9100  149.0710 N   0  0  0  0  0  1  0  0  0  0  0  0
  161.3840  203.7570  150.4970 C   0  0  0  0  0  2  0  0  0  0  0  0
  1  6  1  0  0  0  0
  1  8  2  0  0  0  0
  2  4  1  0  0  0  0
  2  9  1  0  0  0  0
  4 11  1  0  0  0  0
  5 27  1  6  0  0  0
  5 10  1  0  0  0  0
  6  2  2  0  0  0  0
  7 11  1  0  0  0  0
  7 18  1  0  0  0  0
  8 13  1  0  0  0  0
  9  7  2  0  0  0  0
 10  3  1  0  0  0  0
 12  8  1  0  0  0  0
 12  5  1  0  0  0  0
 13  9  1  0  0  0  0
 13  3  1  0  0  0  0
 14 19  1  0  0  0  0
 15 19  2  0  0  0  0
 16 15  1  0  0  0  0
 17 18  1  0  0  0  0
 17 16  2  0  0  0  0
 18 14  2  0  0  0  0
 20 23  1  0  0  0  0
 21 22  1  0  0  0  0
 21  6  1  0  0  0  0
 23 22  2  0  0  0  0
 24 20  2  0  0  0  0
 24 25  1  0  0  0  0
 25 21  2  0  0  0  0
 26 27  1  0  0  0  0
M  END
>  <MODEL>
8

>  <REMARK>
 VINA RESULT:      -5.9      3.062      6.849
  Name = 
  3 active torsions:
  status: ('A' for Active; 'I' for Inactive)
    1  A    between atoms: C_9  and  C_15
    2  A    between atoms: C_13  and  C_22
    3  A    between atoms: C_14  and  C_17
                            x       y       z     vdW  Elec       q    Type
                         _______ _______ _______ _____ _____    ______ ____

>  <TORSDO>
F 3

$$$$
=
 OpenBabel11062407423D

 27 31  0  0  1  0  0  0  0  0999 V2000
  161.4000  208.2990  149.6970 C   0  0  0  0  0  3  0  0  0  0  0  0
  161.2400  206.3440  151.1380 C   0  0  0  0  0  0  0  0  0  0  0  0
  160.3450  209.5410  153.0490 C   0  0  0  0  0  2  0  0  0  0  0  0
  161.2720  204.9740  151.5170 N   0  0  0  0  0  2  0  0  0  0  0  0
  160.4570  211.4340  151.4440 C   0  0  2  0  0  3  0  0  0  0  0  0
  161.4180  206.8200  149.8860 C   0  0  0  0  0  0  0  0  0  0  0  0
  160.9390  206.5790  153.4240 C   0  0  0  0  0  0  0  0  0  0  0  0
  161.1690  209.1510  150.7050 C   0  0  0  0  0  0  0  0  0  0  0  0
  161.0300  207.2340  152.2610 C   0  0  0  0  0  0  0  0  0  0  0  0
  160.7970  210.9830  152.8620 C   0  0  0  0  0  2  0  0  0  0  0  0
  161.0400  204.7850  153.2640 S   0  0  0  0  0  0  0  0  0  0  0  0
  161.2640  210.6240  150.4350 C   0  0  0  0  0  2  0  0  0  0  0  0
  160.9540  208.6610  152.0500 N   0  0  0  0  0  0  0  0  0  0  0  0
  161.9610  208.0700  155.1250 C   0  0  0  0  0  3  0  0  0  0  0  0
  160.8770  208.4320  157.2610 C   0  0  0  0  0  3  0  0  0  0  0  0
  159.8350  207.5760  156.8820 C   0  0  0  0  0  3  0  0  0  0  0  0
  159.8590  206.9630  155.6270 C   0  0  0  0  0  3  0  0  0  0  0  0
  160.9180  207.2140  154.7430 C   0  0  0  0  0  0  0  0  0  0  0  0
  161.9410  208.6760  156.3830 C   0  0  0  0  0  3  0  0  0  0  0  0
  162.1740  204.3550  146.4350 C   0  0  0  0  0  3  0  0  0  0  0  0
  161.6570  205.9530  148.6960 C   0  0  0  0  0  0  0  0  0  0  0  0
  161.3420  204.5820  148.6960 C   0  0  0  0  0  3  0  0  0  0  0  0
  161.5930  203.7890  147.5720 C   0  0  0  0  0  3  0  0  0  0  0  0
  162.4930  205.7160  146.4180 C   0  0  0  0  0  3  0  0  0  0  0  0
  162.2340  206.5090  147.5390 C   0  0  0  0  0  3  0  0  0  0  0  0
  159.9570  213.4750  150.2080 N   0  0  0  0  0  1  0  0  0  0  0  0
  160.7790  212.9070  151.2650 C   0  0  0  0  0  2  0  0  0  0  0  0
  1  6  1  0  0  0  0
  1  8  2  0  0  0  0
  2  4  1  0  0  0  0
  2  9  1  0  0  0  0
  4 11  1  0  0  0  0
  5 27  1  1  0  0  0
  5 10  1  0  0  0  0
  6  2  2  0  0  0  0
  7 18  1  0  0  0  0
  8 13  1  0  0  0  0
  9  7  2  0  0  0  0
 10  3  1  0  0  0  0
 11  7  1  0  0  0  0
 12  8  1  0  0  0  0
 12  5  1  0  0  0  0
 13  9  1  0  0  0  0
 13  3  1  0  0  0  0
 14 19  1  0  0  0  0
 16 15  1  0  0  0  0
 17 16  2  0  0  0  0
 18 14  2  0  0  0  0
 18 17  1  0  0  0  0
 19 15  2  0  0  0  0
 20 23  1  0  0  0  0
 21  6  1  0  0  0  0
 22 21  1  0  0  0  0
 23 22  2  0  0  0  0
 24 20  2  0  0  0  0
 24 25  1  0  0  0  0
 25 21  2  0  0  0  0
 26 27  1  0  0  0  0
M  END
>  <MODEL>
9

>  <REMARK>
 VINA RESULT:      -5.7      2.319      8.238
  Name = 
  3 active torsions:
  status: ('A' for Active; 'I' for Inactive)
    1  A    between atoms: C_9  and  C_15
    2  A    between atoms: C_13  and  C_22
    3  A    between atoms: C_14  and  C_17
                            x       y       z     vdW  Elec       q    Type
                         _______ _______ _______ _____ _____    ______ ____

>  <TORSDO>
F 3

$$$$
