=
 OpenBabel11052422433D

 31 34  0  0  1  0  0  0  0  0999 V2000
  160.1940  209.3800  153.0500 C   0  0  2  0  0  3  0  0  0  0  0  0
  160.3110  209.4550  154.5830 C   0  0  2  0  0  3  0  0  0  0  0  0
  161.5810  210.3140  156.5380 C   0  0  0  0  0  2  0  0  0  0  0  0
  161.5610  210.2250  155.0200 C   0  0  0  0  0  2  0  0  0  0  0  0
  160.8740  206.9690  154.2410 C   0  0  0  0  0  2  0  0  0  0  0  0
  161.5190  208.9470  157.1540 C   0  0  0  0  0  3  0  0  0  0  0  0
  161.3100  208.6430  152.4200 N   0  0  1  0  0  0  0  0  0  0  0  0
  160.8340  206.6760  157.2570 N   0  0  0  0  0  1  0  0  0  0  0  0
  161.8900  207.5770  153.2680 C   0  0  0  0  0  2  0  0  0  0  0  0
  160.2900  208.0290  155.1850 C   0  0  1  0  0  3  0  0  0  0  0  0
  160.8940  207.9210  156.5680 C   0  0  0  0  0  0  0  0  0  0  0  0
  158.6330  212.7240  152.1670 C   0  0  0  0  0  0  0  0  0  0  0  0
  159.9970  210.7370  152.4330 C   0  0  0  0  0  0  0  0  0  0  0  0
  159.6000  213.2810  151.3230 C   0  0  0  0  0  3  0  0  0  0  0  0
  157.5040  213.4180  152.4510 F   0  0  0  0  0  0  0  0  0  0  0  0
  158.8320  211.4570  152.7210 C   0  0  0  0  0  3  0  0  0  0  0  0
  160.9680  211.3010  151.5890 C   0  0  0  0  0  3  0  0  0  0  0  0
  160.7690  212.5700  151.0350 C   0  0  0  0  0  3  0  0  0  0  0  0
  162.3020  206.9040  149.6210 C   0  0  2  0  0  3  0  0  0  0  0  0
  161.1280  206.0480  150.0540 C   0  0  2  0  0  3  0  0  0  0  0  0
  160.8670  208.1190  151.1190 C   0  0  1  0  0  3  0  0  0  0  0  0
  161.9490  208.2980  150.0720 C   0  0  0  0  0  2  0  0  0  0  0  0
  160.4930  206.7050  151.1880 N   0  0  0  0  0  2  0  0  0  0  0  0
  160.9090  204.2300  151.7510 C   0  0  0  0  0  1  0  0  0  0  0  0
  161.5940  204.6630  150.4690 C   0  0  0  0  0  2  0  0  0  0  0  0
  162.4360  206.8760  148.2300 O   0  0  0  0  0  0  0  0  0  0  0  0
  160.9070  206.3450  147.6470 S   0  0  0  0  0  0  0  0  0  0  0  0
  161.6020  205.8330  146.0380 C   0  0  0  0  0  2  0  0  0  0  0  0
  161.7740  204.3200  145.9250 C   0  0  0  0  0  3  0  0  0  0  0  0
  161.5870  203.6320  147.2660 C   0  0  0  0  0  1  0  0  0  0  0  0
  160.8380  203.7310  144.8850 C   0  0  0  0  0  1  0  0  0  0  0  0
  1 13  1  6  0  0  0
  1  2  1  0  0  0  0
  2  4  1  6  0  0  0
  2 10  1  0  0  0  0
  3  6  1  0  0  0  0
  4  3  1  0  0  0  0
  7  1  1  0  0  0  0
  7  9  1  1  0  0  0
  9  5  1  0  0  0  0
 10  5  1  6  0  0  0
 10 11  1  0  0  0  0
 11  6  2  0  0  0  0
 11  8  1  0  0  0  0
 12 15  1  0  0  0  0
 12 16  1  0  0  0  0
 13 16  2  0  0  0  0
 14 12  2  0  0  0  0
 17 13  1  0  0  0  0
 18 14  1  0  0  0  0
 18 17  2  0  0  0  0
 19 26  1  6  0  0  0
 19 20  1  0  0  0  0
 19 22  1  0  0  0  0
 20 25  1  1  0  0  0
 20 23  1  0  0  0  0
 21 22  1  6  0  0  0
 21 23  1  0  0  0  0
 21  7  1  0  0  0  0
 25 24  1  0  0  0  0
 27 26  1  0  0  0  0
 28 27  1  0  0  0  0
 29 28  1  0  0  0  0
 29 30  1  0  0  0  0
 31 29  1  0  0  0  0
M  END
>  <MODEL>
1

>  <REMARK>
 VINA RESULT:      -6.5      0.000      0.000
  Name = 
  7 active torsions:
  status: ('A' for Active; 'I' for Inactive)
    1  A    between atoms: C_1  and  C_24
    2  A    between atoms: C_4  and  C_12
    3  A    between atoms: O_6  and  C_7
    4  A    between atoms: O_6  and  S_19
    5  A    between atoms: C_9  and  C_22
    6  A    between atoms: C_15  and  N_21
    7  A    between atoms: S_19  and  C_24
                            x       y       z     vdW  Elec       q    Type
                         _______ _______ _______ _____ _____    ______ ____

>  <TORSDO>
F 7

$$$$
=
 OpenBabel11052422433D

 31 34  0  0  1  0  0  0  0  0999 V2000
  160.5360  210.7400  154.1080 C   0  0  2  0  0  3  0  0  0  0  0  0
  159.3990  211.6810  154.5450 C   0  0  2  0  0  3  0  0  0  0  0  0
  157.0620  211.8900  155.3590 C   0  0  0  0  0  2  0  0  0  0  0  0
  158.1190  210.9090  154.8780 C   0  0  0  0  0  2  0  0  0  0  0  0
  159.4700  212.2470  152.0380 C   0  0  0  0  0  2  0  0  0  0  0  0
  156.8210  212.9610  154.3370 C   0  0  0  0  0  3  0  0  0  0  0  0
  160.2300  210.0000  152.8660 N   0  0  1  0  0  0  0  0  0  0  0  0
  157.4730  214.4530  152.6080 N   0  0  0  0  0  1  0  0  0  0  0  0
  159.3360  210.7240  151.9320 C   0  0  0  0  0  2  0  0  0  0  0  0
  159.1460  212.7470  153.4520 C   0  0  1  0  0  3  0  0  0  0  0  0
  157.7760  213.3880  153.5030 C   0  0  0  0  0  0  0  0  0  0  0  0
  160.7700  207.6810  156.3420 C   0  0  0  0  0  0  0  0  0  0  0  0
  160.9650  209.8210  155.2190 C   0  0  0  0  0  0  0  0  0  0  0  0
  161.7530  208.0680  157.2590 C   0  0  0  0  0  3  0  0  0  0  0  0
  160.2000  206.4550  156.4390 F   0  0  0  0  0  0  0  0  0  0  0  0
  160.3790  208.5550  155.3250 C   0  0  0  0  0  3  0  0  0  0  0  0
  161.9560  210.2040  156.1380 C   0  0  0  0  0  3  0  0  0  0  0  0
  162.3480  209.3290  157.1570 C   0  0  0  0  0  3  0  0  0  0  0  0
  161.5890  208.3810  150.1500 C   0  0  2  0  0  3  0  0  0  0  0  0
  162.2580  209.7350  150.0060 C   0  0  2  0  0  3  0  0  0  0  0  0
  161.4890  209.6070  152.2150 C   0  0  1  0  0  3  0  0  0  0  0  0
  161.3810  208.2130  151.6330 C   0  0  0  0  0  2  0  0  0  0  0  0
  161.8820  210.5420  151.1580 N   0  0  0  0  0  2  0  0  0  0  0  0
  162.2080  211.8900  148.7470 C   0  0  0  0  0  1  0  0  0  0  0  0
  161.8010  210.4290  148.7340 C   0  0  0  0  0  2  0  0  0  0  0  0
  162.4290  207.3720  149.6720 O   0  0  0  0  0  0  0  0  0  0  0  0
  161.5770  206.6750  148.3490 S   0  0  0  0  0  0  0  0  0  0  0  0
  160.5070  205.6850  149.4510 C   0  0  0  0  0  2  0  0  0  0  0  0
  161.2200  204.4620  150.0220 C   0  0  0  0  0  3  0  0  0  0  0  0
  160.9750  204.3150  151.5140 C   0  0  0  0  0  1  0  0  0  0  0  0
  160.8240  203.1940  149.2860 C   0  0  0  0  0  1  0  0  0  0  0  0
  1  2  1  0  0  0  0
  1 13  1  1  0  0  0
  2  4  1  6  0  0  0
  4  3  1  0  0  0  0
  6  3  1  0  0  0  0
  7  9  1  6  0  0  0
  7  1  1  0  0  0  0
  8 11  1  0  0  0  0
  9  5  1  0  0  0  0
 10  5  1  6  0  0  0
 10 11  1  0  0  0  0
 10  2  1  0  0  0  0
 11  6  2  0  0  0  0
 12 15  1  0  0  0  0
 12 14  1  0  0  0  0
 13 16  1  0  0  0  0
 13 17  2  0  0  0  0
 16 12  2  0  0  0  0
 17 18  1  0  0  0  0
 18 14  2  0  0  0  0
 19 26  1  1  0  0  0
 19 22  1  0  0  0  0
 20 25  1  6  0  0  0
 20 19  1  0  0  0  0
 20 23  1  0  0  0  0
 21 22  1  6  0  0  0
 21  7  1  0  0  0  0
 23 21  1  0  0  0  0
 25 24  1  0  0  0  0
 27 28  1  0  0  0  0
 27 26  1  0  0  0  0
 28 29  1  0  0  0  0
 29 30  1  0  0  0  0
 31 29  1  0  0  0  0
M  END
>  <MODEL>
2

>  <REMARK>
 VINA RESULT:      -6.5      2.552      5.149
  Name = 
  7 active torsions:
  status: ('A' for Active; 'I' for Inactive)
    1  A    between atoms: C_1  and  C_24
    2  A    between atoms: C_4  and  C_12
    3  A    between atoms: O_6  and  C_7
    4  A    between atoms: O_6  and  S_19
    5  A    between atoms: C_9  and  C_22
    6  A    between atoms: C_15  and  N_21
    7  A    between atoms: S_19  and  C_24
                            x       y       z     vdW  Elec       q    Type
                         _______ _______ _______ _____ _____    ______ ____

>  <TORSDO>
F 7

$$$$
=
 OpenBabel11052422433D

 31 34  0  0  1  0  0  0  0  0999 V2000
  160.6040  209.5550  152.5110 C   0  0  2  0  0  3  0  0  0  0  0  0
  160.7830  209.7870  154.0230 C   0  0  2  0  0  3  0  0  0  0  0  0
  162.2320  210.6630  155.8410 C   0  0  0  0  0  2  0  0  0  0  0  0
  162.1470  210.4050  154.3450 C   0  0  0  0  0  2  0  0  0  0  0  0
  160.9600  207.2220  153.9690 C   0  0  0  0  0  2  0  0  0  0  0  0
  161.9900  209.4010  156.6160 C   0  0  0  0  0  3  0  0  0  0  0  0
  161.5770  208.5900  151.9550 N   0  0  1  0  0  0  0  0  0  0  0  0
  160.9800  207.2860  156.9990 N   0  0  0  0  0  1  0  0  0  0  0  0
  162.0210  207.5530  152.9140 C   0  0  0  0  0  2  0  0  0  0  0  0
  160.5720  208.4590  154.7900 C   0  0  1  0  0  3  0  0  0  0  0  0
  161.2000  208.4200  156.1660 C   0  0  0  0  0  0  0  0  0  0  0  0
  161.4590  212.1970  149.9250 C   0  0  0  0  0  0  0  0  0  0  0  0
  160.5890  210.8460  151.7410 C   0  0  0  0  0  0  0  0  0  0  0  0
  160.5770  213.2280  150.2630 C   0  0  0  0  0  3  0  0  0  0  0  0
  162.3070  212.3490  148.8790 F   0  0  0  0  0  0  0  0  0  0  0  0
  161.4640  211.0090  150.6620 C   0  0  0  0  0  3  0  0  0  0  0  0
  159.7010  211.8820  152.0750 C   0  0  0  0  0  3  0  0  0  0  0  0
  159.6960  213.0700  151.3370 C   0  0  0  0  0  3  0  0  0  0  0  0
  162.2560  206.5260  149.2870 C   0  0  2  0  0  3  0  0  0  0  0  0
  161.0410  205.8200  149.8570 C   0  0  2  0  0  3  0  0  0  0  0  0
  161.0170  207.9930  150.7330 C   0  0  1  0  0  3  0  0  0  0  0  0
  162.0480  207.9800  149.6210 C   0  0  0  0  0  2  0  0  0  0  0  0
  160.5310  206.6290  150.9540 N   0  0  0  0  0  2  0  0  0  0  0  0
  160.8030  203.3600  149.5070 C   0  0  0  0  0  1  0  0  0  0  0  0
  161.4130  204.4420  150.3770 C   0  0  0  0  0  2  0  0  0  0  0  0
  162.3070  206.3610  147.9000 O   0  0  0  0  0  0  0  0  0  0  0  0
  160.6780  206.5320  147.3720 S   0  0  0  0  0  0  0  0  0  0  0  0
  160.9730  205.5450  145.8640 C   0  0  0  0  0  2  0  0  0  0  0  0
  161.8180  204.3010  146.1300 C   0  0  0  0  0  3  0  0  0  0  0  0
  161.1620  203.0480  145.5750 C   0  0  0  0  0  1  0  0  0  0  0  0
  163.2240  204.4570  145.5800 C   0  0  0  0  0  1  0  0  0  0  0  0
  1 13  1  6  0  0  0
  1  2  1  0  0  0  0
  2  4  1  6  0  0  0
  2 10  1  0  0  0  0
  3  6  1  0  0  0  0
  4  3  1  0  0  0  0
  7  1  1  0  0  0  0
  7  9  1  1  0  0  0
  9  5  1  0  0  0  0
 10  5  1  6  0  0  0
 10 11  1  0  0  0  0
 11  6  2  0  0  0  0
 11  8  1  0  0  0  0
 12 14  2  0  0  0  0
 12 16  1  0  0  0  0
 13 17  1  0  0  0  0
 14 18  1  0  0  0  0
 15 12  1  0  0  0  0
 16 13  2  0  0  0  0
 18 17  2  0  0  0  0
 19 26  1  6  0  0  0
 19 22  1  0  0  0  0
 19 20  1  0  0  0  0
 20 25  1  1  0  0  0
 20 23  1  0  0  0  0
 21 22  1  6  0  0  0
 21 23  1  0  0  0  0
 21  7  1  0  0  0  0
 24 25  1  0  0  0  0
 27 26  1  0  0  0  0
 28 29  1  0  0  0  0
 28 27  1  0  0  0  0
 30 29  1  0  0  0  0
 31 29  1  0  0  0  0
M  END
>  <MODEL>
3

>  <REMARK>
 VINA RESULT:      -6.4      1.358      1.722
  Name = 
  7 active torsions:
  status: ('A' for Active; 'I' for Inactive)
    1  A    between atoms: C_1  and  C_24
    2  A    between atoms: C_4  and  C_12
    3  A    between atoms: O_6  and  C_7
    4  A    between atoms: O_6  and  S_19
    5  A    between atoms: C_9  and  C_22
    6  A    between atoms: C_15  and  N_21
    7  A    between atoms: S_19  and  C_24
                            x       y       z     vdW  Elec       q    Type
                         _______ _______ _______ _____ _____    ______ ____

>  <TORSDO>
F 7

$$$$
=
 OpenBabel11052422433D

 31 34  0  0  1  0  0  0  0  0999 V2000
  160.8550  205.5170  148.8600 C   0  0  2  0  0  3  0  0  0  0  0  0
  161.0250  204.7990  147.5090 C   0  0  2  0  0  3  0  0  0  0  0  0
  162.4750  203.3930  146.0630 C   0  0  0  0  0  2  0  0  0  0  0  0
  162.3990  204.1330  147.3890 C   0  0  0  0  0  2  0  0  0  0  0  0
  161.1470  207.2380  146.7040 C   0  0  0  0  0  2  0  0  0  0  0  0
  162.1990  204.3210  144.9170 C   0  0  0  0  0  3  0  0  0  0  0  0
  161.8120  206.6290  149.0490 N   0  0  1  0  0  0  0  0  0  0  0  0
  161.1400  206.1700  143.8690 N   0  0  0  0  0  1  0  0  0  0  0  0
  162.2240  207.2950  147.7920 C   0  0  0  0  0  2  0  0  0  0  0  0
  160.7780  205.7920  146.3480 C   0  0  1  0  0  3  0  0  0  0  0  0
  161.3920  205.3810  145.0270 C   0  0  0  0  0  0  0  0  0  0  0  0
  160.8860  202.2690  150.8210 C   0  0  0  0  0  0  0  0  0  0  0  0
  160.8750  204.5560  150.0160 C   0  0  0  0  0  0  0  0  0  0  0  0
  160.9350  202.7280  152.1410 C   0  0  0  0  0  3  0  0  0  0  0  0
  160.8700  200.9370  150.5690 F   0  0  0  0  0  0  0  0  0  0  0  0
  160.8570  203.1800  149.7620 C   0  0  0  0  0  3  0  0  0  0  0  0
  160.9300  205.0150  151.3430 C   0  0  0  0  0  3  0  0  0  0  0  0
  160.9590  204.1020  152.4020 C   0  0  0  0  0  3  0  0  0  0  0  0
  162.5910  209.1130  151.2990 C   0  0  2  0  0  3  0  0  0  0  0  0
  161.6270  209.8680  150.4050 C   0  0  2  0  0  3  0  0  0  0  0  0
  161.2510  207.5890  150.0110 C   0  0  1  0  0  3  0  0  0  0  0  0
  162.1230  207.6820  151.2470 C   0  0  0  0  0  2  0  0  0  0  0  0
  161.0900  208.9250  149.4330 N   0  0  0  0  0  2  0  0  0  0  0  0
  161.7300  211.2080  148.3010 C   0  0  0  0  0  1  0  0  0  0  0  0
  162.3380  210.9950  149.6740 C   0  0  0  0  0  2  0  0  0  0  0  0
  162.5130  209.5910  152.6100 O   0  0  0  0  0  0  0  0  0  0  0  0
  160.8280  209.6740  152.9520 S   0  0  0  0  0  0  0  0  0  0  0  0
  161.0940  209.4450  154.7440 C   0  0  0  0  0  2  0  0  0  0  0  0
  160.3330  208.2460  155.3050 C   0  0  0  0  0  3  0  0  0  0  0  0
  160.7040  206.9600  154.5860 C   0  0  0  0  0  1  0  0  0  0  0  0
  160.5460  208.1040  156.8010 C   0  0  0  0  0  1  0  0  0  0  0  0
  1  7  1  0  0  0  0
  1 13  1  1  0  0  0
  2  4  1  6  0  0  0
  2  1  1  0  0  0  0
  3  4  1  0  0  0  0
  5  9  1  0  0  0  0
  6 11  2  0  0  0  0
  6  3  1  0  0  0  0
  7  9  1  6  0  0  0
  7 21  1  0  0  0  0
  8 11  1  0  0  0  0
 10  5  1  1  0  0  0
 10  2  1  0  0  0  0
 11 10  1  0  0  0  0
 12 14  1  0  0  0  0
 13 17  2  0  0  0  0
 14 18  2  0  0  0  0
 15 12  1  0  0  0  0
 16 13  1  0  0  0  0
 16 12  2  0  0  0  0
 17 18  1  0  0  0  0
 19 26  1  1  0  0  0
 20 25  1  6  0  0  0
 20 19  1  0  0  0  0
 21 22  1  1  0  0  0
 22 19  1  0  0  0  0
 23 21  1  0  0  0  0
 23 20  1  0  0  0  0
 24 25  1  0  0  0  0
 26 27  1  0  0  0  0
 27 28  1  0  0  0  0
 28 29  1  0  0  0  0
 29 31  1  0  0  0  0
 30 29  1  0  0  0  0
M  END
>  <MODEL>
4

>  <REMARK>
 VINA RESULT:      -6.3      3.649      8.616
  Name = 
  7 active torsions:
  status: ('A' for Active; 'I' for Inactive)
    1  A    between atoms: C_1  and  C_24
    2  A    between atoms: C_4  and  C_12
    3  A    between atoms: O_6  and  C_7
    4  A    between atoms: O_6  and  S_19
    5  A    between atoms: C_9  and  C_22
    6  A    between atoms: C_15  and  N_21
    7  A    between atoms: S_19  and  C_24
                            x       y       z     vdW  Elec       q    Type
                         _______ _______ _______ _____ _____    ______ ____

>  <TORSDO>
F 7

$$$$
=
 OpenBabel11052422433D

 31 34  0  0  1  0  0  0  0  0999 V2000
  160.6660  210.1950  154.0610 C   0  0  2  0  0  3  0  0  0  0  0  0
  159.7370  211.3580  154.4560 C   0  0  2  0  0  3  0  0  0  0  0  0
  157.4670  212.0570  155.1860 C   0  0  0  0  0  2  0  0  0  0  0  0
  158.3130  210.8720  154.7440 C   0  0  0  0  0  2  0  0  0  0  0  0
  160.0100  211.8730  151.9520 C   0  0  0  0  0  2  0  0  0  0  0  0
  157.4920  213.1460  154.1540 C   0  0  0  0  0  3  0  0  0  0  0  0
  160.2540  209.5250  152.8090 N   0  0  1  0  0  0  0  0  0  0  0  0
  158.5000  214.4530  152.4470 N   0  0  0  0  0  1  0  0  0  0  0  0
  159.5650  210.4110  151.8440 C   0  0  0  0  0  2  0  0  0  0  0  0
  159.7490  212.4430  153.3520 C   0  0  1  0  0  3  0  0  0  0  0  0
  158.5420  213.3560  153.3540 C   0  0  0  0  0  0  0  0  0  0  0  0
  160.0900  207.2580  156.3930 C   0  0  0  0  0  0  0  0  0  0  0  0
  160.8550  209.2170  155.1870 C   0  0  0  0  0  0  0  0  0  0  0  0
  161.1830  207.3580  157.2590 C   0  0  0  0  0  3  0  0  0  0  0  0
  159.1890  206.2580  156.5540 F   0  0  0  0  0  0  0  0  0  0  0  0
  159.9280  208.1840  155.3590 C   0  0  0  0  0  3  0  0  0  0  0  0
  161.9550  209.3130  156.0560 C   0  0  0  0  0  3  0  0  0  0  0  0
  162.1170  208.3850  157.0910 C   0  0  0  0  0  3  0  0  0  0  0  0
  161.3160  207.5350  150.2100 C   0  0  2  0  0  3  0  0  0  0  0  0
  162.2230  208.7330  150.0060 C   0  0  2  0  0  3  0  0  0  0  0  0
  161.4250  208.8720  152.2050 C   0  0  1  0  0  3  0  0  0  0  0  0
  161.0670  207.4910  151.6950 C   0  0  0  0  0  2  0  0  0  0  0  0
  161.9930  209.6580  151.1070 N   0  0  0  0  0  2  0  0  0  0  0  0
  162.2580  210.9020  148.7710 C   0  0  0  0  0  1  0  0  0  0  0  0
  161.9140  209.4270  148.6910 C   0  0  0  0  0  2  0  0  0  0  0  0
  161.9590  206.3640  149.8010 O   0  0  0  0  0  0  0  0  0  0  0  0
  160.9720  205.7300  148.5430 S   0  0  0  0  0  0  0  0  0  0  0  0
  161.4970  204.0140  148.8790 C   0  0  0  0  0  2  0  0  0  0  0  0
  160.6200  203.3220  149.9210 C   0  0  0  0  0  3  0  0  0  0  0  0
  160.4300  201.8480  149.6050 C   0  0  0  0  0  1  0  0  0  0  0  0
  161.1770  203.5020  151.3220 C   0  0  0  0  0  1  0  0  0  0  0  0
  1  2  1  0  0  0  0
  1 13  1  1  0  0  0
  2  4  1  6  0  0  0
  4  3  1  0  0  0  0
  6  3  1  0  0  0  0
  7  9  1  6  0  0  0
  7  1  1  0  0  0  0
  8 11  1  0  0  0  0
  9  5  1  0  0  0  0
 10  5  1  6  0  0  0
 10 11  1  0  0  0  0
 10  2  1  0  0  0  0
 11  6  2  0  0  0  0
 12 15  1  0  0  0  0
 12 14  1  0  0  0  0
 13 16  1  0  0  0  0
 13 17  2  0  0  0  0
 16 12  2  0  0  0  0
 17 18  1  0  0  0  0
 18 14  2  0  0  0  0
 19 26  1  1  0  0  0
 19 22  1  0  0  0  0
 20 25  1  6  0  0  0
 20 19  1  0  0  0  0
 20 23  1  0  0  0  0
 21 22  1  6  0  0  0
 21  7  1  0  0  0  0
 23 21  1  0  0  0  0
 25 24  1  0  0  0  0
 27 28  1  0  0  0  0
 27 26  1  0  0  0  0
 28 29  1  0  0  0  0
 29 31  1  0  0  0  0
 30 29  1  0  0  0  0
M  END
>  <MODEL>
5

>  <REMARK>
 VINA RESULT:      -6.2      2.467      5.031
  Name = 
  7 active torsions:
  status: ('A' for Active; 'I' for Inactive)
    1  A    between atoms: C_1  and  C_24
    2  A    between atoms: C_4  and  C_12
    3  A    between atoms: O_6  and  C_7
    4  A    between atoms: O_6  and  S_19
    5  A    between atoms: C_9  and  C_22
    6  A    between atoms: C_15  and  N_21
    7  A    between atoms: S_19  and  C_24
                            x       y       z     vdW  Elec       q    Type
                         _______ _______ _______ _____ _____    ______ ____

>  <TORSDO>
F 7

$$$$
=
 OpenBabel11052422433D

 31 34  0  0  1  0  0  0  0  0999 V2000
  160.9340  205.6470  148.9660 C   0  0  2  0  0  3  0  0  0  0  0  0
  161.0900  204.8990  147.6300 C   0  0  2  0  0  3  0  0  0  0  0  0
  162.5210  203.4500  146.2070 C   0  0  0  0  0  2  0  0  0  0  0  0
  162.4580  204.2180  147.5180 C   0  0  0  0  0  2  0  0  0  0  0  0
  161.2300  207.3200  146.7730 C   0  0  0  0  0  2  0  0  0  0  0  0
  162.2480  204.3560  145.0430 C   0  0  0  0  0  3  0  0  0  0  0  0
  161.9010  206.7530  149.1270 N   0  0  1  0  0  0  0  0  0  0  0  0
  161.2000  206.1930  143.9610 N   0  0  0  0  0  1  0  0  0  0  0  0
  162.3140  207.3890  147.8550 C   0  0  0  0  0  2  0  0  0  0  0  0
  160.8470  205.8700  146.4490 C   0  0  1  0  0  3  0  0  0  0  0  0
  161.4510  205.4260  145.1350 C   0  0  0  0  0  0  0  0  0  0  0  0
  161.0840  204.3820  152.5410 C   0  0  0  0  0  0  0  0  0  0  0  0
  160.9500  204.7100  150.1420 C   0  0  0  0  0  0  0  0  0  0  0  0
  160.9620  203.0000  152.3640 C   0  0  0  0  0  3  0  0  0  0  0  0
  161.2040  204.8950  153.7900 F   0  0  0  0  0  0  0  0  0  0  0  0
  161.0770  205.2340  151.4330 C   0  0  0  0  0  3  0  0  0  0  0  0
  160.8230  203.3210  149.9670 C   0  0  0  0  0  3  0  0  0  0  0  0
  160.8300  202.4690  151.0770 C   0  0  0  0  0  3  0  0  0  0  0  0
  162.7050  209.3350  151.2560 C   0  0  2  0  0  3  0  0  0  0  0  0
  161.6970  210.0370  150.3680 C   0  0  2  0  0  3  0  0  0  0  0  0
  161.3530  207.7380  150.0720 C   0  0  1  0  0  3  0  0  0  0  0  0
  162.2640  207.8940  151.2730 C   0  0  0  0  0  2  0  0  0  0  0  0
  161.1470  209.0490  149.4510 N   0  0  0  0  0  2  0  0  0  0  0  0
  161.6790  211.3240  148.2290 C   0  0  0  0  0  1  0  0  0  0  0  0
  162.3600  211.1490  149.5720 C   0  0  0  0  0  2  0  0  0  0  0  0
  162.6610  209.8600  152.5510 O   0  0  0  0  0  0  0  0  0  0  0  0
  161.0170  210.3080  152.7920 S   0  0  0  0  0  0  0  0  0  0  0  0
  161.2000  210.3240  154.6090 C   0  0  0  0  0  2  0  0  0  0  0  0
  160.4080  209.2110  155.2910 C   0  0  0  0  0  3  0  0  0  0  0  0
  160.8290  207.8370  154.7970 C   0  0  0  0  0  1  0  0  0  0  0  0
  160.5220  209.2950  156.8030 C   0  0  0  0  0  1  0  0  0  0  0  0
  1  7  1  0  0  0  0
  1 13  1  1  0  0  0
  2  4  1  6  0  0  0
  2  1  1  0  0  0  0
  3  4  1  0  0  0  0
  5  9  1  0  0  0  0
  6 11  2  0  0  0  0
  6  3  1  0  0  0  0
  7  9  1  6  0  0  0
  7 21  1  0  0  0  0
  8 11  1  0  0  0  0
 10  5  1  1  0  0  0
 10  2  1  0  0  0  0
 11 10  1  0  0  0  0
 12 15  1  0  0  0  0
 13 16  1  0  0  0  0
 14 12  1  0  0  0  0
 16 12  2  0  0  0  0
 17 13  2  0  0  0  0
 17 18  1  0  0  0  0
 18 14  2  0  0  0  0
 19 22  1  0  0  0  0
 19 26  1  1  0  0  0
 20 25  1  6  0  0  0
 20 19  1  0  0  0  0
 21 22  1  1  0  0  0
 23 21  1  0  0  0  0
 23 20  1  0  0  0  0
 24 25  1  0  0  0  0
 26 27  1  0  0  0  0
 27 28  1  0  0  0  0
 28 29  1  0  0  0  0
 29 31  1  0  0  0  0
 30 29  1  0  0  0  0
M  END
>  <MODEL>
6

>  <REMARK>
 VINA RESULT:      -5.9      3.254      8.445
  Name = 
  7 active torsions:
  status: ('A' for Active; 'I' for Inactive)
    1  A    between atoms: C_1  and  C_24
    2  A    between atoms: C_4  and  C_12
    3  A    between atoms: O_6  and  C_7
    4  A    between atoms: O_6  and  S_19
    5  A    between atoms: C_9  and  C_22
    6  A    between atoms: C_15  and  N_21
    7  A    between atoms: S_19  and  C_24
                            x       y       z     vdW  Elec       q    Type
                         _______ _______ _______ _____ _____    ______ ____

>  <TORSDO>
F 7

$$$$
=
 OpenBabel11052422433D

 31 34  0  0  1  0  0  0  0  0999 V2000
  161.8350  208.1850  151.6680 C   0  0  2  0  0  3  0  0  0  0  0  0
  161.7920  206.9170  150.7950 C   0  0  2  0  0  3  0  0  0  0  0  0
  160.5030  205.5450  149.1750 C   0  0  0  0  0  2  0  0  0  0  0  0
  160.4540  206.7790  150.0620 C   0  0  0  0  0  2  0  0  0  0  0  0
  161.6460  205.8300  153.1210 C   0  0  0  0  0  2  0  0  0  0  0  0
  160.8310  204.3210  149.9790 C   0  0  0  0  0  3  0  0  0  0  0  0
  160.8300  208.1770  152.7510 N   0  0  1  0  0  0  0  0  0  0  0  0
  161.9010  203.1440  151.7430 N   0  0  0  0  0  1  0  0  0  0  0  0
  160.4890  206.8260  153.2540 C   0  0  0  0  0  2  0  0  0  0  0  0
  162.0900  205.6690  151.6610 C   0  0  1  0  0  3  0  0  0  0  0  0
  161.5900  204.3650  151.0790 C   0  0  0  0  0  0  0  0  0  0  0  0
  161.0630  211.7510  150.6260 C   0  0  0  0  0  0  0  0  0  0  0  0
  161.7630  209.4400  150.8420 C   0  0  0  0  0  0  0  0  0  0  0  0
  161.6260  211.8070  149.3470 C   0  0  0  0  0  3  0  0  0  0  0  0
  160.4540  212.8450  151.1440 F   0  0  0  0  0  0  0  0  0  0  0  0
  161.1330  210.5710  151.3710 C   0  0  0  0  0  3  0  0  0  0  0  0
  162.3310  209.5000  149.5580 C   0  0  0  0  0  3  0  0  0  0  0  0
  162.2610  210.6820  148.8130 C   0  0  0  0  0  3  0  0  0  0  0  0
  159.9230  209.6400  155.7310 C   0  0  2  0  0  3  0  0  0  0  0  0
  161.1770  208.9110  156.1720 C   0  0  2  0  0  3  0  0  0  0  0  0
  161.2840  209.0600  153.8360 C   0  0  1  0  0  3  0  0  0  0  0  0
  160.1650  209.9800  154.2840 C   0  0  0  0  0  2  0  0  0  0  0  0
  161.7810  208.3090  154.9920 N   0  0  0  0  0  2  0  0  0  0  0  0
  159.7080  206.9550  156.6710 C   0  0  0  0  0  1  0  0  0  0  0  0
  160.8440  207.8230  157.1780 C   0  0  0  0  0  2  0  0  0  0  0  0
  159.7580  210.8130  156.4720 O   0  0  0  0  0  0  0  0  0  0  0  0
  159.7870  212.0810  155.3100 S   0  0  0  0  0  0  0  0  0  0  0  0
  158.1280  212.6740  155.7890 C   0  0  0  0  0  2  0  0  0  0  0  0
  157.1380  212.6590  154.6260 C   0  0  0  0  0  3  0  0  0  0  0  0
  157.8480  212.6940  153.2840 C   0  0  0  0  0  1  0  0  0  0  0  0
  156.2040  211.4650  154.7080 C   0  0  0  0  0  1  0  0  0  0  0  0
  1 13  1  6  0  0  0
  1  7  1  0  0  0  0
  2  4  1  1  0  0  0
  2 10  1  0  0  0  0
  2  1  1  0  0  0  0
  3  6  1  0  0  0  0
  3  4  1  0  0  0  0
  5  9  1  0  0  0  0
  6 11  2  0  0  0  0
  7  9  1  1  0  0  0
  7 21  1  0  0  0  0
 10  5  1  1  0  0  0
 11 10  1  0  0  0  0
 11  8  1  0  0  0  0
 12 15  1  0  0  0  0
 12 16  1  0  0  0  0
 13 16  2  0  0  0  0
 14 12  2  0  0  0  0
 17 13  1  0  0  0  0
 18 14  1  0  0  0  0
 18 17  2  0  0  0  0
 19 20  1  0  0  0  0
 19 26  1  1  0  0  0
 20 25  1  1  0  0  0
 21 22  1  1  0  0  0
 21 23  1  0  0  0  0
 22 19  1  0  0  0  0
 23 20  1  0  0  0  0
 24 25  1  0  0  0  0
 27 28  1  0  0  0  0
 27 26  1  0  0  0  0
 29 31  1  0  0  0  0
 29 28  1  0  0  0  0
 30 29  1  0  0  0  0
M  END
>  <MODEL>
7

>  <REMARK>
 VINA RESULT:      -5.8      3.104      6.835
  Name = 
  7 active torsions:
  status: ('A' for Active; 'I' for Inactive)
    1  A    between atoms: C_1  and  C_24
    2  A    between atoms: C_4  and  C_12
    3  A    between atoms: O_6  and  C_7
    4  A    between atoms: O_6  and  S_19
    5  A    between atoms: C_9  and  C_22
    6  A    between atoms: C_15  and  N_21
    7  A    between atoms: S_19  and  C_24
                            x       y       z     vdW  Elec       q    Type
                         _______ _______ _______ _____ _____    ______ ____

>  <TORSDO>
F 7

$$$$
=
 OpenBabel11052422433D

 31 34  0  0  1  0  0  0  0  0999 V2000
  161.1250  209.5610  150.7560 C   0  0  2  0  0  3  0  0  0  0  0  0
  161.1240  209.8790  152.2620 C   0  0  2  0  0  3  0  0  0  0  0  0
  162.4250  210.6610  154.2280 C   0  0  0  0  0  2  0  0  0  0  0  0
  162.5120  210.3040  152.7530 C   0  0  0  0  0  2  0  0  0  0  0  0
  160.8870  207.3210  152.3740 C   0  0  0  0  0  2  0  0  0  0  0  0
  161.8750  209.5150  155.0250 C   0  0  0  0  0  3  0  0  0  0  0  0
  161.9960  208.4190  150.4060 N   0  0  1  0  0  0  0  0  0  0  0  0
  160.4900  207.6160  155.3640 N   0  0  0  0  0  1  0  0  0  0  0  0
  162.1260  207.4030  151.4760 C   0  0  0  0  0  2  0  0  0  0  0  0
  160.5940  208.6630  153.0590 C   0  0  1  0  0  3  0  0  0  0  0  0
  161.0070  208.6350  154.5140 C   0  0  0  0  0  0  0  0  0  0  0  0
  161.0770  213.1330  149.4750 C   0  0  0  0  0  0  0  0  0  0  0  0
  161.4290  210.7760  149.9230 C   0  0  0  0  0  0  0  0  0  0  0  0
  161.9850  213.0710  148.4120 C   0  0  0  0  0  3  0  0  0  0  0  0
  160.4680  214.3050  149.7760 F   0  0  0  0  0  0  0  0  0  0  0  0
  160.8020  211.9880  150.2280 C   0  0  0  0  0  3  0  0  0  0  0  0
  162.3440  210.7180  148.8580 C   0  0  0  0  0  3  0  0  0  0  0  0
  162.6200  211.8640  148.1050 C   0  0  0  0  0  3  0  0  0  0  0  0
  162.4950  205.8520  148.1690 C   0  0  2  0  0  3  0  0  0  0  0  0
  161.0340  205.6230  148.5030 C   0  0  2  0  0  3  0  0  0  0  0  0
  161.5250  207.8210  149.1470 C   0  0  1  0  0  3  0  0  0  0  0  0
  162.6930  207.3380  148.3110 C   0  0  0  0  0  2  0  0  0  0  0  0
  160.6010  206.7070  149.3730 N   0  0  0  0  0  2  0  0  0  0  0  0
  160.4560  204.5220  150.6680 C   0  0  0  0  0  1  0  0  0  0  0  0
  160.8460  204.2960  149.2190 C   0  0  0  0  0  2  0  0  0  0  0  0
  162.7590  205.4620  146.8530 O   0  0  0  0  0  0  0  0  0  0  0  0
  161.2100  205.2620  146.1300 S   0  0  0  0  0  0  0  0  0  0  0  0
  161.6080  203.5780  145.5440 C   0  0  0  0  0  2  0  0  0  0  0  0
  160.6070  202.5330  146.0310 C   0  0  0  0  0  3  0  0  0  0  0  0
  160.0770  201.6870  144.8850 C   0  0  0  0  0  1  0  0  0  0  0  0
  161.2060  201.6530  147.1130 C   0  0  0  0  0  1  0  0  0  0  0  0
  1 13  1  6  0  0  0
  1  2  1  0  0  0  0
  2  4  1  1  0  0  0
  2 10  1  0  0  0  0
  3  6  1  0  0  0  0
  4  3  1  0  0  0  0
  7  1  1  0  0  0  0
  7  9  1  1  0  0  0
  9  5  1  0  0  0  0
 10  5  1  6  0  0  0
 10 11  1  0  0  0  0
 11  6  2  0  0  0  0
 11  8  1  0  0  0  0
 12 15  1  0  0  0  0
 12 16  1  0  0  0  0
 13 16  2  0  0  0  0
 14 12  2  0  0  0  0
 17 13  1  0  0  0  0
 18 14  1  0  0  0  0
 18 17  2  0  0  0  0
 19 26  1  6  0  0  0
 19 22  1  0  0  0  0
 19 20  1  0  0  0  0
 20 25  1  1  0  0  0
 20 23  1  0  0  0  0
 21 22  1  1  0  0  0
 21 23  1  0  0  0  0
 21  7  1  0  0  0  0
 25 24  1  0  0  0  0
 27 26  1  0  0  0  0
 28 29  1  0  0  0  0
 28 27  1  0  0  0  0
 29 31  1  0  0  0  0
 30 29  1  0  0  0  0
M  END
>  <MODEL>
8

>  <REMARK>
 VINA RESULT:      -5.5      1.921      2.547
  Name = 
  7 active torsions:
  status: ('A' for Active; 'I' for Inactive)
    1  A    between atoms: C_1  and  C_24
    2  A    between atoms: C_4  and  C_12
    3  A    between atoms: O_6  and  C_7
    4  A    between atoms: O_6  and  S_19
    5  A    between atoms: C_9  and  C_22
    6  A    between atoms: C_15  and  N_21
    7  A    between atoms: S_19  and  C_24
                            x       y       z     vdW  Elec       q    Type
                         _______ _______ _______ _____ _____    ______ ____

>  <TORSDO>
F 7

$$$$
=
 OpenBabel11052422433D

 31 34  0  0  1  0  0  0  0  0999 V2000
  161.7450  207.2530  153.0850 C   0  0  2  0  0  3  0  0  0  0  0  0
  161.2600  207.3720  154.5410 C   0  0  2  0  0  3  0  0  0  0  0  0
  159.3310  207.3230  156.1050 C   0  0  0  0  0  2  0  0  0  0  0  0
  159.7350  207.2600  154.6410 C   0  0  0  0  0  2  0  0  0  0  0  0
  161.9450  209.8150  154.1270 C   0  0  0  0  0  2  0  0  0  0  0  0
  159.8450  208.5780  156.7480 C   0  0  0  0  0  3  0  0  0  0  0  0
  161.2460  208.3410  152.2170 N   0  0  1  0  0  0  0  0  0  0  0  0
  161.4180  210.3280  157.0660 N   0  0  0  0  0  1  0  0  0  0  0  0
  161.0190  209.6230  152.9210 C   0  0  0  0  0  2  0  0  0  0  0  0
  161.7680  208.6950  155.1610 C   0  0  1  0  0  3  0  0  0  0  0  0
  160.9750  209.1760  156.3560 C   0  0  0  0  0  0  0  0  0  0  0  0
  161.3460  204.4410  150.5670 C   0  0  0  0  0  0  0  0  0  0  0  0
  161.4600  205.8950  152.5040 C   0  0  0  0  0  0  0  0  0  0  0  0
  160.9610  203.3740  151.3850 C   0  0  0  0  0  3  0  0  0  0  0  0
  161.4820  204.2550  149.2310 F   0  0  0  0  0  0  0  0  0  0  0  0
  161.5960  205.6980  151.1260 C   0  0  0  0  0  3  0  0  0  0  0  0
  161.0770  204.8200  153.3240 C   0  0  0  0  0  3  0  0  0  0  0  0
  160.8270  203.5620  152.7640 C   0  0  0  0  0  3  0  0  0  0  0  0
  161.4190  209.0100  148.8460 C   0  0  2  0  0  3  0  0  0  0  0  0
  162.3250  210.1050  149.3730 C   0  0  2  0  0  3  0  0  0  0  0  0
  162.1600  208.5040  151.0760 C   0  0  1  0  0  3  0  0  0  0  0  0
  161.5760  207.8760  149.8260 C   0  0  0  0  0  2  0  0  0  0  0  0
  162.4680  209.9110  150.8090 N   0  0  0  0  0  2  0  0  0  0  0  0
  162.6570  212.3090  148.2490 C   0  0  0  0  0  1  0  0  0  0  0  0
  161.7250  211.4760  149.1080 C   0  0  0  0  0  2  0  0  0  0  0  0
  161.8400  208.6010  147.5770 O   0  0  0  0  0  0  0  0  0  0  0  0
  162.2810  206.9490  147.7670 S   0  0  0  0  0  0  0  0  0  0  0  0
  161.0100  206.3850  146.5830 C   0  0  0  0  0  2  0  0  0  0  0  0
  161.4490  205.1600  145.7840 C   0  0  0  0  0  3  0  0  0  0  0  0
  161.2080  205.3450  144.2960 C   0  0  0  0  0  1  0  0  0  0  0  0
  162.9030  204.8160  146.0520 C   0  0  0  0  0  1  0  0  0  0  0  0
  1 13  1  6  0  0  0
  1  2  1  0  0  0  0
  2  4  1  6  0  0  0
  2 10  1  0  0  0  0
  3  6  1  0  0  0  0
  4  3  1  0  0  0  0
  7  9  1  1  0  0  0
  7  1  1  0  0  0  0
  9  5  1  0  0  0  0
 10  5  1  6  0  0  0
 10 11  1  0  0  0  0
 11  6  2  0  0  0  0
 11  8  1  0  0  0  0
 12 16  2  0  0  0  0
 12 14  1  0  0  0  0
 13 17  2  0  0  0  0
 14 18  2  0  0  0  0
 15 12  1  0  0  0  0
 16 13  1  0  0  0  0
 18 17  1  0  0  0  0
 19 26  1  6  0  0  0
 19 20  1  0  0  0  0
 19 22  1  0  0  0  0
 20 25  1  1  0  0  0
 20 23  1  0  0  0  0
 21 22  1  6  0  0  0
 21  7  1  0  0  0  0
 23 21  1  0  0  0  0
 24 25  1  0  0  0  0
 26 27  1  0  0  0  0
 28 27  1  0  0  0  0
 29 31  1  0  0  0  0
 29 28  1  0  0  0  0
 30 29  1  0  0  0  0
M  END
>  <MODEL>
9

>  <REMARK>
 VINA RESULT:      -5.5      2.603      4.942
  Name = 
  7 active torsions:
  status: ('A' for Active; 'I' for Inactive)
    1  A    between atoms: C_1  and  C_24
    2  A    between atoms: C_4  and  C_12
    3  A    between atoms: O_6  and  C_7
    4  A    between atoms: O_6  and  S_19
    5  A    between atoms: C_9  and  C_22
    6  A    between atoms: C_15  and  N_21
    7  A    between atoms: S_19  and  C_24
                            x       y       z     vdW  Elec       q    Type
                         _______ _______ _______ _____ _____    ______ ____

>  <TORSDO>
F 7

$$$$
