=
 OpenBabel11062408283D

 32 37  0  0  1  0  0  0  0  0999 V2000
  161.4140  208.5750  151.0080 C   0  0  0  0  0  0  0  0  0  0  0  0
  160.9770  206.5760  149.7080 C   0  0  0  0  0  0  0  0  0  0  0  0
  161.9190  209.9960  151.0840 C   0  0  0  0  0  2  0  0  0  0  0  0
  161.3750  207.9090  149.7650 C   0  0  0  0  0  0  0  0  0  0  0  0
  160.8680  205.9060  148.3620 C   0  0  2  0  0  3  0  0  0  0  0  0
  161.7480  202.3670  151.6670 C   0  0  0  0  0  2  0  0  0  0  0  0
  160.7970  205.8570  150.8870 C   0  0  0  0  0  0  0  0  0  0  0  0
  160.8930  202.3580  149.3070 C   0  0  0  0  0  2  0  0  0  0  0  0
  161.1190  203.8650  149.4550 C   0  0  1  0  0  3  0  0  0  0  0  0
  161.7380  208.5870  148.4580 C   0  0  2  0  0  3  0  0  0  0  0  0
  160.4900  204.5370  148.3860 O   0  0  0  0  0  0  0  0  0  0  0  0
  162.6020  207.6600  147.5830 C   0  0  0  0  0  2  0  0  0  0  0  0
  162.4700  209.9110  148.6640 C   0  0  0  0  0  2  0  0  0  0  0  0
  160.8450  206.5030  152.0820 N   0  0  0  0  0  0  0  0  0  0  0  0
  161.1170  207.8370  152.1830 C   0  0  0  0  0  0  0  0  0  0  0  0
  160.5800  204.3750  150.8110 C   0  0  1  0  0  3  0  0  0  0  0  0
  162.0950  206.1980  147.4820 C   0  0  2  0  0  3  0  0  0  0  0  0
  161.7870  210.7260  149.7520 C   0  0  0  0  0  2  0  0  0  0  0  0
  160.8840  201.6250  150.6500 C   0  0  0  0  0  2  0  0  0  0  0  0
  161.2220  203.7080  151.9610 N   0  0  0  0  0  2  0  0  0  0  0  0
  160.1950  207.9350  155.8070 C   0  0  0  0  0  0  0  0  0  0  0  0
  160.7750  211.1350  157.0680 O   0  0  0  0  0  1  0  0  0  0  0  0
  159.9850  207.0140  156.9670 C   0  0  0  0  0  1  0  0  0  0  0  0
  161.4290  210.5560  154.8880 C   0  0  0  0  0  3  0  0  0  0  0  0
  161.1310  208.4380  153.5400 C   0  0  0  0  0  0  0  0  0  0  0  0
  159.5800  209.2900  155.9080 C   0  0  0  0  0  2  0  0  0  0  0  0
  161.4100  209.7500  153.6510 C   0  0  0  0  0  3  0  0  0  0  0  0
  160.8810  207.5460  154.7140 C   0  0  0  0  0  0  0  0  0  0  0  0
  161.4260  206.1500  154.6420 C   0  0  0  0  0  1  0  0  0  0  0  0
  160.6370  210.3410  155.9370 C   0  0  0  0  0  0  0  0  0  0  0  0
  161.8650  205.7920  146.0280 C   0  0  0  0  0  2  0  0  0  0  0  0
  160.5010  206.2320  145.5190 C   0  0  0  0  0  1  0  0  0  0  0  0
  1  3  1  0  0  0  0
  1 15  1  0  0  0  0
  2  4  1  0  0  0  0
  2  7  2  0  0  0  0
  4  1  2  0  0  0  0
  5 11  1  1  0  0  0
  5  2  1  0  0  0  0
  6 20  1  0  0  0  0
  7 14  1  0  0  0  0
  8 19  1  0  0  0  0
  9  8  1  6  0  0  0
  9 16  1  0  0  0  0
 10 12  1  6  0  0  0
 10 13  1  0  0  0  0
 10  4  1  0  0  0  0
 11  9  1  0  0  0  0
 13 18  1  0  0  0  0
 14 15  2  0  0  0  0
 15 25  1  0  0  0  0
 16  7  1  1  0  0  0
 16 20  1  0  0  0  0
 17 31  1  6  0  0  0
 17 12  1  0  0  0  0
 17  5  1  0  0  0  0
 18  3  1  0  0  0  0
 19  6  1  0  0  0  0
 21 26  1  0  0  0  0
 21 23  1  0  0  0  0
 24 30  2  0  0  0  0
 25 27  2  0  0  0  0
 25 28  1  0  0  0  0
 26 30  1  0  0  0  0
 27 24  1  0  0  0  0
 28 21  2  0  0  0  0
 29 28  1  0  0  0  0
 30 22  1  0  0  0  0
 32 31  1  0  0  0  0
M  END
>  <MODEL>
1

>  <REMARK>
 VINA RESULT:     -10.2      0.000      0.000
  Name = 
  2 active torsions:
  status: ('A' for Active; 'I' for Inactive)
    1  A    between atoms: C_13  and  C_29
    2  A    between atoms: C_16  and  C_27
                            x       y       z     vdW  Elec       q    Type
                         _______ _______ _______ _____ _____    ______ ____

>  <TORSDO>
F 2

$$$$
=
 OpenBabel11062408283D

 32 37  0  0  1  0  0  0  0  0999 V2000
  161.4430  208.2590  150.6430 C   0  0  0  0  0  0  0  0  0  0  0  0
  160.9940  206.1840  149.4720 C   0  0  0  0  0  0  0  0  0  0  0  0
  161.9830  209.6680  150.6350 C   0  0  0  0  0  2  0  0  0  0  0  0
  161.4260  207.5070  149.4480 C   0  0  0  0  0  0  0  0  0  0  0  0
  160.9110  205.4220  148.1730 C   0  0  2  0  0  3  0  0  0  0  0  0
  161.5890  202.1070  151.7460 C   0  0  0  0  0  2  0  0  0  0  0  0
  160.7570  205.5550  150.6910 C   0  0  0  0  0  0  0  0  0  0  0  0
  160.8100  201.9510  149.3650 C   0  0  0  0  0  2  0  0  0  0  0  0
  161.0710  203.4590  149.4140 C   0  0  1  0  0  3  0  0  0  0  0  0
  161.8480  208.0820  148.1100 C   0  0  2  0  0  3  0  0  0  0  0  0
  160.4950  204.0690  148.2810 O   0  0  0  0  0  0  0  0  0  0  0  0
  162.7140  207.0740  147.3320 C   0  0  0  0  0  2  0  0  0  0  0  0
  162.6080  209.3990  148.2470 C   0  0  0  0  0  2  0  0  0  0  0  0
  160.7840  206.2830  151.8390 N   0  0  0  0  0  0  0  0  0  0  0  0
  161.0880  207.6140  151.8560 C   0  0  0  0  0  0  0  0  0  0  0  0
  160.5030  204.0770  150.7120 C   0  0  1  0  0  3  0  0  0  0  0  0
  162.1720  205.6220  147.3170 C   0  0  2  0  0  3  0  0  0  0  0  0
  161.9140  210.3060  149.2510 C   0  0  0  0  0  2  0  0  0  0  0  0
  160.7390  201.3160  150.7550 C   0  0  0  0  0  2  0  0  0  0  0  0
  161.0900  203.4780  151.9270 N   0  0  0  0  0  2  0  0  0  0  0  0
  160.9940  210.6620  154.0220 C   0  0  0  0  0  0  0  0  0  0  0  0
  161.9760  209.8170  157.2600 O   0  0  0  0  0  1  0  0  0  0  0  0
  160.3740  212.0220  154.0690 C   0  0  0  0  0  1  0  0  0  0  0  0
  161.6680  208.1650  155.6190 C   0  0  0  0  0  3  0  0  0  0  0  0
  161.0750  208.3100  153.1660 C   0  0  0  0  0  0  0  0  0  0  0  0
  162.2040  210.4480  154.8680 C   0  0  0  0  0  2  0  0  0  0  0  0
  161.5440  207.6500  154.2420 C   0  0  0  0  0  3  0  0  0  0  0  0
  160.4990  209.6880  153.2310 C   0  0  0  0  0  0  0  0  0  0  0  0
  159.3160  209.9790  152.3560 C   0  0  0  0  0  1  0  0  0  0  0  0
  161.9270  209.4350  155.9260 C   0  0  0  0  0  0  0  0  0  0  0  0
  161.9770  205.1190  145.8880 C   0  0  0  0  0  2  0  0  0  0  0  0
  160.7710  205.7550  145.2160 C   0  0  0  0  0  1  0  0  0  0  0  0
  1 15  1  0  0  0  0
  2  7  2  0  0  0  0
  3  1  1  0  0  0  0
  4  2  1  0  0  0  0
  4  1  2  0  0  0  0
  5 11  1  1  0  0  0
  5  2  1  0  0  0  0
  6 20  1  0  0  0  0
  7 14  1  0  0  0  0
  8 19  1  0  0  0  0
  9  8  1  1  0  0  0
  9 16  1  0  0  0  0
 10 12  1  1  0  0  0
 10 13  1  0  0  0  0
 10  4  1  0  0  0  0
 11  9  1  0  0  0  0
 13 18  1  0  0  0  0
 14 15  2  0  0  0  0
 15 25  1  0  0  0  0
 16  7  1  6  0  0  0
 16 20  1  0  0  0  0
 17 31  1  6  0  0  0
 17 12  1  0  0  0  0
 17  5  1  0  0  0  0
 18  3  1  0  0  0  0
 19  6  1  0  0  0  0
 21 23  1  0  0  0  0
 21 26  1  0  0  0  0
 24 30  2  0  0  0  0
 25 28  1  0  0  0  0
 25 27  2  0  0  0  0
 26 30  1  0  0  0  0
 27 24  1  0  0  0  0
 28 21  2  0  0  0  0
 29 28  1  0  0  0  0
 30 22  1  0  0  0  0
 32 31  1  0  0  0  0
M  END
>  <MODEL>
2

>  <REMARK>
 VINA RESULT:      -8.8      0.968      1.837
  Name = 
  2 active torsions:
  status: ('A' for Active; 'I' for Inactive)
    1  A    between atoms: C_13  and  C_29
    2  A    between atoms: C_16  and  C_27
                            x       y       z     vdW  Elec       q    Type
                         _______ _______ _______ _____ _____    ______ ____

>  <TORSDO>
F 2

$$$$
=
 OpenBabel11062408283D

 32 37  0  0  1  0  0  0  0  0999 V2000
  160.9420  204.4880  150.0550 C   0  0  0  0  0  0  0  0  0  0  0  0
  160.8780  206.7710  150.8700 C   0  0  0  0  0  0  0  0  0  0  0  0
  161.0390  203.0080  150.3330 C   0  0  0  0  0  2  0  0  0  0  0  0
  160.8950  205.4030  151.1290 C   0  0  0  0  0  0  0  0  0  0  0  0
  160.7500  207.7290  152.0270 C   0  0  2  0  0  3  0  0  0  0  0  0
  163.0810  210.1310  148.4190 C   0  0  0  0  0  2  0  0  0  0  0  0
  161.0910  207.2330  149.5740 C   0  0  0  0  0  0  0  0  0  0  0  0
  161.9040  210.8670  150.5100 C   0  0  0  0  0  2  0  0  0  0  0  0
  161.7240  209.3560  150.6760 C   0  0  1  0  0  3  0  0  0  0  0  0
  160.8470  204.9640  152.5790 C   0  0  2  0  0  3  0  0  0  0  0  0
  160.7730  209.1080  151.6880 O   0  0  0  0  0  0  0  0  0  0  0  0
  161.7850  205.8280  153.4430 C   0  0  0  0  0  2  0  0  0  0  0  0
  161.2060  203.4920  152.7630 C   0  0  0  0  0  2  0  0  0  0  0  0
  161.1440  206.3450  148.5450 N   0  0  0  0  0  0  0  0  0  0  0  0
  161.0490  204.9970  148.7340 C   0  0  0  0  0  0  0  0  0  0  0  0
  161.2840  208.7020  149.3460 C   0  0  1  0  0  3  0  0  0  0  0  0
  161.6940  207.3530  153.1810 C   0  0  2  0  0  3  0  0  0  0  0  0
  160.5030  202.6440  151.7140 C   0  0  0  0  0  2  0  0  0  0  0  0
  162.3080  211.2640  149.0900 C   0  0  0  0  0  2  0  0  0  0  0  0
  162.2570  208.9240  148.2580 N   0  0  0  0  0  2  0  0  0  0  0  0
  160.9610  204.3700  145.0480 C   0  0  0  0  0  0  0  0  0  0  0  0
  160.4560  200.9690  144.4590 O   0  0  0  0  0  1  0  0  0  0  0  0
  161.3910  205.0010  143.7620 C   0  0  0  0  0  1  0  0  0  0  0  0
  160.8070  201.7820  146.6340 C   0  0  0  0  0  3  0  0  0  0  0  0
  161.1080  204.1240  147.5360 C   0  0  0  0  0  0  0  0  0  0  0  0
  159.8890  203.3360  144.9600 C   0  0  0  0  0  2  0  0  0  0  0  0
  160.8510  202.8120  147.6900 C   0  0  0  0  0  3  0  0  0  0  0  0
  161.4950  204.7410  146.2290 C   0  0  0  0  0  0  0  0  0  0  0  0
  162.5270  205.8290  146.2630 C   0  0  0  0  0  1  0  0  0  0  0  0
  160.4130  202.0050  145.3820 C   0  0  0  0  0  0  0  0  0  0  0  0
  161.3600  208.1140  154.4620 C   0  0  0  0  0  2  0  0  0  0  0  0
  160.4340  207.3240  155.3730 C   0  0  0  0  0  1  0  0  0  0  0  0
  1  3  1  0  0  0  0
  1  4  1  0  0  0  0
  2  4  2  0  0  0  0
  3 18  1  0  0  0  0
  4 10  1  0  0  0  0
  5  2  1  6  0  0  0
  5 17  1  0  0  0  0
  6 19  1  0  0  0  0
  7  2  1  0  0  0  0
  9  8  1  6  0  0  0
  9 11  1  0  0  0  0
 10 13  1  6  0  0  0
 10 12  1  0  0  0  0
 11  5  1  0  0  0  0
 14 15  1  0  0  0  0
 14  7  2  0  0  0  0
 15  1  2  0  0  0  0
 16 20  1  6  0  0  0
 16  7  1  0  0  0  0
 16  9  1  0  0  0  0
 17 12  1  0  0  0  0
 17 31  1  1  0  0  0
 18 13  1  0  0  0  0
 19  8  1  0  0  0  0
 20  6  1  0  0  0  0
 21 28  2  0  0  0  0
 22 30  1  0  0  0  0
 23 21  1  0  0  0  0
 24 27  1  0  0  0  0
 25 27  2  0  0  0  0
 25 15  1  0  0  0  0
 26 21  1  0  0  0  0
 26 30  1  0  0  0  0
 28 29  1  0  0  0  0
 28 25  1  0  0  0  0
 30 24  2  0  0  0  0
 31 32  1  0  0  0  0
M  END
>  <MODEL>
3

>  <REMARK>
 VINA RESULT:      -8.3      2.277      8.396
  Name = 
  2 active torsions:
  status: ('A' for Active; 'I' for Inactive)
    1  A    between atoms: C_13  and  C_29
    2  A    between atoms: C_16  and  C_27
                            x       y       z     vdW  Elec       q    Type
                         _______ _______ _______ _____ _____    ______ ____

>  <TORSDO>
F 2

$$$$
=
 OpenBabel11062408283D

 32 37  0  0  1  0  0  0  0  0999 V2000
  161.2100  205.5150  150.9580 C   0  0  0  0  0  0  0  0  0  0  0  0
  161.6250  204.2920  148.9060 C   0  0  0  0  0  0  0  0  0  0  0  0
  160.8260  205.5180  152.4170 C   0  0  0  0  0  2  0  0  0  0  0  0
  161.3420  204.2900  150.2690 C   0  0  0  0  0  0  0  0  0  0  0  0
  161.8390  202.9740  148.2050 C   0  0  2  0  0  3  0  0  0  0  0  0
  160.2540  206.1680  144.8130 C   0  0  0  0  0  2  0  0  0  0  0  0
  161.5960  205.4880  148.1940 C   0  0  0  0  0  0  0  0  0  0  0  0
  161.3870  203.9320  144.6900 C   0  0  0  0  0  2  0  0  0  0  0  0
  161.2780  204.0410  146.2130 C   0  0  1  0  0  3  0  0  0  0  0  0
  161.2030  202.9450  150.9530 C   0  0  2  0  0  3  0  0  0  0  0  0
  162.0900  203.0540  146.8100 O   0  0  0  0  0  0  0  0  0  0  0  0
  160.3750  201.9750  150.0890 C   0  0  0  0  0  2  0  0  0  0  0  0
  160.5710  203.0490  152.3390 C   0  0  0  0  0  2  0  0  0  0  0  0
  161.4590  206.6640  148.8630 N   0  0  0  0  0  0  0  0  0  0  0  0
  161.2950  206.7230  150.2170 C   0  0  0  0  0  0  0  0  0  0  0  0
  161.6900  205.4500  146.6980 C   0  0  1  0  0  3  0  0  0  0  0  0
  160.7600  201.9480  148.5870 C   0  0  2  0  0  3  0  0  0  0  0  0
  161.1840  204.2080  153.1110 C   0  0  0  0  0  2  0  0  0  0  0  0
  161.1670  205.2700  143.9830 C   0  0  0  0  0  2  0  0  0  0  0  0
  160.8560  206.5160  146.1090 N   0  0  0  0  0  2  0  0  0  0  0  0
  162.2610  210.3090  150.6620 C   0  0  0  0  0  0  0  0  0  0  0  0
  160.9340  211.5060  153.6570 O   0  0  0  0  0  1  0  0  0  0  0  0
  162.7270  211.4830  149.8620 C   0  0  0  0  0  1  0  0  0  0  0  0
  160.3870  209.3660  152.8610 C   0  0  0  0  0  3  0  0  0  0  0  0
  161.1680  208.0630  150.8410 C   0  0  0  0  0  0  0  0  0  0  0  0
  162.5200  210.3540  152.1310 C   0  0  0  0  0  2  0  0  0  0  0  0
  160.5730  208.1500  152.0450 C   0  0  0  0  0  3  0  0  0  0  0  0
  161.6650  209.2500  150.0780 C   0  0  0  0  0  0  0  0  0  0  0  0
  161.4850  209.2330  148.5890 C   0  0  0  0  0  1  0  0  0  0  0  0
  161.2350  210.3930  152.8850 C   0  0  0  0  0  0  0  0  0  0  0  0
  161.1300  200.5360  148.1380 C   0  0  0  0  0  2  0  0  0  0  0  0
  160.9600  200.3490  146.6380 C   0  0  0  0  0  1  0  0  0  0  0  0
  1  3  1  0  0  0  0
  2  4  2  0  0  0  0
  3 18  1  0  0  0  0
  4 10  1  0  0  0  0
  4  1  1  0  0  0  0
  5 11  1  6  0  0  0
  5 17  1  0  0  0  0
  5  2  1  0  0  0  0
  6 20  1  0  0  0  0
  7 14  2  0  0  0  0
  7  2  1  0  0  0  0
  9  8  1  6  0  0  0
  9 16  1  0  0  0  0
  9 11  1  0  0  0  0
 10 12  1  6  0  0  0
 10 13  1  0  0  0  0
 13 18  1  0  0  0  0
 14 15  1  0  0  0  0
 15 25  1  0  0  0  0
 15  1  2  0  0  0  0
 16 20  1  6  0  0  0
 16  7  1  0  0  0  0
 17 31  1  1  0  0  0
 17 12  1  0  0  0  0
 19  8  1  0  0  0  0
 19  6  1  0  0  0  0
 21 26  1  0  0  0  0
 23 21  1  0  0  0  0
 24 30  2  0  0  0  0
 25 27  2  0  0  0  0
 26 30  1  0  0  0  0
 27 24  1  0  0  0  0
 28 21  2  0  0  0  0
 28 25  1  0  0  0  0
 29 28  1  0  0  0  0
 30 22  1  0  0  0  0
 32 31  1  0  0  0  0
M  END
>  <MODEL>
4

>  <REMARK>
 VINA RESULT:      -8.1      2.085      5.158
  Name = 
  2 active torsions:
  status: ('A' for Active; 'I' for Inactive)
    1  A    between atoms: C_13  and  C_29
    2  A    between atoms: C_16  and  C_27
                            x       y       z     vdW  Elec       q    Type
                         _______ _______ _______ _____ _____    ______ ____

>  <TORSDO>
F 2

$$$$
=
 OpenBabel11062408283D

 32 37  0  0  1  0  0  0  0  0999 V2000
  160.6150  208.0600  154.1110 C   0  0  0  0  0  0  0  0  0  0  0  0
  159.7020  210.3030  154.2370 C   0  0  0  0  0  0  0  0  0  0  0  0
  161.2160  206.8580  154.7990 C   0  0  0  0  0  2  0  0  0  0  0  0
  160.1890  209.1670  154.8770 C   0  0  0  0  0  0  0  0  0  0  0  0
  159.1810  211.4430  155.0740 C   0  0  2  0  0  3  0  0  0  0  0  0
  160.7000  213.3670  150.8060 C   0  0  0  0  0  2  0  0  0  0  0  0
  159.8070  210.4160  152.8530 C   0  0  0  0  0  0  0  0  0  0  0  0
  159.2270  214.2070  152.6570 C   0  0  0  0  0  2  0  0  0  0  0  0
  159.5860  212.8460  153.2600 C   0  0  1  0  0  3  0  0  0  0  0  0
  160.2210  209.1770  156.3930 C   0  0  2  0  0  3  0  0  0  0  0  0
  158.7320  212.5810  154.3510 O   0  0  0  0  0  0  0  0  0  0  0  0
  160.7450  210.5280  156.9190 C   0  0  0  0  0  2  0  0  0  0  0  0
  161.0690  208.0480  156.9730 C   0  0  0  0  0  2  0  0  0  0  0  0
  160.2270  209.3490  152.1220 N   0  0  0  0  0  0  0  0  0  0  0  0
  160.6050  208.1700  152.6970 C   0  0  0  0  0  0  0  0  0  0  0  0
  159.4780  211.7260  152.2010 C   0  0  1  0  0  3  0  0  0  0  0  0
  160.1330  211.7760  156.2340 C   0  0  2  0  0  3  0  0  0  0  0  0
  160.7700  206.7420  156.2530 C   0  0  0  0  0  2  0  0  0  0  0  0
  159.5410  214.2940  151.1620 C   0  0  0  0  0  2  0  0  0  0  0  0
  160.3670  211.9540  151.0450 N   0  0  0  0  0  2  0  0  0  0  0  0
  161.3730  206.6950  149.3460 C   0  0  0  0  0  0  0  0  0  0  0  0
  161.4870  203.2190  149.6050 O   0  0  0  0  0  1  0  0  0  0  0  0
  161.9670  207.0790  148.0280 C   0  0  0  0  0  1  0  0  0  0  0  0
  161.2610  204.5680  151.5130 C   0  0  0  0  0  3  0  0  0  0  0  0
  161.0340  207.0690  151.7990 C   0  0  0  0  0  0  0  0  0  0  0  0
  160.5000  205.4860  149.3600 C   0  0  0  0  0  2  0  0  0  0  0  0
  160.9400  205.8050  152.2510 C   0  0  0  0  0  3  0  0  0  0  0  0
  161.5930  207.4260  150.4580 C   0  0  0  0  0  0  0  0  0  0  0  0
  162.4310  208.6670  150.3710 C   0  0  0  0  0  1  0  0  0  0  0  0
  161.1070  204.4140  150.2000 C   0  0  0  0  0  0  0  0  0  0  0  0
  159.4830  212.7040  157.2580 C   0  0  0  0  0  2  0  0  0  0  0  0
  157.9660  212.5930  157.2510 C   0  0  0  0  0  1  0  0  0  0  0  0
  1  3  1  0  0  0  0
  1  4  1  0  0  0  0
  2  4  2  0  0  0  0
  3 18  1  0  0  0  0
  4 10  1  0  0  0  0
  5  2  1  6  0  0  0
  5 17  1  0  0  0  0
  6 20  1  0  0  0  0
  6 19  1  0  0  0  0
  7  2  1  0  0  0  0
  9  8  1  6  0  0  0
  9 11  1  0  0  0  0
 10 12  1  6  0  0  0
 10 13  1  0  0  0  0
 11  5  1  0  0  0  0
 14 15  1  0  0  0  0
 14  7  2  0  0  0  0
 15  1  2  0  0  0  0
 16 20  1  6  0  0  0
 16  7  1  0  0  0  0
 16  9  1  0  0  0  0
 17 12  1  0  0  0  0
 17 31  1  1  0  0  0
 18 13  1  0  0  0  0
 19  8  1  0  0  0  0
 21 26  1  0  0  0  0
 21 28  2  0  0  0  0
 22 30  1  0  0  0  0
 23 21  1  0  0  0  0
 24 27  1  0  0  0  0
 25 27  2  0  0  0  0
 25 15  1  0  0  0  0
 26 30  1  0  0  0  0
 28 25  1  0  0  0  0
 29 28  1  0  0  0  0
 30 24  2  0  0  0  0
 32 31  1  0  0  0  0
M  END
>  <MODEL>
5

>  <REMARK>
 VINA RESULT:      -7.7      2.399      8.371
  Name = 
  2 active torsions:
  status: ('A' for Active; 'I' for Inactive)
    1  A    between atoms: C_13  and  C_29
    2  A    between atoms: C_16  and  C_27
                            x       y       z     vdW  Elec       q    Type
                         _______ _______ _______ _____ _____    ______ ____

>  <TORSDO>
F 2

$$$$
