=
 OpenBabel11052422043D

 30 32  0  0  1  0  0  0  0  0999 V2000
  161.9720  211.4870  149.4720 C   0  0  0  0  0  0  0  0  0  0  0  0
  161.5430  213.0390  147.2140 S   0  0  0  0  0  0  0  0  0  0  0  0
  157.5510  213.7370  149.0500 N   0  0  0  0  0  0  0  0  0  0  0  0
  160.0590  214.4520  151.1270 C   0  0  0  0  0  1  0  0  0  0  0  0
  161.3060  210.3630  150.0630 N   0  0  0  0  0  2  0  0  0  0  0  0
  161.7090  209.9680  153.1370 C   0  0  2  0  0  3  0  0  0  0  0  0
  162.6820  209.6740  151.9960 C   0  0  0  0  0  2  0  0  0  0  0  0
  161.0790  208.0760  150.8760 C   0  0  0  0  0  1  0  0  0  0  0  0
  157.8180  212.8110  152.8310 C   0  0  1  0  0  3  0  0  0  0  0  0
  157.2120  213.5980  150.4370 C   0  0  0  0  0  0  0  0  0  0  0  0
  162.0170  209.2530  150.6800 C   0  0  1  0  0  3  0  0  0  0  0  0
  161.1290  211.3740  152.9970 C   0  0  0  0  0  2  0  0  0  0  0  0
  159.9620  212.4780  146.5210 C   0  0  0  0  0  2  0  0  0  0  0  0
  158.4840  210.0160  152.7380 O   0  0  0  0  0  0  0  0  0  0  0  0
  162.4650  209.8400  154.4450 C   0  0  0  0  0  1  0  0  0  0  0  0
  163.2290  211.5080  149.3930 O   0  0  0  0  0  0  0  0  0  0  0  0
  158.6840  213.3130  148.5540 C   0  0  0  0  0  0  0  0  0  0  0  0
  158.8660  213.2940  147.1010 C   0  0  0  0  0  0  0  0  0  0  0  0
  160.2730  211.7080  154.1280 N   0  0  0  0  0  2  0  0  0  0  0  0
  161.1820  212.6660  148.9800 C   0  0  1  0  0  3  0  0  0  0  0  0
  159.5850  213.0150  150.9100 C   0  0  1  0  0  3  0  0  0  0  0  0
  156.1290  214.0700  150.8710 O   0  0  0  0  0  0  0  0  0  0  0  0
  158.1330  212.8130  151.3290 C   0  0  1  0  0  3  0  0  0  0  0  0
  157.8210  211.1520  154.9820 O   0  0  0  0  0  1  0  0  0  0  0  0
  158.0840  213.9270  146.3420 O   0  0  0  0  0  0  0  0  0  0  0  0
  159.7080  212.6110  149.4360 C   0  0  1  0  0  3  0  0  0  0  0  0
  158.5930  211.3990  153.7080 P   0  0  1  0  0  0  0  0  0  0  0  0
  158.0260  214.4120  153.6640 S   0  0  1  0  0  0  0  0  0  0  0  0
  156.7160  214.4480  154.8990 C   0  0  0  0  0  1  0  0  0  0  0  0
  159.2950  214.2820  154.4950 O   0  0  0  0  0  0  0  0  0  0  0  0
  1  5  1  0  0  0  0
  3 10  1  0  0  0  0
  5 11  1  0  0  0  0
  6 15  1  1  0  0  0
  7  6  1  0  0  0  0
  9 28  1  1  0  0  0
  9 27  1  0  0  0  0
 10 22  2  0  0  0  0
 11  8  1  1  0  0  0
 11  7  1  0  0  0  0
 12  6  1  0  0  0  0
 12 19  1  0  0  0  0
 13 18  1  0  0  0  0
 13  2  1  0  0  0  0
 16  1  2  0  0  0  0
 17  3  2  0  0  0  0
 18 17  1  0  0  0  0
 20  2  1  6  0  0  0
 20 26  1  0  0  0  0
 20  1  1  0  0  0  0
 21  4  1  6  0  0  0
 21 23  1  0  0  0  0
 23 10  1  6  0  0  0
 23  9  1  0  0  0  0
 25 18  2  0  0  0  0
 26 17  1  6  0  0  0
 26 21  1  0  0  0  0
 27 14  2  6  0  0  0
 27 19  1  0  0  0  0
 27 24  1  0  0  0  0
 28 30  2  0  0  0  0
 28 29  1  1  0  0  0
M  END
>  <MODEL>
1

>  <REMARK>
 VINA RESULT:      -0.7      0.000      0.000
  Name = 
  1 active torsions:
  status: ('A' for Active; 'I' for Inactive)
    1  A    between atoms: S_7  and  C_10
                            x       y       z     vdW  Elec       q    Type
                         _______ _______ _______ _____ _____    ______ ____

>  <TORSDO>
F 1

$$$$
=
 OpenBabel11052422043D

 30 32  0  0  1  0  0  0  0  0999 V2000
  160.8950  211.6430  151.0120 C   0  0  0  0  0  0  0  0  0  0  0  0
  159.9180  213.2300  148.9580 S   0  0  0  0  0  0  0  0  0  0  0  0
  156.3820  213.6510  151.6260 N   0  0  0  0  0  0  0  0  0  0  0  0
  159.2380  214.4490  153.1500 C   0  0  0  0  0  1  0  0  0  0  0  0
  160.4270  210.4680  151.6870 N   0  0  0  0  0  2  0  0  0  0  0  0
  161.4980  210.0110  154.5870 C   0  0  2  0  0  3  0  0  0  0  0  0
  162.2170  209.8040  153.2550 C   0  0  0  0  0  2  0  0  0  0  0  0
  160.4930  208.1500  152.4400 C   0  0  0  0  0  1  0  0  0  0  0  0
  157.4960  212.6380  155.2250 C   0  0  1  0  0  3  0  0  0  0  0  0
  156.3550  213.4550  153.0470 C   0  0  0  0  0  0  0  0  0  0  0  0
  161.3080  209.3830  152.0950 C   0  0  1  0  0  3  0  0  0  0  0  0
  160.8330  211.3850  154.6280 C   0  0  0  0  0  2  0  0  0  0  0  0
  158.2550  212.6000  148.5960 C   0  0  0  0  0  2  0  0  0  0  0  0
  158.2640  209.8890  154.8840 O   0  0  0  0  0  0  0  0  0  0  0  0
  162.5220  209.8900  155.6990 C   0  0  0  0  0  1  0  0  0  0  0  0
  162.1040  211.7370  150.6680 O   0  0  0  0  0  0  0  0  0  0  0  0
  157.4010  213.3050  150.8850 C   0  0  0  0  0  0  0  0  0  0  0  0
  157.2690  213.3370  149.4260 C   0  0  0  0  0  0  0  0  0  0  0  0
  160.2240  211.6390  155.9280 N   0  0  0  0  0  2  0  0  0  0  0  0
  159.9620  212.7890  150.7450 C   0  0  1  0  0  3  0  0  0  0  0  0
  158.8000  212.9940  152.9820 C   0  0  1  0  0  3  0  0  0  0  0  0
  155.3670  213.8540  153.7190 O   0  0  0  0  0  0  0  0  0  0  0  0
  157.4820  212.6990  153.6910 C   0  0  1  0  0  3  0  0  0  0  0  0
  158.0410  210.9230  157.2600 O   0  0  0  0  0  1  0  0  0  0  0  0
  156.3130  213.9460  148.8750 O   0  0  0  0  0  0  0  0  0  0  0  0
  158.6230  212.6380  151.5010 C   0  0  1  0  0  3  0  0  0  0  0  0
  158.5090  211.2480  155.8610 P   0  0  1  0  0  0  0  0  0  0  0  0
  157.7980  214.2240  156.0570 S   0  0  1  0  0  0  0  0  0  0  0  0
  156.3900  214.4280  157.1590 C   0  0  0  0  0  1  0  0  0  0  0  0
  158.9620  213.9760  157.0070 O   0  0  0  0  0  0  0  0  0  0  0  0
  1  5  1  0  0  0  0
  3 10  1  0  0  0  0
  5 11  1  0  0  0  0
  6 12  1  0  0  0  0
  6 15  1  1  0  0  0
  7  6  1  0  0  0  0
  9 27  1  0  0  0  0
  9 28  1  1  0  0  0
 10 22  2  0  0  0  0
 11  8  1  1  0  0  0
 11  7  1  0  0  0  0
 12 19  1  0  0  0  0
 13  2  1  0  0  0  0
 13 18  1  0  0  0  0
 16  1  2  0  0  0  0
 17  3  2  0  0  0  0
 18 17  1  0  0  0  0
 20  2  1  6  0  0  0
 20  1  1  0  0  0  0
 20 26  1  0  0  0  0
 21  4  1  6  0  0  0
 21 23  1  0  0  0  0
 23 10  1  1  0  0  0
 23  9  1  0  0  0  0
 25 18  2  0  0  0  0
 26 17  1  6  0  0  0
 26 21  1  0  0  0  0
 27 14  2  6  0  0  0
 27 19  1  0  0  0  0
 27 24  1  0  0  0  0
 28 30  2  0  0  0  0
 28 29  1  1  0  0  0
M  END
>  <MODEL>
2

>  <REMARK>
 VINA RESULT:      -0.1      1.837      2.254
  Name = 
  1 active torsions:
  status: ('A' for Active; 'I' for Inactive)
    1  A    between atoms: S_7  and  C_10
                            x       y       z     vdW  Elec       q    Type
                         _______ _______ _______ _____ _____    ______ ____

>  <TORSDO>
F 1

$$$$
=
 OpenBabel11052422043D

 30 32  0  0  1  0  0  0  0  0999 V2000
  162.1710  208.9790  149.3890 C   0  0  0  0  0  0  0  0  0  0  0  0
  162.2830  211.6460  148.6360 S   0  0  0  0  0  0  0  0  0  0  0  0
  160.2180  212.3210  152.5190 N   0  0  0  0  0  0  0  0  0  0  0  0
  163.0240  210.5520  152.8510 C   0  0  0  0  0  1  0  0  0  0  0  0
  161.1150  208.0770  149.7470 N   0  0  0  0  0  2  0  0  0  0  0  0
  161.9090  205.6580  151.5590 C   0  0  2  0  0  3  0  0  0  0  0  0
  162.1670  205.8640  150.0670 C   0  0  0  0  0  2  0  0  0  0  0  0
  159.7060  206.0970  149.5490 C   0  0  0  0  0  1  0  0  0  0  0  0
  160.7490  209.1330  154.7040 C   0  0  1  0  0  3  0  0  0  0  0  0
  160.2160  211.4400  153.6510 C   0  0  0  0  0  0  0  0  0  0  0  0
  161.0920  206.6800  149.3390 C   0  0  1  0  0  3  0  0  0  0  0  0
  162.3310  206.8930  152.3500 C   0  0  0  0  0  2  0  0  0  0  0  0
  160.5940  212.2840  148.8240 C   0  0  0  0  0  2  0  0  0  0  0  0
  159.4610  207.0910  153.1430 O   0  0  0  0  0  0  0  0  0  0  0  0
  162.7050  204.4470  152.0110 C   0  0  0  0  0  1  0  0  0  0  0  0
  163.0930  208.6000  148.6190 O   0  0  0  0  0  0  0  0  0  0  0  0
  160.6680  211.9620  151.3450 C   0  0  0  0  0  0  0  0  0  0  0  0
  160.4380  212.8370  150.1930 C   0  0  0  0  0  0  0  0  0  0  0  0
  162.1840  206.6780  153.7850 N   0  0  0  0  0  2  0  0  0  0  0  0
  162.2090  210.3680  149.9590 C   0  0  1  0  0  3  0  0  0  0  0  0
  161.7180  209.9020  152.3960 C   0  0  1  0  0  3  0  0  0  0  0  0
  159.8180  211.8550  154.7710 O   0  0  0  0  0  0  0  0  0  0  0  0
  160.6190  210.0070  153.4490 C   0  0  1  0  0  3  0  0  0  0  0  0
  160.2290  206.6150  155.5820 O   0  0  0  0  0  1  0  0  0  0  0  0
  160.0750  214.0340  150.3500 O   0  0  0  0  0  0  0  0  0  0  0  0
  161.1960  210.5540  151.1090 C   0  0  1  0  0  3  0  0  0  0  0  0
  160.6460  207.3420  154.3250 P   0  0  1  0  0  0  0  0  0  0  0  0
  162.1110  209.5830  155.8190 S   0  0  1  0  0  0  0  0  0  0  0  0
  161.3950  210.8010  156.9340 C   0  0  0  0  0  1  0  0  0  0  0  0
  162.3320  208.3690  156.7100 O   0  0  0  0  0  0  0  0  0  0  0  0
  1  5  1  0  0  0  0
  1 20  1  0  0  0  0
  2 13  1  0  0  0  0
  3 10  1  0  0  0  0
  6 15  1  1  0  0  0
  6 12  1  0  0  0  0
  7  6  1  0  0  0  0
  9 28  1  6  0  0  0
 10 22  2  0  0  0  0
 11  8  1  1  0  0  0
 11  5  1  0  0  0  0
 11  7  1  0  0  0  0
 12 19  1  0  0  0  0
 13 18  1  0  0  0  0
 16  1  2  0  0  0  0
 17  3  2  0  0  0  0
 18 25  2  0  0  0  0
 18 17  1  0  0  0  0
 19 27  1  0  0  0  0
 20  2  1  6  0  0  0
 20 26  1  0  0  0  0
 21  4  1  1  0  0  0
 21 23  1  0  0  0  0
 23 10  1  1  0  0  0
 23  9  1  0  0  0  0
 26 17  1  1  0  0  0
 26 21  1  0  0  0  0
 27 14  2  6  0  0  0
 27  9  1  0  0  0  0
 27 24  1  0  0  0  0
 28 30  2  0  0  0  0
 28 29  1  1  0  0  0
M  END
>  <MODEL>
3

>  <REMARK>
 VINA RESULT:       1.9      3.022      4.446
  Name = 
  1 active torsions:
  status: ('A' for Active; 'I' for Inactive)
    1  A    between atoms: S_7  and  C_10
                            x       y       z     vdW  Elec       q    Type
                         _______ _______ _______ _____ _____    ______ ____

>  <TORSDO>
F 1

$$$$
=
 OpenBabel11052422043D

 30 32  0  0  1  0  0  0  0  0999 V2000
  160.0900  209.5640  156.0750 C   0  0  0  0  0  0  0  0  0  0  0  0
  161.6060  207.2410  156.1370 S   0  0  0  0  0  0  0  0  0  0  0  0
  161.3460  207.5380  151.7050 N   0  0  0  0  0  0  0  0  0  0  0  0
  162.5000  210.3320  153.1100 C   0  0  0  0  0  1  0  0  0  0  0  0
  158.8260  209.9260  155.5050 N   0  0  0  0  0  2  0  0  0  0  0  0
  158.3990  212.9590  154.8850 C   0  0  2  0  0  3  0  0  0  0  0  0
  158.3700  212.2430  156.2340 C   0  0  0  0  0  2  0  0  0  0  0  0
  156.5110  210.6940  155.5110 C   0  0  0  0  0  1  0  0  0  0  0  0
  160.3430  211.2040  150.8280 C   0  0  1  0  0  3  0  0  0  0  0  0
  161.0800  208.7230  150.9410 C   0  0  0  0  0  0  0  0  0  0  0  0
  157.8710  210.7940  156.1790 C   0  0  1  0  0  3  0  0  0  0  0  0
  159.6510  212.5720  154.1000 C   0  0  0  0  0  2  0  0  0  0  0  0
  160.7460  206.0610  155.0590 C   0  0  0  0  0  2  0  0  0  0  0  0
  157.7650  211.4560  152.0740 O   0  0  0  0  0  1  0  0  0  0  0  0
  158.3830  214.4530  155.1440 C   0  0  0  0  0  1  0  0  0  0  0  0
  160.3860  209.9280  157.2440 O   0  0  0  0  0  0  0  0  0  0  0  0
  161.1980  207.4860  153.0020 C   0  0  0  0  0  0  0  0  0  0  0  0
  161.2800  206.1890  153.6800 C   0  0  0  0  0  0  0  0  0  0  0  0
  159.7440  213.3190  152.8520 N   0  0  0  0  0  2  0  0  0  0  0  0
  161.0900  208.7820  155.2720 C   0  0  1  0  0  3  0  0  0  0  0  0
  161.0050  210.0170  153.0650 C   0  0  1  0  0  3  0  0  0  0  0  0
  161.2880  208.7320  149.7000 O   0  0  0  0  0  0  0  0  0  0  0  0
  160.4760  209.9080  151.6390 C   0  0  1  0  0  3  0  0  0  0  0  0
  158.6360  213.2820  150.4390 O   0  0  0  0  0  0  0  0  0  0  0  0
  161.7610  205.1820  153.0960 O   0  0  0  0  0  0  0  0  0  0  0  0
  160.6990  208.6950  153.7800 C   0  0  1  0  0  3  0  0  0  0  0  0
  159.0970  212.3490  151.5340 P   0  0  1  0  0  0  0  0  0  0  0  0
  161.9150  211.9970  150.3780 S   0  0  1  0  0  0  0  0  0  0  0  0
  162.3310  211.2920  148.7750 C   0  0  0  0  0  1  0  0  0  0  0  0
  161.5680  213.4430  150.0520 O   0  0  0  0  0  0  0  0  0  0  0  0
  1 16  2  0  0  0  0
  3 17  2  0  0  0  0
  5  1  1  0  0  0  0
  5 11  1  0  0  0  0
  6 15  1  1  0  0  0
  6  7  1  0  0  0  0
  9 28  1  1  0  0  0
  9 27  1  0  0  0  0
  9 23  1  0  0  0  0
 10  3  1  0  0  0  0
 11  8  1  6  0  0  0
 11  7  1  0  0  0  0
 12  6  1  0  0  0  0
 13  2  1  0  0  0  0
 17 18  1  0  0  0  0
 18 13  1  0  0  0  0
 19 12  1  0  0  0  0
 20  1  1  1  0  0  0
 20  2  1  0  0  0  0
 21  4  1  6  0  0  0
 21 26  1  0  0  0  0
 22 10  2  0  0  0  0
 23 10  1  6  0  0  0
 23 21  1  0  0  0  0
 25 18  2  0  0  0  0
 26 17  1  6  0  0  0
 26 20  1  0  0  0  0
 27 24  2  6  0  0  0
 27 14  1  0  0  0  0
 27 19  1  0  0  0  0
 28 29  1  6  0  0  0
 30 28  2  0  0  0  0
M  END
>  <MODEL>
4

>  <REMARK>
 VINA RESULT:       2.0      3.137      6.785
  Name = 
  1 active torsions:
  status: ('A' for Active; 'I' for Inactive)
    1  A    between atoms: S_7  and  C_10
                            x       y       z     vdW  Elec       q    Type
                         _______ _______ _______ _____ _____    ______ ____

>  <TORSDO>
F 1

$$$$
