=
 OpenBabel11052422583D

 28 32  0  0  1  0  0  0  0  0999 V2000
  160.3300  211.4190  153.4610 C   0  0  1  0  0  3  0  0  0  0  0  0
  161.0820  207.4290  149.9100 C   0  0  0  0  0  3  0  0  0  0  0  0
  159.7750  208.5040  155.5490 C   0  0  0  0  0  1  0  0  0  0  0  0
  161.1460  205.5960  151.5070 C   0  0  0  0  0  0  0  0  0  0  0  0
  161.4130  207.9710  152.3520 C   0  0  1  0  0  3  0  0  0  0  0  0
  160.8960  205.1440  149.1370 C   0  0  0  0  0  0  0  0  0  0  0  0
  161.1540  206.9870  151.2390 C   0  0  0  0  0  0  0  0  0  0  0  0
  161.6800  206.0840  153.9420 C   0  0  0  0  0  2  0  0  0  0  0  0
  160.9960  204.6880  150.4540 C   0  0  0  0  0  3  0  0  0  0  0  0
  161.7290  209.7640  154.4230 C   0  0  1  0  0  3  0  0  0  0  0  0
  160.7070  209.3080  152.1780 C   0  0  0  0  0  2  0  0  0  0  0  0
  161.1950  205.0560  152.9160 C   0  0  0  0  0  2  0  0  0  0  0  0
  161.5970  210.9070  155.4250 C   0  0  2  0  0  3  0  0  0  0  0  0
  161.1220  208.3890  154.8520 C   0  0  2  0  0  3  0  0  0  0  0  0
  161.4550  210.4730  156.7450 O   0  0  0  0  0  1  0  0  0  0  0  0
  160.7560  204.2570  148.1240 F   0  0  0  0  0  0  0  0  0  0  0  0
  160.9440  206.5120  148.8650 C   0  0  0  0  0  3  0  0  0  0  0  0
  160.9690  207.4020  153.6930 C   0  0  1  0  0  3  0  0  0  0  0  0
  160.3810  211.6730  154.9620 C   0  0  0  0  0  2  0  0  0  0  0  0
  161.2300  210.2940  153.1390 N   0  0  1  0  0  0  0  0  0  0  0  0
  158.9050  211.3810  152.8690 C   0  0  0  0  0  2  0  0  0  0  0  0
  157.8730  212.1180  153.6660 C   0  0  0  0  0  0  0  0  0  0  0  0
  155.8990  213.4800  155.1130 C   0  0  0  0  0  0  0  0  0  0  0  0
  157.6860  213.4930  153.4790 C   0  0  0  0  0  3  0  0  0  0  0  0
  157.0550  211.4240  154.5660 C   0  0  0  0  0  3  0  0  0  0  0  0
  156.0720  212.1040  155.2910 C   0  0  0  0  0  3  0  0  0  0  0  0
  154.9260  214.1560  155.8350 O   0  0  0  0  0  1  0  0  0  0  0  0
  156.7030  214.1740  154.2040 C   0  0  0  0  0  3  0  0  0  0  0  0
  1 21  1  1  0  0  0
  1 19  1  0  0  0  0
  2  7  1  0  0  0  0
  4 12  1  0  0  0  0
  5 11  1  6  0  0  0
  5 18  1  0  0  0  0
  6  9  2  0  0  0  0
  7  4  2  0  0  0  0
  7  5  1  0  0  0  0
  9  4  1  0  0  0  0
 10 14  1  0  0  0  0
 10 13  1  0  0  0  0
 11 20  1  0  0  0  0
 12  8  1  0  0  0  0
 13 15  1  0  0  0  0
 14  3  1  0  0  0  0
 16  6  1  0  0  0  0
 17  6  1  0  0  0  0
 17  2  2  0  0  0  0
 18  8  1  0  0  0  0
 18 14  1  0  0  0  0
 19 13  1  0  0  0  0
 20  1  1  0  0  0  0
 20 10  1  0  0  0  0
 21 22  1  0  0  0  0
 22 25  1  0  0  0  0
 23 26  1  0  0  0  0
 23 27  1  0  0  0  0
 24 22  2  0  0  0  0
 24 28  1  0  0  0  0
 25 26  2  0  0  0  0
 28 23  2  0  0  0  0
M  END
>  <MODEL>
1

>  <REMARK>
 VINA RESULT:      -9.4      0.000      0.000
  Name = 
  2 active torsions:
  status: ('A' for Active; 'I' for Inactive)
    1  A    between atoms: C_1  and  C_2
    2  A    between atoms: C_2  and  C_3
                            x       y       z     vdW  Elec       q    Type
                         _______ _______ _______ _____ _____    ______ ____

>  <TORSDO>
F 2

$$$$
=
 OpenBabel11052422583D

 28 32  0  0  1  0  0  0  0  0999 V2000
  160.4570  211.5650  153.8370 C   0  0  1  0  0  3  0  0  0  0  0  0
  161.2050  207.7160  150.1330 C   0  0  0  0  0  3  0  0  0  0  0  0
  159.7030  208.5810  155.7600 C   0  0  0  0  0  1  0  0  0  0  0  0
  161.1320  205.8100  151.6430 C   0  0  0  0  0  0  0  0  0  0  0  0
  161.4530  208.1310  152.6100 C   0  0  1  0  0  3  0  0  0  0  0  0
  160.9650  205.4780  149.2460 C   0  0  0  0  0  0  0  0  0  0  0  0
  161.2040  207.2110  151.4420 C   0  0  0  0  0  0  0  0  0  0  0  0
  161.5810  206.1630  154.1180 C   0  0  0  0  0  2  0  0  0  0  0  0
  160.9920  204.9580  150.5420 C   0  0  0  0  0  3  0  0  0  0  0  0
  161.7490  209.8130  154.7750 C   0  0  1  0  0  3  0  0  0  0  0  0
  160.8060  209.5010  152.4710 C   0  0  0  0  0  2  0  0  0  0  0  0
  161.1010  205.2040  153.0250 C   0  0  0  0  0  2  0  0  0  0  0  0
  161.6190  210.9130  155.8240 C   0  0  2  0  0  3  0  0  0  0  0  0
  161.0730  208.4450  155.1130 C   0  0  2  0  0  3  0  0  0  0  0  0
  161.4050  210.4250  157.1150 O   0  0  0  0  0  1  0  0  0  0  0  0
  160.8340  204.6440  148.1860 F   0  0  0  0  0  0  0  0  0  0  0  0
  161.0760  206.8540  149.0410 C   0  0  0  0  0  3  0  0  0  0  0  0
  160.9310  207.5190  153.9030 C   0  0  1  0  0  3  0  0  0  0  0  0
  160.4530  211.7470  155.3490 C   0  0  0  0  0  2  0  0  0  0  0  0
  161.3250  210.4210  153.4980 N   0  0  1  0  0  0  0  0  0  0  0  0
  159.0570  211.6110  153.1870 C   0  0  0  0  0  2  0  0  0  0  0  0
  158.9830  212.3790  151.9040 C   0  0  0  0  0  0  0  0  0  0  0  0
  158.8360  213.7620  149.4730 C   0  0  0  0  0  0  0  0  0  0  0  0
  160.1520  212.6710  151.1890 C   0  0  0  0  0  3  0  0  0  0  0  0
  157.7410  212.7640  151.3870 C   0  0  0  0  0  3  0  0  0  0  0  0
  157.6670  213.4570  150.1760 C   0  0  0  0  0  3  0  0  0  0  0  0
  158.7640  214.4530  148.2720 O   0  0  0  0  0  1  0  0  0  0  0  0
  160.0780  213.3650  149.9770 C   0  0  0  0  0  3  0  0  0  0  0  0
  1 21  1  1  0  0  0
  1 19  1  0  0  0  0
  2  7  1  0  0  0  0
  4 12  1  0  0  0  0
  5 11  1  6  0  0  0
  5 18  1  0  0  0  0
  6  9  2  0  0  0  0
  7  4  2  0  0  0  0
  7  5  1  0  0  0  0
  9  4  1  0  0  0  0
 10 14  1  0  0  0  0
 10 13  1  0  0  0  0
 11 20  1  0  0  0  0
 12  8  1  0  0  0  0
 13 15  1  0  0  0  0
 14  3  1  0  0  0  0
 16  6  1  0  0  0  0
 17  6  1  0  0  0  0
 17  2  2  0  0  0  0
 18  8  1  0  0  0  0
 18 14  1  0  0  0  0
 19 13  1  0  0  0  0
 20  1  1  0  0  0  0
 20 10  1  0  0  0  0
 22 21  1  0  0  0  0
 23 28  2  0  0  0  0
 23 26  1  0  0  0  0
 24 22  2  0  0  0  0
 25 22  1  0  0  0  0
 26 25  2  0  0  0  0
 27 23  1  0  0  0  0
 28 24  1  0  0  0  0
M  END
>  <MODEL>
2

>  <REMARK>
 VINA RESULT:      -8.6      2.148      2.700
  Name = 
  2 active torsions:
  status: ('A' for Active; 'I' for Inactive)
    1  A    between atoms: C_1  and  C_2
    2  A    between atoms: C_2  and  C_3
                            x       y       z     vdW  Elec       q    Type
                         _______ _______ _______ _____ _____    ______ ____

>  <TORSDO>
F 2

$$$$
=
 OpenBabel11052422583D

 28 32  0  0  1  0  0  0  0  0999 V2000
  161.1570  210.9760  153.4770 C   0  0  1  0  0  3  0  0  0  0  0  0
  161.7190  207.2390  149.6290 C   0  0  0  0  0  3  0  0  0  0  0  0
  159.6470  208.0890  155.0740 C   0  0  0  0  0  1  0  0  0  0  0  0
  161.1150  205.3070  150.9770 C   0  0  0  0  0  0  0  0  0  0  0  0
  161.7000  207.4820  152.1410 C   0  0  1  0  0  3  0  0  0  0  0  0
  161.2170  205.1270  148.5610 C   0  0  0  0  0  0  0  0  0  0  0  0
  161.4550  206.6800  150.8880 C   0  0  0  0  0  0  0  0  0  0  0  0
  161.2820  205.4530  153.5080 C   0  0  0  0  0  2  0  0  0  0  0  0
  160.9790  204.5490  149.8100 C   0  0  0  0  0  3  0  0  0  0  0  0
  161.9890  208.9760  154.4400 C   0  0  1  0  0  3  0  0  0  0  0  0
  161.3250  208.9520  152.0210 C   0  0  0  0  0  2  0  0  0  0  0  0
  160.7950  204.6510  152.2980 C   0  0  0  0  0  2  0  0  0  0  0  0
  161.9110  210.0300  155.5410 C   0  0  2  0  0  3  0  0  0  0  0  0
  161.0470  207.7380  154.5930 C   0  0  2  0  0  3  0  0  0  0  0  0
  161.4450  209.5260  156.7570 O   0  0  0  0  0  1  0  0  0  0  0  0
  161.0880  204.3830  147.4360 F   0  0  0  0  0  0  0  0  0  0  0  0
  161.5910  206.4680  148.4700 C   0  0  0  0  0  3  0  0  0  0  0  0
  160.9110  206.9130  153.3120 C   0  0  1  0  0  3  0  0  0  0  0  0
  160.9820  211.0830  154.9860 C   0  0  0  0  0  2  0  0  0  0  0  0
  161.8530  209.7120  153.1680 N   0  0  1  0  0  0  0  0  0  0  0  0
  159.8870  211.3060  152.6640 C   0  0  0  0  0  2  0  0  0  0  0  0
  160.1220  212.1270  151.4340 C   0  0  0  0  0  0  0  0  0  0  0  0
  160.6160  213.6850  149.1600 C   0  0  0  0  0  0  0  0  0  0  0  0
  159.5370  213.3930  151.3080 C   0  0  0  0  0  3  0  0  0  0  0  0
  160.9710  211.6520  150.4270 C   0  0  0  0  0  3  0  0  0  0  0  0
  161.2140  212.4280  149.2900 C   0  0  0  0  0  3  0  0  0  0  0  0
  160.8540  214.4530  148.0290 O   0  0  0  0  0  1  0  0  0  0  0  0
  159.7800  214.1690  150.1710 C   0  0  0  0  0  3  0  0  0  0  0  0
  1 21  1  6  0  0  0
  1 19  1  0  0  0  0
  2  7  1  0  0  0  0
  4 12  1  0  0  0  0
  5 11  1  6  0  0  0
  5 18  1  0  0  0  0
  6  9  2  0  0  0  0
  7  4  2  0  0  0  0
  7  5  1  0  0  0  0
  9  4  1  0  0  0  0
 10 14  1  0  0  0  0
 10 13  1  0  0  0  0
 11 20  1  0  0  0  0
 12  8  1  0  0  0  0
 13 15  1  0  0  0  0
 14  3  1  0  0  0  0
 16  6  1  0  0  0  0
 17  6  1  0  0  0  0
 17  2  2  0  0  0  0
 18  8  1  0  0  0  0
 18 14  1  0  0  0  0
 19 13  1  0  0  0  0
 20  1  1  0  0  0  0
 20 10  1  0  0  0  0
 22 21  1  0  0  0  0
 23 26  2  0  0  0  0
 23 28  1  0  0  0  0
 24 22  1  0  0  0  0
 25 22  2  0  0  0  0
 26 25  1  0  0  0  0
 27 23  1  0  0  0  0
 28 24  2  0  0  0  0
M  END
>  <MODEL>
3

>  <REMARK>
 VINA RESULT:      -7.4      2.536      3.304
  Name = 
  2 active torsions:
  status: ('A' for Active; 'I' for Inactive)
    1  A    between atoms: C_1  and  C_2
    2  A    between atoms: C_2  and  C_3
                            x       y       z     vdW  Elec       q    Type
                         _______ _______ _______ _____ _____    ______ ____

>  <TORSDO>
F 2

$$$$
=
 OpenBabel11052422583D

 28 32  0  0  1  0  0  0  0  0999 V2000
  160.7970  202.4410  148.1580 C   0  0  1  0  0  3  0  0  0  0  0  0
  161.1310  207.6430  149.5430 C   0  0  0  0  0  3  0  0  0  0  0  0
  162.4180  202.2040  151.3960 C   0  0  0  0  0  1  0  0  0  0  0  0
  161.7800  207.3080  151.8630 C   0  0  0  0  0  0  0  0  0  0  0  0
  160.8180  205.3560  150.5640 C   0  0  1  0  0  3  0  0  0  0  0  0
  161.9930  209.4960  150.8380 C   0  0  0  0  0  0  0  0  0  0  0  0
  161.3020  206.7820  150.6380 C   0  0  0  0  0  0  0  0  0  0  0  0
  161.2920  205.0820  152.9840 C   0  0  0  0  0  2  0  0  0  0  0  0
  162.1410  208.6570  151.9450 C   0  0  0  0  0  3  0  0  0  0  0  0
  160.0850  202.7030  150.4040 C   0  0  1  0  0  3  0  0  0  0  0  0
  161.0360  204.6940  149.2110 C   0  0  0  0  0  2  0  0  0  0  0  0
  162.0100  206.4320  153.0700 C   0  0  0  0  0  2  0  0  0  0  0  0
  159.9100  201.2350  150.0240 C   0  0  2  0  0  3  0  0  0  0  0  0
  161.1350  203.0120  151.5200 C   0  0  2  0  0  3  0  0  0  0  0  0
  160.2790  200.3520  151.0410 O   0  0  0  0  0  1  0  0  0  0  0  0
  162.3410  210.8020  150.9280 F   0  0  0  0  0  0  0  0  0  0  0  0
  161.4840  208.9910  149.6400 C   0  0  0  0  0  3  0  0  0  0  0  0
  161.5170  204.4920  151.6040 C   0  0  1  0  0  3  0  0  0  0  0  0
  160.7750  201.0600  148.7990 C   0  0  0  0  0  2  0  0  0  0  0  0
  160.2910  203.4260  149.1330 N   0  0  1  0  0  0  0  0  0  0  0  0
  162.1120  202.7800  147.4220 C   0  0  0  0  0  2  0  0  0  0  0  0
  161.9540  203.6740  146.2320 C   0  0  0  0  0  0  0  0  0  0  0  0
  161.6290  205.3890  144.0410 C   0  0  0  0  0  0  0  0  0  0  0  0
  160.8630  203.5140  145.3680 C   0  0  0  0  0  3  0  0  0  0  0  0
  162.8700  204.7080  146.0060 C   0  0  0  0  0  3  0  0  0  0  0  0
  162.7110  205.5620  144.9110 C   0  0  0  0  0  3  0  0  0  0  0  0
  161.4720  206.2340  142.9520 O   0  0  0  0  0  1  0  0  0  0  0  0
  160.7030  204.3680  144.2730 C   0  0  0  0  0  3  0  0  0  0  0  0
  1 21  1  1  0  0  0
  1 19  1  0  0  0  0
  1 20  1  0  0  0  0
  2 17  2  0  0  0  0
  2  7  1  0  0  0  0
  3 14  1  0  0  0  0
  4  9  1  0  0  0  0
  4 12  1  0  0  0  0
  5 11  1  6  0  0  0
  5  7  1  0  0  0  0
  5 18  1  0  0  0  0
  6 16  1  0  0  0  0
  6  9  2  0  0  0  0
  7  4  2  0  0  0  0
  8 12  1  0  0  0  0
 10 14  1  0  0  0  0
 13 10  1  0  0  0  0
 13 15  1  0  0  0  0
 14 18  1  0  0  0  0
 17  6  1  0  0  0  0
 18  8  1  0  0  0  0
 19 13  1  0  0  0  0
 20 11  1  0  0  0  0
 20 10  1  0  0  0  0
 22 21  1  0  0  0  0
 23 28  2  0  0  0  0
 23 26  1  0  0  0  0
 24 22  2  0  0  0  0
 25 22  1  0  0  0  0
 26 25  2  0  0  0  0
 27 23  1  0  0  0  0
 28 24  1  0  0  0  0
M  END
>  <MODEL>
4

>  <REMARK>
 VINA RESULT:      -7.3      5.710      9.270
  Name = 
  2 active torsions:
  status: ('A' for Active; 'I' for Inactive)
    1  A    between atoms: C_1  and  C_2
    2  A    between atoms: C_2  and  C_3
                            x       y       z     vdW  Elec       q    Type
                         _______ _______ _______ _____ _____    ______ ____

>  <TORSDO>
F 2

$$$$
=
 OpenBabel11052422583D

 28 32  0  0  1  0  0  0  0  0999 V2000
  160.9410  209.9090  153.2820 C   0  0  1  0  0  3  0  0  0  0  0  0
  161.4160  207.0630  148.7250 C   0  0  0  0  0  3  0  0  0  0  0  0
  159.8630  206.6260  154.3880 C   0  0  0  0  0  1  0  0  0  0  0  0
  161.1270  204.8550  149.7030 C   0  0  0  0  0  0  0  0  0  0  0  0
  161.6400  206.8150  151.2260 C   0  0  1  0  0  3  0  0  0  0  0  0
  160.9890  205.1560  147.3000 C   0  0  0  0  0  0  0  0  0  0  0  0
  161.3350  206.2480  149.8630 C   0  0  0  0  0  0  0  0  0  0  0  0
  161.5460  204.5290  152.1870 C   0  0  0  0  0  2  0  0  0  0  0  0
  160.9350  204.3260  148.4230 C   0  0  0  0  0  3  0  0  0  0  0  0
  162.0400  207.8600  153.7460 C   0  0  1  0  0  3  0  0  0  0  0  0
  161.1290  208.2330  151.4390 C   0  0  0  0  0  2  0  0  0  0  0  0
  161.0050  203.9270  150.8870 C   0  0  0  0  0  2  0  0  0  0  0  0
  161.9880  208.6680  155.0400 C   0  0  2  0  0  3  0  0  0  0  0  0
  161.2300  206.5240  153.7270 C   0  0  2  0  0  3  0  0  0  0  0  0
  161.6970  207.8940  156.1650 O   0  0  0  0  0  1  0  0  0  0  0  0
  160.8060  204.6330  146.0640 F   0  0  0  0  0  0  0  0  0  0  0  0
  161.2340  206.5210  147.4500 C   0  0  0  0  0  3  0  0  0  0  0  0
  161.0320  205.9510  152.3220 C   0  0  1  0  0  3  0  0  0  0  0  0
  160.9180  209.7040  154.7910 C   0  0  0  0  0  2  0  0  0  0  0  0
  161.7070  208.8090  152.6650 N   0  0  1  0  0  0  0  0  0  0  0  0
  159.5690  210.2530  152.6650 C   0  0  0  0  0  2  0  0  0  0  0  0
  158.7960  211.3070  153.3970 C   0  0  0  0  0  0  0  0  0  0  0  0
  157.3950  213.2760  154.8130 C   0  0  0  0  0  0  0  0  0  0  0  0
  157.7460  210.9470  154.2510 C   0  0  0  0  0  3  0  0  0  0  0  0
  159.1540  212.6540  153.2700 C   0  0  0  0  0  3  0  0  0  0  0  0
  158.4530  213.6380  153.9730 C   0  0  0  0  0  3  0  0  0  0  0  0
  156.6960  214.2520  155.5080 O   0  0  0  0  0  1  0  0  0  0  0  0
  157.0440  211.9300  154.9550 C   0  0  0  0  0  3  0  0  0  0  0  0
  1 21  1  6  0  0  0
  1 19  1  0  0  0  0
  2  7  1  0  0  0  0
  4  7  2  0  0  0  0
  4 12  1  0  0  0  0
  5 11  1  6  0  0  0
  5 18  1  0  0  0  0
  6 17  1  0  0  0  0
  6  9  2  0  0  0  0
  7  5  1  0  0  0  0
  8 18  1  0  0  0  0
  9  4  1  0  0  0  0
 10 13  1  0  0  0  0
 11 20  1  0  0  0  0
 12  8  1  0  0  0  0
 13 15  1  0  0  0  0
 14 10  1  0  0  0  0
 14  3  1  0  0  0  0
 16  6  1  0  0  0  0
 17  2  2  0  0  0  0
 18 14  1  0  0  0  0
 19 13  1  0  0  0  0
 20  1  1  0  0  0  0
 20 10  1  0  0  0  0
 21 22  1  0  0  0  0
 22 24  1  0  0  0  0
 23 28  1  0  0  0  0
 23 27  1  0  0  0  0
 24 28  2  0  0  0  0
 25 22  2  0  0  0  0
 25 26  1  0  0  0  0
 26 23  2  0  0  0  0
M  END
>  <MODEL>
5

>  <REMARK>
 VINA RESULT:      -7.0      1.315      2.038
  Name = 
  2 active torsions:
  status: ('A' for Active; 'I' for Inactive)
    1  A    between atoms: C_1  and  C_2
    2  A    between atoms: C_2  and  C_3
                            x       y       z     vdW  Elec       q    Type
                         _______ _______ _______ _____ _____    ______ ____

>  <TORSDO>
F 2

$$$$
