=
 OpenBabel11052422553D

 28 30  0  0  1  0  0  0  0  0999 V2000
  161.1900  206.9970  151.6520 C   0  0  0  0  0  0  0  0  0  0  0  0
  160.7250  202.2800  150.8040 O   0  0  0  0  0  0  0  0  0  0  0  0
  161.5960  204.9840  148.4900 C   0  0  1  0  0  3  0  0  0  0  0  0
  161.6010  202.5970  148.2400 O   0  0  0  0  0  1  0  0  0  0  0  0
  160.9960  204.5950  151.2700 C   0  0  0  0  0  0  0  0  0  0  0  0
  161.0030  206.1500  149.2800 C   0  0  0  0  0  2  0  0  0  0  0  0
  161.1330  205.4620  153.5310 C   0  0  0  0  0  3  0  0  0  0  0  0
  160.8920  203.4430  150.3460 C   0  0  0  0  0  0  0  0  0  0  0  0
  161.0190  204.3840  152.6540 C   0  0  0  0  0  3  0  0  0  0  0  0
  160.9210  203.6530  148.8550 C   0  0  1  0  0  3  0  0  0  0  0  0
  161.2190  206.7620  153.0340 C   0  0  0  0  0  3  0  0  0  0  0  0
  161.0960  205.9090  150.7620 C   0  0  0  0  0  0  0  0  0  0  0  0
  160.3810  205.8030  146.4870 C   0  0  0  0  0  3  0  0  0  0  0  0
  162.6430  204.9910  146.1460 C   0  0  0  0  0  0  0  0  0  0  0  0
  161.3430  205.8080  144.2670 C   0  0  0  0  0  0  0  0  0  0  0  0
  161.5600  205.2620  147.0130 C   0  0  0  0  0  0  0  0  0  0  0  0
  162.5240  205.2670  144.7790 C   0  0  0  0  0  3  0  0  0  0  0  0
  163.9270  204.4060  146.6380 C   0  0  0  0  0  1  0  0  0  0  0  0
  161.2350  206.0780  142.9100 O   0  0  0  0  0  1  0  0  0  0  0  0
  160.2720  206.0760  145.1210 C   0  0  0  0  0  3  0  0  0  0  0  0
  161.2730  208.4050  151.1310 C   0  0  1  0  0  3  0  0  0  0  0  0
  160.2210  210.1120  152.3340 C   0  0  0  0  0  1  0  0  0  0  0  0
  161.4560  209.3560  152.2160 N   0  0  0  0  0  2  0  0  0  0  0  0
  162.3590  208.5630  150.0700 C   0  0  0  0  0  2  0  0  0  0  0  0
  161.9050  209.3490  149.0060 O   0  0  0  0  0  0  0  0  0  0  0  0
  162.3190  210.6430  149.3220 C   0  0  0  0  0  2  0  0  0  0  0  0
  161.9160  211.5970  148.2120 C   0  0  0  0  0  2  0  0  0  0  0  0
  163.0850  212.4860  147.8300 C   0  0  0  0  0  1  0  0  0  0  0  0
  1 11  1  0  0  0  0
  3 16  1  6  0  0  0
  3 10  1  0  0  0  0
  3  6  1  0  0  0  0
  5  9  2  0  0  0  0
  6 12  1  0  0  0  0
  8  2  2  0  0  0  0
  8  5  1  0  0  0  0
  9  7  1  0  0  0  0
 10  4  1  6  0  0  0
 10  8  1  0  0  0  0
 11  7  2  0  0  0  0
 12  5  1  0  0  0  0
 12  1  2  0  0  0  0
 13 16  1  0  0  0  0
 14 18  1  0  0  0  0
 14 16  2  0  0  0  0
 15 17  2  0  0  0  0
 15 20  1  0  0  0  0
 17 14  1  0  0  0  0
 19 15  1  0  0  0  0
 20 13  2  0  0  0  0
 21 24  1  6  0  0  0
 21  1  1  0  0  0  0
 21 23  1  0  0  0  0
 23 22  1  0  0  0  0
 25 26  1  0  0  0  0
 25 24  1  0  0  0  0
 27 26  1  0  0  0  0
 28 27  1  0  0  0  0
M  END
>  <MODEL>
1

>  <REMARK>
 VINA RESULT:      -8.4      0.000      0.000
  Name = 
  7 active torsions:
  status: ('A' for Active; 'I' for Inactive)
    1  A    between atoms: C_1  and  C_2
    2  A    between atoms: C_2  and  C_3
    3  A    between atoms: C_2  and  N_11
    4  A    between atoms: C_3  and  O_7
    5  A    between atoms: C_6  and  C_22
    6  A    between atoms: O_7  and  C_22
    7  A    between atoms: C_10  and  C_13
                            x       y       z     vdW  Elec       q    Type
                         _______ _______ _______ _____ _____    ______ ____

>  <TORSDO>
F 7

$$$$
=
 OpenBabel11052422553D

 28 30  0  0  1  0  0  0  0  0999 V2000
  161.4940  206.6280  151.4690 C   0  0  0  0  0  0  0  0  0  0  0  0
  160.4880  202.0300  150.4580 O   0  0  0  0  0  0  0  0  0  0  0  0
  161.6470  204.7000  148.2330 C   0  0  1  0  0  3  0  0  0  0  0  0
  161.3770  202.3380  147.8980 O   0  0  0  0  0  1  0  0  0  0  0  0
  161.0250  204.2800  151.0040 C   0  0  0  0  0  0  0  0  0  0  0  0
  161.1960  205.8960  149.0710 C   0  0  0  0  0  2  0  0  0  0  0  0
  161.2740  205.0420  153.2930 C   0  0  0  0  0  3  0  0  0  0  0  0
  160.7830  203.1820  150.0400 C   0  0  0  0  0  0  0  0  0  0  0  0
  161.0320  204.0170  152.3790 C   0  0  0  0  0  3  0  0  0  0  0  0
  160.8270  203.4420  148.5580 C   0  0  1  0  0  3  0  0  0  0  0  0
  161.5050  206.3410  152.8420 C   0  0  0  0  0  3  0  0  0  0  0  0
  161.2700  205.5920  150.5430 C   0  0  0  0  0  0  0  0  0  0  0  0
  160.4640  205.6010  146.2460 C   0  0  0  0  0  3  0  0  0  0  0  0
  162.7270  204.7910  145.9060 C   0  0  0  0  0  0  0  0  0  0  0  0
  161.4580  205.6860  144.0420 C   0  0  0  0  0  0  0  0  0  0  0  0
  161.6330  205.0340  146.7680 C   0  0  0  0  0  0  0  0  0  0  0  0
  162.6290  205.1200  144.5500 C   0  0  0  0  0  3  0  0  0  0  0  0
  164.0010  204.1810  146.3930 C   0  0  0  0  0  1  0  0  0  0  0  0
  161.3700  206.0080  142.6950 O   0  0  0  0  0  1  0  0  0  0  0  0
  160.3760  205.9270  144.8910 C   0  0  0  0  0  3  0  0  0  0  0  0
  161.7340  208.0360  150.9980 C   0  0  1  0  0  3  0  0  0  0  0  0
  162.0680  209.3090  149.0640 C   0  0  0  0  0  1  0  0  0  0  0  0
  161.2970  208.2100  149.6210 N   0  0  0  0  0  2  0  0  0  0  0  0
  161.0880  209.0690  151.9160 C   0  0  0  0  0  2  0  0  0  0  0  0
  162.0550  209.8940  152.4970 O   0  0  0  0  0  0  0  0  0  0  0  0
  161.3920  210.5320  153.5450 C   0  0  0  0  0  2  0  0  0  0  0  0
  160.6260  209.5120  154.3670 C   0  0  0  0  0  2  0  0  0  0  0  0
  161.4340  209.1030  155.5860 C   0  0  0  0  0  1  0  0  0  0  0  0
  1 11  1  0  0  0  0
  3 16  1  6  0  0  0
  3 10  1  0  0  0  0
  3  6  1  0  0  0  0
  5  9  2  0  0  0  0
  6 12  1  0  0  0  0
  8  2  2  0  0  0  0
  8  5  1  0  0  0  0
  9  7  1  0  0  0  0
 10  4  1  6  0  0  0
 10  8  1  0  0  0  0
 11  7  2  0  0  0  0
 12  5  1  0  0  0  0
 12  1  2  0  0  0  0
 13 16  1  0  0  0  0
 14 18  1  0  0  0  0
 14 16  2  0  0  0  0
 15 17  2  0  0  0  0
 15 20  1  0  0  0  0
 17 14  1  0  0  0  0
 19 15  1  0  0  0  0
 20 13  2  0  0  0  0
 21  1  1  0  0  0  0
 21 24  1  1  0  0  0
 22 23  1  0  0  0  0
 23 21  1  0  0  0  0
 24 25  1  0  0  0  0
 25 26  1  0  0  0  0
 26 27  1  0  0  0  0
 27 28  1  0  0  0  0
M  END
>  <MODEL>
2

>  <REMARK>
 VINA RESULT:      -7.9      1.313      2.543
  Name = 
  7 active torsions:
  status: ('A' for Active; 'I' for Inactive)
    1  A    between atoms: C_1  and  C_2
    2  A    between atoms: C_2  and  C_3
    3  A    between atoms: C_2  and  N_11
    4  A    between atoms: C_3  and  O_7
    5  A    between atoms: C_6  and  C_22
    6  A    between atoms: O_7  and  C_22
    7  A    between atoms: C_10  and  C_13
                            x       y       z     vdW  Elec       q    Type
                         _______ _______ _______ _____ _____    ______ ____

>  <TORSDO>
F 7

$$$$
=
 OpenBabel11052422553D

 28 30  0  0  1  0  0  0  0  0999 V2000
  160.8960  207.8200  152.4800 C   0  0  0  0  0  0  0  0  0  0  0  0
  160.9600  203.0070  152.5640 O   0  0  0  0  0  0  0  0  0  0  0  0
  161.5850  205.2920  149.7700 C   0  0  1  0  0  3  0  0  0  0  0  0
  161.8520  202.9170  149.9880 O   0  0  0  0  0  1  0  0  0  0  0  0
  160.9700  205.3840  152.5720 C   0  0  0  0  0  0  0  0  0  0  0  0
  160.8520  206.5160  150.3170 C   0  0  0  0  0  2  0  0  0  0  0  0
  160.9640  206.6810  154.6220 C   0  0  0  0  0  3  0  0  0  0  0  0
  161.0100  204.0710  151.8890 C   0  0  0  0  0  0  0  0  0  0  0  0
  160.9860  205.4470  153.9710 C   0  0  0  0  0  3  0  0  0  0  0  0
  161.0490  203.9900  150.3860 C   0  0  1  0  0  3  0  0  0  0  0  0
  160.9200  207.8610  153.8810 C   0  0  0  0  0  3  0  0  0  0  0  0
  160.9380  206.5780  151.8190 C   0  0  0  0  0  0  0  0  0  0  0  0
  161.0300  204.1320  147.6460 C   0  0  0  0  0  3  0  0  0  0  0  0
  162.0280  206.3380  147.4670 C   0  0  0  0  0  0  0  0  0  0  0  0
  161.4490  205.0930  145.4660 C   0  0  0  0  0  0  0  0  0  0  0  0
  161.5500  205.2740  148.2670 C   0  0  0  0  0  0  0  0  0  0  0  0
  161.9730  206.2370  146.0730 C   0  0  0  0  0  3  0  0  0  0  0  0
  162.6040  207.5810  148.0620 C   0  0  0  0  0  1  0  0  0  0  0  0
  161.3990  205.0030  144.0820 O   0  0  0  0  0  1  0  0  0  0  0  0
  160.9780  204.0410  146.2530 C   0  0  0  0  0  3  0  0  0  0  0  0
  160.8380  209.1020  151.6950 C   0  0  1  0  0  3  0  0  0  0  0  0
  160.9520  211.0140  153.0370 C   0  0  0  0  0  1  0  0  0  0  0  0
  160.0320  210.1010  152.3800 N   0  0  0  0  0  2  0  0  0  0  0  0
  162.2280  209.6430  151.3720 C   0  0  0  0  0  2  0  0  0  0  0  0
  162.3920  209.8020  149.9930 O   0  0  0  0  0  0  0  0  0  0  0  0
  162.0970  211.1450  149.7550 C   0  0  0  0  0  2  0  0  0  0  0  0
  162.0600  211.4070  148.2600 C   0  0  0  0  0  2  0  0  0  0  0  0
  163.0010  212.5420  147.9010 C   0  0  0  0  0  1  0  0  0  0  0  0
  1 11  1  0  0  0  0
  3 16  1  6  0  0  0
  3  6  1  0  0  0  0
  3 10  1  0  0  0  0
  5  9  2  0  0  0  0
  6 12  1  0  0  0  0
  8  2  2  0  0  0  0
  8  5  1  0  0  0  0
  9  7  1  0  0  0  0
 10  4  1  1  0  0  0
 10  8  1  0  0  0  0
 11  7  2  0  0  0  0
 12  1  2  0  0  0  0
 12  5  1  0  0  0  0
 13 16  1  0  0  0  0
 14 18  1  0  0  0  0
 14 16  2  0  0  0  0
 15 17  2  0  0  0  0
 15 20  1  0  0  0  0
 17 14  1  0  0  0  0
 19 15  1  0  0  0  0
 20 13  2  0  0  0  0
 21 24  1  1  0  0  0
 21 23  1  0  0  0  0
 21  1  1  0  0  0  0
 23 22  1  0  0  0  0
 25 24  1  0  0  0  0
 26 25  1  0  0  0  0
 27 26  1  0  0  0  0
 28 27  1  0  0  0  0
M  END
>  <MODEL>
3

>  <REMARK>
 VINA RESULT:      -7.1      1.275      1.644
  Name = 
  7 active torsions:
  status: ('A' for Active; 'I' for Inactive)
    1  A    between atoms: C_1  and  C_2
    2  A    between atoms: C_2  and  C_3
    3  A    between atoms: C_2  and  N_11
    4  A    between atoms: C_3  and  O_7
    5  A    between atoms: C_6  and  C_22
    6  A    between atoms: O_7  and  C_22
    7  A    between atoms: C_10  and  C_13
                            x       y       z     vdW  Elec       q    Type
                         _______ _______ _______ _____ _____    ______ ____

>  <TORSDO>
F 7

$$$$
=
 OpenBabel11052422553D

 28 30  0  0  1  0  0  0  0  0999 V2000
  161.0920  208.1510  152.6830 C   0  0  0  0  0  0  0  0  0  0  0  0
  162.3790  209.6350  148.2870 O   0  0  0  0  0  0  0  0  0  0  0  0
  161.0900  206.3770  149.3570 C   0  0  1  0  0  3  0  0  0  0  0  0
  161.5020  207.3010  147.1810 O   0  0  0  0  0  1  0  0  0  0  0  0
  161.7040  208.9530  150.4620 C   0  0  0  0  0  0  0  0  0  0  0  0
  161.4600  206.4680  150.8370 C   0  0  0  0  0  2  0  0  0  0  0  0
  161.3840  210.5270  152.2800 C   0  0  0  0  0  3  0  0  0  0  0  0
  162.0210  208.6890  149.0400 C   0  0  0  0  0  0  0  0  0  0  0  0
  161.6960  210.2670  150.9460 C   0  0  0  0  0  3  0  0  0  0  0  0
  161.9790  207.2860  148.4950 C   0  0  1  0  0  3  0  0  0  0  0  0
  161.0820  209.4750  153.1450 C   0  0  0  0  0  3  0  0  0  0  0  0
  161.3870  207.8870  151.3320 C   0  0  0  0  0  0  0  0  0  0  0  0
  161.5570  204.6990  147.5880 C   0  0  0  0  0  3  0  0  0  0  0  0
  160.6630  203.8670  149.6850 C   0  0  0  0  0  0  0  0  0  0  0  0
  161.1520  202.3310  147.8710 C   0  0  0  0  0  0  0  0  0  0  0  0
  161.1010  204.9480  148.8880 C   0  0  0  0  0  0  0  0  0  0  0  0
  160.6930  202.5660  149.1690 C   0  0  0  0  0  3  0  0  0  0  0  0
  160.1560  204.0610  151.0770 C   0  0  0  0  0  1  0  0  0  0  0  0
  161.1770  201.0380  147.3680 O   0  0  0  0  0  1  0  0  0  0  0  0
  161.5850  203.3970  147.0810 C   0  0  0  0  0  3  0  0  0  0  0  0
  160.7750  207.0270  153.6300 C   0  0  1  0  0  3  0  0  0  0  0  0
  161.2310  204.7320  153.6100 C   0  0  0  0  0  1  0  0  0  0  0  0
  161.8500  206.0470  153.6590 N   0  0  0  0  0  2  0  0  0  0  0  0
  160.4480  207.5300  155.0330 C   0  0  0  0  0  2  0  0  0  0  0  0
  161.6030  207.6000  155.8180 O   0  0  0  0  0  0  0  0  0  0  0  0
  161.3310  208.5940  156.7590 C   0  0  0  0  0  2  0  0  0  0  0  0
  162.4340  209.6360  156.7400 C   0  0  0  0  0  2  0  0  0  0  0  0
  161.8520  211.0140  156.4820 C   0  0  0  0  0  1  0  0  0  0  0  0
  1 11  1  0  0  0  0
  1 21  1  0  0  0  0
  2  8  2  0  0  0  0
  3 16  1  6  0  0  0
  3  6  1  0  0  0  0
  5  9  2  0  0  0  0
  5 12  1  0  0  0  0
  6 12  1  0  0  0  0
  7 11  2  0  0  0  0
  8  5  1  0  0  0  0
  9  7  1  0  0  0  0
 10  4  1  6  0  0  0
 10  8  1  0  0  0  0
 10  3  1  0  0  0  0
 12  1  2  0  0  0  0
 13 16  1  0  0  0  0
 14 18  1  0  0  0  0
 15 17  2  0  0  0  0
 16 14  2  0  0  0  0
 17 14  1  0  0  0  0
 19 15  1  0  0  0  0
 20 13  2  0  0  0  0
 20 15  1  0  0  0  0
 21 23  1  0  0  0  0
 21 24  1  1  0  0  0
 22 23  1  0  0  0  0
 24 25  1  0  0  0  0
 25 26  1  0  0  0  0
 27 26  1  0  0  0  0
 28 27  1  0  0  0  0
M  END
>  <MODEL>
4

>  <REMARK>
 VINA RESULT:      -6.4      2.441      5.199
  Name = 
  7 active torsions:
  status: ('A' for Active; 'I' for Inactive)
    1  A    between atoms: C_1  and  C_2
    2  A    between atoms: C_2  and  C_3
    3  A    between atoms: C_2  and  N_11
    4  A    between atoms: C_3  and  O_7
    5  A    between atoms: C_6  and  C_22
    6  A    between atoms: O_7  and  C_22
    7  A    between atoms: C_10  and  C_13
                            x       y       z     vdW  Elec       q    Type
                         _______ _______ _______ _____ _____    ______ ____

>  <TORSDO>
F 7

$$$$
=
 OpenBabel11052422553D

 28 30  0  0  1  0  0  0  0  0999 V2000
  160.8000  209.3840  153.3260 C   0  0  0  0  0  0  0  0  0  0  0  0
  162.2040  209.5180  148.7220 O   0  0  0  0  0  0  0  0  0  0  0  0
  160.9120  206.7030  150.6780 C   0  0  1  0  0  3  0  0  0  0  0  0
  161.3810  206.9460  148.3370 O   0  0  0  0  0  1  0  0  0  0  0  0
  161.4710  209.5010  150.9840 C   0  0  0  0  0  0  0  0  0  0  0  0
  161.2370  207.2350  152.0740 C   0  0  0  0  0  2  0  0  0  0  0  0
  161.0830  211.5380  152.2430 C   0  0  0  0  0  3  0  0  0  0  0  0
  161.8320  208.8320  149.7130 C   0  0  0  0  0  0  0  0  0  0  0  0
  161.4370  210.8990  151.0550 C   0  0  0  0  0  3  0  0  0  0  0  0
  161.8190  207.3300  149.6090 C   0  0  1  0  0  3  0  0  0  0  0  0
  160.7650  210.7850  153.3730 C   0  0  0  0  0  3  0  0  0  0  0  0
  161.1370  208.7360  152.1230 C   0  0  0  0  0  0  0  0  0  0  0  0
  160.8340  204.5700  149.4110 C   0  0  0  0  0  3  0  0  0  0  0  0
  161.0790  204.4100  151.8200 C   0  0  0  0  0  0  0  0  0  0  0  0
  160.9770  202.3980  150.4670 C   0  0  0  0  0  0  0  0  0  0  0  0
  160.9500  205.2000  150.6560 C   0  0  0  0  0  0  0  0  0  0  0  0
  161.0920  203.0140  151.7150 C   0  0  0  0  0  3  0  0  0  0  0  0
  161.1980  205.0140  153.1810 C   0  0  0  0  0  1  0  0  0  0  0  0
  160.9900  201.0130  150.3730 O   0  0  0  0  0  1  0  0  0  0  0  0
  160.8480  203.1760  149.3150 C   0  0  0  0  0  3  0  0  0  0  0  0
  160.4640  208.5860  154.5550 C   0  0  1  0  0  3  0  0  0  0  0  0
  161.7470  208.1520  156.4630 C   0  0  0  0  0  1  0  0  0  0  0  0
  161.6270  207.8610  155.0440 N   0  0  0  0  0  2  0  0  0  0  0  0
  159.8530  209.4510  155.6550 C   0  0  0  0  0  2  0  0  0  0  0  0
  158.4680  209.5550  155.4940 O   0  0  0  0  0  0  0  0  0  0  0  0
  158.1800  210.8920  155.7680 C   0  0  0  0  0  2  0  0  0  0  0  0
  157.1330  211.4030  154.7950 C   0  0  0  0  0  2  0  0  0  0  0  0
  157.6590  212.6090  154.0390 C   0  0  0  0  0  1  0  0  0  0  0  0
  1 11  1  0  0  0  0
  1 21  1  0  0  0  0
  2  8  2  0  0  0  0
  3 16  1  1  0  0  0
  3  6  1  0  0  0  0
  5  9  2  0  0  0  0
  5 12  1  0  0  0  0
  6 12  1  0  0  0  0
  7 11  2  0  0  0  0
  8  5  1  0  0  0  0
  9  7  1  0  0  0  0
 10  4  1  6  0  0  0
 10  8  1  0  0  0  0
 10  3  1  0  0  0  0
 12  1  2  0  0  0  0
 13 16  1  0  0  0  0
 14 18  1  0  0  0  0
 15 17  2  0  0  0  0
 16 14  2  0  0  0  0
 17 14  1  0  0  0  0
 19 15  1  0  0  0  0
 20 13  2  0  0  0  0
 20 15  1  0  0  0  0
 21 23  1  0  0  0  0
 21 24  1  1  0  0  0
 23 22  1  0  0  0  0
 25 24  1  0  0  0  0
 25 26  1  0  0  0  0
 27 26  1  0  0  0  0
 28 27  1  0  0  0  0
M  END
>  <MODEL>
5

>  <REMARK>
 VINA RESULT:      -6.3      2.755      5.786
  Name = 
  7 active torsions:
  status: ('A' for Active; 'I' for Inactive)
    1  A    between atoms: C_1  and  C_2
    2  A    between atoms: C_2  and  C_3
    3  A    between atoms: C_2  and  N_11
    4  A    between atoms: C_3  and  O_7
    5  A    between atoms: C_6  and  C_22
    6  A    between atoms: O_7  and  C_22
    7  A    between atoms: C_10  and  C_13
                            x       y       z     vdW  Elec       q    Type
                         _______ _______ _______ _____ _____    ______ ____

>  <TORSDO>
F 7

$$$$
=
 OpenBabel11052422553D

 28 30  0  0  1  0  0  0  0  0999 V2000
  160.4170  211.0110  152.8780 C   0  0  0  0  0  0  0  0  0  0  0  0
  161.0720  207.1270  155.6470 O   0  0  0  0  0  0  0  0  0  0  0  0
  161.3790  207.4700  152.0130 C   0  0  1  0  0  3  0  0  0  0  0  0
  161.9380  205.6760  153.5060 O   0  0  0  0  0  1  0  0  0  0  0  0
  160.7900  209.0770  154.3170 C   0  0  0  0  0  0  0  0  0  0  0  0
  160.5090  208.7140  151.8340 C   0  0  0  0  0  2  0  0  0  0  0  0
  160.6500  211.3000  155.2770 C   0  0  0  0  0  3  0  0  0  0  0  0
  160.9830  207.6190  154.4890 C   0  0  0  0  0  0  0  0  0  0  0  0
  160.8150  209.9240  155.4320 C   0  0  0  0  0  3  0  0  0  0  0  0
  161.0140  206.7040  153.2930 C   0  0  1  0  0  3  0  0  0  0  0  0
  160.4530  211.8420  154.0080 C   0  0  0  0  0  3  0  0  0  0  0  0
  160.6040  209.6240  153.0280 C   0  0  0  0  0  0  0  0  0  0  0  0
  160.8790  205.2850  150.9480 C   0  0  0  0  0  3  0  0  0  0  0  0
  161.7280  207.0430  149.5060 C   0  0  0  0  0  0  0  0  0  0  0  0
  161.2110  204.8560  148.5900 C   0  0  0  0  0  0  0  0  0  0  0  0
  161.3300  206.6000  150.7880 C   0  0  0  0  0  0  0  0  0  0  0  0
  161.6640  206.1650  148.4170 C   0  0  0  0  0  3  0  0  0  0  0  0
  162.2270  208.4290  149.2640 C   0  0  0  0  0  1  0  0  0  0  0  0
  161.1520  203.9930  147.5050 O   0  0  0  0  0  1  0  0  0  0  0  0
  160.8180  204.4160  149.8560 C   0  0  0  0  0  3  0  0  0  0  0  0
  160.1940  211.6090  151.5170 C   0  0  1  0  0  3  0  0  0  0  0  0
  158.2970  212.9550  151.2730 C   0  0  0  0  0  1  0  0  0  0  0  0
  159.7080  212.9770  151.6180 N   0  0  0  0  0  2  0  0  0  0  0  0
  161.4420  211.5310  150.6410 C   0  0  0  0  0  2  0  0  0  0  0  0
  161.2450  212.2060  149.4330 O   0  0  0  0  0  0  0  0  0  0  0  0
  162.3360  211.8400  148.6430 C   0  0  0  0  0  2  0  0  0  0  0  0
  162.5510  212.8740  147.5530 C   0  0  0  0  0  2  0  0  0  0  0  0
  161.2290  213.2380  146.9030 C   0  0  0  0  0  1  0  0  0  0  0  0
  1 12  2  0  0  0  0
  1 11  1  0  0  0  0
  3 16  1  6  0  0  0
  3 10  1  0  0  0  0
  5  8  1  0  0  0  0
  5  9  2  0  0  0  0
  6  3  1  0  0  0  0
  6 12  1  0  0  0  0
  7  9  1  0  0  0  0
  8  2  2  0  0  0  0
 10  4  1  1  0  0  0
 10  8  1  0  0  0  0
 11  7  2  0  0  0  0
 12  5  1  0  0  0  0
 14 16  2  0  0  0  0
 15 20  1  0  0  0  0
 16 13  1  0  0  0  0
 17 15  2  0  0  0  0
 17 14  1  0  0  0  0
 18 14  1  0  0  0  0
 19 15  1  0  0  0  0
 20 13  2  0  0  0  0
 21 24  1  6  0  0  0
 21 23  1  0  0  0  0
 21  1  1  0  0  0  0
 22 23  1  0  0  0  0
 25 24  1  0  0  0  0
 26 25  1  0  0  0  0
 27 26  1  0  0  0  0
 28 27  1  0  0  0  0
M  END
>  <MODEL>
6

>  <REMARK>
 VINA RESULT:      -6.3      2.420      4.563
  Name = 
  7 active torsions:
  status: ('A' for Active; 'I' for Inactive)
    1  A    between atoms: C_1  and  C_2
    2  A    between atoms: C_2  and  C_3
    3  A    between atoms: C_2  and  N_11
    4  A    between atoms: C_3  and  O_7
    5  A    between atoms: C_6  and  C_22
    6  A    between atoms: O_7  and  C_22
    7  A    between atoms: C_10  and  C_13
                            x       y       z     vdW  Elec       q    Type
                         _______ _______ _______ _____ _____    ______ ____

>  <TORSDO>
F 7

$$$$
=
 OpenBabel11052422553D

 28 30  0  0  1  0  0  0  0  0999 V2000
  161.7450  207.0150  150.7640 C   0  0  0  0  0  0  0  0  0  0  0  0
  160.6430  202.8590  152.9320 O   0  0  0  0  0  0  0  0  0  0  0  0
  161.3130  203.5300  149.3930 C   0  0  1  0  0  3  0  0  0  0  0  0
  161.0250  201.4810  150.6090 O   0  0  0  0  0  1  0  0  0  0  0  0
  161.2350  204.9190  151.9030 C   0  0  0  0  0  0  0  0  0  0  0  0
  161.0090  205.0270  149.3910 C   0  0  0  0  0  2  0  0  0  0  0  0
  161.9030  206.8690  153.1820 C   0  0  0  0  0  3  0  0  0  0  0  0
  160.8340  203.4940  151.8590 C   0  0  0  0  0  0  0  0  0  0  0  0
  161.5090  205.5320  153.1320 C   0  0  0  0  0  3  0  0  0  0  0  0
  160.5910  202.8080  150.5410 C   0  0  1  0  0  3  0  0  0  0  0  0
  162.0210  207.6070  152.0050 C   0  0  0  0  0  3  0  0  0  0  0  0
  161.3670  205.6600  150.7090 C   0  0  0  0  0  0  0  0  0  0  0  0
  160.1450  201.8230  148.0200 C   0  0  0  0  0  3  0  0  0  0  0  0
  161.5790  203.3890  146.8440 C   0  0  0  0  0  0  0  0  0  0  0  0
  160.3900  201.6650  145.6180 C   0  0  0  0  0  0  0  0  0  0  0  0
  161.0150  202.9200  148.0520 C   0  0  0  0  0  0  0  0  0  0  0  0
  161.2610  202.7560  145.6370 C   0  0  0  0  0  3  0  0  0  0  0  0
  162.5220  204.5470  146.8050 C   0  0  0  0  0  1  0  0  0  0  0  0
  160.0810  201.0440  144.4160 O   0  0  0  0  0  1  0  0  0  0  0  0
  159.8320  201.1990  146.8100 C   0  0  0  0  0  3  0  0  0  0  0  0
  161.8670  207.8260  149.5050 C   0  0  1  0  0  3  0  0  0  0  0  0
  161.4720  207.3660  147.2450 C   0  0  0  0  0  1  0  0  0  0  0  0
  160.8320  207.4670  148.5470 N   0  0  0  0  0  2  0  0  0  0  0  0
  161.8630  209.3270  149.7830 C   0  0  0  0  0  2  0  0  0  0  0  0
  162.3250  210.0400  148.6730 O   0  0  0  0  0  0  0  0  0  0  0  0
  162.1400  211.3810  149.0130 C   0  0  0  0  0  2  0  0  0  0  0  0
  161.7390  212.1730  147.7820 C   0  0  0  0  0  2  0  0  0  0  0  0
  161.8760  213.6620  148.0470 C   0  0  0  0  0  1  0  0  0  0  0  0
  1 11  1  0  0  0  0
  3 16  1  6  0  0  0
  3 10  1  0  0  0  0
  5  9  2  0  0  0  0
  6  3  1  0  0  0  0
  6 12  1  0  0  0  0
  8  5  1  0  0  0  0
  8  2  2  0  0  0  0
  9  7  1  0  0  0  0
 10  4  1  1  0  0  0
 10  8  1  0  0  0  0
 11  7  2  0  0  0  0
 12  1  2  0  0  0  0
 12  5  1  0  0  0  0
 13 16  1  0  0  0  0
 14 16  2  0  0  0  0
 15 17  2  0  0  0  0
 15 20  1  0  0  0  0
 17 14  1  0  0  0  0
 18 14  1  0  0  0  0
 19 15  1  0  0  0  0
 20 13  2  0  0  0  0
 21 24  1  1  0  0  0
 21  1  1  0  0  0  0
 22 23  1  0  0  0  0
 23 21  1  0  0  0  0
 25 26  1  0  0  0  0
 25 24  1  0  0  0  0
 27 28  1  0  0  0  0
 27 26  1  0  0  0  0
M  END
>  <MODEL>
7

>  <REMARK>
 VINA RESULT:      -6.1      1.961      2.727
  Name = 
  7 active torsions:
  status: ('A' for Active; 'I' for Inactive)
    1  A    between atoms: C_1  and  C_2
    2  A    between atoms: C_2  and  C_3
    3  A    between atoms: C_2  and  N_11
    4  A    between atoms: C_3  and  O_7
    5  A    between atoms: C_6  and  C_22
    6  A    between atoms: O_7  and  C_22
    7  A    between atoms: C_10  and  C_13
                            x       y       z     vdW  Elec       q    Type
                         _______ _______ _______ _____ _____    ______ ____

>  <TORSDO>
F 7

$$$$
=
 OpenBabel11052422553D

 28 30  0  0  1  0  0  0  0  0999 V2000
  161.0850  205.7710  150.7890 C   0  0  0  0  0  0  0  0  0  0  0  0
  161.1750  206.7550  155.5020 O   0  0  0  0  0  0  0  0  0  0  0  0
  160.2010  208.9010  152.6970 C   0  0  1  0  0  3  0  0  0  0  0  0
  160.0290  209.1930  155.0720 O   0  0  0  0  0  1  0  0  0  0  0  0
  161.0940  206.2180  153.1870 C   0  0  0  0  0  0  0  0  0  0  0  0
  160.9480  208.1640  151.5850 C   0  0  0  0  0  2  0  0  0  0  0  0
  161.2700  203.9400  152.3720 C   0  0  0  0  0  3  0  0  0  0  0  0
  161.0240  207.1690  154.3200 C   0  0  0  0  0  0  0  0  0  0  0  0
  161.2190  204.8440  153.4320 C   0  0  0  0  0  3  0  0  0  0  0  0
  160.8350  208.6420  154.0710 C   0  0  1  0  0  3  0  0  0  0  0  0
  161.2030  204.4000  151.0570 C   0  0  0  0  0  3  0  0  0  0  0  0
  161.0130  206.6850  151.8570 C   0  0  0  0  0  0  0  0  0  0  0  0
  158.9860  211.0540  152.9170 C   0  0  0  0  0  3  0  0  0  0  0  0
  161.0080  211.0640  151.5740 C   0  0  0  0  0  0  0  0  0  0  0  0
  159.7210  213.1010  151.8580 C   0  0  0  0  0  0  0  0  0  0  0  0
  160.0820  210.3660  152.3830 C   0  0  0  0  0  0  0  0  0  0  0  0
  160.8180  212.4260  151.3190 C   0  0  0  0  0  3  0  0  0  0  0  0
  162.1950  210.3910  150.9650 C   0  0  0  0  0  1  0  0  0  0  0  0
  159.5420  214.4530  151.5990 O   0  0  0  0  0  1  0  0  0  0  0  0
  158.8050  212.4140  152.6580 C   0  0  0  0  0  3  0  0  0  0  0  0
  161.0240  206.2530  149.3660 C   0  0  1  0  0  3  0  0  0  0  0  0
  161.7750  208.0720  148.1020 C   0  0  0  0  0  1  0  0  0  0  0  0
  162.2030  207.0350  149.0260 N   0  0  0  0  0  2  0  0  0  0  0  0
  160.8180  205.1070  148.3790 C   0  0  0  0  0  2  0  0  0  0  0  0
  161.9680  204.8990  147.6110 O   0  0  0  0  0  0  0  0  0  0  0  0
  161.5830  203.9720  146.6420 C   0  0  0  0  0  2  0  0  0  0  0  0
  161.8040  204.5520  145.2570 C   0  0  0  0  0  2  0  0  0  0  0  0
  160.6490  205.4610  144.8770 C   0  0  0  0  0  1  0  0  0  0  0  0
  1 11  2  0  0  0  0
  1 12  1  0  0  0  0
  3 16  1  6  0  0  0
  3 10  1  0  0  0  0
  5  9  1  0  0  0  0
  5  8  1  0  0  0  0
  6 12  1  0  0  0  0
  6  3  1  0  0  0  0
  7  9  2  0  0  0  0
  8  2  2  0  0  0  0
 10  8  1  0  0  0  0
 10  4  1  1  0  0  0
 11  7  1  0  0  0  0
 12  5  2  0  0  0  0
 14 16  1  0  0  0  0
 15 20  2  0  0  0  0
 16 13  2  0  0  0  0
 17 14  2  0  0  0  0
 17 15  1  0  0  0  0
 18 14  1  0  0  0  0
 19 15  1  0  0  0  0
 20 13  1  0  0  0  0
 21 24  1  6  0  0  0
 21  1  1  0  0  0  0
 22 23  1  0  0  0  0
 23 21  1  0  0  0  0
 25 24  1  0  0  0  0
 26 25  1  0  0  0  0
 27 26  1  0  0  0  0
 28 27  1  0  0  0  0
M  END
>  <MODEL>
8

>  <REMARK>
 VINA RESULT:      -6.1      2.625      6.708
  Name = 
  7 active torsions:
  status: ('A' for Active; 'I' for Inactive)
    1  A    between atoms: C_1  and  C_2
    2  A    between atoms: C_2  and  C_3
    3  A    between atoms: C_2  and  N_11
    4  A    between atoms: C_3  and  O_7
    5  A    between atoms: C_6  and  C_22
    6  A    between atoms: O_7  and  C_22
    7  A    between atoms: C_10  and  C_13
                            x       y       z     vdW  Elec       q    Type
                         _______ _______ _______ _____ _____    ______ ____

>  <TORSDO>
F 7

$$$$
=
 OpenBabel11052422553D

 28 30  0  0  1  0  0  0  0  0999 V2000
  162.1040  209.9300  149.2840 C   0  0  0  0  0  0  0  0  0  0  0  0
  161.4910  206.1950  152.2590 O   0  0  0  0  0  0  0  0  0  0  0  0
  160.7430  209.7410  152.7950 C   0  0  1  0  0  3  0  0  0  0  0  0
  160.2350  207.7830  154.0860 O   0  0  0  0  0  1  0  0  0  0  0  0
  161.7600  208.0080  150.7450 C   0  0  0  0  0  0  0  0  0  0  0  0
  161.6850  210.3270  151.7420 C   0  0  0  0  0  2  0  0  0  0  0  0
  162.2110  207.6780  148.3850 C   0  0  0  0  0  3  0  0  0  0  0  0
  161.4690  207.4440  152.0830 C   0  0  0  0  0  0  0  0  0  0  0  0
  161.9520  207.1550  149.6510 C   0  0  0  0  0  3  0  0  0  0  0  0
  161.2060  208.3510  153.2550 C   0  0  1  0  0  3  0  0  0  0  0  0
  162.2860  209.0580  148.2010 C   0  0  0  0  0  3  0  0  0  0  0  0
  161.8230  209.4060  150.5600 C   0  0  0  0  0  0  0  0  0  0  0  0
  161.4610  210.6060  155.0080 C   0  0  0  0  0  3  0  0  0  0  0  0
  159.5230  211.6560  153.9920 C   0  0  0  0  0  0  0  0  0  0  0  0
  160.3190  212.4000  156.1600 C   0  0  0  0  0  0  0  0  0  0  0  0
  160.5600  210.6960  153.9410 C   0  0  0  0  0  0  0  0  0  0  0  0
  159.4120  212.5000  155.1030 C   0  0  0  0  0  3  0  0  0  0  0  0
  158.5210  211.8020  152.8940 C   0  0  0  0  0  1  0  0  0  0  0  0
  160.2010  213.2420  157.2580 O   0  0  0  0  0  1  0  0  0  0  0  0
  161.3440  211.4530  156.1120 C   0  0  0  0  0  3  0  0  0  0  0  0
  162.1980  211.4160  149.0720 C   0  0  1  0  0  3  0  0  0  0  0  0
  162.8120  213.0210  147.4850 C   0  0  0  0  0  1  0  0  0  0  0  0
  163.1890  211.7390  148.0570 N   0  0  0  0  0  2  0  0  0  0  0  0
  160.8440  212.0370  148.7370 C   0  0  0  0  0  2  0  0  0  0  0  0
  160.4620  212.9560  149.7190 O   0  0  0  0  0  0  0  0  0  0  0  0
  159.5190  213.7710  149.0910 C   0  0  0  0  0  2  0  0  0  0  0  0
  158.1360  213.4760  149.6420 C   0  0  0  0  0  2  0  0  0  0  0  0
  157.1610  213.2190  148.5070 C   0  0  0  0  0  1  0  0  0  0  0  0
  1 12  1  0  0  0  0
  3 10  1  0  0  0  0
  3 16  1  1  0  0  0
  5  8  1  0  0  0  0
  6  3  1  0  0  0  0
  7  9  2  0  0  0  0
  8  2  2  0  0  0  0
  8 10  1  0  0  0  0
  9  5  1  0  0  0  0
 10  4  1  1  0  0  0
 11  7  1  0  0  0  0
 11  1  2  0  0  0  0
 12  5  2  0  0  0  0
 12  6  1  0  0  0  0
 13 20  1  0  0  0  0
 14 17  2  0  0  0  0
 15 19  1  0  0  0  0
 16 14  1  0  0  0  0
 16 13  2  0  0  0  0
 17 15  1  0  0  0  0
 18 14  1  0  0  0  0
 20 15  2  0  0  0  0
 21 24  1  6  0  0  0
 21  1  1  0  0  0  0
 22 23  1  0  0  0  0
 23 21  1  0  0  0  0
 24 25  1  0  0  0  0
 26 27  1  0  0  0  0
 26 25  1  0  0  0  0
 28 27  1  0  0  0  0
M  END
>  <MODEL>
9

>  <REMARK>
 VINA RESULT:      -5.7      3.552      7.769
  Name = 
  7 active torsions:
  status: ('A' for Active; 'I' for Inactive)
    1  A    between atoms: C_1  and  C_2
    2  A    between atoms: C_2  and  C_3
    3  A    between atoms: C_2  and  N_11
    4  A    between atoms: C_3  and  O_7
    5  A    between atoms: C_6  and  C_22
    6  A    between atoms: O_7  and  C_22
    7  A    between atoms: C_10  and  C_13
                            x       y       z     vdW  Elec       q    Type
                         _______ _______ _______ _____ _____    ______ ____

>  <TORSDO>
F 7

$$$$
