=
 OpenBabel11052422163D

 25 28  0  0  1  0  0  0  0  0999 V2000
  161.2170  207.0340  151.5930 N   0  0  0  0  0  0  0  0  0  0  0  0
  161.2600  208.1740  152.3350 C   0  0  0  0  0  0  0  0  0  0  0  0
  161.0600  205.6150  153.5040 C   0  0  0  0  0  3  0  0  0  0  0  0
  161.2460  206.8160  150.2710 C   0  0  0  0  0  0  0  0  0  0  0  0
  161.2520  205.9010  147.6940 C   0  0  0  0  0  3  0  0  0  0  0  0
  161.1090  206.7610  154.3120 C   0  0  0  0  0  3  0  0  0  0  0  0
  161.1640  205.4740  150.0400 C   0  0  0  0  0  0  0  0  0  0  0  0
  161.1640  204.9680  148.7460 C   0  0  0  0  0  3  0  0  0  0  0  0
  161.2410  209.2270  154.5680 N   0  0  0  0  0  0  0  0  0  0  0  0
  160.9610  209.1580  155.9940 C   0  0  0  0  0  1  0  0  0  0  0  0
  161.4070  209.5270  151.6880 C   0  0  0  0  0  2  0  0  0  0  0  0
  161.3340  207.2840  147.9800 C   0  0  0  0  0  3  0  0  0  0  0  0
  161.1180  205.7930  152.1260 C   0  0  0  0  0  0  0  0  0  0  0  0
  161.0820  204.7930  151.2040 N   0  0  0  0  0  0  0  0  0  0  0  0
  161.5350  210.5360  153.9870 C   0  0  0  0  0  2  0  0  0  0  0  0
  161.3290  207.7310  149.2730 N   0  0  0  0  0  0  0  0  0  0  0  0
  160.9260  210.6670  152.5910 C   0  0  2  0  0  3  0  0  0  0  0  0
  161.2180  208.0480  153.7420 C   0  0  0  0  0  0  0  0  0  0  0  0
  159.4350  210.7070  152.6560 C   0  0  0  0  0  3  0  0  0  0  0  0
  158.8400  211.5110  153.4900 C   0  0  0  0  0  0  0  0  0  0  0  0
  158.2460  212.3150  154.3290 C   0  0  0  0  0  0  0  0  0  0  0  0
  157.3130  213.3480  153.7970 C   0  0  0  0  0  1  0  0  0  0  0  0
  158.5070  212.2150  155.7740 C   0  0  0  0  0  0  0  0  0  0  0  0
  157.4960  211.8270  156.6490 O   0  0  0  0  0  1  0  0  0  0  0  0
  159.6490  212.4820  156.2330 O   0  0  0  0  0  0  0  0  0  0  0  0
  1 13  1  0  0  0  0
  1  2  1  0  0  0  0
  2 18  2  0  0  0  0
  3  6  2  0  0  0  0
  4  1  1  0  0  0  0
  5 12  2  0  0  0  0
  5  8  1  0  0  0  0
  7  4  1  0  0  0  0
  7 14  1  0  0  0  0
  8  7  2  0  0  0  0
  9 10  1  0  0  0  0
 11  2  1  0  0  0  0
 11 17  1  0  0  0  0
 12 16  1  0  0  0  0
 13  3  1  0  0  0  0
 14 13  2  0  0  0  0
 15  9  1  0  0  0  0
 16  4  2  0  0  0  0
 17 19  1  1  0  0  0
 17 15  1  0  0  0  0
 18  6  1  0  0  0  0
 18  9  1  0  0  0  0
 19 20  2  0  0  0  0
 20 21  2  0  0  0  0
 21 23  1  0  0  0  0
 22 21  1  0  0  0  0
 23 25  2  0  0  0  0
 23 24  1  0  0  0  0
M  END
>  <MODEL>
1

>  <REMARK>
 VINA RESULT:      -7.9      0.000      0.000
  Name = 
  2 active torsions:
  status: ('A' for Active; 'I' for Inactive)
    1  A    between atoms: C_2  and  C_21
    2  A    between atoms: C_6  and  C_23
                            x       y       z     vdW  Elec       q    Type
                         _______ _______ _______ _____ _____    ______ ____

>  <TORSDO>
F 2

$$$$
=
 OpenBabel11052422163D

 25 28  0  0  1  0  0  0  0  0999 V2000
  161.5190  204.6480  149.0970 N   0  0  0  0  0  0  0  0  0  0  0  0
  161.8020  205.4420  150.1650 C   0  0  0  0  0  0  0  0  0  0  0  0
  160.5400  202.9340  150.4390 C   0  0  0  0  0  3  0  0  0  0  0  0
  161.7190  204.8000  147.7810 C   0  0  0  0  0  0  0  0  0  0  0  0
  161.8990  204.6790  145.0550 C   0  0  0  0  0  3  0  0  0  0  0  0
  160.8200  203.7140  151.5710 C   0  0  0  0  0  3  0  0  0  0  0  0
  161.2360  203.7020  147.1290 C   0  0  0  0  0  0  0  0  0  0  0  0
  161.3080  203.6020  145.7450 C   0  0  0  0  0  3  0  0  0  0  0  0
  161.7200  205.7820  152.6090 N   0  0  0  0  0  0  0  0  0  0  0  0
  161.1720  205.4420  153.9130 C   0  0  0  0  0  1  0  0  0  0  0  0
  162.5120  206.7610  149.9960 C   0  0  0  0  0  2  0  0  0  0  0  0
  162.3840  205.7980  145.7720 C   0  0  0  0  0  3  0  0  0  0  0  0
  160.9120  203.4410  149.1970 C   0  0  0  0  0  0  0  0  0  0  0  0
  160.7150  202.8160  148.0050 N   0  0  0  0  0  0  0  0  0  0  0  0
  162.5390  206.9880  152.5000 C   0  0  0  0  0  2  0  0  0  0  0  0
  162.2890  205.8480  147.1360 N   0  0  0  0  0  0  0  0  0  0  0  0
  162.2810  207.7090  151.1760 C   0  0  2  0  0  3  0  0  0  0  0  0
  161.4580  204.9680  151.4510 C   0  0  0  0  0  0  0  0  0  0  0  0
  160.9060  208.2880  151.1380 C   0  0  0  0  0  3  0  0  0  0  0  0
  160.5560  209.1970  152.0030 C   0  0  0  0  0  0  0  0  0  0  0  0
  160.2080  210.1060  152.8730 C   0  0  0  0  0  0  0  0  0  0  0  0
  159.7670  211.4420  152.3800 C   0  0  0  0  0  1  0  0  0  0  0  0
  160.2660  209.8220  154.3160 C   0  0  0  0  0  0  0  0  0  0  0  0
  161.2490  208.9820  154.8310 O   0  0  0  0  0  0  0  0  0  0  0  0
  159.4240  210.3350  155.0980 O   0  0  0  0  0  1  0  0  0  0  0  0
  1 13  1  0  0  0  0
  1  2  1  0  0  0  0
  2 18  2  0  0  0  0
  3  6  2  0  0  0  0
  4  1  1  0  0  0  0
  5  8  2  0  0  0  0
  5 12  1  0  0  0  0
  7  4  2  0  0  0  0
  7 14  1  0  0  0  0
  8  7  1  0  0  0  0
  9 10  1  0  0  0  0
 11  2  1  0  0  0  0
 11 17  1  0  0  0  0
 12 16  2  0  0  0  0
 13  3  1  0  0  0  0
 14 13  2  0  0  0  0
 15  9  1  0  0  0  0
 16  4  1  0  0  0  0
 17 19  1  1  0  0  0
 17 15  1  0  0  0  0
 18  6  1  0  0  0  0
 18  9  1  0  0  0  0
 19 20  2  0  0  0  0
 20 21  2  0  0  0  0
 21 23  1  0  0  0  0
 22 21  1  0  0  0  0
 23 24  2  0  0  0  0
 23 25  1  0  0  0  0
M  END
>  <MODEL>
2

>  <REMARK>
 VINA RESULT:      -7.7      2.116      3.581
  Name = 
  2 active torsions:
  status: ('A' for Active; 'I' for Inactive)
    1  A    between atoms: C_2  and  C_21
    2  A    between atoms: C_6  and  C_23
                            x       y       z     vdW  Elec       q    Type
                         _______ _______ _______ _____ _____    ______ ____

>  <TORSDO>
F 2

$$$$
=
 OpenBabel11052422163D

 25 28  0  0  1  0  0  0  0  0999 V2000
  161.0820  208.7160  153.3410 N   0  0  0  0  0  0  0  0  0  0  0  0
  161.6640  207.9530  152.3770 C   0  0  0  0  0  0  0  0  0  0  0  0
  160.7300  210.5660  151.8750 C   0  0  0  0  0  3  0  0  0  0  0  0
  160.8100  208.4870  154.6330 C   0  0  0  0  0  0  0  0  0  0  0  0
  160.0540  208.4640  157.2600 C   0  0  0  0  0  3  0  0  0  0  0  0
  161.3310  209.8190  150.8510 C   0  0  0  0  0  3  0  0  0  0  0  0
  160.2020  209.5880  155.1610 C   0  0  0  0  0  0  0  0  0  0  0  0
  159.8020  209.6170  156.4920 C   0  0  0  0  0  3  0  0  0  0  0  0
  162.4030  207.7350  150.0310 N   0  0  0  0  0  0  0  0  0  0  0  0
  162.3560  208.1800  148.6470 C   0  0  0  0  0  1  0  0  0  0  0  0
  162.1910  206.5730  152.6800 C   0  0  0  0  0  2  0  0  0  0  0  0
  160.6850  207.3440  156.6710 C   0  0  0  0  0  3  0  0  0  0  0  0
  160.6210  209.9720  153.1290 C   0  0  0  0  0  0  0  0  0  0  0  0
  160.0680  210.5550  154.2270 N   0  0  0  0  0  0  0  0  0  0  0  0
  163.0590  206.4620  150.3230 C   0  0  0  0  0  2  0  0  0  0  0  0
  161.0590  207.3660  155.3550 N   0  0  0  0  0  0  0  0  0  0  0  0
  162.3200  205.7030  151.4260 C   0  0  2  0  0  3  0  0  0  0  0  0
  161.8110  208.5130  151.0890 C   0  0  0  0  0  0  0  0  0  0  0  0
  160.9820  205.2390  150.9560 C   0  0  0  0  0  3  0  0  0  0  0  0
  160.8960  204.3110  150.0460 C   0  0  0  0  0  0  0  0  0  0  0  0
  160.8130  203.3820  149.1320 C   0  0  0  0  0  0  0  0  0  0  0  0
  160.0940  202.1170  149.4550 C   0  0  0  0  0  1  0  0  0  0  0  0
  161.4350  203.5750  147.8110 C   0  0  0  0  0  0  0  0  0  0  0  0
  161.2570  202.6310  146.8030 O   0  0  0  0  0  0  0  0  0  0  0  0
  162.1350  204.5950  147.5830 O   0  0  0  0  0  1  0  0  0  0  0  0
  1  4  1  0  0  0  0
  2 11  1  0  0  0  0
  2  1  1  0  0  0  0
  3 13  1  0  0  0  0
  4  7  2  0  0  0  0
  4 16  1  0  0  0  0
  6 18  1  0  0  0  0
  6  3  2  0  0  0  0
  7  8  1  0  0  0  0
  8  5  2  0  0  0  0
  9 15  1  0  0  0  0
  9 18  1  0  0  0  0
 10  9  1  0  0  0  0
 12  5  1  0  0  0  0
 13  1  1  0  0  0  0
 13 14  2  0  0  0  0
 14  7  1  0  0  0  0
 15 17  1  0  0  0  0
 16 12  2  0  0  0  0
 17 19  1  6  0  0  0
 17 11  1  0  0  0  0
 18  2  2  0  0  0  0
 20 19  2  0  0  0  0
 21 22  1  0  0  0  0
 21 20  2  0  0  0  0
 23 21  1  0  0  0  0
 24 23  2  0  0  0  0
 25 23  1  0  0  0  0
M  END
>  <MODEL>
3

>  <REMARK>
 VINA RESULT:      -7.3      3.990      7.728
  Name = 
  2 active torsions:
  status: ('A' for Active; 'I' for Inactive)
    1  A    between atoms: C_2  and  C_21
    2  A    between atoms: C_6  and  C_23
                            x       y       z     vdW  Elec       q    Type
                         _______ _______ _______ _____ _____    ______ ____

>  <TORSDO>
F 2

$$$$
=
 OpenBabel11052422163D

 25 28  0  0  1  0  0  0  0  0999 V2000
  161.4930  207.8410  152.1010 N   0  0  0  0  0  0  0  0  0  0  0  0
  161.3880  208.6300  153.2050 C   0  0  0  0  0  0  0  0  0  0  0  0
  161.2040  205.8190  153.3350 C   0  0  0  0  0  3  0  0  0  0  0  0
  161.6800  208.1220  150.8050 C   0  0  0  0  0  0  0  0  0  0  0  0
  162.0250  208.2130  148.0940 C   0  0  0  0  0  3  0  0  0  0  0  0
  161.0990  206.5910  154.5010 C   0  0  0  0  0  3  0  0  0  0  0  0
  161.7010  206.9570  150.0960 C   0  0  0  0  0  0  0  0  0  0  0  0
  161.8730  206.9590  148.7170 C   0  0  0  0  0  3  0  0  0  0  0  0
  161.0610  208.7930  155.6470 N   0  0  0  0  0  0  0  0  0  0  0  0
  160.6290  208.2040  156.9040 C   0  0  0  0  0  1  0  0  0  0  0  0
  161.5280  210.1280  153.1150 C   0  0  0  0  0  2  0  0  0  0  0  0
  161.9950  209.3970  148.8680 C   0  0  0  0  0  3  0  0  0  0  0  0
  161.4050  206.4900  152.1320 C   0  0  0  0  0  0  0  0  0  0  0  0
  161.5290  205.8960  150.9140 N   0  0  0  0  0  0  0  0  0  0  0  0
  161.3430  210.2270  155.6200 C   0  0  0  0  0  2  0  0  0  0  0  0
  161.8220  209.3400  150.2240 N   0  0  0  0  0  0  0  0  0  0  0  0
  160.8860  210.8530  154.3010 C   0  0  2  0  0  3  0  0  0  0  0  0
  161.1970  207.9980  154.4540 C   0  0  0  0  0  0  0  0  0  0  0  0
  159.3980  210.8480  154.1910 C   0  0  0  0  0  3  0  0  0  0  0  0
  158.7380  211.9710  154.2120 C   0  0  0  0  0  0  0  0  0  0  0  0
  158.0790  213.0980  154.2360 C   0  0  0  0  0  0  0  0  0  0  0  0
  157.2260  213.4570  153.0680 C   0  0  0  0  0  1  0  0  0  0  0  0
  158.1920  214.0050  155.3900 C   0  0  0  0  0  0  0  0  0  0  0  0
  157.0580  214.3830  156.1040 O   0  0  0  0  0  1  0  0  0  0  0  0
  159.3160  214.4500  155.7400 O   0  0  0  0  0  0  0  0  0  0  0  0
  1 13  1  0  0  0  0
  1  2  1  0  0  0  0
  2 18  2  0  0  0  0
  3  6  2  0  0  0  0
  4  1  1  0  0  0  0
  5  8  2  0  0  0  0
  5 12  1  0  0  0  0
  7  4  2  0  0  0  0
  7 14  1  0  0  0  0
  8  7  1  0  0  0  0
  9 10  1  0  0  0  0
 11  2  1  0  0  0  0
 11 17  1  0  0  0  0
 12 16  2  0  0  0  0
 13  3  1  0  0  0  0
 14 13  2  0  0  0  0
 15  9  1  0  0  0  0
 16  4  1  0  0  0  0
 17 19  1  6  0  0  0
 17 15  1  0  0  0  0
 18  6  1  0  0  0  0
 18  9  1  0  0  0  0
 19 20  2  0  0  0  0
 20 21  2  0  0  0  0
 21 23  1  0  0  0  0
 22 21  1  0  0  0  0
 23 25  2  0  0  0  0
 23 24  1  0  0  0  0
M  END
>  <MODEL>
4

>  <REMARK>
 VINA RESULT:      -6.6      1.323      1.547
  Name = 
  2 active torsions:
  status: ('A' for Active; 'I' for Inactive)
    1  A    between atoms: C_2  and  C_21
    2  A    between atoms: C_6  and  C_23
                            x       y       z     vdW  Elec       q    Type
                         _______ _______ _______ _____ _____    ______ ____

>  <TORSDO>
F 2

$$$$
=
 OpenBabel11052422163D

 25 28  0  0  1  0  0  0  0  0999 V2000
  160.6330  210.3230  153.3380 N   0  0  0  0  0  0  0  0  0  0  0  0
  161.2870  209.5130  152.4610 C   0  0  0  0  0  0  0  0  0  0  0  0
  160.1430  211.9710  151.6840 C   0  0  0  0  0  3  0  0  0  0  0  0
  160.3680  210.2090  154.6460 C   0  0  0  0  0  0  0  0  0  0  0  0
  159.5900  210.4000  157.2610 C   0  0  0  0  0  3  0  0  0  0  0  0
  160.8140  211.1740  150.7460 C   0  0  0  0  0  3  0  0  0  0  0  0
  159.6660  211.3050  155.0540 C   0  0  0  0  0  0  0  0  0  0  0  0
  159.2510  211.4400  156.3740 C   0  0  0  0  0  3  0  0  0  0  0  0
  162.0640  209.1120  150.1520 N   0  0  0  0  0  0  0  0  0  0  0  0
  161.9950  209.4040  148.7290 C   0  0  0  0  0  1  0  0  0  0  0  0
  161.9230  208.2220  152.9090 C   0  0  0  0  0  2  0  0  0  0  0  0
  160.3180  209.2810  156.7940 C   0  0  0  0  0  3  0  0  0  0  0  0
  160.0720  211.5060  152.9940 C   0  0  0  0  0  0  0  0  0  0  0  0
  159.4600  212.1530  154.0230 N   0  0  0  0  0  0  0  0  0  0  0  0
  162.8210  207.9370  150.5780 C   0  0  0  0  0  2  0  0  0  0  0  0
  160.7020  209.1950  155.4830 N   0  0  0  0  0  0  0  0  0  0  0  0
  162.1360  207.2390  151.7540 C   0  0  2  0  0  3  0  0  0  0  0  0
  161.3990  209.9450  151.1210 C   0  0  0  0  0  0  0  0  0  0  0  0
  160.8460  206.6170  151.3340 C   0  0  0  0  0  3  0  0  0  0  0  0
  160.8330  205.7110  150.3980 C   0  0  0  0  0  0  0  0  0  0  0  0
  160.8220  204.8060  149.4580 C   0  0  0  0  0  0  0  0  0  0  0  0
  160.2910  203.4490  149.7710 C   0  0  0  0  0  1  0  0  0  0  0  0
  161.3430  205.1150  148.1150 C   0  0  0  0  0  0  0  0  0  0  0  0
  162.2470  204.2580  147.4950 O   0  0  0  0  0  0  0  0  0  0  0  0
  160.9760  206.1600  147.5180 O   0  0  0  0  0  1  0  0  0  0  0  0
  1  4  1  0  0  0  0
  2 11  1  0  0  0  0
  2  1  1  0  0  0  0
  3 13  1  0  0  0  0
  4  7  2  0  0  0  0
  4 16  1  0  0  0  0
  6 18  1  0  0  0  0
  6  3  2  0  0  0  0
  7  8  1  0  0  0  0
  8  5  2  0  0  0  0
  9 15  1  0  0  0  0
  9 18  1  0  0  0  0
 10  9  1  0  0  0  0
 12  5  1  0  0  0  0
 13  1  1  0  0  0  0
 13 14  2  0  0  0  0
 14  7  1  0  0  0  0
 15 17  1  0  0  0  0
 16 12  2  0  0  0  0
 17 19  1  6  0  0  0
 17 11  1  0  0  0  0
 18  2  2  0  0  0  0
 20 19  2  0  0  0  0
 21 22  1  0  0  0  0
 21 20  2  0  0  0  0
 23 21  1  0  0  0  0
 24 23  2  0  0  0  0
 25 23  1  0  0  0  0
M  END
>  <MODEL>
5

>  <REMARK>
 VINA RESULT:      -5.8      3.622      7.549
  Name = 
  2 active torsions:
  status: ('A' for Active; 'I' for Inactive)
    1  A    between atoms: C_2  and  C_21
    2  A    between atoms: C_6  and  C_23
                            x       y       z     vdW  Elec       q    Type
                         _______ _______ _______ _____ _____    ______ ____

>  <TORSDO>
F 2

$$$$
=
 OpenBabel11052422163D

 25 28  0  0  1  0  0  0  0  0999 V2000
  159.9350  211.7400  153.4450 N   0  0  0  0  0  0  0  0  0  0  0  0
  160.7740  211.0030  152.6680 C   0  0  0  0  0  0  0  0  0  0  0  0
  159.4590  213.3040  151.7070 C   0  0  0  0  0  3  0  0  0  0  0  0
  159.5320  211.6090  154.7160 C   0  0  0  0  0  0  0  0  0  0  0  0
  158.4350  211.7350  157.2170 C   0  0  0  0  0  3  0  0  0  0  0  0
  160.3220  212.5810  150.8710 C   0  0  0  0  0  3  0  0  0  0  0  0
  158.6670  212.6210  155.0140 C   0  0  0  0  0  0  0  0  0  0  0  0
  158.0870  212.7210  156.2730 C   0  0  0  0  0  3  0  0  0  0  0  0
  161.8590  210.6710  150.4750 N   0  0  0  0  0  0  0  0  0  0  0  0
  161.9250  210.9380  149.0470 C   0  0  0  0  0  1  0  0  0  0  0  0
  161.4960  209.7980  153.2170 C   0  0  0  0  0  2  0  0  0  0  0  0
  159.3360  210.7030  156.8640 C   0  0  0  0  0  3  0  0  0  0  0  0
  159.2870  212.8470  153.0100 C   0  0  0  0  0  0  0  0  0  0  0  0
  158.4890  213.4290  153.9460 N   0  0  0  0  0  0  0  0  0  0  0  0
  162.6880  209.5950  151.0130 C   0  0  0  0  0  2  0  0  0  0  0  0
  159.8780  210.6490  155.6090 N   0  0  0  0  0  0  0  0  0  0  0  0
  161.9530  208.8350  152.1180 C   0  0  2  0  0  3  0  0  0  0  0  0
  160.9940  211.4310  151.3400 C   0  0  0  0  0  0  0  0  0  0  0  0
  160.8010  208.0640  151.5660 C   0  0  0  0  0  3  0  0  0  0  0  0
  160.9800  207.2510  150.5640 C   0  0  0  0  0  0  0  0  0  0  0  0
  161.1610  206.4390  149.5580 C   0  0  0  0  0  0  0  0  0  0  0  0
  160.8310  204.9960  149.7300 C   0  0  0  0  0  1  0  0  0  0  0  0
  161.6990  206.9370  148.2810 C   0  0  0  0  0  0  0  0  0  0  0  0
  161.1030  206.5780  147.0760 O   0  0  0  0  0  0  0  0  0  0  0  0
  162.7060  207.6920  148.2690 O   0  0  0  0  0  1  0  0  0  0  0  0
  1  4  1  0  0  0  0
  2 11  1  0  0  0  0
  2  1  1  0  0  0  0
  3 13  1  0  0  0  0
  4  7  2  0  0  0  0
  4 16  1  0  0  0  0
  6 18  1  0  0  0  0
  6  3  2  0  0  0  0
  7  8  1  0  0  0  0
  8  5  2  0  0  0  0
  9 15  1  0  0  0  0
  9 18  1  0  0  0  0
 10  9  1  0  0  0  0
 12  5  1  0  0  0  0
 13  1  1  0  0  0  0
 13 14  2  0  0  0  0
 14  7  1  0  0  0  0
 15 17  1  0  0  0  0
 16 12  2  0  0  0  0
 17 19  1  6  0  0  0
 17 11  1  0  0  0  0
 18  2  2  0  0  0  0
 20 19  2  0  0  0  0
 21 22  1  0  0  0  0
 21 20  2  0  0  0  0
 23 21  1  0  0  0  0
 24 23  2  0  0  0  0
 25 23  1  0  0  0  0
M  END
>  <MODEL>
6

>  <REMARK>
 VINA RESULT:      -5.6      3.606      7.632
  Name = 
  2 active torsions:
  status: ('A' for Active; 'I' for Inactive)
    1  A    between atoms: C_2  and  C_21
    2  A    between atoms: C_6  and  C_23
                            x       y       z     vdW  Elec       q    Type
                         _______ _______ _______ _____ _____    ______ ____

>  <TORSDO>
F 2

$$$$
=
 OpenBabel11052422163D

 25 28  0  0  1  0  0  0  0  0999 V2000
  161.6240  206.2210  148.9290 N   0  0  0  0  0  0  0  0  0  0  0  0
  161.9300  207.4610  149.3970 C   0  0  0  0  0  0  0  0  0  0  0  0
  160.5340  205.5630  150.9470 C   0  0  0  0  0  3  0  0  0  0  0  0
  161.8540  205.6160  147.7560 C   0  0  0  0  0  0  0  0  0  0  0  0
  162.0740  204.0090  145.5540 C   0  0  0  0  0  3  0  0  0  0  0  0
  160.8340  206.8270  151.4760 C   0  0  0  0  0  3  0  0  0  0  0  0
  161.3260  204.3580  147.7930 C   0  0  0  0  0  0  0  0  0  0  0  0
  161.4160  203.5100  146.6950 C   0  0  0  0  0  3  0  0  0  0  0  0
  161.8240  209.0930  151.2470 N   0  0  0  0  0  0  0  0  0  0  0  0
  161.2370  209.5450  152.4980 C   0  0  0  0  0  1  0  0  0  0  0  0
  162.7110  208.4440  148.5630 C   0  0  0  0  0  2  0  0  0  0  0  0
  162.6050  205.3200  145.5600 C   0  0  0  0  0  3  0  0  0  0  0  0
  160.9520  205.2900  149.6490 C   0  0  0  0  0  0  0  0  0  0  0  0
  160.7430  204.1190  148.9880 N   0  0  0  0  0  0  0  0  0  0  0  0
  162.7060  210.0100  150.5290 C   0  0  0  0  0  2  0  0  0  0  0  0
  162.4890  206.1160  146.6660 N   0  0  0  0  0  0  0  0  0  0  0  0
  162.5090  209.8920  149.0170 C   0  0  2  0  0  3  0  0  0  0  0  0
  161.5390  207.7850  150.7150 C   0  0  0  0  0  0  0  0  0  0  0  0
  161.1680  210.4020  148.6080 C   0  0  0  0  0  3  0  0  0  0  0  0
  161.0690  211.5070  147.9270 C   0  0  0  0  0  0  0  0  0  0  0  0
  160.9730  212.6170  147.2460 C   0  0  0  0  0  0  0  0  0  0  0  0
  160.3280  212.5840  145.9030 C   0  0  0  0  0  1  0  0  0  0  0  0
  161.5090  213.8770  147.7890 C   0  0  0  0  0  0  0  0  0  0  0  0
  160.9440  214.4530  148.9230 O   0  0  0  0  0  1  0  0  0  0  0  0
  162.4830  214.4450  147.2300 O   0  0  0  0  0  0  0  0  0  0  0  0
  1  2  1  0  0  0  0
  1 13  1  0  0  0  0
  2 18  2  0  0  0  0
  3  6  2  0  0  0  0
  4  7  1  0  0  0  0
  4  1  1  0  0  0  0
  5 12  2  0  0  0  0
  5  8  1  0  0  0  0
  7 14  1  0  0  0  0
  8  7  2  0  0  0  0
  9 10  1  0  0  0  0
 11 17  1  0  0  0  0
 11  2  1  0  0  0  0
 12 16  1  0  0  0  0
 13  3  1  0  0  0  0
 14 13  2  0  0  0  0
 15  9  1  0  0  0  0
 16  4  2  0  0  0  0
 17 19  1  1  0  0  0
 17 15  1  0  0  0  0
 18  9  1  0  0  0  0
 18  6  1  0  0  0  0
 20 19  2  0  0  0  0
 21 23  1  0  0  0  0
 21 20  2  0  0  0  0
 22 21  1  0  0  0  0
 23 24  1  0  0  0  0
 25 23  2  0  0  0  0
M  END
>  <MODEL>
7

>  <REMARK>
 VINA RESULT:      -5.6      3.716      4.913
  Name = 
  2 active torsions:
  status: ('A' for Active; 'I' for Inactive)
    1  A    between atoms: C_2  and  C_21
    2  A    between atoms: C_6  and  C_23
                            x       y       z     vdW  Elec       q    Type
                         _______ _______ _______ _____ _____    ______ ____

>  <TORSDO>
F 2

$$$$
=
 OpenBabel11052422163D

 25 28  0  0  1  0  0  0  0  0999 V2000
  159.1480  212.2660  153.6680 N   0  0  0  0  0  0  0  0  0  0  0  0
  160.1380  211.4620  153.1930 C   0  0  0  0  0  0  0  0  0  0  0  0
  158.8480  213.3820  151.5800 C   0  0  0  0  0  3  0  0  0  0  0  0
  158.5670  212.3680  154.8700 C   0  0  0  0  0  0  0  0  0  0  0  0
  157.0980  212.9140  157.1110 C   0  0  0  0  0  3  0  0  0  0  0  0
  159.8690  212.5810  151.0490 C   0  0  0  0  0  3  0  0  0  0  0  0
  157.6070  213.3360  154.8190 C   0  0  0  0  0  0  0  0  0  0  0  0
  156.8380  213.6440  155.9350 C   0  0  0  0  0  3  0  0  0  0  0  0
  161.5600  210.7790  151.2930 N   0  0  0  0  0  0  0  0  0  0  0  0
  161.8250  210.7460  149.8640 C   0  0  0  0  0  1  0  0  0  0  0  0
  160.8390  210.4690  154.0860 C   0  0  0  0  0  2  0  0  0  0  0  0
  158.1010  211.9170  157.1190 C   0  0  0  0  0  3  0  0  0  0  0  0
  158.5090  213.1940  152.9170 C   0  0  0  0  0  0  0  0  0  0  0  0
  157.5450  213.8840  153.5850 N   0  0  0  0  0  0  0  0  0  0  0  0
  162.3610  209.9190  152.1620 C   0  0  0  0  0  2  0  0  0  0  0  0
  158.8300  211.6510  155.9920 N   0  0  0  0  0  0  0  0  0  0  0  0
  161.5140  209.3430  153.2980 C   0  0  2  0  0  3  0  0  0  0  0  0
  160.5300  211.6210  151.8460 C   0  0  0  0  0  0  0  0  0  0  0  0
  160.5070  208.3730  152.7790 C   0  0  0  0  0  3  0  0  0  0  0  0
  160.8430  207.5120  151.8600 C   0  0  0  0  0  0  0  0  0  0  0  0
  161.1810  206.6530  150.9380 C   0  0  0  0  0  0  0  0  0  0  0  0
  161.0480  205.1970  151.2270 C   0  0  0  0  0  1  0  0  0  0  0  0
  161.7020  207.1140  149.6400 C   0  0  0  0  0  0  0  0  0  0  0  0
  163.0570  207.3880  149.4810 O   0  0  0  0  0  1  0  0  0  0  0  0
  160.9240  207.2680  148.6630 O   0  0  0  0  0  0  0  0  0  0  0  0
  1  4  1  0  0  0  0
  2  1  1  0  0  0  0
  2 11  1  0  0  0  0
  3 13  1  0  0  0  0
  4 16  1  0  0  0  0
  5 12  1  0  0  0  0
  6  3  2  0  0  0  0
  6 18  1  0  0  0  0
  7  4  2  0  0  0  0
  7  8  1  0  0  0  0
  8  5  2  0  0  0  0
  9 18  1  0  0  0  0
  9 15  1  0  0  0  0
 10  9  1  0  0  0  0
 13 14  2  0  0  0  0
 13  1  1  0  0  0  0
 14  7  1  0  0  0  0
 15 17  1  0  0  0  0
 16 12  2  0  0  0  0
 17 19  1  6  0  0  0
 17 11  1  0  0  0  0
 18  2  2  0  0  0  0
 20 19  2  0  0  0  0
 21 22  1  0  0  0  0
 21 20  2  0  0  0  0
 23 21  1  0  0  0  0
 24 23  1  0  0  0  0
 25 23  2  0  0  0  0
M  END
>  <MODEL>
8

>  <REMARK>
 VINA RESULT:      -5.1      3.470      7.698
  Name = 
  2 active torsions:
  status: ('A' for Active; 'I' for Inactive)
    1  A    between atoms: C_2  and  C_21
    2  A    between atoms: C_6  and  C_23
                            x       y       z     vdW  Elec       q    Type
                         _______ _______ _______ _____ _____    ______ ____

>  <TORSDO>
F 2

$$$$
