=
 OpenBabel11062408423D

 55 60  0  0  1  0  0  0  0  0999 V2000
  163.0220  205.2060  147.1660 C   0  0  0  0  0  2  0  0  0  0  0  0
  161.4090  205.0080  144.7230 C   0  0  2  0  0  3  0  0  0  0  0  0
  161.0510  205.9840  145.8440 C   0  0  0  0  0  2  0  0  0  0  0  0
  163.3990  204.2420  146.0430 C   0  0  0  0  0  2  0  0  0  0  0  0
  161.5130  205.4180  147.1800 C   0  0  2  0  0  3  0  0  0  0  0  0
  162.9190  204.7780  144.6960 C   0  0  0  0  0  2  0  0  0  0  0  0
  159.7130  206.3550  149.2030 O   0  0  0  0  0  0  0  0  0  0  0  0
  161.0480  206.5430  148.5210 P   0  0  1  0  0  4  0  0  0  0  0  0
  162.2020  207.7880  149.1740 C   0  0  1  0  0  3  0  0  0  0  0  0
  161.4720  209.0000  149.5240 N   0  0  0  0  0  2  0  0  0  0  0  0
  163.0410  209.8170  147.9620 O   0  0  0  0  0  1  0  0  0  0  0  0
  161.8450  210.0990  148.6270 C   0  0  2  0  0  3  0  0  0  0  0  0
  161.9480  211.4310  149.3650 C   0  0  0  0  0  2  0  0  0  0  0  0
  162.3260  212.5680  148.4170 C   0  0  0  0  0  2  0  0  0  0  0  0
  161.1670  213.5220  148.1030 C   0  0  2  0  0  3  0  0  0  0  0  0
  160.1300  213.5710  149.2140 C   0  0  0  0  0  1  0  0  0  0  0  0
  160.5400  213.2430  146.7750 C   0  0  0  0  0  0  0  0  0  0  0  0
  159.8100  212.2280  146.6330 O   0  0  0  0  0  1  0  0  0  0  0  0
  160.7320  214.1080  145.7020 O   0  0  0  0  0  0  0  0  0  0  0  0
  162.9520  207.2710  150.3980 C   0  0  0  0  0  2  0  0  0  0  0  0
  160.7770  206.3730  153.4150 C   0  0  0  0  0  3  0  0  0  0  0  0
  160.6440  207.6280  154.0140 C   0  0  0  0  0  3  0  0  0  0  0  0
  162.1360  207.3530  151.6550 C   0  0  0  0  0  0  0  0  0  0  0  0
  162.0020  208.6050  152.2680 C   0  0  0  0  0  3  0  0  0  0  0  0
  161.2590  208.7420  153.4430 C   0  0  0  0  0  3  0  0  0  0  0  0
  161.5270  206.2240  152.2430 C   0  0  0  0  0  0  0  0  0  0  0  0
  161.6140  204.8640  151.6270 C   0  0  0  0  0  2  0  0  0  0  0  0
  161.2900  203.8910  152.5750 O   0  0  0  0  0  0  0  0  0  0  0  0
  160.5610  202.9280  151.8740 C   0  0  0  0  0  2  0  0  0  0  0  0
  160.8580  203.0360  150.3860 C   0  0  0  0  0  2  0  0  0  0  0  0
  160.2990  201.8440  149.6250 C   0  0  0  0  0  2  0  0  0  0  0  0
  161.5170  200.5250  147.9190 C   0  0  0  0  0  1  0  0  0  0  0  0
  160.8160  201.8370  148.1980 C   0  0  0  0  0  2  0  0  0  0  0  0
  160.9510  205.5350  143.3730 C   0  0  0  0  0  2  0  0  0  0  0  0
  162.1090  206.1850  142.6360 C   0  0  0  0  0  2  0  0  0  0  0  0
  161.8070  206.2960  141.1520 C   0  0  0  0  0  2  0  0  0  0  0  0
  162.3550  207.5990  140.5900 C   0  0  0  0  0  2  0  0  0  0  0  0
  161.2860  208.3530  139.9510 N   0  0  0  0  0  2  0  0  0  0  0  0
  158.7790  211.6510  139.0600 N   0  0  2  0  0  0  0  0  0  0  0  0
  162.6780  211.4300  137.4040 O   0  0  0  0  0  1  0  0  0  0  0  0
  161.5630  211.5690  138.2410 C   0  0  2  0  0  0  0  0  0  0  0  0
  161.8960  209.4310  139.1820 C   0  0  1  0  0  3  0  0  0  0  0  0
  160.6090  213.5740  140.5080 O   0  0  0  0  0  1  0  0  0  0  0  0
  162.0300  211.8200  139.6810 C   0  0  1  0  0  3  0  0  0  0  0  0
  160.8660  210.2470  138.3910 C   0  0  1  0  0  3  0  0  0  0  0  0
  158.2940  213.3430  137.3600 C   0  0  0  0  0  1  0  0  0  0  0  0
  159.5250  211.3780  140.3310 C   0  0  2  0  0  3  0  0  0  0  0  0
  163.9540  210.4040  139.8740 F   0  0  0  0  0  0  0  0  0  0  0  0
  160.8450  212.1980  140.6190 C   0  0  2  0  0  0  0  0  0  0  0  0
  159.5520  210.3910  139.2140 C   0  0  1  0  0  3  0  0  0  0  0  0
  160.6430  212.5810  137.5870 C   0  0  0  0  0  2  0  0  0  0  0  0
  162.5880  210.4440  140.0920 C   0  0  2  0  0  3  0  0  0  0  0  0
  159.3330  212.7990  138.3190 C   0  0  2  0  0  3  0  0  0  0  0  0
  161.2500  211.9440  142.0800 C   0  0  0  0  0  2  0  0  0  0  0  0
  160.0550  211.8860  143.0230 C   0  0  0  0  0  1  0  0  0  0  0  0
  1  5  1  0  0  0  0
  2 34  1  6  0  0  0
  2  3  1  0  0  0  0
  3  5  1  0  0  0  0
  4  1  1  0  0  0  0
  5  8  1  1  0  0  0
  6  2  1  0  0  0  0
  6  4  1  0  0  0  0
  8  9  1  0  0  0  0
  8  7  2  1  0  0  0
  9 10  1  0  0  0  0
  9 20  1  1  0  0  0
 12 11  1  1  0  0  0
 12 13  1  0  0  0  0
 12 10  1  0  0  0  0
 14 13  1  0  0  0  0
 15 14  1  0  0  0  0
 15 16  1  1  0  0  0
 17 15  1  0  0  0  0
 18 17  1  0  0  0  0
 19 17  2  0  0  0  0
 20 23  1  0  0  0  0
 21 22  1  0  0  0  0
 23 26  1  0  0  0  0
 23 24  2  0  0  0  0
 24 25  1  0  0  0  0
 25 22  2  0  0  0  0
 26 21  2  0  0  0  0
 27 26  1  0  0  0  0
 27 28  1  0  0  0  0
 29 28  1  0  0  0  0
 30 29  1  0  0  0  0
 31 30  1  0  0  0  0
 32 33  1  0  0  0  0
 33 31  1  0  0  0  0
 35 34  1  0  0  0  0
 36 35  1  0  0  0  0
 37 36  1  0  0  0  0
 38 37  1  0  0  0  0
 39 50  1  0  0  0  0
 39 47  1  0  0  0  0
 40 41  1  0  0  0  0
 41 45  1  0  0  0  0
 41 44  1  0  0  0  0
 42 38  1  0  0  0  0
 42 52  1  0  0  0  0
 43 49  1  0  0  0  0
 44 52  1  0  0  0  0
 44 49  1  0  0  0  0
 45 42  1  0  0  0  0
 45 50  1  0  0  0  0
 46 53  1  0  0  0  0
 47 49  1  0  0  0  0
 48 52  1  0  0  0  0
 49 54  1  0  0  0  0
 50 47  1  0  0  0  0
 51 41  1  0  0  0  0
 51 53  1  0  0  0  0
 53 39  1  0  0  0  0
 54 55  1  0  0  0  0
M  END
>  <MODEL>
1

>  <REMARK>
 VINA RESULT:      -5.1      0.000      0.000
  Name = 
  23 active torsions:
  status: ('A' for Active; 'I' for Inactive)
    1  A    between atoms: C_4  and  C_37
    2  A    between atoms: C_4  and  C_40
    3  A    between atoms: C_5  and  O_19
    4  A    between atoms: C_5  and  C_40
    5  A    between atoms: C_7  and  N_22
    6  A    between atoms: C_8  and  N_22
    7  A    between atoms: C_8  and  C_43
    8  A    between atoms: C_10  and  C_32
    9  A    between atoms: C_11  and  C_38
   10  A    between atoms: C_13  and  C_48
   11  A    between atoms: C_13  and  C_52
   12  A    between atoms: C_16  and  C_36
   13  A    between atoms: O_19  and  C_45
   14  A    between atoms: C_26  and  C_45
   15  A    between atoms: C_27  and  C_54
   16  A    between atoms: P_28  and  C_44
   17  A    between atoms: P_28  and  C_49
   18  A    between atoms: C_32  and  C_48
   19  A    between atoms: N_33  and  C_49
   20  A    between atoms: N_33  and  C_52
   21  A    between atoms: C_36  and  C_49
   22  A    between atoms: C_43  and  C_51
   23  A    between atoms: C_51  and  C_54
                            x       y       z     vdW  Elec       q    Type
                         _______ _______ _______ _____ _____    ______ ____

>  <TORSDO>
F 23

$$$$
=
 OpenBabel11062408423D

 55 60  0  0  1  0  0  0  0  0999 V2000
  162.9150  205.2830  147.2640 C   0  0  0  0  0  2  0  0  0  0  0  0
  161.4280  205.3390  144.7340 C   0  0  2  0  0  3  0  0  0  0  0  0
  160.9870  206.1650  145.9430 C   0  0  0  0  0  2  0  0  0  0  0  0
  163.3750  204.4700  146.0560 C   0  0  0  0  0  2  0  0  0  0  0  0
  161.4010  205.4540  147.2250 C   0  0  2  0  0  3  0  0  0  0  0  0
  162.9440  205.1520  144.7580 C   0  0  0  0  0  2  0  0  0  0  0  0
  159.4460  206.1540  149.1990 O   0  0  0  0  0  0  0  0  0  0  0  0
  160.8380  206.3980  148.6640 P   0  0  1  0  0  4  0  0  0  0  0  0
  161.9480  207.5120  149.5770 C   0  0  1  0  0  3  0  0  0  0  0  0
  161.1650  208.5220  150.2800 N   0  0  0  0  0  2  0  0  0  0  0  0
  162.6960  209.8390  149.0600 O   0  0  0  0  0  1  0  0  0  0  0  0
  161.5110  209.8640  149.8000 C   0  0  2  0  0  3  0  0  0  0  0  0
  161.6180  210.8700  150.9430 C   0  0  0  0  0  2  0  0  0  0  0  0
  160.5890  210.5860  152.0370 C   0  0  0  0  0  2  0  0  0  0  0  0
  160.6360  211.5800  153.2030 C   0  0  2  0  0  3  0  0  0  0  0  0
  161.2330  210.9760  154.4640 C   0  0  0  0  0  1  0  0  0  0  0  0
  159.3080  212.2140  153.4690 C   0  0  0  0  0  0  0  0  0  0  0  0
  159.0630  213.3590  153.0100 O   0  0  0  0  0  0  0  0  0  0  0  0
  158.3330  211.5400  154.1960 O   0  0  0  0  0  1  0  0  0  0  0  0
  162.8130  206.7500  150.5750 C   0  0  0  0  0  2  0  0  0  0  0  0
  161.0000  204.9390  153.4170 C   0  0  0  0  0  3  0  0  0  0  0  0
  160.7600  206.0050  154.2850 C   0  0  0  0  0  3  0  0  0  0  0  0
  162.0910  206.4480  151.8570 C   0  0  0  0  0  0  0  0  0  0  0  0
  161.8510  207.5100  152.7370 C   0  0  0  0  0  3  0  0  0  0  0  0
  161.1890  207.2890  153.9470 C   0  0  0  0  0  3  0  0  0  0  0  0
  161.6710  205.1470  152.2060 C   0  0  0  0  0  0  0  0  0  0  0  0
  161.8780  203.9760  151.3000 C   0  0  0  0  0  2  0  0  0  0  0  0
  160.8450  203.0510  151.4750 O   0  0  0  0  0  0  0  0  0  0  0  0
  160.2700  202.9040  150.2110 C   0  0  0  0  0  2  0  0  0  0  0  0
  160.8940  201.7170  149.4940 C   0  0  0  0  0  2  0  0  0  0  0  0
  161.3320  202.0920  148.0860 C   0  0  0  0  0  2  0  0  0  0  0  0
  160.5860  201.7670  145.7480 C   0  0  0  0  0  1  0  0  0  0  0  0
  160.8030  201.0850  147.0810 C   0  0  0  0  0  2  0  0  0  0  0  0
  161.0200  206.0130  143.4340 C   0  0  0  0  0  2  0  0  0  0  0  0
  162.1610  205.9710  142.4330 C   0  0  0  0  0  2  0  0  0  0  0  0
  161.6840  206.3970  141.0560 C   0  0  0  0  0  2  0  0  0  0  0  0
  162.7770  207.1580  140.3220 C   0  0  0  0  0  2  0  0  0  0  0  0
  162.5250  208.5900  140.4000 N   0  0  0  0  0  2  0  0  0  0  0  0
  160.4330  212.2360  140.9380 N   0  0  2  0  0  0  0  0  0  0  0  0
  159.3870  209.6270  137.7610 O   0  0  0  0  0  1  0  0  0  0  0  0
  160.0090  210.5460  138.6140 C   0  0  2  0  0  0  0  0  0  0  0  0
  161.5570  208.9310  139.3650 C   0  0  1  0  0  3  0  0  0  0  0  0
  161.4750  213.3460  138.3250 O   0  0  0  0  0  1  0  0  0  0  0  0
  161.3610  210.9630  138.0210 C   0  0  1  0  0  3  0  0  0  0  0  0
  160.4480  209.8590  139.8760 C   0  0  1  0  0  3  0  0  0  0  0  0
  158.2740  213.3290  140.5780 C   0  0  0  0  0  1  0  0  0  0  0  0
  161.8080  212.0370  140.3750 C   0  0  2  0  0  3  0  0  0  0  0  0
  162.1800  208.9230  137.0680 F   0  0  0  0  0  0  0  0  0  0  0  0
  162.0030  212.1440  138.8110 C   0  0  2  0  0  0  0  0  0  0  0  0
  161.0330  210.8760  140.9000 C   0  0  1  0  0  3  0  0  0  0  0  0
  158.9880  211.6220  138.9260 C   0  0  0  0  0  2  0  0  0  0  0  0
  162.2140  209.6950  138.2160 C   0  0  2  0  0  3  0  0  0  0  0  0
  159.4650  212.6690  139.9130 C   0  0  2  0  0  3  0  0  0  0  0  0
  163.5130  212.1870  138.5250 C   0  0  0  0  0  2  0  0  0  0  0  0
  164.1650  213.4860  138.9810 C   0  0  0  0  0  1  0  0  0  0  0  0
  2 34  1  6  0  0  0
  2  6  1  0  0  0  0
  2  3  1  0  0  0  0
  3  5  1  0  0  0  0
  4  1  1  0  0  0  0
  5  1  1  0  0  0  0
  5  8  1  1  0  0  0
  6  4  1  0  0  0  0
  8  7  2  1  0  0  0
  8  9  1  0  0  0  0
  9 10  1  0  0  0  0
  9 20  1  1  0  0  0
 12 11  1  1  0  0  0
 12 10  1  0  0  0  0
 12 13  1  0  0  0  0
 13 14  1  0  0  0  0
 14 15  1  0  0  0  0
 15 17  1  0  0  0  0
 15 16  1  1  0  0  0
 17 19  1  0  0  0  0
 18 17  2  0  0  0  0
 20 23  1  0  0  0  0
 21 22  1  0  0  0  0
 23 26  1  0  0  0  0
 23 24  2  0  0  0  0
 24 25  1  0  0  0  0
 25 22  2  0  0  0  0
 26 21  2  0  0  0  0
 27 28  1  0  0  0  0
 27 26  1  0  0  0  0
 29 28  1  0  0  0  0
 30 29  1  0  0  0  0
 31 30  1  0  0  0  0
 32 33  1  0  0  0  0
 33 31  1  0  0  0  0
 35 34  1  0  0  0  0
 36 35  1  0  0  0  0
 37 38  1  0  0  0  0
 37 36  1  0  0  0  0
 40 41  1  0  0  0  0
 41 51  1  0  0  0  0
 41 45  1  0  0  0  0
 42 45  1  0  0  0  0
 42 38  1  0  0  0  0
 43 49  1  0  0  0  0
 44 52  1  0  0  0  0
 44 41  1  0  0  0  0
 44 49  1  0  0  0  0
 45 50  1  0  0  0  0
 47 50  1  0  0  0  0
 47 39  1  0  0  0  0
 48 52  1  0  0  0  0
 49 47  1  0  0  0  0
 50 39  1  0  0  0  0
 51 53  1  0  0  0  0
 52 42  1  0  0  0  0
 53 46  1  0  0  0  0
 53 39  1  0  0  0  0
 54 49  1  0  0  0  0
 54 55  1  0  0  0  0
M  END
>  <MODEL>
2

>  <REMARK>
 VINA RESULT:      -4.5      2.036      2.841
  Name = 
  23 active torsions:
  status: ('A' for Active; 'I' for Inactive)
    1  A    between atoms: C_4  and  C_37
    2  A    between atoms: C_4  and  C_40
    3  A    between atoms: C_5  and  O_19
    4  A    between atoms: C_5  and  C_40
    5  A    between atoms: C_7  and  N_22
    6  A    between atoms: C_8  and  N_22
    7  A    between atoms: C_8  and  C_43
    8  A    between atoms: C_10  and  C_32
    9  A    between atoms: C_11  and  C_38
   10  A    between atoms: C_13  and  C_48
   11  A    between atoms: C_13  and  C_52
   12  A    between atoms: C_16  and  C_36
   13  A    between atoms: O_19  and  C_45
   14  A    between atoms: C_26  and  C_45
   15  A    between atoms: C_27  and  C_54
   16  A    between atoms: P_28  and  C_44
   17  A    between atoms: P_28  and  C_49
   18  A    between atoms: C_32  and  C_48
   19  A    between atoms: N_33  and  C_49
   20  A    between atoms: N_33  and  C_52
   21  A    between atoms: C_36  and  C_49
   22  A    between atoms: C_43  and  C_51
   23  A    between atoms: C_51  and  C_54
                            x       y       z     vdW  Elec       q    Type
                         _______ _______ _______ _____ _____    ______ ____

>  <TORSDO>
F 23

$$$$
=
 OpenBabel11062408423D

 55 60  0  0  1  0  0  0  0  0999 V2000
  160.3110  205.2060  146.3370 C   0  0  0  0  0  2  0  0  0  0  0  0
  161.1960  205.8930  143.6250 C   0  0  2  0  0  3  0  0  0  0  0  0
  162.1950  205.6170  144.7490 C   0  0  0  0  0  2  0  0  0  0  0  0
  159.3050  205.4600  145.2160 C   0  0  0  0  0  2  0  0  0  0  0  0
  161.5800  206.0110  146.0860 C   0  0  2  0  0  3  0  0  0  0  0  0
  159.9130  205.0980  143.8620 C   0  0  0  0  0  2  0  0  0  0  0  0
  164.0120  204.9200  147.1340 O   0  0  0  0  0  0  0  0  0  0  0  0
  162.7740  205.7360  147.4190 P   0  0  1  0  0  4  0  0  0  0  0  0
  162.6060  206.5420  149.0410 C   0  0  1  0  0  3  0  0  0  0  0  0
  162.9790  207.9470  148.9340 N   0  0  0  0  0  2  0  0  0  0  0  0
  161.5460  209.7240  148.3370 O   0  0  0  0  0  1  0  0  0  0  0  0
  161.8620  208.8060  149.3420 C   0  0  2  0  0  3  0  0  0  0  0  0
  162.1460  209.5300  150.6540 C   0  0  0  0  0  2  0  0  0  0  0  0
  160.9050  209.5840  151.5440 C   0  0  0  0  0  2  0  0  0  0  0  0
  160.9710  210.6620  152.6320 C   0  0  2  0  0  3  0  0  0  0  0  0
  161.9270  210.2990  153.7580 C   0  0  0  0  0  1  0  0  0  0  0  0
  159.6200  211.0330  153.1540 C   0  0  0  0  0  0  0  0  0  0  0  0
  159.3380  210.8140  154.3600 O   0  0  0  0  0  1  0  0  0  0  0  0
  158.6820  211.6430  152.3270 O   0  0  0  0  0  0  0  0  0  0  0  0
  161.1830  206.4300  149.5800 C   0  0  0  0  0  2  0  0  0  0  0  0
  160.9240  203.9000  152.4390 C   0  0  0  0  0  3  0  0  0  0  0  0
  161.0470  204.7480  153.5400 C   0  0  0  0  0  3  0  0  0  0  0  0
  161.1270  205.8040  150.9430 C   0  0  0  0  0  0  0  0  0  0  0  0
  161.2570  206.6450  152.0550 C   0  0  0  0  0  3  0  0  0  0  0  0
  161.2190  206.1190  153.3480 C   0  0  0  0  0  3  0  0  0  0  0  0
  160.9700  204.4150  151.1380 C   0  0  0  0  0  0  0  0  0  0  0  0
  160.8040  203.4670  149.9940 C   0  0  0  0  0  2  0  0  0  0  0  0
  160.6060  202.1710  150.4760 O   0  0  0  0  0  0  0  0  0  0  0  0
  160.9470  201.3320  149.4130 C   0  0  0  0  0  2  0  0  0  0  0  0
  160.4830  201.9450  148.1000 C   0  0  0  0  0  2  0  0  0  0  0  0
  161.1250  201.2490  146.9100 C   0  0  0  0  0  2  0  0  0  0  0  0
  159.7680  201.3840  144.8430 C   0  0  0  0  0  1  0  0  0  0  0  0
  160.8770  202.0380  145.6380 C   0  0  0  0  0  2  0  0  0  0  0  0
  161.7810  205.5230  142.2720 C   0  0  0  0  0  2  0  0  0  0  0  0
  162.4590  206.7260  141.6390 C   0  0  0  0  0  2  0  0  0  0  0  0
  161.9160  206.9770  140.2440 C   0  0  0  0  0  2  0  0  0  0  0  0
  162.0000  208.4550  139.8940 C   0  0  0  0  0  2  0  0  0  0  0  0
  161.4590  208.6820  138.5620 N   0  0  0  0  0  2  0  0  0  0  0  0
  158.4560  211.6680  138.6970 N   0  0  2  0  0  0  0  0  0  0  0  0
  162.2510  212.5370  137.0110 O   0  0  0  0  0  1  0  0  0  0  0  0
  161.1740  212.2560  137.8630 C   0  0  2  0  0  0  0  0  0  0  0  0
  161.8640  210.0160  138.1360 C   0  0  1  0  0  3  0  0  0  0  0  0
  160.0640  213.3530  140.6260 O   0  0  0  0  0  1  0  0  0  0  0  0
  161.6780  212.1520  139.3090 C   0  0  1  0  0  3  0  0  0  0  0  0
  160.6850  210.8550  137.6270 C   0  0  1  0  0  3  0  0  0  0  0  0
  157.6400  213.6800  137.5700 C   0  0  0  0  0  1  0  0  0  0  0  0
  159.3020  211.1600  139.8260 C   0  0  2  0  0  3  0  0  0  0  0  0
  163.7930  211.0550  139.0620 F   0  0  0  0  0  0  0  0  0  0  0  0
  160.5020  212.0570  140.3280 C   0  0  2  0  0  0  0  0  0  0  0  0
  159.4110  210.5520  138.4690 C   0  0  1  0  0  3  0  0  0  0  0  0
  160.0830  213.2580  137.5420 C   0  0  0  0  0  2  0  0  0  0  0  0
  162.4500  210.8190  139.2950 C   0  0  2  0  0  3  0  0  0  0  0  0
  158.7970  213.0510  138.3180 C   0  0  2  0  0  3  0  0  0  0  0  0
  161.0180  211.4600  141.6470 C   0  0  0  0  0  2  0  0  0  0  0  0
  161.9610  212.3970  142.3920 C   0  0  0  0  0  1  0  0  0  0  0  0
  2 34  1  6  0  0  0
  2  6  1  0  0  0  0
  2  3  1  0  0  0  0
  3  5  1  0  0  0  0
  4  1  1  0  0  0  0
  5  1  1  0  0  0  0
  5  8  1  1  0  0  0
  6  4  1  0  0  0  0
  8  7  2  6  0  0  0
  8  9  1  0  0  0  0
  9 20  1  6  0  0  0
 10  9  1  0  0  0  0
 10 12  1  0  0  0  0
 12 11  1  6  0  0  0
 12 13  1  0  0  0  0
 13 14  1  0  0  0  0
 14 15  1  0  0  0  0
 15 17  1  0  0  0  0
 15 16  1  1  0  0  0
 17 18  1  0  0  0  0
 19 17  2  0  0  0  0
 20 23  1  0  0  0  0
 21 22  1  0  0  0  0
 23 26  1  0  0  0  0
 23 24  2  0  0  0  0
 24 25  1  0  0  0  0
 25 22  2  0  0  0  0
 26 21  2  0  0  0  0
 27 28  1  0  0  0  0
 27 26  1  0  0  0  0
 29 28  1  0  0  0  0
 30 29  1  0  0  0  0
 31 30  1  0  0  0  0
 32 33  1  0  0  0  0
 33 31  1  0  0  0  0
 35 34  1  0  0  0  0
 36 35  1  0  0  0  0
 37 36  1  0  0  0  0
 38 37  1  0  0  0  0
 39 47  1  0  0  0  0
 40 41  1  0  0  0  0
 41 44  1  0  0  0  0
 42 38  1  0  0  0  0
 42 52  1  0  0  0  0
 44 49  1  0  0  0  0
 45 41  1  0  0  0  0
 45 42  1  0  0  0  0
 45 50  1  0  0  0  0
 46 53  1  0  0  0  0
 47 49  1  0  0  0  0
 48 52  1  0  0  0  0
 49 43  1  0  0  0  0
 49 54  1  0  0  0  0
 50 39  1  0  0  0  0
 50 47  1  0  0  0  0
 51 41  1  0  0  0  0
 51 53  1  0  0  0  0
 52 44  1  0  0  0  0
 53 39  1  0  0  0  0
 54 55  1  0  0  0  0
M  END
>  <MODEL>
3

>  <REMARK>
 VINA RESULT:      -3.6      1.963      2.876
  Name = 
  23 active torsions:
  status: ('A' for Active; 'I' for Inactive)
    1  A    between atoms: C_4  and  C_37
    2  A    between atoms: C_4  and  C_40
    3  A    between atoms: C_5  and  O_19
    4  A    between atoms: C_5  and  C_40
    5  A    between atoms: C_7  and  N_22
    6  A    between atoms: C_8  and  N_22
    7  A    between atoms: C_8  and  C_43
    8  A    between atoms: C_10  and  C_32
    9  A    between atoms: C_11  and  C_38
   10  A    between atoms: C_13  and  C_48
   11  A    between atoms: C_13  and  C_52
   12  A    between atoms: C_16  and  C_36
   13  A    between atoms: O_19  and  C_45
   14  A    between atoms: C_26  and  C_45
   15  A    between atoms: C_27  and  C_54
   16  A    between atoms: P_28  and  C_44
   17  A    between atoms: P_28  and  C_49
   18  A    between atoms: C_32  and  C_48
   19  A    between atoms: N_33  and  C_49
   20  A    between atoms: N_33  and  C_52
   21  A    between atoms: C_36  and  C_49
   22  A    between atoms: C_43  and  C_51
   23  A    between atoms: C_51  and  C_54
                            x       y       z     vdW  Elec       q    Type
                         _______ _______ _______ _____ _____    ______ ____

>  <TORSDO>
F 23

$$$$
=
 OpenBabel11062408423D

 55 60  0  0  1  0  0  0  0  0999 V2000
  160.4740  204.4650  145.8000 C   0  0  0  0  0  2  0  0  0  0  0  0
  161.1840  205.7670  143.2680 C   0  0  2  0  0  3  0  0  0  0  0  0
  162.0680  205.8920  144.5100 C   0  0  0  0  0  2  0  0  0  0  0  0
  159.5960  204.3170  144.5590 C   0  0  0  0  0  2  0  0  0  0  0  0
  161.2030  205.8030  145.7610 C   0  0  2  0  0  3  0  0  0  0  0  0
  160.4400  204.4330  143.2910 C   0  0  0  0  0  2  0  0  0  0  0  0
  163.6420  205.4580  147.2230 O   0  0  0  0  0  0  0  0  0  0  0  0
  162.2330  206.0010  147.2380 P   0  0  1  0  0  4  0  0  0  0  0  0
  161.6770  206.9690  148.6740 C   0  0  1  0  0  3  0  0  0  0  0  0
  161.3380  208.3230  148.2540 N   0  0  0  0  0  2  0  0  0  0  0  0
  162.6330  208.8730  150.1480 O   0  0  0  0  0  1  0  0  0  0  0  0
  162.2470  209.2940  148.8730 C   0  0  2  0  0  3  0  0  0  0  0  0
  161.6360  210.6910  148.9360 C   0  0  0  0  0  2  0  0  0  0  0  0
  162.6460  211.7620  148.5260 C   0  0  0  0  0  2  0  0  0  0  0  0
  162.0090  213.1160  148.1920 C   0  0  2  0  0  3  0  0  0  0  0  0
  160.5490  213.1950  148.6080 C   0  0  0  0  0  1  0  0  0  0  0  0
  162.1960  213.4990  146.7580 C   0  0  0  0  0  0  0  0  0  0  0  0
  163.0900  212.9350  146.0760 O   0  0  0  0  0  0  0  0  0  0  0  0
  161.3750  214.4520  146.1650 O   0  0  0  0  0  1  0  0  0  0  0  0
  160.4710  206.3260  149.3520 C   0  0  0  0  0  2  0  0  0  0  0  0
  161.0700  204.1830  152.4660 C   0  0  0  0  0  3  0  0  0  0  0  0
  161.3350  205.1770  153.4100 C   0  0  0  0  0  3  0  0  0  0  0  0
  160.7640  205.8840  150.7570 C   0  0  0  0  0  0  0  0  0  0  0  0
  161.0390  206.8710  151.7100 C   0  0  0  0  0  3  0  0  0  0  0  0
  161.3240  206.5200  153.0310 C   0  0  0  0  0  3  0  0  0  0  0  0
  160.7920  204.5250  151.1370 C   0  0  0  0  0  0  0  0  0  0  0  0
  160.4860  203.4240  150.1720 C   0  0  0  0  0  2  0  0  0  0  0  0
  160.6110  202.1860  150.8080 O   0  0  0  0  0  0  0  0  0  0  0  0
  160.4700  201.2390  149.7910 C   0  0  0  0  0  2  0  0  0  0  0  0
  161.3920  201.5850  148.6310 C   0  0  0  0  0  2  0  0  0  0  0  0
  161.1720  200.6470  147.4550 C   0  0  0  0  0  2  0  0  0  0  0  0
  160.0860  200.6570  145.2290 C   0  0  0  0  0  1  0  0  0  0  0  0
  160.9720  201.4390  146.1760 C   0  0  0  0  0  2  0  0  0  0  0  0
  162.0130  205.8650  141.9970 C   0  0  0  0  0  2  0  0  0  0  0  0
  162.2400  207.3190  141.6220 C   0  0  0  0  0  2  0  0  0  0  0  0
  161.9810  207.5380  140.1420 C   0  0  0  0  0  2  0  0  0  0  0  0
  161.8790  209.0240  139.8300 C   0  0  0  0  0  2  0  0  0  0  0  0
  160.8900  209.2450  138.7850 N   0  0  0  0  0  2  0  0  0  0  0  0
  158.3980  212.3690  140.1970 N   0  0  2  0  0  0  0  0  0  0  0  0
  161.1080  213.0790  137.0110 O   0  0  0  0  0  1  0  0  0  0  0  0
  160.5010  212.8380  138.2510 C   0  0  2  0  0  0  0  0  0  0  0  0
  161.1310  210.5640  138.2130 C   0  0  1  0  0  3  0  0  0  0  0  0
  160.7680  213.9490  141.2110 O   0  0  0  0  0  1  0  0  0  0  0  0
  161.5810  212.6910  139.3310 C   0  0  1  0  0  3  0  0  0  0  0  0
  159.8910  211.4660  138.2650 C   0  0  1  0  0  3  0  0  0  0  0  0
  157.2690  214.4320  139.5240 C   0  0  0  0  0  1  0  0  0  0  0  0
  159.6270  211.8070  140.8450 C   0  0  2  0  0  3  0  0  0  0  0  0
  163.3190  211.4990  138.1910 F   0  0  0  0  0  0  0  0  0  0  0  0
  160.9680  212.6380  140.7630 C   0  0  2  0  0  0  0  0  0  0  0  0
  159.1020  211.2120  139.5830 C   0  0  1  0  0  3  0  0  0  0  0  0
  159.4300  213.8950  138.4320 C   0  0  0  0  0  2  0  0  0  0  0  0
  162.2050  211.3240  138.9910 C   0  0  2  0  0  3  0  0  0  0  0  0
  158.6060  213.7390  139.6950 C   0  0  2  0  0  3  0  0  0  0  0  0
  161.9810  212.0000  141.7280 C   0  0  0  0  0  2  0  0  0  0  0  0
  161.6790  212.3060  143.1890 C   0  0  0  0  0  1  0  0  0  0  0  0
  2 34  1  6  0  0  0
  2  6  1  0  0  0  0
  2  3  1  0  0  0  0
  3  5  1  0  0  0  0
  4  1  1  0  0  0  0
  5  1  1  0  0  0  0
  5  8  1  1  0  0  0
  6  4  1  0  0  0  0
  8  7  2  6  0  0  0
  8  9  1  0  0  0  0
  9 20  1  6  0  0  0
 10  9  1  0  0  0  0
 10 12  1  0  0  0  0
 12 13  1  0  0  0  0
 12 11  1  1  0  0  0
 14 13  1  0  0  0  0
 15 14  1  0  0  0  0
 15 16  1  6  0  0  0
 17 15  1  0  0  0  0
 18 17  2  0  0  0  0
 19 17  1  0  0  0  0
 20 23  1  0  0  0  0
 21 22  1  0  0  0  0
 23 26  1  0  0  0  0
 23 24  2  0  0  0  0
 24 25  1  0  0  0  0
 25 22  2  0  0  0  0
 26 21  2  0  0  0  0
 27 28  1  0  0  0  0
 27 26  1  0  0  0  0
 29 28  1  0  0  0  0
 30 29  1  0  0  0  0
 31 30  1  0  0  0  0
 32 33  1  0  0  0  0
 33 31  1  0  0  0  0
 35 34  1  0  0  0  0
 36 35  1  0  0  0  0
 37 36  1  0  0  0  0
 38 37  1  0  0  0  0
 39 47  1  0  0  0  0
 40 41  1  0  0  0  0
 41 45  1  0  0  0  0
 41 51  1  0  0  0  0
 41 44  1  0  0  0  0
 42 45  1  0  0  0  0
 42 38  1  0  0  0  0
 42 52  1  0  0  0  0
 44 49  1  0  0  0  0
 45 50  1  0  0  0  0
 46 53  1  0  0  0  0
 48 52  1  0  0  0  0
 49 47  1  0  0  0  0
 49 43  1  0  0  0  0
 49 54  1  0  0  0  0
 50 39  1  0  0  0  0
 50 47  1  0  0  0  0
 51 53  1  0  0  0  0
 52 44  1  0  0  0  0
 53 39  1  0  0  0  0
 54 55  1  0  0  0  0
M  END
>  <MODEL>
4

>  <REMARK>
 VINA RESULT:      -3.5      1.522      2.064
  Name = 
  23 active torsions:
  status: ('A' for Active; 'I' for Inactive)
    1  A    between atoms: C_4  and  C_37
    2  A    between atoms: C_4  and  C_40
    3  A    between atoms: C_5  and  O_19
    4  A    between atoms: C_5  and  C_40
    5  A    between atoms: C_7  and  N_22
    6  A    between atoms: C_8  and  N_22
    7  A    between atoms: C_8  and  C_43
    8  A    between atoms: C_10  and  C_32
    9  A    between atoms: C_11  and  C_38
   10  A    between atoms: C_13  and  C_48
   11  A    between atoms: C_13  and  C_52
   12  A    between atoms: C_16  and  C_36
   13  A    between atoms: O_19  and  C_45
   14  A    between atoms: C_26  and  C_45
   15  A    between atoms: C_27  and  C_54
   16  A    between atoms: P_28  and  C_44
   17  A    between atoms: P_28  and  C_49
   18  A    between atoms: C_32  and  C_48
   19  A    between atoms: N_33  and  C_49
   20  A    between atoms: N_33  and  C_52
   21  A    between atoms: C_36  and  C_49
   22  A    between atoms: C_43  and  C_51
   23  A    between atoms: C_51  and  C_54
                            x       y       z     vdW  Elec       q    Type
                         _______ _______ _______ _____ _____    ______ ____

>  <TORSDO>
F 23

$$$$
=
 OpenBabel11062408423D

 55 60  0  0  1  0  0  0  0  0999 V2000
  160.4690  204.7560  146.2640 C   0  0  0  0  0  2  0  0  0  0  0  0
  161.2300  205.7410  143.6070 C   0  0  2  0  0  3  0  0  0  0  0  0
  162.1810  205.8350  144.8010 C   0  0  0  0  0  2  0  0  0  0  0  0
  159.5200  204.6380  145.0730 C   0  0  0  0  0  2  0  0  0  0  0  0
  161.3740  205.9690  146.0860 C   0  0  2  0  0  3  0  0  0  0  0  0
  160.3100  204.5330  143.7700 C   0  0  0  0  0  2  0  0  0  0  0  0
  163.9010  205.6040  147.3840 O   0  0  0  0  0  0  0  0  0  0  0  0
  162.4910  206.1330  147.5010 P   0  0  1  0  0  4  0  0  0  0  0  0
  162.0180  207.0530  148.9970 C   0  0  1  0  0  3  0  0  0  0  0  0
  161.8530  208.4660  148.6750 N   0  0  0  0  0  2  0  0  0  0  0  0
  161.4290  208.9970  150.9350 O   0  0  0  0  0  1  0  0  0  0  0  0
  162.2210  209.2990  149.8240 C   0  0  2  0  0  3  0  0  0  0  0  0
  162.1380  210.7880  149.5010 C   0  0  0  0  0  2  0  0  0  0  0  0
  161.3250  211.0420  148.2330 C   0  0  0  0  0  2  0  0  0  0  0  0
  161.2110  212.5240  147.8580 C   0  0  2  0  0  3  0  0  0  0  0  0
  160.4880  213.3430  148.9150 C   0  0  0  0  0  1  0  0  0  0  0  0
  160.6170  212.7280  146.5010 C   0  0  0  0  0  0  0  0  0  0  0  0
  159.4240  212.3900  146.2880 O   0  0  0  0  0  1  0  0  0  0  0  0
  161.3600  213.3110  145.4800 O   0  0  0  0  0  0  0  0  0  0  0  0
  160.7280  206.5130  149.6050 C   0  0  0  0  0  2  0  0  0  0  0  0
  161.5360  203.7750  152.1540 C   0  0  0  0  0  3  0  0  0  0  0  0
  161.2140  202.6360  151.4130 C   0  0  0  0  0  3  0  0  0  0  0  0
  160.9150  205.1800  150.2710 C   0  0  0  0  0  0  0  0  0  0  0  0
  160.5880  204.0320  149.5400 C   0  0  0  0  0  3  0  0  0  0  0  0
  160.7360  202.7650  150.1090 C   0  0  0  0  0  3  0  0  0  0  0  0
  161.3830  205.0500  151.5960 C   0  0  0  0  0  0  0  0  0  0  0  0
  161.7690  206.2350  152.4210 C   0  0  0  0  0  2  0  0  0  0  0  0
  160.6880  206.6390  153.2090 O   0  0  0  0  0  0  0  0  0  0  0  0
  161.2450  206.9860  154.4410 C   0  0  0  0  0  2  0  0  0  0  0  0
  160.1410  207.2310  155.4580 C   0  0  0  0  0  2  0  0  0  0  0  0
  160.1650  208.6650  155.9640 C   0  0  0  0  0  2  0  0  0  0  0  0
  161.1880  210.9050  155.7060 C   0  0  0  0  0  1  0  0  0  0  0  0
  161.2000  209.4760  155.2070 C   0  0  0  0  0  2  0  0  0  0  0  0
  162.0020  205.6190  142.3030 C   0  0  0  0  0  2  0  0  0  0  0  0
  162.2430  206.9920  141.6980 C   0  0  0  0  0  2  0  0  0  0  0  0
  161.9520  206.9820  140.2080 C   0  0  0  0  0  2  0  0  0  0  0  0
  162.3720  208.2970  139.5710 C   0  0  0  0  0  2  0  0  0  0  0  0
  161.3390  208.7570  138.6540 N   0  0  0  0  0  2  0  0  0  0  0  0
  158.3790  211.7680  139.0210 N   0  0  2  0  0  0  0  0  0  0  0  0
  162.0240  212.5960  137.0150 O   0  0  0  0  0  1  0  0  0  0  0  0
  161.0210  212.3290  137.9560 C   0  0  2  0  0  0  0  0  0  0  0  0
  161.7160  210.0850  138.1860 C   0  0  1  0  0  3  0  0  0  0  0  0
  160.1560  213.4530  140.7950 O   0  0  0  0  0  1  0  0  0  0  0  0
  161.6440  212.2310  139.3550 C   0  0  1  0  0  3  0  0  0  0  0  0
  160.5040  210.9310  137.7730 C   0  0  1  0  0  3  0  0  0  0  0  0
  157.4850  213.7780  137.9520 C   0  0  0  0  0  1  0  0  0  0  0  0
  159.3130  211.2610  140.0780 C   0  0  2  0  0  3  0  0  0  0  0  0
  163.7240  211.1170  138.9390 F   0  0  0  0  0  0  0  0  0  0  0  0
  160.5580  212.1520  140.4700 C   0  0  2  0  0  0  0  0  0  0  0  0
  159.3040  210.6430  138.7210 C   0  0  1  0  0  3  0  0  0  0  0  0
  159.9140  213.3380  137.7210 C   0  0  0  0  0  2  0  0  0  0  0  0
  162.4040  210.8920  139.2860 C   0  0  2  0  0  3  0  0  0  0  0  0
  158.6970  213.1460  138.6040 C   0  0  2  0  0  3  0  0  0  0  0  0
  161.1800  211.5600  141.7460 C   0  0  0  0  0  2  0  0  0  0  0  0
  162.1290  212.5250  142.4450 C   0  0  0  0  0  1  0  0  0  0  0  0
  2 34  1  6  0  0  0
  2  6  1  0  0  0  0
  2  3  1  0  0  0  0
  3  5  1  0  0  0  0
  4  1  1  0  0  0  0
  5  1  1  0  0  0  0
  5  8  1  1  0  0  0
  6  4  1  0  0  0  0
  8  7  2  6  0  0  0
  8  9  1  0  0  0  0
  9 20  1  6  0  0  0
 10  9  1  0  0  0  0
 10 12  1  0  0  0  0
 12 11  1  1  0  0  0
 13 12  1  0  0  0  0
 14 13  1  0  0  0  0
 15 14  1  0  0  0  0
 15 16  1  1  0  0  0
 17 15  1  0  0  0  0
 18 17  1  0  0  0  0
 19 17  2  0  0  0  0
 20 23  1  0  0  0  0
 22 21  2  0  0  0  0
 23 26  2  0  0  0  0
 24 25  2  0  0  0  0
 24 23  1  0  0  0  0
 25 22  1  0  0  0  0
 26 21  1  0  0  0  0
 26 27  1  0  0  0  0
 27 28  1  0  0  0  0
 28 29  1  0  0  0  0
 29 30  1  0  0  0  0
 30 31  1  0  0  0  0
 33 32  1  0  0  0  0
 33 31  1  0  0  0  0
 35 34  1  0  0  0  0
 36 35  1  0  0  0  0
 37 36  1  0  0  0  0
 38 37  1  0  0  0  0
 39 47  1  0  0  0  0
 40 41  1  0  0  0  0
 41 44  1  0  0  0  0
 42 38  1  0  0  0  0
 42 52  1  0  0  0  0
 44 49  1  0  0  0  0
 45 41  1  0  0  0  0
 45 42  1  0  0  0  0
 45 50  1  0  0  0  0
 46 53  1  0  0  0  0
 47 49  1  0  0  0  0
 48 52  1  0  0  0  0
 49 43  1  0  0  0  0
 49 54  1  0  0  0  0
 50 39  1  0  0  0  0
 50 47  1  0  0  0  0
 51 41  1  0  0  0  0
 51 53  1  0  0  0  0
 52 44  1  0  0  0  0
 53 39  1  0  0  0  0
 54 55  1  0  0  0  0
M  END
>  <MODEL>
5

>  <REMARK>
 VINA RESULT:      -3.4      1.427      3.532
  Name = 
  23 active torsions:
  status: ('A' for Active; 'I' for Inactive)
    1  A    between atoms: C_4  and  C_37
    2  A    between atoms: C_4  and  C_40
    3  A    between atoms: C_5  and  O_19
    4  A    between atoms: C_5  and  C_40
    5  A    between atoms: C_7  and  N_22
    6  A    between atoms: C_8  and  N_22
    7  A    between atoms: C_8  and  C_43
    8  A    between atoms: C_10  and  C_32
    9  A    between atoms: C_11  and  C_38
   10  A    between atoms: C_13  and  C_48
   11  A    between atoms: C_13  and  C_52
   12  A    between atoms: C_16  and  C_36
   13  A    between atoms: O_19  and  C_45
   14  A    between atoms: C_26  and  C_45
   15  A    between atoms: C_27  and  C_54
   16  A    between atoms: P_28  and  C_44
   17  A    between atoms: P_28  and  C_49
   18  A    between atoms: C_32  and  C_48
   19  A    between atoms: N_33  and  C_49
   20  A    between atoms: N_33  and  C_52
   21  A    between atoms: C_36  and  C_49
   22  A    between atoms: C_43  and  C_51
   23  A    between atoms: C_51  and  C_54
                            x       y       z     vdW  Elec       q    Type
                         _______ _______ _______ _____ _____    ______ ____

>  <TORSDO>
F 23

$$$$
=
 OpenBabel11062408423D

 55 60  0  0  1  0  0  0  0  0999 V2000
  161.8160  210.7010  149.0270 C   0  0  0  0  0  2  0  0  0  0  0  0
  161.8980  208.9970  151.4150 C   0  0  2  0  0  3  0  0  0  0  0  0
  161.0530  210.2710  151.3660 C   0  0  0  0  0  2  0  0  0  0  0  0
  162.6470  209.4200  149.0580 C   0  0  0  0  0  2  0  0  0  0  0  0
  161.7080  211.2810  150.4320 C   0  0  2  0  0  3  0  0  0  0  0  0
  162.0240  208.4030  150.0130 C   0  0  0  0  0  2  0  0  0  0  0  0
  161.0010  213.8210  149.3130 O   0  0  0  0  0  0  0  0  0  0  0  0
  160.7430  212.8130  150.4080 P   0  0  1  0  0  4  0  0  0  0  0  0
  159.3690  213.1020  151.5630 C   0  0  1  0  0  3  0  0  0  0  0  0
  159.8590  213.0410  152.9360 N   0  0  0  0  0  2  0  0  0  0  0  0
  158.0970  211.4720  153.0050 O   0  0  0  0  0  1  0  0  0  0  0  0
  159.2660  211.9000  153.6400 C   0  0  2  0  0  3  0  0  0  0  0  0
  158.9890  212.2140  155.1080 C   0  0  0  0  0  2  0  0  0  0  0  0
  159.6130  211.1680  156.0310 C   0  0  0  0  0  2  0  0  0  0  0  0
  160.3780  210.0660  155.2900 C   0  0  2  0  0  3  0  0  0  0  0  0
  159.7710  208.6880  155.4980 C   0  0  0  0  0  1  0  0  0  0  0  0
  161.8410  210.0770  155.6000 C   0  0  0  0  0  0  0  0  0  0  0  0
  162.6230  210.7580  154.8870 O   0  0  0  0  0  0  0  0  0  0  0  0
  162.3430  209.3620  156.6830 O   0  0  0  0  0  1  0  0  0  0  0  0
  158.7020  214.4520  151.3170 C   0  0  0  0  0  2  0  0  0  0  0  0
  155.1720  214.1120  149.8800 C   0  0  0  0  0  3  0  0  0  0  0  0
  154.4160  214.1440  151.0530 C   0  0  0  0  0  3  0  0  0  0  0  0
  157.2110  214.3450  151.1820 C   0  0  0  0  0  0  0  0  0  0  0  0
  156.4440  214.3690  152.3520 C   0  0  0  0  0  3  0  0  0  0  0  0
  155.0520  214.2680  152.2890 C   0  0  0  0  0  3  0  0  0  0  0  0
  156.5680  214.2030  149.9330 C   0  0  0  0  0  0  0  0  0  0  0  0
  157.3280  214.1920  148.6460 C   0  0  0  0  0  2  0  0  0  0  0  0
  156.4380  214.1570  147.5690 O   0  0  0  0  0  0  0  0  0  0  0  0
  157.2270  213.8650  146.4550 C   0  0  0  0  0  2  0  0  0  0  0  0
  158.3490  212.9150  146.8490 C   0  0  0  0  0  2  0  0  0  0  0  0
  159.0400  212.3390  145.6230 C   0  0  0  0  0  2  0  0  0  0  0  0
  161.3940  212.9130  146.1310 C   0  0  0  0  0  1  0  0  0  0  0  0
  160.2190  213.2050  145.2230 C   0  0  0  0  0  2  0  0  0  0  0  0
  161.2820  207.9690  152.3490 C   0  0  0  0  0  2  0  0  0  0  0  0
  162.2270  206.7960  152.5460 C   0  0  0  0  0  2  0  0  0  0  0  0
  161.4500  205.5010  152.7090 C   0  0  0  0  0  2  0  0  0  0  0  0
  162.1150  204.3760  151.9320 C   0  0  0  0  0  2  0  0  0  0  0  0
  162.5830  204.8690  150.6450 N   0  0  0  0  0  2  0  0  0  0  0  0
  163.0560  204.7730  146.4350 N   0  0  2  0  0  0  0  0  0  0  0  0
  159.4910  206.3090  148.1450 O   0  0  0  0  0  1  0  0  0  0  0  0
  160.5380  205.5010  147.6850 C   0  0  2  0  0  0  0  0  0  0  0  0
  161.4160  205.2520  149.8610 C   0  0  1  0  0  3  0  0  0  0  0  0
  160.8260  202.7560  146.1200 O   0  0  0  0  0  1  0  0  0  0  0  0
  160.2690  204.0420  148.0740 C   0  0  1  0  0  3  0  0  0  0  0  0
  161.7870  205.7830  148.4700 C   0  0  1  0  0  3  0  0  0  0  0  0
  162.3860  205.8850  144.3610 C   0  0  0  0  0  1  0  0  0  0  0  0
  162.7600  203.6270  147.3550 C   0  0  2  0  0  3  0  0  0  0  0  0
  159.2990  204.2390  150.2560 F   0  0  0  0  0  0  0  0  0  0  0  0
  161.2840  203.0660  147.4060 C   0  0  2  0  0  0  0  0  0  0  0  0
  163.0020  204.9920  147.9040 C   0  0  1  0  0  3  0  0  0  0  0  0
  160.7470  205.8380  146.2220 C   0  0  0  0  0  2  0  0  0  0  0  0
  160.5020  204.0570  149.5970 C   0  0  2  0  0  3  0  0  0  0  0  0
  161.9080  205.1110  145.5730 C   0  0  2  0  0  3  0  0  0  0  0  0
  161.3090  201.7420  148.1880 C   0  0  0  0  0  2  0  0  0  0  0  0
  159.9840  201.4360  148.8760 C   0  0  0  0  0  1  0  0  0  0  0  0
  1  4  1  0  0  0  0
  1  5  1  0  0  0  0
  2 34  1  1  0  0  0
  3  2  1  0  0  0  0
  4  6  1  0  0  0  0
  5  8  1  6  0  0  0
  5  3  1  0  0  0  0
  6  2  1  0  0  0  0
  8  7  2  6  0  0  0
  8  9  1  0  0  0  0
  9 20  1  6  0  0  0
  9 10  1  0  0  0  0
 10 12  1  0  0  0  0
 12 11  1  6  0  0  0
 12 13  1  0  0  0  0
 13 14  1  0  0  0  0
 15 16  1  1  0  0  0
 15 17  1  0  0  0  0
 15 14  1  0  0  0  0
 17 19  1  0  0  0  0
 18 17  2  0  0  0  0
 21 26  2  0  0  0  0
 21 22  1  0  0  0  0
 22 25  2  0  0  0  0
 23 20  1  0  0  0  0
 23 24  2  0  0  0  0
 25 24  1  0  0  0  0
 26 23  1  0  0  0  0
 27 26  1  0  0  0  0
 28 27  1  0  0  0  0
 29 30  1  0  0  0  0
 29 28  1  0  0  0  0
 31 30  1  0  0  0  0
 33 31  1  0  0  0  0
 33 32  1  0  0  0  0
 34 35  1  0  0  0  0
 35 36  1  0  0  0  0
 37 36  1  0  0  0  0
 38 37  1  0  0  0  0
 39 47  1  0  0  0  0
 39 50  1  0  0  0  0
 41 44  1  0  0  0  0
 41 40  1  0  0  0  0
 41 45  1  0  0  0  0
 42 38  1  0  0  0  0
 43 49  1  0  0  0  0
 44 52  1  0  0  0  0
 45 42  1  0  0  0  0
 46 53  1  0  0  0  0
 47 49  1  0  0  0  0
 47 50  1  0  0  0  0
 49 44  1  0  0  0  0
 49 54  1  0  0  0  0
 50 45  1  0  0  0  0
 51 41  1  0  0  0  0
 52 42  1  0  0  0  0
 52 48  1  0  0  0  0
 53 51  1  0  0  0  0
 53 39  1  0  0  0  0
 54 55  1  0  0  0  0
M  END
>  <MODEL>
6

>  <REMARK>
 VINA RESULT:      -2.3      4.849      9.954
  Name = 
  23 active torsions:
  status: ('A' for Active; 'I' for Inactive)
    1  A    between atoms: C_4  and  C_37
    2  A    between atoms: C_4  and  C_40
    3  A    between atoms: C_5  and  O_19
    4  A    between atoms: C_5  and  C_40
    5  A    between atoms: C_7  and  N_22
    6  A    between atoms: C_8  and  N_22
    7  A    between atoms: C_8  and  C_43
    8  A    between atoms: C_10  and  C_32
    9  A    between atoms: C_11  and  C_38
   10  A    between atoms: C_13  and  C_48
   11  A    between atoms: C_13  and  C_52
   12  A    between atoms: C_16  and  C_36
   13  A    between atoms: O_19  and  C_45
   14  A    between atoms: C_26  and  C_45
   15  A    between atoms: C_27  and  C_54
   16  A    between atoms: P_28  and  C_44
   17  A    between atoms: P_28  and  C_49
   18  A    between atoms: C_32  and  C_48
   19  A    between atoms: N_33  and  C_49
   20  A    between atoms: N_33  and  C_52
   21  A    between atoms: C_36  and  C_49
   22  A    between atoms: C_43  and  C_51
   23  A    between atoms: C_51  and  C_54
                            x       y       z     vdW  Elec       q    Type
                         _______ _______ _______ _____ _____    ______ ____

>  <TORSDO>
F 23

$$$$
