=
 OpenBabel11062409183D

 37 45  0  0  1  0  0  0  0  0999 V2000
  162.3590  210.1510  149.2870 C   0  0  1  0  0  3  0  0  0  0  0  0
  160.3280  208.6910  154.6350 C   0  0  0  0  0  2  0  0  0  0  0  0
  161.2960  205.6550  151.4600 C   0  0  2  0  0  0  0  0  0  0  0  0
  160.7490  205.6130  147.9560 N   0  0  0  0  0  2  0  0  0  0  0  0
  161.3980  206.6700  153.5100 C   0  0  0  0  0  0  0  0  0  0  0  0
  161.8520  206.1080  150.1380 C   0  0  1  0  0  3  0  0  0  0  0  0
  161.6270  211.5250  151.1040 O   0  0  0  0  0  1  0  0  0  0  0  0
  160.8310  206.8100  152.2120 N   0  0  0  0  0  0  0  0  0  0  0  0
  161.7290  205.1490  148.9540 C   0  0  1  0  0  3  0  0  0  0  0  0
  162.1690  205.5280  153.5810 O   0  0  0  0  0  0  0  0  0  0  0  0
  160.7160  207.9650  151.3000 C   0  0  1  0  0  3  0  0  0  0  0  0
  161.5850  209.6610  152.9960 C   0  0  0  0  0  2  0  0  0  0  0  0
  161.3550  202.8470  151.6360 C   0  0  0  0  0  2  0  0  0  0  0  0
  161.4630  210.2550  150.5360 C   0  0  2  0  0  3  0  0  0  0  0  0
  162.2250  204.8720  152.3150 C   0  0  1  0  0  3  0  0  0  0  0  0
  161.7150  209.1240  151.5640 C   0  0  2  0  0  3  0  0  0  0  0  0
  161.1550  206.9550  147.4890 C   0  0  0  0  0  2  0  0  0  0  0  0
  160.8410  204.2570  151.9300 C   0  0  2  0  0  0  0  0  0  0  0  0
  160.9490  207.3040  149.9420 C   0  0  1  0  0  3  0  0  0  0  0  0
  161.2030  207.4600  154.5690 C   0  0  0  0  0  3  0  0  0  0  0  0
  161.5360  203.7000  149.4040 C   0  0  1  0  0  3  0  0  0  0  0  0
  160.2760  209.4730  153.4640 O   0  0  0  0  0  0  0  0  0  0  0  0
  161.1280  208.0180  148.6140 C   0  0  1  0  0  3  0  0  0  0  0  0
  162.4520  208.7720  148.6250 C   0  0  0  0  0  2  0  0  0  0  0  0
  160.5650  203.5100  150.5800 C   0  0  1  0  0  3  0  0  0  0  0  0
  161.2060  201.3630  148.4950 C   0  0  0  0  0  3  0  0  0  0  0  0
  161.2810  202.7470  148.2750 C   0  0  0  0  0  0  0  0  0  0  0  0
  161.0890  203.2540  146.9850 C   0  0  0  0  0  3  0  0  0  0  0  0
  160.6510  202.8810  144.6720 F   0  0  0  0  0  0  0  0  0  0  0  0
  160.7630  201.0070  146.1410 C   0  0  0  0  0  3  0  0  0  0  0  0
  160.8330  202.3860  145.9200 C   0  0  0  0  0  0  0  0  0  0  0  0
  160.9490  200.4960  147.4290 C   0  0  0  0  0  3  0  0  0  0  0  0
  162.0570  211.2520  148.2630 C   0  0  0  0  0  2  0  0  0  0  0  0
  163.1860  212.2650  148.1300 C   0  0  0  0  0  2  0  0  0  0  0  0
  162.6370  213.5980  147.6620 C   0  0  0  0  0  2  0  0  0  0  0  0
  161.6190  214.0680  148.6020 C   0  0  0  0  0  0  0  0  0  0  0  0
  160.7800  214.4530  149.3760 C   0  0  0  0  0  3  0  0  0  0  0  0
  1 33  1  6  0  0  0
  1 14  1  0  0  0  0
  3 18  1  0  0  0  0
  3  8  1  1  0  0  0
  3 15  1  0  0  0  0
  4  9  1  0  0  0  0
  5 10  1  0  0  0  0
  5 20  2  0  0  0  0
  6  3  1  0  0  0  0
  8  5  1  0  0  0  0
  9 21  1  0  0  0  0
  9  6  1  0  0  0  0
 11 16  1  0  0  0  0
 11  8  1  0  0  0  0
 12 22  1  0  0  0  0
 13 18  1  0  0  0  0
 14  7  1  0  0  0  0
 14 16  1  0  0  0  0
 15 10  1  0  0  0  0
 16 12  1  0  0  0  0
 17  4  1  0  0  0  0
 17 23  1  0  0  0  0
 18 15  1  0  0  0  0
 19  6  1  0  0  0  0
 19 11  1  0  0  0  0
 20  2  1  0  0  0  0
 21 25  1  0  0  0  0
 22  2  1  0  0  0  0
 23 24  1  0  0  0  0
 23 19  1  0  0  0  0
 24  1  1  0  0  0  0
 25 13  1  0  0  0  0
 25 18  1  0  0  0  0
 27 26  1  0  0  0  0
 27 21  1  0  0  0  0
 28 27  2  0  0  0  0
 29 31  1  0  0  0  0
 30 32  1  0  0  0  0
 31 30  2  0  0  0  0
 31 28  1  0  0  0  0
 32 26  2  0  0  0  0
 34 33  1  0  0  0  0
 35 34  1  0  0  0  0
 35 36  1  0  0  0  0
 36 37  3  0  0  0  0
M  END
>  <MODEL>
1

>  <REMARK>
 VINA RESULT:      -9.2      0.000      0.000
  Name = 
  5 active torsions:
  status: ('A' for Active; 'I' for Inactive)
    1  A    between atoms: C_1  and  C_5
    2  A    between atoms: C_5  and  C_17
    3  A    between atoms: C_6  and  C_31
    4  A    between atoms: C_11  and  C_26
    5  A    between atoms: C_17  and  C_26
                            x       y       z     vdW  Elec       q    Type
                         _______ _______ _______ _____ _____    ______ ____

>  <TORSDO>
F 5

$$$$
=
 OpenBabel11062409183D

 37 45  0  0  1  0  0  0  0  0999 V2000
  160.9070  207.2570  153.3270 C   0  0  1  0  0  3  0  0  0  0  0  0
  159.5550  211.5930  157.0990 C   0  0  0  0  0  2  0  0  0  0  0  0
  159.8020  212.1960  152.6470 C   0  0  2  0  0  0  0  0  0  0  0  0
  162.0600  210.9780  150.1990 N   0  0  0  0  0  2  0  0  0  0  0  0
  158.8540  212.2250  154.7310 C   0  0  0  0  0  0  0  0  0  0  0  0
  160.1090  211.0270  151.7520 C   0  0  1  0  0  3  0  0  0  0  0  0
  160.8440  207.2790  155.7180 O   0  0  0  0  0  1  0  0  0  0  0  0
  160.0240  211.8150  154.0330 N   0  0  0  0  0  0  0  0  0  0  0  0
  160.6380  211.3310  150.3500 C   0  0  1  0  0  3  0  0  0  0  0  0
  157.9530  212.8100  153.8640 O   0  0  0  0  0  0  0  0  0  0  0  0
  160.8140  210.5690  154.0710 C   0  0  1  0  0  3  0  0  0  0  0  0
  159.5410  209.5700  156.0430 C   0  0  0  0  0  2  0  0  0  0  0  0
  159.1190  214.4530  151.1120 C   0  0  0  0  0  2  0  0  0  0  0  0
  161.0280  208.1080  154.6050 C   0  0  2  0  0  3  0  0  0  0  0  0
  158.4340  212.7610  152.5220 C   0  0  1  0  0  3  0  0  0  0  0  0
  160.0690  209.3230  154.6230 C   0  0  2  0  0  3  0  0  0  0  0  0
  162.2230  209.5420  150.5070 C   0  0  0  0  0  2  0  0  0  0  0  0
  159.6690  213.6990  152.3240 C   0  0  2  0  0  0  0  0  0  0  0  0
  161.1950  210.4050  152.6000 C   0  0  1  0  0  3  0  0  0  0  0  0
  158.6220  212.1430  156.0450 C   0  0  0  0  0  3  0  0  0  0  0  0
  160.2860  212.7500  149.8970 C   0  0  1  0  0  3  0  0  0  0  0  0
  160.3550  210.5020  156.7040 O   0  0  0  0  0  0  0  0  0  0  0  0
  161.8690  209.1970  151.9750 C   0  0  1  0  0  3  0  0  0  0  0  0
  160.9050  208.0180  151.9970 C   0  0  0  0  0  2  0  0  0  0  0  0
  160.4520  213.8340  150.9730 C   0  0  1  0  0  3  0  0  0  0  0  0
  161.9600  214.0460  148.5130 C   0  0  0  0  0  3  0  0  0  0  0  0
  160.8980  213.1310  148.5820 C   0  0  0  0  0  0  0  0  0  0  0  0
  160.4150  212.5420  147.4090 C   0  0  0  0  0  3  0  0  0  0  0  0
  160.5070  212.2980  145.0400 F   0  0  0  0  0  0  0  0  0  0  0  0
  162.0360  213.7840  146.1070 C   0  0  0  0  0  3  0  0  0  0  0  0
  160.9810  212.8690  146.1740 C   0  0  0  0  0  0  0  0  0  0  0  0
  162.5260  214.3710  147.2770 C   0  0  0  0  0  3  0  0  0  0  0  0
  161.9000  206.0890  153.3100 C   0  0  0  0  0  2  0  0  0  0  0  0
  161.9990  205.4130  151.9490 C   0  0  0  0  0  2  0  0  0  0  0  0
  161.0780  204.2100  151.8970 C   0  0  0  0  0  2  0  0  0  0  0  0
  160.9620  203.7390  150.5170 C   0  0  0  0  0  0  0  0  0  0  0  0
  160.8640  203.3530  149.3790 C   0  0  0  0  0  3  0  0  0  0  0  0
  1 33  1  6  0  0  0
  1 14  1  0  0  0  0
  3  8  1  1  0  0  0
  4  9  1  0  0  0  0
  4 17  1  0  0  0  0
  5 20  2  0  0  0  0
  6 19  1  0  0  0  0
  6  3  1  0  0  0  0
  8 11  1  0  0  0  0
  8  5  1  0  0  0  0
  9  6  1  0  0  0  0
 10  5  1  0  0  0  0
 11 16  1  0  0  0  0
 12 22  1  0  0  0  0
 13 18  1  0  0  0  0
 14 16  1  0  0  0  0
 14  7  1  0  0  0  0
 15  3  1  0  0  0  0
 15 10  1  0  0  0  0
 16 12  1  0  0  0  0
 17 23  1  0  0  0  0
 18 15  1  0  0  0  0
 18  3  1  0  0  0  0
 19 11  1  0  0  0  0
 20  2  1  0  0  0  0
 21  9  1  0  0  0  0
 21 25  1  0  0  0  0
 22  2  1  0  0  0  0
 23 24  1  0  0  0  0
 23 19  1  0  0  0  0
 24  1  1  0  0  0  0
 25 13  1  0  0  0  0
 25 18  1  0  0  0  0
 26 27  1  0  0  0  0
 27 21  1  0  0  0  0
 28 27  2  0  0  0  0
 29 31  1  0  0  0  0
 30 31  2  0  0  0  0
 30 32  1  0  0  0  0
 31 28  1  0  0  0  0
 32 26  2  0  0  0  0
 34 33  1  0  0  0  0
 35 34  1  0  0  0  0
 36 35  1  0  0  0  0
 37 36  3  0  0  0  0
M  END
>  <MODEL>
2

>  <REMARK>
 VINA RESULT:      -7.8      2.891      8.069
  Name = 
  5 active torsions:
  status: ('A' for Active; 'I' for Inactive)
    1  A    between atoms: C_1  and  C_5
    2  A    between atoms: C_5  and  C_17
    3  A    between atoms: C_6  and  C_31
    4  A    between atoms: C_11  and  C_26
    5  A    between atoms: C_17  and  C_26
                            x       y       z     vdW  Elec       q    Type
                         _______ _______ _______ _____ _____    ______ ____

>  <TORSDO>
F 5

$$$$
=
 OpenBabel11062409183D

 37 45  0  0  1  0  0  0  0  0999 V2000
  160.5510  207.0240  153.7820 C   0  0  1  0  0  3  0  0  0  0  0  0
  163.0280  210.8140  149.9940 C   0  0  0  0  0  2  0  0  0  0  0  0
  161.6150  206.7140  148.7980 C   0  0  2  0  0  0  0  0  0  0  0  0
  161.8120  203.5610  150.4100 N   0  0  0  0  0  2  0  0  0  0  0  0
  161.7610  208.9980  148.7320 C   0  0  0  0  0  0  0  0  0  0  0  0
  160.9530  205.8260  149.8160 C   0  0  1  0  0  3  0  0  0  0  0  0
  161.5200  209.1810  154.1460 O   0  0  0  0  0  1  0  0  0  0  0  0
  162.2040  207.8630  149.4670 N   0  0  0  0  0  0  0  0  0  0  0  0
  160.9150  204.3250  149.5260 C   0  0  1  0  0  3  0  0  0  0  0  0
  160.9490  208.6100  147.6850 O   0  0  0  0  0  0  0  0  0  0  0  0
  162.2810  207.5910  150.9160 C   0  0  1  0  0  3  0  0  0  0  0  0
  161.6620  209.9650  151.6120 C   0  0  0  0  0  2  0  0  0  0  0  0
  161.4450  205.5620  146.2360 C   0  0  0  0  0  2  0  0  0  0  0  0
  161.5680  208.0720  153.2930 C   0  0  2  0  0  3  0  0  0  0  0  0
  160.7400  207.1990  147.7000 C   0  0  1  0  0  3  0  0  0  0  0  0
  161.3670  208.4720  151.8100 C   0  0  2  0  0  3  0  0  0  0  0  0
  161.4250  203.8220  151.8110 C   0  0  0  0  0  2  0  0  0  0  0  0
  162.0500  206.4240  147.3460 C   0  0  2  0  0  0  0  0  0  0  0  0
  161.8870  206.1150  150.9700 C   0  0  1  0  0  3  0  0  0  0  0  0
  162.0960  210.2760  148.9330 C   0  0  0  0  0  3  0  0  0  0  0  0
  161.0850  204.0220  148.0360 C   0  0  1  0  0  3  0  0  0  0  0  0
  163.0000  210.1460  151.2340 O   0  0  0  0  0  0  0  0  0  0  0  0
  161.6100  205.3040  152.2220 C   0  0  1  0  0  3  0  0  0  0  0  0
  160.3300  205.8090  152.8750 C   0  0  0  0  0  2  0  0  0  0  0  0
  162.1570  204.8600  147.3220 C   0  0  1  0  0  3  0  0  0  0  0  0
  161.5930  201.6350  148.7000 C   0  0  0  0  0  3  0  0  0  0  0  0
  161.1840  202.5590  147.7260 C   0  0  0  0  0  0  0  0  0  0  0  0
  160.8350  202.1080  146.4480 C   0  0  0  0  0  3  0  0  0  0  0  0
  160.5660  200.3140  144.9020 F   0  0  0  0  0  0  0  0  0  0  0  0
  161.3150  199.8290  147.1130 C   0  0  0  0  0  3  0  0  0  0  0  0
  160.9020  200.7460  146.1410 C   0  0  0  0  0  0  0  0  0  0  0  0
  161.6590  200.2740  148.3920 C   0  0  0  0  0  3  0  0  0  0  0  0
  160.8000  206.6070  155.2360 C   0  0  0  0  0  2  0  0  0  0  0  0
  159.7590  207.1610  156.2000 C   0  0  0  0  0  2  0  0  0  0  0  0
  160.4310  208.0110  157.2600 C   0  0  0  0  0  2  0  0  0  0  0  0
  160.0510  209.4120  157.0800 C   0  0  0  0  0  0  0  0  0  0  0  0
  159.7370  210.5660  156.9300 C   0  0  0  0  0  3  0  0  0  0  0  0
  1 33  1  1  0  0  0
  2 22  1  0  0  0  0
  3  8  1  1  0  0  0
  3  6  1  0  0  0  0
  4 17  1  0  0  0  0
  5 20  2  0  0  0  0
  5  8  1  0  0  0  0
  6 19  1  0  0  0  0
  8 11  1  0  0  0  0
  9  6  1  0  0  0  0
  9  4  1  0  0  0  0
 10 15  1  0  0  0  0
 10  5  1  0  0  0  0
 11 19  1  0  0  0  0
 11 16  1  0  0  0  0
 12 16  1  0  0  0  0
 13 25  1  0  0  0  0
 13 18  1  0  0  0  0
 14  1  1  0  0  0  0
 14  7  1  0  0  0  0
 15  3  1  0  0  0  0
 16 14  1  0  0  0  0
 17 23  1  0  0  0  0
 18 15  1  0  0  0  0
 18  3  1  0  0  0  0
 19 23  1  0  0  0  0
 20  2  1  0  0  0  0
 21  9  1  0  0  0  0
 22 12  1  0  0  0  0
 23 24  1  0  0  0  0
 24  1  1  0  0  0  0
 25 18  1  0  0  0  0
 25 21  1  0  0  0  0
 27 21  1  0  0  0  0
 27 26  2  0  0  0  0
 28 27  1  0  0  0  0
 29 31  1  0  0  0  0
 30 32  2  0  0  0  0
 31 28  2  0  0  0  0
 31 30  1  0  0  0  0
 32 26  1  0  0  0  0
 33 34  1  0  0  0  0
 34 35  1  0  0  0  0
 36 35  1  0  0  0  0
 37 36  3  0  0  0  0
M  END
>  <MODEL>
3

>  <REMARK>
 VINA RESULT:      -7.7      1.842      5.043
  Name = 
  5 active torsions:
  status: ('A' for Active; 'I' for Inactive)
    1  A    between atoms: C_1  and  C_5
    2  A    between atoms: C_5  and  C_17
    3  A    between atoms: C_6  and  C_31
    4  A    between atoms: C_11  and  C_26
    5  A    between atoms: C_17  and  C_26
                            x       y       z     vdW  Elec       q    Type
                         _______ _______ _______ _____ _____    ______ ____

>  <TORSDO>
F 5

$$$$
=
 OpenBabel11062409183D

 37 45  0  0  1  0  0  0  0  0999 V2000
  160.7180  207.7950  153.7910 C   0  0  1  0  0  3  0  0  0  0  0  0
  163.1020  211.2430  149.6350 C   0  0  0  0  0  2  0  0  0  0  0  0
  161.6150  207.0770  148.8160 C   0  0  2  0  0  0  0  0  0  0  0  0
  161.8380  204.0600  150.6680 N   0  0  0  0  0  2  0  0  0  0  0  0
  161.7790  209.3470  148.5630 C   0  0  0  0  0  0  0  0  0  0  0  0
  160.9790  206.2810  149.9230 C   0  0  1  0  0  3  0  0  0  0  0  0
  161.7170  209.9630  153.9500 O   0  0  0  0  0  1  0  0  0  0  0  0
  162.2350  208.2690  149.3720 N   0  0  0  0  0  0  0  0  0  0  0  0
  160.9190  204.7620  149.7550 C   0  0  1  0  0  3  0  0  0  0  0  0
  160.9290  208.8860  147.5780 O   0  0  0  0  0  0  0  0  0  0  0  0
  162.3580  208.1120  150.8350 C   0  0  1  0  0  3  0  0  0  0  0  0
  161.7820  210.5410  151.3590 C   0  0  0  0  0  2  0  0  0  0  0  0
  161.3510  205.7270  146.3610 C   0  0  0  0  0  2  0  0  0  0  0  0
  161.7280  208.7890  153.1870 C   0  0  2  0  0  3  0  0  0  0  0  0
  160.7080  207.4830  147.7120 C   0  0  1  0  0  3  0  0  0  0  0  0
  161.4820  209.0720  151.6850 C   0  0  2  0  0  3  0  0  0  0  0  0
  161.4990  204.4360  152.0560 C   0  0  0  0  0  2  0  0  0  0  0  0
  161.9990  206.6680  147.3790 C   0  0  2  0  0  0  0  0  0  0  0  0
  161.9530  206.6500  151.0190 C   0  0  1  0  0  3  0  0  0  0  0  0
  162.1310  210.6330  148.6510 C   0  0  0  0  0  3  0  0  0  0  0  0
  161.0370  204.3390  148.2890 C   0  0  1  0  0  3  0  0  0  0  0  0
  163.1090  210.6760  150.9250 O   0  0  0  0  0  0  0  0  0  0  0  0
  161.7110  205.9440  152.3410 C   0  0  1  0  0  3  0  0  0  0  0  0
  160.4570  206.5140  152.9920 C   0  0  0  0  0  2  0  0  0  0  0  0
  162.0920  205.1060  147.4770 C   0  0  1  0  0  3  0  0  0  0  0  0
  161.2190  202.2950  146.8120 C   0  0  0  0  0  3  0  0  0  0  0  0
  161.1130  202.8550  148.0940 C   0  0  0  0  0  0  0  0  0  0  0  0
  161.1040  202.0190  149.2160 C   0  0  0  0  0  3  0  0  0  0  0  0
  161.1800  199.8270  150.1490 F   0  0  0  0  0  0  0  0  0  0  0  0
  161.2920  200.0770  147.7810 C   0  0  0  0  0  3  0  0  0  0  0  0
  161.1920  200.6330  149.0600 C   0  0  0  0  0  0  0  0  0  0  0  0
  161.3070  200.9080  146.6580 C   0  0  0  0  0  3  0  0  0  0  0  0
  161.0120  207.4920  155.2660 C   0  0  0  0  0  2  0  0  0  0  0  0
  159.8330  207.7970  156.1810 C   0  0  0  0  0  2  0  0  0  0  0  0
  160.0630  209.1070  156.9070 C   0  0  0  0  0  2  0  0  0  0  0  0
  159.3190  210.1760  156.2400 C   0  0  0  0  0  0  0  0  0  0  0  0
  158.7070  211.0570  155.6910 C   0  0  0  0  0  3  0  0  0  0  0  0
  1 33  1  1  0  0  0
  2 22  1  0  0  0  0
  3  8  1  1  0  0  0
  3  6  1  0  0  0  0
  4 17  1  0  0  0  0
  5 20  2  0  0  0  0
  5  8  1  0  0  0  0
  6 19  1  0  0  0  0
  8 11  1  0  0  0  0
  9  6  1  0  0  0  0
  9  4  1  0  0  0  0
 10 15  1  0  0  0  0
 10  5  1  0  0  0  0
 11 19  1  0  0  0  0
 11 16  1  0  0  0  0
 12 16  1  0  0  0  0
 13 18  1  0  0  0  0
 13 25  1  0  0  0  0
 14  1  1  0  0  0  0
 14  7  1  0  0  0  0
 15  3  1  0  0  0  0
 16 14  1  0  0  0  0
 17 23  1  0  0  0  0
 18 25  1  0  0  0  0
 18 15  1  0  0  0  0
 18  3  1  0  0  0  0
 19 23  1  0  0  0  0
 20  2  1  0  0  0  0
 21  9  1  0  0  0  0
 22 12  1  0  0  0  0
 23 24  1  0  0  0  0
 24  1  1  0  0  0  0
 25 21  1  0  0  0  0
 26 27  1  0  0  0  0
 27 21  1  0  0  0  0
 27 28  2  0  0  0  0
 30 31  2  0  0  0  0
 31 28  1  0  0  0  0
 31 29  1  0  0  0  0
 32 26  2  0  0  0  0
 32 30  1  0  0  0  0
 33 34  1  0  0  0  0
 34 35  1  0  0  0  0
 36 35  1  0  0  0  0
 37 36  3  0  0  0  0
M  END
>  <MODEL>
4

>  <REMARK>
 VINA RESULT:      -6.5      2.040      5.022
  Name = 
  5 active torsions:
  status: ('A' for Active; 'I' for Inactive)
    1  A    between atoms: C_1  and  C_5
    2  A    between atoms: C_5  and  C_17
    3  A    between atoms: C_6  and  C_31
    4  A    between atoms: C_11  and  C_26
    5  A    between atoms: C_17  and  C_26
                            x       y       z     vdW  Elec       q    Type
                         _______ _______ _______ _____ _____    ______ ____

>  <TORSDO>
F 5

$$$$
=
 OpenBabel11062409183D

 37 45  0  0  1  0  0  0  0  0999 V2000
  162.1800  210.8920  150.6430 C   0  0  1  0  0  3  0  0  0  0  0  0
  159.9220  208.6040  155.5950 C   0  0  0  0  0  2  0  0  0  0  0  0
  161.1650  206.0960  152.0730 C   0  0  2  0  0  0  0  0  0  0  0  0
  160.8070  206.5570  148.5740 N   0  0  0  0  0  2  0  0  0  0  0  0
  161.1210  206.8010  154.2510 C   0  0  0  0  0  0  0  0  0  0  0  0
  161.7730  206.7550  150.8650 C   0  0  1  0  0  3  0  0  0  0  0  0
  161.3040  211.9620  152.5960 O   0  0  0  0  0  1  0  0  0  0  0  0
  160.6200  207.1140  152.9570 N   0  0  0  0  0  0  0  0  0  0  0  0
  161.7480  205.9780  149.5490 C   0  0  1  0  0  3  0  0  0  0  0  0
  161.9280  205.6820  154.1990 O   0  0  0  0  0  0  0  0  0  0  0  0
  160.5120  208.3880  152.2180 C   0  0  1  0  0  3  0  0  0  0  0  0
  161.2280  209.8380  154.1900 C   0  0  0  0  0  2  0  0  0  0  0  0
  161.3150  203.2960  151.8400 C   0  0  0  0  0  2  0  0  0  0  0  0
  161.2160  210.7860  151.8400 C   0  0  2  0  0  3  0  0  0  0  0  0
  162.0740  205.2220  152.8560 C   0  0  1  0  0  3  0  0  0  0  0  0
  161.4530  209.5230  152.7050 C   0  0  2  0  0  3  0  0  0  0  0  0
  161.1880  207.9630  148.3320 C   0  0  0  0  0  2  0  0  0  0  0  0
  160.7350  204.6330  152.3070 C   0  0  2  0  0  0  0  0  0  0  0  0
  160.8400  207.9420  150.7930 C   0  0  1  0  0  3  0  0  0  0  0  0
  160.8420  207.4200  155.4010 C   0  0  0  0  0  3  0  0  0  0  0  0
  161.5830  204.4730  149.7710 C   0  0  1  0  0  3  0  0  0  0  0  0
  159.9040  209.5470  154.5490 O   0  0  0  0  0  0  0  0  0  0  0  0
  161.0640  208.8480  149.5970 C   0  0  1  0  0  3  0  0  0  0  0  0
  162.3570  209.6280  149.7940 C   0  0  0  0  0  2  0  0  0  0  0  0
  160.5580  204.0850  150.8490 C   0  0  1  0  0  3  0  0  0  0  0  0
  160.8030  202.4310  148.4990 C   0  0  0  0  0  3  0  0  0  0  0  0
  161.4230  203.6900  148.5030 C   0  0  0  0  0  0  0  0  0  0  0  0
  161.8770  204.2420  147.2990 C   0  0  0  0  0  3  0  0  0  0  0  0
  162.1680  204.0750  144.9400 F   0  0  0  0  0  0  0  0  0  0  0  0
  161.1100  202.2820  146.1010 C   0  0  0  0  0  3  0  0  0  0  0  0
  161.7230  203.5380  146.1020 C   0  0  0  0  0  0  0  0  0  0  0  0
  160.6490  201.7290  147.2990 C   0  0  0  0  0  3  0  0  0  0  0  0
  161.8940  212.1220  149.7750 C   0  0  0  0  0  2  0  0  0  0  0  0
  160.4890  212.1210  149.1860 C   0  0  0  0  0  2  0  0  0  0  0  0
  160.2140  213.4410  148.4930 C   0  0  0  0  0  2  0  0  0  0  0  0
  160.0860  213.2220  147.0520 C   0  0  0  0  0  0  0  0  0  0  0  0
  159.9810  213.0410  145.8650 C   0  0  0  0  0  3  0  0  0  0  0  0
  1 33  1  6  0  0  0
  1 14  1  0  0  0  0
  3 18  1  0  0  0  0
  3 15  1  0  0  0  0
  3  8  1  1  0  0  0
  4  9  1  0  0  0  0
  5 20  2  0  0  0  0
  6  3  1  0  0  0  0
  8  5  1  0  0  0  0
  9 21  1  0  0  0  0
  9  6  1  0  0  0  0
 10  5  1  0  0  0  0
 11 16  1  0  0  0  0
 11  8  1  0  0  0  0
 12 22  1  0  0  0  0
 13 18  1  0  0  0  0
 14  7  1  0  0  0  0
 14 16  1  0  0  0  0
 15 10  1  0  0  0  0
 16 12  1  0  0  0  0
 17  4  1  0  0  0  0
 17 23  1  0  0  0  0
 18 15  1  0  0  0  0
 19  6  1  0  0  0  0
 19 11  1  0  0  0  0
 20  2  1  0  0  0  0
 21 25  1  0  0  0  0
 22  2  1  0  0  0  0
 23 24  1  0  0  0  0
 23 19  1  0  0  0  0
 24  1  1  0  0  0  0
 25 13  1  0  0  0  0
 25 18  1  0  0  0  0
 26 27  1  0  0  0  0
 27 21  1  0  0  0  0
 28 27  2  0  0  0  0
 29 31  1  0  0  0  0
 30 31  2  0  0  0  0
 30 32  1  0  0  0  0
 31 28  1  0  0  0  0
 32 26  2  0  0  0  0
 34 33  1  0  0  0  0
 35 34  1  0  0  0  0
 36 35  1  0  0  0  0
 37 36  3  0  0  0  0
M  END
>  <MODEL>
5

>  <REMARK>
 VINA RESULT:      -6.3      1.231      1.476
  Name = 
  5 active torsions:
  status: ('A' for Active; 'I' for Inactive)
    1  A    between atoms: C_1  and  C_5
    2  A    between atoms: C_5  and  C_17
    3  A    between atoms: C_6  and  C_31
    4  A    between atoms: C_11  and  C_26
    5  A    between atoms: C_17  and  C_26
                            x       y       z     vdW  Elec       q    Type
                         _______ _______ _______ _____ _____    ______ ____

>  <TORSDO>
F 5

$$$$
