=
 OpenBabel11062408183D

 32 34  0  0  1  0  0  0  0  0999 V2000
  160.7090  211.8280  143.2930 C   0  0  1  0  0  3  0  0  0  0  0  0
  160.2610  211.0750  142.0330 C   0  0  0  0  0  2  0  0  0  0  0  0
  162.1720  213.1530  141.7110 N   0  0  0  0  0  0  0  0  0  0  0  0
  159.9180  213.8410  137.8910 O   0  0  0  0  0  0  0  0  0  0  0  0
  159.3700  211.8950  141.1050 C   0  0  0  0  0  2  0  0  0  0  0  0
  161.3330  211.8960  137.6570 C   0  0  0  0  0  2  0  0  0  0  0  0
  160.8330  211.2860  138.9960 C   0  0  1  0  0  0  0  0  0  0  0  0
  163.1440  212.1250  141.3470 C   0  0  0  0  0  2  0  0  0  0  0  0
  158.5940  210.3890  137.9000 C   0  0  2  0  0  3  0  0  0  0  0  0
  162.9550  211.7420  139.8860 C   0  0  0  0  0  2  0  0  0  0  0  0
  161.6920  212.9940  143.0940 C   0  0  2  0  0  3  0  0  0  0  0  0
  157.9810  209.1950  137.5030 O   0  0  0  0  0  1  0  0  0  0  0  0
  159.8810  210.0850  138.7030 C   0  0  1  0  0  3  0  0  0  0  0  0
  161.9320  210.7780  139.7500 O   0  0  0  0  0  0  0  0  0  0  0  0
  157.8260  212.7220  138.5250 C   0  0  0  0  0  2  0  0  0  0  0  0
  162.8140  214.4530  141.5790 C   0  0  0  0  0  1  0  0  0  0  0  0
  157.6180  211.2240  138.7380 C   0  0  1  0  0  3  0  0  0  0  0  0
  160.0930  212.3720  139.8330 C   0  0  1  0  0  3  0  0  0  0  0  0
  162.8160  212.9220  144.1280 C   0  0  0  0  0  1  0  0  0  0  0  0
  160.2930  212.8080  137.0110 C   0  0  0  0  0  2  0  0  0  0  0  0
  159.1980  213.2760  138.9660 C   0  0  1  0  0  3  0  0  0  0  0  0
  160.6180  208.8490  138.2350 C   0  0  0  0  0  3  0  0  0  0  0  0
  161.5320  208.3290  140.3610 O   0  0  0  0  0  1  0  0  0  0  0  0
  161.3570  208.0490  139.0100 C   0  0  0  0  0  0  0  0  0  0  0  0
  162.1640  206.7440  137.1940 O   0  0  0  0  0  0  0  0  0  0  0  0
  162.4650  205.8540  139.2810 O   0  0  0  0  0  1  0  0  0  0  0  0
  162.0110  206.8620  138.4400 C   0  0  0  0  0  0  0  0  0  0  0  0
  159.5320  212.2670  144.1540 C   0  0  0  0  0  2  0  0  0  0  0  0
  159.4650  213.7810  144.2310 C   0  0  0  0  0  1  0  0  0  0  0  0
  156.2890  210.9110  138.4280 O   0  0  0  0  0  0  0  0  0  0  0  0
  155.5970  211.2740  139.4890 O   0  0  0  0  0  0  0  0  0  0  0  0
  154.3890  211.7570  138.9810 C   0  0  0  0  0  1  0  0  0  0  0  0
  1 28  1  6  0  0  0
  2  1  1  0  0  0  0
  3 11  1  0  0  0  0
  4 21  1  0  0  0  0
  5  2  1  0  0  0  0
  7  6  1  6  0  0  0
  7 14  1  0  0  0  0
  7 18  1  0  0  0  0
  8  3  1  0  0  0  0
  9 12  1  1  0  0  0
  9 13  1  0  0  0  0
  9 17  1  0  0  0  0
 10  8  1  0  0  0  0
 11  1  1  0  0  0  0
 11 19  1  1  0  0  0
 13 22  1  6  0  0  0
 13  7  1  0  0  0  0
 14 10  1  0  0  0  0
 15 17  1  0  0  0  0
 16  3  1  0  0  0  0
 17 30  1  6  0  0  0
 18  5  1  1  0  0  0
 20  6  1  0  0  0  0
 20  4  1  0  0  0  0
 21 15  1  6  0  0  0
 21 18  1  0  0  0  0
 22 24  2  0  0  0  0
 24 23  1  0  0  0  0
 25 27  2  0  0  0  0
 27 24  1  0  0  0  0
 27 26  1  0  0  0  0
 28 29  1  0  0  0  0
 30 31  1  0  0  0  0
 32 31  1  0  0  0  0
M  END
>  <MODEL>
1

>  <REMARK>
 VINA RESULT:      -4.1      0.000      0.000
  Name = 
  5 active torsions:
  status: ('A' for Active; 'I' for Inactive)
    1  A    between atoms: O_1  and  O_4
    2  A    between atoms: O_1  and  C_27
    3  A    between atoms: C_2  and  C_14
    4  A    between atoms: C_3  and  C_22
    5  A    between atoms: C_19  and  C_26
                            x       y       z     vdW  Elec       q    Type
                         _______ _______ _______ _____ _____    ______ ____

>  <TORSDO>
F 5

$$$$
