=
 OpenBabel11052423003D

 28 32  0  0  1  0  0  0  0  0999 V2000
  160.5050  211.1970  153.6850 C   0  0  1  0  0  3  0  0  0  0  0  0
  160.9770  207.5180  149.9270 C   0  0  0  0  0  3  0  0  0  0  0  0
  160.5290  206.8970  156.0010 C   0  0  0  0  0  2  0  0  0  0  0  0
  161.2730  205.4660  151.1970 C   0  0  0  0  0  0  0  0  0  0  0  0
  160.8510  207.5480  152.3780 C   0  0  0  0  0  0  0  0  0  0  0  0
  161.4040  205.4270  148.7790 C   0  0  0  0  0  0  0  0  0  0  0  0
  161.0320  206.8590  151.1650 C   0  0  0  0  0  0  0  0  0  0  0  0
  161.1350  205.4580  153.5640 C   0  0  0  0  0  3  0  0  0  0  0  0
  161.4590  204.7600  150.0050 C   0  0  0  0  0  3  0  0  0  0  0  0
  160.8170  209.0110  154.8740 N   0  0  0  0  0  0  0  0  0  0  0  0
  160.4800  209.0040  152.3840 C   0  0  0  0  0  2  0  0  0  0  0  0
  161.3150  204.8090  152.3850 N   0  0  0  0  0  0  0  0  0  0  0  0
  161.6410  211.0800  155.9620 C   0  0  0  0  0  2  0  0  0  0  0  0
  160.8950  206.8400  153.5890 C   0  0  0  0  0  0  0  0  0  0  0  0
  161.0050  209.7080  156.1560 C   0  0  0  0  0  2  0  0  0  0  0  0
  161.5940  204.7060  147.5680 N   0  0  0  0  0  1  0  0  0  0  0  0
  161.1630  206.8040  148.7400 C   0  0  0  0  0  3  0  0  0  0  0  0
  160.7340  207.5700  154.8670 C   0  0  0  0  0  0  0  0  0  0  0  0
  160.7920  211.9120  155.0120 C   0  0  0  0  0  2  0  0  0  0  0  0
  161.0280  209.7430  153.6090 C   0  0  1  0  0  3  0  0  0  0  0  0
  158.7520  211.4430  153.1860 S   0  0  0  0  0  0  0  0  0  0  0  0
  159.0780  212.3590  151.6780 C   0  0  0  0  0  0  0  0  0  0  0  0
  159.5750  213.7660  149.3120 C   0  0  0  0  0  0  0  0  0  0  0  0
  160.3750  212.4160  151.1560 C   0  0  0  0  0  3  0  0  0  0  0  0
  158.0270  212.9870  151.0020 C   0  0  0  0  0  3  0  0  0  0  0  0
  158.2760  213.6940  149.8220 C   0  0  0  0  0  3  0  0  0  0  0  0
  159.8170  214.4530  148.1710 F   0  0  0  0  0  0  0  0  0  0  0  0
  160.6240  213.1230  149.9760 C   0  0  0  0  0  3  0  0  0  0  0  0
  1 21  1  1  0  0  0
  1 19  1  0  0  0  0
  2  7  1  0  0  0  0
  4 12  1  0  0  0  0
  5 11  1  0  0  0  0
  5 14  2  0  0  0  0
  6  9  2  0  0  0  0
  7  4  2  0  0  0  0
  7  5  1  0  0  0  0
  8 14  1  0  0  0  0
  9  4  1  0  0  0  0
 10 15  1  0  0  0  0
 12  8  2  0  0  0  0
 13 15  1  0  0  0  0
 14 18  1  0  0  0  0
 16  6  1  0  0  0  0
 17  6  1  0  0  0  0
 17  2  2  0  0  0  0
 18 10  1  0  0  0  0
 18  3  2  0  0  0  0
 19 13  1  0  0  0  0
 20 11  1  6  0  0  0
 20  1  1  0  0  0  0
 20 10  1  0  0  0  0
 22 21  1  0  0  0  0
 23 26  2  0  0  0  0
 23 28  1  0  0  0  0
 24 22  1  0  0  0  0
 25 22  2  0  0  0  0
 26 25  1  0  0  0  0
 27 23  1  0  0  0  0
 28 24  2  0  0  0  0
M  END
>  <MODEL>
1

>  <REMARK>
 VINA RESULT:      -7.9      0.000      0.000
  Name = 
  2 active torsions:
  status: ('A' for Active; 'I' for Inactive)
    1  A    between atoms: C_1  and  S_2
    2  A    between atoms: S_2  and  C_3
                            x       y       z     vdW  Elec       q    Type
                         _______ _______ _______ _____ _____    ______ ____

>  <TORSDO>
F 2

$$$$
=
 OpenBabel11052423003D

 28 32  0  0  1  0  0  0  0  0999 V2000
  160.8880  210.7720  153.0230 C   0  0  1  0  0  3  0  0  0  0  0  0
  161.1410  206.9160  149.4240 C   0  0  0  0  0  3  0  0  0  0  0  0
  160.5480  206.5800  155.5080 C   0  0  0  0  0  2  0  0  0  0  0  0
  161.2600  204.9020  150.7800 C   0  0  0  0  0  0  0  0  0  0  0  0
  160.9780  207.0570  151.8690 C   0  0  0  0  0  0  0  0  0  0  0  0
  161.4280  204.7550  148.3680 C   0  0  0  0  0  0  0  0  0  0  0  0
  161.1260  206.3060  150.6880 C   0  0  0  0  0  0  0  0  0  0  0  0
  161.0830  205.0010  153.1420 C   0  0  0  0  0  3  0  0  0  0  0  0
  161.4110  204.1360  149.6200 C   0  0  0  0  0  3  0  0  0  0  0  0
  161.0140  208.6190  154.3040 N   0  0  0  0  0  0  0  0  0  0  0  0
  160.7180  208.5350  151.8110 C   0  0  0  0  0  2  0  0  0  0  0  0
  161.2330  204.2930  151.9930 N   0  0  0  0  0  0  0  0  0  0  0  0
  161.9750  210.6630  155.3250 C   0  0  0  0  0  2  0  0  0  0  0  0
  160.9480  206.3980  153.1080 C   0  0  0  0  0  0  0  0  0  0  0  0
  161.2330  209.3520  155.5610 C   0  0  0  0  0  2  0  0  0  0  0  0
  161.5820  203.9720  147.1910 N   0  0  0  0  0  1  0  0  0  0  0  0
  161.2920  206.1430  148.2700 C   0  0  0  0  0  3  0  0  0  0  0  0
  160.8220  207.1890  154.3520 C   0  0  0  0  0  0  0  0  0  0  0  0
  161.2070  211.5170  154.3270 C   0  0  0  0  0  2  0  0  0  0  0  0
  161.3010  209.2810  153.0160 C   0  0  1  0  0  3  0  0  0  0  0  0
  159.1670  211.1280  152.4810 S   0  0  0  0  0  0  0  0  0  0  0  0
  158.6720  212.0710  153.9250 C   0  0  0  0  0  0  0  0  0  0  0  0
  157.8720  213.5360  156.1700 C   0  0  0  0  0  0  0  0  0  0  0  0
  158.7850  213.4650  153.9280 C   0  0  0  0  0  3  0  0  0  0  0  0
  158.1360  211.4120  155.0380 C   0  0  0  0  0  3  0  0  0  0  0  0
  157.7410  212.1440  156.1610 C   0  0  0  0  0  3  0  0  0  0  0  0
  157.4920  214.2450  157.2590 F   0  0  0  0  0  0  0  0  0  0  0  0
  158.3900  214.1970  155.0510 C   0  0  0  0  0  3  0  0  0  0  0  0
  1 21  1  1  0  0  0
  1 19  1  0  0  0  0
  2  7  1  0  0  0  0
  4 12  1  0  0  0  0
  5 14  2  0  0  0  0
  6  9  2  0  0  0  0
  7  4  2  0  0  0  0
  7  5  1  0  0  0  0
  9  4  1  0  0  0  0
 10 18  1  0  0  0  0
 10 15  1  0  0  0  0
 11  5  1  0  0  0  0
 12  8  2  0  0  0  0
 13 15  1  0  0  0  0
 14  8  1  0  0  0  0
 14 18  1  0  0  0  0
 16  6  1  0  0  0  0
 17  6  1  0  0  0  0
 17  2  2  0  0  0  0
 18  3  2  0  0  0  0
 19 13  1  0  0  0  0
 20 11  1  6  0  0  0
 20  1  1  0  0  0  0
 20 10  1  0  0  0  0
 21 22  1  0  0  0  0
 22 24  2  0  0  0  0
 22 25  1  0  0  0  0
 23 27  1  0  0  0  0
 24 28  1  0  0  0  0
 25 26  2  0  0  0  0
 26 23  1  0  0  0  0
 28 23  2  0  0  0  0
M  END
>  <MODEL>
2

>  <REMARK>
 VINA RESULT:      -7.6      2.501      3.049
  Name = 
  2 active torsions:
  status: ('A' for Active; 'I' for Inactive)
    1  A    between atoms: C_1  and  S_2
    2  A    between atoms: S_2  and  C_3
                            x       y       z     vdW  Elec       q    Type
                         _______ _______ _______ _____ _____    ______ ____

>  <TORSDO>
F 2

$$$$
=
 OpenBabel11052423003D

 28 32  0  0  1  0  0  0  0  0999 V2000
  160.8290  206.3300  149.9620 C   0  0  1  0  0  3  0  0  0  0  0  0
  159.7990  211.1570  151.8360 C   0  0  0  0  0  3  0  0  0  0  0  0
  161.9590  206.2030  154.7120 C   0  0  0  0  0  2  0  0  0  0  0  0
  160.1110  210.8970  154.2330 C   0  0  0  0  0  0  0  0  0  0  0  0
  160.5840  209.0230  152.7590 C   0  0  0  0  0  0  0  0  0  0  0  0
  159.3310  213.0060  153.3310 C   0  0  0  0  0  0  0  0  0  0  0  0
  160.1640  210.3550  152.9290 C   0  0  0  0  0  0  0  0  0  0  0  0
  160.8900  208.8570  155.1540 C   0  0  0  0  0  3  0  0  0  0  0  0
  159.6940  212.2180  154.4260 C   0  0  0  0  0  3  0  0  0  0  0  0
  161.1200  206.1970  152.4490 N   0  0  0  0  0  0  0  0  0  0  0  0
  160.7630  208.4440  151.3850 C   0  0  0  0  0  2  0  0  0  0  0  0
  160.4750  210.1410  155.3010 N   0  0  0  0  0  0  0  0  0  0  0  0
  160.3800  204.1680  151.2340 C   0  0  0  0  0  2  0  0  0  0  0  0
  160.9580  208.2680  153.8820 C   0  0  0  0  0  0  0  0  0  0  0  0
  161.2060  204.7300  152.3850 C   0  0  0  0  0  2  0  0  0  0  0  0
  158.9070  214.3480  153.5320 N   0  0  0  0  0  1  0  0  0  0  0  0
  159.3830  212.4770  152.0380 C   0  0  0  0  0  3  0  0  0  0  0  0
  161.3730  206.8580  153.7080 C   0  0  0  0  0  0  0  0  0  0  0  0
  160.8300  204.7950  149.9220 C   0  0  0  0  0  2  0  0  0  0  0  0
  160.4850  206.9380  151.3420 C   0  0  1  0  0  3  0  0  0  0  0  0
  162.3360  206.9970  149.1460 S   0  0  0  0  0  0  0  0  0  0  0  0
  162.0040  206.3500  147.5060 C   0  0  0  0  0  0  0  0  0  0  0  0
  161.4660  205.3220  144.9600 C   0  0  0  0  0  0  0  0  0  0  0  0
  162.8970  205.4520  146.9100 C   0  0  0  0  0  3  0  0  0  0  0  0
  160.8300  206.7130  146.8370 C   0  0  0  0  0  3  0  0  0  0  0  0
  160.5640  206.2030  145.5630 C   0  0  0  0  0  3  0  0  0  0  0  0
  161.2100  204.8300  143.7250 F   0  0  0  0  0  0  0  0  0  0  0  0
  162.6300  204.9420  145.6360 C   0  0  0  0  0  3  0  0  0  0  0  0
  1 21  1  1  0  0  0
  1 20  1  0  0  0  0
  2 17  2  0  0  0  0
  2  7  1  0  0  0  0
  4  9  1  0  0  0  0
  4 12  1  0  0  0  0
  5  7  1  0  0  0  0
  5 14  2  0  0  0  0
  6 16  1  0  0  0  0
  6  9  2  0  0  0  0
  7  4  2  0  0  0  0
  8 12  2  0  0  0  0
 10 18  1  0  0  0  0
 11  5  1  0  0  0  0
 13 15  1  0  0  0  0
 14  8  1  0  0  0  0
 15 10  1  0  0  0  0
 17  6  1  0  0  0  0
 18 14  1  0  0  0  0
 18  3  2  0  0  0  0
 19  1  1  0  0  0  0
 19 13  1  0  0  0  0
 20 11  1  6  0  0  0
 20 10  1  0  0  0  0
 22 21  1  0  0  0  0
 23 26  2  0  0  0  0
 23 28  1  0  0  0  0
 24 22  1  0  0  0  0
 25 22  2  0  0  0  0
 26 25  1  0  0  0  0
 27 23  1  0  0  0  0
 28 24  2  0  0  0  0
M  END
>  <MODEL>
3

>  <REMARK>
 VINA RESULT:      -6.9      3.122      6.968
  Name = 
  2 active torsions:
  status: ('A' for Active; 'I' for Inactive)
    1  A    between atoms: C_1  and  S_2
    2  A    between atoms: S_2  and  C_3
                            x       y       z     vdW  Elec       q    Type
                         _______ _______ _______ _____ _____    ______ ____

>  <TORSDO>
F 2

$$$$
=
 OpenBabel11052423003D

 28 32  0  0  1  0  0  0  0  0999 V2000
  160.6330  210.6860  152.7710 C   0  0  1  0  0  3  0  0  0  0  0  0
  160.8610  205.6940  151.0660 C   0  0  0  0  0  3  0  0  0  0  0  0
  162.5520  210.8780  148.2830 C   0  0  0  0  0  2  0  0  0  0  0  0
  161.5430  205.9340  148.7450 C   0  0  0  0  0  0  0  0  0  0  0  0
  161.3920  207.9090  150.1530 C   0  0  0  0  0  0  0  0  0  0  0  0
  161.0150  203.7440  149.6360 C   0  0  0  0  0  0  0  0  0  0  0  0
  161.2610  206.5170  150.0020 C   0  0  0  0  0  0  0  0  0  0  0  0
  162.0860  208.0570  147.8390 C   0  0  0  0  0  3  0  0  0  0  0  0
  161.4170  204.5520  148.5700 C   0  0  0  0  0  3  0  0  0  0  0  0
  161.3360  210.7950  150.3660 N   0  0  0  0  0  0  0  0  0  0  0  0
  161.2130  208.5550  151.4980 C   0  0  0  0  0  2  0  0  0  0  0  0
  161.9470  206.7120  147.7080 N   0  0  0  0  0  0  0  0  0  0  0  0
  160.0300  212.6800  151.3040 C   0  0  0  0  0  2  0  0  0  0  0  0
  161.8160  208.6870  149.0640 C   0  0  0  0  0  0  0  0  0  0  0  0
  161.1370  212.2520  150.3490 C   0  0  0  0  0  2  0  0  0  0  0  0
  160.8880  202.3400  149.4540 N   0  0  0  0  0  1  0  0  0  0  0  0
  160.7380  204.3140  150.8820 C   0  0  0  0  0  3  0  0  0  0  0  0
  161.9260  210.1550  149.2140 C   0  0  0  0  0  0  0  0  0  0  0  0
  160.3460  212.1930  152.7110 C   0  0  0  0  0  2  0  0  0  0  0  0
  160.6600  209.9800  151.3950 C   0  0  1  0  0  3  0  0  0  0  0  0
  162.0670  210.3470  153.8720 S   0  0  0  0  0  0  0  0  0  0  0  0
  161.2670  209.1140  154.9010 C   0  0  0  0  0  0  0  0  0  0  0  0
  159.9950  207.1930  156.4890 C   0  0  0  0  0  0  0  0  0  0  0  0
  160.7560  209.4680  156.1550 C   0  0  0  0  0  3  0  0  0  0  0  0
  161.1200  207.8030  154.4330 C   0  0  0  0  0  3  0  0  0  0  0  0
  160.4890  206.8430  155.2290 C   0  0  0  0  0  3  0  0  0  0  0  0
  159.3870  206.2620  157.2610 F   0  0  0  0  0  0  0  0  0  0  0  0
  160.1240  208.5070  156.9500 C   0  0  0  0  0  3  0  0  0  0  0  0
  1 21  1  6  0  0  0
  3 18  2  0  0  0  0
  4  7  1  0  0  0  0
  5 11  1  0  0  0  0
  6 17  2  0  0  0  0
  7  5  1  0  0  0  0
  7  2  2  0  0  0  0
  8 14  1  0  0  0  0
  9  4  2  0  0  0  0
  9  6  1  0  0  0  0
 10 20  1  0  0  0  0
 12  8  2  0  0  0  0
 12  4  1  0  0  0  0
 13 19  1  0  0  0  0
 14 18  1  0  0  0  0
 14  5  2  0  0  0  0
 15 10  1  0  0  0  0
 15 13  1  0  0  0  0
 16  6  1  0  0  0  0
 17  2  1  0  0  0  0
 18 10  1  0  0  0  0
 19  1  1  0  0  0  0
 20 11  1  1  0  0  0
 20  1  1  0  0  0  0
 21 22  1  0  0  0  0
 22 24  1  0  0  0  0
 23 28  1  0  0  0  0
 23 27  1  0  0  0  0
 24 28  2  0  0  0  0
 25 22  2  0  0  0  0
 25 26  1  0  0  0  0
 26 23  2  0  0  0  0
M  END
>  <MODEL>
4

>  <REMARK>
 VINA RESULT:      -6.4      2.997      5.592
  Name = 
  2 active torsions:
  status: ('A' for Active; 'I' for Inactive)
    1  A    between atoms: C_1  and  S_2
    2  A    between atoms: S_2  and  C_3
                            x       y       z     vdW  Elec       q    Type
                         _______ _______ _______ _____ _____    ______ ____

>  <TORSDO>
F 2

$$$$
=
 OpenBabel11052423003D

 28 32  0  0  1  0  0  0  0  0999 V2000
  159.6100  211.6120  153.9670 C   0  0  1  0  0  3  0  0  0  0  0  0
  160.9140  206.5880  152.9960 C   0  0  0  0  0  3  0  0  0  0  0  0
  161.8770  211.6160  149.6400 C   0  0  0  0  0  2  0  0  0  0  0  0
  161.7580  206.6660  150.7180 C   0  0  0  0  0  0  0  0  0  0  0  0
  161.1130  208.7330  151.8220 C   0  0  0  0  0  0  0  0  0  0  0  0
  161.5600  204.5440  151.8680 C   0  0  0  0  0  0  0  0  0  0  0  0
  161.2550  207.3340  151.8580 C   0  0  0  0  0  0  0  0  0  0  0  0
  161.9830  208.7250  149.5630 C   0  0  0  0  0  3  0  0  0  0  0  0
  161.9050  205.2760  150.7300 C   0  0  0  0  0  3  0  0  0  0  0  0
  160.5060  211.5560  151.6240 N   0  0  0  0  0  0  0  0  0  0  0  0
  160.6910  209.4930  153.0470 C   0  0  0  0  0  2  0  0  0  0  0  0
  162.1070  207.3730  149.6120 N   0  0  0  0  0  0  0  0  0  0  0  0
  158.7920  213.2520  152.1970 C   0  0  0  0  0  2  0  0  0  0  0  0
  161.4870  209.4370  150.6660 C   0  0  0  0  0  0  0  0  0  0  0  0
  160.0450  212.9330  151.3900 C   0  0  0  0  0  2  0  0  0  0  0  0
  161.7110  203.1290  151.8750 N   0  0  0  0  0  1  0  0  0  0  0  0
  161.0650  205.1980  153.0000 C   0  0  0  0  0  3  0  0  0  0  0  0
  161.3100  210.9060  150.6170 C   0  0  0  0  0  0  0  0  0  0  0  0
  159.0570  213.0140  153.6770 C   0  0  0  0  0  2  0  0  0  0  0  0
  159.8970  210.7590  152.7080 C   0  0  1  0  0  3  0  0  0  0  0  0
  160.9710  211.6980  155.2010 S   0  0  0  0  0  0  0  0  0  0  0  0
  160.8020  210.0270  155.8320 C   0  0  0  0  0  0  0  0  0  0  0  0
  160.5490  207.4110  156.7900 C   0  0  0  0  0  0  0  0  0  0  0  0
  159.5400  209.4300  155.9150 C   0  0  0  0  0  3  0  0  0  0  0  0
  161.9410  209.3040  156.2070 C   0  0  0  0  0  3  0  0  0  0  0  0
  161.8130  207.9990  156.6900 C   0  0  0  0  0  3  0  0  0  0  0  0
  160.4260  206.1470  157.2610 F   0  0  0  0  0  0  0  0  0  0  0  0
  159.4120  208.1250  156.3980 C   0  0  0  0  0  3  0  0  0  0  0  0
  1 21  1  6  0  0  0
  2 17  1  0  0  0  0
  3 18  2  0  0  0  0
  4  9  2  0  0  0  0
  4  7  1  0  0  0  0
  5  7  1  0  0  0  0
  5 11  1  0  0  0  0
  6 16  1  0  0  0  0
  6 17  2  0  0  0  0
  7  2  2  0  0  0  0
  8 12  2  0  0  0  0
  8 14  1  0  0  0  0
  9  6  1  0  0  0  0
 10 20  1  0  0  0  0
 12  4  1  0  0  0  0
 13 19  1  0  0  0  0
 14  5  2  0  0  0  0
 15 10  1  0  0  0  0
 15 13  1  0  0  0  0
 18 14  1  0  0  0  0
 18 10  1  0  0  0  0
 19  1  1  0  0  0  0
 20 11  1  1  0  0  0
 20  1  1  0  0  0  0
 21 22  1  0  0  0  0
 22 24  2  0  0  0  0
 22 25  1  0  0  0  0
 23 27  1  0  0  0  0
 24 28  1  0  0  0  0
 25 26  2  0  0  0  0
 26 23  1  0  0  0  0
 28 23  2  0  0  0  0
M  END
>  <MODEL>
5

>  <REMARK>
 VINA RESULT:      -6.1      2.903      5.480
  Name = 
  2 active torsions:
  status: ('A' for Active; 'I' for Inactive)
    1  A    between atoms: C_1  and  S_2
    2  A    between atoms: S_2  and  C_3
                            x       y       z     vdW  Elec       q    Type
                         _______ _______ _______ _____ _____    ______ ____

>  <TORSDO>
F 2

$$$$
=
 OpenBabel11052423003D

 28 32  0  0  1  0  0  0  0  0999 V2000
  161.1980  207.9730  148.7060 C   0  0  1  0  0  3  0  0  0  0  0  0
  160.2650  210.0740  153.4600 C   0  0  0  0  0  3  0  0  0  0  0  0
  162.1800  204.4570  151.9530 C   0  0  0  0  0  2  0  0  0  0  0  0
  160.4960  208.1740  154.9580 C   0  0  0  0  0  0  0  0  0  0  0  0
  160.9540  207.8850  152.5890 C   0  0  0  0  0  0  0  0  0  0  0  0
  159.8100  210.3280  155.8260 C   0  0  0  0  0  0  0  0  0  0  0  0
  160.5710  208.7180  153.6560 C   0  0  0  0  0  0  0  0  0  0  0  0
  161.1820  206.0520  154.1530 C   0  0  0  0  0  3  0  0  0  0  0  0
  160.1150  208.9820  156.0340 C   0  0  0  0  0  3  0  0  0  0  0  0
  161.4100  206.0980  150.3590 N   0  0  0  0  0  0  0  0  0  0  0  0
  161.1560  208.4480  151.2110 C   0  0  0  0  0  2  0  0  0  0  0  0
  160.8030  206.8680  155.1700 N   0  0  0  0  0  0  0  0  0  0  0  0
  160.6440  205.5710  148.0620 C   0  0  0  0  0  2  0  0  0  0  0  0
  161.2700  206.5410  152.8400 C   0  0  0  0  0  0  0  0  0  0  0  0
  161.4520  205.1110  149.2700 C   0  0  0  0  0  2  0  0  0  0  0  0
  159.4230  211.1470  156.9220 N   0  0  0  0  0  1  0  0  0  0  0  0
  159.8850  210.8740  154.5410 C   0  0  0  0  0  3  0  0  0  0  0  0
  161.6450  205.6570  151.7140 C   0  0  0  0  0  0  0  0  0  0  0  0
  161.1530  206.9240  147.5860 C   0  0  0  0  0  2  0  0  0  0  0  0
  160.8320  207.4340  150.1090 C   0  0  1  0  0  3  0  0  0  0  0  0
  162.7500  208.9560  148.6070 S   0  0  0  0  0  0  0  0  0  0  0  0
  161.9810  210.5760  148.5610 C   0  0  0  0  0  0  0  0  0  0  0  0
  160.7600  213.0930  148.5060 C   0  0  0  0  0  0  0  0  0  0  0  0
  161.3830  211.0390  147.3840 C   0  0  0  0  0  3  0  0  0  0  0  0
  161.9460  211.3640  149.7170 C   0  0  0  0  0  3  0  0  0  0  0  0
  161.3400  212.6230  149.6880 C   0  0  0  0  0  3  0  0  0  0  0  0
  160.1750  214.3130  148.4770 F   0  0  0  0  0  0  0  0  0  0  0  0
  160.7770  212.2980  147.3550 C   0  0  0  0  0  3  0  0  0  0  0  0
  1 21  1  1  0  0  0
  1 20  1  0  0  0  0
  2  7  2  0  0  0  0
  2 17  1  0  0  0  0
  4 12  1  0  0  0  0
  4  9  2  0  0  0  0
  5 14  2  0  0  0  0
  5  7  1  0  0  0  0
  6  9  1  0  0  0  0
  6 16  1  0  0  0  0
  7  4  1  0  0  0  0
  8 12  2  0  0  0  0
 10 18  1  0  0  0  0
 11  5  1  0  0  0  0
 13 15  1  0  0  0  0
 14  8  1  0  0  0  0
 15 10  1  0  0  0  0
 17  6  2  0  0  0  0
 18  3  2  0  0  0  0
 18 14  1  0  0  0  0
 19 13  1  0  0  0  0
 19  1  1  0  0  0  0
 20 10  1  0  0  0  0
 20 11  1  1  0  0  0
 22 21  1  0  0  0  0
 22 25  1  0  0  0  0
 23 26  1  0  0  0  0
 24 22  2  0  0  0  0
 26 25  2  0  0  0  0
 27 23  1  0  0  0  0
 28 24  1  0  0  0  0
 28 23  2  0  0  0  0
M  END
>  <MODEL>
6

>  <REMARK>
 VINA RESULT:      -5.6      2.073      5.581
  Name = 
  2 active torsions:
  status: ('A' for Active; 'I' for Inactive)
    1  A    between atoms: C_1  and  S_2
    2  A    between atoms: S_2  and  C_3
                            x       y       z     vdW  Elec       q    Type
                         _______ _______ _______ _____ _____    ______ ____

>  <TORSDO>
F 2

$$$$
=
 OpenBabel11052423003D

 28 32  0  0  1  0  0  0  0  0999 V2000
  160.5940  203.0060  148.2970 C   0  0  1  0  0  3  0  0  0  0  0  0
  161.6180  208.1820  148.5130 C   0  0  0  0  0  3  0  0  0  0  0  0
  161.5820  203.9930  152.9780 C   0  0  0  0  0  2  0  0  0  0  0  0
  161.8010  208.6090  150.8990 C   0  0  0  0  0  0  0  0  0  0  0  0
  161.4700  206.3310  150.1190 C   0  0  0  0  0  0  0  0  0  0  0  0
  161.9440  210.4420  149.3220 C   0  0  0  0  0  0  0  0  0  0  0  0
  161.6270  207.7000  149.8310 C   0  0  0  0  0  0  0  0  0  0  0  0
  161.6850  206.8410  152.4750 C   0  0  0  0  0  3  0  0  0  0  0  0
  161.9570  209.9740  150.6380 C   0  0  0  0  0  3  0  0  0  0  0  0
  160.8100  203.5800  150.7290 N   0  0  0  0  0  0  0  0  0  0  0  0
  161.3960  205.3190  149.0120 C   0  0  0  0  0  2  0  0  0  0  0  0
  161.8270  208.1600  152.1800 N   0  0  0  0  0  0  0  0  0  0  0  0
  159.3070  201.7200  150.0810 C   0  0  0  0  0  2  0  0  0  0  0  0
  161.5060  205.8960  151.4530 C   0  0  0  0  0  0  0  0  0  0  0  0
  160.2920  202.2580  151.1120 C   0  0  0  0  0  2  0  0  0  0  0  0
  162.1020  211.8310  149.0610 N   0  0  0  0  0  1  0  0  0  0  0  0
  161.7750  209.5470  148.2610 C   0  0  0  0  0  3  0  0  0  0  0  0
  161.3110  204.4610  151.7580 C   0  0  0  0  0  0  0  0  0  0  0  0
  159.9720  201.6660  148.7120 C   0  0  0  0  0  2  0  0  0  0  0  0
  160.5290  204.1100  149.3790 C   0  0  1  0  0  3  0  0  0  0  0  0
  162.2420  202.7400  147.5240 S   0  0  0  0  0  0  0  0  0  0  0  0
  161.9850  203.7910  146.0930 C   0  0  0  0  0  0  0  0  0  0  0  0
  161.5780  205.4530  143.8790 C   0  0  0  0  0  0  0  0  0  0  0  0
  160.8510  203.6240  145.2900 C   0  0  0  0  0  3  0  0  0  0  0  0
  162.9030  204.8060  145.8000 C   0  0  0  0  0  3  0  0  0  0  0  0
  162.7010  205.6330  144.6910 C   0  0  0  0  0  3  0  0  0  0  0  0
  161.3840  206.2520  142.8030 F   0  0  0  0  0  0  0  0  0  0  0  0
  160.6500  204.4510  144.1820 C   0  0  0  0  0  3  0  0  0  0  0  0
  1 21  1  1  0  0  0
  1 19  1  0  0  0  0
  1 20  1  0  0  0  0
  2  7  1  0  0  0  0
  4 12  1  0  0  0  0
  5 14  2  0  0  0  0
  6  9  2  0  0  0  0
  7  5  1  0  0  0  0
  7  4  2  0  0  0  0
  9  4  1  0  0  0  0
 10 15  1  0  0  0  0
 10 18  1  0  0  0  0
 11  5  1  0  0  0  0
 12  8  2  0  0  0  0
 13 15  1  0  0  0  0
 14 18  1  0  0  0  0
 14  8  1  0  0  0  0
 16  6  1  0  0  0  0
 17  2  2  0  0  0  0
 17  6  1  0  0  0  0
 18  3  2  0  0  0  0
 19 13  1  0  0  0  0
 20 11  1  6  0  0  0
 20 10  1  0  0  0  0
 22 21  1  0  0  0  0
 23 28  2  0  0  0  0
 23 26  1  0  0  0  0
 24 22  2  0  0  0  0
 25 22  1  0  0  0  0
 26 25  2  0  0  0  0
 27 23  1  0  0  0  0
 28 24  1  0  0  0  0
M  END
>  <MODEL>
7

>  <REMARK>
 VINA RESULT:      -5.6      4.128      7.684
  Name = 
  2 active torsions:
  status: ('A' for Active; 'I' for Inactive)
    1  A    between atoms: C_1  and  S_2
    2  A    between atoms: S_2  and  C_3
                            x       y       z     vdW  Elec       q    Type
                         _______ _______ _______ _____ _____    ______ ____

>  <TORSDO>
F 2

$$$$
=
 OpenBabel11052423003D

 28 32  0  0  1  0  0  0  0  0999 V2000
  161.9520  203.7870  148.2850 C   0  0  1  0  0  3  0  0  0  0  0  0
  161.1630  205.7450  153.1250 C   0  0  0  0  0  3  0  0  0  0  0  0
  161.2490  208.5860  147.7030 C   0  0  0  0  0  2  0  0  0  0  0  0
  161.1210  208.1460  152.7500 C   0  0  0  0  0  0  0  0  0  0  0  0
  161.3150  206.6460  150.8480 C   0  0  0  0  0  0  0  0  0  0  0  0
  160.9770  207.2670  155.0020 C   0  0  0  0  0  0  0  0  0  0  0  0
  161.2020  206.8320  152.2370 C   0  0  0  0  0  0  0  0  0  0  0  0
  161.2430  209.0480  150.5600 C   0  0  0  0  0  3  0  0  0  0  0  0
  161.0110  208.3550  154.1280 C   0  0  0  0  0  3  0  0  0  0  0  0
  161.8860  206.2820  148.0340 N   0  0  0  0  0  0  0  0  0  0  0  0
  161.2880  205.2670  150.2530 C   0  0  0  0  0  2  0  0  0  0  0  0
  161.1420  209.2100  151.9050 N   0  0  0  0  0  0  0  0  0  0  0  0
  163.2730  204.9690  146.4540 C   0  0  0  0  0  2  0  0  0  0  0  0
  161.3280  207.7640  149.9990 C   0  0  0  0  0  0  0  0  0  0  0  0
  162.3660  206.1790  146.6480 C   0  0  0  0  0  2  0  0  0  0  0  0
  160.8650  207.4830  156.4030 N   0  0  0  0  0  1  0  0  0  0  0  0
  161.0520  205.9630  154.5010 C   0  0  0  0  0  3  0  0  0  0  0  0
  161.4770  207.5710  148.5400 C   0  0  0  0  0  0  0  0  0  0  0  0
  162.5370  203.7030  146.8690 C   0  0  0  0  0  2  0  0  0  0  0  0
  162.1200  205.1650  148.9700 C   0  0  1  0  0  3  0  0  0  0  0  0
  160.2570  203.0740  148.3270 S   0  0  0  0  0  0  0  0  0  0  0  0
  160.6040  201.6240  147.3290 C   0  0  0  0  0  0  0  0  0  0  0  0
  161.1720  199.3720  145.7690 C   0  0  0  0  0  0  0  0  0  0  0  0
  160.1490  201.5540  146.0080 C   0  0  0  0  0  3  0  0  0  0  0  0
  161.3640  200.5770  147.8610 C   0  0  0  0  0  3  0  0  0  0  0  0
  161.6440  199.4500  147.0830 C   0  0  0  0  0  3  0  0  0  0  0  0
  161.4410  198.2790  145.0170 F   0  0  0  0  0  0  0  0  0  0  0  0
  160.4290  200.4270  145.2300 C   0  0  0  0  0  3  0  0  0  0  0  0
  1 21  1  6  0  0  0
  1 20  1  0  0  0  0
  2 17  1  0  0  0  0
  3 18  2  0  0  0  0
  4  9  2  0  0  0  0
  5  7  1  0  0  0  0
  6 16  1  0  0  0  0
  7  4  1  0  0  0  0
  7  2  2  0  0  0  0
  8 12  2  0  0  0  0
  9  6  1  0  0  0  0
 10 18  1  0  0  0  0
 10 20  1  0  0  0  0
 11  5  1  0  0  0  0
 12  4  1  0  0  0  0
 13 15  1  0  0  0  0
 13 19  1  0  0  0  0
 14  8  1  0  0  0  0
 14  5  2  0  0  0  0
 15 10  1  0  0  0  0
 17  6  2  0  0  0  0
 18 14  1  0  0  0  0
 19  1  1  0  0  0  0
 20 11  1  1  0  0  0
 22 25  1  0  0  0  0
 22 21  1  0  0  0  0
 23 26  1  0  0  0  0
 24 22  2  0  0  0  0
 26 25  2  0  0  0  0
 27 23  1  0  0  0  0
 28 23  2  0  0  0  0
 28 24  1  0  0  0  0
M  END
>  <MODEL>
8

>  <REMARK>
 VINA RESULT:      -5.4      4.670      9.294
  Name = 
  2 active torsions:
  status: ('A' for Active; 'I' for Inactive)
    1  A    between atoms: C_1  and  S_2
    2  A    between atoms: S_2  and  C_3
                            x       y       z     vdW  Elec       q    Type
                         _______ _______ _______ _____ _____    ______ ____

>  <TORSDO>
F 2

$$$$
=
 OpenBabel11052423003D

 28 32  0  0  1  0  0  0  0  0999 V2000
  160.1860  212.2510  154.0680 C   0  0  1  0  0  3  0  0  0  0  0  0
  161.6240  209.0720  150.1040 C   0  0  0  0  0  3  0  0  0  0  0  0
  159.4420  207.6920  155.6550 C   0  0  0  0  0  2  0  0  0  0  0  0
  161.4940  206.8580  151.0980 C   0  0  0  0  0  0  0  0  0  0  0  0
  160.8030  208.7900  152.3990 C   0  0  0  0  0  0  0  0  0  0  0  0
  162.3110  207.1270  148.8340 C   0  0  0  0  0  0  0  0  0  0  0  0
  161.3070  208.2550  151.2000 C   0  0  0  0  0  0  0  0  0  0  0  0
  160.6840  206.5480  153.3040 C   0  0  0  0  0  3  0  0  0  0  0  0
  161.9960  206.3040  149.9160 C   0  0  0  0  0  3  0  0  0  0  0  0
  160.0910  209.9130  154.9700 N   0  0  0  0  0  0  0  0  0  0  0  0
  160.4810  210.2530  152.5110 C   0  0  0  0  0  2  0  0  0  0  0  0
  161.1790  206.0490  152.1420 N   0  0  0  0  0  0  0  0  0  0  0  0
  160.6200  211.7640  156.5310 C   0  0  0  0  0  2  0  0  0  0  0  0
  160.4810  207.9280  153.4600 C   0  0  0  0  0  0  0  0  0  0  0  0
  159.9220  210.4220  156.3390 C   0  0  0  0  0  2  0  0  0  0  0  0
  162.8220  206.5600  147.6340 N   0  0  0  0  0  1  0  0  0  0  0  0
  162.1250  208.5100  148.9270 C   0  0  0  0  0  3  0  0  0  0  0  0
  159.9790  208.4930  154.7320 C   0  0  0  0  0  0  0  0  0  0  0  0
  160.0990  212.7660  155.5110 C   0  0  0  0  0  2  0  0  0  0  0  0
  160.6740  210.7890  153.9340 C   0  0  1  0  0  3  0  0  0  0  0  0
  158.6560  212.6720  153.1390 S   0  0  0  0  0  0  0  0  0  0  0  0
  157.4850  212.1060  154.3750 C   0  0  0  0  0  0  0  0  0  0  0  0
  155.6820  211.2190  156.3220 C   0  0  0  0  0  0  0  0  0  0  0  0
  156.9010  210.8400  154.2640 C   0  0  0  0  0  3  0  0  0  0  0  0
  157.1840  212.9190  155.4740 C   0  0  0  0  0  3  0  0  0  0  0  0
  156.2800  212.4770  156.4440 C   0  0  0  0  0  3  0  0  0  0  0  0
  154.8040  210.7930  157.2600 F   0  0  0  0  0  0  0  0  0  0  0  0
  155.9970  210.3980  155.2340 C   0  0  0  0  0  3  0  0  0  0  0  0
  1 21  1  1  0  0  0
  1 19  1  0  0  0  0
  2  7  1  0  0  0  0
  4  7  2  0  0  0  0
  4 12  1  0  0  0  0
  5 11  1  0  0  0  0
  5 14  2  0  0  0  0
  6 17  1  0  0  0  0
  6  9  2  0  0  0  0
  7  5  1  0  0  0  0
  8 14  1  0  0  0  0
  9  4  1  0  0  0  0
 10 15  1  0  0  0  0
 12  8  2  0  0  0  0
 14 18  1  0  0  0  0
 15 13  1  0  0  0  0
 16  6  1  0  0  0  0
 17  2  2  0  0  0  0
 18 10  1  0  0  0  0
 18  3  2  0  0  0  0
 19 13  1  0  0  0  0
 20 11  1  6  0  0  0
 20  1  1  0  0  0  0
 20 10  1  0  0  0  0
 21 22  1  0  0  0  0
 22 25  1  0  0  0  0
 23 26  1  0  0  0  0
 23 27  1  0  0  0  0
 24 22  2  0  0  0  0
 24 28  1  0  0  0  0
 25 26  2  0  0  0  0
 28 23  2  0  0  0  0
M  END
>  <MODEL>
9

>  <REMARK>
 VINA RESULT:      -5.3      3.094      3.762
  Name = 
  2 active torsions:
  status: ('A' for Active; 'I' for Inactive)
    1  A    between atoms: C_1  and  S_2
    2  A    between atoms: S_2  and  C_3
                            x       y       z     vdW  Elec       q    Type
                         _______ _______ _______ _____ _____    ______ ____

>  <TORSDO>
F 2

$$$$
