=
 OpenBabel11052422203D

 25 28  0  0  1  0  0  0  0  0999 V2000
  160.4370  210.0660  154.0120 C   0  0  2  0  0  0  0  0  0  0  0  0
  161.1390  208.7230  153.6920 C   0  0  2  0  0  3  0  0  0  0  0  0
  160.0440  209.1540  156.4210 C   0  0  0  0  0  2  0  0  0  0  0  0
  159.8380  210.8570  152.8420 C   0  0  0  0  0  2  0  0  0  0  0  0
  157.0040  212.7310  154.5630 C   0  0  0  0  0  1  0  0  0  0  0  0
  159.8050  207.8370  155.7090 C   0  0  0  0  0  2  0  0  0  0  0  0
  158.3700  212.1020  154.3990 C   0  0  2  0  0  3  0  0  0  0  0  0
  158.4080  211.2980  153.1140 C   0  0  0  0  0  2  0  0  0  0  0  0
  160.6920  206.3430  154.0720 O   0  0  0  0  0  0  0  0  0  0  0  0
  161.7270  206.1320  153.1390 C   0  0  0  0  0  2  0  0  0  0  0  0
  160.8190  208.2680  152.3980 O   0  0  0  0  0  0  0  0  0  0  0  0
  161.1830  211.0240  154.9670 C   0  0  1  0  0  3  0  0  0  0  0  0
  159.9080  210.3140  155.4350 C   0  0  1  0  0  0  0  0  0  0  0  0
  158.6510  211.1880  155.5870 C   0  0  0  0  0  2  0  0  0  0  0  0
  162.4660  210.4470  155.5650 C   0  0  0  0  0  1  0  0  0  0  0  0
  161.7420  207.2490  152.0770 C   0  0  2  0  0  3  0  0  0  0  0  0
  160.9350  207.5720  154.7250 C   0  0  1  0  0  3  0  0  0  0  0  0
  161.4050  206.6570  150.7180 C   0  0  0  0  0  2  0  0  0  0  0  0
  160.7830  205.2730  150.8560 C   0  0  0  0  0  2  0  0  0  0  0  0
  161.1060  204.3880  149.6580 C   0  0  0  0  0  2  0  0  0  0  0  0
  161.1240  205.1880  148.3610 C   0  0  0  0  0  2  0  0  0  0  0  0
  161.7710  204.4040  147.2260 C   0  0  0  0  0  2  0  0  0  0  0  0
  162.2830  205.3340  146.1320 C   0  0  0  0  0  2  0  0  0  0  0  0
  161.3760  205.3100  144.9130 C   0  0  0  0  0  2  0  0  0  0  0  0
  160.2990  206.1770  145.1030 O   0  0  0  0  0  1  0  0  0  0  0  0
  1  4  1  6  0  0  0
  1 12  1  0  0  0  0
  1 13  1  0  0  0  0
  2 11  1  6  0  0  0
  2  1  1  0  0  0  0
  2 17  1  0  0  0  0
  4  8  1  0  0  0  0
  6  3  1  0  0  0  0
  7  5  1  1  0  0  0
  7 14  1  0  0  0  0
  8  7  1  0  0  0  0
  9 17  1  0  0  0  0
 10  9  1  0  0  0  0
 12 13  1  0  0  0  0
 12 15  1  1  0  0  0
 13 14  1  1  0  0  0
 13  3  1  0  0  0  0
 16 18  1  6  0  0  0
 16 11  1  0  0  0  0
 16 10  1  0  0  0  0
 17  6  1  1  0  0  0
 18 19  1  0  0  0  0
 20 19  1  0  0  0  0
 21 20  1  0  0  0  0
 22 21  1  0  0  0  0
 23 22  1  0  0  0  0
 24 25  1  0  0  0  0
 24 23  1  0  0  0  0
M  END
>  <MODEL>
1

>  <REMARK>
 VINA RESULT:      -7.5      0.000      0.000
  Name = 
  7 active torsions:
  status: ('A' for Active; 'I' for Inactive)
    1  A    between atoms: C_2  and  C_7
    2  A    between atoms: C_2  and  C_25
    3  A    between atoms: C_6  and  C_15
    4  A    between atoms: C_6  and  C_21
    5  A    between atoms: C_15  and  C_20
    6  A    between atoms: C_20  and  C_23
    7  A    between atoms: C_21  and  C_25
                            x       y       z     vdW  Elec       q    Type
                         _______ _______ _______ _____ _____    ______ ____

>  <TORSDO>
F 7

$$$$
=
 OpenBabel11052422203D

 25 28  0  0  1  0  0  0  0  0999 V2000
  160.4130  210.0940  154.0040 C   0  0  2  0  0  0  0  0  0  0  0  0
  161.2010  208.8810  153.4490 C   0  0  2  0  0  3  0  0  0  0  0  0
  160.1460  208.7580  156.2250 C   0  0  0  0  0  2  0  0  0  0  0  0
  159.7320  211.0260  152.9940 C   0  0  0  0  0  2  0  0  0  0  0  0
  156.8130  212.3620  155.0450 C   0  0  0  0  0  1  0  0  0  0  0  0
  159.9840  207.5680  155.2990 C   0  0  0  0  0  2  0  0  0  0  0  0
  158.2170  211.8740  154.7590 C   0  0  2  0  0  3  0  0  0  0  0  0
  158.2800  211.3060  153.3540 C   0  0  0  0  0  2  0  0  0  0  0  0
  160.9360  206.4450  153.4200 O   0  0  0  0  0  0  0  0  0  0  0  0
  161.9600  206.4740  152.4520 C   0  0  0  0  0  2  0  0  0  0  0  0
  160.8830  208.6310  152.1000 O   0  0  0  0  0  0  0  0  0  0  0  0
  161.1120  210.9280  155.1000 C   0  0  1  0  0  3  0  0  0  0  0  0
  159.9030  210.0560  155.4540 C   0  0  1  0  0  0  0  0  0  0  0  0
  158.5920  210.7940  155.7690 C   0  0  0  0  0  2  0  0  0  0  0  0
  162.4470  210.3550  155.5750 C   0  0  0  0  0  1  0  0  0  0  0  0
  161.8690  207.7540  151.5980 C   0  0  2  0  0  3  0  0  0  0  0  0
  161.1060  207.5600  154.2710 C   0  0  1  0  0  3  0  0  0  0  0  0
  161.5420  207.3790  150.1620 C   0  0  0  0  0  2  0  0  0  0  0  0
  160.9340  205.9840  150.0780 C   0  0  0  0  0  2  0  0  0  0  0  0
  160.8250  205.5020  148.6360 C   0  0  0  0  0  2  0  0  0  0  0  0
  161.2670  204.0500  148.4970 C   0  0  0  0  0  2  0  0  0  0  0  0
  160.8380  203.2150  149.6970 C   0  0  0  0  0  2  0  0  0  0  0  0
  160.2420  201.8820  149.2600 C   0  0  0  0  0  2  0  0  0  0  0  0
  160.8100  201.4290  147.9260 C   0  0  0  0  0  2  0  0  0  0  0  0
  161.5550  200.2620  148.0960 O   0  0  0  0  0  1  0  0  0  0  0  0
  1  4  1  6  0  0  0
  1 12  1  0  0  0  0
  1 13  1  0  0  0  0
  2 11  1  6  0  0  0
  2  1  1  0  0  0  0
  2 17  1  0  0  0  0
  4  8  1  0  0  0  0
  6  3  1  0  0  0  0
  7  5  1  1  0  0  0
  7 14  1  0  0  0  0
  8  7  1  0  0  0  0
  9 17  1  0  0  0  0
 10  9  1  0  0  0  0
 12 13  1  0  0  0  0
 12 15  1  1  0  0  0
 13 14  1  1  0  0  0
 13  3  1  0  0  0  0
 16 18  1  6  0  0  0
 16 11  1  0  0  0  0
 16 10  1  0  0  0  0
 17  6  1  1  0  0  0
 19 18  1  0  0  0  0
 20 19  1  0  0  0  0
 21 20  1  0  0  0  0
 21 22  1  0  0  0  0
 23 22  1  0  0  0  0
 24 25  1  0  0  0  0
 24 23  1  0  0  0  0
M  END
>  <MODEL>
2

>  <REMARK>
 VINA RESULT:      -7.5      1.760      2.132
  Name = 
  7 active torsions:
  status: ('A' for Active; 'I' for Inactive)
    1  A    between atoms: C_2  and  C_7
    2  A    between atoms: C_2  and  C_25
    3  A    between atoms: C_6  and  C_15
    4  A    between atoms: C_6  and  C_21
    5  A    between atoms: C_15  and  C_20
    6  A    between atoms: C_20  and  C_23
    7  A    between atoms: C_21  and  C_25
                            x       y       z     vdW  Elec       q    Type
                         _______ _______ _______ _____ _____    ______ ____

>  <TORSDO>
F 7

$$$$
=
 OpenBabel11052422203D

 25 28  0  0  1  0  0  0  0  0999 V2000
  161.6810  203.8510  147.3150 C   0  0  2  0  0  0  0  0  0  0  0  0
  161.7640  204.9970  148.3540 C   0  0  2  0  0  3  0  0  0  0  0  0
  161.0900  205.6610  145.5370 C   0  0  0  0  0  2  0  0  0  0  0  0
  161.3870  202.4370  147.8320 C   0  0  0  0  0  2  0  0  0  0  0  0
  159.6460  200.8760  144.8250 C   0  0  0  0  0  1  0  0  0  0  0  0
  160.3010  206.2860  146.6710 C   0  0  0  0  0  2  0  0  0  0  0  0
  160.6330  201.7410  145.5790 C   0  0  2  0  0  3  0  0  0  0  0  0
  160.2720  201.7560  147.0520 C   0  0  0  0  0  2  0  0  0  0  0  0
  160.4190  206.9550  148.9600 O   0  0  0  0  0  0  0  0  0  0  0  0
  161.2280  206.9920  150.1140 C   0  0  0  0  0  2  0  0  0  0  0  0
  161.2160  204.6120  149.5930 O   0  0  0  0  0  0  0  0  0  0  0  0
  162.8010  203.8000  146.2530 C   0  0  1  0  0  3  0  0  0  0  0  0
  161.3770  204.1920  145.8460 C   0  0  1  0  0  0  0  0  0  0  0  0
  160.5890  203.1600  145.0230 C   0  0  0  0  0  2  0  0  0  0  0  0
  163.7750  204.9770  146.3050 C   0  0  0  0  0  1  0  0  0  0  0  0
  161.6320  205.5680  150.5450 C   0  0  2  0  0  3  0  0  0  0  0  0
  161.1730  206.3720  147.9170 C   0  0  1  0  0  3  0  0  0  0  0  0
  161.0100  205.2560  151.8960 C   0  0  0  0  0  2  0  0  0  0  0  0
  161.7130  206.0100  153.0180 C   0  0  0  0  0  2  0  0  0  0  0  0
  160.7200  206.7330  153.9210 C   0  0  0  0  0  2  0  0  0  0  0  0
  161.3360  207.9810  154.5400 C   0  0  0  0  0  2  0  0  0  0  0  0
  160.5430  209.2330  154.1890 C   0  0  0  0  0  2  0  0  0  0  0  0
  160.6110  209.5330  152.6960 C   0  0  0  0  0  2  0  0  0  0  0  0
  162.0340  209.8330  152.2540 C   0  0  0  0  0  2  0  0  0  0  0  0
  162.0360  210.2980  150.9380 O   0  0  0  0  0  1  0  0  0  0  0  0
  1  4  1  1  0  0  0
  1  2  1  0  0  0  0
  2 11  1  1  0  0  0
  3 13  1  0  0  0  0
  3  6  1  0  0  0  0
  7  5  1  6  0  0  0
  7  8  1  0  0  0  0
  8  4  1  0  0  0  0
  9 10  1  0  0  0  0
 10 16  1  0  0  0  0
 11 16  1  0  0  0  0
 12 15  1  1  0  0  0
 12  1  1  0  0  0  0
 13 14  1  6  0  0  0
 13 12  1  0  0  0  0
 13  1  1  0  0  0  0
 14  7  1  0  0  0  0
 16 18  1  1  0  0  0
 17  6  1  6  0  0  0
 17  2  1  0  0  0  0
 17  9  1  0  0  0  0
 18 19  1  0  0  0  0
 19 20  1  0  0  0  0
 20 21  1  0  0  0  0
 22 21  1  0  0  0  0
 23 22  1  0  0  0  0
 24 23  1  0  0  0  0
 25 24  1  0  0  0  0
M  END
>  <MODEL>
3

>  <REMARK>
 VINA RESULT:      -7.2      2.360      8.993
  Name = 
  7 active torsions:
  status: ('A' for Active; 'I' for Inactive)
    1  A    between atoms: C_2  and  C_7
    2  A    between atoms: C_2  and  C_25
    3  A    between atoms: C_6  and  C_15
    4  A    between atoms: C_6  and  C_21
    5  A    between atoms: C_15  and  C_20
    6  A    between atoms: C_20  and  C_23
    7  A    between atoms: C_21  and  C_25
                            x       y       z     vdW  Elec       q    Type
                         _______ _______ _______ _____ _____    ______ ____

>  <TORSDO>
F 7

$$$$
=
 OpenBabel11052422203D

 25 28  0  0  1  0  0  0  0  0999 V2000
  161.6680  203.8510  147.3030 C   0  0  2  0  0  0  0  0  0  0  0  0
  161.7540  204.9930  148.3460 C   0  0  2  0  0  3  0  0  0  0  0  0
  161.0980  205.6710  145.5280 C   0  0  0  0  0  2  0  0  0  0  0  0
  161.3620  202.4370  147.8140 C   0  0  0  0  0  2  0  0  0  0  0  0
  159.6230  200.8980  144.7940 C   0  0  0  0  0  1  0  0  0  0  0  0
  160.3080  206.2980  146.6610 C   0  0  0  0  0  2  0  0  0  0  0  0
  160.6120  201.7540  145.5560 C   0  0  2  0  0  3  0  0  0  0  0  0
  160.2450  201.7670  147.0270 C   0  0  0  0  0  2  0  0  0  0  0  0
  160.4210  206.9590  148.9520 O   0  0  0  0  0  0  0  0  0  0  0  0
  161.2250  206.9860  150.1100 C   0  0  0  0  0  2  0  0  0  0  0  0
  161.1990  204.6080  149.5810 O   0  0  0  0  0  0  0  0  0  0  0  0
  162.7920  203.7950  146.2450 C   0  0  1  0  0  3  0  0  0  0  0  0
  161.3720  204.1990  145.8340 C   0  0  1  0  0  0  0  0  0  0  0  0
  160.5810  203.1750  145.0030 C   0  0  0  0  0  2  0  0  0  0  0  0
  163.7740  204.9650  146.3050 C   0  0  0  0  0  1  0  0  0  0  0  0
  161.6170  205.5580  150.5380 C   0  0  2  0  0  3  0  0  0  0  0  0
  161.1750  206.3730  147.9100 C   0  0  1  0  0  3  0  0  0  0  0  0
  160.9870  205.2460  151.8850 C   0  0  0  0  0  2  0  0  0  0  0  0
  161.7580  205.9020  153.0240 C   0  0  0  0  0  2  0  0  0  0  0  0
  160.8480  206.7420  153.9110 C   0  0  0  0  0  2  0  0  0  0  0  0
  160.9800  208.2280  153.5980 C   0  0  0  0  0  2  0  0  0  0  0  0
  160.6590  209.0890  154.8130 C   0  0  0  0  0  2  0  0  0  0  0  0
  160.7230  208.2780  156.1010 C   0  0  0  0  0  2  0  0  0  0  0  0
  161.9680  208.6110  156.9060 C   0  0  0  0  0  2  0  0  0  0  0  0
  162.4990  209.8290  156.4810 O   0  0  0  0  0  1  0  0  0  0  0  0
  1  4  1  1  0  0  0
  1  2  1  0  0  0  0
  2 11  1  1  0  0  0
  3 13  1  0  0  0  0
  3  6  1  0  0  0  0
  7  5  1  6  0  0  0
  7  8  1  0  0  0  0
  8  4  1  0  0  0  0
  9 10  1  0  0  0  0
 10 16  1  0  0  0  0
 11 16  1  0  0  0  0
 12 15  1  1  0  0  0
 12  1  1  0  0  0  0
 13 14  1  6  0  0  0
 13 12  1  0  0  0  0
 13  1  1  0  0  0  0
 14  7  1  0  0  0  0
 16 18  1  1  0  0  0
 17  6  1  6  0  0  0
 17  2  1  0  0  0  0
 17  9  1  0  0  0  0
 18 19  1  0  0  0  0
 19 20  1  0  0  0  0
 21 20  1  0  0  0  0
 21 22  1  0  0  0  0
 22 23  1  0  0  0  0
 23 24  1  0  0  0  0
 25 24  1  0  0  0  0
M  END
>  <MODEL>
4

>  <REMARK>
 VINA RESULT:      -7.1      2.438      9.471
  Name = 
  7 active torsions:
  status: ('A' for Active; 'I' for Inactive)
    1  A    between atoms: C_2  and  C_7
    2  A    between atoms: C_2  and  C_25
    3  A    between atoms: C_6  and  C_15
    4  A    between atoms: C_6  and  C_21
    5  A    between atoms: C_15  and  C_20
    6  A    between atoms: C_20  and  C_23
    7  A    between atoms: C_21  and  C_25
                            x       y       z     vdW  Elec       q    Type
                         _______ _______ _______ _____ _____    ______ ____

>  <TORSDO>
F 7

$$$$
=
 OpenBabel11052422203D

 25 28  0  0  1  0  0  0  0  0999 V2000
  160.8020  205.6750  147.7210 C   0  0  2  0  0  0  0  0  0  0  0  0
  160.7460  204.1460  147.4740 C   0  0  2  0  0  3  0  0  0  0  0  0
  162.7050  205.7760  145.9440 C   0  0  0  0  0  2  0  0  0  0  0  0
  160.2990  206.2000  149.0720 C   0  0  0  0  0  2  0  0  0  0  0  0
  162.3750  209.3680  149.4770 C   0  0  0  0  0  1  0  0  0  0  0  0
  163.1360  204.4620  146.5670 C   0  0  0  0  0  2  0  0  0  0  0  0
  161.5770  208.2970  148.7640 C   0  0  2  0  0  3  0  0  0  0  0  0
  161.2840  207.1590  149.7220 C   0  0  0  0  0  2  0  0  0  0  0  0
  162.3600  202.3140  147.2630 O   0  0  0  0  0  0  0  0  0  0  0  0
  161.2320  201.4780  147.3940 C   0  0  0  0  0  2  0  0  0  0  0  0
  160.5500  203.4360  148.6740 O   0  0  0  0  0  0  0  0  0  0  0  0
  160.2850  206.5780  146.5800 C   0  0  1  0  0  3  0  0  0  0  0  0
  161.7820  206.5310  146.9010 C   0  0  1  0  0  0  0  0  0  0  0  0
  162.3800  207.7760  147.5760 C   0  0  0  0  0  2  0  0  0  0  0  0
  159.9020  205.8280  145.3040 C   0  0  0  0  0  1  0  0  0  0  0  0
  160.1800  202.1200  148.3200 C   0  0  2  0  0  3  0  0  0  0  0  0
  161.9370  203.5300  146.6800 C   0  0  1  0  0  3  0  0  0  0  0  0
  160.0280  201.2730  149.5730 C   0  0  0  0  0  2  0  0  0  0  0  0
  161.2040  201.4700  150.5220 C   0  0  0  0  0  2  0  0  0  0  0  0
  160.8330  202.3580  151.7030 C   0  0  0  0  0  2  0  0  0  0  0  0
  161.5880  203.6810  151.6660 C   0  0  0  0  0  2  0  0  0  0  0  0
  160.8160  204.7900  152.3710 C   0  0  0  0  0  2  0  0  0  0  0  0
  161.7540  205.7300  153.1190 C   0  0  0  0  0  2  0  0  0  0  0  0
  160.9830  206.7860  153.8920 C   0  0  0  0  0  2  0  0  0  0  0  0
  160.8950  207.9580  153.1400 O   0  0  0  0  0  1  0  0  0  0  0  0
  1  4  1  1  0  0  0
  2  1  1  0  0  0  0
  2 11  1  1  0  0  0
  3  6  1  0  0  0  0
  4  8  1  0  0  0  0
  7  5  1  1  0  0  0
  7  8  1  0  0  0  0
  9 10  1  0  0  0  0
 10 16  1  0  0  0  0
 12 15  1  6  0  0  0
 12 13  1  0  0  0  0
 12  1  1  0  0  0  0
 13  3  1  6  0  0  0
 13 14  1  0  0  0  0
 13  1  1  0  0  0  0
 14  7  1  0  0  0  0
 16 11  1  0  0  0  0
 16 18  1  1  0  0  0
 17  6  1  1  0  0  0
 17  9  1  0  0  0  0
 17  2  1  0  0  0  0
 18 19  1  0  0  0  0
 19 20  1  0  0  0  0
 21 20  1  0  0  0  0
 21 22  1  0  0  0  0
 22 23  1  0  0  0  0
 23 24  1  0  0  0  0
 25 24  1  0  0  0  0
M  END
>  <MODEL>
5

>  <REMARK>
 VINA RESULT:      -5.9      3.410      7.829
  Name = 
  7 active torsions:
  status: ('A' for Active; 'I' for Inactive)
    1  A    between atoms: C_2  and  C_7
    2  A    between atoms: C_2  and  C_25
    3  A    between atoms: C_6  and  C_15
    4  A    between atoms: C_6  and  C_21
    5  A    between atoms: C_15  and  C_20
    6  A    between atoms: C_20  and  C_23
    7  A    between atoms: C_21  and  C_25
                            x       y       z     vdW  Elec       q    Type
                         _______ _______ _______ _____ _____    ______ ____

>  <TORSDO>
F 7

$$$$
=
 OpenBabel11052422203D

 25 28  0  0  1  0  0  0  0  0999 V2000
  161.7310  204.0490  146.9560 C   0  0  2  0  0  0  0  0  0  0  0  0
  161.8320  205.4780  147.5460 C   0  0  2  0  0  3  0  0  0  0  0  0
  161.3640  205.1590  144.6280 C   0  0  0  0  0  2  0  0  0  0  0  0
  161.3150  202.9140  147.9010 C   0  0  0  0  0  2  0  0  0  0  0  0
  159.6460  200.4890  145.4830 C   0  0  0  0  0  1  0  0  0  0  0  0
  160.5560  206.1700  145.4180 C   0  0  0  0  0  2  0  0  0  0  0  0
  160.6440  201.5170  145.9700 C   0  0  2  0  0  3  0  0  0  0  0  0
  160.2020  202.0550  147.3170 C   0  0  0  0  0  2  0  0  0  0  0  0
  160.5900  207.5810  147.3440 O   0  0  0  0  0  0  0  0  0  0  0  0
  161.3330  207.9790  148.4740 C   0  0  0  0  0  2  0  0  0  0  0  0
  161.1910  205.5680  148.7960 O   0  0  0  0  0  0  0  0  0  0  0  0
  162.9040  203.5860  146.0640 C   0  0  1  0  0  3  0  0  0  0  0  0
  161.5340  203.8760  145.4410 C   0  0  1  0  0  0  0  0  0  0  0  0
  160.7260  202.6590  144.9610 C   0  0  0  0  0  2  0  0  0  0  0  0
  163.9500  204.6660  145.7850 C   0  0  0  0  0  1  0  0  0  0  0  0
  161.6160  206.7740  149.3940 C   0  0  2  0  0  3  0  0  0  0  0  0
  161.3600  206.6420  146.6220 C   0  0  1  0  0  3  0  0  0  0  0  0
  160.8980  206.9740  150.7190 C   0  0  0  0  0  2  0  0  0  0  0  0
  161.8780  207.3240  151.8320 C   0  0  0  0  0  2  0  0  0  0  0  0
  161.3710  206.8640  153.1950 C   0  0  0  0  0  2  0  0  0  0  0  0
  161.6870  205.3940  153.4400 C   0  0  0  0  0  2  0  0  0  0  0  0
  160.7670  204.4800  152.6410 C   0  0  0  0  0  2  0  0  0  0  0  0
  161.5630  203.4880  151.8010 C   0  0  0  0  0  2  0  0  0  0  0  0
  160.6470  202.5850  150.9920 C   0  0  0  0  0  2  0  0  0  0  0  0
  161.2670  201.3550  150.7670 O   0  0  0  0  0  1  0  0  0  0  0  0
  1  2  1  0  0  0  0
  1  4  1  1  0  0  0
  2 11  1  1  0  0  0
  3  6  1  0  0  0  0
  7  5  1  6  0  0  0
  7  8  1  0  0  0  0
  8  4  1  0  0  0  0
  9 10  1  0  0  0  0
 10 16  1  0  0  0  0
 11 16  1  0  0  0  0
 12 15  1  6  0  0  0
 12  1  1  0  0  0  0
 13  3  1  6  0  0  0
 13 12  1  0  0  0  0
 13  1  1  0  0  0  0
 14 13  1  0  0  0  0
 14  7  1  0  0  0  0
 16 18  1  1  0  0  0
 17  6  1  6  0  0  0
 17  9  1  0  0  0  0
 17  2  1  0  0  0  0
 18 19  1  0  0  0  0
 19 20  1  0  0  0  0
 20 21  1  0  0  0  0
 22 21  1  0  0  0  0
 23 22  1  0  0  0  0
 24 23  1  0  0  0  0
 25 24  1  0  0  0  0
M  END
>  <MODEL>
6

>  <REMARK>
 VINA RESULT:      -5.6      3.716      9.013
  Name = 
  7 active torsions:
  status: ('A' for Active; 'I' for Inactive)
    1  A    between atoms: C_2  and  C_7
    2  A    between atoms: C_2  and  C_25
    3  A    between atoms: C_6  and  C_15
    4  A    between atoms: C_6  and  C_21
    5  A    between atoms: C_15  and  C_20
    6  A    between atoms: C_20  and  C_23
    7  A    between atoms: C_21  and  C_25
                            x       y       z     vdW  Elec       q    Type
                         _______ _______ _______ _____ _____    ______ ____

>  <TORSDO>
F 7

$$$$
=
 OpenBabel11052422203D

 25 28  0  0  1  0  0  0  0  0999 V2000
  160.7610  212.7270  147.5050 C   0  0  2  0  0  0  0  0  0  0  0  0
  161.5590  211.8180  148.4730 C   0  0  2  0  0  3  0  0  0  0  0  0
  160.1890  214.2200  149.5620 C   0  0  0  0  0  2  0  0  0  0  0  0
  160.2370  212.1010  146.2060 C   0  0  0  0  0  2  0  0  0  0  0  0
  157.1580  214.2370  145.5240 C   0  0  0  0  0  1  0  0  0  0  0  0
  160.0870  212.8950  150.2910 C   0  0  0  0  0  2  0  0  0  0  0  0
  158.5640  213.9120  145.9780 C   0  0  2  0  0  3  0  0  0  0  0  0
  158.7660  212.4090  145.9690 C   0  0  0  0  0  2  0  0  0  0  0  0
  161.2030  210.8210  150.6840 O   0  0  0  0  0  0  0  0  0  0  0  0
  162.3320  210.0370  150.3690 C   0  0  0  0  0  2  0  0  0  0  0  0
  161.3880  210.4550  148.1620 O   0  0  0  0  0  0  0  0  0  0  0  0
  161.3620  214.1190  147.2120 C   0  0  1  0  0  3  0  0  0  0  0  0
  160.0870  213.9960  148.0530 C   0  0  1  0  0  0  0  0  0  0  0  0
  158.7780  214.4530  147.3880 C   0  0  0  0  0  2  0  0  0  0  0  0
  162.6110  214.4530  148.0290 C   0  0  0  0  0  1  0  0  0  0  0  0
  162.3900  209.7430  148.8580 C   0  0  2  0  0  3  0  0  0  0  0  0
  161.3180  212.0500  149.9960 C   0  0  1  0  0  3  0  0  0  0  0  0
  162.2150  208.2510  148.6280 C   0  0  0  0  0  2  0  0  0  0  0  0
  161.2190  207.6510  149.6130 C   0  0  0  0  0  2  0  0  0  0  0  0
  160.5360  206.4140  149.0420 C   0  0  0  0  0  2  0  0  0  0  0  0
  161.4420  205.1920  149.1170 C   0  0  0  0  0  2  0  0  0  0  0  0
  161.4470  204.4140  147.8080 C   0  0  0  0  0  2  0  0  0  0  0  0
  162.4020  205.0360  146.7960 C   0  0  0  0  0  2  0  0  0  0  0  0
  161.7770  205.1080  145.4130 C   0  0  0  0  0  2  0  0  0  0  0  0
  160.8040  206.1070  145.3810 O   0  0  0  0  0  1  0  0  0  0  0  0
  1  4  1  6  0  0  0
  1 13  1  0  0  0  0
  1  2  1  0  0  0  0
  2 11  1  6  0  0  0
  2 17  1  0  0  0  0
  3  6  1  0  0  0  0
  7  5  1  1  0  0  0
  7 14  1  0  0  0  0
  8  7  1  0  0  0  0
  8  4  1  0  0  0  0
 10  9  1  0  0  0  0
 11 16  1  0  0  0  0
 12  1  1  0  0  0  0
 12 15  1  1  0  0  0
 12 13  1  0  0  0  0
 13 14  1  6  0  0  0
 13  3  1  0  0  0  0
 16 18  1  1  0  0  0
 16 10  1  0  0  0  0
 17  6  1  6  0  0  0
 17  9  1  0  0  0  0
 18 19  1  0  0  0  0
 20 21  1  0  0  0  0
 20 19  1  0  0  0  0
 22 21  1  0  0  0  0
 23 22  1  0  0  0  0
 24 23  1  0  0  0  0
 25 24  1  0  0  0  0
M  END
>  <MODEL>
7

>  <REMARK>
 VINA RESULT:      -5.2      4.728      6.064
  Name = 
  7 active torsions:
  status: ('A' for Active; 'I' for Inactive)
    1  A    between atoms: C_2  and  C_7
    2  A    between atoms: C_2  and  C_25
    3  A    between atoms: C_6  and  C_15
    4  A    between atoms: C_6  and  C_21
    5  A    between atoms: C_15  and  C_20
    6  A    between atoms: C_20  and  C_23
    7  A    between atoms: C_21  and  C_25
                            x       y       z     vdW  Elec       q    Type
                         _______ _______ _______ _____ _____    ______ ____

>  <TORSDO>
F 7

$$$$
=
 OpenBabel11052422203D

 25 28  0  0  1  0  0  0  0  0999 V2000
  160.5780  210.7270  153.8140 C   0  0  2  0  0  0  0  0  0  0  0  0
  161.4770  209.9590  152.8120 C   0  0  2  0  0  3  0  0  0  0  0  0
  160.5840  208.5780  155.2880 C   0  0  0  0  0  2  0  0  0  0  0  0
  159.7390  211.8930  153.2750 C   0  0  0  0  0  2  0  0  0  0  0  0
  156.7880  211.8840  155.6820 C   0  0  0  0  0  1  0  0  0  0  0  0
  160.5190  207.8590  153.9540 C   0  0  0  0  0  2  0  0  0  0  0  0
  158.2240  211.7410  155.2260 C   0  0  2  0  0  3  0  0  0  0  0  0
  158.2850  211.8100  153.7120 C   0  0  0  0  0  2  0  0  0  0  0  0
  161.5040  207.7350  151.7830 O   0  0  0  0  0  0  0  0  0  0  0  0
  162.4670  208.2900  150.9160 C   0  0  0  0  0  2  0  0  0  0  0  0
  161.1240  210.2430  151.4790 O   0  0  0  0  0  0  0  0  0  0  0  0
  161.2250  211.1230  155.1590 C   0  0  1  0  0  3  0  0  0  0  0  0
  160.1490  210.0340  155.1180 C   0  0  1  0  0  0  0  0  0  0  0  0
  158.7760  210.4020  155.7040 C   0  0  0  0  0  2  0  0  0  0  0  0
  162.6420  210.5850  155.3610 C   0  0  0  0  0  1  0  0  0  0  0  0
  162.1810  209.7830  150.6640 C   0  0  2  0  0  3  0  0  0  0  0  0
  161.5820  208.4170  153.0180 C   0  0  1  0  0  3  0  0  0  0  0  0
  161.8300  209.9880  149.1990 C   0  0  0  0  0  2  0  0  0  0  0  0
  162.4060  211.2950  148.6690 C   0  0  0  0  0  2  0  0  0  0  0  0
  161.4510  212.4630  148.8880 C   0  0  0  0  0  2  0  0  0  0  0  0
  161.7580  213.6190  147.9440 C   0  0  0  0  0  2  0  0  0  0  0  0
  162.4030  213.1350  146.6520 C   0  0  0  0  0  2  0  0  0  0  0  0
  161.8490  213.8790  145.4420 C   0  0  0  0  0  2  0  0  0  0  0  0
  161.1140  212.9400  144.5010 C   0  0  0  0  0  2  0  0  0  0  0  0
  160.0760  212.3000  145.1800 O   0  0  0  0  0  1  0  0  0  0  0  0
  1  4  1  6  0  0  0
  1 13  1  0  0  0  0
  1 12  1  0  0  0  0
  2 11  1  6  0  0  0
  2 17  1  0  0  0  0
  2  1  1  0  0  0  0
  4  8  1  0  0  0  0
  6  3  1  0  0  0  0
  7  5  1  6  0  0  0
  7 14  1  0  0  0  0
  8  7  1  0  0  0  0
  9 17  1  0  0  0  0
 10  9  1  0  0  0  0
 12 15  1  6  0  0  0
 13 12  1  0  0  0  0
 13  3  1  1  0  0  0
 13 14  1  0  0  0  0
 16 18  1  6  0  0  0
 16 10  1  0  0  0  0
 16 11  1  0  0  0  0
 17  6  1  1  0  0  0
 19 20  1  0  0  0  0
 19 18  1  0  0  0  0
 21 20  1  0  0  0  0
 22 21  1  0  0  0  0
 23 22  1  0  0  0  0
 24 25  1  0  0  0  0
 24 23  1  0  0  0  0
M  END
>  <MODEL>
8

>  <REMARK>
 VINA RESULT:      -5.0      3.670      4.432
  Name = 
  7 active torsions:
  status: ('A' for Active; 'I' for Inactive)
    1  A    between atoms: C_2  and  C_7
    2  A    between atoms: C_2  and  C_25
    3  A    between atoms: C_6  and  C_15
    4  A    between atoms: C_6  and  C_21
    5  A    between atoms: C_15  and  C_20
    6  A    between atoms: C_20  and  C_23
    7  A    between atoms: C_21  and  C_25
                            x       y       z     vdW  Elec       q    Type
                         _______ _______ _______ _____ _____    ______ ____

>  <TORSDO>
F 7

$$$$
=
 OpenBabel11052422203D

 25 28  0  0  1  0  0  0  0  0999 V2000
  161.7600  206.7660  151.5440 C   0  0  2  0  0  0  0  0  0  0  0  0
  161.7450  205.7930  150.3380 C   0  0  2  0  0  3  0  0  0  0  0  0
  161.1680  204.7230  153.0500 C   0  0  0  0  0  2  0  0  0  0  0  0
  161.5060  208.2530  151.2670 C   0  0  0  0  0  2  0  0  0  0  0  0
  159.9720  209.3890  154.5630 C   0  0  0  0  0  1  0  0  0  0  0  0
  160.3030  204.3130  151.8740 C   0  0  0  0  0  2  0  0  0  0  0  0
  160.8850  208.6160  153.6350 C   0  0  2  0  0  3  0  0  0  0  0  0
  160.4580  208.8440  152.1980 C   0  0  0  0  0  2  0  0  0  0  0  0
  160.2900  204.0050  149.5060 O   0  0  0  0  0  0  0  0  0  0  0  0
  161.0440  204.1180  148.3210 C   0  0  0  0  0  2  0  0  0  0  0  0
  161.1610  206.3870  149.2020 O   0  0  0  0  0  0  0  0  0  0  0  0
  162.9270  206.6080  152.5430 C   0  0  1  0  0  3  0  0  0  0  0  0
  161.5060  206.2110  152.9560 C   0  0  1  0  0  0  0  0  0  0  0  0
  160.8020  207.1300  153.9680 C   0  0  0  0  0  2  0  0  0  0  0  0
  163.8440  205.4180  152.2610 C   0  0  0  0  0  1  0  0  0  0  0  0
  161.4920  205.5760  148.0950 C   0  0  2  0  0  3  0  0  0  0  0  0
  161.1140  204.3900  150.5880 C   0  0  1  0  0  3  0  0  0  0  0  0
  160.8240  206.1180  146.8410 C   0  0  0  0  0  2  0  0  0  0  0  0
  161.6860  205.8800  145.6070 C   0  0  0  0  0  2  0  0  0  0  0  0
  161.0280  204.9050  144.6390 C   0  0  0  0  0  2  0  0  0  0  0  0
  161.2630  203.4590  145.0570 C   0  0  0  0  0  2  0  0  0  0  0  0
  160.0000  202.6190  144.9140 C   0  0  0  0  0  2  0  0  0  0  0  0
  160.2630  201.1580  145.2610 C   0  0  0  0  0  2  0  0  0  0  0  0
  160.8330  201.0140  146.6620 C   0  0  0  0  0  2  0  0  0  0  0  0
  161.5590  199.8260  146.7600 O   0  0  0  0  0  1  0  0  0  0  0  0
  1  4  1  6  0  0  0
  1 12  1  0  0  0  0
  1 13  1  0  0  0  0
  2 11  1  6  0  0  0
  2 17  1  0  0  0  0
  2  1  1  0  0  0  0
  4  8  1  0  0  0  0
  6  3  1  0  0  0  0
  7 14  1  0  0  0  0
  7  5  1  1  0  0  0
  8  7  1  0  0  0  0
  9 17  1  0  0  0  0
 10  9  1  0  0  0  0
 12 15  1  6  0  0  0
 12 13  1  0  0  0  0
 13  3  1  1  0  0  0
 13 14  1  0  0  0  0
 16 18  1  6  0  0  0
 16 10  1  0  0  0  0
 16 11  1  0  0  0  0
 17  6  1  1  0  0  0
 19 18  1  0  0  0  0
 20 21  1  0  0  0  0
 20 19  1  0  0  0  0
 22 21  1  0  0  0  0
 22 23  1  0  0  0  0
 23 24  1  0  0  0  0
 24 25  1  0  0  0  0
M  END
>  <MODEL>
9

>  <REMARK>
 VINA RESULT:      -5.0      2.463      4.795
  Name = 
  7 active torsions:
  status: ('A' for Active; 'I' for Inactive)
    1  A    between atoms: C_2  and  C_7
    2  A    between atoms: C_2  and  C_25
    3  A    between atoms: C_6  and  C_15
    4  A    between atoms: C_6  and  C_21
    5  A    between atoms: C_15  and  C_20
    6  A    between atoms: C_20  and  C_23
    7  A    between atoms: C_21  and  C_25
                            x       y       z     vdW  Elec       q    Type
                         _______ _______ _______ _____ _____    ______ ____

>  <TORSDO>
F 7

$$$$
