=
 OpenBabel11052422503D

 28 31  0  0  1  0  0  0  0  0999 V2000
  161.6620  206.1960  148.5600 C   0  0  1  0  0  3  0  0  0  0  0  0
  161.4530  205.8730  145.0880 C   0  0  0  0  0  2  0  0  0  0  0  0
  161.5970  206.0600  147.1080 N   0  0  0  0  0  0  0  0  0  0  0  0
  162.4500  205.4460  146.0710 C   0  0  0  0  0  0  0  0  0  0  0  0
  160.6820  206.4350  146.1040 N   0  0  0  0  0  2  0  0  0  0  0  0
  163.5460  204.8300  146.0450 O   0  0  0  0  0  0  0  0  0  0  0  0
  161.9240  207.6420  148.9800 C   0  0  2  0  0  3  0  0  0  0  0  0
  162.7630  208.2830  148.0650 O   0  0  0  0  0  1  0  0  0  0  0  0
  162.5290  207.7070  150.3730 C   0  0  0  0  0  2  0  0  0  0  0  0
  161.9330  208.8350  151.1510 C   0  0  0  0  0  0  0  0  0  0  0  0
  160.8400  210.0060  152.6270 N   0  0  0  0  0  0  0  0  0  0  0  0
  161.9390  210.1230  150.7530 N   0  0  0  0  0  0  0  0  0  0  0  0
  160.9300  207.5370  153.1380 C   0  0  0  0  0  1  0  0  0  0  0  0
  161.2300  208.7550  152.3330 C   0  0  0  0  0  0  0  0  0  0  0  0
  160.0680  210.4390  153.7790 C   0  0  0  0  0  1  0  0  0  0  0  0
  161.2720  210.8120  151.6700 N   0  0  0  0  0  0  0  0  0  0  0  0
  160.3870  205.6840  149.2120 C   0  0  0  0  0  2  0  0  0  0  0  0
  160.8460  203.0780  147.9120 C   0  0  0  0  0  2  0  0  0  0  0  0
  161.1240  202.0730  150.2300 C   0  0  0  0  0  0  0  0  0  0  0  0
  160.6810  204.4610  150.0230 C   0  0  0  0  0  0  0  0  0  0  0  0
  161.5620  200.7100  148.1590 C   0  0  1  0  0  3  0  0  0  0  0  0
  160.8500  203.1990  149.4180 C   0  0  0  0  0  0  0  0  0  0  0  0
  161.0070  203.4650  152.2100 C   0  0  0  0  0  3  0  0  0  0  0  0
  161.2390  200.6900  149.6490 C   0  0  0  0  0  2  0  0  0  0  0  0
  161.1860  202.2140  151.6180 C   0  0  0  0  0  3  0  0  0  0  0  0
  161.4330  199.4350  147.6440 F   0  0  0  0  0  0  0  0  0  0  0  0
  160.6020  201.6470  147.4430 C   0  0  0  0  0  2  0  0  0  0  0  0
  160.7550  204.5830  151.4150 C   0  0  0  0  0  3  0  0  0  0  0  0
  1  7  1  0  0  0  0
  1 17  1  1  0  0  0
  2  4  1  0  0  0  0
  2  5  1  0  0  0  0
  3  1  1  0  0  0  0
  4  3  1  0  0  0  0
  5  3  1  0  0  0  0
  6  4  2  0  0  0  0
  7  8  1  6  0  0  0
  7  9  1  0  0  0  0
  9 10  1  0  0  0  0
 10 14  2  0  0  0  0
 11 15  1  0  0  0  0
 12 10  1  0  0  0  0
 12 16  2  0  0  0  0
 14 11  1  0  0  0  0
 14 13  1  0  0  0  0
 16 11  1  0  0  0  0
 17 20  1  0  0  0  0
 18 22  1  0  0  0  0
 19 25  1  0  0  0  0
 20 28  2  0  0  0  0
 21 26  1  6  0  0  0
 21 24  1  0  0  0  0
 22 20  1  0  0  0  0
 22 19  2  0  0  0  0
 24 19  1  0  0  0  0
 25 23  2  0  0  0  0
 27 18  1  0  0  0  0
 27 21  1  0  0  0  0
 28 23  1  0  0  0  0
M  END
>  <MODEL>
1

>  <REMARK>
 VINA RESULT:      -9.6      0.000      0.000
  Name = 
  6 active torsions:
  status: ('A' for Active; 'I' for Inactive)
    1  A    between atoms: C_1  and  C_2
    2  A    between atoms: C_1  and  C_27
    3  A    between atoms: C_2  and  C_3
    4  A    between atoms: C_10  and  C_17
    5  A    between atoms: N_16  and  C_27
    6  A    between atoms: C_17  and  C_27
                            x       y       z     vdW  Elec       q    Type
                         _______ _______ _______ _____ _____    ______ ____

>  <TORSDO>
F 6

$$$$
=
 OpenBabel11052422503D

 28 31  0  0  1  0  0  0  0  0999 V2000
  161.9910  207.3990  150.2220 C   0  0  1  0  0  3  0  0  0  0  0  0
  162.1800  210.7270  149.1740 C   0  0  0  0  0  2  0  0  0  0  0  0
  162.0650  208.7960  149.8050 N   0  0  0  0  0  0  0  0  0  0  0  0
  162.4010  210.0740  150.4650 C   0  0  0  0  0  0  0  0  0  0  0  0
  161.8740  209.4950  148.5970 N   0  0  0  0  0  2  0  0  0  0  0  0
  162.7310  210.4380  151.6230 O   0  0  0  0  0  0  0  0  0  0  0  0
  162.1480  207.2540  151.7350 C   0  0  2  0  0  3  0  0  0  0  0  0
  162.7980  206.0610  152.0570 O   0  0  0  0  0  1  0  0  0  0  0  0
  160.8000  207.3160  152.4340 C   0  0  0  0  0  2  0  0  0  0  0  0
  160.9220  208.0150  153.7490 C   0  0  0  0  0  0  0  0  0  0  0  0
  160.8970  209.5160  155.3270 N   0  0  0  0  0  0  0  0  0  0  0  0
  161.5120  207.4870  154.8420 N   0  0  0  0  0  0  0  0  0  0  0  0
  159.8780  210.2930  153.1530 C   0  0  0  0  0  1  0  0  0  0  0  0
  160.5400  209.3030  154.0500 C   0  0  0  0  0  0  0  0  0  0  0  0
  160.7050  210.7290  156.1030 C   0  0  0  0  0  1  0  0  0  0  0  0
  161.4780  208.4190  155.7850 N   0  0  0  0  0  0  0  0  0  0  0  0
  160.6870  206.7640  149.7670 C   0  0  0  0  0  2  0  0  0  0  0  0
  160.5790  203.9260  150.5610 C   0  0  0  0  0  2  0  0  0  0  0  0
  161.2360  203.3280  148.1800 C   0  0  0  0  0  0  0  0  0  0  0  0
  160.9630  205.6770  148.7760 C   0  0  0  0  0  0  0  0  0  0  0  0
  160.6060  201.5460  149.8420 C   0  0  1  0  0  3  0  0  0  0  0  0
  160.9660  204.3180  149.1550 C   0  0  0  0  0  0  0  0  0  0  0  0
  161.5360  205.0530  146.5040 C   0  0  0  0  0  3  0  0  0  0  0  0
  161.3280  201.8710  148.5390 C   0  0  0  0  0  2  0  0  0  0  0  0
  161.5310  203.7060  146.8680 C   0  0  0  0  0  3  0  0  0  0  0  0
  160.9130  200.2560  150.2290 F   0  0  0  0  0  0  0  0  0  0  0  0
  161.0460  202.5210  150.9240 C   0  0  0  0  0  2  0  0  0  0  0  0
  161.2530  206.0340  147.4550 C   0  0  0  0  0  3  0  0  0  0  0  0
  1 17  1  1  0  0  0
  1  7  1  0  0  0  0
  2  4  1  0  0  0  0
  3  1  1  0  0  0  0
  3  4  1  0  0  0  0
  4  6  2  0  0  0  0
  5  2  1  0  0  0  0
  5  3  1  0  0  0  0
  7  8  1  6  0  0  0
  7  9  1  0  0  0  0
  9 10  1  0  0  0  0
 10 14  2  0  0  0  0
 10 12  1  0  0  0  0
 11 16  1  0  0  0  0
 11 15  1  0  0  0  0
 12 16  2  0  0  0  0
 13 14  1  0  0  0  0
 14 11  1  0  0  0  0
 18 27  1  0  0  0  0
 19 24  1  0  0  0  0
 19 22  1  0  0  0  0
 20 22  2  0  0  0  0
 20 17  1  0  0  0  0
 21 26  1  1  0  0  0
 21 27  1  0  0  0  0
 22 18  1  0  0  0  0
 23 25  1  0  0  0  0
 23 28  2  0  0  0  0
 24 21  1  0  0  0  0
 25 19  2  0  0  0  0
 28 20  1  0  0  0  0
M  END
>  <MODEL>
2

>  <REMARK>
 VINA RESULT:      -9.5      2.212      3.890
  Name = 
  6 active torsions:
  status: ('A' for Active; 'I' for Inactive)
    1  A    between atoms: C_1  and  C_2
    2  A    between atoms: C_1  and  C_27
    3  A    between atoms: C_2  and  C_3
    4  A    between atoms: C_10  and  C_17
    5  A    between atoms: N_16  and  C_27
    6  A    between atoms: C_17  and  C_27
                            x       y       z     vdW  Elec       q    Type
                         _______ _______ _______ _____ _____    ______ ____

>  <TORSDO>
F 6

$$$$
=
 OpenBabel11052422503D

 28 31  0  0  1  0  0  0  0  0999 V2000
  161.9420  207.2260  150.3910 C   0  0  1  0  0  3  0  0  0  0  0  0
  162.1490  210.5060  149.2050 C   0  0  0  0  0  2  0  0  0  0  0  0
  162.0240  208.6040  149.9160 N   0  0  0  0  0  0  0  0  0  0  0  0
  162.3860  209.9030  150.5180 C   0  0  0  0  0  0  0  0  0  0  0  0
  161.8190  209.2550  148.6840 N   0  0  0  0  0  2  0  0  0  0  0  0
  162.7410  210.3100  151.6540 O   0  0  0  0  0  0  0  0  0  0  0  0
  162.1270  207.1400  151.9060 C   0  0  2  0  0  3  0  0  0  0  0  0
  162.7780  205.9580  152.2640 O   0  0  0  0  0  1  0  0  0  0  0  0
  160.7920  207.2370  152.6270 C   0  0  0  0  0  2  0  0  0  0  0  0
  160.9350  208.0180  153.8930 C   0  0  0  0  0  0  0  0  0  0  0  0
  160.9310  209.6170  155.3720 N   0  0  0  0  0  0  0  0  0  0  0  0
  161.5450  207.5620  155.0060 N   0  0  0  0  0  0  0  0  0  0  0  0
  159.8720  210.2510  153.1710 C   0  0  0  0  0  1  0  0  0  0  0  0
  160.5530  209.3220  154.1170 C   0  0  0  0  0  0  0  0  0  0  0  0
  160.7480  210.8760  156.0720 C   0  0  0  0  0  1  0  0  0  0  0  0
  161.5240  208.5530  155.8880 N   0  0  0  0  0  0  0  0  0  0  0  0
  160.6230  206.5880  149.9870 C   0  0  0  0  0  2  0  0  0  0  0  0
  161.0160  206.4330  147.0690 C   0  0  0  0  0  2  0  0  0  0  0  0
  161.2410  203.9150  147.3250 C   0  0  0  0  0  0  0  0  0  0  0  0
  160.8710  205.2750  149.3140 C   0  0  0  0  0  0  0  0  0  0  0  0
  161.6580  205.0400  145.1130 C   0  0  1  0  0  3  0  0  0  0  0  0
  161.0090  205.1800  147.9130 C   0  0  0  0  0  0  0  0  0  0  0  0
  161.1470  202.8750  149.5120 C   0  0  0  0  0  3  0  0  0  0  0  0
  161.3200  203.7400  145.8330 C   0  0  0  0  0  2  0  0  0  0  0  0
  161.2940  202.7730  148.1280 C   0  0  0  0  0  3  0  0  0  0  0  0
  161.4970  204.8670  143.7520 F   0  0  0  0  0  0  0  0  0  0  0  0
  160.7340  206.1460  145.5980 C   0  0  0  0  0  2  0  0  0  0  0  0
  160.9360  204.1210  150.1010 C   0  0  0  0  0  3  0  0  0  0  0  0
  1 17  1  1  0  0  0
  1  7  1  0  0  0  0
  2  4  1  0  0  0  0
  3  1  1  0  0  0  0
  3  4  1  0  0  0  0
  4  6  2  0  0  0  0
  5  2  1  0  0  0  0
  5  3  1  0  0  0  0
  7  8  1  6  0  0  0
  7  9  1  0  0  0  0
  9 10  1  0  0  0  0
 10 14  2  0  0  0  0
 10 12  1  0  0  0  0
 11 16  1  0  0  0  0
 11 15  1  0  0  0  0
 12 16  2  0  0  0  0
 13 14  1  0  0  0  0
 14 11  1  0  0  0  0
 18 22  1  0  0  0  0
 19 22  2  0  0  0  0
 19 25  1  0  0  0  0
 20 17  1  0  0  0  0
 20 28  2  0  0  0  0
 21 26  1  6  0  0  0
 21 27  1  0  0  0  0
 21 24  1  0  0  0  0
 22 20  1  0  0  0  0
 23 28  1  0  0  0  0
 24 19  1  0  0  0  0
 25 23  2  0  0  0  0
 27 18  1  0  0  0  0
M  END
>  <MODEL>
3

>  <REMARK>
 VINA RESULT:      -9.1      2.589      4.114
  Name = 
  6 active torsions:
  status: ('A' for Active; 'I' for Inactive)
    1  A    between atoms: C_1  and  C_2
    2  A    between atoms: C_1  and  C_27
    3  A    between atoms: C_2  and  C_3
    4  A    between atoms: C_10  and  C_17
    5  A    between atoms: N_16  and  C_27
    6  A    between atoms: C_17  and  C_27
                            x       y       z     vdW  Elec       q    Type
                         _______ _______ _______ _____ _____    ______ ____

>  <TORSDO>
F 6

$$$$
=
 OpenBabel11052422503D

 28 31  0  0  1  0  0  0  0  0999 V2000
  161.9590  207.1020  151.0560 C   0  0  1  0  0  3  0  0  0  0  0  0
  162.3360  210.4450  150.1100 C   0  0  0  0  0  2  0  0  0  0  0  0
  162.1220  208.4920  150.6400 N   0  0  0  0  0  0  0  0  0  0  0  0
  161.9670  209.2350  149.3730 C   0  0  0  0  0  0  0  0  0  0  0  0
  162.4670  209.6990  151.2800 N   0  0  0  0  0  2  0  0  0  0  0  0
  161.6540  208.9530  148.1880 O   0  0  0  0  0  0  0  0  0  0  0  0
  162.1020  206.9470  152.5690 C   0  0  2  0  0  3  0  0  0  0  0  0
  162.6050  205.6860  152.8970 O   0  0  0  0  0  1  0  0  0  0  0  0
  160.7730  207.1750  153.2710 C   0  0  0  0  0  2  0  0  0  0  0  0
  160.9220  208.1870  154.3610 C   0  0  0  0  0  0  0  0  0  0  0  0
  160.9370  210.0440  155.4970 N   0  0  0  0  0  0  0  0  0  0  0  0
  161.5160  207.9480  155.5480 N   0  0  0  0  0  0  0  0  0  0  0  0
  159.9050  210.2520  153.2050 C   0  0  0  0  0  1  0  0  0  0  0  0
  160.5620  209.5160  154.3220 C   0  0  0  0  0  0  0  0  0  0  0  0
  160.7740  211.4200  155.9360 C   0  0  0  0  0  1  0  0  0  0  0  0
  161.5070  209.0930  156.2180 N   0  0  0  0  0  0  0  0  0  0  0  0
  160.6200  206.5500  150.5960 C   0  0  0  0  0  2  0  0  0  0  0  0
  161.2980  206.0170  147.7770 C   0  0  0  0  0  2  0  0  0  0  0  0
  161.2040  203.5350  148.3180 C   0  0  0  0  0  0  0  0  0  0  0  0
  160.7860  205.1490  150.0970 C   0  0  0  0  0  0  0  0  0  0  0  0
  161.9790  204.3480  146.0650 C   0  0  1  0  0  3  0  0  0  0  0  0
  161.0580  204.8780  148.7400 C   0  0  0  0  0  0  0  0  0  0  0  0
  160.7610  202.7720  150.5750 C   0  0  0  0  0  3  0  0  0  0  0  0
  161.4200  203.1810  146.8720 C   0  0  0  0  0  2  0  0  0  0  0  0
  161.0410  202.4950  149.2360 C   0  0  0  0  0  3  0  0  0  0  0  0
  161.9430  204.0350  144.7200 F   0  0  0  0  0  0  0  0  0  0  0  0
  161.1420  205.5910  146.3210 C   0  0  0  0  0  2  0  0  0  0  0  0
  160.6340  204.0930  151.0020 C   0  0  0  0  0  3  0  0  0  0  0  0
  1 17  1  1  0  0  0
  1  7  1  0  0  0  0
  2  5  1  0  0  0  0
  3  1  1  0  0  0  0
  3  5  1  0  0  0  0
  4  2  1  0  0  0  0
  4  3  1  0  0  0  0
  6  4  2  0  0  0  0
  7  8  1  6  0  0  0
  7  9  1  0  0  0  0
  9 10  1  0  0  0  0
 10 12  1  0  0  0  0
 11 15  1  0  0  0  0
 11 16  1  0  0  0  0
 12 16  2  0  0  0  0
 13 14  1  0  0  0  0
 14 10  2  0  0  0  0
 14 11  1  0  0  0  0
 18 22  1  0  0  0  0
 19 22  2  0  0  0  0
 19 25  1  0  0  0  0
 20 17  1  0  0  0  0
 20 28  2  0  0  0  0
 21 26  1  6  0  0  0
 21 27  1  0  0  0  0
 21 24  1  0  0  0  0
 22 20  1  0  0  0  0
 23 28  1  0  0  0  0
 24 19  1  0  0  0  0
 25 23  2  0  0  0  0
 27 18  1  0  0  0  0
M  END
>  <MODEL>
4

>  <REMARK>
 VINA RESULT:      -8.6      2.271      3.872
  Name = 
  6 active torsions:
  status: ('A' for Active; 'I' for Inactive)
    1  A    between atoms: C_1  and  C_2
    2  A    between atoms: C_1  and  C_27
    3  A    between atoms: C_2  and  C_3
    4  A    between atoms: C_10  and  C_17
    5  A    between atoms: N_16  and  C_27
    6  A    between atoms: C_17  and  C_27
                            x       y       z     vdW  Elec       q    Type
                         _______ _______ _______ _____ _____    ______ ____

>  <TORSDO>
F 6

$$$$
=
 OpenBabel11052422503D

 28 31  0  0  1  0  0  0  0  0999 V2000
  160.6650  207.9820  153.3040 C   0  0  1  0  0  3  0  0  0  0  0  0
  160.2790  207.4330  156.7320 C   0  0  0  0  0  2  0  0  0  0  0  0
  160.5260  207.7560  154.7390 N   0  0  0  0  0  0  0  0  0  0  0  0
  161.2550  208.1910  155.9470 C   0  0  0  0  0  0  0  0  0  0  0  0
  159.6240  207.0520  155.5620 N   0  0  0  0  0  2  0  0  0  0  0  0
  162.2650  208.8990  156.1920 O   0  0  0  0  0  0  0  0  0  0  0  0
  160.8350  209.4660  152.9810 C   0  0  2  0  0  3  0  0  0  0  0  0
  162.1760  209.8450  153.0660 O   0  0  0  0  0  1  0  0  0  0  0  0
  159.9920  210.3280  153.9080 C   0  0  0  0  0  2  0  0  0  0  0  0
  159.4610  211.5190  153.1790 C   0  0  0  0  0  0  0  0  0  0  0  0
  158.1810  213.1280  152.4610 N   0  0  0  0  0  0  0  0  0  0  0  0
  160.0770  212.1130  152.1360 N   0  0  0  0  0  0  0  0  0  0  0  0
  157.2130  211.8320  154.3970 C   0  0  0  0  0  1  0  0  0  0  0  0
  158.2550  212.1530  153.3810 C   0  0  0  0  0  0  0  0  0  0  0  0
  157.0960  214.0750  152.2680 C   0  0  0  0  0  1  0  0  0  0  0  0
  159.2790  213.0890  151.7240 N   0  0  0  0  0  0  0  0  0  0  0  0
  161.8290  207.1860  152.7370 C   0  0  0  0  0  2  0  0  0  0  0  0
  161.2610  204.3530  152.1510 C   0  0  0  0  0  2  0  0  0  0  0  0
  161.0020  205.0040  149.7080 C   0  0  0  0  0  0  0  0  0  0  0  0
  161.5160  206.7370  151.3450 C   0  0  0  0  0  0  0  0  0  0  0  0
  160.4760  202.6720  150.4960 C   0  0  1  0  0  3  0  0  0  0  0  0
  161.2930  205.3770  151.0420 C   0  0  0  0  0  0  0  0  0  0  0  0
  161.2060  207.3160  149.0110 C   0  0  0  0  0  3  0  0  0  0  0  0
  160.8310  203.5630  149.3110 C   0  0  0  0  0  2  0  0  0  0  0  0
  160.9750  205.9740  148.7040 C   0  0  0  0  0  3  0  0  0  0  0  0
  160.5530  201.3470  150.1130 F   0  0  0  0  0  0  0  0  0  0  0  0
  161.4490  202.9300  151.6360 C   0  0  0  0  0  2  0  0  0  0  0  0
  161.4760  207.6940  150.3260 C   0  0  0  0  0  3  0  0  0  0  0  0
  1 17  1  1  0  0  0
  1  3  1  0  0  0  0
  3  5  1  0  0  0  0
  3  4  1  0  0  0  0
  4  6  2  0  0  0  0
  4  2  1  0  0  0  0
  5  2  1  0  0  0  0
  7  8  1  1  0  0  0
  7  1  1  0  0  0  0
  7  9  1  0  0  0  0
 10 14  2  0  0  0  0
 10  9  1  0  0  0  0
 11 14  1  0  0  0  0
 12 10  1  0  0  0  0
 14 13  1  0  0  0  0
 15 11  1  0  0  0  0
 16 12  2  0  0  0  0
 16 11  1  0  0  0  0
 19 22  1  0  0  0  0
 20 17  1  0  0  0  0
 21 26  1  6  0  0  0
 21 27  1  0  0  0  0
 22 20  2  0  0  0  0
 22 18  1  0  0  0  0
 23 28  2  0  0  0  0
 24 19  1  0  0  0  0
 24 21  1  0  0  0  0
 25 23  1  0  0  0  0
 25 19  2  0  0  0  0
 27 18  1  0  0  0  0
 28 20  1  0  0  0  0
M  END
>  <MODEL>
5

>  <REMARK>
 VINA RESULT:      -8.1      3.388      5.741
  Name = 
  6 active torsions:
  status: ('A' for Active; 'I' for Inactive)
    1  A    between atoms: C_1  and  C_2
    2  A    between atoms: C_1  and  C_27
    3  A    between atoms: C_2  and  C_3
    4  A    between atoms: C_10  and  C_17
    5  A    between atoms: N_16  and  C_27
    6  A    between atoms: C_17  and  C_27
                            x       y       z     vdW  Elec       q    Type
                         _______ _______ _______ _____ _____    ______ ____

>  <TORSDO>
F 6

$$$$
=
 OpenBabel11052422503D

 28 31  0  0  1  0  0  0  0  0999 V2000
  160.7010  208.0870  153.5680 C   0  0  1  0  0  3  0  0  0  0  0  0
  160.2570  207.3420  156.9530 C   0  0  0  0  0  2  0  0  0  0  0  0
  160.5380  207.7770  154.9850 N   0  0  0  0  0  0  0  0  0  0  0  0
  161.2820  208.0880  156.2220 C   0  0  0  0  0  0  0  0  0  0  0  0
  159.5890  207.0770  155.7580 N   0  0  0  0  0  2  0  0  0  0  0  0
  162.3310  208.7170  156.5160 O   0  0  0  0  0  0  0  0  0  0  0  0
  160.7410  209.5950  153.3230 C   0  0  2  0  0  3  0  0  0  0  0  0
  162.0240  210.1020  153.5380 O   0  0  0  0  0  1  0  0  0  0  0  0
  159.7390  210.3210  154.2070 C   0  0  0  0  0  2  0  0  0  0  0  0
  159.1520  211.4890  153.4840 C   0  0  0  0  0  0  0  0  0  0  0  0
  157.8320  213.0970  152.8400 N   0  0  0  0  0  0  0  0  0  0  0  0
  159.6520  212.0130  152.3470 N   0  0  0  0  0  0  0  0  0  0  0  0
  157.0730  211.9260  154.9420 C   0  0  0  0  0  1  0  0  0  0  0  0
  157.9930  212.1660  153.7950 C   0  0  0  0  0  0  0  0  0  0  0  0
  156.7530  214.0630  152.7280 C   0  0  0  0  0  1  0  0  0  0  0  0
  158.8330  212.9900  151.9810 N   0  0  0  0  0  0  0  0  0  0  0  0
  161.9530  207.4310  153.0080 C   0  0  0  0  0  2  0  0  0  0  0  0
  162.0490  207.6220  150.0670 C   0  0  0  0  0  2  0  0  0  0  0  0
  161.2110  205.2250  149.9750 C   0  0  0  0  0  0  0  0  0  0  0  0
  161.5810  206.2640  152.1490 C   0  0  0  0  0  0  0  0  0  0  0  0
  161.9140  206.4390  147.8850 C   0  0  1  0  0  3  0  0  0  0  0  0
  161.5720  206.3580  150.7420 C   0  0  0  0  0  0  0  0  0  0  0  0
  160.8330  203.9610  152.0080 C   0  0  0  0  0  3  0  0  0  0  0  0
  161.1090  205.2860  148.4750 C   0  0  0  0  0  2  0  0  0  0  0  0
  160.8310  204.0430  150.6150 C   0  0  0  0  0  3  0  0  0  0  0  0
  161.6050  206.5780  146.5460 F   0  0  0  0  0  0  0  0  0  0  0  0
  161.5760  207.7260  148.6220 C   0  0  0  0  0  2  0  0  0  0  0  0
  161.2060  205.0680  152.7710 C   0  0  0  0  0  3  0  0  0  0  0  0
  1 17  1  1  0  0  0
  1  3  1  0  0  0  0
  3  5  1  0  0  0  0
  3  4  1  0  0  0  0
  4  6  2  0  0  0  0
  4  2  1  0  0  0  0
  5  2  1  0  0  0  0
  7  8  1  1  0  0  0
  7  1  1  0  0  0  0
  7  9  1  0  0  0  0
 10 14  2  0  0  0  0
 10  9  1  0  0  0  0
 11 14  1  0  0  0  0
 12 10  1  0  0  0  0
 14 13  1  0  0  0  0
 15 11  1  0  0  0  0
 16 12  2  0  0  0  0
 16 11  1  0  0  0  0
 18 22  1  0  0  0  0
 19 25  2  0  0  0  0
 19 22  1  0  0  0  0
 20 28  1  0  0  0  0
 20 17  1  0  0  0  0
 21 26  1  6  0  0  0
 21 24  1  0  0  0  0
 21 27  1  0  0  0  0
 22 20  2  0  0  0  0
 23 28  2  0  0  0  0
 24 19  1  0  0  0  0
 25 23  1  0  0  0  0
 27 18  1  0  0  0  0
M  END
>  <MODEL>
6

>  <REMARK>
 VINA RESULT:      -8.0      3.840      6.092
  Name = 
  6 active torsions:
  status: ('A' for Active; 'I' for Inactive)
    1  A    between atoms: C_1  and  C_2
    2  A    between atoms: C_1  and  C_27
    3  A    between atoms: C_2  and  C_3
    4  A    between atoms: C_10  and  C_17
    5  A    between atoms: N_16  and  C_27
    6  A    between atoms: C_17  and  C_27
                            x       y       z     vdW  Elec       q    Type
                         _______ _______ _______ _____ _____    ______ ____

>  <TORSDO>
F 6

$$$$
=
 OpenBabel11052422503D

 28 31  0  0  1  0  0  0  0  0999 V2000
  161.1910  208.7870  151.7080 C   0  0  1  0  0  3  0  0  0  0  0  0
  160.1790  209.4400  154.9880 C   0  0  0  0  0  2  0  0  0  0  0  0
  160.7670  209.0370  153.0820 N   0  0  0  0  0  0  0  0  0  0  0  0
  160.8520  208.3010  154.3590 C   0  0  0  0  0  0  0  0  0  0  0  0
  160.1260  210.0940  153.7580 N   0  0  0  0  0  2  0  0  0  0  0  0
  161.3040  207.1900  154.7380 O   0  0  0  0  0  0  0  0  0  0  0  0
  162.0210  209.9450  151.1550 C   0  0  2  0  0  3  0  0  0  0  0  0
  163.0200  210.3190  152.0570 O   0  0  0  0  0  1  0  0  0  0  0  0
  161.1420  211.1410  150.8270 C   0  0  0  0  0  2  0  0  0  0  0  0
  161.5600  211.7600  149.5330 C   0  0  0  0  0  0  0  0  0  0  0  0
  161.7520  213.0930  147.8220 N   0  0  0  0  0  0  0  0  0  0  0  0
  162.3350  211.1520  148.6110 N   0  0  0  0  0  0  0  0  0  0  0  0
  160.3010  214.0030  149.6740 C   0  0  0  0  0  1  0  0  0  0  0  0
  161.1820  212.9860  149.0320 C   0  0  0  0  0  0  0  0  0  0  0  0
  161.6510  214.2090  146.8970 C   0  0  0  0  0  1  0  0  0  0  0  0
  162.4380  211.9870  147.5850 N   0  0  0  0  0  0  0  0  0  0  0  0
  161.9740  207.4870  151.6090 C   0  0  0  0  0  2  0  0  0  0  0  0
  161.3880  204.5980  151.6730 C   0  0  0  0  0  2  0  0  0  0  0  0
  161.0040  204.7120  149.1630 C   0  0  0  0  0  0  0  0  0  0  0  0
  161.5920  206.7520  150.3630 C   0  0  0  0  0  0  0  0  0  0  0  0
  160.5290  202.6060  150.4580 C   0  0  1  0  0  3  0  0  0  0  0  0
  161.3600  205.3600  150.3700 C   0  0  0  0  0  0  0  0  0  0  0  0
  161.1630  206.8190  147.9770 C   0  0  0  0  0  3  0  0  0  0  0  0
  160.8200  203.2210  149.0930 C   0  0  0  0  0  2  0  0  0  0  0  0
  160.9230  205.4440  147.9770 C   0  0  0  0  0  3  0  0  0  0  0  0
  160.5920  201.2300  150.3650 F   0  0  0  0  0  0  0  0  0  0  0  0
  161.5560  203.0960  151.4660 C   0  0  0  0  0  2  0  0  0  0  0  0
  161.4970  207.4690  149.1650 C   0  0  0  0  0  3  0  0  0  0  0  0
  1 17  1  1  0  0  0
  1  3  1  0  0  0  0
  3  5  1  0  0  0  0
  3  4  1  0  0  0  0
  4  6  2  0  0  0  0
  4  2  1  0  0  0  0
  5  2  1  0  0  0  0
  7  1  1  0  0  0  0
  7  8  1  1  0  0  0
  9  7  1  0  0  0  0
 10  9  1  0  0  0  0
 11 14  1  0  0  0  0
 12 10  1  0  0  0  0
 14 10  2  0  0  0  0
 14 13  1  0  0  0  0
 15 11  1  0  0  0  0
 16 11  1  0  0  0  0
 16 12  2  0  0  0  0
 19 22  1  0  0  0  0
 20 22  2  0  0  0  0
 20 17  1  0  0  0  0
 21 26  1  6  0  0  0
 21 27  1  0  0  0  0
 22 18  1  0  0  0  0
 23 28  2  0  0  0  0
 24 19  1  0  0  0  0
 24 21  1  0  0  0  0
 25 23  1  0  0  0  0
 25 19  2  0  0  0  0
 27 18  1  0  0  0  0
 28 20  1  0  0  0  0
M  END
>  <MODEL>
7

>  <REMARK>
 VINA RESULT:      -7.8      3.004      5.465
  Name = 
  6 active torsions:
  status: ('A' for Active; 'I' for Inactive)
    1  A    between atoms: C_1  and  C_2
    2  A    between atoms: C_1  and  C_27
    3  A    between atoms: C_2  and  C_3
    4  A    between atoms: C_10  and  C_17
    5  A    between atoms: N_16  and  C_27
    6  A    between atoms: C_17  and  C_27
                            x       y       z     vdW  Elec       q    Type
                         _______ _______ _______ _____ _____    ______ ____

>  <TORSDO>
F 6

$$$$
=
 OpenBabel11052422503D

 28 31  0  0  1  0  0  0  0  0999 V2000
  161.4690  208.2510  149.6790 C   0  0  1  0  0  3  0  0  0  0  0  0
  162.3580  211.5070  148.7750 C   0  0  0  0  0  2  0  0  0  0  0  0
  161.8240  209.6190  149.3140 N   0  0  0  0  0  0  0  0  0  0  0  0
  161.6850  210.9450  149.9480 C   0  0  0  0  0  0  0  0  0  0  0  0
  162.4660  210.2320  148.2200 N   0  0  0  0  0  2  0  0  0  0  0  0
  161.2050  211.3920  151.0210 O   0  0  0  0  0  0  0  0  0  0  0  0
  161.2020  207.3900  148.4450 C   0  0  2  0  0  3  0  0  0  0  0  0
  160.0820  206.5770  148.6360 O   0  0  0  0  0  1  0  0  0  0  0  0
  162.4120  206.5350  148.1010 C   0  0  0  0  0  2  0  0  0  0  0  0
  162.0690  205.5450  147.0350 C   0  0  0  0  0  0  0  0  0  0  0  0
  161.4820  203.7330  145.9790 N   0  0  0  0  0  0  0  0  0  0  0  0
  162.2620  205.7470  145.7160 N   0  0  0  0  0  0  0  0  0  0  0  0
  161.2470  203.5820  148.4870 C   0  0  0  0  0  1  0  0  0  0  0  0
  161.5830  204.2680  147.2070 C   0  0  0  0  0  0  0  0  0  0  0  0
  161.0160  202.4010  145.6360 C   0  0  0  0  0  1  0  0  0  0  0  0
  161.8930  204.6320  145.0990 N   0  0  0  0  0  0  0  0  0  0  0  0
  162.5550  207.6170  150.5350 C   0  0  0  0  0  2  0  0  0  0  0  0
  161.4960  208.8650  152.9880 C   0  0  0  0  0  2  0  0  0  0  0  0
  160.9010  206.5350  153.8080 C   0  0  0  0  0  0  0  0  0  0  0  0
  161.9370  206.7870  151.6160 C   0  0  0  0  0  0  0  0  0  0  0  0
  160.2000  208.5840  155.0910 C   0  0  1  0  0  3  0  0  0  0  0  0
  161.4750  207.3650  152.8160 C   0  0  0  0  0  0  0  0  0  0  0  0
  161.3010  204.5890  152.4190 C   0  0  0  0  0  3  0  0  0  0  0  0
  160.4600  207.0820  155.1380 C   0  0  0  0  0  2  0  0  0  0  0  0
  160.8320  205.1540  153.6060 C   0  0  0  0  0  3  0  0  0  0  0  0
  160.0200  209.0600  156.3750 F   0  0  0  0  0  0  0  0  0  0  0  0
  161.3870  209.2860  154.4490 C   0  0  0  0  0  2  0  0  0  0  0  0
  161.8520  205.4030  151.4290 C   0  0  0  0  0  3  0  0  0  0  0  0
  1 17  1  6  0  0  0
  2  4  1  0  0  0  0
  3  1  1  0  0  0  0
  3  4  1  0  0  0  0
  4  6  2  0  0  0  0
  5  2  1  0  0  0  0
  5  3  1  0  0  0  0
  7  8  1  1  0  0  0
  7  1  1  0  0  0  0
  9  7  1  0  0  0  0
 10 14  2  0  0  0  0
 10  9  1  0  0  0  0
 11 14  1  0  0  0  0
 12 10  1  0  0  0  0
 14 13  1  0  0  0  0
 15 11  1  0  0  0  0
 16 12  2  0  0  0  0
 16 11  1  0  0  0  0
 17 20  1  0  0  0  0
 18 27  1  0  0  0  0
 19 24  1  0  0  0  0
 20 22  1  0  0  0  0
 21 24  1  0  0  0  0
 21 26  1  1  0  0  0
 22 18  1  0  0  0  0
 22 19  2  0  0  0  0
 23 25  2  0  0  0  0
 25 19  1  0  0  0  0
 27 21  1  0  0  0  0
 28 20  2  0  0  0  0
 28 23  1  0  0  0  0
M  END
>  <MODEL>
8

>  <REMARK>
 VINA RESULT:      -7.8      3.220      6.819
  Name = 
  6 active torsions:
  status: ('A' for Active; 'I' for Inactive)
    1  A    between atoms: C_1  and  C_2
    2  A    between atoms: C_1  and  C_27
    3  A    between atoms: C_2  and  C_3
    4  A    between atoms: C_10  and  C_17
    5  A    between atoms: N_16  and  C_27
    6  A    between atoms: C_17  and  C_27
                            x       y       z     vdW  Elec       q    Type
                         _______ _______ _______ _____ _____    ______ ____

>  <TORSDO>
F 6

$$$$
=
 OpenBabel11052422503D

 28 31  0  0  1  0  0  0  0  0999 V2000
  160.6780  205.8070  150.7890 C   0  0  1  0  0  3  0  0  0  0  0  0
  161.0100  206.9540  147.5050 C   0  0  0  0  0  2  0  0  0  0  0  0
  160.8300  206.3040  149.4240 N   0  0  0  0  0  0  0  0  0  0  0  0
  161.8510  207.0820  148.6960 C   0  0  0  0  0  0  0  0  0  0  0  0
  160.0770  206.2210  148.2360 N   0  0  0  0  0  2  0  0  0  0  0  0
  162.9550  207.6160  148.9760 O   0  0  0  0  0  0  0  0  0  0  0  0
  160.5360  204.2860  150.8220 C   0  0  2  0  0  3  0  0  0  0  0  0
  160.4750  203.8180  152.1370 O   0  0  0  0  0  1  0  0  0  0  0  0
  161.6810  203.6120  150.0830 C   0  0  0  0  0  2  0  0  0  0  0  0
  161.1560  202.6590  149.0600 C   0  0  0  0  0  0  0  0  0  0  0  0
  160.6130  201.7060  147.1780 N   0  0  0  0  0  0  0  0  0  0  0  0
  160.3870  201.5870  149.3380 N   0  0  0  0  0  0  0  0  0  0  0  0
  162.0290  203.7760  146.9090 C   0  0  0  0  0  1  0  0  0  0  0  0
  161.2940  202.7430  147.6920 C   0  0  0  0  0  0  0  0  0  0  0  0
  160.4590  201.3630  145.7750 C   0  0  0  0  0  1  0  0  0  0  0  0
  160.0750  201.0250  148.1780 N   0  0  0  0  0  0  0  0  0  0  0  0
  161.8460  206.2430  151.6590 C   0  0  0  0  0  2  0  0  0  0  0  0
  161.2400  209.1240  151.4980 C   0  0  0  0  0  2  0  0  0  0  0  0
  160.6290  209.0410  153.9640 C   0  0  0  0  0  0  0  0  0  0  0  0
  161.3450  206.9920  152.8540 C   0  0  0  0  0  0  0  0  0  0  0  0
  160.2530  211.1230  152.5990 C   0  0  1  0  0  3  0  0  0  0  0  0
  161.1010  208.3800  152.8050 C   0  0  0  0  0  0  0  0  0  0  0  0
  160.7000  206.9530  155.1910 C   0  0  0  0  0  3  0  0  0  0  0  0
  160.4240  210.5310  153.9940 C   0  0  0  0  0  2  0  0  0  0  0  0
  160.4470  208.3250  155.1490 C   0  0  0  0  0  3  0  0  0  0  0  0
  160.2940  212.5010  152.6770 F   0  0  0  0  0  0  0  0  0  0  0  0
  161.3740  210.6300  151.6970 C   0  0  0  0  0  2  0  0  0  0  0  0
  161.1470  206.2900  154.0480 C   0  0  0  0  0  3  0  0  0  0  0  0
  1  7  1  0  0  0  0
  1 17  1  1  0  0  0
  2  5  1  0  0  0  0
  2  4  1  0  0  0  0
  3  1  1  0  0  0  0
  4  6  2  0  0  0  0
  4  3  1  0  0  0  0
  5  3  1  0  0  0  0
  7  8  1  1  0  0  0
  9  7  1  0  0  0  0
 10 12  1  0  0  0  0
 10  9  1  0  0  0  0
 11 14  1  0  0  0  0
 11 16  1  0  0  0  0
 13 14  1  0  0  0  0
 14 10  2  0  0  0  0
 15 11  1  0  0  0  0
 16 12  2  0  0  0  0
 17 20  1  0  0  0  0
 18 27  1  0  0  0  0
 18 22  1  0  0  0  0
 19 24  1  0  0  0  0
 19 25  1  0  0  0  0
 20 28  2  0  0  0  0
 21 26  1  1  0  0  0
 21 24  1  0  0  0  0
 22 20  1  0  0  0  0
 22 19  2  0  0  0  0
 25 23  2  0  0  0  0
 27 21  1  0  0  0  0
 28 23  1  0  0  0  0
M  END
>  <MODEL>
9

>  <REMARK>
 VINA RESULT:      -7.6      3.605      7.349
  Name = 
  6 active torsions:
  status: ('A' for Active; 'I' for Inactive)
    1  A    between atoms: C_1  and  C_2
    2  A    between atoms: C_1  and  C_27
    3  A    between atoms: C_2  and  C_3
    4  A    between atoms: C_10  and  C_17
    5  A    between atoms: N_16  and  C_27
    6  A    between atoms: C_17  and  C_27
                            x       y       z     vdW  Elec       q    Type
                         _______ _______ _______ _____ _____    ______ ____

>  <TORSDO>
F 6

$$$$
