=
 OpenBabel11062409443D

 34 39  0  0  1  0  0  0  0  0999 V2000
  161.4790  208.3670  151.9760 C   0  0  0  0  0  0  0  0  0  0  0  0
  160.8450  205.8960  153.1560 C   0  0  0  0  0  3  0  0  0  0  0  0
  161.4440  207.1980  151.2100 C   0  0  0  0  0  3  0  0  0  0  0  0
  160.8740  207.0470  153.9410 C   0  0  0  0  0  0  0  0  0  0  0  0
  160.6110  208.1060  156.1040 C   0  0  0  0  0  3  0  0  0  0  0  0
  160.5860  206.9590  155.3060 C   0  0  0  0  0  3  0  0  0  0  0  0
  161.1290  205.9570  151.7840 C   0  0  0  0  0  0  0  0  0  0  0  0
  161.2120  209.4410  154.1760 C   0  0  0  0  0  3  0  0  0  0  0  0
  161.1910  208.2980  153.3590 C   0  0  0  0  0  0  0  0  0  0  0  0
  160.9240  209.3450  155.5390 C   0  0  0  0  0  3  0  0  0  0  0  0
  160.9660  202.3090  150.7670 C   0  0  0  0  0  3  0  0  0  0  0  0
  161.1530  204.8130  149.5530 C   0  0  0  0  0  3  0  0  0  0  0  0
  160.9470  201.1370  148.5800 C   0  0  0  0  0  1  0  0  0  0  0  0
  161.0220  202.3970  149.3740 C   0  0  0  0  0  0  0  0  0  0  0  0
  161.1360  203.6600  148.7540 C   0  0  0  0  0  0  0  0  0  0  0  0
  161.0960  204.7290  150.9520 C   0  0  0  0  0  0  0  0  0  0  0  0
  161.0060  203.4640  151.5500 C   0  0  0  0  0  3  0  0  0  0  0  0
  162.3640  204.5350  146.8300 N   0  0  2  0  0  0  0  0  0  0  0  0
  161.9820  205.4940  145.7770 C   0  0  2  0  0  3  0  0  0  0  0  0
  161.1560  203.7990  147.2560 C   0  0  2  0  0  3  0  0  0  0  0  0
  161.0340  205.1990  146.8440 C   0  0  1  0  0  3  0  0  0  0  0  0
  161.6130  204.7590  144.4970 C   0  0  0  0  0  2  0  0  0  0  0  0
  161.4970  205.6740  143.4520 O   0  0  0  0  0  1  0  0  0  0  0  0
  161.5720  209.5760  149.7370 C   0  0  2  0  0  3  0  0  0  0  0  0
  161.9100  210.8010  149.1300 O   0  0  0  0  0  0  0  0  0  0  0  0
  160.9720  211.7520  149.5720 C   0  0  1  0  0  3  0  0  0  0  0  0
  161.2440  212.0890  151.0360 C   0  0  0  0  0  2  0  0  0  0  0  0
  161.0610  210.8280  151.8730 C   0  0  0  0  0  2  0  0  0  0  0  0
  161.8210  209.6490  151.2590 C   0  0  1  0  0  3  0  0  0  0  0  0
  163.0080  207.6690  148.6450 N   0  0  0  0  0  0  0  0  0  0  0  0
  162.3750  208.5100  149.1270 C   0  0  0  0  0  0  0  0  0  0  0  0
  161.0840  212.9090  148.7990 O   0  0  0  0  0  0  0  0  0  0  0  0
  162.3550  212.8320  148.2270 C   0  0  0  0  0  2  0  0  0  0  0  0
  162.7420  214.1880  147.6740 C   0  0  0  0  0  1  0  0  0  0  0  0
  1  9  1  0  0  0  0
  2  4  1  0  0  0  0
  3  7  1  0  0  0  0
  3  1  2  0  0  0  0
  4  6  1  0  0  0  0
  6  5  2  0  0  0  0
  7  2  2  0  0  0  0
  8 10  2  0  0  0  0
  9  4  2  0  0  0  0
  9  8  1  0  0  0  0
 10  5  1  0  0  0  0
 11 17  1  0  0  0  0
 12 16  1  0  0  0  0
 13 14  1  0  0  0  0
 14 11  2  0  0  0  0
 15 14  1  0  0  0  0
 15 12  2  0  0  0  0
 16 17  2  0  0  0  0
 16  7  1  0  0  0  0
 18 21  1  0  0  0  0
 18 20  1  0  0  0  0
 19 18  1  0  0  0  0
 19 21  1  0  0  0  0
 20 15  1  0  0  0  0
 21 20  1  0  0  0  0
 22 19  1  0  0  0  0
 23 22  1  0  0  0  0
 24 29  1  0  0  0  0
 25 26  1  0  0  0  0
 25 24  1  0  0  0  0
 26 27  1  0  0  0  0
 27 28  1  0  0  0  0
 29 28  1  0  0  0  0
 29  1  1  0  0  0  0
 30 31  3  0  0  0  0
 31 24  1  0  0  0  0
 32 26  1  0  0  0  0
 33 32  1  0  0  0  0
 34 33  1  0  0  0  0
M  END
>  <MODEL>
1

>  <REMARK>
 VINA RESULT:      -9.2      0.000      0.000
  Name = 
  7 active torsions:
  status: ('A' for Active; 'I' for Inactive)
    1  A    between atoms: C_1  and  C_34
    2  A    between atoms: C_2  and  C_32
    3  A    between atoms: O_3  and  C_13
    4  A    between atoms: O_3  and  C_25
    5  A    between atoms: C_11  and  C_15
    6  A    between atoms: C_18  and  C_30
    7  A    between atoms: C_26  and  C_28
                            x       y       z     vdW  Elec       q    Type
                         _______ _______ _______ _____ _____    ______ ____

>  <TORSDO>
F 7

$$$$
=
 OpenBabel11062409443D

 34 39  0  0  1  0  0  0  0  0999 V2000
  161.0200  209.6040  153.1180 C   0  0  0  0  0  0  0  0  0  0  0  0
  161.1130  206.9600  154.0700 C   0  0  0  0  0  3  0  0  0  0  0  0
  160.9820  208.5240  152.2310 C   0  0  0  0  0  3  0  0  0  0  0  0
  161.1530  208.0210  154.9740 C   0  0  0  0  0  0  0  0  0  0  0  0
  161.2790  208.8100  157.2610 C   0  0  0  0  0  3  0  0  0  0  0  0
  161.2390  207.7560  156.3440 C   0  0  0  0  0  3  0  0  0  0  0  0
  161.0280  207.1980  152.6900 C   0  0  0  0  0  0  0  0  0  0  0  0
  161.1490  210.4040  155.4430 C   0  0  0  0  0  3  0  0  0  0  0  0
  161.1070  209.3570  154.5080 C   0  0  0  0  0  0  0  0  0  0  0  0
  161.2350  210.1320  156.8110 C   0  0  0  0  0  3  0  0  0  0  0  0
  161.0210  203.6790  151.2840 C   0  0  0  0  0  3  0  0  0  0  0  0
  160.8530  206.3030  150.3550 C   0  0  0  0  0  3  0  0  0  0  0  0
  160.8120  202.7470  148.9940 C   0  0  0  0  0  1  0  0  0  0  0  0
  160.8900  203.9180  149.9140 C   0  0  0  0  0  0  0  0  0  0  0  0
  160.8240  205.2440  149.4360 C   0  0  0  0  0  0  0  0  0  0  0  0
  160.9840  206.0680  151.7320 C   0  0  0  0  0  0  0  0  0  0  0  0
  161.0710  204.7430  152.1850 C   0  0  0  0  0  3  0  0  0  0  0  0
  161.7170  204.9060  147.1850 N   0  0  2  0  0  0  0  0  0  0  0  0
  162.1740  205.8620  146.1580 C   0  0  2  0  0  3  0  0  0  0  0  0
  160.6410  205.5420  147.9720 C   0  0  2  0  0  3  0  0  0  0  0  0
  161.7300  206.3690  147.4500 C   0  0  1  0  0  3  0  0  0  0  0  0
  161.1010  206.0540  145.0970 C   0  0  0  0  0  2  0  0  0  0  0  0
  161.3880  205.2500  143.9940 O   0  0  0  0  0  1  0  0  0  0  0  0
  160.6820  210.9780  151.0010 C   0  0  2  0  0  3  0  0  0  0  0  0
  160.6370  212.2960  150.5080 O   0  0  0  0  0  0  0  0  0  0  0  0
  159.4850  212.8980  151.0480 C   0  0  1  0  0  3  0  0  0  0  0  0
  159.7060  213.1710  152.5340 C   0  0  0  0  0  2  0  0  0  0  0  0
  159.9190  211.8430  153.2510 C   0  0  0  0  0  2  0  0  0  0  0  0
  160.9580  210.9870  152.5210 C   0  0  1  0  0  3  0  0  0  0  0  0
  162.5570  209.6620  149.7190 N   0  0  0  0  0  0  0  0  0  0  0  0
  161.7310  210.2420  150.2840 C   0  0  0  0  0  0  0  0  0  0  0  0
  159.2360  214.1010  150.3850 O   0  0  0  0  0  0  0  0  0  0  0  0
  157.8440  214.1980  150.3390 C   0  0  0  0  0  2  0  0  0  0  0  0
  157.2780  213.0000  149.6060 C   0  0  0  0  0  1  0  0  0  0  0  0
  1  9  1  0  0  0  0
  2  4  1  0  0  0  0
  3  7  1  0  0  0  0
  3  1  2  0  0  0  0
  4  6  1  0  0  0  0
  6  5  2  0  0  0  0
  7  2  2  0  0  0  0
  8 10  2  0  0  0  0
  9  4  2  0  0  0  0
  9  8  1  0  0  0  0
 10  5  1  0  0  0  0
 11 17  1  0  0  0  0
 12 16  1  0  0  0  0
 13 14  1  0  0  0  0
 14 11  2  0  0  0  0
 15 14  1  0  0  0  0
 15 12  2  0  0  0  0
 16 17  2  0  0  0  0
 16  7  1  0  0  0  0
 18 21  1  0  0  0  0
 18 20  1  0  0  0  0
 19 18  1  0  0  0  0
 19 21  1  0  0  0  0
 20 15  1  0  0  0  0
 21 20  1  0  0  0  0
 22 19  1  0  0  0  0
 23 22  1  0  0  0  0
 24 29  1  0  0  0  0
 25 24  1  0  0  0  0
 25 26  1  0  0  0  0
 26 27  1  0  0  0  0
 27 28  1  0  0  0  0
 29  1  1  0  0  0  0
 29 28  1  0  0  0  0
 30 31  3  0  0  0  0
 31 24  1  0  0  0  0
 32 26  1  0  0  0  0
 33 32  1  0  0  0  0
 34 33  1  0  0  0  0
M  END
>  <MODEL>
2

>  <REMARK>
 VINA RESULT:      -8.3      1.599      2.177
  Name = 
  7 active torsions:
  status: ('A' for Active; 'I' for Inactive)
    1  A    between atoms: C_1  and  C_34
    2  A    between atoms: C_2  and  C_32
    3  A    between atoms: O_3  and  C_13
    4  A    between atoms: O_3  and  C_25
    5  A    between atoms: C_11  and  C_15
    6  A    between atoms: C_18  and  C_30
    7  A    between atoms: C_26  and  C_28
                            x       y       z     vdW  Elec       q    Type
                         _______ _______ _______ _____ _____    ______ ____

>  <TORSDO>
F 7

$$$$
=
 OpenBabel11062409443D

 34 39  0  0  1  0  0  0  0  0999 V2000
  161.0110  205.2800  149.8640 C   0  0  0  0  0  0  0  0  0  0  0  0
  161.0610  204.6780  152.6090 C   0  0  0  0  0  3  0  0  0  0  0  0
  161.0180  206.3010  150.8200 C   0  0  0  0  0  3  0  0  0  0  0  0
  161.0540  203.6420  151.6760 C   0  0  0  0  0  0  0  0  0  0  0  0
  161.0650  201.2690  151.1920 C   0  0  0  0  0  3  0  0  0  0  0  0
  161.0720  202.3160  152.1160 C   0  0  0  0  0  3  0  0  0  0  0  0
  161.0430  206.0170  152.1930 C   0  0  0  0  0  0  0  0  0  0  0  0
  161.0210  202.8670  149.3740 C   0  0  0  0  0  3  0  0  0  0  0  0
  161.0280  203.9320  150.2900 C   0  0  0  0  0  0  0  0  0  0  0  0
  161.0390  201.5440  149.8220 C   0  0  0  0  0  3  0  0  0  0  0  0
  161.2670  207.8780  155.4870 C   0  0  0  0  0  3  0  0  0  0  0  0
  160.8660  208.4460  152.7870 C   0  0  0  0  0  3  0  0  0  0  0  0
  161.1380  210.2740  156.1170 C   0  0  0  0  0  1  0  0  0  0  0  0
  161.0810  209.2020  155.0820 C   0  0  0  0  0  0  0  0  0  0  0  0
  160.8590  209.4940  153.7200 C   0  0  0  0  0  0  0  0  0  0  0  0
  161.0530  207.1150  153.1900 C   0  0  0  0  0  0  0  0  0  0  0  0
  161.2500  206.8430  154.5510 C   0  0  0  0  0  3  0  0  0  0  0  0
  159.2820  211.3230  153.3370 N   0  0  2  0  0  0  0  0  0  0  0  0
  158.9240  212.0690  152.1170 C   0  0  2  0  0  3  0  0  0  0  0  0
  160.6970  210.9110  153.2380 C   0  0  2  0  0  3  0  0  0  0  0  0
  159.8840  210.9760  152.0220 C   0  0  1  0  0  3  0  0  0  0  0  0
  159.6280  213.4180  152.0930 C   0  0  0  0  0  2  0  0  0  0  0  0
  158.7690  214.3820  151.5670 O   0  0  0  0  0  1  0  0  0  0  0  0
  162.1650  206.6210  148.0330 C   0  0  2  0  0  3  0  0  0  0  0  0
  162.0870  206.9690  146.6710 O   0  0  0  0  0  0  0  0  0  0  0  0
  162.3370  205.7990  145.9310 C   0  0  1  0  0  3  0  0  0  0  0  0
  161.1350  204.8630  146.0430 C   0  0  0  0  0  2  0  0  0  0  0  0
  160.9560  204.4650  147.5030 C   0  0  0  0  0  2  0  0  0  0  0  0
  160.9900  205.6950  148.4150 C   0  0  1  0  0  3  0  0  0  0  0  0
  162.1290  208.8180  149.4690 N   0  0  0  0  0  0  0  0  0  0  0  0
  162.1450  207.8490  148.8360 C   0  0  0  0  0  0  0  0  0  0  0  0
  162.5460  206.1310  144.5920 O   0  0  0  0  0  0  0  0  0  0  0  0
  161.4930  205.5240  143.9070 C   0  0  0  0  0  2  0  0  0  0  0  0
  161.5530  205.9100  142.4440 C   0  0  0  0  0  1  0  0  0  0  0  0
  1  9  2  0  0  0  0
  1  3  1  0  0  0  0
  3  7  2  0  0  0  0
  4  6  1  0  0  0  0
  4  2  2  0  0  0  0
  5  6  2  0  0  0  0
  7  2  1  0  0  0  0
  7 16  1  0  0  0  0
  8 10  2  0  0  0  0
  8  9  1  0  0  0  0
  9  4  1  0  0  0  0
 10  5  1  0  0  0  0
 12 16  2  0  0  0  0
 12 15  1  0  0  0  0
 14 11  1  0  0  0  0
 14 13  1  0  0  0  0
 15 14  2  0  0  0  0
 16 17  1  0  0  0  0
 17 11  2  0  0  0  0
 19 18  1  0  0  0  0
 20 18  1  0  0  0  0
 20 15  1  0  0  0  0
 21 19  1  0  0  0  0
 21 20  1  0  0  0  0
 21 18  1  0  0  0  0
 22 19  1  0  0  0  0
 23 22  1  0  0  0  0
 24 29  1  0  0  0  0
 24 31  1  0  0  0  0
 25 24  1  0  0  0  0
 26 27  1  0  0  0  0
 26 25  1  0  0  0  0
 27 28  1  0  0  0  0
 28 29  1  0  0  0  0
 29  1  1  0  0  0  0
 31 30  3  0  0  0  0
 32 26  1  0  0  0  0
 33 32  1  0  0  0  0
 34 33  1  0  0  0  0
M  END
>  <MODEL>
3

>  <REMARK>
 VINA RESULT:      -8.2      2.148      7.316
  Name = 
  7 active torsions:
  status: ('A' for Active; 'I' for Inactive)
    1  A    between atoms: C_1  and  C_34
    2  A    between atoms: C_2  and  C_32
    3  A    between atoms: O_3  and  C_13
    4  A    between atoms: O_3  and  C_25
    5  A    between atoms: C_11  and  C_15
    6  A    between atoms: C_18  and  C_30
    7  A    between atoms: C_26  and  C_28
                            x       y       z     vdW  Elec       q    Type
                         _______ _______ _______ _____ _____    ______ ____

>  <TORSDO>
F 7

$$$$
=
 OpenBabel11062409443D

 34 39  0  0  1  0  0  0  0  0999 V2000
  161.2100  210.1890  151.9020 C   0  0  0  0  0  0  0  0  0  0  0  0
  161.6500  208.5320  149.6740 C   0  0  0  0  0  3  0  0  0  0  0  0
  161.1630  208.7970  152.0260 C   0  0  0  0  0  3  0  0  0  0  0  0
  161.7020  209.9180  149.5240 C   0  0  0  0  0  0  0  0  0  0  0  0
  162.0290  211.8530  148.1050 C   0  0  0  0  0  3  0  0  0  0  0  0
  161.9730  210.4660  148.2680 C   0  0  0  0  0  3  0  0  0  0  0  0
  161.3790  207.9570  150.9240 C   0  0  0  0  0  0  0  0  0  0  0  0
  161.5420  212.1550  150.4570 C   0  0  0  0  0  3  0  0  0  0  0  0
  161.4820  210.7630  150.6390 C   0  0  0  0  0  0  0  0  0  0  0  0
  161.8130  212.6960  149.1980 C   0  0  0  0  0  3  0  0  0  0  0  0
  161.4050  204.5050  152.4880 C   0  0  0  0  0  3  0  0  0  0  0  0
  161.1360  205.6550  149.9620 C   0  0  0  0  0  3  0  0  0  0  0  0
  161.1300  202.2100  151.5860 C   0  0  0  0  0  1  0  0  0  0  0  0
  161.2150  203.6830  151.3740 C   0  0  0  0  0  0  0  0  0  0  0  0
  161.0970  204.2580  150.0910 C   0  0  0  0  0  0  0  0  0  0  0  0
  161.3260  206.4830  151.0780 C   0  0  0  0  0  0  0  0  0  0  0  0
  161.4640  205.8910  152.3430 C   0  0  0  0  0  3  0  0  0  0  0  0
  162.0490  203.3970  148.0090 N   0  0  2  0  0  0  0  0  0  0  0  0
  161.6180  203.5320  146.6060 C   0  0  2  0  0  3  0  0  0  0  0  0
  160.8500  203.4100  148.8720 C   0  0  2  0  0  3  0  0  0  0  0  0
  160.8590  204.2130  147.6480 C   0  0  1  0  0  3  0  0  0  0  0  0
  160.9040  202.2700  146.1450 C   0  0  0  0  0  2  0  0  0  0  0  0
  160.4160  202.4560  144.8520 O   0  0  0  0  0  1  0  0  0  0  0  0
  159.4700  211.1640  153.4860 C   0  0  2  0  0  3  0  0  0  0  0  0
  159.3150  211.9270  154.6590 O   0  0  0  0  0  0  0  0  0  0  0  0
  159.8070  211.1490  155.7240 C   0  0  1  0  0  3  0  0  0  0  0  0
  161.3300  211.0830  155.6410 C   0  0  0  0  0  2  0  0  0  0  0  0
  161.7220  210.3940  154.3390 C   0  0  0  0  0  2  0  0  0  0  0  0
  160.9690  210.9990  153.1500 C   0  0  1  0  0  3  0  0  0  0  0  0
  158.2010  212.3630  151.5250 N   0  0  0  0  0  0  0  0  0  0  0  0
  158.7610  211.8340  152.3890 C   0  0  0  0  0  0  0  0  0  0  0  0
  159.4300  211.7300  156.9350 O   0  0  0  0  0  0  0  0  0  0  0  0
  158.0400  211.8260  156.8660 C   0  0  0  0  0  2  0  0  0  0  0  0
  157.6100  213.2250  157.2560 C   0  0  0  0  0  1  0  0  0  0  0  0
  1  3  1  0  0  0  0
  1 29  1  0  0  0  0
  2  7  1  0  0  0  0
  4  2  2  0  0  0  0
  4  9  1  0  0  0  0
  5  6  2  0  0  0  0
  5 10  1  0  0  0  0
  6  4  1  0  0  0  0
  7 16  1  0  0  0  0
  7  3  2  0  0  0  0
  8  9  1  0  0  0  0
  9  1  2  0  0  0  0
 10  8  2  0  0  0  0
 12 15  2  0  0  0  0
 12 16  1  0  0  0  0
 14 13  1  0  0  0  0
 14 11  2  0  0  0  0
 15 14  1  0  0  0  0
 16 17  2  0  0  0  0
 17 11  1  0  0  0  0
 18 20  1  0  0  0  0
 19 21  1  0  0  0  0
 19 18  1  0  0  0  0
 20 15  1  0  0  0  0
 21 18  1  0  0  0  0
 21 20  1  0  0  0  0
 22 19  1  0  0  0  0
 23 22  1  0  0  0  0
 24 25  1  0  0  0  0
 25 26  1  0  0  0  0
 26 32  1  0  0  0  0
 27 26  1  0  0  0  0
 28 27  1  0  0  0  0
 29 24  1  0  0  0  0
 29 28  1  0  0  0  0
 30 31  3  0  0  0  0
 31 24  1  0  0  0  0
 33 32  1  0  0  0  0
 33 34  1  0  0  0  0
M  END
>  <MODEL>
4

>  <REMARK>
 VINA RESULT:      -8.2      2.786      5.053
  Name = 
  7 active torsions:
  status: ('A' for Active; 'I' for Inactive)
    1  A    between atoms: C_1  and  C_34
    2  A    between atoms: C_2  and  C_32
    3  A    between atoms: O_3  and  C_13
    4  A    between atoms: O_3  and  C_25
    5  A    between atoms: C_11  and  C_15
    6  A    between atoms: C_18  and  C_30
    7  A    between atoms: C_26  and  C_28
                            x       y       z     vdW  Elec       q    Type
                         _______ _______ _______ _____ _____    ______ ____

>  <TORSDO>
F 7

$$$$
=
 OpenBabel11062409443D

 34 39  0  0  1  0  0  0  0  0999 V2000
  160.5940  209.4860  152.8510 C   0  0  0  0  0  0  0  0  0  0  0  0
  161.0720  206.7260  152.6240 C   0  0  0  0  0  3  0  0  0  0  0  0
  160.7990  208.8980  151.6000 C   0  0  0  0  0  3  0  0  0  0  0  0
  160.8710  207.2890  153.8840 C   0  0  0  0  0  0  0  0  0  0  0  0
  160.7070  207.0260  156.2850 C   0  0  0  0  0  3  0  0  0  0  0  0
  160.9080  206.4740  155.0180 C   0  0  0  0  0  3  0  0  0  0  0  0
  161.0400  207.5210  151.4700 C   0  0  0  0  0  0  0  0  0  0  0  0
  160.4290  209.2170  155.2930 C   0  0  0  0  0  3  0  0  0  0  0  0
  160.6280  208.6780  154.0110 C   0  0  0  0  0  0  0  0  0  0  0  0
  160.4690  208.3960  156.4230 C   0  0  0  0  0  3  0  0  0  0  0  0
  161.5380  207.1550  147.7300 C   0  0  0  0  0  3  0  0  0  0  0  0
  161.3850  205.5280  149.9900 C   0  0  0  0  0  3  0  0  0  0  0  0
  161.9210  205.2150  146.2320 C   0  0  0  0  0  1  0  0  0  0  0  0
  161.6690  205.7710  147.5930 C   0  0  0  0  0  0  0  0  0  0  0  0
  161.5740  204.9410  148.7290 C   0  0  0  0  0  0  0  0  0  0  0  0
  161.2530  206.9170  150.1320 C   0  0  0  0  0  0  0  0  0  0  0  0
  161.3280  207.7240  148.9880 C   0  0  0  0  0  3  0  0  0  0  0  0
  160.5210  202.8250  148.1030 N   0  0  2  0  0  0  0  0  0  0  0  0
  160.2520  201.5980  148.8750 C   0  0  2  0  0  3  0  0  0  0  0  0
  161.7520  203.4500  148.6280 C   0  0  2  0  0  3  0  0  0  0  0  0
  160.8620  202.7380  149.5470 C   0  0  1  0  0  3  0  0  0  0  0  0
  161.2890  200.5310  148.5560 C   0  0  0  0  0  2  0  0  0  0  0  0
  161.2220  200.2060  147.2020 O   0  0  0  0  0  1  0  0  0  0  0  0
  160.0940  211.5700  151.4760 C   0  0  2  0  0  3  0  0  0  0  0  0
  159.8610  212.9550  151.5720 O   0  0  0  0  0  0  0  0  0  0  0  0
  158.6230  213.1210  152.2200 C   0  0  1  0  0  3  0  0  0  0  0  0
  158.7730  212.7660  153.6970 C   0  0  0  0  0  2  0  0  0  0  0  0
  159.1690  211.3000  153.8130 C   0  0  0  0  0  2  0  0  0  0  0  0
  160.3380  210.9720  152.8790 C   0  0  1  0  0  3  0  0  0  0  0  0
  162.1670  211.1680  149.9170 N   0  0  0  0  0  0  0  0  0  0  0  0
  161.2530  211.3460  150.6040 C   0  0  0  0  0  0  0  0  0  0  0  0
  158.2090  214.4480  152.0980 O   0  0  0  0  0  0  0  0  0  0  0  0
  157.0470  214.3880  151.3270 C   0  0  0  0  0  2  0  0  0  0  0  0
  155.8420  214.2870  152.2370 C   0  0  0  0  0  1  0  0  0  0  0  0
  1 29  1  0  0  0  0
  1  9  1  0  0  0  0
  2  4  1  0  0  0  0
  3  1  2  0  0  0  0
  4  9  2  0  0  0  0
  4  6  1  0  0  0  0
  5 10  1  0  0  0  0
  6  5  2  0  0  0  0
  7  3  1  0  0  0  0
  7  2  2  0  0  0  0
  8 10  2  0  0  0  0
  9  8  1  0  0  0  0
 11 17  1  0  0  0  0
 12 16  1  0  0  0  0
 13 14  1  0  0  0  0
 14 11  2  0  0  0  0
 14 15  1  0  0  0  0
 15 12  2  0  0  0  0
 16  7  1  0  0  0  0
 17 16  2  0  0  0  0
 18 20  1  0  0  0  0
 18 19  1  0  0  0  0
 18 21  1  0  0  0  0
 19 21  1  0  0  0  0
 20 15  1  0  0  0  0
 20 21  1  0  0  0  0
 22 19  1  0  0  0  0
 23 22  1  0  0  0  0
 24 25  1  0  0  0  0
 24 29  1  0  0  0  0
 25 26  1  0  0  0  0
 26 27  1  0  0  0  0
 27 28  1  0  0  0  0
 29 28  1  0  0  0  0
 30 31  3  0  0  0  0
 31 24  1  0  0  0  0
 32 26  1  0  0  0  0
 33 32  1  0  0  0  0
 33 34  1  0  0  0  0
M  END
>  <MODEL>
5

>  <REMARK>
 VINA RESULT:      -7.6      2.477      3.728
  Name = 
  7 active torsions:
  status: ('A' for Active; 'I' for Inactive)
    1  A    between atoms: C_1  and  C_34
    2  A    between atoms: C_2  and  C_32
    3  A    between atoms: O_3  and  C_13
    4  A    between atoms: O_3  and  C_25
    5  A    between atoms: C_11  and  C_15
    6  A    between atoms: C_18  and  C_30
    7  A    between atoms: C_26  and  C_28
                            x       y       z     vdW  Elec       q    Type
                         _______ _______ _______ _____ _____    ______ ____

>  <TORSDO>
F 7

$$$$
=
 OpenBabel11062409443D

 34 39  0  0  1  0  0  0  0  0999 V2000
  160.2090  212.1110  151.6410 C   0  0  0  0  0  0  0  0  0  0  0  0
  161.6810  210.3740  149.9920 C   0  0  0  0  0  3  0  0  0  0  0  0
  160.2890  210.7460  151.9320 C   0  0  0  0  0  3  0  0  0  0  0  0
  161.6170  211.7320  149.6800 C   0  0  0  0  0  0  0  0  0  0  0  0
  162.2290  213.5710  148.2290 C   0  0  0  0  0  3  0  0  0  0  0  0
  162.2850  212.2140  148.5520 C   0  0  0  0  0  3  0  0  0  0  0  0
  161.0180  209.8660  151.1190 C   0  0  0  0  0  0  0  0  0  0  0  0
  160.8330  213.9790  150.1630 C   0  0  0  0  0  3  0  0  0  0  0  0
  160.8790  212.6170  150.5030 C   0  0  0  0  0  0  0  0  0  0  0  0
  161.5030  214.4530  149.0330 C   0  0  0  0  0  3  0  0  0  0  0  0
  161.0900  206.6270  153.0860 C   0  0  0  0  0  3  0  0  0  0  0  0
  161.2200  207.4640  150.4290 C   0  0  0  0  0  3  0  0  0  0  0  0
  161.2480  204.2350  152.4480 C   0  0  0  0  0  1  0  0  0  0  0  0
  161.2180  205.6770  152.0700 C   0  0  0  0  0  0  0  0  0  0  0  0
  161.3040  206.0950  150.7250 C   0  0  0  0  0  0  0  0  0  0  0  0
  161.0910  208.4220  151.4470 C   0  0  0  0  0  0  0  0  0  0  0  0
  161.0300  207.9870  152.7790 C   0  0  0  0  0  3  0  0  0  0  0  0
  162.0600  205.7180  148.4310 N   0  0  2  0  0  0  0  0  0  0  0  0
  161.3330  205.3120  147.2140 C   0  0  2  0  0  3  0  0  0  0  0  0
  161.4000  205.1010  149.5990 C   0  0  2  0  0  3  0  0  0  0  0  0
  160.5880  205.5080  148.4510 C   0  0  1  0  0  3  0  0  0  0  0  0
  161.5500  203.8330  146.9330 C   0  0  0  0  0  2  0  0  0  0  0  0
  161.8410  203.6530  145.5820 O   0  0  0  0  0  1  0  0  0  0  0  0
  157.8860  212.9170  152.3030 C   0  0  2  0  0  3  0  0  0  0  0  0
  157.1950  213.7360  153.2150 O   0  0  0  0  0  0  0  0  0  0  0  0
  157.3150  213.1360  154.4820 C   0  0  1  0  0  3  0  0  0  0  0  0
  158.7450  213.3080  154.9900 C   0  0  0  0  0  2  0  0  0  0  0  0
  159.6950  212.5900  154.0390 C   0  0  0  0  0  2  0  0  0  0  0  0
  159.4040  212.9690  152.5830 C   0  0  1  0  0  3  0  0  0  0  0  0
  157.3580  213.7360  149.8650 N   0  0  0  0  0  0  0  0  0  0  0  0
  157.5910  213.3750  150.9400 C   0  0  0  0  0  0  0  0  0  0  0  0
  156.4280  213.7430  155.3710 O   0  0  0  0  0  0  0  0  0  0  0  0
  156.5490  213.0080  156.5510 C   0  0  0  0  0  2  0  0  0  0  0  0
  155.8460  211.6770  156.3900 C   0  0  0  0  0  1  0  0  0  0  0  0
  1  3  1  0  0  0  0
  1 29  1  0  0  0  0
  2  7  1  0  0  0  0
  4  2  2  0  0  0  0
  4  9  1  0  0  0  0
  5  6  2  0  0  0  0
  5 10  1  0  0  0  0
  6  4  1  0  0  0  0
  7 16  1  0  0  0  0
  7  3  2  0  0  0  0
  8  9  1  0  0  0  0
  9  1  2  0  0  0  0
 10  8  2  0  0  0  0
 12 15  2  0  0  0  0
 12 16  1  0  0  0  0
 14 13  1  0  0  0  0
 14 11  2  0  0  0  0
 15 14  1  0  0  0  0
 16 17  2  0  0  0  0
 17 11  1  0  0  0  0
 18 21  1  0  0  0  0
 18 20  1  0  0  0  0
 19 18  1  0  0  0  0
 19 21  1  0  0  0  0
 20 15  1  0  0  0  0
 21 20  1  0  0  0  0
 22 19  1  0  0  0  0
 23 22  1  0  0  0  0
 24 29  1  0  0  0  0
 24 25  1  0  0  0  0
 25 26  1  0  0  0  0
 26 27  1  0  0  0  0
 26 32  1  0  0  0  0
 28 27  1  0  0  0  0
 29 28  1  0  0  0  0
 30 31  3  0  0  0  0
 31 24  1  0  0  0  0
 32 33  1  0  0  0  0
 34 33  1  0  0  0  0
M  END
>  <MODEL>
6

>  <REMARK>
 VINA RESULT:      -7.5      3.265      5.844
  Name = 
  7 active torsions:
  status: ('A' for Active; 'I' for Inactive)
    1  A    between atoms: C_1  and  C_34
    2  A    between atoms: C_2  and  C_32
    3  A    between atoms: O_3  and  C_13
    4  A    between atoms: O_3  and  C_25
    5  A    between atoms: C_11  and  C_15
    6  A    between atoms: C_18  and  C_30
    7  A    between atoms: C_26  and  C_28
                            x       y       z     vdW  Elec       q    Type
                         _______ _______ _______ _____ _____    ______ ____

>  <TORSDO>
F 7

$$$$
=
 OpenBabel11062409443D

 34 39  0  0  1  0  0  0  0  0999 V2000
  160.8560  209.0190  151.9870 C   0  0  0  0  0  0  0  0  0  0  0  0
  161.7520  207.5940  149.7350 C   0  0  0  0  0  3  0  0  0  0  0  0
  160.8010  207.6220  151.9570 C   0  0  0  0  0  3  0  0  0  0  0  0
  161.8160  208.9870  149.7400 C   0  0  0  0  0  0  0  0  0  0  0  0
  162.3970  211.0530  148.6180 C   0  0  0  0  0  3  0  0  0  0  0  0
  162.3270  209.6580  148.6260 C   0  0  0  0  0  3  0  0  0  0  0  0
  161.2440  206.8960  150.8410 C   0  0  0  0  0  0  0  0  0  0  0  0
  161.4460  211.1190  150.8430 C   0  0  0  0  0  3  0  0  0  0  0  0
  161.3680  209.7160  150.8680 C   0  0  0  0  0  0  0  0  0  0  0  0
  161.9570  211.7820  149.7260 C   0  0  0  0  0  3  0  0  0  0  0  0
  161.3440  203.2880  151.9950 C   0  0  0  0  0  3  0  0  0  0  0  0
  160.8780  204.7210  149.6490 C   0  0  0  0  0  3  0  0  0  0  0  0
  160.9520  201.1140  150.8670 C   0  0  0  0  0  1  0  0  0  0  0  0
  161.0440  202.6010  150.8160 C   0  0  0  0  0  0  0  0  0  0  0  0
  160.8260  203.3190  149.6220 C   0  0  0  0  0  0  0  0  0  0  0  0
  161.1780  205.4150  150.8310 C   0  0  0  0  0  0  0  0  0  0  0  0
  161.4140  204.6820  152.0030 C   0  0  0  0  0  3  0  0  0  0  0  0
  161.6750  202.3100  147.5630 N   0  0  2  0  0  0  0  0  0  0  0  0
  161.4130  202.6110  146.1440 C   0  0  2  0  0  3  0  0  0  0  0  0
  160.4580  202.6190  148.3410 C   0  0  2  0  0  3  0  0  0  0  0  0
  160.7850  203.4340  147.1690 C   0  0  1  0  0  3  0  0  0  0  0  0
  160.4250  201.6110  145.5620 C   0  0  0  0  0  2  0  0  0  0  0  0
  159.7270  202.2040  144.5110 O   0  0  0  0  0  1  0  0  0  0  0  0
  161.2070  209.3660  154.4840 C   0  0  2  0  0  3  0  0  0  0  0  0
  160.6930  210.0330  155.6130 O   0  0  0  0  0  0  0  0  0  0  0  0
  160.9210  211.4080  155.4190 C   0  0  1  0  0  3  0  0  0  0  0  0
  159.9760  211.9300  154.3400 C   0  0  0  0  0  2  0  0  0  0  0  0
  160.2830  211.2160  153.0300 C   0  0  0  0  0  2  0  0  0  0  0  0
  160.3600  209.7000  153.2370 C   0  0  1  0  0  3  0  0  0  0  0  0
  161.2000  206.7840  154.9540 N   0  0  0  0  0  0  0  0  0  0  0  0
  161.2030  207.9220  154.7470 C   0  0  0  0  0  0  0  0  0  0  0  0
  160.6880  212.0910  156.6140 O   0  0  0  0  0  0  0  0  0  0  0  0
  159.7850  213.0990  156.2760 C   0  0  0  0  0  2  0  0  0  0  0  0
  158.5100  212.9230  157.0730 C   0  0  0  0  0  1  0  0  0  0  0  0
  1 29  1  0  0  0  0
  2  4  2  0  0  0  0
  2  7  1  0  0  0  0
  3  1  1  0  0  0  0
  4  9  1  0  0  0  0
  5  6  2  0  0  0  0
  5 10  1  0  0  0  0
  6  4  1  0  0  0  0
  7  3  2  0  0  0  0
  8  9  1  0  0  0  0
  9  1  2  0  0  0  0
 10  8  2  0  0  0  0
 11 17  1  0  0  0  0
 12 16  1  0  0  0  0
 14 13  1  0  0  0  0
 14 11  2  0  0  0  0
 15 12  2  0  0  0  0
 15 14  1  0  0  0  0
 16  7  1  0  0  0  0
 16 17  2  0  0  0  0
 18 20  1  0  0  0  0
 19 21  1  0  0  0  0
 19 18  1  0  0  0  0
 20 15  1  0  0  0  0
 21 18  1  0  0  0  0
 21 20  1  0  0  0  0
 22 19  1  0  0  0  0
 23 22  1  0  0  0  0
 24 31  1  0  0  0  0
 24 25  1  0  0  0  0
 26 25  1  0  0  0  0
 26 32  1  0  0  0  0
 27 26  1  0  0  0  0
 28 29  1  0  0  0  0
 28 27  1  0  0  0  0
 29 24  1  0  0  0  0
 31 30  3  0  0  0  0
 33 32  1  0  0  0  0
 33 34  1  0  0  0  0
M  END
>  <MODEL>
7

>  <REMARK>
 VINA RESULT:      -7.2      2.724      4.636
  Name = 
  7 active torsions:
  status: ('A' for Active; 'I' for Inactive)
    1  A    between atoms: C_1  and  C_34
    2  A    between atoms: C_2  and  C_32
    3  A    between atoms: O_3  and  C_13
    4  A    between atoms: O_3  and  C_25
    5  A    between atoms: C_11  and  C_15
    6  A    between atoms: C_18  and  C_30
    7  A    between atoms: C_26  and  C_28
                            x       y       z     vdW  Elec       q    Type
                         _______ _______ _______ _____ _____    ______ ____

>  <TORSDO>
F 7

$$$$
=
 OpenBabel11062409443D

 34 39  0  0  1  0  0  0  0  0999 V2000
  158.9080  211.4430  139.2320 C   0  0  0  0  0  0  0  0  0  0  0  0
  161.1180  210.3370  140.5730 C   0  0  0  0  0  3  0  0  0  0  0  0
  159.3780  212.0080  140.4220 C   0  0  0  0  0  3  0  0  0  0  0  0
  160.6680  209.7550  139.3880 C   0  0  0  0  0  0  0  0  0  0  0  0
  160.8810  208.0380  137.6940 C   0  0  0  0  0  3  0  0  0  0  0  0
  161.3220  208.6300  138.8800 C   0  0  0  0  0  3  0  0  0  0  0  0
  160.4790  211.4670  141.1040 C   0  0  0  0  0  0  0  0  0  0  0  0
  159.1260  209.6950  137.5120 C   0  0  0  0  0  3  0  0  0  0  0  0
  159.5560  210.3030  138.7030 C   0  0  0  0  0  0  0  0  0  0  0  0
  159.7850  208.5700  137.0110 C   0  0  0  0  0  3  0  0  0  0  0  0
  162.6720  213.2830  143.6050 C   0  0  0  0  0  3  0  0  0  0  0  0
  160.1650  212.0640  143.5180 C   0  0  0  0  0  3  0  0  0  0  0  0
  162.3890  213.9290  145.9840 C   0  0  0  0  0  1  0  0  0  0  0  0
  161.8760  213.2630  144.7530 C   0  0  0  0  0  0  0  0  0  0  0  0
  160.6140  212.6310  144.7200 C   0  0  0  0  0  0  0  0  0  0  0  0
  160.9620  212.0830  142.3630 C   0  0  0  0  0  0  0  0  0  0  0  0
  162.2220  212.6960  142.4220 C   0  0  0  0  0  3  0  0  0  0  0  0
  158.2980  212.5300  145.4970 N   0  0  2  0  0  0  0  0  0  0  0  0
  157.4980  213.4590  146.3160 C   0  0  2  0  0  3  0  0  0  0  0  0
  159.7090  212.6250  145.9230 C   0  0  2  0  0  3  0  0  0  0  0  0
  158.8660  213.8210  145.9680 C   0  0  1  0  0  3  0  0  0  0  0  0
  157.4110  212.9620  147.7520 C   0  0  0  0  0  2  0  0  0  0  0  0
  156.4850  213.7310  148.4550 O   0  0  0  0  0  1  0  0  0  0  0  0
  156.3810  211.7590  139.2620 C   0  0  2  0  0  3  0  0  0  0  0  0
  155.3190  212.4080  138.6050 O   0  0  0  0  0  0  0  0  0  0  0  0
  155.4650  213.7860  138.8480 C   0  0  1  0  0  3  0  0  0  0  0  0
  156.6480  214.3190  138.0450 C   0  0  0  0  0  2  0  0  0  0  0  0
  157.9180  213.6230  138.5190 C   0  0  0  0  0  2  0  0  0  0  0  0
  157.7220  212.1060  138.5780 C   0  0  1  0  0  3  0  0  0  0  0  0
  155.9500  209.1700  139.2110 N   0  0  0  0  0  0  0  0  0  0  0  0
  156.1400  210.3110  139.2330 C   0  0  0  0  0  0  0  0  0  0  0  0
  154.3010  214.4520  138.4620 O   0  0  0  0  0  0  0  0  0  0  0  0
  153.4960  214.4490  139.6020 C   0  0  0  0  0  2  0  0  0  0  0  0
  152.2710  213.5950  139.3530 C   0  0  0  0  0  1  0  0  0  0  0  0
  1  3  1  0  0  0  0
  2  7  1  0  0  0  0
  3  7  2  0  0  0  0
  4  2  2  0  0  0  0
  5  6  2  0  0  0  0
  6  4  1  0  0  0  0
  7 16  1  0  0  0  0
  8  9  1  0  0  0  0
  9  1  2  0  0  0  0
  9  4  1  0  0  0  0
 10  8  2  0  0  0  0
 10  5  1  0  0  0  0
 11 14  1  0  0  0  0
 12 15  1  0  0  0  0
 14 13  1  0  0  0  0
 15 14  2  0  0  0  0
 15 20  1  0  0  0  0
 16 17  1  0  0  0  0
 16 12  2  0  0  0  0
 17 11  2  0  0  0  0
 18 20  1  0  0  0  0
 18 21  1  0  0  0  0
 18 19  1  0  0  0  0
 19 22  1  0  0  0  0
 20 21  1  0  0  0  0
 21 19  1  0  0  0  0
 22 23  1  0  0  0  0
 25 26  1  0  0  0  0
 25 24  1  0  0  0  0
 27 28  1  0  0  0  0
 27 26  1  0  0  0  0
 28 29  1  0  0  0  0
 29  1  1  0  0  0  0
 29 24  1  0  0  0  0
 30 31  3  0  0  0  0
 31 24  1  0  0  0  0
 32 26  1  0  0  0  0
 32 33  1  0  0  0  0
 34 33  1  0  0  0  0
M  END
>  <MODEL>
8

>  <REMARK>
 VINA RESULT:      -6.2      8.217     12.867
  Name = 
  7 active torsions:
  status: ('A' for Active; 'I' for Inactive)
    1  A    between atoms: C_1  and  C_34
    2  A    between atoms: C_2  and  C_32
    3  A    between atoms: O_3  and  C_13
    4  A    between atoms: O_3  and  C_25
    5  A    between atoms: C_11  and  C_15
    6  A    between atoms: C_18  and  C_30
    7  A    between atoms: C_26  and  C_28
                            x       y       z     vdW  Elec       q    Type
                         _______ _______ _______ _____ _____    ______ ____

>  <TORSDO>
F 7

$$$$
=
 OpenBabel11062409443D

 34 39  0  0  1  0  0  0  0  0999 V2000
  162.1370  207.1760  149.3710 C   0  0  0  0  0  0  0  0  0  0  0  0
  161.7860  209.6590  150.6420 C   0  0  0  0  0  3  0  0  0  0  0  0
  162.1410  208.3640  148.6330 C   0  0  0  0  0  3  0  0  0  0  0  0
  161.7770  208.4880  151.4000 C   0  0  0  0  0  0  0  0  0  0  0  0
  161.5850  207.3980  153.5540 C   0  0  0  0  0  3  0  0  0  0  0  0
  161.5950  208.5630  152.7840 C   0  0  0  0  0  3  0  0  0  0  0  0
  161.9670  209.6110  149.2520 C   0  0  0  0  0  0  0  0  0  0  0  0
  161.9400  206.0700  151.5620 C   0  0  0  0  0  3  0  0  0  0  0  0
  161.9530  207.2320  150.7720 C   0  0  0  0  0  0  0  0  0  0  0  0
  161.7560  206.1530  152.9440 C   0  0  0  0  0  3  0  0  0  0  0  0
  163.1870  212.5460  147.1880 C   0  0  0  0  0  3  0  0  0  0  0  0
  160.7820  211.5410  148.1780 C   0  0  0  0  0  3  0  0  0  0  0  0
  162.0520  214.4510  146.0760 C   0  0  0  0  0  1  0  0  0  0  0  0
  161.9950  213.2220  146.9190 C   0  0  0  0  0  0  0  0  0  0  0  0
  160.7770  212.7300  147.4330 C   0  0  0  0  0  0  0  0  0  0  0  0
  161.9770  210.8580  148.4510 C   0  0  0  0  0  0  0  0  0  0  0  0
  163.1800  211.3760  147.9500 C   0  0  0  0  0  3  0  0  0  0  0  0
  158.3650  212.4230  147.1720 N   0  0  2  0  0  0  0  0  0  0  0  0
  157.4620  212.6820  146.0360 C   0  0  2  0  0  3  0  0  0  0  0  0
  159.4670  213.4060  147.1300 C   0  0  2  0  0  3  0  0  0  0  0  0
  158.8900  212.9230  145.8740 C   0  0  1  0  0  3  0  0  0  0  0  0
  156.7070  213.9870  146.2440 C   0  0  0  0  0  2  0  0  0  0  0  0
  155.7330  214.1240  145.2560 O   0  0  0  0  0  1  0  0  0  0  0  0
  161.0340  205.0870  148.4210 C   0  0  2  0  0  3  0  0  0  0  0  0
  161.2910  203.9040  147.7030 O   0  0  0  0  0  0  0  0  0  0  0  0
  161.6330  204.2840  146.3920 C   0  0  1  0  0  3  0  0  0  0  0  0
  163.0250  204.9110  146.3930 C   0  0  0  0  0  2  0  0  0  0  0  0
  162.9970  206.1680  147.2530 C   0  0  0  0  0  2  0  0  0  0  0  0
  162.3390  205.8920  148.6070 C   0  0  1  0  0  3  0  0  0  0  0  0
  159.9890  204.4520  150.7440 N   0  0  0  0  0  0  0  0  0  0  0  0
  160.4490  204.7320  149.7200 C   0  0  0  0  0  0  0  0  0  0  0  0
  161.6280  203.1590  145.5650 O   0  0  0  0  0  0  0  0  0  0  0  0
  160.8390  202.2270  146.2400 C   0  0  0  0  0  2  0  0  0  0  0  0
  160.1450  201.3320  145.2350 C   0  0  0  0  0  1  0  0  0  0  0  0
  1  9  1  0  0  0  0
  2  4  1  0  0  0  0
  3  7  1  0  0  0  0
  3  1  2  0  0  0  0
  4  6  1  0  0  0  0
  6  5  2  0  0  0  0
  7  2  2  0  0  0  0
  8 10  2  0  0  0  0
  9  4  2  0  0  0  0
  9  8  1  0  0  0  0
 10  5  1  0  0  0  0
 11 17  1  0  0  0  0
 12 16  1  0  0  0  0
 13 14  1  0  0  0  0
 14 11  2  0  0  0  0
 14 15  1  0  0  0  0
 15 12  2  0  0  0  0
 16  7  1  0  0  0  0
 17 16  2  0  0  0  0
 19 22  1  0  0  0  0
 19 18  1  0  0  0  0
 20 18  1  0  0  0  0
 20 15  1  0  0  0  0
 21 19  1  0  0  0  0
 21 20  1  0  0  0  0
 21 18  1  0  0  0  0
 23 22  1  0  0  0  0
 24 29  1  0  0  0  0
 24 31  1  0  0  0  0
 25 24  1  0  0  0  0
 26 27  1  0  0  0  0
 26 25  1  0  0  0  0
 27 28  1  0  0  0  0
 28 29  1  0  0  0  0
 29  1  1  0  0  0  0
 31 30  3  0  0  0  0
 32 33  1  0  0  0  0
 32 26  1  0  0  0  0
 34 33  1  0  0  0  0
M  END
>  <MODEL>
9

>  <REMARK>
 VINA RESULT:      -6.2      2.876      7.817
  Name = 
  7 active torsions:
  status: ('A' for Active; 'I' for Inactive)
    1  A    between atoms: C_1  and  C_34
    2  A    between atoms: C_2  and  C_32
    3  A    between atoms: O_3  and  C_13
    4  A    between atoms: O_3  and  C_25
    5  A    between atoms: C_11  and  C_15
    6  A    between atoms: C_18  and  C_30
    7  A    between atoms: C_26  and  C_28
                            x       y       z     vdW  Elec       q    Type
                         _______ _______ _______ _____ _____    ______ ____

>  <TORSDO>
F 7

$$$$
