=
 OpenBabel11062407413D

 27 31  0  0  1  0  0  0  0  0999 V2000
  161.3070  209.4030  151.9450 C   0  0  0  0  0  3  0  0  0  0  0  0
  161.6330  208.0750  149.9080 N   0  0  0  0  0  0  0  0  0  0  0  0
  162.3930  206.4990  151.6730 C   0  0  0  0  0  2  0  0  0  0  0  0
  161.0030  208.0650  148.7440 N   0  0  0  0  0  0  0  0  0  0  0  0
  160.3930  207.2900  154.7900 C   0  0  2  0  0  3  0  0  0  0  0  0
  162.0580  209.2630  150.6500 C   0  0  1  0  0  3  0  0  0  0  0  0
  161.2420  205.9570  149.4160 C   0  0  0  0  0  0  0  0  0  0  0  0
  161.1400  208.4330  152.8530 C   0  0  0  0  0  0  0  0  0  0  0  0
  161.7980  206.8190  150.3430 C   0  0  0  0  0  0  0  0  0  0  0  0
  161.2250  206.3370  153.9230 C   0  0  0  0  0  2  0  0  0  0  0  0
  160.7500  206.7810  148.4100 C   0  0  0  0  0  3  0  0  0  0  0  0
  160.4040  208.6620  154.1120 C   0  0  0  0  0  2  0  0  0  0  0  0
  161.5830  207.0820  152.7340 N   0  0  0  0  0  0  0  0  0  0  0  0
  161.2840  203.7360  148.2820 C   0  0  0  0  0  3  0  0  0  0  0  0
  160.9690  201.6800  149.5220 C   0  0  0  0  0  3  0  0  0  0  0  0
  160.8310  202.4150  150.7010 C   0  0  0  0  0  3  0  0  0  0  0  0
  160.9200  203.8090  150.6710 C   0  0  0  0  0  3  0  0  0  0  0  0
  161.1460  204.4830  149.4610 C   0  0  0  0  0  0  0  0  0  0  0  0
  161.1950  202.3410  148.3110 C   0  0  0  0  0  3  0  0  0  0  0  0
  161.8400  212.8870  148.3420 C   0  0  0  0  0  3  0  0  0  0  0  0
  161.9840  210.5150  149.8260 C   0  0  0  0  0  0  0  0  0  0  0  0
  161.1970  211.5810  150.2780 C   0  0  0  0  0  3  0  0  0  0  0  0
  161.1230  212.7640  149.5370 C   0  0  0  0  0  3  0  0  0  0  0  0
  162.6320  211.8290  147.8890 C   0  0  0  0  0  3  0  0  0  0  0  0
  162.7060  210.6460  148.6290 C   0  0  0  0  0  3  0  0  0  0  0  0
  160.0810  206.9530  157.1320 O   0  0  0  0  0  1  0  0  0  0  0  0
  160.9960  207.4030  156.1780 C   0  0  0  0  0  2  0  0  0  0  0  0
  1  8  2  0  0  0  0
  2  9  1  0  0  0  0
  2  6  1  0  0  0  0
  3 13  1  0  0  0  0
  4  2  1  0  0  0  0
  5 27  1  1  0  0  0
  6 21  1  6  0  0  0
  6  1  1  0  0  0  0
  7 18  1  0  0  0  0
  7  9  2  0  0  0  0
  8 12  1  0  0  0  0
  9  3  1  0  0  0  0
 10  5  1  0  0  0  0
 11  4  2  0  0  0  0
 11  7  1  0  0  0  0
 12  5  1  0  0  0  0
 13  8  1  0  0  0  0
 13 10  1  0  0  0  0
 14 19  2  0  0  0  0
 14 18  1  0  0  0  0
 15 16  2  0  0  0  0
 17 16  1  0  0  0  0
 18 17  2  0  0  0  0
 19 15  1  0  0  0  0
 20 23  1  0  0  0  0
 21 22  1  0  0  0  0
 23 22  2  0  0  0  0
 24 20  2  0  0  0  0
 24 25  1  0  0  0  0
 25 21  2  0  0  0  0
 27 26  1  0  0  0  0
M  END
>  <MODEL>
1

>  <REMARK>
 VINA RESULT:      -8.7      0.000      0.000
  Name = 
  3 active torsions:
  status: ('A' for Active; 'I' for Inactive)
    1  A    between atoms: C_9  and  C_15
    2  A    between atoms: C_13  and  C_22
    3  A    between atoms: C_14  and  C_17
                            x       y       z     vdW  Elec       q    Type
                         _______ _______ _______ _____ _____    ______ ____

>  <TORSDO>
F 3

$$$$
=
 OpenBabel11062407413D

 27 31  0  0  1  0  0  0  0  0999 V2000
  161.5580  208.7570  152.3260 C   0  0  0  0  0  3  0  0  0  0  0  0
  160.9970  206.3700  152.4230 N   0  0  0  0  0  0  0  0  0  0  0  0
  160.2430  206.9810  150.1340 C   0  0  0  0  0  2  0  0  0  0  0  0
  161.5440  205.3550  153.0720 N   0  0  0  0  0  0  0  0  0  0  0  0
  162.5030  209.7750  148.9390 C   0  0  2  0  0  3  0  0  0  0  0  0
  160.7130  207.6970  152.9750 C   0  0  1  0  0  3  0  0  0  0  0  0
  161.1950  204.7200  150.9680 C   0  0  0  0  0  0  0  0  0  0  0  0
  161.7140  208.9250  151.0060 C   0  0  0  0  0  0  0  0  0  0  0  0
  160.7690  206.0230  151.1500 C   0  0  0  0  0  0  0  0  0  0  0  0
  161.5450  208.6050  148.6790 C   0  0  0  0  0  2  0  0  0  0  0  0
  161.6780  204.3240  152.2090 C   0  0  0  0  0  3  0  0  0  0  0  0
  162.5480  210.0090  150.4510 C   0  0  0  0  0  2  0  0  0  0  0  0
  161.1650  208.1000  149.9810 N   0  0  0  0  0  0  0  0  0  0  0  0
  160.8030  202.5550  149.7920 C   0  0  0  0  0  3  0  0  0  0  0  0
  161.1530  202.3330  147.4070 C   0  0  0  0  0  3  0  0  0  0  0  0
  161.5320  203.6750  147.3400 C   0  0  0  0  0  3  0  0  0  0  0  0
  161.5470  204.4570  148.4980 C   0  0  0  0  0  3  0  0  0  0  0  0
  161.1830  203.9040  149.7350 C   0  0  0  0  0  0  0  0  0  0  0  0
  160.7890  201.7720  148.6340 C   0  0  0  0  0  3  0  0  0  0  0  0
  161.0420  207.8690  157.2610 C   0  0  0  0  0  3  0  0  0  0  0  0
  160.8250  207.7350  154.4710 C   0  0  0  0  0  0  0  0  0  0  0  0
  161.6870  208.6630  155.0650 C   0  0  0  0  0  3  0  0  0  0  0  0
  161.7970  208.7300  156.4570 C   0  0  0  0  0  3  0  0  0  0  0  0
  160.1750  206.9440  156.6730 C   0  0  0  0  0  3  0  0  0  0  0  0
  160.0640  206.8770  155.2820 C   0  0  0  0  0  3  0  0  0  0  0  0
  163.0010  212.0080  148.2580 O   0  0  0  0  0  1  0  0  0  0  0  0
  162.0050  211.0300  148.2450 C   0  0  0  0  0  2  0  0  0  0  0  0
  1  6  1  0  0  0  0
  2  6  1  0  0  0  0
  2  4  1  0  0  0  0
  3  9  1  0  0  0  0
  5 27  1  6  0  0  0
  5 12  1  0  0  0  0
  6 21  1  1  0  0  0
  7  9  2  0  0  0  0
  7 11  1  0  0  0  0
  8  1  2  0  0  0  0
  9  2  1  0  0  0  0
 10  5  1  0  0  0  0
 10 13  1  0  0  0  0
 11  4  2  0  0  0  0
 12  8  1  0  0  0  0
 13  3  1  0  0  0  0
 13  8  1  0  0  0  0
 15 19  1  0  0  0  0
 16 15  2  0  0  0  0
 16 17  1  0  0  0  0
 17 18  2  0  0  0  0
 18 14  1  0  0  0  0
 18  7  1  0  0  0  0
 19 14  2  0  0  0  0
 21 22  2  0  0  0  0
 21 25  1  0  0  0  0
 22 23  1  0  0  0  0
 23 20  2  0  0  0  0
 24 20  1  0  0  0  0
 25 24  2  0  0  0  0
 27 26  1  0  0  0  0
M  END
>  <MODEL>
2

>  <REMARK>
 VINA RESULT:      -8.4      2.389      5.493
  Name = 
  3 active torsions:
  status: ('A' for Active; 'I' for Inactive)
    1  A    between atoms: C_9  and  C_15
    2  A    between atoms: C_13  and  C_22
    3  A    between atoms: C_14  and  C_17
                            x       y       z     vdW  Elec       q    Type
                         _______ _______ _______ _____ _____    ______ ____

>  <TORSDO>
F 3

$$$$
=
 OpenBabel11062407413D

 27 31  0  0  1  0  0  0  0  0999 V2000
  160.9350  207.1580  152.2210 C   0  0  0  0  0  3  0  0  0  0  0  0
  161.1730  209.5890  152.4620 N   0  0  0  0  0  0  0  0  0  0  0  0
  162.3930  209.1630  150.3390 C   0  0  0  0  0  2  0  0  0  0  0  0
  160.3990  210.5060  153.0190 N   0  0  0  0  0  0  0  0  0  0  0  0
  160.7430  206.1740  148.7010 C   0  0  2  0  0  3  0  0  0  0  0  0
  161.5140  208.2840  153.0320 C   0  0  1  0  0  3  0  0  0  0  0  0
  161.0380  211.2620  151.0260 C   0  0  0  0  0  0  0  0  0  0  0  0
  161.0400  207.0270  150.8930 C   0  0  0  0  0  0  0  0  0  0  0  0
  161.5800  210.0110  151.2590 C   0  0  0  0  0  0  0  0  0  0  0  0
  161.5810  207.4570  148.6420 C   0  0  0  0  0  2  0  0  0  0  0  0
  160.2950  211.5480  152.1660 C   0  0  0  0  0  3  0  0  0  0  0  0
  160.4570  205.8750  150.1750 C   0  0  0  0  0  2  0  0  0  0  0  0
  161.6580  207.9510  150.0000 N   0  0  0  0  0  0  0  0  0  0  0  0
  160.4560  213.3280  149.7550 C   0  0  0  0  0  3  0  0  0  0  0  0
  161.4020  213.7740  147.5720 C   0  0  0  0  0  3  0  0  0  0  0  0
  162.1170  212.5770  147.6390 C   0  0  0  0  0  3  0  0  0  0  0  0
  162.0010  211.7540  148.7630 C   0  0  0  0  0  3  0  0  0  0  0  0
  161.1690  212.1220  149.8320 C   0  0  0  0  0  0  0  0  0  0  0  0
  160.5710  214.1510  148.6310 C   0  0  0  0  0  3  0  0  0  0  0  0
  160.4520  207.9010  157.1840 C   0  0  0  0  0  3  0  0  0  0  0  0
  161.1430  208.1730  154.4820 C   0  0  0  0  0  0  0  0  0  0  0  0
  160.3650  207.0890  154.9040 C   0  0  0  0  0  3  0  0  0  0  0  0
  160.0180  206.9530  156.2510 C   0  0  0  0  0  3  0  0  0  0  0  0
  161.2330  208.9830  156.7690 C   0  0  0  0  0  3  0  0  0  0  0  0
  161.5810  209.1190  155.4230 C   0  0  0  0  0  3  0  0  0  0  0  0
  161.1960  203.8310  148.7570 O   0  0  0  0  0  1  0  0  0  0  0  0
  161.5070  205.0150  148.0860 C   0  0  0  0  0  2  0  0  0  0  0  0
  1  6  1  0  0  0  0
  2  4  1  0  0  0  0
  2  6  1  0  0  0  0
  3  9  1  0  0  0  0
  5 27  1  1  0  0  0
  5 12  1  0  0  0  0
  6 21  1  1  0  0  0
  7  9  2  0  0  0  0
  7 11  1  0  0  0  0
  8  1  2  0  0  0  0
  9  2  1  0  0  0  0
 10  5  1  0  0  0  0
 10 13  1  0  0  0  0
 11  4  2  0  0  0  0
 12  8  1  0  0  0  0
 13  3  1  0  0  0  0
 13  8  1  0  0  0  0
 14 18  1  0  0  0  0
 15 16  2  0  0  0  0
 15 19  1  0  0  0  0
 16 17  1  0  0  0  0
 17 18  2  0  0  0  0
 18  7  1  0  0  0  0
 19 14  2  0  0  0  0
 21 22  2  0  0  0  0
 21 25  1  0  0  0  0
 22 23  1  0  0  0  0
 23 20  2  0  0  0  0
 24 20  1  0  0  0  0
 25 24  2  0  0  0  0
 27 26  1  0  0  0  0
M  END
>  <MODEL>
3

>  <REMARK>
 VINA RESULT:      -7.2      2.348      7.229
  Name = 
  3 active torsions:
  status: ('A' for Active; 'I' for Inactive)
    1  A    between atoms: C_9  and  C_15
    2  A    between atoms: C_13  and  C_22
    3  A    between atoms: C_14  and  C_17
                            x       y       z     vdW  Elec       q    Type
                         _______ _______ _______ _____ _____    ______ ____

>  <TORSDO>
F 3

$$$$
=
 OpenBabel11062407413D

 27 31  0  0  1  0  0  0  0  0999 V2000
  160.9900  207.0720  151.9010 C   0  0  0  0  0  3  0  0  0  0  0  0
  161.2830  209.4970  152.1340 N   0  0  0  0  0  0  0  0  0  0  0  0
  162.5200  209.0320  150.0280 C   0  0  0  0  0  2  0  0  0  0  0  0
  160.5230  210.4360  152.6760 N   0  0  0  0  0  0  0  0  0  0  0  0
  160.8200  206.0740  148.3840 C   0  0  2  0  0  3  0  0  0  0  0  0
  161.5850  208.1880  152.7140 C   0  0  1  0  0  3  0  0  0  0  0  0
  161.2060  211.1660  150.6880 C   0  0  0  0  0  0  0  0  0  0  0  0
  161.1080  206.9320  150.5750 C   0  0  0  0  0  0  0  0  0  0  0  0
  161.7160  209.9040  150.9340 C   0  0  0  0  0  0  0  0  0  0  0  0
  161.6890  207.3370  148.3290 C   0  0  0  0  0  2  0  0  0  0  0  0
  160.4570  211.4760  151.8160 C   0  0  0  0  0  3  0  0  0  0  0  0
  160.5080  205.7910  149.8550 C   0  0  0  0  0  2  0  0  0  0  0  0
  161.7600  207.8360  149.6860 N   0  0  0  0  0  0  0  0  0  0  0  0
  162.4720  211.8200  148.6400 C   0  0  0  0  0  3  0  0  0  0  0  0
  161.7150  213.6200  147.2100 C   0  0  0  0  0  3  0  0  0  0  0  0
  160.6180  213.8230  148.0500 C   0  0  0  0  0  3  0  0  0  0  0  0
  160.4480  213.0250  149.1840 C   0  0  0  0  0  3  0  0  0  0  0  0
  161.3740  212.0160  149.4910 C   0  0  0  0  0  0  0  0  0  0  0  0
  162.6430  212.6180  147.5050 C   0  0  0  0  0  3  0  0  0  0  0  0
  160.4530  207.9820  156.8600 C   0  0  0  0  0  3  0  0  0  0  0  0
  161.1920  208.0930  154.1600 C   0  0  0  0  0  0  0  0  0  0  0  0
  161.5650  209.1200  155.0340 C   0  0  0  0  0  3  0  0  0  0  0  0
  161.1980  209.0650  156.3820 C   0  0  0  0  0  3  0  0  0  0  0  0
  160.0740  206.9560  155.9900 C   0  0  0  0  0  3  0  0  0  0  0  0
  160.4400  207.0110  154.6430 C   0  0  0  0  0  3  0  0  0  0  0  0
  162.4270  205.3360  146.7810 O   0  0  0  0  0  1  0  0  0  0  0  0
  161.5630  204.8950  147.7850 C   0  0  0  0  0  2  0  0  0  0  0  0
  1  6  1  0  0  0  0
  2  4  1  0  0  0  0
  2  6  1  0  0  0  0
  3  9  1  0  0  0  0
  5 27  1  1  0  0  0
  5 12  1  0  0  0  0
  6 21  1  1  0  0  0
  7  9  2  0  0  0  0
  7 11  1  0  0  0  0
  8  1  2  0  0  0  0
  9  2  1  0  0  0  0
 10  5  1  0  0  0  0
 10 13  1  0  0  0  0
 11  4  2  0  0  0  0
 12  8  1  0  0  0  0
 13  3  1  0  0  0  0
 13  8  1  0  0  0  0
 14 18  1  0  0  0  0
 15 19  1  0  0  0  0
 15 16  2  0  0  0  0
 16 17  1  0  0  0  0
 17 18  2  0  0  0  0
 18  7  1  0  0  0  0
 19 14  2  0  0  0  0
 21 25  2  0  0  0  0
 21 22  1  0  0  0  0
 22 23  2  0  0  0  0
 23 20  1  0  0  0  0
 24 20  2  0  0  0  0
 25 24  1  0  0  0  0
 26 27  1  0  0  0  0
M  END
>  <MODEL>
4

>  <REMARK>
 VINA RESULT:      -6.9      2.589      7.203
  Name = 
  3 active torsions:
  status: ('A' for Active; 'I' for Inactive)
    1  A    between atoms: C_9  and  C_15
    2  A    between atoms: C_13  and  C_22
    3  A    between atoms: C_14  and  C_17
                            x       y       z     vdW  Elec       q    Type
                         _______ _______ _______ _____ _____    ______ ____

>  <TORSDO>
F 3

$$$$
=
 OpenBabel11062407413D

 27 31  0  0  1  0  0  0  0  0999 V2000
  161.8110  208.1030  147.8950 C   0  0  0  0  0  3  0  0  0  0  0  0
  161.5810  206.5470  149.7780 N   0  0  0  0  0  0  0  0  0  0  0  0
  162.7080  208.4850  150.8510 C   0  0  0  0  0  2  0  0  0  0  0  0
  160.6820  205.6160  150.0570 N   0  0  0  0  0  0  0  0  0  0  0  0
  161.5690  211.5850  148.9970 C   0  0  2  0  0  3  0  0  0  0  0  0
  162.2130  206.7770  148.4770 C   0  0  1  0  0  3  0  0  0  0  0  0
  161.0170  206.8230  151.8960 C   0  0  0  0  0  0  0  0  0  0  0  0
  161.8450  209.2750  148.5410 C   0  0  0  0  0  0  0  0  0  0  0  0
  161.8110  207.2930  150.8660 C   0  0  0  0  0  0  0  0  0  0  0  0
  162.1310  210.8820  150.2390 C   0  0  0  0  0  2  0  0  0  0  0  0
  160.3160  205.7550  151.3490 C   0  0  0  0  0  3  0  0  0  0  0  0
  161.4520  210.5390  147.8860 C   0  0  0  0  0  2  0  0  0  0  0  0
  162.2040  209.4750  149.9070 N   0  0  0  0  0  0  0  0  0  0  0  0
  160.8310  208.7170  153.5090 C   0  0  0  0  0  3  0  0  0  0  0  0
  160.6540  208.3310  155.8920 C   0  0  0  0  0  3  0  0  0  0  0  0
  160.7130  206.9530  155.6720 C   0  0  0  0  0  3  0  0  0  0  0  0
  160.8310  206.4570  154.3710 C   0  0  0  0  0  3  0  0  0  0  0  0
  160.8920  207.3340  153.2770 C   0  0  0  0  0  0  0  0  0  0  0  0
  160.7130  209.2130  154.8100 C   0  0  0  0  0  3  0  0  0  0  0  0
  161.5670  203.5790  145.6720 C   0  0  0  0  0  3  0  0  0  0  0  0
  161.9740  205.6510  147.5130 C   0  0  0  0  0  0  0  0  0  0  0  0
  161.9640  205.9220  146.1400 C   0  0  0  0  0  3  0  0  0  0  0  0
  161.7590  204.8890  145.2210 C   0  0  0  0  0  3  0  0  0  0  0  0
  161.5810  203.3020  147.0410 C   0  0  0  0  0  3  0  0  0  0  0  0
  161.7860  204.3340  147.9610 C   0  0  0  0  0  3  0  0  0  0  0  0
  163.4290  212.2030  147.6360 O   0  0  0  0  0  1  0  0  0  0  0  0
  162.5000  212.6980  148.5530 C   0  0  0  0  0  2  0  0  0  0  0  0
  1  6  1  0  0  0  0
  1  8  2  0  0  0  0
  2  4  1  0  0  0  0
  2  9  1  0  0  0  0
  3  9  1  0  0  0  0
  4 11  2  0  0  0  0
  5 27  1  6  0  0  0
  5 10  1  0  0  0  0
  6 21  1  6  0  0  0
  6  2  1  0  0  0  0
  7 18  1  0  0  0  0
  8 13  1  0  0  0  0
  9  7  2  0  0  0  0
 11  7  1  0  0  0  0
 12  8  1  0  0  0  0
 12  5  1  0  0  0  0
 13 10  1  0  0  0  0
 13  3  1  0  0  0  0
 14 19  1  0  0  0  0
 16 15  1  0  0  0  0
 17 16  2  0  0  0  0
 18 14  2  0  0  0  0
 18 17  1  0  0  0  0
 19 15  2  0  0  0  0
 20 24  1  0  0  0  0
 21 25  1  0  0  0  0
 22 21  2  0  0  0  0
 23 20  2  0  0  0  0
 23 22  1  0  0  0  0
 24 25  2  0  0  0  0
 26 27  1  0  0  0  0
M  END
>  <MODEL>
5

>  <REMARK>
 VINA RESULT:      -6.8      2.704      6.468
  Name = 
  3 active torsions:
  status: ('A' for Active; 'I' for Inactive)
    1  A    between atoms: C_9  and  C_15
    2  A    between atoms: C_13  and  C_22
    3  A    between atoms: C_14  and  C_17
                            x       y       z     vdW  Elec       q    Type
                         _______ _______ _______ _____ _____    ______ ____

>  <TORSDO>
F 3

$$$$
=
 OpenBabel11062407413D

 27 31  0  0  1  0  0  0  0  0999 V2000
  161.7440  207.6910  149.7700 C   0  0  0  0  0  3  0  0  0  0  0  0
  161.4220  207.4090  152.1860 N   0  0  0  0  0  0  0  0  0  0  0  0
  162.7200  209.5270  152.0860 C   0  0  0  0  0  2  0  0  0  0  0  0
  160.4560  206.8450  152.8940 N   0  0  0  0  0  0  0  0  0  0  0  0
  161.8000  211.2280  148.8300 C   0  0  2  0  0  3  0  0  0  0  0  0
  162.0470  206.8560  150.9830 C   0  0  1  0  0  3  0  0  0  0  0  0
  160.9190  208.8200  153.8100 C   0  0  0  0  0  0  0  0  0  0  0  0
  161.8830  209.0200  149.6890 C   0  0  0  0  0  0  0  0  0  0  0  0
  161.7300  208.6020  152.7120 C   0  0  0  0  0  0  0  0  0  0  0  0
  162.3260  211.2590  150.2710 C   0  0  0  0  0  2  0  0  0  0  0  0
  160.1240  207.6830  153.9010 C   0  0  0  0  0  3  0  0  0  0  0  0
  161.5810  209.7610  148.4480 C   0  0  0  0  0  2  0  0  0  0  0  0
  162.2800  209.8920  150.7450 N   0  0  0  0  0  0  0  0  0  0  0  0
  160.0460  211.0910  154.3590 C   0  0  0  0  0  3  0  0  0  0  0  0
  160.7280  212.2530  156.3710 C   0  0  0  0  0  3  0  0  0  0  0  0
  161.5390  211.1710  156.7180 C   0  0  0  0  0  3  0  0  0  0  0  0
  161.6040  210.0490  155.8870 C   0  0  0  0  0  3  0  0  0  0  0  0
  160.8590  209.9990  154.6990 C   0  0  0  0  0  0  0  0  0  0  0  0
  159.9810  212.2140  155.1900 C   0  0  0  0  0  3  0  0  0  0  0  0
  161.0400  202.7120  150.4210 C   0  0  0  0  0  3  0  0  0  0  0  0
  161.7020  205.4120  150.7650 C   0  0  0  0  0  0  0  0  0  0  0  0
  161.9030  204.5000  151.8070 C   0  0  0  0  0  3  0  0  0  0  0  0
  161.5750  203.1520  151.6360 C   0  0  0  0  0  3  0  0  0  0  0  0
  160.8310  203.6190  149.3790 C   0  0  0  0  0  3  0  0  0  0  0  0
  161.1590  204.9660  149.5490 C   0  0  0  0  0  3  0  0  0  0  0  0
  162.9440  213.2140  148.1650 O   0  0  0  0  0  1  0  0  0  0  0  0
  162.8100  211.8530  147.8850 C   0  0  0  0  0  2  0  0  0  0  0  0
  1  6  1  0  0  0  0
  2  9  1  0  0  0  0
  2  4  1  0  0  0  0
  3  9  1  0  0  0  0
  4 11  2  0  0  0  0
  5 27  1  6  0  0  0
  5 10  1  0  0  0  0
  6 21  1  6  0  0  0
  6  2  1  0  0  0  0
  7 11  1  0  0  0  0
  7 18  1  0  0  0  0
  8  1  2  0  0  0  0
  8 13  1  0  0  0  0
  9  7  2  0  0  0  0
 10 13  1  0  0  0  0
 12  5  1  0  0  0  0
 12  8  1  0  0  0  0
 13  3  1  0  0  0  0
 14 18  2  0  0  0  0
 14 19  1  0  0  0  0
 15 16  1  0  0  0  0
 17 16  2  0  0  0  0
 18 17  1  0  0  0  0
 19 15  2  0  0  0  0
 20 23  1  0  0  0  0
 21 22  1  0  0  0  0
 23 22  2  0  0  0  0
 24 25  1  0  0  0  0
 24 20  2  0  0  0  0
 25 21  2  0  0  0  0
 27 26  1  0  0  0  0
M  END
>  <MODEL>
6

>  <REMARK>
 VINA RESULT:      -6.2      2.815      7.489
  Name = 
  3 active torsions:
  status: ('A' for Active; 'I' for Inactive)
    1  A    between atoms: C_9  and  C_15
    2  A    between atoms: C_13  and  C_22
    3  A    between atoms: C_14  and  C_17
                            x       y       z     vdW  Elec       q    Type
                         _______ _______ _______ _____ _____    ______ ____

>  <TORSDO>
F 3

$$$$
=
 OpenBabel11062407413D

 27 31  0  0  1  0  0  0  0  0999 V2000
  161.3510  207.5200  153.0090 C   0  0  0  0  0  3  0  0  0  0  0  0
  161.3680  208.0920  150.6230 N   0  0  0  0  0  0  0  0  0  0  0  0
  160.4140  210.1520  151.6360 C   0  0  0  0  0  2  0  0  0  0  0  0
  162.1600  207.7260  149.6270 N   0  0  0  0  0  0  0  0  0  0  0  0
  161.9140  210.4720  155.0980 C   0  0  2  0  0  3  0  0  0  0  0  0
  160.8010  207.2100  151.6450 C   0  0  1  0  0  3  0  0  0  0  0  0
  161.8970  209.9330  149.5230 C   0  0  0  0  0  0  0  0  0  0  0  0
  161.4180  208.7390  153.5590 C   0  0  0  0  0  0  0  0  0  0  0  0
  161.1850  209.4180  150.5900 C   0  0  0  0  0  0  0  0  0  0  0  0
  161.2480  211.0700  153.8520 C   0  0  0  0  0  2  0  0  0  0  0  0
  162.5020  208.8310  148.9300 C   0  0  0  0  0  3  0  0  0  0  0  0
  161.9550  208.9530  154.9180 C   0  0  0  0  0  2  0  0  0  0  0  0
  161.0420  209.9660  152.9380 N   0  0  0  0  0  0  0  0  0  0  0  0
  163.1000  211.7180  148.2610 C   0  0  0  0  0  3  0  0  0  0  0  0
  162.3180  214.0090  148.2610 C   0  0  0  0  0  3  0  0  0  0  0  0
  161.2540  213.6430  149.0880 C   0  0  0  0  0  3  0  0  0  0  0  0
  161.1120  212.3160  149.5010 C   0  0  0  0  0  3  0  0  0  0  0  0
  162.0350  211.3400  149.0920 C   0  0  0  0  0  0  0  0  0  0  0  0
  163.2420  213.0460  147.8470 C   0  0  0  0  0  3  0  0  0  0  0  0
  161.2060  203.0290  150.7160 C   0  0  0  0  0  3  0  0  0  0  0  0
  160.9510  205.7580  151.3010 C   0  0  0  0  0  0  0  0  0  0  0  0
  161.2080  204.8390  152.3260 C   0  0  0  0  0  3  0  0  0  0  0  0
  161.3370  203.4780  152.0350 C   0  0  0  0  0  3  0  0  0  0  0  0
  160.9450  203.9410  149.6900 C   0  0  0  0  0  3  0  0  0  0  0  0
  160.8150  205.3020  149.9800 C   0  0  0  0  0  3  0  0  0  0  0  0
  159.7710  210.4830  156.1500 O   0  0  0  0  0  1  0  0  0  0  0  0
  161.1130  210.8160  156.3410 C   0  0  0  0  0  2  0  0  0  0  0  0
  1  8  2  0  0  0  0
  2  6  1  0  0  0  0
  3 13  1  0  0  0  0
  4  2  1  0  0  0  0
  5 27  1  1  0  0  0
  6 21  1  6  0  0  0
  6  1  1  0  0  0  0
  7  9  2  0  0  0  0
  8 12  1  0  0  0  0
  9  2  1  0  0  0  0
  9  3  1  0  0  0  0
 10  5  1  0  0  0  0
 11  7  1  0  0  0  0
 11  4  2  0  0  0  0
 12  5  1  0  0  0  0
 13  8  1  0  0  0  0
 13 10  1  0  0  0  0
 14 18  1  0  0  0  0
 15 16  2  0  0  0  0
 16 17  1  0  0  0  0
 18 17  2  0  0  0  0
 18  7  1  0  0  0  0
 19 15  1  0  0  0  0
 19 14  2  0  0  0  0
 20 23  1  0  0  0  0
 21 22  1  0  0  0  0
 23 22  2  0  0  0  0
 24 25  1  0  0  0  0
 24 20  2  0  0  0  0
 25 21  2  0  0  0  0
 26 27  1  0  0  0  0
M  END
>  <MODEL>
7

>  <REMARK>
 VINA RESULT:      -6.0      1.684      6.385
  Name = 
  3 active torsions:
  status: ('A' for Active; 'I' for Inactive)
    1  A    between atoms: C_9  and  C_15
    2  A    between atoms: C_13  and  C_22
    3  A    between atoms: C_14  and  C_17
                            x       y       z     vdW  Elec       q    Type
                         _______ _______ _______ _____ _____    ______ ____

>  <TORSDO>
F 3

$$$$
