=
 OpenBabel11062410353D

 43 47  0  0  1  0  0  0  0  0999 V2000
  161.2640  206.9420  149.6160 N   0  0  0  0  0  0  0  0  0  0  0  0
  161.1860  201.7330  148.5860 C   0  0  0  0  0  0  0  0  0  0  0  0
  161.0430  203.9130  147.4260 C   0  0  2  0  0  3  0  0  0  0  0  0
  160.5610  202.3990  149.7520 C   0  0  0  0  0  3  0  0  0  0  0  0
  161.2740  200.4780  148.5590 O   0  0  0  0  0  0  0  0  0  0  0  0
  161.2030  204.5610  148.7790 C   0  0  2  0  0  3  0  0  0  0  0  0
  161.7280  202.5490  147.4380 C   0  0  0  0  0  2  0  0  0  0  0  0
  160.5250  203.7360  149.8330 C   0  0  0  0  0  3  0  0  0  0  0  0
  160.6940  205.9890  148.6400 C   0  0  2  0  0  3  0  0  0  0  0  0
  161.0440  206.5380  146.9280 S   0  0  0  0  0  0  0  0  0  0  0  0
  161.6270  204.8810  146.4310 C   0  0  0  0  0  2  0  0  0  0  0  0
  161.8210  206.2460  150.7850 C   0  0  1  0  0  3  0  0  0  0  0  0
  162.8640  206.9900  151.3460 O   0  0  0  0  0  1  0  0  0  0  0  0
  160.7480  206.0580  151.8520 C   0  0  0  0  0  2  0  0  0  0  0  0
  160.6100  209.4280  153.5740 C   0  0  0  0  0  0  0  0  0  0  0  0
  161.0300  209.0950  154.8710 C   0  0  0  0  0  0  0  0  0  0  0  0
  161.1190  210.0430  155.8350 F   0  0  0  0  0  0  0  0  0  0  0  0
  161.2770  206.7820  154.1900 C   0  0  0  0  0  3  0  0  0  0  0  0
  160.5280  208.4370  152.5910 C   0  0  0  0  0  3  0  0  0  0  0  0
  160.8610  207.1140  152.8970 C   0  0  0  0  0  0  0  0  0  0  0  0
  160.2330  210.8290  153.2340 C   0  0  0  0  0  1  0  0  0  0  0  0
  161.3650  207.7710  155.1750 C   0  0  0  0  0  3  0  0  0  0  0  0
  162.1950  207.9030  148.9920 C   0  0  0  0  0  2  0  0  0  0  0  0
  161.5380  209.2280  148.5840 C   0  0  0  0  0  2  0  0  0  0  0  0
  162.3120  210.4280  149.1150 C   0  0  2  0  0  3  0  0  0  0  0  0
  162.4770  210.3370  150.6240 C   0  0  0  0  0  1  0  0  0  0  0  0
  161.6580  211.6360  148.7340 O   0  0  0  0  0  0  0  0  0  0  0  0
  162.3130  212.6990  148.1030 C   0  0  0  0  0  0  0  0  0  0  0  0
  163.4650  212.5160  147.6310 O   0  0  0  0  0  0  0  0  0  0  0  0
  161.5610  214.3250  147.9730 S   0  0  0  0  0  0  0  0  0  0  0  0
  160.3960  213.9390  146.6080 C   0  0  1  0  0  3  0  0  0  0  0  0
  158.1640  214.2620  145.5070 C   0  0  0  0  0  2  0  0  0  0  0  0
  160.7200  212.6450  145.8520 C   0  0  0  0  0  2  0  0  0  0  0  0
  159.5970  212.2510  144.8800 C   0  0  0  0  0  2  0  0  0  0  0  0
  158.8960  214.1650  146.8570 C   0  0  1  0  0  3  0  0  0  0  0  0
  158.8370  213.4770  144.3640 C   0  0  0  0  0  2  0  0  0  0  0  0
  158.2730  213.0220  147.6630 C   0  0  0  0  0  2  0  0  0  0  0  0
  157.6190  213.4800  148.9290 C   0  0  0  0  0  0  0  0  0  0  0  0
  156.4200  214.2600  151.3090 C   0  0  0  0  0  3  0  0  0  0  0  0
  155.6830  214.1670  150.1270 C   0  0  0  0  0  3  0  0  0  0  0  0
  157.7800  213.9460  151.2900 C   0  0  0  0  0  3  0  0  0  0  0  0
  156.2880  213.7730  148.9740 N   0  0  0  0  0  0  0  0  0  0  0  0
  158.3840  213.5500  150.0950 C   0  0  0  0  0  3  0  0  0  0  0  0
  1 12  1  0  0  0  0
  2  4  1  0  0  0  0
  3 11  1  6  0  0  0
  3  7  1  0  0  0  0
  3  6  1  0  0  0  0
  4  8  2  0  0  0  0
  5  2  2  0  0  0  0
  6  8  1  1  0  0  0
  7  2  1  0  0  0  0
  9  6  1  0  0  0  0
  9  1  1  1  0  0  0
 10  9  1  0  0  0  0
 11 10  1  0  0  0  0
 12 13  1  1  0  0  0
 12 14  1  0  0  0  0
 14 20  1  0  0  0  0
 15 16  1  0  0  0  0
 16 22  2  0  0  0  0
 16 17  1  0  0  0  0
 18 22  1  0  0  0  0
 19 20  1  0  0  0  0
 19 15  2  0  0  0  0
 20 18  2  0  0  0  0
 21 15  1  0  0  0  0
 23  1  1  0  0  0  0
 24 23  1  0  0  0  0
 24 25  1  0  0  0  0
 25 26  1  1  0  0  0
 27 25  1  0  0  0  0
 28 27  1  0  0  0  0
 29 28  2  0  0  0  0
 30 28  1  0  0  0  0
 31 35  1  0  0  0  0
 31 30  1  1  0  0  0
 32 35  1  0  0  0  0
 33 31  1  0  0  0  0
 34 33  1  0  0  0  0
 35 37  1  1  0  0  0
 36 34  1  0  0  0  0
 36 32  1  0  0  0  0
 37 38  1  0  0  0  0
 38 42  2  0  0  0  0
 38 43  1  0  0  0  0
 40 39  2  0  0  0  0
 41 39  1  0  0  0  0
 42 40  1  0  0  0  0
 43 41  2  0  0  0  0
M  END
>  <MODEL>
1

>  <REMARK>
 VINA RESULT:      -8.0      0.000      0.000
  Name = 
  13 active torsions:
  status: ('A' for Active; 'I' for Inactive)
    1  A    between atoms: C_1  and  C_34
    2  A    between atoms: C_1  and  C_35
    3  A    between atoms: C_2  and  O_6
    4  A    between atoms: C_2  and  C_13
    5  A    between atoms: S_3  and  C_4
    6  A    between atoms: S_3  and  C_12
    7  A    between atoms: O_6  and  C_12
    8  A    between atoms: N_8  and  C_27
    9  A    between atoms: N_8  and  C_30
   10  A    between atoms: N_8  and  C_34
   11  A    between atoms: C_11  and  C_14
   12  A    between atoms: C_13  and  C_27
   13  A    between atoms: C_14  and  C_41
                            x       y       z     vdW  Elec       q    Type
                         _______ _______ _______ _____ _____    ______ ____

>  <TORSDO>
F 13

$$$$
=
 OpenBabel11062410353D

 43 47  0  0  1  0  0  0  0  0999 V2000
  161.3140  206.7120  149.7850 N   0  0  0  0  0  0  0  0  0  0  0  0
  161.1770  201.5350  148.6110 C   0  0  0  0  0  0  0  0  0  0  0  0
  160.9860  203.7470  147.5210 C   0  0  2  0  0  3  0  0  0  0  0  0
  160.6080  202.1680  149.8230 C   0  0  0  0  0  3  0  0  0  0  0  0
  161.2610  200.2810  148.5440 O   0  0  0  0  0  0  0  0  0  0  0  0
  161.2100  204.3570  148.8830 C   0  0  2  0  0  3  0  0  0  0  0  0
  161.6680  202.3830  147.4620 C   0  0  0  0  0  2  0  0  0  0  0  0
  160.5790  203.5020  149.9440 C   0  0  0  0  0  3  0  0  0  0  0  0
  160.6970  205.7880  148.8100 C   0  0  2  0  0  3  0  0  0  0  0  0
  160.9700  206.3850  147.0990 S   0  0  0  0  0  0  0  0  0  0  0  0
  161.5260  204.7430  146.5290 C   0  0  0  0  0  2  0  0  0  0  0  0
  161.8770  205.9860  150.9330 C   0  0  1  0  0  3  0  0  0  0  0  0
  162.9590  206.6880  151.4730 O   0  0  0  0  0  1  0  0  0  0  0  0
  160.8260  205.8220  152.0250 C   0  0  0  0  0  2  0  0  0  0  0  0
  160.5990  209.2820  153.5490 C   0  0  0  0  0  0  0  0  0  0  0  0
  161.0400  209.0370  154.8590 C   0  0  0  0  0  0  0  0  0  0  0  0
  161.1090  210.0430  155.7660 F   0  0  0  0  0  0  0  0  0  0  0  0
  161.3530  206.6970  154.3110 C   0  0  0  0  0  3  0  0  0  0  0  0
  160.5390  208.2330  152.6270 C   0  0  0  0  0  3  0  0  0  0  0  0
  160.9160  206.9400  153.0050 C   0  0  0  0  0  0  0  0  0  0  0  0
  160.1770  210.6480  153.1330 C   0  0  0  0  0  1  0  0  0  0  0  0
  161.4180  207.7440  155.2360 C   0  0  0  0  0  3  0  0  0  0  0  0
  162.2570  207.6560  149.1530 C   0  0  0  0  0  2  0  0  0  0  0  0
  161.5970  208.9400  148.6360 C   0  0  0  0  0  2  0  0  0  0  0  0
  162.3650  210.1830  149.0690 C   0  0  2  0  0  3  0  0  0  0  0  0
  162.3340  210.3350  150.5810 C   0  0  0  0  0  1  0  0  0  0  0  0
  161.8330  211.3350  148.4180 O   0  0  0  0  0  0  0  0  0  0  0  0
  162.6190  212.4110  147.9960 C   0  0  0  0  0  0  0  0  0  0  0  0
  163.8580  212.2460  147.8500 O   0  0  0  0  0  0  0  0  0  0  0  0
  161.9080  214.0310  147.6790 S   0  0  0  0  0  0  0  0  0  0  0  0
  160.4090  213.4610  146.7850 C   0  0  1  0  0  3  0  0  0  0  0  0
  159.3400  211.9510  145.0900 C   0  0  0  0  0  2  0  0  0  0  0  0
  159.2410  214.4530  146.8210 C   0  0  0  0  0  2  0  0  0  0  0  0
  158.1030  214.0340  145.8770 C   0  0  0  0  0  2  0  0  0  0  0  0
  160.6030  212.7620  145.4290 C   0  0  1  0  0  3  0  0  0  0  0  0
  158.0420  212.5150  145.7000 C   0  0  0  0  0  2  0  0  0  0  0  0
  160.8490  213.7680  144.3010 C   0  0  0  0  0  2  0  0  0  0  0  0
  160.9550  213.1270  142.9530 C   0  0  0  0  0  0  0  0  0  0  0  0
  161.0980  211.8850  140.4720 C   0  0  0  0  0  3  0  0  0  0  0  0
  162.1900  211.8860  141.3420 C   0  0  0  0  0  3  0  0  0  0  0  0
  159.9150  212.5130  140.8650 C   0  0  0  0  0  3  0  0  0  0  0  0
  162.0950  212.4920  142.5560 N   0  0  0  0  0  0  0  0  0  0  0  0
  159.8390  213.1340  142.1130 C   0  0  0  0  0  3  0  0  0  0  0  0
  1 12  1  0  0  0  0
  2  4  1  0  0  0  0
  3 11  1  6  0  0  0
  3  6  1  0  0  0  0
  4  8  2  0  0  0  0
  5  2  2  0  0  0  0
  6  8  1  1  0  0  0
  7  3  1  0  0  0  0
  7  2  1  0  0  0  0
  9  6  1  0  0  0  0
  9  1  1  1  0  0  0
 10  9  1  0  0  0  0
 11 10  1  0  0  0  0
 12 13  1  1  0  0  0
 12 14  1  0  0  0  0
 14 20  1  0  0  0  0
 15 16  1  0  0  0  0
 16 22  2  0  0  0  0
 16 17  1  0  0  0  0
 18 22  1  0  0  0  0
 19 20  1  0  0  0  0
 19 15  2  0  0  0  0
 20 18  2  0  0  0  0
 21 15  1  0  0  0  0
 23  1  1  0  0  0  0
 24 25  1  0  0  0  0
 24 23  1  0  0  0  0
 25 26  1  1  0  0  0
 27 25  1  0  0  0  0
 28 27  1  0  0  0  0
 29 28  2  0  0  0  0
 30 28  1  0  0  0  0
 31 33  1  0  0  0  0
 31 30  1  6  0  0  0
 32 35  1  0  0  0  0
 32 36  1  0  0  0  0
 34 33  1  0  0  0  0
 35 37  1  6  0  0  0
 35 31  1  0  0  0  0
 36 34  1  0  0  0  0
 38 37  1  0  0  0  0
 39 41  2  0  0  0  0
 39 40  1  0  0  0  0
 40 42  2  0  0  0  0
 41 43  1  0  0  0  0
 42 38  1  0  0  0  0
 43 38  2  0  0  0  0
M  END
>  <MODEL>
2

>  <REMARK>
 VINA RESULT:      -7.9      2.035      3.814
  Name = 
  13 active torsions:
  status: ('A' for Active; 'I' for Inactive)
    1  A    between atoms: C_1  and  C_34
    2  A    between atoms: C_1  and  C_35
    3  A    between atoms: C_2  and  O_6
    4  A    between atoms: C_2  and  C_13
    5  A    between atoms: S_3  and  C_4
    6  A    between atoms: S_3  and  C_12
    7  A    between atoms: O_6  and  C_12
    8  A    between atoms: N_8  and  C_27
    9  A    between atoms: N_8  and  C_30
   10  A    between atoms: N_8  and  C_34
   11  A    between atoms: C_11  and  C_14
   12  A    between atoms: C_13  and  C_27
   13  A    between atoms: C_14  and  C_41
                            x       y       z     vdW  Elec       q    Type
                         _______ _______ _______ _____ _____    ______ ____

>  <TORSDO>
F 13

$$$$
=
 OpenBabel11062410353D

 43 47  0  0  1  0  0  0  0  0999 V2000
  161.9370  207.7180  150.0500 N   0  0  0  0  0  0  0  0  0  0  0  0
  160.6900  208.9270  155.0680 C   0  0  0  0  0  0  0  0  0  0  0  0
  160.8610  206.9750  153.5590 C   0  0  2  0  0  3  0  0  0  0  0  0
  160.3490  209.7280  153.8690 C   0  0  0  0  0  3  0  0  0  0  0  0
  160.5190  209.4180  156.2140 O   0  0  0  0  0  0  0  0  0  0  0  0
  161.3010  207.9370  152.4830 C   0  0  2  0  0  3  0  0  0  0  0  0
  161.2530  207.5340  154.9240 C   0  0  0  0  0  2  0  0  0  0  0  0
  160.5940  209.2510  152.6410 C   0  0  0  0  0  3  0  0  0  0  0  0
  161.0790  207.2330  151.1520 C   0  0  2  0  0  3  0  0  0  0  0  0
  161.3370  205.4400  151.4250 S   0  0  0  0  0  0  0  0  0  0  0  0
  161.5130  205.6580  153.2280 C   0  0  0  0  0  2  0  0  0  0  0  0
  161.4680  207.2260  148.7460 C   0  0  1  0  0  3  0  0  0  0  0  0
  160.9420  208.2760  147.9870 O   0  0  0  0  0  1  0  0  0  0  0  0
  162.6220  206.6100  147.9650 C   0  0  0  0  0  2  0  0  0  0  0  0
  161.2670  203.1570  147.2010 C   0  0  0  0  0  0  0  0  0  0  0  0
  161.2500  203.1700  145.7980 C   0  0  0  0  0  0  0  0  0  0  0  0
  160.8150  202.0910  145.1010 F   0  0  0  0  0  0  0  0  0  0  0  0
  162.1410  205.4240  145.8120 C   0  0  0  0  0  3  0  0  0  0  0  0
  161.7230  204.2770  147.9030 C   0  0  0  0  0  3  0  0  0  0  0  0
  162.1610  205.4110  147.2110 C   0  0  0  0  0  0  0  0  0  0  0  0
  160.7870  201.9660  147.9560 C   0  0  0  0  0  1  0  0  0  0  0  0
  161.6900  204.3030  145.1070 C   0  0  0  0  0  3  0  0  0  0  0  0
  162.1490  209.1780  150.0970 C   0  0  0  0  0  2  0  0  0  0  0  0
  162.2810  209.8310  148.7150 C   0  0  0  0  0  2  0  0  0  0  0  0
  162.0570  211.3360  148.7790 C   0  0  2  0  0  3  0  0  0  0  0  0
  161.3820  211.7250  150.0850 C   0  0  0  0  0  1  0  0  0  0  0  0
  161.2970  211.7630  147.6510 O   0  0  0  0  0  0  0  0  0  0  0  0
  161.1110  213.1070  147.3130 C   0  0  0  0  0  0  0  0  0  0  0  0
  161.8000  213.9870  147.8930 O   0  0  0  0  0  0  0  0  0  0  0  0
  159.8970  213.6120  146.0890 S   0  0  0  0  0  0  0  0  0  0  0  0
  161.0570  213.8470  144.6870 C   0  0  1  0  0  3  0  0  0  0  0  0
  161.4460  214.2090  142.2340 C   0  0  0  0  0  2  0  0  0  0  0  0
  162.4910  213.3860  144.9720 C   0  0  0  0  0  2  0  0  0  0  0  0
  163.3590  213.3920  143.7050 C   0  0  0  0  0  2  0  0  0  0  0  0
  160.5550  213.5080  143.2730 C   0  0  1  0  0  3  0  0  0  0  0  0
  162.8940  214.4520  142.7030 C   0  0  0  0  0  2  0  0  0  0  0  0
  160.5900  212.0010  143.0030 C   0  0  0  0  0  2  0  0  0  0  0  0
  160.5340  211.6620  141.5460 C   0  0  0  0  0  0  0  0  0  0  0  0
  160.3680  210.9880  138.8570 C   0  0  0  0  0  3  0  0  0  0  0  0
  161.4630  210.5990  139.6310 C   0  0  0  0  0  3  0  0  0  0  0  0
  159.3390  211.7190  139.4530 C   0  0  0  0  0  3  0  0  0  0  0  0
  161.5200  210.9320  140.9490 N   0  0  0  0  0  0  0  0  0  0  0  0
  159.4180  212.0560  140.8050 C   0  0  0  0  0  3  0  0  0  0  0  0
  1 23  1  0  0  0  0
  2  5  2  0  0  0  0
  3 11  1  6  0  0  0
  3  7  1  0  0  0  0
  4  2  1  0  0  0  0
  6  8  1  6  0  0  0
  6  3  1  0  0  0  0
  7  2  1  0  0  0  0
  8  4  2  0  0  0  0
  9  1  1  6  0  0  0
  9 10  1  0  0  0  0
  9  6  1  0  0  0  0
 10 11  1  0  0  0  0
 12 13  1  6  0  0  0
 12  1  1  0  0  0  0
 14 12  1  0  0  0  0
 15 19  1  0  0  0  0
 15 21  1  0  0  0  0
 16 15  2  0  0  0  0
 17 16  1  0  0  0  0
 18 20  1  0  0  0  0
 20 19  2  0  0  0  0
 20 14  1  0  0  0  0
 22 16  1  0  0  0  0
 22 18  2  0  0  0  0
 24 25  1  0  0  0  0
 24 23  1  0  0  0  0
 25 26  1  1  0  0  0
 27 25  1  0  0  0  0
 28 27  1  0  0  0  0
 28 29  2  0  0  0  0
 30 28  1  0  0  0  0
 31 33  1  0  0  0  0
 31 30  1  1  0  0  0
 32 36  1  0  0  0  0
 32 35  1  0  0  0  0
 34 33  1  0  0  0  0
 35 37  1  6  0  0  0
 35 31  1  0  0  0  0
 36 34  1  0  0  0  0
 38 37  1  0  0  0  0
 39 41  2  0  0  0  0
 39 40  1  0  0  0  0
 40 42  2  0  0  0  0
 41 43  1  0  0  0  0
 42 38  1  0  0  0  0
 43 38  2  0  0  0  0
M  END
>  <MODEL>
3

>  <REMARK>
 VINA RESULT:      -7.4      3.629      7.212
  Name = 
  13 active torsions:
  status: ('A' for Active; 'I' for Inactive)
    1  A    between atoms: C_1  and  C_34
    2  A    between atoms: C_1  and  C_35
    3  A    between atoms: C_2  and  O_6
    4  A    between atoms: C_2  and  C_13
    5  A    between atoms: S_3  and  C_4
    6  A    between atoms: S_3  and  C_12
    7  A    between atoms: O_6  and  C_12
    8  A    between atoms: N_8  and  C_27
    9  A    between atoms: N_8  and  C_30
   10  A    between atoms: N_8  and  C_34
   11  A    between atoms: C_11  and  C_14
   12  A    between atoms: C_13  and  C_27
   13  A    between atoms: C_14  and  C_41
                            x       y       z     vdW  Elec       q    Type
                         _______ _______ _______ _____ _____    ______ ____

>  <TORSDO>
F 13

$$$$
=
 OpenBabel11062410353D

 43 47  0  0  1  0  0  0  0  0999 V2000
  159.4470  212.6820  151.6030 N   0  0  0  0  0  0  0  0  0  0  0  0
  156.3990  211.8760  155.8750 C   0  0  0  0  0  0  0  0  0  0  0  0
  156.5740  213.3620  153.9050 C   0  0  2  0  0  3  0  0  0  0  0  0
  157.8750  211.7630  155.8250 C   0  0  0  0  0  3  0  0  0  0  0  0
  155.7760  211.4650  156.8880 O   0  0  0  0  0  0  0  0  0  0  0  0
  157.7930  212.5680  153.5050 C   0  0  2  0  0  3  0  0  0  0  0  0
  155.6360  212.4710  154.7160 C   0  0  0  0  0  2  0  0  0  0  0  0
  158.5480  212.1270  154.7250 C   0  0  0  0  0  3  0  0  0  0  0  0
  158.5780  213.4350  152.5310 C   0  0  2  0  0  3  0  0  0  0  0  0
  157.3700  214.4500  151.5990 S   0  0  0  0  0  0  0  0  0  0  0  0
  155.9730  213.8720  152.6220 C   0  0  0  0  0  2  0  0  0  0  0  0
  160.0170  213.5590  150.5690 C   0  0  1  0  0  3  0  0  0  0  0  0
  160.9310  214.4530  151.1350 O   0  0  0  0  0  1  0  0  0  0  0  0
  160.7520  212.7330  149.5190 C   0  0  0  0  0  2  0  0  0  0  0  0
  158.1240  213.4930  146.9010 C   0  0  0  0  0  0  0  0  0  0  0  0
  158.7310  212.9840  145.7420 C   0  0  0  0  0  0  0  0  0  0  0  0
  158.1050  213.0600  144.5420 F   0  0  0  0  0  0  0  0  0  0  0  0
  160.6510  212.3010  147.0550 C   0  0  0  0  0  3  0  0  0  0  0  0
  158.7820  213.4020  148.1310 C   0  0  0  0  0  3  0  0  0  0  0  0
  160.0450  212.8060  148.2100 C   0  0  0  0  0  0  0  0  0  0  0  0
  156.7870  214.1470  146.8330 C   0  0  0  0  0  1  0  0  0  0  0  0
  159.9930  212.3870  145.8240 C   0  0  0  0  0  3  0  0  0  0  0  0
  160.4490  211.8570  152.3070 C   0  0  0  0  0  2  0  0  0  0  0  0
  160.3540  210.3600  151.9900 C   0  0  0  0  0  2  0  0  0  0  0  0
  160.6200  209.5040  153.2220 C   0  0  2  0  0  3  0  0  0  0  0  0
  161.3950  210.2920  154.2660 C   0  0  0  0  0  1  0  0  0  0  0  0
  161.3110  208.3140  152.8480 O   0  0  0  0  0  0  0  0  0  0  0  0
  160.9980  207.0510  153.3580 C   0  0  0  0  0  0  0  0  0  0  0  0
  160.5820  206.9520  154.5420 O   0  0  0  0  0  0  0  0  0  0  0  0
  161.1990  205.5610  152.3740 S   0  0  0  0  0  0  0  0  0  0  0  0
  161.2550  206.3690  150.7280 C   0  0  1  0  0  3  0  0  0  0  0  0
  160.4760  206.4900  148.3450 C   0  0  0  0  0  2  0  0  0  0  0  0
  162.4970  207.2370  150.4950 C   0  0  0  0  0  2  0  0  0  0  0  0
  162.6080  207.7020  149.0350 C   0  0  0  0  0  2  0  0  0  0  0  0
  160.8260  205.5410  149.5050 C   0  0  1  0  0  3  0  0  0  0  0  0
  161.2320  207.8320  148.3750 C   0  0  0  0  0  2  0  0  0  0  0  0
  161.9370  204.5970  149.0380 C   0  0  0  0  0  2  0  0  0  0  0  0
  161.5000  203.6640  147.9520 C   0  0  0  0  0  0  0  0  0  0  0  0
  160.7490  201.8850  145.9560 C   0  0  0  0  0  3  0  0  0  0  0  0
  161.1990  203.1700  145.6450 C   0  0  0  0  0  3  0  0  0  0  0  0
  160.6870  201.4910  147.2930 C   0  0  0  0  0  3  0  0  0  0  0  0
  161.5710  204.0220  146.6380 N   0  0  0  0  0  0  0  0  0  0  0  0
  161.0670  202.3820  148.2980 C   0  0  0  0  0  3  0  0  0  0  0  0
  1 23  1  0  0  0  0
  2  5  2  0  0  0  0
  3 11  1  6  0  0  0
  3  7  1  0  0  0  0
  4  2  1  0  0  0  0
  6  3  1  0  0  0  0
  6  8  1  1  0  0  0
  7  2  1  0  0  0  0
  8  4  2  0  0  0  0
  9  1  1  6  0  0  0
  9  6  1  0  0  0  0
 10  9  1  0  0  0  0
 10 11  1  0  0  0  0
 12 13  1  1  0  0  0
 12  1  1  0  0  0  0
 14 12  1  0  0  0  0
 15 19  1  0  0  0  0
 16 22  1  0  0  0  0
 16 15  2  0  0  0  0
 17 16  1  0  0  0  0
 18 20  1  0  0  0  0
 19 20  2  0  0  0  0
 20 14  1  0  0  0  0
 21 15  1  0  0  0  0
 22 18  2  0  0  0  0
 24 23  1  0  0  0  0
 24 25  1  0  0  0  0
 25 26  1  1  0  0  0
 27 25  1  0  0  0  0
 27 28  1  0  0  0  0
 28 29  2  0  0  0  0
 30 28  1  0  0  0  0
 31 30  1  1  0  0  0
 32 36  1  0  0  0  0
 32 35  1  0  0  0  0
 33 31  1  0  0  0  0
 34 33  1  0  0  0  0
 35 37  1  6  0  0  0
 35 31  1  0  0  0  0
 36 34  1  0  0  0  0
 38 43  1  0  0  0  0
 38 37  1  0  0  0  0
 39 41  1  0  0  0  0
 40 39  2  0  0  0  0
 40 42  1  0  0  0  0
 41 43  2  0  0  0  0
 42 38  2  0  0  0  0
M  END
>  <MODEL>
4

>  <REMARK>
 VINA RESULT:      -7.3      3.405      9.678
  Name = 
  13 active torsions:
  status: ('A' for Active; 'I' for Inactive)
    1  A    between atoms: C_1  and  C_34
    2  A    between atoms: C_1  and  C_35
    3  A    between atoms: C_2  and  O_6
    4  A    between atoms: C_2  and  C_13
    5  A    between atoms: S_3  and  C_4
    6  A    between atoms: S_3  and  C_12
    7  A    between atoms: O_6  and  C_12
    8  A    between atoms: N_8  and  C_27
    9  A    between atoms: N_8  and  C_30
   10  A    between atoms: N_8  and  C_34
   11  A    between atoms: C_11  and  C_14
   12  A    between atoms: C_13  and  C_27
   13  A    between atoms: C_14  and  C_41
                            x       y       z     vdW  Elec       q    Type
                         _______ _______ _______ _____ _____    ______ ____

>  <TORSDO>
F 13

$$$$
=
 OpenBabel11062410353D

 43 47  0  0  1  0  0  0  0  0999 V2000
  159.1490  212.7000  150.3630 N   0  0  0  0  0  0  0  0  0  0  0  0
  159.5770  210.1950  155.0260 C   0  0  0  0  0  0  0  0  0  0  0  0
  158.6420  212.2660  154.0480 C   0  0  2  0  0  3  0  0  0  0  0  0
  160.6170  210.2590  153.9740 C   0  0  0  0  0  3  0  0  0  0  0  0
  159.7190  209.4060  155.9950 O   0  0  0  0  0  0  0  0  0  0  0  0
  159.1580  211.7820  152.7150 C   0  0  2  0  0  3  0  0  0  0  0  0
  158.3440  211.0620  154.9380 C   0  0  0  0  0  2  0  0  0  0  0  0
  160.4490  211.0390  152.8970 C   0  0  0  0  0  3  0  0  0  0  0  0
  159.2310  213.0030  151.8070 C   0  0  2  0  0  3  0  0  0  0  0  0
  157.8830  214.1410  152.3020 S   0  0  0  0  0  0  0  0  0  0  0  0
  157.4340  213.1120  153.7410 C   0  0  0  0  0  2  0  0  0  0  0  0
  157.9320  213.2650  149.7630 C   0  0  1  0  0  3  0  0  0  0  0  0
  158.2270  214.4530  149.0860 O   0  0  0  0  0  1  0  0  0  0  0  0
  157.3300  212.2870  148.7610 C   0  0  0  0  0  2  0  0  0  0  0  0
  158.6140  212.7360  145.2260 C   0  0  0  0  0  0  0  0  0  0  0  0
  157.7550  213.7360  144.7440 C   0  0  0  0  0  0  0  0  0  0  0  0
  157.8750  214.2000  143.4760 F   0  0  0  0  0  0  0  0  0  0  0  0
  156.6290  213.7970  146.8890 C   0  0  0  0  0  3  0  0  0  0  0  0
  158.4770  212.2730  146.5380 C   0  0  0  0  0  3  0  0  0  0  0  0
  157.4860  212.8020  147.3720 C   0  0  0  0  0  0  0  0  0  0  0  0
  159.6630  212.1480  144.3480 C   0  0  0  0  0  1  0  0  0  0  0  0
  156.7650  214.2650  145.5790 C   0  0  0  0  0  3  0  0  0  0  0  0
  160.3890  213.0450  149.6400 C   0  0  0  0  0  2  0  0  0  0  0  0
  161.5820  212.1460  149.9900 C   0  0  0  0  0  2  0  0  0  0  0  0
  162.2770  211.6190  148.7410 C   0  0  2  0  0  3  0  0  0  0  0  0
  161.9400  212.4800  147.5340 C   0  0  0  0  0  1  0  0  0  0  0  0
  161.9200  210.2560  148.5250 O   0  0  0  0  0  0  0  0  0  0  0  0
  162.2090  209.2320  149.4320 C   0  0  0  0  0  0  0  0  0  0  0  0
  162.6920  209.5270  150.5560 O   0  0  0  0  0  0  0  0  0  0  0  0
  161.9320  207.5040  149.0240 S   0  0  0  0  0  0  0  0  0  0  0  0
  161.8550  206.8640  150.7420 C   0  0  1  0  0  3  0  0  0  0  0  0
  162.3610  205.0540  152.4050 C   0  0  0  0  0  2  0  0  0  0  0  0
  160.8010  207.5480  151.6220 C   0  0  0  0  0  2  0  0  0  0  0  0
  160.6220  206.8290  152.9680 C   0  0  0  0  0  2  0  0  0  0  0  0
  161.9580  205.3440  150.9490 C   0  0  1  0  0  3  0  0  0  0  0  0
  161.9090  206.1280  153.4130 C   0  0  0  0  0  2  0  0  0  0  0  0
  160.6290  204.6390  150.6660 C   0  0  0  0  0  2  0  0  0  0  0  0
  160.7640  203.4800  149.7290 C   0  0  0  0  0  0  0  0  0  0  0  0
  160.9580  201.3590  147.9460 C   0  0  0  0  0  3  0  0  0  0  0  0
  160.5370  201.1580  149.2620 C   0  0  0  0  0  3  0  0  0  0  0  0
  161.2770  202.6500  147.5230 C   0  0  0  0  0  3  0  0  0  0  0  0
  160.4400  202.2130  150.1160 N   0  0  0  0  0  0  0  0  0  0  0  0
  161.1760  203.7180  148.4160 C   0  0  0  0  0  3  0  0  0  0  0  0
  2  5  2  0  0  0  0
  3 11  1  6  0  0  0
  3  7  1  0  0  0  0
  4  2  1  0  0  0  0
  6  8  1  1  0  0  0
  6  3  1  0  0  0  0
  7  2  1  0  0  0  0
  8  4  2  0  0  0  0
  9  1  1  6  0  0  0
  9 10  1  0  0  0  0
  9  6  1  0  0  0  0
 10 11  1  0  0  0  0
 12 13  1  6  0  0  0
 12  1  1  0  0  0  0
 14 12  1  0  0  0  0
 15 19  1  0  0  0  0
 16 15  2  0  0  0  0
 16 22  1  0  0  0  0
 17 16  1  0  0  0  0
 18 20  1  0  0  0  0
 19 20  2  0  0  0  0
 20 14  1  0  0  0  0
 21 15  1  0  0  0  0
 22 18  2  0  0  0  0
 23 24  1  0  0  0  0
 23  1  1  0  0  0  0
 25 26  1  6  0  0  0
 25 24  1  0  0  0  0
 27 25  1  0  0  0  0
 27 28  1  0  0  0  0
 28 29  2  0  0  0  0
 30 28  1  0  0  0  0
 31 30  1  6  0  0  0
 31 35  1  0  0  0  0
 31 33  1  0  0  0  0
 32 36  1  0  0  0  0
 33 34  1  0  0  0  0
 34 36  1  0  0  0  0
 35 37  1  1  0  0  0
 35 32  1  0  0  0  0
 38 42  1  0  0  0  0
 38 37  1  0  0  0  0
 39 40  1  0  0  0  0
 40 42  2  0  0  0  0
 41 39  2  0  0  0  0
 41 43  1  0  0  0  0
 43 38  2  0  0  0  0
M  END
>  <MODEL>
5

>  <REMARK>
 VINA RESULT:      -6.9      3.158      9.551
  Name = 
  13 active torsions:
  status: ('A' for Active; 'I' for Inactive)
    1  A    between atoms: C_1  and  C_34
    2  A    between atoms: C_1  and  C_35
    3  A    between atoms: C_2  and  O_6
    4  A    between atoms: C_2  and  C_13
    5  A    between atoms: S_3  and  C_4
    6  A    between atoms: S_3  and  C_12
    7  A    between atoms: O_6  and  C_12
    8  A    between atoms: N_8  and  C_27
    9  A    between atoms: N_8  and  C_30
   10  A    between atoms: N_8  and  C_34
   11  A    between atoms: C_11  and  C_14
   12  A    between atoms: C_13  and  C_27
   13  A    between atoms: C_14  and  C_41
                            x       y       z     vdW  Elec       q    Type
                         _______ _______ _______ _____ _____    ______ ____

>  <TORSDO>
F 13

$$$$
=
 OpenBabel11062410353D

 43 47  0  0  1  0  0  0  0  0999 V2000
  160.7670  210.5240  151.9850 N   0  0  0  0  0  0  0  0  0  0  0  0
  156.8650  211.9670  155.2860 C   0  0  0  0  0  0  0  0  0  0  0  0
  158.1210  212.8080  153.3270 C   0  0  2  0  0  3  0  0  0  0  0  0
  158.0940  211.2290  155.6600 C   0  0  0  0  0  3  0  0  0  0  0  0
  155.9240  212.0720  156.1140 O   0  0  0  0  0  0  0  0  0  0  0  0
  158.8870  211.5080  153.3520 C   0  0  2  0  0  3  0  0  0  0  0  0
  156.7300  212.5830  153.9140 C   0  0  0  0  0  2  0  0  0  0  0  0
  159.0750  211.0440  154.7660 C   0  0  0  0  0  3  0  0  0  0  0  0
  160.1700  211.7440  152.5670 C   0  0  2  0  0  3  0  0  0  0  0  0
  159.7980  212.9660  151.2540 S   0  0  0  0  0  0  0  0  0  0  0  0
  158.1120  213.2560  151.8890 C   0  0  0  0  0  2  0  0  0  0  0  0
  161.8860  210.8470  151.0880 C   0  0  1  0  0  3  0  0  0  0  0  0
  163.0830  210.3280  151.5910 O   0  0  0  0  0  1  0  0  0  0  0  0
  161.6520  210.2430  149.7080 C   0  0  0  0  0  2  0  0  0  0  0  0
  161.0350  212.5260  146.7490 C   0  0  0  0  0  0  0  0  0  0  0  0
  162.2510  213.2230  146.6790 C   0  0  0  0  0  0  0  0  0  0  0  0
  162.4520  214.1690  145.7290 F   0  0  0  0  0  0  0  0  0  0  0  0
  163.0780  211.9640  148.5780 C   0  0  0  0  0  3  0  0  0  0  0  0
  160.8470  211.5500  147.7330 C   0  0  0  0  0  3  0  0  0  0  0  0
  161.8670  211.2670  148.6470 C   0  0  0  0  0  0  0  0  0  0  0  0
  159.9310  212.8250  145.7950 C   0  0  0  0  0  1  0  0  0  0  0  0
  163.2710  212.9380  147.5930 C   0  0  0  0  0  3  0  0  0  0  0  0
  161.0940  209.5090  153.0070 C   0  0  0  0  0  2  0  0  0  0  0  0
  160.6620  208.0870  152.6290 C   0  0  0  0  0  2  0  0  0  0  0  0
  160.6350  207.1650  153.8420 C   0  0  2  0  0  3  0  0  0  0  0  0
  161.2460  207.8510  155.0530 C   0  0  0  0  0  1  0  0  0  0  0  0
  161.3060  205.9440  153.5400 O   0  0  0  0  0  0  0  0  0  0  0  0
  161.8730  205.6670  152.2920 C   0  0  0  0  0  0  0  0  0  0  0  0
  162.9780  206.1890  151.9900 O   0  0  0  0  0  0  0  0  0  0  0  0
  161.0540  204.6020  151.0990 S   0  0  0  0  0  0  0  0  0  0  0  0
  161.2010  205.7160  149.6480 C   0  0  1  0  0  3  0  0  0  0  0  0
  160.5430  206.3160  147.3010 C   0  0  0  0  0  2  0  0  0  0  0  0
  162.4630  206.5860  149.6480 C   0  0  0  0  0  2  0  0  0  0  0  0
  162.6510  207.3250  148.3140 C   0  0  0  0  0  2  0  0  0  0  0  0
  160.8230  205.1520  148.2680 C   0  0  1  0  0  3  0  0  0  0  0  0
  161.3120  207.6110  147.6290 C   0  0  0  0  0  2  0  0  0  0  0  0
  161.9450  204.2940  147.6770 C   0  0  0  0  0  2  0  0  0  0  0  0
  161.4610  202.9930  147.1170 C   0  0  0  0  0  0  0  0  0  0  0  0
  160.4910  200.6120  146.0670 C   0  0  0  0  0  3  0  0  0  0  0  0
  160.9200  200.6930  147.3930 C   0  0  0  0  0  3  0  0  0  0  0  0
  160.5440  201.7520  145.2640 C   0  0  0  0  0  3  0  0  0  0  0  0
  161.3830  201.8720  147.8900 N   0  0  0  0  0  0  0  0  0  0  0  0
  161.0270  202.9510  145.7890 C   0  0  0  0  0  3  0  0  0  0  0  0
  1 23  1  0  0  0  0
  2  4  1  0  0  0  0
  2  5  2  0  0  0  0
  3 11  1  6  0  0  0
  3  6  1  0  0  0  0
  3  7  1  0  0  0  0
  6  8  1  1  0  0  0
  7  2  1  0  0  0  0
  8  4  2  0  0  0  0
  9  1  1  6  0  0  0
  9  6  1  0  0  0  0
 10 11  1  0  0  0  0
 10  9  1  0  0  0  0
 12 13  1  1  0  0  0
 12  1  1  0  0  0  0
 14 12  1  0  0  0  0
 15 19  1  0  0  0  0
 16 15  2  0  0  0  0
 16 22  1  0  0  0  0
 17 16  1  0  0  0  0
 18 20  1  0  0  0  0
 19 20  2  0  0  0  0
 20 14  1  0  0  0  0
 21 15  1  0  0  0  0
 22 18  2  0  0  0  0
 24 23  1  0  0  0  0
 24 25  1  0  0  0  0
 25 26  1  1  0  0  0
 27 25  1  0  0  0  0
 28 27  1  0  0  0  0
 29 28  2  0  0  0  0
 30 28  1  0  0  0  0
 31 33  1  0  0  0  0
 31 30  1  1  0  0  0
 32 36  1  0  0  0  0
 32 35  1  0  0  0  0
 34 33  1  0  0  0  0
 35 37  1  6  0  0  0
 35 31  1  0  0  0  0
 36 34  1  0  0  0  0
 38 37  1  0  0  0  0
 38 42  1  0  0  0  0
 39 40  1  0  0  0  0
 40 42  2  0  0  0  0
 41 43  1  0  0  0  0
 41 39  2  0  0  0  0
 43 38  2  0  0  0  0
M  END
>  <MODEL>
6

>  <REMARK>
 VINA RESULT:      -6.8      3.092      9.313
  Name = 
  13 active torsions:
  status: ('A' for Active; 'I' for Inactive)
    1  A    between atoms: C_1  and  C_34
    2  A    between atoms: C_1  and  C_35
    3  A    between atoms: C_2  and  O_6
    4  A    between atoms: C_2  and  C_13
    5  A    between atoms: S_3  and  C_4
    6  A    between atoms: S_3  and  C_12
    7  A    between atoms: O_6  and  C_12
    8  A    between atoms: N_8  and  C_27
    9  A    between atoms: N_8  and  C_30
   10  A    between atoms: N_8  and  C_34
   11  A    between atoms: C_11  and  C_14
   12  A    between atoms: C_13  and  C_27
   13  A    between atoms: C_14  and  C_41
                            x       y       z     vdW  Elec       q    Type
                         _______ _______ _______ _____ _____    ______ ____

>  <TORSDO>
F 13

$$$$
=
 OpenBabel11062410353D

 43 47  0  0  1  0  0  0  0  0999 V2000
  158.8180  212.5230  153.2180 N   0  0  0  0  0  0  0  0  0  0  0  0
  154.9710  211.2420  156.6460 C   0  0  0  0  0  0  0  0  0  0  0  0
  156.9800  212.6750  156.4760 C   0  0  2  0  0  3  0  0  0  0  0  0
  155.6470  210.3140  155.7100 C   0  0  0  0  0  3  0  0  0  0  0  0
  153.9400  210.8650  157.2610 O   0  0  0  0  0  0  0  0  0  0  0  0
  157.1430  212.1550  155.0690 C   0  0  2  0  0  3  0  0  0  0  0  0
  155.5020  212.6390  156.8580 C   0  0  0  0  0  2  0  0  0  0  0  0
  156.7020  210.7220  154.9910 C   0  0  0  0  0  3  0  0  0  0  0  0
  158.5900  212.4140  154.6730 C   0  0  2  0  0  3  0  0  0  0  0  0
  159.1300  213.9440  155.5240 S   0  0  0  0  0  0  0  0  0  0  0  0
  157.5770  214.0570  156.4780 C   0  0  0  0  0  2  0  0  0  0  0  0
  158.6680  213.9100  152.7520 C   0  0  1  0  0  3  0  0  0  0  0  0
  159.7580  214.2800  151.9560 O   0  0  0  0  0  1  0  0  0  0  0  0
  157.4020  214.0540  151.9150 C   0  0  0  0  0  2  0  0  0  0  0  0
  159.1760  213.9120  148.5720 C   0  0  0  0  0  0  0  0  0  0  0  0
  158.2520  213.1940  147.7980 C   0  0  0  0  0  0  0  0  0  0  0  0
  158.5100  212.9120  146.4970 F   0  0  0  0  0  0  0  0  0  0  0  0
  156.7700  213.0500  149.7100 C   0  0  0  0  0  3  0  0  0  0  0  0
  158.8910  214.1980  149.9110 C   0  0  0  0  0  3  0  0  0  0  0  0
  157.6890  213.7680  150.4820 C   0  0  0  0  0  0  0  0  0  0  0  0
  160.4700  214.3630  147.9870 C   0  0  0  0  0  1  0  0  0  0  0  0
  157.0490  212.7660  148.3700 C   0  0  0  0  0  3  0  0  0  0  0  0
  160.0790  211.8820  152.7910 C   0  0  0  0  0  2  0  0  0  0  0  0
  160.0440  210.3500  152.8460 C   0  0  0  0  0  2  0  0  0  0  0  0
  160.7720  209.8120  154.0720 C   0  0  2  0  0  3  0  0  0  0  0  0
  161.8050  210.8120  154.5650 C   0  0  0  0  0  1  0  0  0  0  0  0
  161.3660  208.5520  153.7720 O   0  0  0  0  0  0  0  0  0  0  0  0
  160.8080  207.3280  154.1520 C   0  0  0  0  0  0  0  0  0  0  0  0
  159.9010  207.3110  155.0240 O   0  0  0  0  0  0  0  0  0  0  0  0
  161.3690  205.7750  153.4420 S   0  0  0  0  0  0  0  0  0  0  0  0
  161.2050  206.2480  151.6770 C   0  0  1  0  0  3  0  0  0  0  0  0
  160.1280  205.9140  149.4350 C   0  0  0  0  0  2  0  0  0  0  0  0
  162.3980  207.0370  151.1240 C   0  0  0  0  0  2  0  0  0  0  0  0
  162.3170  207.2080  149.5990 C   0  0  0  0  0  2  0  0  0  0  0  0
  160.6330  205.2040  150.7030 C   0  0  1  0  0  3  0  0  0  0  0  0
  160.8670  207.2270  149.1070 C   0  0  0  0  0  2  0  0  0  0  0  0
  161.6860  204.1720  150.2910 C   0  0  0  0  0  2  0  0  0  0  0  0
  161.2390  203.2890  149.1680 C   0  0  0  0  0  0  0  0  0  0  0  0
  160.4470  201.5910  147.1190 C   0  0  0  0  0  3  0  0  0  0  0  0
  161.3110  202.6610  146.8750 C   0  0  0  0  0  3  0  0  0  0  0  0
  159.9850  201.3710  148.4170 C   0  0  0  0  0  3  0  0  0  0  0  0
  161.6940  203.4750  147.8960 N   0  0  0  0  0  0  0  0  0  0  0  0
  160.3850  202.2210  149.4500 C   0  0  0  0  0  3  0  0  0  0  0  0
  2  7  1  0  0  0  0
  2  5  2  0  0  0  0
  3 11  1  6  0  0  0
  3  7  1  0  0  0  0
  4  2  1  0  0  0  0
  6  8  1  1  0  0  0
  6  3  1  0  0  0  0
  8  4  2  0  0  0  0
  9  1  1  6  0  0  0
  9  6  1  0  0  0  0
  9 10  1  0  0  0  0
 10 11  1  0  0  0  0
 12 13  1  6  0  0  0
 12  1  1  0  0  0  0
 14 12  1  0  0  0  0
 15 19  1  0  0  0  0
 16 22  1  0  0  0  0
 16 15  2  0  0  0  0
 17 16  1  0  0  0  0
 18 20  1  0  0  0  0
 19 20  2  0  0  0  0
 20 14  1  0  0  0  0
 21 15  1  0  0  0  0
 22 18  2  0  0  0  0
 23 24  1  0  0  0  0
 23  1  1  0  0  0  0
 24 25  1  0  0  0  0
 25 26  1  6  0  0  0
 27 25  1  0  0  0  0
 27 28  1  0  0  0  0
 28 29  2  0  0  0  0
 30 28  1  0  0  0  0
 31 30  1  1  0  0  0
 32 35  1  0  0  0  0
 33 31  1  0  0  0  0
 34 33  1  0  0  0  0
 35 37  1  6  0  0  0
 35 31  1  0  0  0  0
 36 32  1  0  0  0  0
 36 34  1  0  0  0  0
 38 43  1  0  0  0  0
 38 37  1  0  0  0  0
 39 41  1  0  0  0  0
 40 39  2  0  0  0  0
 40 42  1  0  0  0  0
 41 43  2  0  0  0  0
 42 38  2  0  0  0  0
M  END
>  <MODEL>
7

>  <REMARK>
 VINA RESULT:      -6.7      3.908      9.947
  Name = 
  13 active torsions:
  status: ('A' for Active; 'I' for Inactive)
    1  A    between atoms: C_1  and  C_34
    2  A    between atoms: C_1  and  C_35
    3  A    between atoms: C_2  and  O_6
    4  A    between atoms: C_2  and  C_13
    5  A    between atoms: S_3  and  C_4
    6  A    between atoms: S_3  and  C_12
    7  A    between atoms: O_6  and  C_12
    8  A    between atoms: N_8  and  C_27
    9  A    between atoms: N_8  and  C_30
   10  A    between atoms: N_8  and  C_34
   11  A    between atoms: C_11  and  C_14
   12  A    between atoms: C_13  and  C_27
   13  A    between atoms: C_14  and  C_41
                            x       y       z     vdW  Elec       q    Type
                         _______ _______ _______ _____ _____    ______ ____

>  <TORSDO>
F 13

$$$$
=
 OpenBabel11062410353D

 43 47  0  0  1  0  0  0  0  0999 V2000
  159.7990  213.3100  151.5480 N   0  0  0  0  0  0  0  0  0  0  0  0
  157.3670  213.1400  146.8310 C   0  0  0  0  0  0  0  0  0  0  0  0
  159.5730  213.6510  147.8260 C   0  0  2  0  0  3  0  0  0  0  0  0
  156.7700  213.6120  148.1020 C   0  0  0  0  0  3  0  0  0  0  0  0
  156.6310  212.9570  145.8270 O   0  0  0  0  0  0  0  0  0  0  0  0
  158.9640  213.3190  149.1660 C   0  0  2  0  0  3  0  0  0  0  0  0
  158.8480  212.8660  146.7360 C   0  0  0  0  0  2  0  0  0  0  0  0
  157.5250  213.7410  149.2010 C   0  0  0  0  0  3  0  0  0  0  0  0
  159.8570  213.9580  150.2210 C   0  0  2  0  0  3  0  0  0  0  0  0
  161.5710  213.9450  149.5750 S   0  0  0  0  0  0  0  0  0  0  0  0
  161.0380  213.3220  147.9450 C   0  0  0  0  0  2  0  0  0  0  0  0
  158.6800  213.8250  152.3500 C   0  0  1  0  0  3  0  0  0  0  0  0
  157.6070  212.9280  152.3260 O   0  0  0  0  0  1  0  0  0  0  0  0
  159.1070  214.0110  153.8010 C   0  0  0  0  0  2  0  0  0  0  0  0
  155.9600  213.6500  155.8770 C   0  0  0  0  0  0  0  0  0  0  0  0
  156.1320  212.3670  156.4210 C   0  0  0  0  0  0  0  0  0  0  0  0
  155.1980  211.8350  157.2460 F   0  0  0  0  0  0  0  0  0  0  0  0
  158.2520  212.1660  155.2640 C   0  0  0  0  0  3  0  0  0  0  0  0
  156.9360  214.1850  155.0310 C   0  0  0  0  0  3  0  0  0  0  0  0
  158.0830  213.4450  154.7230 C   0  0  0  0  0  0  0  0  0  0  0  0
  154.7370  214.4450  156.1780 C   0  0  0  0  0  1  0  0  0  0  0  0
  157.2800  211.6300  156.1140 C   0  0  0  0  0  3  0  0  0  0  0  0
  159.8460  211.8370  151.4630 C   0  0  0  0  0  2  0  0  0  0  0  0
  160.5950  211.1720  152.6250 C   0  0  0  0  0  2  0  0  0  0  0  0
  161.4040  209.9680  152.1600 C   0  0  2  0  0  3  0  0  0  0  0  0
  161.9590  210.2000  150.7640 C   0  0  0  0  0  1  0  0  0  0  0  0
  160.5990  208.7920  152.2120 O   0  0  0  0  0  0  0  0  0  0  0  0
  160.8530  207.7250  153.0800 C   0  0  0  0  0  0  0  0  0  0  0  0
  160.6020  207.8580  154.3060 O   0  0  0  0  0  0  0  0  0  0  0  0
  161.5510  206.1770  152.4920 S   0  0  0  0  0  0  0  0  0  0  0  0
  161.4450  206.5360  150.6950 C   0  0  1  0  0  3  0  0  0  0  0  0
  160.3420  206.1610  148.4720 C   0  0  0  0  0  2  0  0  0  0  0  0
  162.7180  207.1490  150.1000 C   0  0  0  0  0  2  0  0  0  0  0  0
  162.6590  207.2180  148.5660 C   0  0  0  0  0  2  0  0  0  0  0  0
  160.7640  205.4940  149.7930 C   0  0  1  0  0  3  0  0  0  0  0  0
  161.2200  207.3580  148.0580 C   0  0  0  0  0  2  0  0  0  0  0  0
  161.6990  204.3260  149.4660 C   0  0  0  0  0  2  0  0  0  0  0  0
  161.3860  203.6670  148.1600 C   0  0  0  0  0  0  0  0  0  0  0  0
  160.8500  202.3830  145.7560 C   0  0  0  0  0  3  0  0  0  0  0  0
  161.5530  203.5890  145.7880 C   0  0  0  0  0  3  0  0  0  0  0  0
  160.4210  201.8140  146.9560 C   0  0  0  0  0  3  0  0  0  0  0  0
  161.8120  204.1960  146.9780 N   0  0  0  0  0  0  0  0  0  0  0  0
  160.6920  202.4550  148.1660 C   0  0  0  0  0  3  0  0  0  0  0  0
  1 12  1  0  0  0  0
  2  4  1  0  0  0  0
  3  7  1  6  0  0  0
  3 11  1  0  0  0  0
  3  6  1  0  0  0  0
  4  8  2  0  0  0  0
  5  2  2  0  0  0  0
  6  8  1  6  0  0  0
  6  9  1  0  0  0  0
  7  2  1  0  0  0  0
  9  1  1  1  0  0  0
 10  9  1  0  0  0  0
 11 10  1  0  0  0  0
 12 13  1  1  0  0  0
 12 14  1  0  0  0  0
 14 20  1  0  0  0  0
 15 21  1  0  0  0  0
 15 16  1  0  0  0  0
 16 17  1  0  0  0  0
 18 22  1  0  0  0  0
 19 15  2  0  0  0  0
 20 19  1  0  0  0  0
 20 18  2  0  0  0  0
 22 16  2  0  0  0  0
 23  1  1  0  0  0  0
 23 24  1  0  0  0  0
 25 26  1  6  0  0  0
 25 27  1  0  0  0  0
 25 24  1  0  0  0  0
 27 28  1  0  0  0  0
 28 29  2  0  0  0  0
 30 28  1  0  0  0  0
 31 30  1  1  0  0  0
 32 35  1  0  0  0  0
 33 31  1  0  0  0  0
 34 33  1  0  0  0  0
 35 37  1  6  0  0  0
 35 31  1  0  0  0  0
 36 32  1  0  0  0  0
 36 34  1  0  0  0  0
 38 43  1  0  0  0  0
 38 37  1  0  0  0  0
 39 40  2  0  0  0  0
 39 41  1  0  0  0  0
 40 42  1  0  0  0  0
 41 43  2  0  0  0  0
 42 38  2  0  0  0  0
M  END
>  <MODEL>
8

>  <REMARK>
 VINA RESULT:      -6.5      2.963      8.839
  Name = 
  13 active torsions:
  status: ('A' for Active; 'I' for Inactive)
    1  A    between atoms: C_1  and  C_34
    2  A    between atoms: C_1  and  C_35
    3  A    between atoms: C_2  and  O_6
    4  A    between atoms: C_2  and  C_13
    5  A    between atoms: S_3  and  C_4
    6  A    between atoms: S_3  and  C_12
    7  A    between atoms: O_6  and  C_12
    8  A    between atoms: N_8  and  C_27
    9  A    between atoms: N_8  and  C_30
   10  A    between atoms: N_8  and  C_34
   11  A    between atoms: C_11  and  C_14
   12  A    between atoms: C_13  and  C_27
   13  A    between atoms: C_14  and  C_41
                            x       y       z     vdW  Elec       q    Type
                         _______ _______ _______ _____ _____    ______ ____

>  <TORSDO>
F 13

$$$$
=
 OpenBabel11062410353D

 43 47  0  0  1  0  0  0  0  0999 V2000
  160.9150  212.5980  148.2230 N   0  0  0  0  0  0  0  0  0  0  0  0
  160.7480  212.0780  142.9400 C   0  0  0  0  0  0  0  0  0  0  0  0
  161.7880  213.4830  144.6910 C   0  0  2  0  0  3  0  0  0  0  0  0
  159.6080  211.9000  143.8690 C   0  0  0  0  0  3  0  0  0  0  0  0
  160.6320  211.7310  141.7370 O   0  0  0  0  0  0  0  0  0  0  0  0
  161.0730  212.6230  145.7040 C   0  0  2  0  0  3  0  0  0  0  0  0
  162.0510  212.6630  143.4300 C   0  0  0  0  0  2  0  0  0  0  0  0
  159.7380  212.1950  145.1700 C   0  0  0  0  0  3  0  0  0  0  0  0
  161.0320  213.4200  147.0000 C   0  0  2  0  0  3  0  0  0  0  0  0
  162.5450  214.4520  147.0630 S   0  0  0  0  0  0  0  0  0  0  0  0
  163.0390  213.9720  145.3730 C   0  0  0  0  0  2  0  0  0  0  0  0
  162.0160  211.6290  148.3270 C   0  0  1  0  0  3  0  0  0  0  0  0
  163.2380  212.2430  148.0330 O   0  0  0  0  0  1  0  0  0  0  0  0
  162.0980  211.0690  149.7420 C   0  0  0  0  0  2  0  0  0  0  0  0
  161.5950  207.5030  150.9170 C   0  0  0  0  0  0  0  0  0  0  0  0
  161.6000  206.8070  149.6980 C   0  0  0  0  0  0  0  0  0  0  0  0
  161.4400  205.4610  149.6700 F   0  0  0  0  0  0  0  0  0  0  0  0
  161.9430  208.8930  148.5130 C   0  0  0  0  0  3  0  0  0  0  0  0
  161.7660  208.8910  150.9270 C   0  0  0  0  0  3  0  0  0  0  0  0
  161.9400  209.5880  149.7270 C   0  0  0  0  0  0  0  0  0  0  0  0
  161.3930  206.7820  152.2040 C   0  0  0  0  0  1  0  0  0  0  0  0
  161.7760  207.5040  148.4990 C   0  0  0  0  0  3  0  0  0  0  0  0
  160.7180  213.4130  149.4380 C   0  0  0  0  0  2  0  0  0  0  0  0
  159.5670  214.4210  149.3290 C   0  0  0  0  0  2  0  0  0  0  0  0
  158.2940  213.8970  149.9810 C   0  0  2  0  0  3  0  0  0  0  0  0
  157.0730  214.2810  149.1620 C   0  0  0  0  0  1  0  0  0  0  0  0
  158.1980  214.3810  151.3190 O   0  0  0  0  0  0  0  0  0  0  0  0
  157.4530  213.7430  152.3150 C   0  0  0  0  0  0  0  0  0  0  0  0
  156.2480  214.0680  152.4830 O   0  0  0  0  0  0  0  0  0  0  0  0
  158.1780  212.4890  153.3780 S   0  0  0  0  0  0  0  0  0  0  0  0
  157.3980  213.0300  154.9490 C   0  0  1  0  0  3  0  0  0  0  0  0
  157.6150  213.9820  157.2610 C   0  0  0  0  0  2  0  0  0  0  0  0
  155.9920  212.4640  155.1800 C   0  0  0  0  0  2  0  0  0  0  0  0
  155.4800  212.7590  156.5990 C   0  0  0  0  0  2  0  0  0  0  0  0
  158.2760  213.0730  156.2110 C   0  0  1  0  0  3  0  0  0  0  0  0
  156.0790  214.0520  157.1610 C   0  0  0  0  0  2  0  0  0  0  0  0
  158.4610  211.6820  156.8240 C   0  0  0  0  0  2  0  0  0  0  0  0
  159.5930  210.9150  156.2160 C   0  0  0  0  0  0  0  0  0  0  0  0
  161.6850  209.4370  155.1430 C   0  0  0  0  0  3  0  0  0  0  0  0
  161.9050  210.6980  155.7010 C   0  0  0  0  0  3  0  0  0  0  0  0
  160.3920  208.9120  155.1360 C   0  0  0  0  0  3  0  0  0  0  0  0
  160.8670  211.4010  156.2290 N   0  0  0  0  0  0  0  0  0  0  0  0
  159.3390  209.6510  155.6780 C   0  0  0  0  0  3  0  0  0  0  0  0
  1 12  1  0  0  0  0
  1 23  1  0  0  0  0
  2  7  1  0  0  0  0
  2  4  1  0  0  0  0
  3  7  1  6  0  0  0
  3 11  1  0  0  0  0
  3  6  1  0  0  0  0
  4  8  2  0  0  0  0
  5  2  2  0  0  0  0
  6  8  1  6  0  0  0
  6  9  1  0  0  0  0
  9 10  1  0  0  0  0
  9  1  1  1  0  0  0
 11 10  1  0  0  0  0
 12 13  1  1  0  0  0
 12 14  1  0  0  0  0
 15 19  1  0  0  0  0
 15 21  1  0  0  0  0
 16 15  2  0  0  0  0
 17 16  1  0  0  0  0
 18 20  1  0  0  0  0
 20 14  1  0  0  0  0
 20 19  2  0  0  0  0
 22 18  2  0  0  0  0
 22 16  1  0  0  0  0
 24 23  1  0  0  0  0
 24 25  1  0  0  0  0
 25 26  1  6  0  0  0
 25 27  1  0  0  0  0
 27 28  1  0  0  0  0
 28 29  2  0  0  0  0
 28 30  1  0  0  0  0
 31 30  1  6  0  0  0
 31 33  1  0  0  0  0
 31 35  1  0  0  0  0
 33 34  1  0  0  0  0
 34 36  1  0  0  0  0
 35 37  1  1  0  0  0
 35 32  1  0  0  0  0
 36 32  1  0  0  0  0
 38 42  1  0  0  0  0
 38 37  1  0  0  0  0
 39 40  1  0  0  0  0
 40 42  2  0  0  0  0
 41 39  2  0  0  0  0
 41 43  1  0  0  0  0
 43 38  2  0  0  0  0
M  END
>  <MODEL>
9

>  <REMARK>
 VINA RESULT:      -6.5      3.546      8.272
  Name = 
  13 active torsions:
  status: ('A' for Active; 'I' for Inactive)
    1  A    between atoms: C_1  and  C_34
    2  A    between atoms: C_1  and  C_35
    3  A    between atoms: C_2  and  O_6
    4  A    between atoms: C_2  and  C_13
    5  A    between atoms: S_3  and  C_4
    6  A    between atoms: S_3  and  C_12
    7  A    between atoms: O_6  and  C_12
    8  A    between atoms: N_8  and  C_27
    9  A    between atoms: N_8  and  C_30
   10  A    between atoms: N_8  and  C_34
   11  A    between atoms: C_11  and  C_14
   12  A    between atoms: C_13  and  C_27
   13  A    between atoms: C_14  and  C_41
                            x       y       z     vdW  Elec       q    Type
                         _______ _______ _______ _____ _____    ______ ____

>  <TORSDO>
F 13

$$$$
