=
 OpenBabel11062408013D

 34 37  0  0  1  0  0  0  0  0999 V2000
  159.1910  211.5480  154.9450 C   0  0  1  0  0  3  0  0  0  0  0  0
  160.9780  209.6590  154.7760 C   0  0  2  0  0  3  0  0  0  0  0  0
  161.1190  207.2670  153.8640 N   0  0  0  0  0  0  0  0  0  0  0  0
  161.2400  207.7160  156.1570 O   0  0  0  0  0  0  0  0  0  0  0  0
  159.7370  210.2160  155.5070 C   0  0  1  0  0  3  0  0  0  0  0  0
  161.0630  210.0780  153.2830 C   0  0  1  0  0  3  0  0  0  0  0  0
  159.4540  211.7520  153.4490 C   0  0  0  0  0  2  0  0  0  0  0  0
  160.8970  207.7470  152.5590 N   0  0  0  0  0  2  0  0  0  0  0  0
  161.6660  208.9750  152.4020 C   0  0  1  0  0  3  0  0  0  0  0  0
  161.0960  208.1660  154.9880 C   0  0  0  0  0  0  0  0  0  0  0  0
  159.7550  210.4910  152.7890 N   0  0  0  0  0  2  0  0  0  0  0  0
  161.9730  211.0710  149.2340 C   0  0  0  0  0  0  0  0  0  0  0  0
  162.0540  210.0710  148.2610 C   0  0  0  0  0  3  0  0  0  0  0  0
  161.7830  209.3760  150.9620 C   0  0  0  0  0  0  0  0  0  0  0  0
  162.0040  208.7250  148.6350 C   0  0  0  0  0  3  0  0  0  0  0  0
  161.8400  210.7250  150.5820 C   0  0  0  0  0  3  0  0  0  0  0  0
  161.8710  208.3790  149.9830 C   0  0  0  0  0  3  0  0  0  0  0  0
  162.0400  212.7550  148.7660 Cl  0  0  0  0  0  0  0  0  0  0  0  0
  157.4430  212.6290  156.1650 O   0  0  0  0  0  1  0  0  0  0  0  0
  157.6980  211.6430  155.2100 C   0  0  0  0  0  2  0  0  0  0  0  0
  160.0550  210.3690  156.9940 C   0  0  0  0  0  2  0  0  0  0  0  0
  162.4230  211.1200  157.2300 C   0  0  0  0  0  1  0  0  0  0  0  0
  160.9690  211.5540  157.2600 C   0  0  0  0  0  2  0  0  0  0  0  0
  161.4840  205.8680  154.0490 C   0  0  0  0  0  2  0  0  0  0  0  0
  160.9030  205.0100  152.9340 C   0  0  0  0  0  2  0  0  0  0  0  0
  161.9060  204.8040  151.8080 C   0  0  0  0  0  2  0  0  0  0  0  0
  161.6160  203.5170  151.0500 C   0  0  0  0  0  2  0  0  0  0  0  0
  160.6220  202.6170  149.0010 N   0  0  0  0  0  0  0  0  0  0  0  0
  160.5950  203.7430  149.9430 C   0  0  2  0  0  3  0  0  0  0  0  0
  160.0680  201.3370  149.4060 C   0  0  0  0  0  1  0  0  0  0  0  0
  161.6560  203.8950  147.2560 C   0  0  0  0  0  3  0  0  0  0  0  0
  161.3920  205.1180  148.0280 C   0  0  0  0  0  3  0  0  0  0  0  0
  160.8750  205.0580  149.2570 C   0  0  0  0  0  3  0  0  0  0  0  0
  161.2760  202.7100  147.7290 C   0  0  0  0  0  3  0  0  0  0  0  0
  1 20  1  6  0  0  0
  1  5  1  0  0  0  0
  2 10  1  6  0  0  0
  2  5  1  0  0  0  0
  3 24  1  0  0  0  0
  3 10  1  0  0  0  0
  5 21  1  1  0  0  0
  6 11  1  6  0  0  0
  6  2  1  0  0  0  0
  7  1  1  0  0  0  0
  8  3  1  0  0  0  0
  9 14  1  6  0  0  0
  9  8  1  0  0  0  0
  9  6  1  0  0  0  0
 10  4  2  0  0  0  0
 11  7  1  0  0  0  0
 12 16  1  0  0  0  0
 13 15  1  0  0  0  0
 13 12  2  0  0  0  0
 15 17  2  0  0  0  0
 16 14  2  0  0  0  0
 17 14  1  0  0  0  0
 18 12  1  0  0  0  0
 20 19  1  0  0  0  0
 21 23  1  0  0  0  0
 22 23  1  0  0  0  0
 25 24  1  0  0  0  0
 26 25  1  0  0  0  0
 27 26  1  0  0  0  0
 28 30  1  0  0  0  0
 28 29  1  0  0  0  0
 29 27  1  1  0  0  0
 31 34  2  0  0  0  0
 31 32  1  0  0  0  0
 32 33  2  0  0  0  0
 33 29  1  0  0  0  0
 34 28  1  0  0  0  0
M  END
>  <MODEL>
1

>  <REMARK>
 VINA RESULT:      -7.7      0.000      0.000
  Name = 
  9 active torsions:
  status: ('A' for Active; 'I' for Inactive)
    1  A    between atoms: C_1  and  C_19
    2  A    between atoms: C_2  and  C_15
    3  A    between atoms: C_2  and  C_25
    4  A    between atoms: C_3  and  C_13
    5  A    between atoms: C_3  and  C_17
    6  A    between atoms: N_5  and  C_18
    7  A    between atoms: C_12  and  C_28
    8  A    between atoms: C_17  and  C_29
    9  A    between atoms: C_18  and  C_29
                            x       y       z     vdW  Elec       q    Type
                         _______ _______ _______ _____ _____    ______ ____

>  <TORSDO>
F 9

$$$$
=
 OpenBabel11062408013D

 34 37  0  0  1  0  0  0  0  0999 V2000
  160.7330  207.7450  154.7500 C   0  0  1  0  0  3  0  0  0  0  0  0
  160.4860  209.0870  152.5310 C   0  0  2  0  0  3  0  0  0  0  0  0
  162.0120  209.9350  150.6540 N   0  0  0  0  0  0  0  0  0  0  0  0
  160.9390  211.4060  152.1240 O   0  0  0  0  0  0  0  0  0  0  0  0
  160.8880  209.0990  154.0220 C   0  0  1  0  0  3  0  0  0  0  0  0
  160.6580  207.7040  151.8490 C   0  0  1  0  0  3  0  0  0  0  0  0
  160.8930  206.5210  153.8410 C   0  0  0  0  0  2  0  0  0  0  0  0
  162.3260  208.6080  150.3040 N   0  0  0  0  0  2  0  0  0  0  0  0
  161.0980  207.8270  150.3830 C   0  0  1  0  0  3  0  0  0  0  0  0
  161.1680  210.2130  151.7870 C   0  0  0  0  0  0  0  0  0  0  0  0
  161.5810  206.8670  152.6070 N   0  0  0  0  0  2  0  0  0  0  0  0
  161.0580  204.0780  149.7000 C   0  0  0  0  0  0  0  0  0  0  0  0
  161.4730  204.0470  148.3650 C   0  0  0  0  0  3  0  0  0  0  0  0
  161.2400  206.4990  149.7010 C   0  0  0  0  0  0  0  0  0  0  0  0
  161.7670  205.2390  147.6970 C   0  0  0  0  0  3  0  0  0  0  0  0
  160.9390  205.3010  150.3660 C   0  0  0  0  0  3  0  0  0  0  0  0
  161.6480  206.4620  148.3630 C   0  0  0  0  0  3  0  0  0  0  0  0
  160.6850  202.5870  150.5350 Cl  0  0  0  0  0  0  0  0  0  0  0  0
  161.0880  207.8420  157.1120 O   0  0  0  0  0  1  0  0  0  0  0  0
  161.7360  207.6570  155.8890 C   0  0  0  0  0  2  0  0  0  0  0  0
  160.0870  210.1770  154.7520 C   0  0  0  0  0  2  0  0  0  0  0  0
  160.2160  212.4040  155.8700 C   0  0  0  0  0  1  0  0  0  0  0  0
  160.9890  211.1570  155.4830 C   0  0  0  0  0  2  0  0  0  0  0  0
  162.4620  211.0180  149.7900 C   0  0  0  0  0  2  0  0  0  0  0  0
  161.7960  210.9280  148.4240 C   0  0  0  0  0  2  0  0  0  0  0  0
  161.6760  212.2970  147.7690 C   0  0  0  0  0  2  0  0  0  0  0  0
  160.6840  212.2620  146.6160 C   0  0  0  0  0  2  0  0  0  0  0  0
  160.3280  213.0690  144.3320 N   0  0  0  0  0  0  0  0  0  0  0  0
  160.9460  213.3880  145.6250 C   0  0  2  0  0  3  0  0  0  0  0  0
  158.8830  213.1340  144.1980 C   0  0  0  0  0  1  0  0  0  0  0  0
  162.4290  212.6620  143.2490 C   0  0  0  0  0  3  0  0  0  0  0  0
  163.1140  213.2500  144.4090 C   0  0  0  0  0  3  0  0  0  0  0  0
  162.4330  213.6150  145.4980 C   0  0  0  0  0  3  0  0  0  0  0  0
  161.1000  212.5900  143.2230 C   0  0  0  0  0  3  0  0  0  0  0  0
  1 20  1  1  0  0  0
  2 10  1  6  0  0  0
  2  5  1  0  0  0  0
  3 10  1  0  0  0  0
  5  1  1  0  0  0  0
  5 21  1  1  0  0  0
  6  2  1  0  0  0  0
  6 11  1  1  0  0  0
  7  1  1  0  0  0  0
  8  9  1  0  0  0  0
  8  3  1  0  0  0  0
  9 14  1  1  0  0  0
  9  6  1  0  0  0  0
 10  4  2  0  0  0  0
 11  7  1  0  0  0  0
 12 16  1  0  0  0  0
 12 18  1  0  0  0  0
 13 12  2  0  0  0  0
 14 16  2  0  0  0  0
 15 17  2  0  0  0  0
 15 13  1  0  0  0  0
 17 14  1  0  0  0  0
 20 19  1  0  0  0  0
 21 23  1  0  0  0  0
 23 22  1  0  0  0  0
 24  3  1  0  0  0  0
 25 24  1  0  0  0  0
 26 25  1  0  0  0  0
 27 26  1  0  0  0  0
 28 29  1  0  0  0  0
 29 27  1  1  0  0  0
 30 28  1  0  0  0  0
 31 32  1  0  0  0  0
 32 33  2  0  0  0  0
 33 29  1  0  0  0  0
 34 31  2  0  0  0  0
 34 28  1  0  0  0  0
M  END
>  <MODEL>
2

>  <REMARK>
 VINA RESULT:      -7.4      3.602      6.783
  Name = 
  9 active torsions:
  status: ('A' for Active; 'I' for Inactive)
    1  A    between atoms: C_1  and  C_19
    2  A    between atoms: C_2  and  C_15
    3  A    between atoms: C_2  and  C_25
    4  A    between atoms: C_3  and  C_13
    5  A    between atoms: C_3  and  C_17
    6  A    between atoms: N_5  and  C_18
    7  A    between atoms: C_12  and  C_28
    8  A    between atoms: C_17  and  C_29
    9  A    between atoms: C_18  and  C_29
                            x       y       z     vdW  Elec       q    Type
                         _______ _______ _______ _____ _____    ______ ____

>  <TORSDO>
F 9

$$$$
=
 OpenBabel11062408013D

 34 37  0  0  1  0  0  0  0  0999 V2000
  160.4520  210.9710  152.9180 C   0  0  1  0  0  3  0  0  0  0  0  0
  162.1240  209.8200  151.2840 C   0  0  2  0  0  3  0  0  0  0  0  0
  162.0210  208.5450  149.0630 N   0  0  0  0  0  0  0  0  0  0  0  0
  162.6330  207.4880  151.0590 O   0  0  0  0  0  0  0  0  0  0  0  0
  161.0770  209.6530  152.4070 C   0  0  1  0  0  3  0  0  0  0  0  0
  161.9000  211.0790  150.4050 C   0  0  1  0  0  3  0  0  0  0  0  0
  160.3960  212.0870  151.8690 C   0  0  0  0  0  2  0  0  0  0  0  0
  161.5370  209.6990  148.4180 N   0  0  0  0  0  2  0  0  0  0  0  0
  162.2810  210.8410  148.9370 C   0  0  1  0  0  3  0  0  0  0  0  0
  162.2540  208.5440  150.4840 C   0  0  0  0  0  0  0  0  0  0  0  0
  160.5260  211.5520  150.5220 N   0  0  0  0  0  2  0  0  0  0  0  0
  160.8780  213.3070  146.3930 C   0  0  0  0  0  0  0  0  0  0  0  0
  161.7710  214.3730  146.5370 C   0  0  0  0  0  3  0  0  0  0  0  0
  162.0980  212.0570  148.0790 C   0  0  0  0  0  0  0  0  0  0  0  0
  162.8240  214.2850  147.4520 C   0  0  0  0  0  3  0  0  0  0  0  0
  161.0390  212.1520  147.1640 C   0  0  0  0  0  3  0  0  0  0  0  0
  162.9850  213.1300  148.2230 C   0  0  0  0  0  3  0  0  0  0  0  0
  159.5570  213.4190  145.2520 Cl  0  0  0  0  0  0  0  0  0  0  0  0
  158.9780  211.0290  154.7990 O   0  0  0  0  0  1  0  0  0  0  0  0
  159.0500  210.7050  153.4430 C   0  0  0  0  0  2  0  0  0  0  0  0
  161.7050  208.8900  153.5720 C   0  0  0  0  0  2  0  0  0  0  0  0
  160.4330  207.7290  155.3780 C   0  0  0  0  0  1  0  0  0  0  0  0
  160.9030  207.6510  153.9380 C   0  0  0  0  0  2  0  0  0  0  0  0
  162.3870  207.3870  148.2580 C   0  0  0  0  0  2  0  0  0  0  0  0
  161.1450  206.6520  147.7750 C   0  0  0  0  0  2  0  0  0  0  0  0
  161.5030  205.3460  147.0790 C   0  0  0  0  0  2  0  0  0  0  0  0
  161.9090  204.2850  148.0920 C   0  0  0  0  0  2  0  0  0  0  0  0
  160.7930  203.5660  150.1490 N   0  0  0  0  0  0  0  0  0  0  0  0
  160.6920  203.5890  148.6840 C   0  0  2  0  0  3  0  0  0  0  0  0
  160.5960  204.7960  150.8960 C   0  0  0  0  0  1  0  0  0  0  0  0
  161.2270  201.2090  150.2400 C   0  0  0  0  0  3  0  0  0  0  0  0
  160.8480  201.1090  148.8230 C   0  0  0  0  0  3  0  0  0  0  0  0
  160.5700  202.2000  148.1060 C   0  0  0  0  0  3  0  0  0  0  0  0
  161.1890  202.3860  150.8610 C   0  0  0  0  0  3  0  0  0  0  0  0
  1 20  1  6  0  0  0
  2 10  1  6  0  0  0
  2  5  1  0  0  0  0
  3 10  1  0  0  0  0
  5  1  1  0  0  0  0
  5 21  1  1  0  0  0
  6 11  1  6  0  0  0
  6  2  1  0  0  0  0
  7  1  1  0  0  0  0
  8  9  1  0  0  0  0
  8  3  1  0  0  0  0
  9 14  1  6  0  0  0
  9  6  1  0  0  0  0
 10  4  2  0  0  0  0
 11  7  1  0  0  0  0
 12 13  2  0  0  0  0
 12 16  1  0  0  0  0
 13 15  1  0  0  0  0
 14 17  1  0  0  0  0
 15 17  2  0  0  0  0
 16 14  2  0  0  0  0
 18 12  1  0  0  0  0
 20 19  1  0  0  0  0
 21 23  1  0  0  0  0
 23 22  1  0  0  0  0
 24  3  1  0  0  0  0
 25 24  1  0  0  0  0
 26 25  1  0  0  0  0
 26 27  1  0  0  0  0
 28 34  1  0  0  0  0
 28 30  1  0  0  0  0
 29 27  1  6  0  0  0
 29 28  1  0  0  0  0
 31 34  2  0  0  0  0
 32 31  1  0  0  0  0
 33 29  1  0  0  0  0
 33 32  2  0  0  0  0
M  END
>  <MODEL>
3

>  <REMARK>
 VINA RESULT:      -7.3      2.346      4.031
  Name = 
  9 active torsions:
  status: ('A' for Active; 'I' for Inactive)
    1  A    between atoms: C_1  and  C_19
    2  A    between atoms: C_2  and  C_15
    3  A    between atoms: C_2  and  C_25
    4  A    between atoms: C_3  and  C_13
    5  A    between atoms: C_3  and  C_17
    6  A    between atoms: N_5  and  C_18
    7  A    between atoms: C_12  and  C_28
    8  A    between atoms: C_17  and  C_29
    9  A    between atoms: C_18  and  C_29
                            x       y       z     vdW  Elec       q    Type
                         _______ _______ _______ _____ _____    ______ ____

>  <TORSDO>
F 9

$$$$
=
 OpenBabel11062408013D

 34 37  0  0  1  0  0  0  0  0999 V2000
  160.8870  208.5140  154.7360 C   0  0  1  0  0  3  0  0  0  0  0  0
  160.7310  208.5410  152.1360 C   0  0  2  0  0  3  0  0  0  0  0  0
  162.2880  208.1130  150.1440 N   0  0  0  0  0  0  0  0  0  0  0  0
  161.4470  210.2470  150.6100 O   0  0  0  0  0  0  0  0  0  0  0  0
  161.1800  209.2700  153.4210 C   0  0  1  0  0  3  0  0  0  0  0  0
  160.7150  206.9950  152.2690 C   0  0  1  0  0  3  0  0  0  0  0  0
  160.8690  206.9880  154.5920 C   0  0  0  0  0  2  0  0  0  0  0  0
  162.4280  206.7690  150.5380 N   0  0  0  0  0  2  0  0  0  0  0  0
  161.1180  206.2930  150.9650 C   0  0  1  0  0  3  0  0  0  0  0  0
  161.5200  209.0320  150.9420 C   0  0  0  0  0  0  0  0  0  0  0  0
  161.5540  206.5640  153.3810 N   0  0  0  0  0  2  0  0  0  0  0  0
  160.2710  202.6340  150.3180 C   0  0  0  0  0  0  0  0  0  0  0  0
  161.0790  202.0030  151.2670 C   0  0  0  0  0  3  0  0  0  0  0  0
  161.0780  204.7980  151.0680 C   0  0  0  0  0  0  0  0  0  0  0  0
  161.8890  202.7650  152.1140 C   0  0  0  0  0  3  0  0  0  0  0  0
  160.2720  204.0280  150.2160 C   0  0  0  0  0  3  0  0  0  0  0  0
  161.8900  204.1590  152.0120 C   0  0  0  0  0  3  0  0  0  0  0  0
  159.2600  201.6810  149.2550 Cl  0  0  0  0  0  0  0  0  0  0  0  0
  161.9070  207.9700  156.8280 O   0  0  0  0  0  1  0  0  0  0  0  0
  161.9080  208.9060  155.7920 C   0  0  0  0  0  2  0  0  0  0  0  0
  160.5380  210.6560  153.4640 C   0  0  0  0  0  2  0  0  0  0  0  0
  158.3300  211.7400  153.0450 C   0  0  0  0  0  1  0  0  0  0  0  0
  159.0410  210.5820  153.7180 C   0  0  0  0  0  2  0  0  0  0  0  0
  162.8370  208.5340  148.8620 C   0  0  0  0  0  2  0  0  0  0  0  0
  162.5970  207.4710  147.7990 C   0  0  0  0  0  2  0  0  0  0  0  0
  161.1280  207.3970  147.4040 C   0  0  0  0  0  2  0  0  0  0  0  0
  160.6750  205.9520  147.2670 C   0  0  0  0  0  2  0  0  0  0  0  0
  161.2540  204.7780  145.1970 N   0  0  0  0  0  0  0  0  0  0  0  0
  161.7200  205.1080  146.5500 C   0  0  2  0  0  3  0  0  0  0  0  0
  161.2280  205.8150  144.1810 C   0  0  0  0  0  1  0  0  0  0  0  0
  160.8670  202.4700  145.7220 C   0  0  0  0  0  3  0  0  0  0  0  0
  161.5930  202.6610  146.9860 C   0  0  0  0  0  3  0  0  0  0  0  0
  162.0160  203.8700  147.3610 C   0  0  0  0  0  3  0  0  0  0  0  0
  160.7200  203.4870  144.8750 C   0  0  0  0  0  3  0  0  0  0  0  0
  1 20  1  1  0  0  0
  2 10  1  6  0  0  0
  2  6  1  0  0  0  0
  2  5  1  0  0  0  0
  3  8  1  0  0  0  0
  3 10  1  0  0  0  0
  4 10  2  0  0  0  0
  5 21  1  1  0  0  0
  5  1  1  0  0  0  0
  6 11  1  1  0  0  0
  7  1  1  0  0  0  0
  8  9  1  0  0  0  0
  9 14  1  1  0  0  0
  9  6  1  0  0  0  0
 11  7  1  0  0  0  0
 12 13  1  0  0  0  0
 13 15  2  0  0  0  0
 14 17  2  0  0  0  0
 16 12  2  0  0  0  0
 16 14  1  0  0  0  0
 17 15  1  0  0  0  0
 18 12  1  0  0  0  0
 20 19  1  0  0  0  0
 21 23  1  0  0  0  0
 22 23  1  0  0  0  0
 24  3  1  0  0  0  0
 25 24  1  0  0  0  0
 26 25  1  0  0  0  0
 27 26  1  0  0  0  0
 28 29  1  0  0  0  0
 29 27  1  1  0  0  0
 29 33  1  0  0  0  0
 30 28  1  0  0  0  0
 31 32  1  0  0  0  0
 32 33  2  0  0  0  0
 34 28  1  0  0  0  0
 34 31  2  0  0  0  0
M  END
>  <MODEL>
4

>  <REMARK>
 VINA RESULT:      -7.2      2.902      5.291
  Name = 
  9 active torsions:
  status: ('A' for Active; 'I' for Inactive)
    1  A    between atoms: C_1  and  C_19
    2  A    between atoms: C_2  and  C_15
    3  A    between atoms: C_2  and  C_25
    4  A    between atoms: C_3  and  C_13
    5  A    between atoms: C_3  and  C_17
    6  A    between atoms: N_5  and  C_18
    7  A    between atoms: C_12  and  C_28
    8  A    between atoms: C_17  and  C_29
    9  A    between atoms: C_18  and  C_29
                            x       y       z     vdW  Elec       q    Type
                         _______ _______ _______ _____ _____    ______ ____

>  <TORSDO>
F 9

$$$$
=
 OpenBabel11062408013D

 34 37  0  0  1  0  0  0  0  0999 V2000
  160.3370  208.3960  155.7760 C   0  0  1  0  0  3  0  0  0  0  0  0
  160.3760  209.2070  153.3000 C   0  0  2  0  0  3  0  0  0  0  0  0
  162.1050  209.4780  151.4270 N   0  0  0  0  0  0  0  0  0  0  0  0
  161.0800  211.3280  152.4300 O   0  0  0  0  0  0  0  0  0  0  0  0
  160.6730  209.5290  154.7810 C   0  0  1  0  0  3  0  0  0  0  0  0
  160.4610  207.6950  152.9620 C   0  0  1  0  0  3  0  0  0  0  0  0
  160.4390  206.9870  155.1800 C   0  0  0  0  0  2  0  0  0  0  0  0
  162.3120  208.0860  151.4110 N   0  0  0  0  0  2  0  0  0  0  0  0
  161.0110  207.4430  151.5510 C   0  0  1  0  0  3  0  0  0  0  0  0
  161.2150  210.0750  152.3890 C   0  0  0  0  0  0  0  0  0  0  0  0
  161.2430  206.9850  153.9670 N   0  0  0  0  0  2  0  0  0  0  0  0
  161.1770  204.1990  149.5580 C   0  0  0  0  0  0  0  0  0  0  0  0
  161.2370  203.2570  150.5890 C   0  0  0  0  0  3  0  0  0  0  0  0
  161.0710  205.9870  151.1970 C   0  0  0  0  0  0  0  0  0  0  0  0
  161.2180  203.6770  151.9220 C   0  0  0  0  0  3  0  0  0  0  0  0
  161.0970  205.5610  149.8610 C   0  0  0  0  0  3  0  0  0  0  0  0
  161.1380  205.0400  152.2250 C   0  0  0  0  0  3  0  0  0  0  0  0
  161.2060  203.6740  147.8900 Cl  0  0  0  0  0  0  0  0  0  0  0  0
  162.4240  209.1600  156.6550 O   0  0  0  0  0  1  0  0  0  0  0  0
  161.2440  208.4930  156.9910 C   0  0  0  0  0  2  0  0  0  0  0  0
  159.9310  210.8060  155.1770 C   0  0  0  0  0  2  0  0  0  0  0  0
  157.8950  211.8350  154.1680 C   0  0  0  0  0  1  0  0  0  0  0  0
  158.4290  210.6740  154.9840 C   0  0  0  0  0  2  0  0  0  0  0  0
  162.7170  210.2950  150.3870 C   0  0  0  0  0  2  0  0  0  0  0  0
  161.9310  210.1900  149.0890 C   0  0  0  0  0  2  0  0  0  0  0  0
  162.0570  211.4570  148.2540 C   0  0  0  0  0  2  0  0  0  0  0  0
  161.2860  212.6050  148.8890 C   0  0  0  0  0  2  0  0  0  0  0  0
  159.3360  213.7290  147.9250 N   0  0  0  0  0  0  0  0  0  0  0  0
  160.7950  213.5910  147.8380 C   0  0  2  0  0  3  0  0  0  0  0  0
  158.7540  214.4530  149.0410 C   0  0  0  0  0  1  0  0  0  0  0  0
  158.9430  212.5370  145.8810 C   0  0  0  0  0  3  0  0  0  0  0  0
  160.3800  212.6220  145.5830 C   0  0  0  0  0  3  0  0  0  0  0  0
  161.2370  213.1350  146.4690 C   0  0  0  0  0  3  0  0  0  0  0  0
  158.4580  213.0760  146.9980 C   0  0  0  0  0  3  0  0  0  0  0  0
  1 20  1  1  0  0  0
  2 10  1  6  0  0  0
  2  5  1  0  0  0  0
  3 10  1  0  0  0  0
  5 21  1  1  0  0  0
  5  1  1  0  0  0  0
  6  2  1  0  0  0  0
  6 11  1  1  0  0  0
  7  1  1  0  0  0  0
  8  3  1  0  0  0  0
  8  9  1  0  0  0  0
  9 14  1  1  0  0  0
  9  6  1  0  0  0  0
 10  4  2  0  0  0  0
 11  7  1  0  0  0  0
 12 16  2  0  0  0  0
 12 13  1  0  0  0  0
 13 15  2  0  0  0  0
 14 17  2  0  0  0  0
 15 17  1  0  0  0  0
 16 14  1  0  0  0  0
 18 12  1  0  0  0  0
 19 20  1  0  0  0  0
 22 23  1  0  0  0  0
 23 21  1  0  0  0  0
 24  3  1  0  0  0  0
 25 24  1  0  0  0  0
 26 27  1  0  0  0  0
 26 25  1  0  0  0  0
 28 30  1  0  0  0  0
 29 28  1  0  0  0  0
 29 27  1  1  0  0  0
 31 34  2  0  0  0  0
 32 31  1  0  0  0  0
 32 33  2  0  0  0  0
 33 29  1  0  0  0  0
 34 28  1  0  0  0  0
M  END
>  <MODEL>
5

>  <REMARK>
 VINA RESULT:      -6.8      2.932      6.570
  Name = 
  9 active torsions:
  status: ('A' for Active; 'I' for Inactive)
    1  A    between atoms: C_1  and  C_19
    2  A    between atoms: C_2  and  C_15
    3  A    between atoms: C_2  and  C_25
    4  A    between atoms: C_3  and  C_13
    5  A    between atoms: C_3  and  C_17
    6  A    between atoms: N_5  and  C_18
    7  A    between atoms: C_12  and  C_28
    8  A    between atoms: C_17  and  C_29
    9  A    between atoms: C_18  and  C_29
                            x       y       z     vdW  Elec       q    Type
                         _______ _______ _______ _____ _____    ______ ____

>  <TORSDO>
F 9

$$$$
=
 OpenBabel11062408013D

 34 37  0  0  1  0  0  0  0  0999 V2000
  160.8340  203.0800  149.5280 C   0  0  1  0  0  3  0  0  0  0  0  0
  162.0640  205.3490  149.1750 C   0  0  2  0  0  3  0  0  0  0  0  0
  161.4310  207.8150  148.8680 N   0  0  0  0  0  0  0  0  0  0  0  0
  162.3980  206.5710  147.1380 O   0  0  0  0  0  0  0  0  0  0  0  0
  161.2710  204.1850  148.5410 C   0  0  1  0  0  3  0  0  0  0  0  0
  161.7220  205.5980  150.6680 C   0  0  1  0  0  3  0  0  0  0  0  0
  160.6130  203.5720  150.9640 C   0  0  0  0  0  2  0  0  0  0  0  0
  160.8800  207.8390  150.1640 N   0  0  0  0  0  2  0  0  0  0  0  0
  161.7710  207.0870  151.0380 C   0  0  1  0  0  3  0  0  0  0  0  0
  161.9580  206.5930  148.3200 C   0  0  0  0  0  0  0  0  0  0  0  0
  160.4280  205.0140  151.0040 N   0  0  0  0  0  2  0  0  0  0  0  0
  160.8290  208.8250  154.2960 C   0  0  0  0  0  0  0  0  0  0  0  0
  160.8710  207.7520  155.1910 C   0  0  0  0  0  3  0  0  0  0  0  0
  161.4720  207.3410  152.4850 C   0  0  0  0  0  0  0  0  0  0  0  0
  161.2090  206.4750  154.7360 C   0  0  0  0  0  3  0  0  0  0  0  0
  161.1260  208.6200  152.9450 C   0  0  0  0  0  3  0  0  0  0  0  0
  161.5060  206.2700  153.3850 C   0  0  0  0  0  3  0  0  0  0  0  0
  160.4020  210.4230  154.8640 Cl  0  0  0  0  0  0  0  0  0  0  0  0
  159.5590  201.0640  149.3760 O   0  0  0  0  0  1  0  0  0  0  0  0
  159.5630  202.4150  149.0250 C   0  0  0  0  0  2  0  0  0  0  0  0
  162.0930  203.5750  147.4070 C   0  0  0  0  0  2  0  0  0  0  0  0
  160.8310  202.2930  145.6770 C   0  0  0  0  0  1  0  0  0  0  0  0
  161.3680  203.6550  146.0730 C   0  0  0  0  0  2  0  0  0  0  0  0
  161.5620  209.0660  148.1340 C   0  0  0  0  0  2  0  0  0  0  0  0
  162.0060  210.1890  149.0600 C   0  0  0  0  0  2  0  0  0  0  0  0
  162.0540  211.5270  148.3340 C   0  0  0  0  0  2  0  0  0  0  0  0
  160.8310  211.7070  147.4460 C   0  0  0  0  0  2  0  0  0  0  0  0
  160.0250  212.9770  145.5140 N   0  0  0  0  0  0  0  0  0  0  0  0
  160.8700  213.0410  146.7130 C   0  0  2  0  0  3  0  0  0  0  0  0
  158.5800  212.9690  145.6610 C   0  0  0  0  0  1  0  0  0  0  0  0
  161.8900  212.9680  144.0060 C   0  0  0  0  0  3  0  0  0  0  0  0
  162.7680  213.3280  145.1280 C   0  0  0  0  0  3  0  0  0  0  0  0
  162.2990  213.3930  146.3770 C   0  0  0  0  0  3  0  0  0  0  0  0
  160.5830  212.8110  144.2040 C   0  0  0  0  0  3  0  0  0  0  0  0
  1 20  1  6  0  0  0
  1  7  1  0  0  0  0
  2 10  1  6  0  0  0
  2  6  1  0  0  0  0
  3  8  1  0  0  0  0
  4 10  2  0  0  0  0
  5 21  1  6  0  0  0
  5  2  1  0  0  0  0
  5  1  1  0  0  0  0
  6 11  1  6  0  0  0
  6  9  1  0  0  0  0
  7 11  1  0  0  0  0
  8  9  1  0  0  0  0
  9 14  1  1  0  0  0
 10  3  1  0  0  0  0
 12 18  1  0  0  0  0
 12 13  1  0  0  0  0
 14 16  1  0  0  0  0
 14 17  2  0  0  0  0
 15 13  2  0  0  0  0
 16 12  2  0  0  0  0
 17 15  1  0  0  0  0
 20 19  1  0  0  0  0
 22 23  1  0  0  0  0
 23 21  1  0  0  0  0
 24  3  1  0  0  0  0
 24 25  1  0  0  0  0
 26 25  1  0  0  0  0
 27 26  1  0  0  0  0
 28 30  1  0  0  0  0
 28 29  1  0  0  0  0
 29 27  1  6  0  0  0
 31 34  2  0  0  0  0
 31 32  1  0  0  0  0
 32 33  2  0  0  0  0
 33 29  1  0  0  0  0
 34 28  1  0  0  0  0
M  END
>  <MODEL>
6

>  <REMARK>
 VINA RESULT:      -6.7      3.717      8.692
  Name = 
  9 active torsions:
  status: ('A' for Active; 'I' for Inactive)
    1  A    between atoms: C_1  and  C_19
    2  A    between atoms: C_2  and  C_15
    3  A    between atoms: C_2  and  C_25
    4  A    between atoms: C_3  and  C_13
    5  A    between atoms: C_3  and  C_17
    6  A    between atoms: N_5  and  C_18
    7  A    between atoms: C_12  and  C_28
    8  A    between atoms: C_17  and  C_29
    9  A    between atoms: C_18  and  C_29
                            x       y       z     vdW  Elec       q    Type
                         _______ _______ _______ _____ _____    ______ ____

>  <TORSDO>
F 9

$$$$
=
 OpenBabel11062408013D

 34 37  0  0  1  0  0  0  0  0999 V2000
  161.6560  204.5930  146.9350 C   0  0  1  0  0  3  0  0  0  0  0  0
  160.7260  205.0800  149.3190 C   0  0  2  0  0  3  0  0  0  0  0  0
  161.6690  205.5720  151.6520 N   0  0  0  0  0  0  0  0  0  0  0  0
  160.5270  203.5840  151.1830 O   0  0  0  0  0  0  0  0  0  0  0  0
  161.3530  204.0540  148.3500 C   0  0  1  0  0  3  0  0  0  0  0  0
  161.1160  206.5500  149.0100 C   0  0  1  0  0  3  0  0  0  0  0  0
  161.9570  206.0960  146.8860 C   0  0  0  0  0  2  0  0  0  0  0  0
  162.2350  206.7700  151.1750 N   0  0  0  0  0  2  0  0  0  0  0  0
  161.2650  207.3940  150.2830 C   0  0  1  0  0  3  0  0  0  0  0  0
  160.9810  204.6800  150.7560 C   0  0  0  0  0  0  0  0  0  0  0  0
  162.3270  206.6010  148.1990 N   0  0  0  0  0  2  0  0  0  0  0  0
  161.6180  210.7630  148.5380 C   0  0  0  0  0  0  0  0  0  0  0  0
  162.2380  211.5170  149.5390 C   0  0  0  0  0  3  0  0  0  0  0  0
  161.6130  208.8250  150.0000 C   0  0  0  0  0  0  0  0  0  0  0  0
  162.5410  210.9290  150.7700 C   0  0  0  0  0  3  0  0  0  0  0  0
  161.3030  209.4210  148.7680 C   0  0  0  0  0  3  0  0  0  0  0  0
  162.2270  209.5860  151.0000 C   0  0  0  0  0  3  0  0  0  0  0  0
  161.2330  211.5000  146.9990 Cl  0  0  0  0  0  0  0  0  0  0  0  0
  163.8560  204.7100  146.0070 O   0  0  0  0  0  1  0  0  0  0  0  0
  162.8230  203.8280  146.3320 C   0  0  0  0  0  2  0  0  0  0  0  0
  160.4450  202.8280  148.2570 C   0  0  0  0  0  2  0  0  0  0  0  0
  161.2560  200.5820  147.5350 C   0  0  0  0  0  1  0  0  0  0  0  0
  161.1580  201.5580  148.6910 C   0  0  0  0  0  2  0  0  0  0  0  0
  161.6920  205.3020  153.0830 C   0  0  0  0  0  2  0  0  0  0  0  0
  161.7900  206.5990  153.8740 C   0  0  0  0  0  2  0  0  0  0  0  0
  160.4530  206.9770  154.4960 C   0  0  0  0  0  2  0  0  0  0  0  0
  160.5900  208.2170  155.3670 C   0  0  0  0  0  2  0  0  0  0  0  0
  161.5870  210.4480  155.5120 N   0  0  0  0  0  0  0  0  0  0  0  0
  161.1900  209.3790  154.5870 C   0  0  2  0  0  3  0  0  0  0  0  0
  162.7540  210.2630  156.3550 C   0  0  0  0  0  1  0  0  0  0  0  0
  159.8130  211.9110  154.8320 C   0  0  0  0  0  3  0  0  0  0  0  0
  159.5460  211.0200  153.6940 C   0  0  0  0  0  3  0  0  0  0  0  0
  160.1990  209.8630  153.5570 C   0  0  0  0  0  3  0  0  0  0  0  0
  160.7940  211.6300  155.6860 C   0  0  0  0  0  3  0  0  0  0  0  0
  1 20  1  1  0  0  0
  1  5  1  0  0  0  0
  2 10  1  1  0  0  0
  3 24  1  0  0  0  0
  5 21  1  6  0  0  0
  5  2  1  0  0  0  0
  6 11  1  1  0  0  0
  6  2  1  0  0  0  0
  6  9  1  0  0  0  0
  7  1  1  0  0  0  0
  7 11  1  0  0  0  0
  8  3  1  0  0  0  0
  9 14  1  6  0  0  0
  9  8  1  0  0  0  0
 10  4  2  0  0  0  0
 10  3  1  0  0  0  0
 12 16  2  0  0  0  0
 12 13  1  0  0  0  0
 13 15  2  0  0  0  0
 14 17  2  0  0  0  0
 15 17  1  0  0  0  0
 16 14  1  0  0  0  0
 18 12  1  0  0  0  0
 19 20  1  0  0  0  0
 21 23  1  0  0  0  0
 22 23  1  0  0  0  0
 24 25  1  0  0  0  0
 25 26  1  0  0  0  0
 26 27  1  0  0  0  0
 28 34  1  0  0  0  0
 28 30  1  0  0  0  0
 29 27  1  1  0  0  0
 29 28  1  0  0  0  0
 31 34  2  0  0  0  0
 32 31  1  0  0  0  0
 33 32  2  0  0  0  0
 33 29  1  0  0  0  0
M  END
>  <MODEL>
7

>  <REMARK>
 VINA RESULT:      -6.6      2.658      7.968
  Name = 
  9 active torsions:
  status: ('A' for Active; 'I' for Inactive)
    1  A    between atoms: C_1  and  C_19
    2  A    between atoms: C_2  and  C_15
    3  A    between atoms: C_2  and  C_25
    4  A    between atoms: C_3  and  C_13
    5  A    between atoms: C_3  and  C_17
    6  A    between atoms: N_5  and  C_18
    7  A    between atoms: C_12  and  C_28
    8  A    between atoms: C_17  and  C_29
    9  A    between atoms: C_18  and  C_29
                            x       y       z     vdW  Elec       q    Type
                         _______ _______ _______ _____ _____    ______ ____

>  <TORSDO>
F 9

$$$$
=
 OpenBabel11062408013D

 34 37  0  0  1  0  0  0  0  0999 V2000
  160.1900  211.4100  153.6970 C   0  0  1  0  0  3  0  0  0  0  0  0
  161.7920  209.7930  152.4300 C   0  0  2  0  0  3  0  0  0  0  0  0
  161.6310  208.0670  150.5410 N   0  0  0  0  0  0  0  0  0  0  0  0
  162.0980  207.4350  152.7450 O   0  0  0  0  0  0  0  0  0  0  0  0
  160.7070  209.9650  153.5160 C   0  0  1  0  0  3  0  0  0  0  0  0
  161.7030  210.8380  151.2870 C   0  0  1  0  0  3  0  0  0  0  0  0
  160.2590  212.2660  152.4270 C   0  0  0  0  0  2  0  0  0  0  0  0
  161.2690  209.0840  149.6380 N   0  0  0  0  0  2  0  0  0  0  0  0
  162.0970  210.2490  149.9250 C   0  0  1  0  0  3  0  0  0  0  0  0
  161.8280  208.3640  151.9360 C   0  0  0  0  0  0  0  0  0  0  0  0
  160.3740  211.4360  151.2370 N   0  0  0  0  0  2  0  0  0  0  0  0
  160.8960  212.3140  146.9560 C   0  0  0  0  0  0  0  0  0  0  0  0
  161.9750  213.1860  146.7860 C   0  0  0  0  0  3  0  0  0  0  0  0
  162.0450  211.2540  148.8150 C   0  0  0  0  0  0  0  0  0  0  0  0
  163.0860  213.0970  147.6290 C   0  0  0  0  0  3  0  0  0  0  0  0
  160.9290  211.3520  147.9700 C   0  0  0  0  0  3  0  0  0  0  0  0
  163.1190  212.1350  148.6430 C   0  0  0  0  0  3  0  0  0  0  0  0
  159.5030  212.4280  145.9050 Cl  0  0  0  0  0  0  0  0  0  0  0  0
  158.3810  212.6530  154.6430 O   0  0  0  0  0  1  0  0  0  0  0  0
  158.7570  211.3820  154.2050 C   0  0  0  0  0  2  0  0  0  0  0  0
  161.2360  209.4310  154.8460 C   0  0  0  0  0  2  0  0  0  0  0  0
  161.5550  211.1080  156.6670 C   0  0  0  0  0  1  0  0  0  0  0  0
  162.2120  210.3980  155.4990 C   0  0  0  0  0  2  0  0  0  0  0  0
  161.9140  206.7340  150.0260 C   0  0  0  0  0  2  0  0  0  0  0  0
  160.8270  205.7540  150.4470 C   0  0  0  0  0  2  0  0  0  0  0  0
  160.9970  204.4040  149.7640 C   0  0  0  0  0  2  0  0  0  0  0  0
  160.8900  204.5430  148.2520 C   0  0  0  0  0  2  0  0  0  0  0  0
  161.6550  203.6980  146.0850 N   0  0  0  0  0  0  0  0  0  0  0  0
  161.7420  203.5030  147.5380 C   0  0  2  0  0  3  0  0  0  0  0  0
  162.3270  204.8330  145.4780 C   0  0  0  0  0  1  0  0  0  0  0  0
  160.3310  201.7280  145.7410 C   0  0  0  0  0  3  0  0  0  0  0  0
  160.6260  201.3180  147.1220 C   0  0  0  0  0  3  0  0  0  0  0  0
  161.3030  202.1190  147.9480 C   0  0  0  0  0  3  0  0  0  0  0  0
  160.8350  202.8610  145.2580 C   0  0  0  0  0  3  0  0  0  0  0  0
  1 20  1  6  0  0  0
  2 10  1  6  0  0  0
  2  5  1  0  0  0  0
  3 10  1  0  0  0  0
  5  1  1  0  0  0  0
  5 21  1  1  0  0  0
  6 11  1  6  0  0  0
  6  2  1  0  0  0  0
  7  1  1  0  0  0  0
  8  9  1  0  0  0  0
  8  3  1  0  0  0  0
  9 14  1  6  0  0  0
  9  6  1  0  0  0  0
 10  4  2  0  0  0  0
 11  7  1  0  0  0  0
 12 16  1  0  0  0  0
 13 12  2  0  0  0  0
 13 15  1  0  0  0  0
 15 17  2  0  0  0  0
 16 14  2  0  0  0  0
 17 14  1  0  0  0  0
 18 12  1  0  0  0  0
 20 19  1  0  0  0  0
 21 23  1  0  0  0  0
 23 22  1  0  0  0  0
 24 25  1  0  0  0  0
 24  3  1  0  0  0  0
 26 25  1  0  0  0  0
 27 26  1  0  0  0  0
 28 29  1  0  0  0  0
 29 33  1  0  0  0  0
 29 27  1  1  0  0  0
 30 28  1  0  0  0  0
 31 32  1  0  0  0  0
 32 33  2  0  0  0  0
 34 31  2  0  0  0  0
 34 28  1  0  0  0  0
M  END
>  <MODEL>
8

>  <REMARK>
 VINA RESULT:      -6.0      1.934      3.051
  Name = 
  9 active torsions:
  status: ('A' for Active; 'I' for Inactive)
    1  A    between atoms: C_1  and  C_19
    2  A    between atoms: C_2  and  C_15
    3  A    between atoms: C_2  and  C_25
    4  A    between atoms: C_3  and  C_13
    5  A    between atoms: C_3  and  C_17
    6  A    between atoms: N_5  and  C_18
    7  A    between atoms: C_12  and  C_28
    8  A    between atoms: C_17  and  C_29
    9  A    between atoms: C_18  and  C_29
                            x       y       z     vdW  Elec       q    Type
                         _______ _______ _______ _____ _____    ______ ____

>  <TORSDO>
F 9

$$$$
=
 OpenBabel11062408013D

 34 37  0  0  1  0  0  0  0  0999 V2000
  161.5730  206.4720  150.8220 C   0  0  1  0  0  3  0  0  0  0  0  0
  162.3280  208.9560  150.5990 C   0  0  2  0  0  3  0  0  0  0  0  0
  161.2200  211.2600  150.4240 N   0  0  0  0  0  0  0  0  0  0  0  0
  162.4040  210.3280  148.6340 O   0  0  0  0  0  0  0  0  0  0  0  0
  161.7770  207.6940  149.8990 C   0  0  1  0  0  3  0  0  0  0  0  0
  161.9520  209.0500  152.1020 C   0  0  1  0  0  3  0  0  0  0  0  0
  161.2670  206.8320  152.2810 C   0  0  0  0  0  2  0  0  0  0  0  0
  160.6820  211.1050  151.7160 N   0  0  0  0  0  2  0  0  0  0  0  0
  161.7090  210.4970  152.5530 C   0  0  1  0  0  3  0  0  0  0  0  0
  161.9750  210.1980  149.8130 C   0  0  0  0  0  0  0  0  0  0  0  0
  160.8010  208.2050  152.3990 N   0  0  0  0  0  2  0  0  0  0  0  0
  159.7900  211.0250  155.8030 C   0  0  0  0  0  0  0  0  0  0  0  0
  160.7850  210.7510  156.7460 C   0  0  0  0  0  3  0  0  0  0  0  0
  161.3740  210.6080  154.0100 C   0  0  0  0  0  0  0  0  0  0  0  0
  162.0710  210.4020  156.3240 C   0  0  0  0  0  3  0  0  0  0  0  0
  160.0820  210.9520  154.4380 C   0  0  0  0  0  3  0  0  0  0  0  0
  162.3630  210.3290  154.9590 C   0  0  0  0  0  3  0  0  0  0  0  0
  158.1790  211.4570  156.3290 Cl  0  0  0  0  0  0  0  0  0  0  0  0
  160.7470  204.2520  150.5060 O   0  0  0  0  0  1  0  0  0  0  0  0
  160.4550  205.5980  150.2770 C   0  0  0  0  0  2  0  0  0  0  0  0
  162.6970  207.3200  148.7380 C   0  0  0  0  0  2  0  0  0  0  0  0
  162.1040  205.5450  147.0880 C   0  0  0  0  0  1  0  0  0  0  0  0
  161.9150  206.9990  147.4740 C   0  0  0  0  0  2  0  0  0  0  0  0
  161.0970  212.5510  149.7590 C   0  0  0  0  0  2  0  0  0  0  0  0
  159.6900  213.1090  149.9240 C   0  0  0  0  0  2  0  0  0  0  0  0
  159.1320  213.6170  148.6020 C   0  0  0  0  0  2  0  0  0  0  0  0
  159.8360  212.9570  147.4250 C   0  0  0  0  0  2  0  0  0  0  0  0
  159.7010  213.7580  145.1150 N   0  0  0  0  0  0  0  0  0  0  0  0
  160.3280  213.9920  146.4230 C   0  0  2  0  0  3  0  0  0  0  0  0
  158.2970  214.0810  144.9320 C   0  0  0  0  0  1  0  0  0  0  0  0
  161.7230  212.9500  144.1120 C   0  0  0  0  0  3  0  0  0  0  0  0
  162.4690  213.4320  145.2830 C   0  0  0  0  0  3  0  0  0  0  0  0
  161.8340  213.9420  146.3410 C   0  0  0  0  0  3  0  0  0  0  0  0
  160.4050  213.1190  144.0420 C   0  0  0  0  0  3  0  0  0  0  0  0
  1 20  1  6  0  0  0
  1  7  1  0  0  0  0
  2 10  1  6  0  0  0
  2  6  1  0  0  0  0
  3  8  1  0  0  0  0
  4 10  2  0  0  0  0
  5 21  1  6  0  0  0
  5  2  1  0  0  0  0
  5  1  1  0  0  0  0
  6 11  1  6  0  0  0
  6  9  1  0  0  0  0
  7 11  1  0  0  0  0
  8  9  1  0  0  0  0
  9 14  1  1  0  0  0
 10  3  1  0  0  0  0
 12 18  1  0  0  0  0
 12 13  1  0  0  0  0
 14 16  1  0  0  0  0
 14 17  2  0  0  0  0
 15 13  2  0  0  0  0
 16 12  2  0  0  0  0
 17 15  1  0  0  0  0
 20 19  1  0  0  0  0
 22 23  1  0  0  0  0
 23 21  1  0  0  0  0
 24 25  1  0  0  0  0
 24  3  1  0  0  0  0
 26 25  1  0  0  0  0
 27 26  1  0  0  0  0
 28 29  1  0  0  0  0
 29 27  1  1  0  0  0
 30 28  1  0  0  0  0
 31 32  1  0  0  0  0
 32 33  2  0  0  0  0
 33 29  1  0  0  0  0
 34 31  2  0  0  0  0
 34 28  1  0  0  0  0
M  END
>  <MODEL>
9

>  <REMARK>
 VINA RESULT:      -5.8      3.772      8.197
  Name = 
  9 active torsions:
  status: ('A' for Active; 'I' for Inactive)
    1  A    between atoms: C_1  and  C_19
    2  A    between atoms: C_2  and  C_15
    3  A    between atoms: C_2  and  C_25
    4  A    between atoms: C_3  and  C_13
    5  A    between atoms: C_3  and  C_17
    6  A    between atoms: N_5  and  C_18
    7  A    between atoms: C_12  and  C_28
    8  A    between atoms: C_17  and  C_29
    9  A    between atoms: C_18  and  C_29
                            x       y       z     vdW  Elec       q    Type
                         _______ _______ _______ _____ _____    ______ ____

>  <TORSDO>
F 9

$$$$
