=
 OpenBabel11062410573D

 32 36  0  0  1  0  0  0  0  0999 V2000
  159.7230  207.4610  154.2280 C   0  0  0  0  0  2  0  0  0  0  0  0
  160.6340  207.1330  155.4040 C   0  0  0  0  0  2  0  0  0  0  0  0
  161.0510  208.1730  154.3840 C   0  0  0  0  0  0  0  0  0  0  0  0
  160.8890  204.2160  150.2580 C   0  0  0  0  0  0  0  0  0  0  0  0
  162.3190  208.5590  152.2810 O   0  0  0  0  0  0  0  0  0  0  0  0
  161.1400  206.9010  150.9960 C   0  0  0  0  0  0  0  0  0  0  0  0
  162.3270  206.2490  153.1190 C   0  0  0  0  0  2  0  0  0  0  0  0
  161.5070  204.5530  151.4670 C   0  0  0  0  0  3  0  0  0  0  0  0
  162.2080  207.7530  153.4420 C   0  0  2  0  0  3  0  0  0  0  0  0
  160.3800  205.2210  149.4290 C   0  0  0  0  0  3  0  0  0  0  0  0
  161.6260  205.8950  151.8430 C   0  0  0  0  0  0  0  0  0  0  0  0
  160.5020  206.5640  149.7990 C   0  0  0  0  0  3  0  0  0  0  0  0
  161.2080  208.3310  151.4390 C   0  0  0  0  0  2  0  0  0  0  0  0
  160.7390  202.7860  149.8720 C   0  0  0  0  0  2  0  0  0  0  0  0
  160.9220  201.5070  147.7110 C   0  0  0  0  0  0  0  0  0  0  0  0
  160.5610  202.6830  148.4330 N   0  0  0  0  0  2  0  0  0  0  0  0
  160.7180  201.4560  146.2390 C   0  0  0  0  0  1  0  0  0  0  0  0
  161.4110  200.5110  148.3070 O   0  0  0  0  0  0  0  0  0  0  0  0
  160.9680  209.5980  154.9300 C   0  0  1  0  0  3  0  0  0  0  0  0
  157.9730  211.8680  154.8140 C   0  0  0  0  0  0  0  0  0  0  0  0
  158.1440  212.5770  153.5350 C   0  0  0  0  0  0  0  0  0  0  0  0
  158.5270  213.8840  151.0900 C   0  0  0  0  0  3  0  0  0  0  0  0
  159.8580  210.3950  154.2390 C   0  0  2  0  0  3  0  0  0  0  0  0
  157.3480  214.0850  151.8140 C   0  0  0  0  0  3  0  0  0  0  0  0
  157.1560  213.4360  153.0360 C   0  0  0  0  0  3  0  0  0  0  0  0
  160.4280  211.5140  153.3620 C   0  0  0  0  0  2  0  0  0  0  0  0
  157.0130  212.1380  155.5830 O   0  0  0  0  0  0  0  0  0  0  0  0
  159.5180  213.0320  151.5870 C   0  0  0  0  0  3  0  0  0  0  0  0
  158.9090  210.9010  155.1840 O   0  0  0  0  0  0  0  0  0  0  0  0
  159.3270  212.3680  152.8030 C   0  0  0  0  0  0  0  0  0  0  0  0
  162.4610  209.8610  157.2270 S   0  0  0  0  0  1  0  0  0  0  0  0
  160.8400  209.6010  156.4520 C   0  0  0  0  0  2  0  0  0  0  0  0
  1  3  1  0  0  0  0
  1  2  1  0  0  0  0
  3 19  1  0  0  0  0
  3  2  1  0  0  0  0
  4  8  1  0  0  0  0
  5  9  1  0  0  0  0
  6 13  1  0  0  0  0
  6 11  1  0  0  0  0
  8 11  2  0  0  0  0
  9  7  1  6  0  0  0
  9  3  1  0  0  0  0
 10 12  1  0  0  0  0
 10  4  2  0  0  0  0
 11  7  1  0  0  0  0
 12  6  2  0  0  0  0
 13  5  1  0  0  0  0
 14  4  1  0  0  0  0
 15 18  2  0  0  0  0
 15 16  1  0  0  0  0
 16 14  1  0  0  0  0
 17 15  1  0  0  0  0
 19 32  1  1  0  0  0
 20 29  1  0  0  0  0
 20 27  2  0  0  0  0
 21 20  1  0  0  0  0
 22 28  2  0  0  0  0
 22 24  1  0  0  0  0
 23 19  1  1  0  0  0
 23 29  1  0  0  0  0
 24 25  2  0  0  0  0
 25 21  1  0  0  0  0
 26 23  1  0  0  0  0
 28 30  1  0  0  0  0
 30 26  1  0  0  0  0
 30 21  2  0  0  0  0
 32 31  1  0  0  0  0
M  END
>  <MODEL>
1

>  <REMARK>
 VINA RESULT:      -6.6      0.000      0.000
  Name = 
  6 active torsions:
  status: ('A' for Active; 'I' for Inactive)
    1  A    between atoms: C_2  and  C_24
    2  A    between atoms: N_10  and  C_24
    3  A    between atoms: C_14  and  C_15
    4  A    between atoms: C_15  and  C_26
    5  A    between atoms: C_16  and  C_26
    6  A    between atoms: C_25  and  C_26
                            x       y       z     vdW  Elec       q    Type
                         _______ _______ _______ _____ _____    ______ ____

>  <TORSDO>
F 6

$$$$
=
 OpenBabel11062410573D

 32 36  0  0  1  0  0  0  0  0999 V2000
  158.8080  209.6310  155.5120 C   0  0  0  0  0  2  0  0  0  0  0  0
  159.3280  209.8610  156.9250 C   0  0  0  0  0  2  0  0  0  0  0  0
  159.9890  210.5490  155.7480 C   0  0  0  0  0  0  0  0  0  0  0  0
  161.2430  206.2800  152.1540 C   0  0  0  0  0  0  0  0  0  0  0  0
  162.0080  210.7280  154.3080 O   0  0  0  0  0  0  0  0  0  0  0  0
  161.3400  209.0080  152.7640 C   0  0  0  0  0  0  0  0  0  0  0  0
  161.5460  208.4930  155.2200 C   0  0  0  0  0  2  0  0  0  0  0  0
  161.3500  206.6950  153.4860 C   0  0  0  0  0  3  0  0  0  0  0  0
  161.3970  210.0210  155.3750 C   0  0  2  0  0  3  0  0  0  0  0  0
  161.1650  207.2310  151.1300 C   0  0  0  0  0  3  0  0  0  0  0  0
  161.3880  208.0580  153.7940 C   0  0  0  0  0  0  0  0  0  0  0  0
  161.2100  208.5950  151.4350 C   0  0  0  0  0  3  0  0  0  0  0  0
  161.3110  210.4660  153.1080 C   0  0  0  0  0  2  0  0  0  0  0  0
  161.1740  204.8300  151.8290 C   0  0  0  0  0  2  0  0  0  0  0  0
  160.9180  203.4810  149.7180 C   0  0  0  0  0  0  0  0  0  0  0  0
  161.3990  204.6340  150.4060 N   0  0  0  0  0  2  0  0  0  0  0  0
  161.1770  203.3330  148.2610 C   0  0  0  0  0  1  0  0  0  0  0  0
  160.2760  202.5870  150.3300 O   0  0  0  0  0  0  0  0  0  0  0  0
  159.6760  212.0440  155.6900 C   0  0  1  0  0  3  0  0  0  0  0  0
  156.1600  213.3150  155.2970 C   0  0  0  0  0  0  0  0  0  0  0  0
  156.1030  213.6990  153.8770 C   0  0  0  0  0  0  0  0  0  0  0  0
  156.0620  214.4030  151.1680 C   0  0  0  0  0  3  0  0  0  0  0  0
  158.3750  212.3110  154.9270 C   0  0  2  0  0  3  0  0  0  0  0  0
  154.8860  214.4530  151.9220 C   0  0  0  0  0  3  0  0  0  0  0  0
  154.9040  214.1050  153.2760 C   0  0  0  0  0  3  0  0  0  0  0  0
  158.5920  213.2850  153.7650 C   0  0  0  0  0  2  0  0  0  0  0  0
  155.1740  213.5000  156.0600 O   0  0  0  0  0  0  0  0  0  0  0  0
  157.2610  214.0030  151.7670 C   0  0  0  0  0  3  0  0  0  0  0  0
  157.3370  212.7630  155.8040 O   0  0  0  0  0  0  0  0  0  0  0  0
  157.2860  213.6400  153.1160 C   0  0  0  0  0  0  0  0  0  0  0  0
  160.2950  214.3740  157.0190 S   0  0  0  0  0  1  0  0  0  0  0  0
  159.6840  212.6650  157.0850 C   0  0  0  0  0  2  0  0  0  0  0  0
  1  3  1  0  0  0  0
  1  2  1  0  0  0  0
  3  2  1  0  0  0  0
  4  8  1  0  0  0  0
  5  9  1  0  0  0  0
  6 13  1  0  0  0  0
  6 11  1  0  0  0  0
  8 11  2  0  0  0  0
  9  7  1  6  0  0  0
  9  3  1  0  0  0  0
 10 12  1  0  0  0  0
 10  4  2  0  0  0  0
 11  7  1  0  0  0  0
 12  6  2  0  0  0  0
 13  5  1  0  0  0  0
 14  4  1  0  0  0  0
 15 18  2  0  0  0  0
 15 16  1  0  0  0  0
 16 14  1  0  0  0  0
 17 15  1  0  0  0  0
 19  3  1  0  0  0  0
 19 32  1  1  0  0  0
 20 29  1  0  0  0  0
 20 27  2  0  0  0  0
 21 20  1  0  0  0  0
 22 28  2  0  0  0  0
 22 24  1  0  0  0  0
 23 19  1  1  0  0  0
 23 29  1  0  0  0  0
 24 25  2  0  0  0  0
 25 21  1  0  0  0  0
 26 23  1  0  0  0  0
 28 30  1  0  0  0  0
 30 26  1  0  0  0  0
 30 21  2  0  0  0  0
 31 32  1  0  0  0  0
M  END
>  <MODEL>
2

>  <REMARK>
 VINA RESULT:      -6.6      1.881      2.869
  Name = 
  6 active torsions:
  status: ('A' for Active; 'I' for Inactive)
    1  A    between atoms: C_2  and  C_24
    2  A    between atoms: N_10  and  C_24
    3  A    between atoms: C_14  and  C_15
    4  A    between atoms: C_15  and  C_26
    5  A    between atoms: C_16  and  C_26
    6  A    between atoms: C_25  and  C_26
                            x       y       z     vdW  Elec       q    Type
                         _______ _______ _______ _____ _____    ______ ____

>  <TORSDO>
F 6

$$$$
=
 OpenBabel11062410573D

 32 36  0  0  1  0  0  0  0  0999 V2000
  160.6160  205.1900  150.5600 C   0  0  0  0  0  2  0  0  0  0  0  0
  159.9850  206.5750  150.5030 C   0  0  0  0  0  2  0  0  0  0  0  0
  161.4470  206.3890  150.1510 C   0  0  0  0  0  0  0  0  0  0  0  0
  160.2600  209.4460  154.8370 C   0  0  0  0  0  0  0  0  0  0  0  0
  162.7970  206.0320  152.2070 O   0  0  0  0  0  0  0  0  0  0  0  0
  161.2260  207.0820  153.6970 C   0  0  0  0  0  0  0  0  0  0  0  0
  162.1640  208.3610  151.7410 C   0  0  0  0  0  2  0  0  0  0  0  0
  160.9330  209.4850  153.6100 C   0  0  0  0  0  3  0  0  0  0  0  0
  162.4560  206.9520  151.1840 C   0  0  2  0  0  3  0  0  0  0  0  0
  160.0550  208.2220  155.4820 C   0  0  0  0  0  3  0  0  0  0  0  0
  161.4080  208.3040  153.0340 C   0  0  0  0  0  0  0  0  0  0  0  0
  160.5340  207.0390  154.9110 C   0  0  0  0  0  3  0  0  0  0  0  0
  161.6760  205.8140  153.0390 C   0  0  0  0  0  2  0  0  0  0  0  0
  159.7310  210.7010  155.4360 C   0  0  0  0  0  2  0  0  0  0  0  0
  157.3630  211.2030  154.7390 C   0  0  0  0  0  0  0  0  0  0  0  0
  158.2940  210.5860  155.6270 N   0  0  0  0  0  2  0  0  0  0  0  0
  155.9050  211.0520  154.9820 C   0  0  0  0  0  1  0  0  0  0  0  0
  157.7640  211.8720  153.7510 O   0  0  0  0  0  0  0  0  0  0  0  0
  161.7110  206.5200  148.6510 C   0  0  1  0  0  3  0  0  0  0  0  0
  161.1040  204.4220  145.5910 C   0  0  0  0  0  0  0  0  0  0  0  0
  161.0630  203.0520  146.1300 C   0  0  0  0  0  0  0  0  0  0  0  0
  160.9910  200.4770  147.2220 C   0  0  0  0  0  3  0  0  0  0  0  0
  161.1620  205.3130  147.8830 C   0  0  2  0  0  3  0  0  0  0  0  0
  160.6810  200.6740  145.8740 C   0  0  0  0  0  3  0  0  0  0  0  0
  160.7190  201.9590  145.3250 C   0  0  0  0  0  3  0  0  0  0  0  0
  161.8140  204.0070  148.3450 C   0  0  0  0  0  2  0  0  0  0  0  0
  160.9980  204.6360  144.3540 O   0  0  0  0  0  0  0  0  0  0  0  0
  161.3400  201.5660  148.0280 C   0  0  0  0  0  3  0  0  0  0  0  0
  161.2890  205.4920  146.4680 O   0  0  0  0  0  0  0  0  0  0  0  0
  161.3670  202.8560  147.4900 C   0  0  0  0  0  0  0  0  0  0  0  0
  162.3110  209.2050  148.5740 S   0  0  0  0  0  1  0  0  0  0  0  0
  161.1920  207.8510  148.1120 C   0  0  0  0  0  2  0  0  0  0  0  0
  2  1  1  0  0  0  0
  3  2  1  0  0  0  0
  3  1  1  0  0  0  0
  4 14  1  0  0  0  0
  4 10  1  0  0  0  0
  5 13  1  0  0  0  0
  6 12  1  0  0  0  0
  7 11  1  0  0  0  0
  8  4  2  0  0  0  0
  9  3  1  1  0  0  0
  9  7  1  0  0  0  0
  9  5  1  0  0  0  0
 11  8  1  0  0  0  0
 11  6  2  0  0  0  0
 12 10  2  0  0  0  0
 13  6  1  0  0  0  0
 14 16  1  0  0  0  0
 15 17  1  0  0  0  0
 15 16  1  0  0  0  0
 18 15  2  0  0  0  0
 19 32  1  6  0  0  0
 19  3  1  0  0  0  0
 20 21  1  0  0  0  0
 20 29  1  0  0  0  0
 21 30  1  0  0  0  0
 22 28  1  0  0  0  0
 23 26  1  0  0  0  0
 23 19  1  1  0  0  0
 24 22  2  0  0  0  0
 25 24  1  0  0  0  0
 25 21  2  0  0  0  0
 27 20  2  0  0  0  0
 29 23  1  0  0  0  0
 30 28  2  0  0  0  0
 30 26  1  0  0  0  0
 32 31  1  0  0  0  0
M  END
>  <MODEL>
3

>  <REMARK>
 VINA RESULT:      -6.4      3.285      9.446
  Name = 
  6 active torsions:
  status: ('A' for Active; 'I' for Inactive)
    1  A    between atoms: C_2  and  C_24
    2  A    between atoms: N_10  and  C_24
    3  A    between atoms: C_14  and  C_15
    4  A    between atoms: C_15  and  C_26
    5  A    between atoms: C_16  and  C_26
    6  A    between atoms: C_25  and  C_26
                            x       y       z     vdW  Elec       q    Type
                         _______ _______ _______ _____ _____    ______ ____

>  <TORSDO>
F 6

$$$$
=
 OpenBabel11062410573D

 32 36  0  0  1  0  0  0  0  0999 V2000
  162.8450  205.4840  152.2510 C   0  0  0  0  0  2  0  0  0  0  0  0
  162.8200  206.4740  151.0940 C   0  0  0  0  0  2  0  0  0  0  0  0
  161.6510  206.3960  152.0550 C   0  0  0  0  0  0  0  0  0  0  0  0
  161.2490  202.5060  147.8820 C   0  0  0  0  0  0  0  0  0  0  0  0
  159.8960  204.6420  152.1960 O   0  0  0  0  0  0  0  0  0  0  0  0
  160.9050  203.1780  150.5740 C   0  0  0  0  0  0  0  0  0  0  0  0
  160.3180  205.5460  149.9500 C   0  0  0  0  0  2  0  0  0  0  0  0
  160.8980  203.8140  148.2360 C   0  0  0  0  0  3  0  0  0  0  0  0
  160.3560  205.7730  151.4760 C   0  0  2  0  0  3  0  0  0  0  0  0
  161.4460  201.5420  148.8760 C   0  0  0  0  0  3  0  0  0  0  0  0
  160.7350  204.1550  149.5820 C   0  0  0  0  0  0  0  0  0  0  0  0
  161.2790  201.8780  150.2220 C   0  0  0  0  0  3  0  0  0  0  0  0
  160.7980  203.5690  152.0170 C   0  0  0  0  0  2  0  0  0  0  0  0
  161.4490  202.1510  146.4510 C   0  0  0  0  0  2  0  0  0  0  0  0
  161.8680  204.2770  145.1660 C   0  0  0  0  0  0  0  0  0  0  0  0
  160.9900  203.2420  145.6050 N   0  0  0  0  0  2  0  0  0  0  0  0
  161.3450  205.3670  144.3030 C   0  0  0  0  0  1  0  0  0  0  0  0
  163.0820  204.2760  145.5020 O   0  0  0  0  0  0  0  0  0  0  0  0
  161.5850  207.5970  152.9980 C   0  0  1  0  0  3  0  0  0  0  0  0
  160.0300  211.0170  152.8610 C   0  0  0  0  0  0  0  0  0  0  0  0
  160.5110  211.5490  151.5760 C   0  0  0  0  0  0  0  0  0  0  0  0
  161.4570  212.4970  149.1180 C   0  0  0  0  0  3  0  0  0  0  0  0
  160.9840  208.8210  152.3000 C   0  0  2  0  0  3  0  0  0  0  0  0
  160.5190  213.2400  149.8410 C   0  0  0  0  0  3  0  0  0  0  0  0
  160.0470  212.7700  151.0700 C   0  0  0  0  0  3  0  0  0  0  0  0
  162.0140  209.5260  151.4120 C   0  0  0  0  0  2  0  0  0  0  0  0
  159.3170  211.7180  153.6290 O   0  0  0  0  0  0  0  0  0  0  0  0
  161.9260  211.2800  149.6230 C   0  0  0  0  0  3  0  0  0  0  0  0
  160.3950  209.7240  153.2410 O   0  0  0  0  0  0  0  0  0  0  0  0
  161.4490  210.7960  150.8450 C   0  0  0  0  0  0  0  0  0  0  0  0
  161.5690  208.1660  155.6910 S   0  0  0  0  0  1  0  0  0  0  0  0
  160.8640  207.2420  154.2970 C   0  0  0  0  0  2  0  0  0  0  0  0
  2  3  1  0  0  0  0
  2  1  1  0  0  0  0
  3  1  1  0  0  0  0
  3 19  1  0  0  0  0
  4  8  2  0  0  0  0
  4 10  1  0  0  0  0
  6 13  1  0  0  0  0
  8 11  1  0  0  0  0
  9  7  1  6  0  0  0
  9  3  1  0  0  0  0
  9  5  1  0  0  0  0
 10 12  2  0  0  0  0
 11  7  1  0  0  0  0
 11  6  2  0  0  0  0
 12  6  1  0  0  0  0
 13  5  1  0  0  0  0
 14  4  1  0  0  0  0
 15 18  2  0  0  0  0
 15 16  1  0  0  0  0
 16 14  1  0  0  0  0
 17 15  1  0  0  0  0
 19 32  1  1  0  0  0
 20 29  1  0  0  0  0
 20 27  2  0  0  0  0
 21 20  1  0  0  0  0
 22 28  2  0  0  0  0
 22 24  1  0  0  0  0
 23 19  1  1  0  0  0
 23 29  1  0  0  0  0
 24 25  2  0  0  0  0
 25 21  1  0  0  0  0
 26 23  1  0  0  0  0
 28 30  1  0  0  0  0
 30 26  1  0  0  0  0
 30 21  2  0  0  0  0
 32 31  1  0  0  0  0
M  END
>  <MODEL>
4

>  <REMARK>
 VINA RESULT:      -5.9      2.236      3.645
  Name = 
  6 active torsions:
  status: ('A' for Active; 'I' for Inactive)
    1  A    between atoms: C_2  and  C_24
    2  A    between atoms: N_10  and  C_24
    3  A    between atoms: C_14  and  C_15
    4  A    between atoms: C_15  and  C_26
    5  A    between atoms: C_16  and  C_26
    6  A    between atoms: C_25  and  C_26
                            x       y       z     vdW  Elec       q    Type
                         _______ _______ _______ _____ _____    ______ ____

>  <TORSDO>
F 6

$$$$
=
 OpenBabel11062410573D

 32 36  0  0  1  0  0  0  0  0999 V2000
  161.4620  206.7190  154.5790 C   0  0  0  0  0  2  0  0  0  0  0  0
  160.0780  207.2730  154.2620 C   0  0  0  0  0  2  0  0  0  0  0  0
  161.3180  208.0730  153.9150 C   0  0  0  0  0  0  0  0  0  0  0  0
  158.4500  213.0180  153.7320 C   0  0  0  0  0  0  0  0  0  0  0  0
  160.8820  209.3030  156.0310 O   0  0  0  0  0  0  0  0  0  0  0  0
  159.1400  210.6970  155.1300 C   0  0  0  0  0  0  0  0  0  0  0  0
  161.4300  210.6980  154.0840 C   0  0  0  0  0  2  0  0  0  0  0  0
  159.7150  212.4460  153.5560 C   0  0  0  0  0  3  0  0  0  0  0  0
  161.5610  209.3310  154.7870 C   0  0  2  0  0  3  0  0  0  0  0  0
  157.5250  212.4180  154.5930 C   0  0  0  0  0  3  0  0  0  0  0  0
  160.0590  211.2800  154.2460 C   0  0  0  0  0  0  0  0  0  0  0  0
  157.8680  211.2550  155.2900 C   0  0  0  0  0  3  0  0  0  0  0  0
  159.4910  209.4100  155.8120 C   0  0  0  0  0  2  0  0  0  0  0  0
  158.0750  214.2440  152.9760 C   0  0  0  0  0  2  0  0  0  0  0  0
  157.8370  213.6990  150.5280 C   0  0  0  0  0  0  0  0  0  0  0  0
  157.2660  213.8820  151.8230 N   0  0  0  0  0  2  0  0  0  0  0  0
  156.9620  213.3280  149.3860 C   0  0  0  0  0  1  0  0  0  0  0  0
  159.0740  213.8470  150.3440 O   0  0  0  0  0  0  0  0  0  0  0  0
  161.6000  208.0980  152.4130 C   0  0  1  0  0  3  0  0  0  0  0  0
  160.6480  205.9860  149.4520 C   0  0  0  0  0  0  0  0  0  0  0  0
  160.8350  204.6130  149.9490 C   0  0  0  0  0  0  0  0  0  0  0  0
  161.2070  202.0310  150.9610 C   0  0  0  0  0  3  0  0  0  0  0  0
  161.0380  206.8520  151.7210 C   0  0  2  0  0  3  0  0  0  0  0  0
  160.6400  202.2120  149.6970 C   0  0  0  0  0  3  0  0  0  0  0  0
  160.4550  203.5010  149.1880 C   0  0  0  0  0  3  0  0  0  0  0  0
  161.8830  205.6110  152.0200 C   0  0  0  0  0  2  0  0  0  0  0  0
  160.3000  206.2030  148.2610 O   0  0  0  0  0  0  0  0  0  0  0  0
  161.5910  203.1390  151.7220 C   0  0  0  0  0  3  0  0  0  0  0  0
  160.8880  207.0590  150.3130 O   0  0  0  0  0  0  0  0  0  0  0  0
  161.3980  204.4320  151.2260 C   0  0  0  0  0  0  0  0  0  0  0  0
  162.3310  210.0220  150.5860 S   0  0  0  0  0  1  0  0  0  0  0  0
  161.1130  209.3990  151.7800 C   0  0  0  0  0  2  0  0  0  0  0  0
  2  1  1  0  0  0  0
  3  2  1  0  0  0  0
  3  1  1  0  0  0  0
  4 10  1  0  0  0  0
  6 12  1  0  0  0  0
  6 13  1  0  0  0  0
  7 11  1  0  0  0  0
  7  9  1  0  0  0  0
  8  4  2  0  0  0  0
  8 11  1  0  0  0  0
  9  3  1  6  0  0  0
  9  5  1  0  0  0  0
 10 12  2  0  0  0  0
 11  6  2  0  0  0  0
 13  5  1  0  0  0  0
 14  4  1  0  0  0  0
 15 16  1  0  0  0  0
 16 14  1  0  0  0  0
 17 15  1  0  0  0  0
 18 15  2  0  0  0  0
 19 32  1  6  0  0  0
 19  3  1  0  0  0  0
 20 21  1  0  0  0  0
 20 29  1  0  0  0  0
 21 30  1  0  0  0  0
 22 28  1  0  0  0  0
 23 26  1  0  0  0  0
 23 19  1  6  0  0  0
 24 22  2  0  0  0  0
 25 24  1  0  0  0  0
 25 21  2  0  0  0  0
 27 20  2  0  0  0  0
 29 23  1  0  0  0  0
 30 28  2  0  0  0  0
 30 26  1  0  0  0  0
 31 32  1  0  0  0  0
M  END
>  <MODEL>
5

>  <REMARK>
 VINA RESULT:      -5.9      3.084      8.479
  Name = 
  6 active torsions:
  status: ('A' for Active; 'I' for Inactive)
    1  A    between atoms: C_2  and  C_24
    2  A    between atoms: N_10  and  C_24
    3  A    between atoms: C_14  and  C_15
    4  A    between atoms: C_15  and  C_26
    5  A    between atoms: C_16  and  C_26
    6  A    between atoms: C_25  and  C_26
                            x       y       z     vdW  Elec       q    Type
                         _______ _______ _______ _____ _____    ______ ____

>  <TORSDO>
F 6

$$$$
=
 OpenBabel11062410573D

 32 36  0  0  1  0  0  0  0  0999 V2000
  162.9780  207.2500  150.8890 C   0  0  0  0  0  2  0  0  0  0  0  0
  162.3260  207.5440  149.5430 C   0  0  0  0  0  2  0  0  0  0  0  0
  161.5730  207.8130  150.8310 C   0  0  0  0  0  0  0  0  0  0  0  0
  161.2790  202.2370  149.5920 C   0  0  0  0  0  0  0  0  0  0  0  0
  160.4440  206.2740  152.4230 O   0  0  0  0  0  0  0  0  0  0  0  0
  161.4040  204.2620  151.5160 C   0  0  0  0  0  0  0  0  0  0  0  0
  160.0680  205.8030  150.0400 C   0  0  0  0  0  2  0  0  0  0  0  0
  160.6790  203.4760  149.3420 C   0  0  0  0  0  3  0  0  0  0  0  0
  160.3980  206.8470  151.1270 C   0  0  2  0  0  3  0  0  0  0  0  0
  161.9570  202.0190  150.7960 C   0  0  0  0  0  3  0  0  0  0  0  0
  160.7490  204.4940  150.2980 C   0  0  0  0  0  0  0  0  0  0  0  0
  162.0240  203.0330  151.7570 C   0  0  0  0  0  3  0  0  0  0  0  0
  161.5350  205.3800  152.5050 C   0  0  0  0  0  2  0  0  0  0  0  0
  161.2280  201.1640  148.5620 C   0  0  0  0  0  2  0  0  0  0  0  0
  160.6810  200.9520  146.1130 C   0  0  0  0  0  0  0  0  0  0  0  0
  160.6560  201.6900  147.3330 N   0  0  0  0  0  2  0  0  0  0  0  0
  160.0800  201.5380  144.8860 C   0  0  0  0  0  1  0  0  0  0  0  0
  161.2060  199.8080  146.0640 O   0  0  0  0  0  0  0  0  0  0  0  0
  161.4540  209.3050  151.1410 C   0  0  1  0  0  3  0  0  0  0  0  0
  162.0860  210.5210  154.6420 C   0  0  0  0  0  0  0  0  0  0  0  0
  160.7390  210.8790  155.1170 C   0  0  0  0  0  0  0  0  0  0  0  0
  158.1520  211.5360  155.9560 C   0  0  0  0  0  3  0  0  0  0  0  0
  161.1000  209.5410  152.6120 C   0  0  2  0  0  3  0  0  0  0  0  0
  159.2140  211.5830  156.8630 C   0  0  0  0  0  3  0  0  0  0  0  0
  160.5080  211.2580  156.4450 C   0  0  0  0  0  3  0  0  0  0  0  0
  159.9140  210.4970  152.7610 C   0  0  0  0  0  2  0  0  0  0  0  0
  163.1000  210.7050  155.3660 O   0  0  0  0  0  0  0  0  0  0  0  0
  158.3800  211.1630  154.6280 C   0  0  0  0  0  3  0  0  0  0  0  0
  162.2350  209.9930  153.3580 O   0  0  0  0  0  0  0  0  0  0  0  0
  159.6680  210.8240  154.2050 C   0  0  0  0  0  0  0  0  0  0  0  0
  162.3310  211.1620  149.3080 S   0  0  0  0  0  1  0  0  0  0  0  0
  162.7060  210.0620  150.7030 C   0  0  0  0  0  2  0  0  0  0  0  0
  2  3  1  0  0  0  0
  2  1  1  0  0  0  0
  3  1  1  0  0  0  0
  3  9  1  0  0  0  0
  3 19  1  0  0  0  0
  4 10  1  0  0  0  0
  5 13  1  0  0  0  0
  6 12  1  0  0  0  0
  6 13  1  0  0  0  0
  7 11  1  0  0  0  0
  8  4  2  0  0  0  0
  8 11  1  0  0  0  0
  9  7  1  6  0  0  0
  9  5  1  0  0  0  0
 10 12  2  0  0  0  0
 11  6  2  0  0  0  0
 14  4  1  0  0  0  0
 15 16  1  0  0  0  0
 16 14  1  0  0  0  0
 17 15  1  0  0  0  0
 18 15  2  0  0  0  0
 19 32  1  1  0  0  0
 20 21  1  0  0  0  0
 20 27  2  0  0  0  0
 21 25  1  0  0  0  0
 22 24  1  0  0  0  0
 23 19  1  6  0  0  0
 23 26  1  0  0  0  0
 23 29  1  0  0  0  0
 25 24  2  0  0  0  0
 26 30  1  0  0  0  0
 28 22  2  0  0  0  0
 29 20  1  0  0  0  0
 30 28  1  0  0  0  0
 30 21  2  0  0  0  0
 31 32  1  0  0  0  0
M  END
>  <MODEL>
6

>  <REMARK>
 VINA RESULT:      -5.7      2.689      3.983
  Name = 
  6 active torsions:
  status: ('A' for Active; 'I' for Inactive)
    1  A    between atoms: C_2  and  C_24
    2  A    between atoms: N_10  and  C_24
    3  A    between atoms: C_14  and  C_15
    4  A    between atoms: C_15  and  C_26
    5  A    between atoms: C_16  and  C_26
    6  A    between atoms: C_25  and  C_26
                            x       y       z     vdW  Elec       q    Type
                         _______ _______ _______ _____ _____    ______ ____

>  <TORSDO>
F 6

$$$$
=
 OpenBabel11062410573D

 32 36  0  0  1  0  0  0  0  0999 V2000
  158.9580  210.0270  154.0610 C   0  0  0  0  0  2  0  0  0  0  0  0
  159.0630  209.7620  155.5580 C   0  0  0  0  0  2  0  0  0  0  0  0
  160.1460  210.5460  154.8450 C   0  0  0  0  0  0  0  0  0  0  0  0
  161.1400  205.7980  151.8140 C   0  0  0  0  0  0  0  0  0  0  0  0
  162.2970  210.3160  153.6200 O   0  0  0  0  0  0  0  0  0  0  0  0
  161.5500  208.5410  152.1780 C   0  0  0  0  0  0  0  0  0  0  0  0
  161.4510  208.2660  154.6790 C   0  0  0  0  0  2  0  0  0  0  0  0
  161.1760  206.3350  153.1060 C   0  0  0  0  0  3  0  0  0  0  0  0
  161.4980  209.8080  154.6750 C   0  0  2  0  0  3  0  0  0  0  0  0
  161.2900  206.6380  150.7050 C   0  0  0  0  0  3  0  0  0  0  0  0
  161.3710  207.7070  153.2910 C   0  0  0  0  0  0  0  0  0  0  0  0
  161.4910  208.0100  150.8860 C   0  0  0  0  0  3  0  0  0  0  0  0
  161.6880  210.0190  152.3810 C   0  0  0  0  0  2  0  0  0  0  0  0
  160.9050  204.3420  151.6190 C   0  0  0  0  0  2  0  0  0  0  0  0
  160.8620  202.6780  149.7290 C   0  0  0  0  0  0  0  0  0  0  0  0
  161.0020  204.0150  150.2050 N   0  0  0  0  0  2  0  0  0  0  0  0
  160.9700  202.4010  148.2730 C   0  0  0  0  0  1  0  0  0  0  0  0
  160.6460  201.7290  150.5300 O   0  0  0  0  0  0  0  0  0  0  0  0
  160.1080  212.0370  155.1780 C   0  0  1  0  0  3  0  0  0  0  0  0
  159.4050  212.9590  151.6010 C   0  0  0  0  0  0  0  0  0  0  0  0
  158.0120  213.4330  151.6480 C   0  0  0  0  0  0  0  0  0  0  0  0
  155.3650  214.3260  151.8100 C   0  0  0  0  0  3  0  0  0  0  0  0
  159.4390  212.8400  154.0580 C   0  0  2  0  0  3  0  0  0  0  0  0
  156.0740  214.4530  150.6130 C   0  0  0  0  0  3  0  0  0  0  0  0
  157.3960  214.0050  150.5280 C   0  0  0  0  0  3  0  0  0  0  0  0
  157.9220  212.6290  154.0410 C   0  0  0  0  0  2  0  0  0  0  0  0
  160.0330  212.8950  150.5100 O   0  0  0  0  0  0  0  0  0  0  0  0
  155.9760  213.7500  152.9290 C   0  0  0  0  0  3  0  0  0  0  0  0
  160.0240  212.5500  152.7840 O   0  0  0  0  0  0  0  0  0  0  0  0
  157.3010  213.3120  152.8570 C   0  0  0  0  0  0  0  0  0  0  0  0
  159.5900  214.0380  156.9960 S   0  0  0  0  0  1  0  0  0  0  0  0
  159.4730  212.2830  156.5450 C   0  0  0  0  0  2  0  0  0  0  0  0
  1  3  1  0  0  0  0
  1  2  1  0  0  0  0
  3 19  1  0  0  0  0
  3  2  1  0  0  0  0
  4  8  1  0  0  0  0
  5  9  1  0  0  0  0
  6 13  1  0  0  0  0
  6 11  1  0  0  0  0
  8 11  2  0  0  0  0
  9  7  1  6  0  0  0
  9  3  1  0  0  0  0
 10 12  1  0  0  0  0
 10  4  2  0  0  0  0
 11  7  1  0  0  0  0
 12  6  2  0  0  0  0
 13  5  1  0  0  0  0
 14  4  1  0  0  0  0
 15 16  1  0  0  0  0
 15 18  2  0  0  0  0
 16 14  1  0  0  0  0
 17 15  1  0  0  0  0
 19 32  1  1  0  0  0
 20 21  1  0  0  0  0
 20 29  1  0  0  0  0
 21 30  1  0  0  0  0
 22 28  1  0  0  0  0
 23 19  1  1  0  0  0
 24 22  2  0  0  0  0
 25 24  1  0  0  0  0
 25 21  2  0  0  0  0
 26 23  1  0  0  0  0
 27 20  2  0  0  0  0
 29 23  1  0  0  0  0
 30 28  2  0  0  0  0
 30 26  1  0  0  0  0
 32 31  1  0  0  0  0
M  END
>  <MODEL>
7

>  <REMARK>
 VINA RESULT:      -5.7      1.904      2.863
  Name = 
  6 active torsions:
  status: ('A' for Active; 'I' for Inactive)
    1  A    between atoms: C_2  and  C_24
    2  A    between atoms: N_10  and  C_24
    3  A    between atoms: C_14  and  C_15
    4  A    between atoms: C_15  and  C_26
    5  A    between atoms: C_16  and  C_26
    6  A    between atoms: C_25  and  C_26
                            x       y       z     vdW  Elec       q    Type
                         _______ _______ _______ _____ _____    ______ ____

>  <TORSDO>
F 6

$$$$
=
 OpenBabel11062410573D

 32 36  0  0  1  0  0  0  0  0999 V2000
  163.0960  207.2290  150.7490 C   0  0  0  0  0  2  0  0  0  0  0  0
  162.4000  207.8940  149.5680 C   0  0  0  0  0  2  0  0  0  0  0  0
  161.7920  207.9710  150.9540 C   0  0  0  0  0  0  0  0  0  0  0  0
  161.0980  202.4000  149.8560 C   0  0  0  0  0  0  0  0  0  0  0  0
  160.3820  206.6000  152.4750 O   0  0  0  0  0  0  0  0  0  0  0  0
  161.2310  204.4780  151.7240 C   0  0  0  0  0  0  0  0  0  0  0  0
  160.1860  206.0750  150.0820 C   0  0  0  0  0  2  0  0  0  0  0  0
  160.6420  203.6780  149.5140 C   0  0  0  0  0  3  0  0  0  0  0  0
  160.5090  207.1260  151.1650 C   0  0  2  0  0  3  0  0  0  0  0  0
  161.6380  202.1680  151.1260 C   0  0  0  0  0  3  0  0  0  0  0  0
  160.7160  204.7210  150.4420 C   0  0  0  0  0  0  0  0  0  0  0  0
  161.7090  203.2070  152.0590 C   0  0  0  0  0  3  0  0  0  0  0  0
  161.3730  205.6160  152.6870 C   0  0  0  0  0  2  0  0  0  0  0  0
  161.0430  201.2980  148.8580 C   0  0  0  0  0  2  0  0  0  0  0  0
  160.7040  201.0810  146.3720 C   0  0  0  0  0  0  0  0  0  0  0  0
  160.5500  201.8090  147.5890 N   0  0  0  0  0  2  0  0  0  0  0  0
  160.1800  201.6510  145.1030 C   0  0  0  0  0  1  0  0  0  0  0  0
  161.2770  199.9590  146.3610 O   0  0  0  0  0  0  0  0  0  0  0  0
  161.9210  209.3600  151.5760 C   0  0  1  0  0  3  0  0  0  0  0  0
  160.3240  212.6720  150.7890 C   0  0  0  0  0  0  0  0  0  0  0  0
  160.8770  213.0010  149.4660 C   0  0  0  0  0  0  0  0  0  0  0  0
  161.9630  213.5620  146.9480 C   0  0  0  0  0  3  0  0  0  0  0  0
  161.3460  210.4390  150.6520 C   0  0  2  0  0  3  0  0  0  0  0  0
  160.9700  214.3880  147.4810 C   0  0  0  0  0  3  0  0  0  0  0  0
  160.4270  214.1110  148.7400 C   0  0  0  0  0  3  0  0  0  0  0  0
  162.4190  211.0180  149.7250 C   0  0  0  0  0  2  0  0  0  0  0  0
  159.5520  213.4690  151.3870 O   0  0  0  0  0  0  0  0  0  0  0  0
  162.4180  212.4560  147.6720 C   0  0  0  0  0  3  0  0  0  0  0  0
  160.6840  211.4670  151.3960 O   0  0  0  0  0  0  0  0  0  0  0  0
  161.8710  212.1640  148.9250 C   0  0  0  0  0  0  0  0  0  0  0  0
  162.3660  210.3680  154.0980 S   0  0  0  0  0  1  0  0  0  0  0  0
  161.3170  209.3980  152.9780 C   0  0  0  0  0  2  0  0  0  0  0  0
  1  3  1  0  0  0  0
  2  1  1  0  0  0  0
  2  3  1  0  0  0  0
  3  9  1  0  0  0  0
  3 19  1  0  0  0  0
  4 10  1  0  0  0  0
  5 13  1  0  0  0  0
  6 12  1  0  0  0  0
  6 13  1  0  0  0  0
  7 11  1  0  0  0  0
  8  4  2  0  0  0  0
  8 11  1  0  0  0  0
  9  7  1  6  0  0  0
  9  5  1  0  0  0  0
 10 12  2  0  0  0  0
 11  6  2  0  0  0  0
 14  4  1  0  0  0  0
 15 16  1  0  0  0  0
 16 14  1  0  0  0  0
 17 15  1  0  0  0  0
 18 15  2  0  0  0  0
 19 32  1  1  0  0  0
 20 27  2  0  0  0  0
 20 29  1  0  0  0  0
 21 20  1  0  0  0  0
 22 24  2  0  0  0  0
 22 28  1  0  0  0  0
 23 29  1  0  0  0  0
 23 19  1  1  0  0  0
 24 25  1  0  0  0  0
 25 21  2  0  0  0  0
 26 23  1  0  0  0  0
 28 30  2  0  0  0  0
 30 21  1  0  0  0  0
 30 26  1  0  0  0  0
 32 31  1  0  0  0  0
M  END
>  <MODEL>
8

>  <REMARK>
 VINA RESULT:      -5.7      2.504      3.831
  Name = 
  6 active torsions:
  status: ('A' for Active; 'I' for Inactive)
    1  A    between atoms: C_2  and  C_24
    2  A    between atoms: N_10  and  C_24
    3  A    between atoms: C_14  and  C_15
    4  A    between atoms: C_15  and  C_26
    5  A    between atoms: C_16  and  C_26
    6  A    between atoms: C_25  and  C_26
                            x       y       z     vdW  Elec       q    Type
                         _______ _______ _______ _____ _____    ______ ____

>  <TORSDO>
F 6

$$$$
=
 OpenBabel11062410573D

 32 36  0  0  1  0  0  0  0  0999 V2000
  161.2050  208.5330  149.0830 C   0  0  0  0  0  2  0  0  0  0  0  0
  162.6240  207.9780  149.0850 C   0  0  0  0  0  2  0  0  0  0  0  0
  161.8250  208.0310  150.3710 C   0  0  0  0  0  0  0  0  0  0  0  0
  159.3410  213.0410  151.5760 C   0  0  0  0  0  0  0  0  0  0  0  0
  161.8250  208.8530  152.7170 O   0  0  0  0  0  0  0  0  0  0  0  0
  160.0700  210.4680  152.3930 C   0  0  0  0  0  0  0  0  0  0  0  0
  162.1580  210.5690  150.9900 C   0  0  0  0  0  2  0  0  0  0  0  0
  160.5150  212.4580  151.0860 C   0  0  0  0  0  3  0  0  0  0  0  0
  162.2970  209.0890  151.4020 C   0  0  2  0  0  3  0  0  0  0  0  0
  158.5230  212.3280  152.4590 C   0  0  0  0  0  3  0  0  0  0  0  0
  160.8770  211.1680  151.4860 C   0  0  0  0  0  0  0  0  0  0  0  0
  158.8850  211.0400  152.8650 C   0  0  0  0  0  3  0  0  0  0  0  0
  160.4280  209.0600  152.7620 C   0  0  0  0  0  2  0  0  0  0  0  0
  158.9430  214.4030  151.1280 C   0  0  0  0  0  2  0  0  0  0  0  0
  156.8990  214.0630  149.6970 C   0  0  0  0  0  0  0  0  0  0  0  0
  157.5040  214.4530  150.9280 N   0  0  0  0  0  2  0  0  0  0  0  0
  155.4220  214.1340  149.5490 C   0  0  0  0  0  1  0  0  0  0  0  0
  157.6020  213.6560  148.7350 O   0  0  0  0  0  0  0  0  0  0  0  0
  161.3550  206.6510  150.8290 C   0  0  1  0  0  3  0  0  0  0  0  0
  161.9870  205.2040  147.4170 C   0  0  0  0  0  0  0  0  0  0  0  0
  161.4690  203.8310  147.5380 C   0  0  0  0  0  0  0  0  0  0  0  0
  160.4600  201.2380  147.8340 C   0  0  0  0  0  3  0  0  0  0  0  0
  161.0640  205.7380  149.6340 C   0  0  2  0  0  3  0  0  0  0  0  0
  160.8830  201.6850  146.5790 C   0  0  0  0  0  3  0  0  0  0  0  0
  161.3900  202.9790  146.4290 C   0  0  0  0  0  3  0  0  0  0  0  0
  161.1880  204.2590  150.0110 C   0  0  0  0  0  2  0  0  0  0  0  0
  162.5340  205.6010  146.3530 O   0  0  0  0  0  0  0  0  0  0  0  0
  160.5420  202.0850  148.9440 C   0  0  0  0  0  3  0  0  0  0  0  0
  161.8910  206.0650  148.5120 O   0  0  0  0  0  0  0  0  0  0  0  0
  161.0350  203.3850  148.8000 C   0  0  0  0  0  0  0  0  0  0  0  0
  161.4870  205.5840  153.3620 S   0  0  0  0  0  1  0  0  0  0  0  0
  162.3370  206.0330  151.8220 C   0  0  0  0  0  2  0  0  0  0  0  0
  1  2  1  0  0  0  0
  1  3  1  0  0  0  0
  2  3  1  0  0  0  0
  3 19  1  0  0  0  0
  4 10  1  0  0  0  0
  5 13  1  0  0  0  0
  6 13  1  0  0  0  0
  6 12  1  0  0  0  0
  7  9  1  0  0  0  0
  7 11  1  0  0  0  0
  8 11  1  0  0  0  0
  8  4  2  0  0  0  0
  9  3  1  6  0  0  0
  9  5  1  0  0  0  0
 10 12  2  0  0  0  0
 11  6  2  0  0  0  0
 14  4  1  0  0  0  0
 15 16  1  0  0  0  0
 16 14  1  0  0  0  0
 17 15  1  0  0  0  0
 18 15  2  0  0  0  0
 19 32  1  1  0  0  0
 20 21  1  0  0  0  0
 20 29  1  0  0  0  0
 21 30  1  0  0  0  0
 22 28  1  0  0  0  0
 23 26  1  0  0  0  0
 23 19  1  1  0  0  0
 24 22  2  0  0  0  0
 25 24  1  0  0  0  0
 25 21  2  0  0  0  0
 27 20  2  0  0  0  0
 29 23  1  0  0  0  0
 30 28  2  0  0  0  0
 30 26  1  0  0  0  0
 32 31  1  0  0  0  0
M  END
>  <MODEL>
9

>  <REMARK>
 VINA RESULT:      -5.6      3.348      9.208
  Name = 
  6 active torsions:
  status: ('A' for Active; 'I' for Inactive)
    1  A    between atoms: C_2  and  C_24
    2  A    between atoms: N_10  and  C_24
    3  A    between atoms: C_14  and  C_15
    4  A    between atoms: C_15  and  C_26
    5  A    between atoms: C_16  and  C_26
    6  A    between atoms: C_25  and  C_26
                            x       y       z     vdW  Elec       q    Type
                         _______ _______ _______ _____ _____    ______ ____

>  <TORSDO>
F 6

$$$$
