=
 OpenBabel11052422513D

 28 30  0  0  1  0  0  0  0  0999 V2000
  160.3280  209.4500  154.8240 C   0  0  1  0  0  3  0  0  0  0  0  0
  163.0690  209.4650  157.2400 O   0  0  0  0  0  0  0  0  0  0  0  0
  161.5950  209.7920  155.4620 N   0  0  0  0  0  0  0  0  0  0  0  0
  161.9890  209.1470  156.6780 C   0  0  0  0  0  0  0  0  0  0  0  0
  162.3770  210.7660  154.9360 O   0  0  0  0  0  1  0  0  0  0  0  0
  161.1680  208.1380  157.2610 N   0  0  0  0  0  1  0  0  0  0  0  0
  159.2280  210.4410  155.2240 C   0  0  2  0  0  3  0  0  0  0  0  0
  158.7040  211.2100  154.0050 C   0  0  2  0  0  3  0  0  0  0  0  0
  157.3710  213.1940  154.3130 N   0  0  0  0  0  0  0  0  0  0  0  0
  159.5610  212.4620  153.7540 C   0  0  0  0  0  3  0  0  0  0  0  0
  156.3180  211.1010  154.4350 O   0  0  0  0  0  0  0  0  0  0  0  0
  157.3640  211.7850  154.2770 C   0  0  0  0  0  0  0  0  0  0  0  0
  156.2310  214.0290  154.6430 C   0  0  0  0  0  1  0  0  0  0  0  0
  158.7040  213.6960  154.0720 C   0  0  0  0  0  3  0  0  0  0  0  0
  159.7020  211.3260  156.2000 O   0  0  0  0  0  0  0  0  0  0  0  0
  158.9540  211.0900  157.2560 O   0  0  0  0  0  1  0  0  0  0  0  0
  160.4840  209.3310  153.3030 C   0  0  0  0  0  2  0  0  0  0  0  0
  162.2510  208.1720  150.5640 C   0  0  0  0  0  2  0  0  0  0  0  0
  161.0110  206.2380  151.5200 C   0  0  0  0  0  0  0  0  0  0  0  0
  161.3600  208.1500  152.8830 C   0  0  2  0  0  3  0  0  0  0  0  0
  161.8360  206.6750  148.5750 C   0  0  1  0  0  3  0  0  0  0  0  0
  161.0930  207.7250  151.4480 C   0  0  1  0  0  3  0  0  0  0  0  0
  161.1520  205.7040  152.8950 C   0  0  0  0  0  2  0  0  0  0  0  0
  160.5910  205.9540  149.0770 C   0  0  0  0  0  2  0  0  0  0  0  0
  160.7840  205.4370  150.4720 C   0  0  0  0  0  3  0  0  0  0  0  0
  161.8200  206.6940  147.1820 O   0  0  0  0  0  1  0  0  0  0  0  0
  161.8730  208.1090  149.0900 C   0  0  0  0  0  2  0  0  0  0  0  0
  161.1640  206.9330  153.7870 C   0  0  0  0  0  2  0  0  0  0  0  0
  1 17  1  6  0  0  0
  1  7  1  0  0  0  0
  1  3  1  0  0  0  0
  3  4  1  0  0  0  0
  4  2  2  0  0  0  0
  4  6  1  0  0  0  0
  5  3  1  0  0  0  0
  7 15  1  1  0  0  0
  8 12  1  0  0  0  0
  8  7  1  1  0  0  0
  9 13  1  0  0  0  0
 10  8  1  0  0  0  0
 10 14  2  0  0  0  0
 12  9  1  0  0  0  0
 12 11  2  0  0  0  0
 14  9  1  0  0  0  0
 15 16  1  0  0  0  0
 19 23  1  0  0  0  0
 20 17  1  1  0  0  0
 20 28  1  0  0  0  0
 21 26  1  6  0  0  0
 21 24  1  0  0  0  0
 21 27  1  0  0  0  0
 22 18  1  6  0  0  0
 22 19  1  0  0  0  0
 22 20  1  0  0  0  0
 23 28  1  0  0  0  0
 24 25  1  0  0  0  0
 25 19  2  0  0  0  0
 27 18  1  0  0  0  0
M  END
>  <MODEL>
1

>  <REMARK>
 VINA RESULT:      -7.5      0.000      0.000
  Name = 
  6 active torsions:
  status: ('A' for Active; 'I' for Inactive)
    1  A    between atoms: O_1  and  C_2
    2  A    between atoms: C_2  and  C_3
    3  A    between atoms: C_2  and  C_27
    4  A    between atoms: C_10  and  C_17
    5  A    between atoms: N_16  and  C_27
    6  A    between atoms: C_17  and  C_27
                            x       y       z     vdW  Elec       q    Type
                         _______ _______ _______ _____ _____    ______ ____

>  <TORSDO>
F 6

$$$$
=
 OpenBabel11052422513D

 28 30  0  0  1  0  0  0  0  0999 V2000
  161.2290  205.5230  149.8080 C   0  0  1  0  0  3  0  0  0  0  0  0
  161.0040  202.9030  152.3450 O   0  0  0  0  0  0  0  0  0  0  0  0
  160.6840  204.4410  150.6210 N   0  0  0  0  0  0  0  0  0  0  0  0
  161.4680  203.8550  151.6660 C   0  0  0  0  0  0  0  0  0  0  0  0
  159.4520  203.9460  150.3500 O   0  0  0  0  0  1  0  0  0  0  0  0
  162.7760  204.3450  151.9500 N   0  0  0  0  0  1  0  0  0  0  0  0
  160.9740  205.2720  148.3180 C   0  0  2  0  0  3  0  0  0  0  0  0
  161.9210  204.1990  147.7660 C   0  0  2  0  0  3  0  0  0  0  0  0
  161.1910  202.7440  145.9880 N   0  0  0  0  0  0  0  0  0  0  0  0
  162.5280  204.6590  146.4290 C   0  0  0  0  0  3  0  0  0  0  0  0
  160.5990  202.2100  148.1940 O   0  0  0  0  0  0  0  0  0  0  0  0
  161.1730  202.9780  147.3770 C   0  0  0  0  0  0  0  0  0  0  0  0
  160.4760  201.6800  145.3080 C   0  0  0  0  0  1  0  0  0  0  0  0
  161.9480  203.7760  145.3150 C   0  0  0  0  0  3  0  0  0  0  0  0
  161.1030  206.4630  147.5940 O   0  0  0  0  0  0  0  0  0  0  0  0
  160.0800  206.4620  146.7650 O   0  0  0  0  0  1  0  0  0  0  0  0
  160.7040  206.8870  150.2720 C   0  0  0  0  0  2  0  0  0  0  0  0
  161.4260  206.9770  153.6540 C   0  0  0  0  0  2  0  0  0  0  0  0
  161.3710  209.3290  152.8440 C   0  0  0  0  0  0  0  0  0  0  0  0
  161.6440  207.5870  151.2550 C   0  0  2  0  0  3  0  0  0  0  0  0
  160.7070  208.2990  155.6790 C   0  0  1  0  0  3  0  0  0  0  0  0
  160.9480  207.9280  152.5640 C   0  0  1  0  0  3  0  0  0  0  0  0
  162.2330  209.9090  151.7880 C   0  0  0  0  0  2  0  0  0  0  0  0
  160.0790  209.4940  154.9720 C   0  0  0  0  0  2  0  0  0  0  0  0
  160.9880  210.0400  153.9120 C   0  0  0  0  0  3  0  0  0  0  0  0
  160.1040  208.1400  156.9260 O   0  0  0  0  0  1  0  0  0  0  0  0
  160.5070  207.0250  154.8670 C   0  0  0  0  0  2  0  0  0  0  0  0
  162.2340  208.8730  150.6780 C   0  0  0  0  0  2  0  0  0  0  0  0
  1 17  1  1  0  0  0
  1  3  1  0  0  0  0
  3  4  1  0  0  0  0
  4  6  1  0  0  0  0
  4  2  2  0  0  0  0
  5  3  1  0  0  0  0
  7 15  1  6  0  0  0
  7  1  1  0  0  0  0
  8  7  1  6  0  0  0
  9 12  1  0  0  0  0
 10  8  1  0  0  0  0
 12  8  1  0  0  0  0
 12 11  2  0  0  0  0
 13  9  1  0  0  0  0
 14  9  1  0  0  0  0
 14 10  2  0  0  0  0
 16 15  1  0  0  0  0
 18 27  1  0  0  0  0
 19 25  2  0  0  0  0
 20 17  1  6  0  0  0
 20 22  1  0  0  0  0
 21 26  1  1  0  0  0
 22 19  1  0  0  0  0
 22 18  1  1  0  0  0
 23 19  1  0  0  0  0
 24 21  1  0  0  0  0
 25 24  1  0  0  0  0
 27 21  1  0  0  0  0
 28 20  1  0  0  0  0
 28 23  1  0  0  0  0
M  END
>  <MODEL>
2

>  <REMARK>
 VINA RESULT:      -7.4      3.950      8.728
  Name = 
  6 active torsions:
  status: ('A' for Active; 'I' for Inactive)
    1  A    between atoms: O_1  and  C_2
    2  A    between atoms: C_2  and  C_3
    3  A    between atoms: C_2  and  C_27
    4  A    between atoms: C_10  and  C_17
    5  A    between atoms: N_16  and  C_27
    6  A    between atoms: C_17  and  C_27
                            x       y       z     vdW  Elec       q    Type
                         _______ _______ _______ _____ _____    ______ ____

>  <TORSDO>
F 6

$$$$
=
 OpenBabel11052422513D

 28 30  0  0  1  0  0  0  0  0999 V2000
  161.1690  208.8050  153.3710 C   0  0  1  0  0  3  0  0  0  0  0  0
  161.2030  211.2450  150.6520 O   0  0  0  0  0  0  0  0  0  0  0  0
  160.6950  209.7780  152.3920 N   0  0  0  0  0  0  0  0  0  0  0  0
  161.6110  210.3860  151.4760 C   0  0  0  0  0  0  0  0  0  0  0  0
  159.3930  210.1520  152.3860 O   0  0  0  0  0  1  0  0  0  0  0  0
  162.9900  210.0240  151.4840 N   0  0  0  0  0  1  0  0  0  0  0  0
  160.9980  209.3370  154.7990 C   0  0  2  0  0  3  0  0  0  0  0  0
  161.6740  210.7040  154.9660 C   0  0  2  0  0  3  0  0  0  0  0  0
  160.8560  212.2600  156.6140 N   0  0  0  0  0  0  0  0  0  0  0  0
  162.5960  210.6970  156.1960 C   0  0  0  0  0  3  0  0  0  0  0  0
  159.7840  212.1630  154.5300 O   0  0  0  0  0  0  0  0  0  0  0  0
  160.6790  211.7490  155.3140 C   0  0  0  0  0  0  0  0  0  0  0  0
  159.9860  213.2250  157.2610 C   0  0  0  0  0  1  0  0  0  0  0  0
  161.9760  211.6140  157.2610 C   0  0  0  0  0  3  0  0  0  0  0  0
  161.5070  208.4190  155.7250 O   0  0  0  0  0  0  0  0  0  0  0  0
  160.4690  208.0730  156.4570 O   0  0  0  0  0  1  0  0  0  0  0  0
  160.5000  207.4400  153.1700 C   0  0  0  0  0  2  0  0  0  0  0  0
  162.3870  207.0690  150.2950 C   0  0  0  0  0  2  0  0  0  0  0  0
  161.1530  204.9380  150.6520 C   0  0  0  0  0  0  0  0  0  0  0  0
  161.4140  206.4220  152.4870 C   0  0  2  0  0  3  0  0  0  0  0  0
  162.0740  206.1520  147.9650 C   0  0  1  0  0  3  0  0  0  0  0  0
  161.2070  206.3920  150.9800 C   0  0  1  0  0  3  0  0  0  0  0  0
  161.2540  204.0590  151.8400 C   0  0  0  0  0  2  0  0  0  0  0  0
  160.8270  205.3110  148.2060 C   0  0  0  0  0  2  0  0  0  0  0  0
  160.9800  204.4430  149.4200 C   0  0  0  0  0  3  0  0  0  0  0  0
  162.1080  206.5410  146.6270 O   0  0  0  0  0  1  0  0  0  0  0  0
  162.0640  207.3970  148.8430 C   0  0  0  0  0  2  0  0  0  0  0  0
  161.2100  205.0060  153.0260 C   0  0  0  0  0  2  0  0  0  0  0  0
  1 17  1  1  0  0  0
  1  7  1  0  0  0  0
  2  4  2  0  0  0  0
  3  1  1  0  0  0  0
  4  6  1  0  0  0  0
  4  3  1  0  0  0  0
  5  3  1  0  0  0  0
  7 15  1  1  0  0  0
  8  7  1  1  0  0  0
  8 12  1  0  0  0  0
  8 10  1  0  0  0  0
  9 14  1  0  0  0  0
  9 13  1  0  0  0  0
 10 14  2  0  0  0  0
 11 12  2  0  0  0  0
 12  9  1  0  0  0  0
 15 16  1  0  0  0  0
 19 22  1  0  0  0  0
 19 23  1  0  0  0  0
 20 28  1  0  0  0  0
 20 17  1  1  0  0  0
 21 26  1  6  0  0  0
 21 24  1  0  0  0  0
 21 27  1  0  0  0  0
 22 18  1  6  0  0  0
 22 20  1  0  0  0  0
 23 28  1  0  0  0  0
 24 25  1  0  0  0  0
 25 19  2  0  0  0  0
 27 18  1  0  0  0  0
M  END
>  <MODEL>
3

>  <REMARK>
 VINA RESULT:      -7.0      2.336      3.387
  Name = 
  6 active torsions:
  status: ('A' for Active; 'I' for Inactive)
    1  A    between atoms: O_1  and  C_2
    2  A    between atoms: C_2  and  C_3
    3  A    between atoms: C_2  and  C_27
    4  A    between atoms: C_10  and  C_17
    5  A    between atoms: N_16  and  C_27
    6  A    between atoms: C_17  and  C_27
                            x       y       z     vdW  Elec       q    Type
                         _______ _______ _______ _____ _____    ______ ____

>  <TORSDO>
F 6

$$$$
=
 OpenBabel11052422513D

 28 30  0  0  1  0  0  0  0  0999 V2000
  161.6030  207.6820  151.5820 C   0  0  1  0  0  3  0  0  0  0  0  0
  162.3200  210.4280  149.2810 O   0  0  0  0  0  0  0  0  0  0  0  0
  161.7000  208.4460  150.3430 N   0  0  0  0  0  0  0  0  0  0  0  0
  162.2650  209.7620  150.3470 C   0  0  0  0  0  0  0  0  0  0  0  0
  161.2010  207.9350  149.1910 O   0  0  0  0  0  1  0  0  0  0  0  0
  162.7720  210.3270  151.5530 N   0  0  0  0  0  1  0  0  0  0  0  0
  161.1730  208.5810  152.7480 C   0  0  2  0  0  3  0  0  0  0  0  0
  161.5490  207.9560  154.0980 C   0  0  2  0  0  3  0  0  0  0  0  0
  160.4950  208.7330  156.1210 N   0  0  0  0  0  0  0  0  0  0  0  0
  160.4670  206.9570  154.5430 C   0  0  0  0  0  3  0  0  0  0  0  0
  162.3250  209.9320  155.2740 O   0  0  0  0  0  0  0  0  0  0  0  0
  161.5160  208.9700  155.1800 C   0  0  0  0  0  0  0  0  0  0  0  0
  160.1640  209.6010  157.2360 C   0  0  0  0  0  1  0  0  0  0  0  0
  159.7490  207.5470  155.7650 C   0  0  0  0  0  3  0  0  0  0  0  0
  159.7970  208.8330  152.6870 O   0  0  0  0  0  0  0  0  0  0  0  0
  159.6960  210.1440  152.7550 O   0  0  0  0  0  1  0  0  0  0  0  0
  160.6900  206.4620  151.4150 C   0  0  0  0  0  2  0  0  0  0  0  0
  161.9580  204.5030  148.8620 C   0  0  0  0  0  2  0  0  0  0  0  0
  160.8620  202.9770  150.4940 C   0  0  0  0  0  0  0  0  0  0  0  0
  161.4640  205.1600  151.2060 C   0  0  2  0  0  3  0  0  0  0  0  0
  161.1940  202.5540  147.4510 C   0  0  1  0  0  3  0  0  0  0  0  0
  160.9560  204.3810  150.0020 C   0  0  1  0  0  3  0  0  0  0  0  0
  161.2200  202.8250  151.9230 C   0  0  0  0  0  2  0  0  0  0  0  0
  160.0380  202.0720  148.3190 C   0  0  0  0  0  2  0  0  0  0  0  0
  160.4510  201.9390  149.7550 C   0  0  0  0  0  3  0  0  0  0  0  0
  160.9480  202.1990  146.1270 O   0  0  0  0  0  1  0  0  0  0  0  0
  161.3400  204.0690  147.5390 C   0  0  0  0  0  2  0  0  0  0  0  0
  161.4010  204.2450  152.4290 C   0  0  0  0  0  2  0  0  0  0  0  0
  1 17  1  6  0  0  0
  1  7  1  0  0  0  0
  2  4  2  0  0  0  0
  3  4  1  0  0  0  0
  3  1  1  0  0  0  0
  4  6  1  0  0  0  0
  5  3  1  0  0  0  0
  7 15  1  1  0  0  0
  8  7  1  6  0  0  0
  8 10  1  0  0  0  0
  8 12  1  0  0  0  0
  9 13  1  0  0  0  0
 10 14  2  0  0  0  0
 12 11  2  0  0  0  0
 12  9  1  0  0  0  0
 14  9  1  0  0  0  0
 15 16  1  0  0  0  0
 19 23  1  0  0  0  0
 20 17  1  1  0  0  0
 20 28  1  0  0  0  0
 21 26  1  6  0  0  0
 21 27  1  0  0  0  0
 21 24  1  0  0  0  0
 22 18  1  6  0  0  0
 22 19  1  0  0  0  0
 22 20  1  0  0  0  0
 23 28  1  0  0  0  0
 24 25  1  0  0  0  0
 25 19  2  0  0  0  0
 27 18  1  0  0  0  0
M  END
>  <MODEL>
4

>  <REMARK>
 VINA RESULT:      -6.7      2.964      4.956
  Name = 
  6 active torsions:
  status: ('A' for Active; 'I' for Inactive)
    1  A    between atoms: O_1  and  C_2
    2  A    between atoms: C_2  and  C_3
    3  A    between atoms: C_2  and  C_27
    4  A    between atoms: C_10  and  C_17
    5  A    between atoms: N_16  and  C_27
    6  A    between atoms: C_17  and  C_27
                            x       y       z     vdW  Elec       q    Type
                         _______ _______ _______ _____ _____    ______ ____

>  <TORSDO>
F 6

$$$$
=
 OpenBabel11052422513D

 28 30  0  0  1  0  0  0  0  0999 V2000
  160.4250  209.7900  153.9650 C   0  0  1  0  0  3  0  0  0  0  0  0
  162.1440  209.0500  157.1030 O   0  0  0  0  0  0  0  0  0  0  0  0
  161.4280  209.8280  155.0240 N   0  0  0  0  0  0  0  0  0  0  0  0
  161.2920  208.9930  156.1790 C   0  0  0  0  0  0  0  0  0  0  0  0
  162.4640  210.6990  154.9450 O   0  0  0  0  0  1  0  0  0  0  0  0
  160.1960  208.0890  156.2920 N   0  0  0  0  0  1  0  0  0  0  0  0
  159.4760  210.9900  154.0650 C   0  0  2  0  0  3  0  0  0  0  0  0
  158.6970  210.9710  155.3860 C   0  0  2  0  0  3  0  0  0  0  0  0
  157.7220  213.0030  156.2400 N   0  0  0  0  0  0  0  0  0  0  0  0
  157.1830  210.9820  155.1130 C   0  0  0  0  0  3  0  0  0  0  0  0
  159.9910  212.5810  156.6610 O   0  0  0  0  0  0  0  0  0  0  0  0
  158.8970  212.2330  156.1400 C   0  0  0  0  0  0  0  0  0  0  0  0
  157.6320  214.3210  156.8410 C   0  0  0  0  0  1  0  0  0  0  0  0
  156.6270  212.3380  155.5700 C   0  0  0  0  0  3  0  0  0  0  0  0
  158.5980  211.0100  152.9750 O   0  0  0  0  0  0  0  0  0  0  0  0
  158.8980  212.1140  152.3250 O   0  0  0  0  0  1  0  0  0  0  0  0
  161.0790  209.6730  152.5830 C   0  0  0  0  0  2  0  0  0  0  0  0
  162.5740  207.8670  150.0390 C   0  0  0  0  0  2  0  0  0  0  0  0
  160.8910  206.3820  151.1140 C   0  0  0  0  0  0  0  0  0  0  0  0
  161.6570  208.2840  152.3100 C   0  0  2  0  0  3  0  0  0  0  0  0
  161.8550  206.3200  148.1800 C   0  0  1  0  0  3  0  0  0  0  0  0
  161.3260  207.7940  150.9090 C   0  0  1  0  0  3  0  0  0  0  0  0
  160.8740  205.9690  152.5360 C   0  0  0  0  0  2  0  0  0  0  0  0
  160.4650  205.9640  148.6910 C   0  0  0  0  0  2  0  0  0  0  0  0
  160.5010  205.5570  150.1340 C   0  0  0  0  0  3  0  0  0  0  0  0
  161.8730  206.2050  146.7910 O   0  0  0  0  0  1  0  0  0  0  0  0
  162.2220  207.7490  148.5620 C   0  0  0  0  0  2  0  0  0  0  0  0
  161.1600  207.2420  153.3120 C   0  0  0  0  0  2  0  0  0  0  0  0
  1 17  1  6  0  0  0
  1  7  1  0  0  0  0
  1  3  1  0  0  0  0
  3  4  1  0  0  0  0
  4  6  1  0  0  0  0
  4  2  2  0  0  0  0
  5  3  1  0  0  0  0
  7 15  1  6  0  0  0
  8  7  1  6  0  0  0
  8 12  1  0  0  0  0
  9 13  1  0  0  0  0
 10  8  1  0  0  0  0
 10 14  2  0  0  0  0
 12  9  1  0  0  0  0
 12 11  2  0  0  0  0
 14  9  1  0  0  0  0
 16 15  1  0  0  0  0
 19 23  1  0  0  0  0
 20 17  1  1  0  0  0
 20 28  1  0  0  0  0
 21 26  1  6  0  0  0
 21 27  1  0  0  0  0
 21 24  1  0  0  0  0
 22 18  1  6  0  0  0
 22 19  1  0  0  0  0
 22 20  1  0  0  0  0
 23 28  1  0  0  0  0
 24 25  1  0  0  0  0
 25 19  2  0  0  0  0
 27 18  1  0  0  0  0
M  END
>  <MODEL>
5

>  <REMARK>
 VINA RESULT:      -6.5      1.344      1.943
  Name = 
  6 active torsions:
  status: ('A' for Active; 'I' for Inactive)
    1  A    between atoms: O_1  and  C_2
    2  A    between atoms: C_2  and  C_3
    3  A    between atoms: C_2  and  C_27
    4  A    between atoms: C_10  and  C_17
    5  A    between atoms: N_16  and  C_27
    6  A    between atoms: C_17  and  C_27
                            x       y       z     vdW  Elec       q    Type
                         _______ _______ _______ _____ _____    ______ ____

>  <TORSDO>
F 6

$$$$
=
 OpenBabel11052422513D

 28 30  0  0  1  0  0  0  0  0999 V2000
  161.1740  204.1660  149.2450 C   0  0  1  0  0  3  0  0  0  0  0  0
  160.8810  200.8760  150.8060 O   0  0  0  0  0  0  0  0  0  0  0  0
  160.7850  202.7760  149.4570 N   0  0  0  0  0  0  0  0  0  0  0  0
  161.1950  202.0830  150.6400 C   0  0  0  0  0  0  0  0  0  0  0  0
  160.0820  202.1170  148.5040 O   0  0  0  0  0  1  0  0  0  0  0  0
  161.9560  202.7510  151.6430 N   0  0  0  0  0  1  0  0  0  0  0  0
  160.8190  204.6250  147.8260 C   0  0  2  0  0  3  0  0  0  0  0  0
  161.8580  204.1360  146.8080 C   0  0  2  0  0  3  0  0  0  0  0  0
  161.9570  205.1270  144.6140 N   0  0  0  0  0  0  0  0  0  0  0  0
  163.0350  205.1220  146.7310 C   0  0  0  0  0  3  0  0  0  0  0  0
  160.3870  203.4300  145.0120 O   0  0  0  0  0  0  0  0  0  0  0  0
  161.3110  204.1770  145.4300 C   0  0  0  0  0  0  0  0  0  0  0  0
  161.5820  205.4530  143.2500 C   0  0  0  0  0  1  0  0  0  0  0  0
  162.9900  205.8100  145.3590 C   0  0  0  0  0  3  0  0  0  0  0  0
  160.7020  206.0190  147.7790 O   0  0  0  0  0  0  0  0  0  0  0  0
  159.7370  206.2440  146.9120 O   0  0  0  0  0  1  0  0  0  0  0  0
  160.5810  205.0810  150.3230 C   0  0  0  0  0  2  0  0  0  0  0  0
  161.5810  206.1950  153.4410 C   0  0  0  0  0  2  0  0  0  0  0  0
  161.5390  208.1690  151.9270 C   0  0  0  0  0  0  0  0  0  0  0  0
  161.6210  206.0010  150.9650 C   0  0  2  0  0  3  0  0  0  0  0  0
  161.0750  208.1300  154.9810 C   0  0  1  0  0  3  0  0  0  0  0  0
  161.0470  206.7780  152.1390 C   0  0  1  0  0  3  0  0  0  0  0  0
  162.3300  208.3340  150.6860 C   0  0  0  0  0  2  0  0  0  0  0  0
  160.4320  209.0740  153.9720 C   0  0  0  0  0  2  0  0  0  0  0  0
  161.2690  209.2030  152.7340 C   0  0  0  0  0  3  0  0  0  0  0  0
  160.5710  208.4090  156.2500 O   0  0  0  0  0  1  0  0  0  0  0  0
  160.7660  206.6780  154.6340 C   0  0  0  0  0  2  0  0  0  0  0  0
  162.2050  207.0010  149.9680 C   0  0  0  0  0  2  0  0  0  0  0  0
  1  3  1  0  0  0  0
  1 17  1  1  0  0  0
  3  4  1  0  0  0  0
  4  2  2  0  0  0  0
  4  6  1  0  0  0  0
  5  3  1  0  0  0  0
  7 15  1  1  0  0  0
  7  1  1  0  0  0  0
  8  7  1  1  0  0  0
  9 14  1  0  0  0  0
  9 12  1  0  0  0  0
 10  8  1  0  0  0  0
 11 12  2  0  0  0  0
 12  8  1  0  0  0  0
 13  9  1  0  0  0  0
 14 10  2  0  0  0  0
 16 15  1  0  0  0  0
 18 27  1  0  0  0  0
 19 22  1  0  0  0  0
 19 25  2  0  0  0  0
 20 17  1  6  0  0  0
 20 22  1  0  0  0  0
 21 26  1  1  0  0  0
 22 18  1  1  0  0  0
 23 19  1  0  0  0  0
 24 21  1  0  0  0  0
 25 24  1  0  0  0  0
 27 21  1  0  0  0  0
 28 23  1  0  0  0  0
 28 20  1  0  0  0  0
M  END
>  <MODEL>
6

>  <REMARK>
 VINA RESULT:      -6.3      4.208      9.002
  Name = 
  6 active torsions:
  status: ('A' for Active; 'I' for Inactive)
    1  A    between atoms: O_1  and  C_2
    2  A    between atoms: C_2  and  C_3
    3  A    between atoms: C_2  and  C_27
    4  A    between atoms: C_10  and  C_17
    5  A    between atoms: N_16  and  C_27
    6  A    between atoms: C_17  and  C_27
                            x       y       z     vdW  Elec       q    Type
                         _______ _______ _______ _____ _____    ______ ____

>  <TORSDO>
F 6

$$$$
=
 OpenBabel11052422513D

 28 30  0  0  1  0  0  0  0  0999 V2000
  161.4900  207.8410  150.7200 C   0  0  1  0  0  3  0  0  0  0  0  0
  162.3980  210.6220  148.5300 O   0  0  0  0  0  0  0  0  0  0  0  0
  162.0420  208.5710  149.5840 N   0  0  0  0  0  0  0  0  0  0  0  0
  161.9460  209.9990  149.5260 C   0  0  0  0  0  0  0  0  0  0  0  0
  162.5970  207.8950  148.5490 O   0  0  0  0  0  1  0  0  0  0  0  0
  161.3430  210.7270  150.5920 N   0  0  0  0  0  1  0  0  0  0  0  0
  161.8430  206.3520  150.6380 C   0  0  2  0  0  3  0  0  0  0  0  0
  160.6170  205.5110  150.2600 C   0  0  2  0  0  3  0  0  0  0  0  0
  160.8990  203.4360  149.0660 N   0  0  0  0  0  0  0  0  0  0  0  0
  160.4640  204.3250  151.2260 C   0  0  0  0  0  3  0  0  0  0  0  0
  160.8840  205.4410  147.8480 O   0  0  0  0  0  0  0  0  0  0  0  0
  160.8180  204.8380  148.9530 C   0  0  0  0  0  0  0  0  0  0  0  0
  161.1790  202.5220  147.9750 C   0  0  0  0  0  1  0  0  0  0  0  0
  160.7630  203.0350  150.4480 C   0  0  0  0  0  3  0  0  0  0  0  0
  162.3870  205.9120  151.8510 O   0  0  0  0  0  0  0  0  0  0  0  0
  163.6770  205.8000  151.6170 O   0  0  0  0  0  1  0  0  0  0  0  0
  161.9190  208.4740  152.0500 C   0  0  0  0  0  2  0  0  0  0  0  0
  159.7430  210.7090  153.5450 C   0  0  0  0  0  2  0  0  0  0  0  0
  160.6470  209.2400  155.3390 C   0  0  0  0  0  0  0  0  0  0  0  0
  160.7950  208.5050  153.0870 C   0  0  2  0  0  3  0  0  0  0  0  0
  159.6910  212.1660  155.6050 C   0  0  1  0  0  3  0  0  0  0  0  0
  160.8560  209.7530  153.9550 C   0  0  1  0  0  3  0  0  0  0  0  0
  160.5130  207.7670  155.4100 C   0  0  0  0  0  2  0  0  0  0  0  0
  160.8040  211.4940  156.3990 C   0  0  0  0  0  2  0  0  0  0  0  0
  160.6250  210.0050  156.4370 C   0  0  0  0  0  3  0  0  0  0  0  0
  159.5980  213.5010  155.9920 O   0  0  0  0  0  1  0  0  0  0  0  0
  159.9810  212.1030  154.1100 C   0  0  0  0  0  2  0  0  0  0  0  0
  160.8170  207.2830  154.0030 C   0  0  0  0  0  2  0  0  0  0  0  0
  1 17  1  1  0  0  0
  2  4  2  0  0  0  0
  3  1  1  0  0  0  0
  4  3  1  0  0  0  0
  4  6  1  0  0  0  0
  5  3  1  0  0  0  0
  7  1  1  0  0  0  0
  7 15  1  1  0  0  0
  8  7  1  1  0  0  0
  8 10  1  0  0  0  0
  9 14  1  0  0  0  0
 11 12  2  0  0  0  0
 12  9  1  0  0  0  0
 12  8  1  0  0  0  0
 13  9  1  0  0  0  0
 14 10  2  0  0  0  0
 16 15  1  0  0  0  0
 18 27  1  0  0  0  0
 19 23  1  0  0  0  0
 19 25  2  0  0  0  0
 20 17  1  6  0  0  0
 20 22  1  0  0  0  0
 20 28  1  0  0  0  0
 21 26  1  1  0  0  0
 21 24  1  0  0  0  0
 22 18  1  6  0  0  0
 22 19  1  0  0  0  0
 24 25  1  0  0  0  0
 27 21  1  0  0  0  0
 28 23  1  0  0  0  0
M  END
>  <MODEL>
7

>  <REMARK>
 VINA RESULT:      -6.3      3.082      7.827
  Name = 
  6 active torsions:
  status: ('A' for Active; 'I' for Inactive)
    1  A    between atoms: O_1  and  C_2
    2  A    between atoms: C_2  and  C_3
    3  A    between atoms: C_2  and  C_27
    4  A    between atoms: C_10  and  C_17
    5  A    between atoms: N_16  and  C_27
    6  A    between atoms: C_17  and  C_27
                            x       y       z     vdW  Elec       q    Type
                         _______ _______ _______ _____ _____    ______ ____

>  <TORSDO>
F 6

$$$$
=
 OpenBabel11052422513D

 28 30  0  0  1  0  0  0  0  0999 V2000
  161.6970  207.7240  151.7180 C   0  0  1  0  0  3  0  0  0  0  0  0
  162.1980  209.7870  148.7440 O   0  0  0  0  0  0  0  0  0  0  0  0
  162.0770  208.8570  150.8800 N   0  0  0  0  0  0  0  0  0  0  0  0
  161.8440  208.8200  149.4670 C   0  0  0  0  0  0  0  0  0  0  0  0
  162.7060  209.9240  151.4280 O   0  0  0  0  0  1  0  0  0  0  0  0
  161.2060  207.6960  148.8680 N   0  0  0  0  0  1  0  0  0  0  0  0
  160.9360  208.1960  152.9630 C   0  0  2  0  0  3  0  0  0  0  0  0
  161.2390  209.6670  153.2740 C   0  0  2  0  0  3  0  0  0  0  0  0
  159.7380  210.9390  154.6660 N   0  0  0  0  0  0  0  0  0  0  0  0
  161.8260  209.8040  154.6890 C   0  0  0  0  0  3  0  0  0  0  0  0
  159.2320  210.7050  152.3880 O   0  0  0  0  0  0  0  0  0  0  0  0
  159.9870  210.4590  153.3650 C   0  0  0  0  0  0  0  0  0  0  0  0
  158.5520  211.6660  155.0780 C   0  0  0  0  0  1  0  0  0  0  0  0
  160.7890  210.5200  155.5670 C   0  0  0  0  0  3  0  0  0  0  0  0
  161.2490  207.3850  154.0610 O   0  0  0  0  0  0  0  0  0  0  0  0
  160.0850  206.9550  154.5000 O   0  0  0  0  0  1  0  0  0  0  0  0
  160.9190  206.6740  150.9170 C   0  0  0  0  0  2  0  0  0  0  0  0
  161.9570  204.2380  148.6920 C   0  0  0  0  0  2  0  0  0  0  0  0
  160.8320  203.0820  150.5860 C   0  0  0  0  0  0  0  0  0  0  0  0
  161.5990  205.3050  150.9070 C   0  0  2  0  0  3  0  0  0  0  0  0
  161.0160  202.1420  147.6490 C   0  0  1  0  0  3  0  0  0  0  0  0
  160.9950  204.3760  149.8650 C   0  0  1  0  0  3  0  0  0  0  0  0
  161.2360  203.1420  152.0100 C   0  0  0  0  0  2  0  0  0  0  0  0
  159.8660  201.8910  148.6170 C   0  0  0  0  0  2  0  0  0  0  0  0
  160.3270  201.9670  150.0420 C   0  0  0  0  0  3  0  0  0  0  0  0
  160.6950  201.5910  146.4100 O   0  0  0  0  0  1  0  0  0  0  0  0
  161.2610  203.6360  147.4780 C   0  0  0  0  0  2  0  0  0  0  0  0
  161.5260  204.6100  152.2660 C   0  0  0  0  0  2  0  0  0  0  0  0
  1 17  1  6  0  0  0
  1  7  1  0  0  0  0
  2  4  2  0  0  0  0
  3  5  1  0  0  0  0
  3  1  1  0  0  0  0
  4  3  1  0  0  0  0
  6  4  1  0  0  0  0
  7 15  1  1  0  0  0
  8  7  1  1  0  0  0
  8 12  1  0  0  0  0
  8 10  1  0  0  0  0
  9 13  1  0  0  0  0
  9 14  1  0  0  0  0
 10 14  2  0  0  0  0
 11 12  2  0  0  0  0
 12  9  1  0  0  0  0
 15 16  1  0  0  0  0
 19 23  1  0  0  0  0
 20 17  1  1  0  0  0
 20 28  1  0  0  0  0
 21 26  1  6  0  0  0
 21 24  1  0  0  0  0
 22 18  1  6  0  0  0
 22 19  1  0  0  0  0
 22 20  1  0  0  0  0
 23 28  1  0  0  0  0
 24 25  1  0  0  0  0
 25 19  2  0  0  0  0
 27 21  1  0  0  0  0
 27 18  1  0  0  0  0
M  END
>  <MODEL>
8

>  <REMARK>
 VINA RESULT:      -6.2      3.054      4.539
  Name = 
  6 active torsions:
  status: ('A' for Active; 'I' for Inactive)
    1  A    between atoms: O_1  and  C_2
    2  A    between atoms: C_2  and  C_3
    3  A    between atoms: C_2  and  C_27
    4  A    between atoms: C_10  and  C_17
    5  A    between atoms: N_16  and  C_27
    6  A    between atoms: C_17  and  C_27
                            x       y       z     vdW  Elec       q    Type
                         _______ _______ _______ _____ _____    ______ ____

>  <TORSDO>
F 6

$$$$
=
 OpenBabel11052422513D

 28 30  0  0  1  0  0  0  0  0999 V2000
  160.8240  205.0290  147.9850 C   0  0  1  0  0  3  0  0  0  0  0  0
  162.7060  205.8290  144.9570 O   0  0  0  0  0  0  0  0  0  0  0  0
  161.9530  205.2470  147.0870 N   0  0  0  0  0  0  0  0  0  0  0  0
  161.7310  205.6700  145.7370 C   0  0  0  0  0  0  0  0  0  0  0  0
  163.2150  204.9920  147.5100 O   0  0  0  0  0  1  0  0  0  0  0  0
  160.4100  205.9190  145.2650 N   0  0  0  0  0  1  0  0  0  0  0  0
  161.1440  203.9360  149.0120 C   0  0  2  0  0  3  0  0  0  0  0  0
  160.2840  202.6870  148.7780 C   0  0  2  0  0  3  0  0  0  0  0  0
  161.3100  200.6430  148.0180 N   0  0  0  0  0  0  0  0  0  0  0  0
  160.4350  201.7070  149.9530 C   0  0  0  0  0  3  0  0  0  0  0  0
  160.7610  202.2830  146.4330 O   0  0  0  0  0  0  0  0  0  0  0  0
  160.7970  201.8970  147.6320 C   0  0  0  0  0  0  0  0  0  0  0  0
  161.9560  199.6920  147.1320 C   0  0  0  0  0  1  0  0  0  0  0  0
  161.1920  200.4710  149.4480 C   0  0  0  0  0  3  0  0  0  0  0  0
  160.9640  204.4220  150.3130 O   0  0  0  0  0  0  0  0  0  0  0  0
  161.9580  203.9040  151.0020 O   0  0  0  0  0  1  0  0  0  0  0  0
  160.3760  206.3390  148.6440 C   0  0  0  0  0  2  0  0  0  0  0  0
  161.7950  206.9840  151.7320 C   0  0  0  0  0  2  0  0  0  0  0  0
  161.6840  209.1440  150.5010 C   0  0  0  0  0  0  0  0  0  0  0  0
  161.5330  207.1230  149.2650 C   0  0  2  0  0  3  0  0  0  0  0  0
  161.5810  208.7130  153.5580 C   0  0  1  0  0  3  0  0  0  0  0  0
  161.1440  207.7570  150.5920 C   0  0  1  0  0  3  0  0  0  0  0  0
  162.3320  209.4430  149.2030 C   0  0  0  0  0  2  0  0  0  0  0  0
  160.8770  209.8080  152.7670 C   0  0  0  0  0  2  0  0  0  0  0  0
  161.5680  210.0690  151.4620 C   0  0  0  0  0  3  0  0  0  0  0  0
  161.2460  208.8380  154.9050 O   0  0  0  0  0  1  0  0  0  0  0  0
  161.1540  207.3340  153.0680 C   0  0  0  0  0  2  0  0  0  0  0  0
  162.0500  208.2240  148.3410 C   0  0  0  0  0  2  0  0  0  0  0  0
  1 17  1  1  0  0  0
  1  7  1  0  0  0  0
  2  4  2  0  0  0  0
  3  5  1  0  0  0  0
  3  1  1  0  0  0  0
  4  3  1  0  0  0  0
  6  4  1  0  0  0  0
  7 15  1  1  0  0  0
  8  7  1  1  0  0  0
  8 10  1  0  0  0  0
  9 14  1  0  0  0  0
 11 12  2  0  0  0  0
 12  9  1  0  0  0  0
 12  8  1  0  0  0  0
 13  9  1  0  0  0  0
 14 10  2  0  0  0  0
 15 16  1  0  0  0  0
 18 27  1  0  0  0  0
 19 22  1  0  0  0  0
 19 25  2  0  0  0  0
 20 17  1  6  0  0  0
 20 22  1  0  0  0  0
 21 26  1  1  0  0  0
 22 18  1  1  0  0  0
 23 19  1  0  0  0  0
 24 21  1  0  0  0  0
 25 24  1  0  0  0  0
 27 21  1  0  0  0  0
 28 23  1  0  0  0  0
 28 20  1  0  0  0  0
M  END
>  <MODEL>
9

>  <REMARK>
 VINA RESULT:      -6.2      4.512      9.450
  Name = 
  6 active torsions:
  status: ('A' for Active; 'I' for Inactive)
    1  A    between atoms: O_1  and  C_2
    2  A    between atoms: C_2  and  C_3
    3  A    between atoms: C_2  and  C_27
    4  A    between atoms: C_10  and  C_17
    5  A    between atoms: N_16  and  C_27
    6  A    between atoms: C_17  and  C_27
                            x       y       z     vdW  Elec       q    Type
                         _______ _______ _______ _____ _____    ______ ____

>  <TORSDO>
F 6

$$$$
