=
 OpenBabel11062409423D

 34 39  0  0  1  0  0  0  0  0999 V2000
  161.3930  205.7510  148.8980 C   0  0  0  0  0  0  0  0  0  0  0  0
  161.2110  203.2690  146.0730 C   0  0  0  0  0  2  0  0  0  0  0  0
  160.9610  203.0480  148.5350 C   0  0  0  0  0  3  0  0  0  0  0  0
  161.7030  206.8570  150.7160 C   0  0  0  0  0  0  0  0  0  0  0  0
  161.7500  206.9730  149.3520 N   0  0  0  0  0  0  0  0  0  0  0  0
  161.3290  204.8690  152.4550 C   0  0  0  0  0  3  0  0  0  0  0  0
  161.0380  203.3700  152.2910 C   0  0  0  0  0  3  0  0  0  0  0  0
  161.3440  205.5680  151.1210 C   0  0  0  0  0  0  0  0  0  0  0  0
  160.9670  203.5490  149.8450 C   0  0  0  0  0  0  0  0  0  0  0  0
  161.1460  204.8900  149.9790 C   0  0  2  0  0  3  0  0  0  0  0  0
  160.8810  202.7590  151.0910 C   0  0  0  0  0  3  0  0  0  0  0  0
  160.6890  204.1440  145.0340 N   0  0  0  0  0  2  0  0  0  0  0  0
  161.8090  204.8660  144.4330 C   0  0  2  0  0  3  0  0  0  0  0  0
  162.5670  205.7170  145.4630 C   0  0  0  0  0  2  0  0  0  0  0  0
  161.1560  203.9260  147.4250 C   0  0  0  0  0  0  0  0  0  0  0  0
  161.6310  206.2530  146.5390 C   0  0  0  0  0  2  0  0  0  0  0  0
  161.4190  205.2840  147.6210 N   0  0  0  0  0  0  0  0  0  0  0  0
  161.2890  205.7420  143.3030 C   0  0  0  0  0  2  0  0  0  0  0  0
  162.2960  205.8770  142.2620 N   0  0  0  0  0  2  0  0  0  0  0  0
  161.7190  206.7030  141.2150 C   0  0  0  0  0  1  0  0  0  0  0  0
  162.1210  207.9520  151.6390 C   0  0  0  0  0  2  0  0  0  0  0  0
  160.4460  208.9710  154.8020 C   0  0  0  0  0  3  0  0  0  0  0  0
  160.7240  209.9700  152.1140 C   0  0  0  0  0  2  0  0  0  0  0  0
  157.9490  211.8030  154.8500 C   0  0  0  0  0  0  0  0  0  0  0  0
  158.7390  210.7220  155.2650 C   0  0  0  0  0  3  0  0  0  0  0  0
  159.6150  210.1050  154.3680 C   0  0  0  0  0  0  0  0  0  0  0  0
  158.9360  211.6590  152.6320 C   0  0  0  0  0  3  0  0  0  0  0  0
  159.7110  210.5720  153.0440 C   0  0  0  0  0  0  0  0  0  0  0  0
  158.0530  212.2670  153.5290 C   0  0  0  0  0  3  0  0  0  0  0  0
  160.9290  208.4830  152.4210 C   0  0  2  0  0  3  0  0  0  0  0  0
  161.1020  208.2340  153.9000 C   0  0  0  0  0  3  0  0  0  0  0  0
  157.0220  212.4460  155.7960 C   0  0  0  0  0  0  0  0  0  0  0  0
  157.4180  213.3770  156.5460 O   0  0  0  0  0  1  0  0  0  0  0  0
  155.6980  212.0290  155.8700 O   0  0  0  0  0  0  0  0  0  0  0  0
  1  5  2  0  0  0  0
  2 15  1  0  0  0  0
  3  9  1  0  0  0  0
  4  8  2  0  0  0  0
  4 21  1  0  0  0  0
  5  4  1  0  0  0  0
  7  6  2  0  0  0  0
  8  6  1  0  0  0  0
  9 10  1  0  0  0  0
  9 11  2  0  0  0  0
 10  1  1  6  0  0  0
 10  8  1  0  0  0  0
 11  7  1  0  0  0  0
 12  2  1  0  0  0  0
 13 18  1  6  0  0  0
 13 12  1  0  0  0  0
 13 14  1  0  0  0  0
 14 16  1  0  0  0  0
 15 17  1  0  0  0  0
 15  3  2  0  0  0  0
 16 17  1  0  0  0  0
 17  1  1  0  0  0  0
 19 18  1  0  0  0  0
 20 19  1  0  0  0  0
 23 30  1  0  0  0  0
 23 28  1  0  0  0  0
 24 25  1  0  0  0  0
 24 32  1  0  0  0  0
 26 22  1  0  0  0  0
 26 25  2  0  0  0  0
 27 28  2  0  0  0  0
 27 29  1  0  0  0  0
 28 26  1  0  0  0  0
 29 24  2  0  0  0  0
 30 21  1  6  0  0  0
 30 31  1  0  0  0  0
 31 22  2  0  0  0  0
 32 34  2  0  0  0  0
 32 33  1  0  0  0  0
M  END
>  <MODEL>
1

>  <REMARK>
 VINA RESULT:      -9.1      0.000      0.000
  Name = 
  5 active torsions:
  status: ('A' for Active; 'I' for Inactive)
    1  A    between atoms: C_3  and  N_13
    2  A    between atoms: C_3  and  C_25
    3  A    between atoms: C_7  and  C_11
    4  A    between atoms: C_8  and  C_18
    5  A    between atoms: C_18  and  C_30
                            x       y       z     vdW  Elec       q    Type
                         _______ _______ _______ _____ _____    ______ ____

>  <TORSDO>
F 5

$$$$
=
 OpenBabel11062409423D

 34 39  0  0  1  0  0  0  0  0999 V2000
  161.3460  210.6330  150.8980 C   0  0  0  0  0  0  0  0  0  0  0  0
  160.4420  213.9700  149.4070 C   0  0  0  0  0  2  0  0  0  0  0  0
  160.0270  212.9450  151.6320 C   0  0  0  0  0  3  0  0  0  0  0  0
  161.4720  208.7440  151.9180 C   0  0  0  0  0  0  0  0  0  0  0  0
  161.7670  209.3590  150.7310 N   0  0  0  0  0  0  0  0  0  0  0  0
  160.1670  209.4130  154.1460 C   0  0  0  0  0  3  0  0  0  0  0  0
  159.4660  210.6990  154.6090 C   0  0  0  0  0  3  0  0  0  0  0  0
  160.8500  209.6130  152.8190 C   0  0  0  0  0  0  0  0  0  0  0  0
  160.0930  211.8950  152.5600 C   0  0  0  0  0  0  0  0  0  0  0  0
  160.7830  210.7890  152.1740 C   0  0  2  0  0  3  0  0  0  0  0  0
  159.4230  211.8380  153.8760 C   0  0  0  0  0  3  0  0  0  0  0  0
  161.5840  214.1400  148.5210 N   0  0  0  0  0  2  0  0  0  0  0  0
  161.3140  213.4220  147.2760 C   0  0  2  0  0  3  0  0  0  0  0  0
  161.0910  211.9210  147.5130 C   0  0  0  0  0  2  0  0  0  0  0  0
  160.6460  212.8160  150.3510 C   0  0  0  0  0  0  0  0  0  0  0  0
  161.9300  211.4100  148.6770 C   0  0  0  0  0  2  0  0  0  0  0  0
  161.2710  211.6260  149.9710 N   0  0  0  0  0  0  0  0  0  0  0  0
  162.4710  213.6390  146.3140 C   0  0  0  0  0  2  0  0  0  0  0  0
  162.1330  213.1340  144.9920 N   0  0  0  0  0  2  0  0  0  0  0  0
  163.2830  213.3710  144.1370 C   0  0  0  0  0  1  0  0  0  0  0  0
  161.6790  207.2850  152.1500 C   0  0  0  0  0  2  0  0  0  0  0  0
  161.9830  206.1620  148.6150 C   0  0  0  0  0  3  0  0  0  0  0  0
  161.4680  204.9850  151.1950 C   0  0  0  0  0  2  0  0  0  0  0  0
  160.9850  202.6650  147.5980 C   0  0  0  0  0  0  0  0  0  0  0  0
  161.4100  203.9980  147.5260 C   0  0  0  0  0  3  0  0  0  0  0  0
  161.5350  204.7620  148.6890 C   0  0  0  0  0  0  0  0  0  0  0  0
  160.8290  202.8580  150.0170 C   0  0  0  0  0  3  0  0  0  0  0  0
  161.2380  204.1910  149.9410 C   0  0  0  0  0  0  0  0  0  0  0  0
  160.6950  202.1010  148.8500 C   0  0  0  0  0  3  0  0  0  0  0  0
  161.2130  206.4760  150.9500 C   0  0  2  0  0  3  0  0  0  0  0  0
  161.8790  206.9590  149.6840 C   0  0  0  0  0  3  0  0  0  0  0  0
  160.8480  201.8660  146.3690 C   0  0  0  0  0  0  0  0  0  0  0  0
  160.5730  202.4210  145.2730 O   0  0  0  0  0  0  0  0  0  0  0  0
  161.0210  200.4870  146.4090 O   0  0  0  0  0  1  0  0  0  0  0  0
  2 15  1  0  0  0  0
  3  9  1  0  0  0  0
  4 21  1  0  0  0  0
  4  8  2  0  0  0  0
  5  1  2  0  0  0  0
  5  4  1  0  0  0  0
  6  7  2  0  0  0  0
  8  6  1  0  0  0  0
  9 11  2  0  0  0  0
 10  1  1  6  0  0  0
 10  9  1  0  0  0  0
 10  8  1  0  0  0  0
 11  7  1  0  0  0  0
 12  2  1  0  0  0  0
 13 18  1  6  0  0  0
 13 14  1  0  0  0  0
 13 12  1  0  0  0  0
 14 16  1  0  0  0  0
 15  3  2  0  0  0  0
 16 17  1  0  0  0  0
 17 15  1  0  0  0  0
 17  1  1  0  0  0  0
 19 18  1  0  0  0  0
 20 19  1  0  0  0  0
 22 26  1  0  0  0  0
 22 31  2  0  0  0  0
 24 29  1  0  0  0  0
 25 24  2  0  0  0  0
 25 26  1  0  0  0  0
 26 28  2  0  0  0  0
 28 27  1  0  0  0  0
 28 23  1  0  0  0  0
 29 27  2  0  0  0  0
 30 23  1  0  0  0  0
 30 21  1  1  0  0  0
 31 30  1  0  0  0  0
 32 34  1  0  0  0  0
 32 24  1  0  0  0  0
 33 32  2  0  0  0  0
M  END
>  <MODEL>
2

>  <REMARK>
 VINA RESULT:      -8.9      5.000      8.751
  Name = 
  5 active torsions:
  status: ('A' for Active; 'I' for Inactive)
    1  A    between atoms: C_3  and  N_13
    2  A    between atoms: C_3  and  C_25
    3  A    between atoms: C_7  and  C_11
    4  A    between atoms: C_8  and  C_18
    5  A    between atoms: C_18  and  C_30
                            x       y       z     vdW  Elec       q    Type
                         _______ _______ _______ _____ _____    ______ ____

>  <TORSDO>
F 5

$$$$
=
 OpenBabel11062409423D

 34 39  0  0  1  0  0  0  0  0999 V2000
  160.0650  211.4960  152.3920 C   0  0  0  0  0  0  0  0  0  0  0  0
  158.1600  214.4500  153.7430 C   0  0  0  0  0  2  0  0  0  0  0  0
  159.3180  214.0290  151.5850 C   0  0  0  0  0  3  0  0  0  0  0  0
  161.4160  210.1050  151.4630 C   0  0  0  0  0  0  0  0  0  0  0  0
  160.6980  210.3220  152.6090 N   0  0  0  0  0  2  0  0  0  0  0  0
  161.9440  211.4900  149.2450 C   0  0  0  0  0  3  0  0  0  0  0  0
  161.5090  212.8740  148.7410 C   0  0  0  0  0  3  0  0  0  0  0  0
  161.2570  211.1420  150.5400 C   0  0  0  0  0  0  0  0  0  0  0  0
  160.0920  213.2540  150.7080 C   0  0  0  0  0  0  0  0  0  0  0  0
  160.4070  212.0000  151.1270 C   0  0  0  0  0  0  0  0  0  0  0  0
  160.6640  213.6910  149.4180 C   0  0  0  0  0  3  0  0  0  0  0  0
  157.2080  213.7410  154.5840 N   0  0  0  0  0  2  0  0  0  0  0  0
  157.8450  213.4630  155.8700 C   0  0  2  0  0  3  0  0  0  0  0  0
  159.1060  212.6000  155.7150 C   0  0  0  0  0  2  0  0  0  0  0  0
  158.9170  213.5030  152.8510 C   0  0  0  0  0  0  0  0  0  0  0  0
  158.9740  211.6250  154.5530 C   0  0  0  0  0  2  0  0  0  0  0  0
  159.3380  212.2390  153.2700 N   0  0  0  0  0  0  0  0  0  0  0  0
  156.8440  212.7750  156.7850 C   0  0  0  0  0  2  0  0  0  0  0  0
  155.6230  212.4620  156.0570 N   0  0  0  0  0  2  0  0  0  0  0  0
  155.4560  211.0200  156.1040 C   0  0  0  0  0  1  0  0  0  0  0  0
  162.3530  208.9560  151.2970 C   0  0  0  0  0  2  0  0  0  0  0  0
  161.3670  206.3940  148.7850 C   0  0  0  0  0  3  0  0  0  0  0  0
  162.2350  206.4710  151.5310 C   0  0  0  0  0  2  0  0  0  0  0  0
  160.7720  202.8070  149.8020 C   0  0  0  0  0  0  0  0  0  0  0  0
  160.8450  203.9730  149.0270 C   0  0  0  0  0  3  0  0  0  0  0  0
  161.2880  205.1700  149.5960 C   0  0  0  0  0  0  0  0  0  0  0  0
  161.6090  204.0430  151.7210 C   0  0  0  0  0  3  0  0  0  0  0  0
  161.6670  205.2070  150.9510 C   0  0  0  0  0  0  0  0  0  0  0  0
  161.1550  202.8500  151.1510 C   0  0  0  0  0  3  0  0  0  0  0  0
  161.6020  207.7030  150.8760 C   0  0  2  0  0  3  0  0  0  0  0  0
  161.5610  207.5790  149.3720 C   0  0  0  0  0  3  0  0  0  0  0  0
  160.2980  201.5500  149.2000 C   0  0  0  0  0  0  0  0  0  0  0  0
  159.0650  201.3170  149.0930 O   0  0  0  0  0  1  0  0  0  0  0  0
  161.2110  200.6050  148.7450 O   0  0  0  0  0  0  0  0  0  0  0  0
  1  5  1  0  0  0  0
  1 17  1  0  0  0  0
  2 12  1  0  0  0  0
  3 15  2  0  0  0  0
  4  5  1  0  0  0  0
  6  8  1  0  0  0  0
  7  6  2  0  0  0  0
  7 11  1  0  0  0  0
  8 10  1  0  0  0  0
  8  4  2  0  0  0  0
  9 10  1  0  0  0  0
  9  3  1  0  0  0  0
 10  1  2  0  0  0  0
 11  9  2  0  0  0  0
 12 13  1  0  0  0  0
 13 18  1  1  0  0  0
 14 13  1  0  0  0  0
 15 17  1  0  0  0  0
 15  2  1  0  0  0  0
 16 14  1  0  0  0  0
 17 16  1  0  0  0  0
 19 20  1  0  0  0  0
 19 18  1  0  0  0  0
 21  4  1  0  0  0  0
 22 31  2  0  0  0  0
 22 26  1  0  0  0  0
 24 29  1  0  0  0  0
 25 26  1  0  0  0  0
 25 24  2  0  0  0  0
 26 28  2  0  0  0  0
 28 23  1  0  0  0  0
 28 27  1  0  0  0  0
 29 27  2  0  0  0  0
 30 21  1  6  0  0  0
 30 23  1  0  0  0  0
 31 30  1  0  0  0  0
 32 24  1  0  0  0  0
 33 32  1  0  0  0  0
 34 32  2  0  0  0  0
M  END
>  <MODEL>
3

>  <REMARK>
 VINA RESULT:      -8.6      5.014     10.431
  Name = 
  5 active torsions:
  status: ('A' for Active; 'I' for Inactive)
    1  A    between atoms: C_3  and  N_13
    2  A    between atoms: C_3  and  C_25
    3  A    between atoms: C_7  and  C_11
    4  A    between atoms: C_8  and  C_18
    5  A    between atoms: C_18  and  C_30
                            x       y       z     vdW  Elec       q    Type
                         _______ _______ _______ _____ _____    ______ ____

>  <TORSDO>
F 5

$$$$
=
 OpenBabel11062409423D

 34 39  0  0  1  0  0  0  0  0999 V2000
  160.0610  209.6350  153.3850 C   0  0  0  0  0  0  0  0  0  0  0  0
  158.9670  213.1120  154.3260 C   0  0  0  0  0  2  0  0  0  0  0  0
  160.1770  212.1960  152.3590 C   0  0  0  0  0  3  0  0  0  0  0  0
  161.0390  207.8420  152.7100 C   0  0  0  0  0  0  0  0  0  0  0  0
  160.2970  208.3520  153.7410 N   0  0  0  0  0  2  0  0  0  0  0  0
  162.1850  208.8240  150.5100 C   0  0  0  0  0  3  0  0  0  0  0  0
  162.2300  210.2260  149.8840 C   0  0  0  0  0  3  0  0  0  0  0  0
  161.2910  208.7990  151.7220 C   0  0  0  0  0  0  0  0  0  0  0  0
  160.7820  211.1600  151.6300 C   0  0  0  0  0  0  0  0  0  0  0  0
  160.6710  209.9100  152.1500 C   0  0  0  0  0  0  0  0  0  0  0  0
  161.5930  211.3040  150.4040 C   0  0  0  0  0  3  0  0  0  0  0  0
  157.7640  212.7780  155.0730 N   0  0  0  0  0  2  0  0  0  0  0  0
  158.1500  212.4430  156.4430 C   0  0  2  0  0  3  0  0  0  0  0  0
  159.1130  211.2480  156.4960 C   0  0  0  0  0  2  0  0  0  0  0  0
  159.5070  211.9170  153.5890 C   0  0  0  0  0  0  0  0  0  0  0  0
  158.8280  210.2530  155.3780 C   0  0  0  0  0  2  0  0  0  0  0  0
  159.4920  210.6260  154.1230 N   0  0  0  0  0  0  0  0  0  0  0  0
  156.8980  212.1490  157.2560 C   0  0  0  0  0  2  0  0  0  0  0  0
  155.7270  212.1250  156.3930 N   0  0  0  0  0  2  0  0  0  0  0  0
  155.1960  210.7730  156.4310 C   0  0  0  0  0  1  0  0  0  0  0  0
  161.6120  206.4650  152.7250 C   0  0  0  0  0  2  0  0  0  0  0  0
  161.6480  205.5260  149.1250 C   0  0  0  0  0  3  0  0  0  0  0  0
  161.5490  204.1970  151.6790 C   0  0  0  0  0  2  0  0  0  0  0  0
  160.9310  201.9830  148.0360 C   0  0  0  0  0  0  0  0  0  0  0  0
  161.1980  203.3570  147.9890 C   0  0  0  0  0  3  0  0  0  0  0  0
  161.3650  204.0830  149.1710 C   0  0  0  0  0  0  0  0  0  0  0  0
  161.0190  202.0600  150.4650 C   0  0  0  0  0  3  0  0  0  0  0  0
  161.2710  203.4330  150.4160 C   0  0  0  0  0  0  0  0  0  0  0  0
  160.8420  201.3390  149.2810 C   0  0  0  0  0  3  0  0  0  0  0  0
  161.1080  205.6580  151.5400 C   0  0  2  0  0  3  0  0  0  0  0  0
  161.5750  206.2630  150.2380 C   0  0  0  0  0  3  0  0  0  0  0  0
  160.7480  201.2230  146.7890 C   0  0  0  0  0  0  0  0  0  0  0  0
  161.2030  200.0540  146.6790 O   0  0  0  0  0  1  0  0  0  0  0  0
  160.0700  201.7920  145.7170 O   0  0  0  0  0  0  0  0  0  0  0  0
  1  5  1  0  0  0  0
  1 17  1  0  0  0  0
  2 12  1  0  0  0  0
  3 15  2  0  0  0  0
  4 21  1  0  0  0  0
  4  5  1  0  0  0  0
  6  8  1  0  0  0  0
  7 11  1  0  0  0  0
  7  6  2  0  0  0  0
  8 10  1  0  0  0  0
  8  4  2  0  0  0  0
  9 10  1  0  0  0  0
  9  3  1  0  0  0  0
 10  1  2  0  0  0  0
 11  9  2  0  0  0  0
 12 13  1  0  0  0  0
 13 14  1  0  0  0  0
 13 18  1  1  0  0  0
 15 17  1  0  0  0  0
 15  2  1  0  0  0  0
 16 14  1  0  0  0  0
 17 16  1  0  0  0  0
 19 20  1  0  0  0  0
 19 18  1  0  0  0  0
 22 26  1  0  0  0  0
 22 31  2  0  0  0  0
 24 29  1  0  0  0  0
 25 24  2  0  0  0  0
 25 26  1  0  0  0  0
 26 28  2  0  0  0  0
 28 27  1  0  0  0  0
 28 23  1  0  0  0  0
 29 27  2  0  0  0  0
 30 23  1  0  0  0  0
 30 21  1  1  0  0  0
 31 30  1  0  0  0  0
 32 24  1  0  0  0  0
 33 32  1  0  0  0  0
 34 32  2  0  0  0  0
M  END
>  <MODEL>
4

>  <REMARK>
 VINA RESULT:      -7.8      5.263     10.490
  Name = 
  5 active torsions:
  status: ('A' for Active; 'I' for Inactive)
    1  A    between atoms: C_3  and  N_13
    2  A    between atoms: C_3  and  C_25
    3  A    between atoms: C_7  and  C_11
    4  A    between atoms: C_8  and  C_18
    5  A    between atoms: C_18  and  C_30
                            x       y       z     vdW  Elec       q    Type
                         _______ _______ _______ _____ _____    ______ ____

>  <TORSDO>
F 5

$$$$
=
 OpenBabel11062409423D

 34 39  0  0  1  0  0  0  0  0999 V2000
  161.2820  207.6910  150.8180 C   0  0  0  0  0  0  0  0  0  0  0  0
  161.2060  204.4090  148.9720 C   0  0  0  0  0  2  0  0  0  0  0  0
  160.9840  205.0030  151.3750 C   0  0  0  0  0  3  0  0  0  0  0  0
  161.5480  209.3480  152.1620 C   0  0  0  0  0  0  0  0  0  0  0  0
  161.5800  209.0090  150.8350 N   0  0  0  0  0  0  0  0  0  0  0  0
  161.2870  208.0300  154.4670 C   0  0  0  0  0  3  0  0  0  0  0  0
  161.0710  206.5500  154.8130 C   0  0  0  0  0  3  0  0  0  0  0  0
  161.2570  208.2500  152.9770 C   0  0  0  0  0  0  0  0  0  0  0  0
  160.9740  205.9080  152.4470 C   0  0  0  0  0  0  0  0  0  0  0  0
  161.0860  207.2240  152.1270 C   0  0  2  0  0  3  0  0  0  0  0  0
  160.9370  205.5710  153.8850 C   0  0  0  0  0  3  0  0  0  0  0  0
  160.6330  204.8680  147.7160 N   0  0  0  0  0  2  0  0  0  0  0  0
  161.7110  205.4010  146.8840 C   0  0  2  0  0  3  0  0  0  0  0  0
  162.4320  206.5780  147.5590 C   0  0  0  0  0  2  0  0  0  0  0  0
  161.1270  205.4730  150.0340 C   0  0  0  0  0  0  0  0  0  0  0  0
  161.4780  207.3960  148.4190 C   0  0  0  0  0  2  0  0  0  0  0  0
  161.3230  206.8300  149.7650 N   0  0  0  0  0  0  0  0  0  0  0  0
  161.1400  205.8310  145.5420 C   0  0  0  0  0  2  0  0  0  0  0  0
  161.4880  204.8650  144.5100 N   0  0  0  0  0  2  0  0  0  0  0  0
  161.0520  203.5620  144.9810 C   0  0  0  0  0  1  0  0  0  0  0  0
  161.9170  210.7040  152.6620 C   0  0  0  0  0  2  0  0  0  0  0  0
  158.2410  211.2000  152.9600 C   0  0  0  0  0  3  0  0  0  0  0  0
  160.5340  211.1210  154.7020 C   0  0  0  0  0  2  0  0  0  0  0  0
  156.7000  212.3970  156.1930 C   0  0  0  0  0  0  0  0  0  0  0  0
  156.8410  212.0000  154.8570 C   0  0  0  0  0  3  0  0  0  0  0  0
  158.0910  211.6190  154.3630 C   0  0  0  0  0  0  0  0  0  0  0  0
  159.0740  212.0070  156.5470 C   0  0  0  0  0  3  0  0  0  0  0  0
  159.2140  211.6260  155.2110 C   0  0  0  0  0  0  0  0  0  0  0  0
  157.8240  212.3990  157.0340 C   0  0  0  0  0  3  0  0  0  0  0  0
  160.6960  211.4270  153.2100 C   0  0  2  0  0  3  0  0  0  0  0  0
  159.4580  211.0630  152.4260 C   0  0  0  0  0  3  0  0  0  0  0  0
  155.3830  212.8060  156.7070 C   0  0  0  0  0  0  0  0  0  0  0  0
  154.6230  211.9660  157.2590 O   0  0  0  0  0  1  0  0  0  0  0  0
  154.9640  214.1260  156.5870 O   0  0  0  0  0  0  0  0  0  0  0  0
  1  5  2  0  0  0  0
  2 15  1  0  0  0  0
  3  9  1  0  0  0  0
  4 21  1  0  0  0  0
  4  8  2  0  0  0  0
  5  4  1  0  0  0  0
  6  7  2  0  0  0  0
  8  6  1  0  0  0  0
  9 11  2  0  0  0  0
 10  1  1  6  0  0  0
 10  9  1  0  0  0  0
 10  8  1  0  0  0  0
 11  7  1  0  0  0  0
 12  2  1  0  0  0  0
 13 18  1  6  0  0  0
 13 14  1  0  0  0  0
 13 12  1  0  0  0  0
 14 16  1  0  0  0  0
 15  3  2  0  0  0  0
 16 17  1  0  0  0  0
 17 15  1  0  0  0  0
 17  1  1  0  0  0  0
 19 20  1  0  0  0  0
 19 18  1  0  0  0  0
 22 26  1  0  0  0  0
 23 28  1  0  0  0  0
 24 32  1  0  0  0  0
 24 29  1  0  0  0  0
 25 24  2  0  0  0  0
 26 25  1  0  0  0  0
 26 28  2  0  0  0  0
 27 29  2  0  0  0  0
 28 27  1  0  0  0  0
 30 21  1  6  0  0  0
 30 23  1  0  0  0  0
 31 22  2  0  0  0  0
 31 30  1  0  0  0  0
 32 33  1  0  0  0  0
 34 32  2  0  0  0  0
M  END
>  <MODEL>
5

>  <REMARK>
 VINA RESULT:      -7.7      1.545      3.062
  Name = 
  5 active torsions:
  status: ('A' for Active; 'I' for Inactive)
    1  A    between atoms: C_3  and  N_13
    2  A    between atoms: C_3  and  C_25
    3  A    between atoms: C_7  and  C_11
    4  A    between atoms: C_8  and  C_18
    5  A    between atoms: C_18  and  C_30
                            x       y       z     vdW  Elec       q    Type
                         _______ _______ _______ _____ _____    ______ ____

>  <TORSDO>
F 5

$$$$
=
 OpenBabel11062409423D

 34 39  0  0  1  0  0  0  0  0999 V2000
  161.2150  208.7030  152.3370 C   0  0  0  0  0  0  0  0  0  0  0  0
  159.6140  209.4020  155.6720 C   0  0  0  0  0  2  0  0  0  0  0  0
  160.4650  207.3240  154.6090 C   0  0  0  0  0  3  0  0  0  0  0  0
  161.8900  207.9520  150.4390 C   0  0  0  0  0  0  0  0  0  0  0  0
  161.4970  209.0980  151.0760 N   0  0  0  0  0  0  0  0  0  0  0  0
  161.9710  205.3560  151.0480 C   0  0  0  0  0  2  0  0  0  0  0  0
  161.6100  204.5610  152.3110 C   0  0  0  0  0  3  0  0  0  0  0  0
  161.8350  206.8380  151.2810 C   0  0  0  0  0  0  0  0  0  0  0  0
  161.0300  206.5990  153.5490 C   0  0  0  0  0  0  0  0  0  0  0  0
  161.4200  207.3190  152.4640 C   0  0  0  0  0  0  0  0  0  0  0  0
  161.1680  205.1310  153.4600 C   0  0  0  0  0  3  0  0  0  0  0  0
  160.1030  210.7560  155.8800 N   0  0  0  0  0  2  0  0  0  0  0  0
  159.2170  211.6800  155.1720 C   0  0  2  0  0  3  0  0  0  0  0  0
  159.1740  211.3960  153.6640 C   0  0  0  0  0  2  0  0  0  0  0  0
  160.3040  208.7390  154.5110 C   0  0  0  0  0  0  0  0  0  0  0  0
  160.5110  210.8730  153.1570 C   0  0  0  0  0  2  0  0  0  0  0  0
  160.6440  209.4220  153.3410 N   0  0  0  0  0  0  0  0  0  0  0  0
  159.6780  213.1070  155.4280 C   0  0  0  0  0  2  0  0  0  0  0  0
  158.5950  214.0430  155.1710 N   0  0  0  0  0  2  0  0  0  0  0  0
  157.4800  213.6490  156.0160 C   0  0  0  0  0  1  0  0  0  0  0  0
  162.2070  207.9000  148.9820 C   0  0  0  0  0  2  0  0  0  0  0  0
  161.2760  205.8790  145.9990 C   0  0  0  0  0  3  0  0  0  0  0  0
  162.1470  205.4170  148.7060 C   0  0  0  0  0  2  0  0  0  0  0  0
  160.7660  202.1480  146.2660 C   0  0  0  0  0  0  0  0  0  0  0  0
  160.8110  203.4480  145.7440 C   0  0  0  0  0  3  0  0  0  0  0  0
  161.2260  204.5140  146.5450 C   0  0  0  0  0  0  0  0  0  0  0  0
  161.5780  202.9880  148.3980 C   0  0  0  0  0  3  0  0  0  0  0  0
  161.6080  204.2840  147.8800 C   0  0  0  0  0  0  0  0  0  0  0  0
  161.1510  201.9250  147.5970 C   0  0  0  0  0  3  0  0  0  0  0  0
  161.4840  206.7410  148.3130 C   0  0  2  0  0  3  0  0  0  0  0  0
  161.4430  206.9250  146.8150 C   0  0  0  0  0  3  0  0  0  0  0  0
  160.3200  201.0280  145.4210 C   0  0  0  0  0  0  0  0  0  0  0  0
  159.4690  201.2120  144.5110 O   0  0  0  0  0  0  0  0  0  0  0  0
  160.8360  199.7520  145.6210 O   0  0  0  0  0  1  0  0  0  0  0  0
  1 10  1  0  0  0  0
  1 17  1  0  0  0  0
  2 12  1  0  0  0  0
  4  5  1  0  0  0  0
  4  8  2  0  0  0  0
  5  1  2  0  0  0  0
  6  8  1  0  0  0  0
  6  7  1  0  0  0  0
  7 11  2  0  0  0  0
  8 10  1  0  0  0  0
  9  3  1  0  0  0  0
 10  9  2  0  0  0  0
 11  9  1  0  0  0  0
 13 18  1  6  0  0  0
 13 12  1  0  0  0  0
 14 13  1  0  0  0  0
 15  3  2  0  0  0  0
 15  2  1  0  0  0  0
 16 17  1  0  0  0  0
 16 14  1  0  0  0  0
 17 15  1  0  0  0  0
 19 18  1  0  0  0  0
 19 20  1  0  0  0  0
 21  4  1  0  0  0  0
 22 26  1  0  0  0  0
 22 31  2  0  0  0  0
 24 29  1  0  0  0  0
 25 24  2  0  0  0  0
 25 26  1  0  0  0  0
 26 28  2  0  0  0  0
 28 27  1  0  0  0  0
 28 23  1  0  0  0  0
 29 27  2  0  0  0  0
 30 23  1  0  0  0  0
 30 21  1  1  0  0  0
 31 30  1  0  0  0  0
 32 34  1  0  0  0  0
 32 24  1  0  0  0  0
 33 32  2  0  0  0  0
M  END
>  <MODEL>
6

>  <REMARK>
 VINA RESULT:      -7.5      4.880     10.011
  Name = 
  5 active torsions:
  status: ('A' for Active; 'I' for Inactive)
    1  A    between atoms: C_3  and  N_13
    2  A    between atoms: C_3  and  C_25
    3  A    between atoms: C_7  and  C_11
    4  A    between atoms: C_8  and  C_18
    5  A    between atoms: C_18  and  C_30
                            x       y       z     vdW  Elec       q    Type
                         _______ _______ _______ _____ _____    ______ ____

>  <TORSDO>
F 5

$$$$
=
 OpenBabel11062409423D

 34 39  0  0  1  0  0  0  0  0999 V2000
  161.6360  206.7370  150.9280 C   0  0  0  0  0  0  0  0  0  0  0  0
  161.1870  204.6690  147.8140 C   0  0  0  0  0  2  0  0  0  0  0  0
  161.6890  207.0740  148.1880 C   0  0  0  0  0  3  0  0  0  0  0  0
  161.6750  208.2120  152.4910 C   0  0  0  0  0  0  0  0  0  0  0  0
  161.4870  206.8760  152.2640 N   0  0  0  0  0  2  0  0  0  0  0  0
  162.0000  210.3830  150.9750 C   0  0  0  0  0  3  0  0  0  0  0  0
  162.0830  210.6030  149.4580 C   0  0  0  0  0  3  0  0  0  0  0  0
  161.9180  208.9170  151.3080 C   0  0  0  0  0  0  0  0  0  0  0  0
  161.8950  208.2000  149.0000 C   0  0  0  0  0  0  0  0  0  0  0  0
  161.8980  207.9850  150.3420 C   0  0  0  0  0  0  0  0  0  0  0  0
  162.0250  209.6000  148.5470 C   0  0  0  0  0  3  0  0  0  0  0  0
  161.6900  203.3980  148.3100 N   0  0  0  0  0  2  0  0  0  0  0  0
  160.6050  202.7160  149.0150 C   0  0  2  0  0  3  0  0  0  0  0  0
  160.0820  203.5380  150.2010 C   0  0  0  0  0  2  0  0  0  0  0  0
  161.4770  205.7890  148.7750 C   0  0  0  0  0  0  0  0  0  0  0  0
  161.1930  204.3550  150.8470 C   0  0  0  0  0  2  0  0  0  0  0  0
  161.4070  205.6360  150.1620 N   0  0  0  0  0  0  0  0  0  0  0  0
  161.0960  201.3560  149.4890 C   0  0  0  0  0  2  0  0  0  0  0  0
  161.5820  200.5720  148.3640 N   0  0  0  0  0  2  0  0  0  0  0  0
  160.7650  200.9220  147.2150 C   0  0  0  0  0  1  0  0  0  0  0  0
  161.5040  208.8400  153.8340 C   0  0  0  0  0  2  0  0  0  0  0  0
  158.7550  210.3690  155.8210 C   0  0  0  0  0  3  0  0  0  0  0  0
  160.1350  210.8720  153.3430 C   0  0  0  0  0  2  0  0  0  0  0  0
  156.5890  213.0960  154.3610 C   0  0  0  0  0  0  0  0  0  0  0  0
  157.0930  212.1290  155.2420 C   0  0  0  0  0  3  0  0  0  0  0  0
  158.2230  211.3840  154.8980 C   0  0  0  0  0  0  0  0  0  0  0  0
  158.3730  212.5790  152.7910 C   0  0  0  0  0  3  0  0  0  0  0  0
  158.8640  211.6060  153.6650 C   0  0  0  0  0  0  0  0  0  0  0  0
  157.2360  213.3150  153.1340 C   0  0  0  0  0  3  0  0  0  0  0  0
  160.1270  209.4710  153.9630 C   0  0  2  0  0  3  0  0  0  0  0  0
  159.6810  209.5000  155.4050 C   0  0  0  0  0  3  0  0  0  0  0  0
  155.3940  213.8740  154.7240 C   0  0  0  0  0  0  0  0  0  0  0  0
  155.2130  214.2520  155.9120 O   0  0  0  0  0  1  0  0  0  0  0  0
  154.4500  214.1980  153.7560 O   0  0  0  0  0  0  0  0  0  0  0  0
  1  5  1  0  0  0  0
  2 12  1  0  0  0  0
  2 15  1  0  0  0  0
  3 15  2  0  0  0  0
  3  9  1  0  0  0  0
  4 21  1  0  0  0  0
  5  4  1  0  0  0  0
  6  8  1  0  0  0  0
  7  6  2  0  0  0  0
  8  4  2  0  0  0  0
  9 10  1  0  0  0  0
 10  1  2  0  0  0  0
 10  8  1  0  0  0  0
 11  9  2  0  0  0  0
 11  7  1  0  0  0  0
 12 13  1  0  0  0  0
 13 18  1  1  0  0  0
 13 14  1  0  0  0  0
 14 16  1  0  0  0  0
 15 17  1  0  0  0  0
 17 16  1  0  0  0  0
 17  1  1  0  0  0  0
 19 18  1  0  0  0  0
 20 19  1  0  0  0  0
 23 28  1  0  0  0  0
 23 30  1  0  0  0  0
 24 32  1  0  0  0  0
 24 25  1  0  0  0  0
 26 25  2  0  0  0  0
 26 22  1  0  0  0  0
 27 29  1  0  0  0  0
 27 28  2  0  0  0  0
 28 26  1  0  0  0  0
 29 24  2  0  0  0  0
 30 21  1  1  0  0  0
 30 31  1  0  0  0  0
 31 22  2  0  0  0  0
 32 33  1  0  0  0  0
 34 32  2  0  0  0  0
M  END
>  <MODEL>
7

>  <REMARK>
 VINA RESULT:      -7.3      2.390      4.201
  Name = 
  5 active torsions:
  status: ('A' for Active; 'I' for Inactive)
    1  A    between atoms: C_3  and  N_13
    2  A    between atoms: C_3  and  C_25
    3  A    between atoms: C_7  and  C_11
    4  A    between atoms: C_8  and  C_18
    5  A    between atoms: C_18  and  C_30
                            x       y       z     vdW  Elec       q    Type
                         _______ _______ _______ _____ _____    ______ ____

>  <TORSDO>
F 5

$$$$
=
 OpenBabel11062409423D

 34 39  0  0  1  0  0  0  0  0999 V2000
  160.0630  209.2400  153.7740 C   0  0  0  0  0  0  0  0  0  0  0  0
  159.3450  212.8760  154.4370 C   0  0  0  0  0  2  0  0  0  0  0  0
  160.5590  211.6980  152.6170 C   0  0  0  0  0  3  0  0  0  0  0  0
  160.8550  207.3050  153.2730 C   0  0  0  0  0  0  0  0  0  0  0  0
  160.1160  207.9650  154.2180 N   0  0  0  0  0  2  0  0  0  0  0  0
  162.2530  208.0000  151.1090 C   0  0  0  0  0  3  0  0  0  0  0  0
  162.5100  209.3430  150.4100 C   0  0  0  0  0  3  0  0  0  0  0  0
  161.2860  208.1590  152.2540 C   0  0  0  0  0  0  0  0  0  0  0  0
  161.0770  210.5530  151.9930 C   0  0  0  0  0  0  0  0  0  0  0  0
  160.7800  209.3610  152.5730 C   0  0  0  0  0  0  0  0  0  0  0  0
  161.9770  210.5200  150.8220 C   0  0  0  0  0  3  0  0  0  0  0  0
  158.0650  212.7350  155.1130 N   0  0  0  0  0  2  0  0  0  0  0  0
  158.3170  212.4460  156.5250 C   0  0  2  0  0  3  0  0  0  0  0  0
  159.1210  211.1520  156.7130 C   0  0  0  0  0  2  0  0  0  0  0  0
  159.7810  211.5800  153.8090 C   0  0  0  0  0  0  0  0  0  0  0  0
  158.7890  210.1280  155.6350 C   0  0  0  0  0  2  0  0  0  0  0  0
  159.5740  210.3370  154.4130 N   0  0  0  0  0  0  0  0  0  0  0  0
  156.9890  212.3560  157.2610 C   0  0  0  0  0  2  0  0  0  0  0  0
  155.8830  212.3780  156.3160 N   0  0  0  0  0  2  0  0  0  0  0  0
  154.8310  213.1860  156.9090 C   0  0  0  0  0  1  0  0  0  0  0  0
  161.2530  205.8740  153.4070 C   0  0  0  0  0  2  0  0  0  0  0  0
  161.2450  203.1320  150.8910 C   0  0  0  0  0  3  0  0  0  0  0  0
  160.8210  205.9810  150.9480 C   0  0  0  0  0  2  0  0  0  0  0  0
  161.1270  203.8900  147.1940 C   0  0  0  0  0  0  0  0  0  0  0  0
  161.2170  203.1870  148.4030 C   0  0  0  0  0  3  0  0  0  0  0  0
  161.1520  203.8680  149.6210 C   0  0  0  0  0  0  0  0  0  0  0  0
  160.8840  205.9680  148.4350 C   0  0  0  0  0  3  0  0  0  0  0  0
  160.9890  205.2660  149.6380 C   0  0  0  0  0  0  0  0  0  0  0  0
  160.9610  205.2840  147.2180 C   0  0  0  0  0  3  0  0  0  0  0  0
  161.6230  205.2870  152.0540 C   0  0  2  0  0  3  0  0  0  0  0  0
  161.4190  203.7910  152.0410 C   0  0  0  0  0  3  0  0  0  0  0  0
  161.2030  203.1700  145.9130 C   0  0  0  0  0  0  0  0  0  0  0  0
  161.6750  203.7330  144.8900 O   0  0  0  0  0  0  0  0  0  0  0  0
  160.7530  201.8580  145.8210 O   0  0  0  0  0  1  0  0  0  0  0  0
  1  5  1  0  0  0  0
  1 17  1  0  0  0  0
  2 12  1  0  0  0  0
  3 15  2  0  0  0  0
  4 21  1  0  0  0  0
  4  5  1  0  0  0  0
  6  8  1  0  0  0  0
  7 11  1  0  0  0  0
  7  6  2  0  0  0  0
  8 10  1  0  0  0  0
  8  4  2  0  0  0  0
  9 10  1  0  0  0  0
  9  3  1  0  0  0  0
 10  1  2  0  0  0  0
 11  9  2  0  0  0  0
 12 13  1  0  0  0  0
 13 14  1  0  0  0  0
 13 18  1  1  0  0  0
 15 17  1  0  0  0  0
 15  2  1  0  0  0  0
 16 14  1  0  0  0  0
 17 16  1  0  0  0  0
 19 20  1  0  0  0  0
 19 18  1  0  0  0  0
 22 31  2  0  0  0  0
 23 30  1  0  0  0  0
 24 29  2  0  0  0  0
 24 25  1  0  0  0  0
 25 26  2  0  0  0  0
 26 28  1  0  0  0  0
 26 22  1  0  0  0  0
 27 28  2  0  0  0  0
 28 23  1  0  0  0  0
 29 27  1  0  0  0  0
 30 21  1  1  0  0  0
 31 30  1  0  0  0  0
 32 24  1  0  0  0  0
 33 32  2  0  0  0  0
 34 32  1  0  0  0  0
M  END
>  <MODEL>
8

>  <REMARK>
 VINA RESULT:      -7.2      5.106     10.205
  Name = 
  5 active torsions:
  status: ('A' for Active; 'I' for Inactive)
    1  A    between atoms: C_3  and  N_13
    2  A    between atoms: C_3  and  C_25
    3  A    between atoms: C_7  and  C_11
    4  A    between atoms: C_8  and  C_18
    5  A    between atoms: C_18  and  C_30
                            x       y       z     vdW  Elec       q    Type
                         _______ _______ _______ _____ _____    ______ ____

>  <TORSDO>
F 5

$$$$
=
 OpenBabel11062409423D

 34 39  0  0  1  0  0  0  0  0999 V2000
  160.7130  212.5870  147.6450 C   0  0  0  0  0  0  0  0  0  0  0  0
  158.5290  214.3580  145.1400 C   0  0  0  0  0  2  0  0  0  0  0  0
  158.6420  214.4120  147.6220 C   0  0  0  0  0  3  0  0  0  0  0  0
  161.6010  211.5420  149.3010 C   0  0  0  0  0  0  0  0  0  0  0  0
  161.5830  211.5930  147.9330 N   0  0  0  0  0  0  0  0  0  0  0  0
  160.2420  212.7110  151.2770 C   0  0  0  0  0  3  0  0  0  0  0  0
  159.1230  213.7620  151.3050 C   0  0  0  0  0  3  0  0  0  0  0  0
  160.7340  212.4780  149.8730 C   0  0  0  0  0  0  0  0  0  0  0  0
  159.1480  213.9990  148.8630 C   0  0  0  0  0  0  0  0  0  0  0  0
  160.1910  213.1280  148.8310 C   0  0  2  0  0  3  0  0  0  0  0  0
  158.6120  214.3480  150.1950 C   0  0  0  0  0  3  0  0  0  0  0  0
  159.4760  214.4530  144.0400 N   0  0  0  0  0  2  0  0  0  0  0  0
  159.4460  213.1950  143.2950 C   0  0  2  0  0  3  0  0  0  0  0  0
  159.8280  211.9950  144.1740 C   0  0  0  0  0  2  0  0  0  0  0  0
  159.2030  213.9100  146.4090 C   0  0  0  0  0  0  0  0  0  0  0  0
  160.8510  212.3840  145.2330 C   0  0  0  0  0  2  0  0  0  0  0  0
  160.2200  212.9520  146.4300 N   0  0  0  0  0  0  0  0  0  0  0  0
  160.3860  213.2990  142.1040 C   0  0  0  0  0  2  0  0  0  0  0  0
  160.5940  211.9880  141.5060 N   0  0  0  0  0  2  0  0  0  0  0  0
  161.2270  212.2030  140.2170 C   0  0  0  0  0  1  0  0  0  0  0  0
  162.3630  210.5120  150.0650 C   0  0  0  0  0  2  0  0  0  0  0  0
  162.1430  207.1560  148.4740 C   0  0  0  0  0  3  0  0  0  0  0  0
  162.0350  208.2740  151.1270 C   0  0  0  0  0  2  0  0  0  0  0  0
  161.0400  204.1370  150.4570 C   0  0  0  0  0  0  0  0  0  0  0  0
  161.4350  204.9500  149.3860 C   0  0  0  0  0  3  0  0  0  0  0  0
  161.7250  206.3000  149.5970 C   0  0  0  0  0  0  0  0  0  0  0  0
  161.2470  206.0370  151.9610 C   0  0  0  0  0  3  0  0  0  0  0  0
  161.6270  206.8480  150.8890 C   0  0  0  0  0  0  0  0  0  0  0  0
  160.9470  204.6890  151.7440 C   0  0  0  0  0  3  0  0  0  0  0  0
  161.7300  209.1400  149.9010 C   0  0  2  0  0  3  0  0  0  0  0  0
  162.1920  208.4830  148.6220 C   0  0  0  0  0  3  0  0  0  0  0  0
  160.7270  202.7170  150.2300 C   0  0  0  0  0  0  0  0  0  0  0  0
  159.7660  202.3840  149.4870 O   0  0  0  0  0  0  0  0  0  0  0  0
  161.4930  201.7270  150.8360 O   0  0  0  0  0  1  0  0  0  0  0  0
  1  5  2  0  0  0  0
  2 15  1  0  0  0  0
  3  9  1  0  0  0  0
  4  8  2  0  0  0  0
  4 21  1  0  0  0  0
  5  4  1  0  0  0  0
  6  7  2  0  0  0  0
  8  6  1  0  0  0  0
  9 11  2  0  0  0  0
 10  1  1  6  0  0  0
 10  9  1  0  0  0  0
 10  8  1  0  0  0  0
 11  7  1  0  0  0  0
 12  2  1  0  0  0  0
 13 18  1  6  0  0  0
 13 12  1  0  0  0  0
 13 14  1  0  0  0  0
 14 16  1  0  0  0  0
 15 17  1  0  0  0  0
 15  3  2  0  0  0  0
 16 17  1  0  0  0  0
 17  1  1  0  0  0  0
 19 18  1  0  0  0  0
 20 19  1  0  0  0  0
 22 31  2  0  0  0  0
 22 26  1  0  0  0  0
 24 29  1  0  0  0  0
 25 26  1  0  0  0  0
 25 24  2  0  0  0  0
 26 28  2  0  0  0  0
 28 23  1  0  0  0  0
 28 27  1  0  0  0  0
 29 27  2  0  0  0  0
 30 21  1  1  0  0  0
 30 23  1  0  0  0  0
 31 30  1  0  0  0  0
 32 24  1  0  0  0  0
 32 34  1  0  0  0  0
 33 32  2  0  0  0  0
M  END
>  <MODEL>
9

>  <REMARK>
 VINA RESULT:      -7.1      5.419      8.393
  Name = 
  5 active torsions:
  status: ('A' for Active; 'I' for Inactive)
    1  A    between atoms: C_3  and  N_13
    2  A    between atoms: C_3  and  C_25
    3  A    between atoms: C_7  and  C_11
    4  A    between atoms: C_8  and  C_18
    5  A    between atoms: C_18  and  C_30
                            x       y       z     vdW  Elec       q    Type
                         _______ _______ _______ _____ _____    ______ ____

>  <TORSDO>
F 5

$$$$
