=
 OpenBabel11052421513D

 30 35  0  0  1  0  0  0  0  0999 V2000
  161.3000  209.7910  151.2370 C   0  0  0  0  0  0  0  0  0  0  0  0
  161.9150  210.8040  148.9600 C   0  0  0  0  0  0  0  0  0  0  0  0
  159.5310  213.3870  152.5030 N   0  0  0  0  0  2  0  0  0  0  0  0
  160.6770  209.9410  152.4950 C   0  0  0  0  0  0  0  0  0  0  0  0
  162.0950  208.5430  150.9830 C   0  0  0  0  0  2  0  0  0  0  0  0
  160.4640  206.4610  153.5260 O   0  0  0  0  0  0  0  0  0  0  0  0
  161.8000  210.4510  155.1170 C   0  0  1  0  0  3  0  0  0  0  0  0
  160.8310  207.4470  152.9050 C   0  0  0  0  0  0  0  0  0  0  0  0
  160.8040  211.6110  155.1610 C   0  0  2  0  0  3  0  0  0  0  0  0
  159.2250  212.9920  153.8410 C   0  0  0  0  0  0  0  0  0  0  0  0
  161.4290  207.2770  151.5250 C   0  0  2  0  0  3  0  0  0  0  0  0
  160.5700  208.8120  153.4860 C   0  0  1  0  0  3  0  0  0  0  0  0
  161.5780  211.8280  147.9140 C   0  0  0  0  0  2  0  0  0  0  0  0
  160.3780  211.7680  156.4850 O   0  0  0  0  0  0  0  0  0  0  0  0
  162.4260  210.5330  156.4800 C   0  0  0  0  0  2  0  0  0  0  0  0
  162.7060  209.8730  148.6530 O   0  0  0  0  0  0  0  0  0  0  0  0
  160.0950  212.2140  151.9380 C   0  0  0  0  0  0  0  0  0  0  0  0
  161.1200  213.1370  148.4980 C   0  0  0  0  0  3  0  0  0  0  0  0
  161.2820  210.8750  150.3060 C   0  0  0  0  0  0  0  0  0  0  0  0
  160.1150  211.1680  152.8250 C   0  0  0  0  0  0  0  0  0  0  0  0
  158.6670  213.7680  154.6600 O   0  0  0  0  0  0  0  0  0  0  0  0
  159.6280  211.5840  154.1710 C   0  0  1  0  0  3  0  0  0  0  0  0
  161.5120  211.4670  157.2600 C   0  0  0  0  0  2  0  0  0  0  0  0
  160.2260  208.6060  155.9490 C   0  0  0  0  0  1  0  0  0  0  0  0
  160.6640  213.2460  149.7470 C   0  0  0  0  0  3  0  0  0  0  0  0
  160.6500  212.0930  150.6640 C   0  0  0  0  0  0  0  0  0  0  0  0
  161.2100  209.0370  154.8680 C   0  0  2  0  0  3  0  0  0  0  0  0
  162.3830  206.0800  151.4390 C   0  0  0  0  0  2  0  0  0  0  0  0
  160.8300  205.0440  149.7740 C   0  0  0  0  0  1  0  0  0  0  0  0
  161.6980  204.7920  150.9910 C   0  0  0  0  0  2  0  0  0  0  0  0
  1  4  1  0  0  0  0
  2 19  1  0  0  0  0
  3 10  1  0  0  0  0
  4 20  2  0  0  0  0
  5  1  1  0  0  0  0
  5 11  1  0  0  0  0
  7  9  1  0  0  0  0
  7 15  1  1  0  0  0
  8 12  1  0  0  0  0
  8  6  2  0  0  0  0
  9 14  1  1  0  0  0
 10 22  1  0  0  0  0
 10 21  2  0  0  0  0
 11 28  1  1  0  0  0
 11  8  1  0  0  0  0
 12  4  1  6  0  0  0
 12 27  1  0  0  0  0
 13 18  1  0  0  0  0
 13  2  1  0  0  0  0
 14 23  1  0  0  0  0
 15 23  1  0  0  0  0
 16  2  2  0  0  0  0
 17  3  1  0  0  0  0
 17 20  1  0  0  0  0
 18 25  2  0  0  0  0
 19 26  1  0  0  0  0
 19  1  2  0  0  0  0
 22 20  1  6  0  0  0
 22  9  1  0  0  0  0
 25 26  1  0  0  0  0
 26 17  2  0  0  0  0
 27  7  1  0  0  0  0
 27 24  1  1  0  0  0
 29 30  1  0  0  0  0
 30 28  1  0  0  0  0
M  END
>  <MODEL>
1

>  <REMARK>
 VINA RESULT:      -6.9      0.000      0.000
  Name = 
  2 active torsions:
  status: ('A' for Active; 'I' for Inactive)
    1  A    between atoms: C_9  and  C_12
    2  A    between atoms: C_9  and  C_21
                            x       y       z     vdW  Elec       q    Type
                         _______ _______ _______ _____ _____    ______ ____

>  <TORSDO>
F 2

$$$$
=
 OpenBabel11052421513D

 30 35  0  0  1  0  0  0  0  0999 V2000
  160.8180  209.1490  153.2840 C   0  0  0  0  0  0  0  0  0  0  0  0
  160.7290  207.0940  154.8200 C   0  0  0  0  0  0  0  0  0  0  0  0
  159.8500  211.7240  156.4610 N   0  0  0  0  0  2  0  0  0  0  0  0
  160.7250  210.5500  153.1380 C   0  0  0  0  0  0  0  0  0  0  0  0
  160.9430  208.3130  152.0430 C   0  0  0  0  0  2  0  0  0  0  0  0
  162.2490  210.9580  149.8620 O   0  0  0  0  0  0  0  0  0  0  0  0
  158.5730  212.2100  152.1320 C   0  0  1  0  0  3  0  0  0  0  0  0
  161.7110  210.4050  150.8100 C   0  0  0  0  0  0  0  0  0  0  0  0
  158.7290  212.9650  153.4530 C   0  0  2  0  0  3  0  0  0  0  0  0
  159.7580  212.9350  155.7080 C   0  0  0  0  0  0  0  0  0  0  0  0
  161.8830  208.9130  150.9960 C   0  0  2  0  0  3  0  0  0  0  0  0
  160.9890  211.2470  151.8290 C   0  0  1  0  0  3  0  0  0  0  0  0
  160.8800  206.5700  156.2200 C   0  0  0  0  0  2  0  0  0  0  0  0
  158.4550  214.3170  153.2160 O   0  0  0  0  0  0  0  0  0  0  0  0
  157.5140  213.0200  151.4390 C   0  0  0  0  0  2  0  0  0  0  0  0
  160.7170  206.2670  153.8700 O   0  0  0  0  0  0  0  0  0  0  0  0
  160.2360  210.7650  155.4890 C   0  0  0  0  0  0  0  0  0  0  0  0
  160.3360  207.5110  157.2600 C   0  0  0  0  0  3  0  0  0  0  0  0
  160.6490  208.5600  154.5750 C   0  0  0  0  0  0  0  0  0  0  0  0
  160.4020  211.3220  154.2470 C   0  0  0  0  0  0  0  0  0  0  0  0
  159.4690  214.0370  156.2420 O   0  0  0  0  0  0  0  0  0  0  0  0
  160.0340  212.7660  154.2420 C   0  0  1  0  0  3  0  0  0  0  0  0
  157.4330  214.3060  152.2500 C   0  0  0  0  0  2  0  0  0  0  0  0
  160.3870  213.4420  150.8060 C   0  0  0  0  0  1  0  0  0  0  0  0
  160.1380  208.8080  157.0230 C   0  0  0  0  0  3  0  0  0  0  0  0
  160.3730  209.3910  155.6910 C   0  0  0  0  0  0  0  0  0  0  0  0
  159.8400  212.0890  151.2450 C   0  0  2  0  0  3  0  0  0  0  0  0
  161.7930  208.1400  149.6760 C   0  0  0  0  0  2  0  0  0  0  0  0
  160.4230  206.3290  148.6250 C   0  0  0  0  0  1  0  0  0  0  0  0
  161.2380  206.7270  149.8400 C   0  0  0  0  0  2  0  0  0  0  0  0
  1 19  1  0  0  0  0
  2 13  1  0  0  0  0
  4  1  2  0  0  0  0
  4 20  1  0  0  0  0
  5  1  1  0  0  0  0
  6  8  2  0  0  0  0
  7 15  1  6  0  0  0
  7  9  1  0  0  0  0
  8 11  1  0  0  0  0
  9 14  1  6  0  0  0
  9 22  1  0  0  0  0
 10 21  2  0  0  0  0
 10  3  1  0  0  0  0
 11 28  1  6  0  0  0
 11  5  1  0  0  0  0
 12  8  1  6  0  0  0
 12  4  1  0  0  0  0
 13 18  1  0  0  0  0
 15 23  1  0  0  0  0
 16  2  2  0  0  0  0
 17 26  1  0  0  0  0
 17  3  1  0  0  0  0
 19  2  1  0  0  0  0
 19 26  2  0  0  0  0
 20 17  2  0  0  0  0
 22 20  1  1  0  0  0
 22 10  1  0  0  0  0
 23 14  1  0  0  0  0
 25 18  2  0  0  0  0
 26 25  1  0  0  0  0
 27 24  1  1  0  0  0
 27 12  1  0  0  0  0
 27  7  1  0  0  0  0
 28 30  1  0  0  0  0
 29 30  1  0  0  0  0
M  END
>  <MODEL>
2

>  <REMARK>
 VINA RESULT:      -6.2      1.724      5.139
  Name = 
  2 active torsions:
  status: ('A' for Active; 'I' for Inactive)
    1  A    between atoms: C_9  and  C_12
    2  A    between atoms: C_9  and  C_21
                            x       y       z     vdW  Elec       q    Type
                         _______ _______ _______ _____ _____    ______ ____

>  <TORSDO>
F 2

$$$$
=
 OpenBabel11052421513D

 30 35  0  0  1  0  0  0  0  0999 V2000
  160.2150  209.8500  153.0090 C   0  0  0  0  0  0  0  0  0  0  0  0
  158.7720  211.8510  153.7190 C   0  0  0  0  0  0  0  0  0  0  0  0
  161.5950  211.8880  149.6040 N   0  0  0  0  0  2  0  0  0  0  0  0
  161.1490  209.2960  152.1070 C   0  0  0  0  0  0  0  0  0  0  0  0
  159.6220  208.9520  154.0570 C   0  0  0  0  0  2  0  0  0  0  0  0
  162.2920  206.4350  154.0380 O   0  0  0  0  0  0  0  0  0  0  0  0
  160.7900  207.4330  149.9170 C   0  0  1  0  0  3  0  0  0  0  0  0
  161.5820  207.3660  153.6880 C   0  0  0  0  0  0  0  0  0  0  0  0
  161.5240  208.4870  149.0870 C   0  0  2  0  0  3  0  0  0  0  0  0
  162.3550  210.8220  149.0330 C   0  0  0  0  0  0  0  0  0  0  0  0
  160.6390  207.9990  154.6890 C   0  0  2  0  0  3  0  0  0  0  0  0
  161.7510  207.9290  152.3020 C   0  0  1  0  0  3  0  0  0  0  0  0
  158.5870  213.3410  153.6680 C   0  0  0  0  0  2  0  0  0  0  0  0
  162.2910  207.8250  148.1220 O   0  0  0  0  0  0  0  0  0  0  0  0
  160.5970  206.3320  148.9120 C   0  0  0  0  0  2  0  0  0  0  0  0
  158.1090  211.1940  154.5650 O   0  0  0  0  0  0  0  0  0  0  0  0
  161.1120  211.3320  150.8160 C   0  0  0  0  0  0  0  0  0  0  0  0
  158.9520  213.9330  152.3350 C   0  0  0  0  0  3  0  0  0  0  0  0
  159.7550  211.1890  152.8180 C   0  0  0  0  0  0  0  0  0  0  0  0
  161.5500  210.0470  151.0090 C   0  0  0  0  0  0  0  0  0  0  0  0
  162.9810  210.9480  147.9490 O   0  0  0  0  0  0  0  0  0  0  0  0
  162.3330  209.5550  149.8400 C   0  0  1  0  0  3  0  0  0  0  0  0
  161.5160  206.7090  147.7590 C   0  0  0  0  0  2  0  0  0  0  0  0
  162.8490  206.2230  150.8490 C   0  0  0  0  0  1  0  0  0  0  0  0
  159.7340  213.3020  151.4570 C   0  0  0  0  0  3  0  0  0  0  0  0
  160.2320  211.9400  151.7120 C   0  0  0  0  0  0  0  0  0  0  0  0
  161.5250  206.9030  151.1770 C   0  0  2  0  0  3  0  0  0  0  0  0
  159.9380  206.9650  155.5760 C   0  0  0  0  0  2  0  0  0  0  0  0
  161.3210  208.1930  157.2610 C   0  0  0  0  0  1  0  0  0  0  0  0
  160.2950  207.0960  157.0540 C   0  0  0  0  0  2  0  0  0  0  0  0
  1  5  1  0  0  0  0
  2 16  2  0  0  0  0
  3 17  1  0  0  0  0
  4  1  2  0  0  0  0
  5 11  1  0  0  0  0
  7 15  1  6  0  0  0
  7 27  1  0  0  0  0
  8  6  2  0  0  0  0
  8 11  1  0  0  0  0
  9 14  1  6  0  0  0
  9 22  1  0  0  0  0
  9  7  1  0  0  0  0
 10  3  1  0  0  0  0
 11 28  1  6  0  0  0
 12  4  1  6  0  0  0
 12  8  1  0  0  0  0
 13  2  1  0  0  0  0
 17 20  2  0  0  0  0
 17 26  1  0  0  0  0
 18 13  1  0  0  0  0
 19  1  1  0  0  0  0
 19  2  1  0  0  0  0
 20  4  1  0  0  0  0
 21 10  2  0  0  0  0
 22 10  1  6  0  0  0
 22 20  1  0  0  0  0
 23 14  1  0  0  0  0
 23 15  1  0  0  0  0
 25 26  1  0  0  0  0
 25 18  2  0  0  0  0
 26 19  2  0  0  0  0
 27 24  1  6  0  0  0
 27 12  1  0  0  0  0
 28 30  1  0  0  0  0
 30 29  1  0  0  0  0
M  END
>  <MODEL>
3

>  <REMARK>
 VINA RESULT:      -5.4      1.833      5.567
  Name = 
  2 active torsions:
  status: ('A' for Active; 'I' for Inactive)
    1  A    between atoms: C_9  and  C_12
    2  A    between atoms: C_9  and  C_21
                            x       y       z     vdW  Elec       q    Type
                         _______ _______ _______ _____ _____    ______ ____

>  <TORSDO>
F 2

$$$$
=
 OpenBabel11052421513D

 30 35  0  0  1  0  0  0  0  0999 V2000
  161.2990  207.2900  150.9670 C   0  0  0  0  0  0  0  0  0  0  0  0
  161.0430  204.9660  149.9060 C   0  0  0  0  0  0  0  0  0  0  0  0
  160.8310  205.7170  154.8350 N   0  0  0  0  0  2  0  0  0  0  0  0
  161.3700  208.0820  152.1330 C   0  0  0  0  0  0  0  0  0  0  0  0
  161.2510  207.9860  149.6380 C   0  0  0  0  0  2  0  0  0  0  0  0
  162.7490  211.1470  150.7460 O   0  0  0  0  0  0  0  0  0  0  0  0
  159.3860  209.7720  153.3980 C   0  0  1  0  0  3  0  0  0  0  0  0
  162.2010  210.0550  150.7810 C   0  0  0  0  0  0  0  0  0  0  0  0
  159.7060  208.9640  154.6570 C   0  0  2  0  0  3  0  0  0  0  0  0
  160.8470  206.9530  155.5510 C   0  0  0  0  0  0  0  0  0  0  0  0
  162.1980  209.1840  149.5440 C   0  0  2  0  0  3  0  0  0  0  0  0
  161.6450  209.5620  152.0910 C   0  0  1  0  0  3  0  0  0  0  0  0
  161.2060  203.4830  150.0870 C   0  0  0  0  0  2  0  0  0  0  0  0
  159.5870  209.8140  155.7620 O   0  0  0  0  0  0  0  0  0  0  0  0
  158.3980  210.7760  153.9220 C   0  0  0  0  0  2  0  0  0  0  0  0
  160.8770  205.4120  148.7400 O   0  0  0  0  0  0  0  0  0  0  0  0
  161.0420  206.1160  153.4900 C   0  0  0  0  0  0  0  0  0  0  0  0
  160.8400  203.0160  151.4690 C   0  0  0  0  0  3  0  0  0  0  0  0
  161.1300  205.8750  151.0820 C   0  0  0  0  0  0  0  0  0  0  0  0
  161.2060  207.4720  153.3710 C   0  0  0  0  0  0  0  0  0  0  0  0
  160.7250  207.0070  156.8030 O   0  0  0  0  0  0  0  0  0  0  0  0
  161.0180  208.1630  154.6780 C   0  0  1  0  0  3  0  0  0  0  0  0
  158.5200  210.6710  155.4360 C   0  0  0  0  0  2  0  0  0  0  0  0
  161.2610  211.5070  153.6070 C   0  0  0  0  0  1  0  0  0  0  0  0
  160.7900  203.8410  152.5170 C   0  0  0  0  0  3  0  0  0  0  0  0
  161.0210  205.2870  152.3680 C   0  0  0  0  0  0  0  0  0  0  0  0
  160.5770  210.4850  152.7060 C   0  0  2  0  0  3  0  0  0  0  0  0
  161.9410  209.9830  148.2610 C   0  0  0  0  0  2  0  0  0  0  0  0
  161.0240  212.1820  147.4980 C   0  0  0  0  0  1  0  0  0  0  0  0
  161.9560  211.4940  148.4760 C   0  0  0  0  0  2  0  0  0  0  0  0
  1 19  2  0  0  0  0
  1  4  1  0  0  0  0
  2 13  1  0  0  0  0
  2 19  1  0  0  0  0
  3 10  1  0  0  0  0
  4 20  2  0  0  0  0
  5  1  1  0  0  0  0
  6  8  2  0  0  0  0
  7 15  1  1  0  0  0
  7  9  1  0  0  0  0
  9 22  1  0  0  0  0
  9 14  1  1  0  0  0
 10 21  2  0  0  0  0
 11 28  1  6  0  0  0
 11  5  1  0  0  0  0
 11  8  1  0  0  0  0
 12  8  1  6  0  0  0
 12  4  1  0  0  0  0
 12 27  1  0  0  0  0
 13 18  1  0  0  0  0
 15 23  1  0  0  0  0
 16  2  2  0  0  0  0
 17  3  1  0  0  0  0
 18 25  2  0  0  0  0
 19 26  1  0  0  0  0
 20 17  1  0  0  0  0
 22 20  1  6  0  0  0
 22 10  1  0  0  0  0
 23 14  1  0  0  0  0
 26 25  1  0  0  0  0
 26 17  2  0  0  0  0
 27  7  1  0  0  0  0
 27 24  1  1  0  0  0
 28 30  1  0  0  0  0
 29 30  1  0  0  0  0
M  END
>  <MODEL>
4

>  <REMARK>
 VINA RESULT:      -5.1      2.435      5.582
  Name = 
  2 active torsions:
  status: ('A' for Active; 'I' for Inactive)
    1  A    between atoms: C_9  and  C_12
    2  A    between atoms: C_9  and  C_21
                            x       y       z     vdW  Elec       q    Type
                         _______ _______ _______ _____ _____    ______ ____

>  <TORSDO>
F 2

$$$$
=
 OpenBabel11052421513D

 30 35  0  0  1  0  0  0  0  0999 V2000
  160.8760  210.3580  151.5290 C   0  0  0  0  0  0  0  0  0  0  0  0
  161.8400  208.1710  150.5900 C   0  0  0  0  0  0  0  0  0  0  0  0
  160.6390  208.7420  155.4000 N   0  0  0  0  0  2  0  0  0  0  0  0
  160.4230  211.0950  152.6440 C   0  0  0  0  0  0  0  0  0  0  0  0
  160.7030  210.9580  150.1630 C   0  0  0  0  0  2  0  0  0  0  0  0
  160.4530  214.4530  151.2490 O   0  0  0  0  0  0  0  0  0  0  0  0
  157.7380  211.7020  153.5500 C   0  0  1  0  0  3  0  0  0  0  0  0
  160.4550  213.2320  151.2850 C   0  0  0  0  0  0  0  0  0  0  0  0
  158.2120  211.1260  154.8850 C   0  0  2  0  0  3  0  0  0  0  0  0
  160.0000  209.8510  156.0350 C   0  0  0  0  0  0  0  0  0  0  0  0
  161.0140  212.4550  150.1120 C   0  0  2  0  0  3  0  0  0  0  0  0
  160.0070  212.5400  152.5450 C   0  0  1  0  0  3  0  0  0  0  0  0
  162.6240  206.9230  150.8810 C   0  0  0  0  0  2  0  0  0  0  0  0
  157.5740  211.8300  155.9130 O   0  0  0  0  0  0  0  0  0  0  0  0
  156.3430  212.1480  153.8860 C   0  0  0  0  0  2  0  0  0  0  0  0
  161.6520  208.4940  149.3870 O   0  0  0  0  0  0  0  0  0  0  0  0
  160.8310  209.1940  154.0690 C   0  0  0  0  0  0  0  0  0  0  0  0
  162.3220  206.3410  152.2340 C   0  0  0  0  0  3  0  0  0  0  0  0
  161.3470  209.0210  151.7090 C   0  0  0  0  0  0  0  0  0  0  0  0
  160.3820  210.4770  153.8870 C   0  0  0  0  0  0  0  0  0  0  0  0
  159.6970  209.8430  157.2570 O   0  0  0  0  0  0  0  0  0  0  0  0
  159.7270  211.0070  155.1170 C   0  0  1  0  0  3  0  0  0  0  0  0
  156.2910  212.1090  155.4070 C   0  0  0  0  0  2  0  0  0  0  0  0
  158.5860  214.0980  153.8790 C   0  0  0  0  0  1  0  0  0  0  0  0
  161.7640  207.0520  153.2140 C   0  0  0  0  0  3  0  0  0  0  0  0
  161.3370  208.4460  153.0060 C   0  0  0  0  0  0  0  0  0  0  0  0
  158.5650  212.8780  152.9660 C   0  0  2  0  0  3  0  0  0  0  0  0
  160.6040  213.0510  148.7600 C   0  0  0  0  0  2  0  0  0  0  0  0
  162.9090  212.6850  147.8590 C   0  0  0  0  0  1  0  0  0  0  0  0
  161.4260  212.5160  147.5910 C   0  0  0  0  0  2  0  0  0  0  0  0
  1 19  2  0  0  0  0
  1  4  1  0  0  0  0
  2 13  1  0  0  0  0
  2 19  1  0  0  0  0
  3 10  1  0  0  0  0
  4 20  2  0  0  0  0
  5  1  1  0  0  0  0
  6  8  2  0  0  0  0
  7 15  1  1  0  0  0
  7  9  1  0  0  0  0
  9 22  1  0  0  0  0
  9 14  1  1  0  0  0
 10 21  2  0  0  0  0
 11 28  1  6  0  0  0
 11  5  1  0  0  0  0
 11  8  1  0  0  0  0
 12  8  1  6  0  0  0
 12  4  1  0  0  0  0
 12 27  1  0  0  0  0
 13 18  1  0  0  0  0
 15 23  1  0  0  0  0
 16  2  2  0  0  0  0
 17  3  1  0  0  0  0
 18 25  2  0  0  0  0
 19 26  1  0  0  0  0
 20 17  1  0  0  0  0
 22 20  1  6  0  0  0
 22 10  1  0  0  0  0
 23 14  1  0  0  0  0
 26 25  1  0  0  0  0
 26 17  2  0  0  0  0
 27  7  1  0  0  0  0
 27 24  1  1  0  0  0
 30 29  1  0  0  0  0
 30 28  1  0  0  0  0
M  END
>  <MODEL>
5

>  <REMARK>
 VINA RESULT:      -4.2      1.971      5.176
  Name = 
  2 active torsions:
  status: ('A' for Active; 'I' for Inactive)
    1  A    between atoms: C_9  and  C_12
    2  A    between atoms: C_9  and  C_21
                            x       y       z     vdW  Elec       q    Type
                         _______ _______ _______ _____ _____    ______ ____

>  <TORSDO>
F 2

$$$$
=
 OpenBabel11052421513D

 30 35  0  0  1  0  0  0  0  0999 V2000
  160.6070  210.1370  152.4500 C   0  0  0  0  0  0  0  0  0  0  0  0
  159.7550  212.4890  151.8730 C   0  0  0  0  0  0  0  0  0  0  0  0
  162.3140  209.6810  148.6370 N   0  0  0  0  0  2  0  0  0  0  0  0
  161.3280  208.9870  152.0620 C   0  0  0  0  0  0  0  0  0  0  0  0
  159.8500  210.0970  153.7460 C   0  0  0  0  0  2  0  0  0  0  0  0
  161.7850  207.3940  155.2980 O   0  0  0  0  0  0  0  0  0  0  0  0
  160.4120  206.4010  151.1320 C   0  0  1  0  0  3  0  0  0  0  0  0
  161.3220  208.1400  154.4480 C   0  0  0  0  0  0  0  0  0  0  0  0
  161.3540  206.6500  149.9530 C   0  0  2  0  0  3  0  0  0  0  0  0
  162.7510  208.3290  148.7800 C   0  0  0  0  0  0  0  0  0  0  0  0
  160.6170  209.4080  154.8770 C   0  0  2  0  0  3  0  0  0  0  0  0
  161.5700  207.8300  152.9960 C   0  0  1  0  0  3  0  0  0  0  0  0
  159.9550  213.7230  151.0400 C   0  0  0  0  0  2  0  0  0  0  0  0
  161.8840  205.4190  149.5520 O   0  0  0  0  0  0  0  0  0  0  0  0
  159.9010  205.0210  150.8290 C   0  0  0  0  0  2  0  0  0  0  0  0
  158.9840  212.5560  152.8670 O   0  0  0  0  0  0  0  0  0  0  0  0
  161.7580  209.9810  149.9080 C   0  0  0  0  0  0  0  0  0  0  0  0
  160.4010  213.4190  149.6360 C   0  0  0  0  0  3  0  0  0  0  0  0
  160.4970  211.2400  151.5480 C   0  0  0  0  0  0  0  0  0  0  0  0
  161.8600  208.9280  150.7800 C   0  0  0  0  0  0  0  0  0  0  0  0
  163.3410  207.7120  147.8560 O   0  0  0  0  0  0  0  0  0  0  0  0
  162.4410  207.7250  150.1190 C   0  0  1  0  0  3  0  0  0  0  0  0
  160.8350  204.5020  149.7450 C   0  0  0  0  0  2  0  0  0  0  0  0
  162.1320  205.4110  152.7530 C   0  0  0  0  0  1  0  0  0  0  0  0
  160.9570  212.2550  149.2950 C   0  0  0  0  0  3  0  0  0  0  0  0
  161.1010  211.1580  150.2670 C   0  0  0  0  0  0  0  0  0  0  0  0
  161.0410  206.4550  152.5490 C   0  0  2  0  0  3  0  0  0  0  0  0
  159.7140  209.1980  156.0980 C   0  0  0  0  0  2  0  0  0  0  0  0
  161.3050  210.8550  157.0870 C   0  0  0  0  0  1  0  0  0  0  0  0
  159.9220  210.2420  157.1910 C   0  0  0  0  0  2  0  0  0  0  0  0
  1  5  1  0  0  0  0
  2 16  2  0  0  0  0
  3 10  1  0  0  0  0
  3 17  1  0  0  0  0
  4  1  1  0  0  0  0
  5 11  1  0  0  0  0
  7 15  1  6  0  0  0
  7 27  1  0  0  0  0
  8 11  1  0  0  0  0
  8  6  2  0  0  0  0
  9 14  1  1  0  0  0
  9 22  1  0  0  0  0
  9  7  1  0  0  0  0
 11 28  1  1  0  0  0
 12  4  1  6  0  0  0
 12  8  1  0  0  0  0
 13  2  1  0  0  0  0
 14 23  1  0  0  0  0
 17 26  2  0  0  0  0
 17 20  1  0  0  0  0
 18 13  1  0  0  0  0
 19  2  1  0  0  0  0
 19  1  2  0  0  0  0
 20  4  2  0  0  0  0
 21 10  2  0  0  0  0
 22 10  1  6  0  0  0
 22 20  1  0  0  0  0
 23 15  1  0  0  0  0
 25 18  2  0  0  0  0
 25 26  1  0  0  0  0
 26 19  1  0  0  0  0
 27 24  1  6  0  0  0
 27 12  1  0  0  0  0
 28 30  1  0  0  0  0
 29 30  1  0  0  0  0
M  END
>  <MODEL>
6

>  <REMARK>
 VINA RESULT:      -4.2      1.884      5.694
  Name = 
  2 active torsions:
  status: ('A' for Active; 'I' for Inactive)
    1  A    between atoms: C_9  and  C_12
    2  A    between atoms: C_9  and  C_21
                            x       y       z     vdW  Elec       q    Type
                         _______ _______ _______ _____ _____    ______ ____

>  <TORSDO>
F 2

$$$$
