=
 OpenBabel11052422193D

 25 29  0  0  1  0  0  0  0  0999 V2000
  161.5120  206.1760  150.1460 N   0  0  0  0  0  0  0  0  0  0  0  0
  162.1890  207.4330  150.4590 C   0  0  2  0  0  3  0  0  0  0  0  0
  160.9150  206.8450  147.9360 C   0  0  0  0  0  3  0  0  0  0  0  0
  161.8020  204.8740  150.7240 C   0  0  2  0  0  3  0  0  0  0  0  0
  161.0320  209.0060  152.0110 N   0  0  2  0  0  0  0  0  0  0  0  0
  161.1810  202.2230  151.5200 C   0  0  0  0  0  2  0  0  0  0  0  0
  161.2960  208.1860  148.2810 N   0  0  0  0  0  0  0  0  0  0  0  0
  161.2390  203.9280  149.6920 C   0  0  0  0  0  0  0  0  0  0  0  0
  160.9100  202.5020  150.0290 C   0  0  0  0  0  2  0  0  0  0  0  0
  162.2120  209.8920  149.6520 N   0  0  0  0  0  0  0  0  0  0  0  0
  162.0140  210.8980  148.6180 C   0  0  0  0  0  1  0  0  0  0  0  0
  161.9080  207.8280  151.9180 C   0  0  0  0  0  2  0  0  0  0  0  0
  160.7780  203.3910  152.3940 C   0  0  0  0  0  3  0  0  0  0  0  0
  161.0310  205.8920  148.8490 C   0  0  0  0  0  0  0  0  0  0  0  0
  160.8000  204.5130  148.6230 N   0  0  0  0  0  0  0  0  0  0  0  0
  162.8320  210.3190  150.9000 C   0  0  0  0  0  2  0  0  0  0  0  0
  161.0730  204.6480  152.0200 C   0  0  0  0  0  3  0  0  0  0  0  0
  161.8460  210.2220  152.0690 C   0  0  0  0  0  2  0  0  0  0  0  0
  161.8560  208.5140  149.4180 C   0  0  0  0  0  0  0  0  0  0  0  0
  160.5180  210.0100  154.4380 S   0  0  0  0  0  0  0  0  0  0  0  0
  161.9260  210.4590  154.7160 O   0  0  0  0  0  0  0  0  0  0  0  0
  159.4860  210.4180  155.4480 O   0  0  0  0  0  0  0  0  0  0  0  0
  160.0900  209.0310  153.1530 C   0  0  2  0  0  3  0  0  0  0  0  0
  160.6890  206.9280  154.7740 C   0  0  0  0  0  2  0  0  0  0  0  0
  160.5010  208.1420  154.2670 C   0  0  0  0  0  0  0  0  0  0  0  0
  1  2  1  0  0  0  0
  1  4  1  0  0  0  0
  2 12  1  1  0  0  0
  3  7  1  0  0  0  0
  3 14  2  0  0  0  0
  4 17  1  1  0  0  0
  5 12  1  1  0  0  0
  5 18  1  0  0  0  0
  5 23  1  0  0  0  0
  6 13  1  0  0  0  0
  7 19  2  0  0  0  0
  8  9  1  0  0  0  0
  8  4  1  0  0  0  0
  9  6  1  0  0  0  0
 10 16  1  0  0  0  0
 11 10  1  0  0  0  0
 14  1  1  0  0  0  0
 15 14  1  0  0  0  0
 15  8  2  0  0  0  0
 16 18  1  0  0  0  0
 17 13  2  0  0  0  0
 19 10  1  0  0  0  0
 19  2  1  0  0  0  0
 20 21  2  0  0  0  0
 20 22  2  0  0  0  0
 23 25  1  1  0  0  0
 23 20  1  0  0  0  0
 25 20  1  0  0  0  0
 25 24  2  0  0  0  0
M  END
>  <MODEL>
1

>  <REMARK>
 VINA RESULT:      -8.0      0.000      0.000
  Name = 
  1 active torsions:
  status: ('A' for Active; 'I' for Inactive)
    1  A    between atoms: N_6  and  C_15
                            x       y       z     vdW  Elec       q    Type
                         _______ _______ _______ _____ _____    ______ ____

>  <TORSDO>
F 1

$$$$
=
 OpenBabel11052422193D

 25 29  0  0  1  0  0  0  0  0999 V2000
  161.3750  207.3230  150.2030 N   0  0  0  0  0  0  0  0  0  0  0  0
  160.8050  206.5390  149.1090 C   0  0  2  0  0  3  0  0  0  0  0  0
  162.9110  208.4900  148.8000 C   0  0  0  0  0  3  0  0  0  0  0  0
  160.7020  207.7010  151.4350 C   0  0  2  0  0  3  0  0  0  0  0  0
  161.4210  204.1260  148.9790 N   0  0  2  0  0  0  0  0  0  0  0  0
  160.5800  208.4410  154.1700 C   0  0  0  0  0  2  0  0  0  0  0  0
  162.6050  207.5550  147.7540 N   0  0  0  0  0  0  0  0  0  0  0  0
  161.5070  208.8920  151.8930 C   0  0  0  0  0  0  0  0  0  0  0  0
  161.4750  209.3620  153.3180 C   0  0  0  0  0  2  0  0  0  0  0  0
  161.4450  205.7590  146.7250 N   0  0  0  0  0  0  0  0  0  0  0  0
  162.1830  205.9280  145.4820 C   0  0  0  0  0  1  0  0  0  0  0  0
  160.5110  205.1080  149.5880 C   0  0  0  0  0  2  0  0  0  0  0  0
  160.7410  206.9850  153.7850 C   0  0  0  0  0  3  0  0  0  0  0  0
  162.3050  208.3610  149.9700 C   0  0  0  0  0  0  0  0  0  0  0  0
  162.4200  209.2660  151.0540 N   0  0  0  0  0  0  0  0  0  0  0  0
  160.4300  204.7130  146.7710 C   0  0  0  0  0  2  0  0  0  0  0  0
  160.7970  206.6330  152.4890 C   0  0  0  0  0  3  0  0  0  0  0  0
  160.8270  203.6010  147.7480 C   0  0  0  0  0  2  0  0  0  0  0  0
  161.6770  206.6360  147.8470 C   0  0  0  0  0  0  0  0  0  0  0  0
  160.8030  201.6410  149.7550 S   0  0  0  0  0  0  0  0  0  0  0  0
  159.3720  201.6920  149.2970 O   0  0  0  0  0  0  0  0  0  0  0  0
  161.2900  200.3080  150.2460 O   0  0  0  0  0  0  0  0  0  0  0  0
  161.8050  202.9760  149.8290 C   0  0  2  0  0  3  0  0  0  0  0  0
  160.7790  203.3990  152.3140 C   0  0  0  0  0  2  0  0  0  0  0  0
  161.0520  202.9190  151.1050 C   0  0  0  0  0  0  0  0  0  0  0  0
  1  4  1  0  0  0  0
  2 12  1  1  0  0  0
  2  1  1  0  0  0  0
  3 14  2  0  0  0  0
  4  8  1  0  0  0  0
  4 17  1  1  0  0  0
  5 18  1  6  0  0  0
  5 12  1  0  0  0  0
  5 23  1  0  0  0  0
  7 19  2  0  0  0  0
  7  3  1  0  0  0  0
  8  9  1  0  0  0  0
  9  6  1  0  0  0  0
 10 16  1  0  0  0  0
 10 19  1  0  0  0  0
 11 10  1  0  0  0  0
 13  6  1  0  0  0  0
 14  1  1  0  0  0  0
 14 15  1  0  0  0  0
 15  8  2  0  0  0  0
 16 18  1  0  0  0  0
 17 13  2  0  0  0  0
 19  2  1  0  0  0  0
 20 23  1  0  0  0  0
 20 22  2  0  0  0  0
 20 25  1  0  0  0  0
 21 20  2  0  0  0  0
 23 25  1  1  0  0  0
 25 24  2  0  0  0  0
M  END
>  <MODEL>
2

>  <REMARK>
 VINA RESULT:      -6.1      3.871      5.983
  Name = 
  1 active torsions:
  status: ('A' for Active; 'I' for Inactive)
    1  A    between atoms: N_6  and  C_15
                            x       y       z     vdW  Elec       q    Type
                         _______ _______ _______ _____ _____    ______ ____

>  <TORSDO>
F 1

$$$$
=
 OpenBabel11052422193D

 25 29  0  0  1  0  0  0  0  0999 V2000
  159.5480  213.3870  149.7230 N   0  0  0  0  0  0  0  0  0  0  0  0
  159.3810  213.5960  151.1600 C   0  0  2  0  0  3  0  0  0  0  0  0
  157.2770  213.9050  149.2070 C   0  0  0  0  0  3  0  0  0  0  0  0
  160.7790  213.5460  148.9660 C   0  0  2  0  0  3  0  0  0  0  0  0
  159.3320  211.5730  152.6180 N   0  0  2  0  0  0  0  0  0  0  0  0
  162.5470  213.0410  146.8060 C   0  0  0  0  0  2  0  0  0  0  0  0
  156.9830  213.8350  150.6110 N   0  0  0  0  0  0  0  0  0  0  0  0
  160.2710  213.7500  147.5600 C   0  0  0  0  0  0  0  0  0  0  0  0
  161.1530  213.5290  146.3650 C   0  0  0  0  0  2  0  0  0  0  0  0
  157.4850  213.6330  152.9220 N   0  0  0  0  0  0  0  0  0  0  0  0
  156.0920  213.8330  153.2920 C   0  0  0  0  0  1  0  0  0  0  0  0
  160.1960  212.5500  151.9380 C   0  0  0  0  0  2  0  0  0  0  0  0
  162.4630  212.0650  147.9610 C   0  0  0  0  0  3  0  0  0  0  0  0
  158.5200  213.6890  148.8020 C   0  0  0  0  0  0  0  0  0  0  0  0
  158.9810  213.8310  147.4710 N   0  0  0  0  0  0  0  0  0  0  0  0
  158.4510  213.4500  153.9980 C   0  0  0  0  0  2  0  0  0  0  0  0
  161.6270  212.3040  148.9860 C   0  0  0  0  0  3  0  0  0  0  0  0
  159.0400  212.0360  153.9770 C   0  0  0  0  0  2  0  0  0  0  0  0
  157.8930  213.6740  151.5390 C   0  0  0  0  0  0  0  0  0  0  0  0
  160.9020  209.8800  153.9700 S   0  0  0  0  0  0  0  0  0  0  0  0
  161.6870  210.9430  154.6880 O   0  0  0  0  0  0  0  0  0  0  0  0
  161.1740  208.4640  154.3900 O   0  0  0  0  0  0  0  0  0  0  0  0
  159.8520  210.1910  152.7070 C   0  0  2  0  0  3  0  0  0  0  0  0
  162.0260  210.0130  151.0790 C   0  0  0  0  0  2  0  0  0  0  0  0
  161.2090  210.0400  152.1270 C   0  0  0  0  0  0  0  0  0  0  0  0
  1  2  1  0  0  0  0
  2 19  1  0  0  0  0
  2 12  1  1  0  0  0
  3  7  1  0  0  0  0
  4 17  1  6  0  0  0
  4  1  1  0  0  0  0
  5 12  1  1  0  0  0
  5 23  1  0  0  0  0
  5 18  1  0  0  0  0
  6 13  1  0  0  0  0
  7 19  2  0  0  0  0
  8  4  1  0  0  0  0
  9  6  1  0  0  0  0
  9  8  1  0  0  0  0
 10 11  1  0  0  0  0
 10 16  1  0  0  0  0
 13 17  2  0  0  0  0
 14  3  2  0  0  0  0
 14  1  1  0  0  0  0
 15  8  2  0  0  0  0
 15 14  1  0  0  0  0
 18 16  1  0  0  0  0
 19 10  1  0  0  0  0
 20 22  2  0  0  0  0
 20 21  2  0  0  0  0
 23 25  1  6  0  0  0
 23 20  1  0  0  0  0
 24 25  2  0  0  0  0
 25 20  1  0  0  0  0
M  END
>  <MODEL>
3

>  <REMARK>
 VINA RESULT:      -5.8      4.582      7.201
  Name = 
  1 active torsions:
  status: ('A' for Active; 'I' for Inactive)
    1  A    between atoms: N_6  and  C_15
                            x       y       z     vdW  Elec       q    Type
                         _______ _______ _______ _____ _____    ______ ____

>  <TORSDO>
F 1

$$$$
=
 OpenBabel11052422193D

 25 29  0  0  1  0  0  0  0  0999 V2000
  160.5700  211.7490  151.3450 N   0  0  0  0  0  0  0  0  0  0  0  0
  161.0520  210.8910  152.4250 C   0  0  2  0  0  3  0  0  0  0  0  0
  158.7060  212.5660  152.5900 C   0  0  0  0  0  3  0  0  0  0  0  0
  161.3770  212.3490  150.2950 C   0  0  2  0  0  3  0  0  0  0  0  0
  160.7150  208.4320  152.1780 N   0  0  2  0  0  0  0  0  0  0  0  0
  161.8340  213.4470  147.7200 C   0  0  0  0  0  2  0  0  0  0  0  0
  158.9550  211.5380  153.5610 N   0  0  0  0  0  0  0  0  0  0  0  0
  160.5160  213.5040  149.8440 C   0  0  0  0  0  0  0  0  0  0  0  0
  160.7140  214.1560  148.5060 C   0  0  0  0  0  2  0  0  0  0  0  0
  160.1470  209.7480  154.5640 N   0  0  0  0  0  0  0  0  0  0  0  0
  159.2100  209.6800  155.6750 C   0  0  0  0  0  1  0  0  0  0  0  0
  161.5850  209.5710  151.8450 C   0  0  0  0  0  2  0  0  0  0  0  0
  161.7890  211.9450  147.9060 C   0  0  0  0  0  3  0  0  0  0  0  0
  159.4980  212.6510  151.5320 C   0  0  0  0  0  0  0  0  0  0  0  0
  159.4460  213.6730  150.5530 N   0  0  0  0  0  0  0  0  0  0  0  0
  161.2740  208.8230  154.5730 C   0  0  0  0  0  2  0  0  0  0  0  0
  161.5740  211.4230  149.1270 C   0  0  0  0  0  3  0  0  0  0  0  0
  161.1690  207.8130  153.4250 C   0  0  0  0  0  2  0  0  0  0  0  0
  159.9890  210.7360  153.5240 C   0  0  0  0  0  0  0  0  0  0  0  0
  161.6700  206.0890  151.3070 S   0  0  0  0  0  0  0  0  0  0  0  0
  162.9640  206.1610  152.0690 O   0  0  0  0  0  0  0  0  0  0  0  0
  161.4010  204.7990  150.5880 O   0  0  0  0  0  0  0  0  0  0  0  0
  160.6080  207.3700  151.1520 C   0  0  2  0  0  3  0  0  0  0  0  0
  162.1010  208.1300  149.0070 C   0  0  0  0  0  2  0  0  0  0  0  0
  161.6160  207.5000  150.0720 C   0  0  0  0  0  0  0  0  0  0  0  0
  1 14  1  0  0  0  0
  1  2  1  0  0  0  0
  2 12  1  6  0  0  0
  2 19  1  0  0  0  0
  3  7  1  0  0  0  0
  4 17  1  6  0  0  0
  4  1  1  0  0  0  0
  5 12  1  6  0  0  0
  5 18  1  0  0  0  0
  6 13  1  0  0  0  0
  6  9  1  0  0  0  0
  8  4  1  0  0  0  0
  8 15  2  0  0  0  0
  9  8  1  0  0  0  0
 10 16  1  0  0  0  0
 10 11  1  0  0  0  0
 13 17  2  0  0  0  0
 14  3  2  0  0  0  0
 15 14  1  0  0  0  0
 18 16  1  0  0  0  0
 19  7  2  0  0  0  0
 19 10  1  0  0  0  0
 20 21  2  0  0  0  0
 22 20  2  0  0  0  0
 23 25  1  6  0  0  0
 23 20  1  0  0  0  0
 23  5  1  0  0  0  0
 24 25  2  0  0  0  0
 25 20  1  0  0  0  0
M  END
>  <MODEL>
4

>  <REMARK>
 VINA RESULT:      -5.4      3.339      6.908
  Name = 
  1 active torsions:
  status: ('A' for Active; 'I' for Inactive)
    1  A    between atoms: N_6  and  C_15
                            x       y       z     vdW  Elec       q    Type
                         _______ _______ _______ _____ _____    ______ ____

>  <TORSDO>
F 1

$$$$
=
 OpenBabel11052422193D

 25 29  0  0  1  0  0  0  0  0999 V2000
  161.3850  204.6160  147.3780 N   0  0  0  0  0  0  0  0  0  0  0  0
  162.1260  205.6190  148.1420 C   0  0  2  0  0  3  0  0  0  0  0  0
  160.4560  206.2030  145.8600 C   0  0  0  0  0  3  0  0  0  0  0  0
  161.7400  203.2140  147.2250 C   0  0  2  0  0  3  0  0  0  0  0  0
  161.2600  206.2120  150.4040 N   0  0  2  0  0  0  0  0  0  0  0  0
  161.2060  200.4670  146.7620 C   0  0  0  0  0  2  0  0  0  0  0  0
  160.9110  207.2470  146.7340 N   0  0  0  0  0  0  0  0  0  0  0  0
  161.0030  202.8290  145.9660 C   0  0  0  0  0  0  0  0  0  0  0  0
  160.7050  201.3950  145.6370 C   0  0  0  0  0  2  0  0  0  0  0  0
  162.0650  208.1670  148.5930 N   0  0  0  0  0  0  0  0  0  0  0  0
  161.7230  209.5250  148.1970 C   0  0  0  0  0  1  0  0  0  0  0  0
  162.0890  205.2690  149.6380 C   0  0  0  0  0  2  0  0  0  0  0  0
  160.9680  201.0650  148.1320 C   0  0  0  0  0  3  0  0  0  0  0  0
  160.6980  204.9430  146.1880 C   0  0  0  0  0  0  0  0  0  0  0  0
  160.4100  203.8180  145.3780 N   0  0  0  0  0  0  0  0  0  0  0  0
  162.8840  207.9970  149.7870 C   0  0  0  0  0  2  0  0  0  0  0  0
  161.2230  202.3670  148.3540 C   0  0  0  0  0  3  0  0  0  0  0  0
  162.0940  207.3060  150.9050 C   0  0  0  0  0  2  0  0  0  0  0  0
  161.6510  207.0390  147.7940 C   0  0  0  0  0  0  0  0  0  0  0  0
  161.2060  205.8540  153.0550 S   0  0  0  0  0  0  0  0  0  0  0  0
  162.6690  206.1260  153.2740 O   0  0  0  0  0  0  0  0  0  0  0  0
  160.3760  205.6830  154.2950 O   0  0  0  0  0  0  0  0  0  0  0  0
  160.5130  205.6450  151.5490 C   0  0  2  0  0  3  0  0  0  0  0  0
  161.2060  203.0230  151.7790 C   0  0  0  0  0  2  0  0  0  0  0  0
  161.0280  204.3240  151.9840 C   0  0  0  0  0  0  0  0  0  0  0  0
  1  2  1  0  0  0  0
  2 12  1  1  0  0  0
  3 14  2  0  0  0  0
  3  7  1  0  0  0  0
  4  1  1  0  0  0  0
  4 17  1  1  0  0  0
  5 12  1  1  0  0  0
  5 18  1  0  0  0  0
  5 23  1  0  0  0  0
  6 13  1  0  0  0  0
  7 19  2  0  0  0  0
  8  4  1  0  0  0  0
  9  8  1  0  0  0  0
  9  6  1  0  0  0  0
 10 16  1  0  0  0  0
 11 10  1  0  0  0  0
 13 17  2  0  0  0  0
 14  1  1  0  0  0  0
 15  8  2  0  0  0  0
 15 14  1  0  0  0  0
 16 18  1  0  0  0  0
 19  2  1  0  0  0  0
 19 10  1  0  0  0  0
 20 21  2  0  0  0  0
 20 22  2  0  0  0  0
 23 25  1  6  0  0  0
 23 20  1  0  0  0  0
 24 25  2  0  0  0  0
 25 20  1  0  0  0  0
M  END
>  <MODEL>
5

>  <REMARK>
 VINA RESULT:      -5.4      2.610      3.684
  Name = 
  1 active torsions:
  status: ('A' for Active; 'I' for Inactive)
    1  A    between atoms: N_6  and  C_15
                            x       y       z     vdW  Elec       q    Type
                         _______ _______ _______ _____ _____    ______ ____

>  <TORSDO>
F 1

$$$$
=
 OpenBabel11052422193D

 25 29  0  0  1  0  0  0  0  0999 V2000
  161.3840  205.6770  148.9890 N   0  0  0  0  0  0  0  0  0  0  0  0
  160.7240  205.2320  147.7630 C   0  0  2  0  0  3  0  0  0  0  0  0
  162.7060  207.3280  147.8860 C   0  0  0  0  0  3  0  0  0  0  0  0
  160.8400  205.6060  150.3350 C   0  0  2  0  0  3  0  0  0  0  0  0
  161.4130  203.0280  146.8210 N   0  0  2  0  0  0  0  0  0  0  0  0
  161.0000  205.4530  153.1630 C   0  0  0  0  0  2  0  0  0  0  0  0
  162.3200  206.7430  146.6320 N   0  0  0  0  0  0  0  0  0  0  0  0
  161.6460  206.6510  151.0670 C   0  0  0  0  0  0  0  0  0  0  0  0
  161.7570  206.6540  152.5630 C   0  0  0  0  0  2  0  0  0  0  0  0
  161.1200  205.2750  145.2050 N   0  0  0  0  0  0  0  0  0  0  0  0
  161.7050  205.8730  144.0150 C   0  0  0  0  0  1  0  0  0  0  0  0
  160.5410  203.7060  147.7930 C   0  0  0  0  0  2  0  0  0  0  0  0
  161.1710  204.2030  152.3250 C   0  0  0  0  0  3  0  0  0  0  0  0
  162.2410  206.8000  149.0080 C   0  0  0  0  0  0  0  0  0  0  0  0
  162.4440  207.3310  150.3050 N   0  0  0  0  0  0  0  0  0  0  0  0
  160.1570  204.1970  145.0160 C   0  0  0  0  0  2  0  0  0  0  0  0
  161.0940  204.2740  150.9850 C   0  0  0  0  0  3  0  0  0  0  0  0
  160.7030  202.8680  145.5500 C   0  0  0  0  0  2  0  0  0  0  0  0
  161.4440  205.7760  146.5190 C   0  0  0  0  0  0  0  0  0  0  0  0
  161.2060  200.3780  146.5090 S   0  0  0  0  0  0  0  0  0  0  0  0
  159.8320  200.4050  145.8980 O   0  0  0  0  0  0  0  0  0  0  0  0
  161.8910  199.0420  146.5310 O   0  0  0  0  0  0  0  0  0  0  0  0
  161.9330  201.7020  147.2240 C   0  0  2  0  0  3  0  0  0  0  0  0
  160.6490  200.9620  149.5070 C   0  0  0  0  0  2  0  0  0  0  0  0
  161.1030  201.0410  148.2610 C   0  0  0  0  0  0  0  0  0  0  0  0
  1 14  1  0  0  0  0
  1  4  1  0  0  0  0
  2 12  1  6  0  0  0
  2  1  1  0  0  0  0
  3 14  2  0  0  0  0
  4 17  1  1  0  0  0
  4  8  1  0  0  0  0
  5 18  1  6  0  0  0
  5 23  1  0  0  0  0
  5 12  1  0  0  0  0
  7  3  1  0  0  0  0
  8  9  1  0  0  0  0
  9  6  1  0  0  0  0
 10 19  1  0  0  0  0
 11 10  1  0  0  0  0
 13  6  1  0  0  0  0
 14 15  1  0  0  0  0
 15  8  2  0  0  0  0
 16 10  1  0  0  0  0
 16 18  1  0  0  0  0
 17 13  2  0  0  0  0
 19  7  2  0  0  0  0
 19  2  1  0  0  0  0
 20 22  2  0  0  0  0
 20 23  1  0  0  0  0
 20 25  1  0  0  0  0
 21 20  2  0  0  0  0
 23 25  1  1  0  0  0
 25 24  2  0  0  0  0
M  END
>  <MODEL>
6

>  <REMARK>
 VINA RESULT:      -5.3      5.125      7.124
  Name = 
  1 active torsions:
  status: ('A' for Active; 'I' for Inactive)
    1  A    between atoms: N_6  and  C_15
                            x       y       z     vdW  Elec       q    Type
                         _______ _______ _______ _____ _____    ______ ____

>  <TORSDO>
F 1

$$$$
=
 OpenBabel11052422193D

 25 29  0  0  1  0  0  0  0  0999 V2000
  161.0120  206.4320  151.7120 N   0  0  0  0  0  0  0  0  0  0  0  0
  160.4830  207.7480  152.0670 C   0  0  2  0  0  3  0  0  0  0  0  0
  161.7690  205.9470  153.9210 C   0  0  0  0  0  3  0  0  0  0  0  0
  160.5430  205.5770  150.6340 C   0  0  2  0  0  3  0  0  0  0  0  0
  161.7640  209.7460  151.3020 N   0  0  2  0  0  0  0  0  0  0  0  0
  160.8040  203.5490  148.6680 C   0  0  0  0  0  2  0  0  0  0  0  0
  161.5430  207.3240  154.2590 N   0  0  0  0  0  0  0  0  0  0  0  0
  161.0250  204.2140  151.0670 C   0  0  0  0  0  0  0  0  0  0  0  0
  161.1640  203.0820  150.0920 C   0  0  0  0  0  2  0  0  0  0  0  0
  160.7910  209.5460  153.9020 N   0  0  0  0  0  0  0  0  0  0  0  0
  161.1500  209.9380  155.2570 C   0  0  0  0  0  1  0  0  0  0  0  0
  160.7540  208.7440  150.9280 C   0  0  0  0  0  2  0  0  0  0  0  0
  161.3140  204.9470  148.3870 C   0  0  0  0  0  3  0  0  0  0  0  0
  161.5040  205.5390  152.6890 C   0  0  0  0  0  0  0  0  0  0  0  0
  161.5720  204.1970  152.2410 N   0  0  0  0  0  0  0  0  0  0  0  0
  160.1810  210.5560  153.0460 C   0  0  0  0  0  2  0  0  0  0  0  0
  161.1900  205.9090  149.3170 C   0  0  0  0  0  3  0  0  0  0  0  0
  161.1030  210.9200  151.8780 C   0  0  0  0  0  2  0  0  0  0  0  0
  160.9840  208.1900  153.4510 C   0  0  0  0  0  0  0  0  0  0  0  0
  162.0970  211.4880  149.2990 S   0  0  0  0  0  0  0  0  0  0  0  0
  160.6450  211.8620  149.1810 O   0  0  0  0  0  0  0  0  0  0  0  0
  163.0510  212.2840  148.4560 O   0  0  0  0  0  0  0  0  0  0  0  0
  162.6580  210.2100  150.2180 C   0  0  2  0  0  3  0  0  0  0  0  0
  162.1920  208.6550  148.0330 C   0  0  0  0  0  2  0  0  0  0  0  0
  162.2880  209.6680  148.8870 C   0  0  0  0  0  0  0  0  0  0  0  0
  1  2  1  0  0  0  0
  1 14  1  0  0  0  0
  2 12  1  6  0  0  0
  2 19  1  0  0  0  0
  3  7  1  0  0  0  0
  4 17  1  6  0  0  0
  4  8  1  0  0  0  0
  4  1  1  0  0  0  0
  5 12  1  6  0  0  0
  5 18  1  0  0  0  0
  6  9  1  0  0  0  0
  8 15  2  0  0  0  0
  9  8  1  0  0  0  0
 10 11  1  0  0  0  0
 13  6  1  0  0  0  0
 13 17  2  0  0  0  0
 14  3  2  0  0  0  0
 15 14  1  0  0  0  0
 16 10  1  0  0  0  0
 18 16  1  0  0  0  0
 19 10  1  0  0  0  0
 19  7  2  0  0  0  0
 20 23  1  0  0  0  0
 21 20  2  0  0  0  0
 22 20  2  0  0  0  0
 23 25  1  6  0  0  0
 23  5  1  0  0  0  0
 24 25  2  0  0  0  0
 25 20  1  0  0  0  0
M  END
>  <MODEL>
7

>  <REMARK>
 VINA RESULT:      -5.2      2.598      4.410
  Name = 
  1 active torsions:
  status: ('A' for Active; 'I' for Inactive)
    1  A    between atoms: N_6  and  C_15
                            x       y       z     vdW  Elec       q    Type
                         _______ _______ _______ _____ _____    ______ ____

>  <TORSDO>
F 1

$$$$
