=
 OpenBabel11052421483D

 30 30  0  0  1  0  0  0  0  0999 V2000
  161.5670  206.7860  151.1770 C   0  0  2  0  0  0  0  0  0  0  0  0
  161.3090  207.1410  148.2380 C   0  0  0  0  0  2  0  0  0  0  0  0
  160.2420  206.3590  148.9990 C   0  0  0  0  0  2  0  0  0  0  0  0
  162.3840  209.1010  151.2210 C   0  0  0  0  0  1  0  0  0  0  0  0
  162.1780  207.9940  149.1670 C   0  0  0  0  0  2  0  0  0  0  0  0
  160.8120  205.7470  150.2800 C   0  0  1  0  0  3  0  0  0  0  0  0
  161.5850  208.1150  150.5000 N   0  0  0  0  0  0  0  0  0  0  0  0
  162.9980  206.2940  151.4690 C   0  0  0  0  0  1  0  0  0  0  0  0
  160.7680  206.8470  152.5040 C   0  0  1  0  0  3  0  0  0  0  0  0
  161.1650  205.8010  153.5370 C   0  0  0  0  0  1  0  0  0  0  0  0
  160.8270  208.1720  153.1040 N   0  0  0  0  0  2  0  0  0  0  0  0
  161.1840  207.9870  154.5020 C   0  0  0  0  0  2  0  0  0  0  0  0
  160.6500  209.1400  155.3400 C   0  0  2  0  0  3  0  0  0  0  0  0
  161.6680  210.2650  155.3940 C   0  0  0  0  0  1  0  0  0  0  0  0
  160.2310  208.6980  156.7410 C   0  0  0  0  0  2  0  0  0  0  0  0
  160.0560  207.1910  156.8490 C   0  0  0  0  0  1  0  0  0  0  0  0
  161.5670  204.5770  149.9740 O   0  0  0  0  0  0  0  0  0  0  0  0
  161.0590  203.2880  150.1490 C   0  0  0  0  0  0  0  0  0  0  0  0
  161.1900  202.7090  151.3380 C   0  0  0  0  0  2  0  0  0  0  0  0
  160.4000  202.5500  149.0130 C   0  0  2  0  0  3  0  0  0  0  0  0
  159.5570  201.5550  149.5180 O   0  0  0  0  0  1  0  0  0  0  0  0
  161.4290  201.9520  148.0500 C   0  0  1  0  0  3  0  0  0  0  0  0
  161.5450  200.4510  148.2660 C   0  0  0  0  0  1  0  0  0  0  0  0
  161.0160  202.2040  146.6000 C   0  0  0  0  0  2  0  0  0  0  0  0
  161.1460  203.6700  146.1800 C   0  0  1  0  0  3  0  0  0  0  0  0
  163.6440  204.5530  146.5620 C   0  0  0  0  0  3  0  0  0  0  0  0
  162.5190  204.1530  146.3870 C   0  0  0  0  0  0  0  0  0  0  0  0
  160.6980  203.8830  144.7380 C   0  0  0  0  0  2  0  0  0  0  0  0
  160.1680  206.2790  145.2210 C   0  0  0  0  0  1  0  0  0  0  0  0
  160.8980  205.3240  144.2960 C   0  0  0  0  0  2  0  0  0  0  0  0
  1  8  1  1  0  0  0
  1  9  1  0  0  0  0
  2  3  1  0  0  0  0
  2  5  1  0  0  0  0
  3  6  1  0  0  0  0
  5  7  1  0  0  0  0
  6 17  1  6  0  0  0
  6  1  1  0  0  0  0
  7  1  1  0  0  0  0
  7  4  1  0  0  0  0
  9 11  1  0  0  0  0
  9 10  1  1  0  0  0
 11 12  1  0  0  0  0
 12 13  1  0  0  0  0
 13 14  1  1  0  0  0
 13 15  1  0  0  0  0
 15 16  1  0  0  0  0
 17 18  1  0  0  0  0
 18 19  2  0  0  0  0
 20 21  1  1  0  0  0
 20 18  1  0  0  0  0
 22 23  1  6  0  0  0
 22 20  1  0  0  0  0
 24 22  1  0  0  0  0
 25 28  1  6  0  0  0
 25 27  1  0  0  0  0
 25 24  1  0  0  0  0
 27 26  3  0  0  0  0
 30 28  1  0  0  0  0
 30 29  1  0  0  0  0
M  END
>  <MODEL>
1

>  <REMARK>
 VINA RESULT:      -7.0      0.000      0.000
  Name = 
  14 active torsions:
  status: ('A' for Active; 'I' for Inactive)
    1  A    between atoms: C_1  and  O_2
    2  A    between atoms: C_1  and  C_4
    3  A    between atoms: O_2  and  C_22
    4  A    between atoms: C_3  and  C_11
    5  A    between atoms: C_4  and  C_27
    6  A    between atoms: C_6  and  C_8
    7  A    between atoms: C_6  and  C_21
    8  A    between atoms: C_7  and  C_10
    9  A    between atoms: C_7  and  C_15
   10  A    between atoms: C_8  and  C_12
   11  A    between atoms: C_8  and  C_13
   12  A    between atoms: C_10  and  N_25
   13  A    between atoms: C_11  and  N_25
   14  A    between atoms: C_13  and  C_27
                            x       y       z     vdW  Elec       q    Type
                         _______ _______ _______ _____ _____    ______ ____

>  <TORSDO>
F 14

$$$$
=
 OpenBabel11052421483D

 30 30  0  0  1  0  0  0  0  0999 V2000
  161.5300  206.9960  151.3330 C   0  0  2  0  0  0  0  0  0  0  0  0
  161.2760  206.8840  148.3750 C   0  0  0  0  0  2  0  0  0  0  0  0
  160.2080  206.2310  149.2480 C   0  0  0  0  0  2  0  0  0  0  0  0
  162.3480  209.2890  151.0130 C   0  0  0  0  0  1  0  0  0  0  0  0
  162.1440  207.8720  149.1580 C   0  0  0  0  0  2  0  0  0  0  0  0
  160.7770  205.8290  150.6100 C   0  0  1  0  0  3  0  0  0  0  0  0
  161.5500  208.2020  150.4550 N   0  0  0  0  0  0  0  0  0  0  0  0
  162.9620  206.5560  151.7010 C   0  0  0  0  0  1  0  0  0  0  0  0
  160.7310  207.2650  152.6330 C   0  0  1  0  0  3  0  0  0  0  0  0
  161.1260  206.3940  153.8180 C   0  0  0  0  0  1  0  0  0  0  0  0
  160.7900  208.6680  153.0170 N   0  0  0  0  0  2  0  0  0  0  0  0
  160.8010  208.7070  154.4720 C   0  0  0  0  0  2  0  0  0  0  0  0
  160.6810  210.1430  154.9610 C   0  0  2  0  0  3  0  0  0  0  0  0
  161.9970  210.6050  155.5620 C   0  0  0  0  0  1  0  0  0  0  0  0
  159.5240  210.3290  155.9430 C   0  0  0  0  0  2  0  0  0  0  0  0
  158.3170  210.9940  155.3010 C   0  0  0  0  0  1  0  0  0  0  0  0
  161.5320  204.6250  150.4920 O   0  0  0  0  0  0  0  0  0  0  0  0
  161.0310  203.3820  150.8860 C   0  0  0  0  0  0  0  0  0  0  0  0
  161.0980  203.0460  152.1690 C   0  0  0  0  0  2  0  0  0  0  0  0
  160.4490  202.4240  149.8780 C   0  0  2  0  0  3  0  0  0  0  0  0
  160.2210  201.1830  150.4800 O   0  0  0  0  0  1  0  0  0  0  0  0
  161.3490  202.2740  148.6490 C   0  0  1  0  0  3  0  0  0  0  0  0
  161.3570  200.8310  148.1720 C   0  0  0  0  0  1  0  0  0  0  0  0
  160.8500  203.1610  147.5090 C   0  0  0  0  0  2  0  0  0  0  0  0
  161.4560  202.7980  146.1510 C   0  0  1  0  0  3  0  0  0  0  0  0
  159.7380  201.3420  144.7030 C   0  0  0  0  0  3  0  0  0  0  0  0
  160.5110  202.0010  145.3530 C   0  0  0  0  0  0  0  0  0  0  0  0
  161.9110  204.0380  145.3890 C   0  0  0  0  0  2  0  0  0  0  0  0
  160.3620  205.9850  145.1330 C   0  0  0  0  0  1  0  0  0  0  0  0
  160.7790  204.6400  144.5710 C   0  0  0  0  0  2  0  0  0  0  0  0
  1  8  1  1  0  0  0
  1  9  1  0  0  0  0
  2  5  1  0  0  0  0
  2  3  1  0  0  0  0
  3  6  1  0  0  0  0
  5  7  1  0  0  0  0
  6 17  1  6  0  0  0
  6  1  1  0  0  0  0
  7  4  1  0  0  0  0
  7  1  1  0  0  0  0
  9 11  1  0  0  0  0
  9 10  1  1  0  0  0
 11 12  1  0  0  0  0
 12 13  1  0  0  0  0
 13 14  1  1  0  0  0
 13 15  1  0  0  0  0
 16 15  1  0  0  0  0
 17 18  1  0  0  0  0
 18 19  2  0  0  0  0
 20 21  1  1  0  0  0
 20 18  1  0  0  0  0
 22 23  1  6  0  0  0
 22 20  1  0  0  0  0
 24 22  1  0  0  0  0
 25 27  1  6  0  0  0
 25 24  1  0  0  0  0
 26 27  3  0  0  0  0
 28 25  1  0  0  0  0
 30 29  1  0  0  0  0
 30 28  1  0  0  0  0
M  END
>  <MODEL>
2

>  <REMARK>
 VINA RESULT:      -7.0      1.039      1.589
  Name = 
  14 active torsions:
  status: ('A' for Active; 'I' for Inactive)
    1  A    between atoms: C_1  and  O_2
    2  A    between atoms: C_1  and  C_4
    3  A    between atoms: O_2  and  C_22
    4  A    between atoms: C_3  and  C_11
    5  A    between atoms: C_4  and  C_27
    6  A    between atoms: C_6  and  C_8
    7  A    between atoms: C_6  and  C_21
    8  A    between atoms: C_7  and  C_10
    9  A    between atoms: C_7  and  C_15
   10  A    between atoms: C_8  and  C_12
   11  A    between atoms: C_8  and  C_13
   12  A    between atoms: C_10  and  N_25
   13  A    between atoms: C_11  and  N_25
   14  A    between atoms: C_13  and  C_27
                            x       y       z     vdW  Elec       q    Type
                         _______ _______ _______ _____ _____    ______ ____

>  <TORSDO>
F 14

$$$$
=
 OpenBabel11052421483D

 30 30  0  0  1  0  0  0  0  0999 V2000
  159.7260  211.7820  153.1140 C   0  0  2  0  0  0  0  0  0  0  0  0
  161.4080  210.3560  155.1050 C   0  0  0  0  0  2  0  0  0  0  0  0
  161.9330  210.5660  153.6870 C   0  0  0  0  0  2  0  0  0  0  0  0
  159.0790  213.2620  154.9630 C   0  0  0  0  0  1  0  0  0  0  0  0
  160.2270  211.2740  155.4300 C   0  0  0  0  0  2  0  0  0  0  0  0
  160.7840  210.7100  152.6870 C   0  0  1  0  0  3  0  0  0  0  0  0
  160.0910  212.3480  154.4450 N   0  0  0  0  0  0  0  0  0  0  0  0
  158.3180  211.1530  153.1480 C   0  0  0  0  0  1  0  0  0  0  0  0
  159.7690  212.8720  152.0120 C   0  0  1  0  0  3  0  0  0  0  0  0
  160.6390  212.5310  150.8100 C   0  0  0  0  0  1  0  0  0  0  0  0
  158.4320  213.2310  151.5610 N   0  0  0  0  0  2  0  0  0  0  0  0
  158.5860  213.8970  150.2760 C   0  0  0  0  0  2  0  0  0  0  0  0
  157.2250  214.1140  149.6300 C   0  0  2  0  0  3  0  0  0  0  0  0
  156.1480  214.2200  150.6950 C   0  0  0  0  0  1  0  0  0  0  0  0
  156.8890  213.0340  148.6030 C   0  0  0  0  0  2  0  0  0  0  0  0
  157.8920  212.9830  147.4610 C   0  0  0  0  0  1  0  0  0  0  0  0
  160.2350  209.4300  152.3800 O   0  0  0  0  0  0  0  0  0  0  0  0
  160.9750  208.4250  151.7540 C   0  0  0  0  0  0  0  0  0  0  0  0
  161.7930  208.7600  150.7630 C   0  0  0  0  0  2  0  0  0  0  0  0
  160.8360  206.9830  152.1710 C   0  0  2  0  0  3  0  0  0  0  0  0
  161.2850  206.8220  153.4850 O   0  0  0  0  0  1  0  0  0  0  0  0
  161.5830  206.0420  151.2230 C   0  0  1  0  0  3  0  0  0  0  0  0
  162.3960  205.0310  152.0140 C   0  0  0  0  0  1  0  0  0  0  0  0
  160.5970  205.2840  150.3340 C   0  0  0  0  0  2  0  0  0  0  0  0
  161.2820  204.3910  149.2960 C   0  0  1  0  0  3  0  0  0  0  0  0
  160.2660  201.9150  149.3550 C   0  0  0  0  0  3  0  0  0  0  0  0
  160.7270  203.0300  149.3300 C   0  0  0  0  0  0  0  0  0  0  0  0
  161.1930  204.9880  147.8950 C   0  0  0  0  0  2  0  0  0  0  0  0
  163.0420  204.8800  146.2160 C   0  0  0  0  0  1  0  0  0  0  0  0
  161.9050  204.1200  146.8700 C   0  0  0  0  0  2  0  0  0  0  0  0
  1  8  1  1  0  0  0
  1  7  1  0  0  0  0
  2  5  1  0  0  0  0
  3  2  1  0  0  0  0
  6 17  1  1  0  0  0
  6  1  1  0  0  0  0
  6  3  1  0  0  0  0
  7  4  1  0  0  0  0
  7  5  1  0  0  0  0
  9 10  1  6  0  0  0
  9  1  1  0  0  0  0
 11  9  1  0  0  0  0
 12 11  1  0  0  0  0
 13 12  1  0  0  0  0
 13 14  1  1  0  0  0
 15 13  1  0  0  0  0
 16 15  1  0  0  0  0
 18 20  1  0  0  0  0
 18 17  1  0  0  0  0
 19 18  2  0  0  0  0
 20 21  1  1  0  0  0
 22 23  1  1  0  0  0
 22 20  1  0  0  0  0
 24 22  1  0  0  0  0
 25 28  1  6  0  0  0
 25 27  1  0  0  0  0
 25 24  1  0  0  0  0
 27 26  3  0  0  0  0
 29 30  1  0  0  0  0
 30 28  1  0  0  0  0
M  END
>  <MODEL>
3

>  <REMARK>
 VINA RESULT:      -6.3      3.938      6.396
  Name = 
  14 active torsions:
  status: ('A' for Active; 'I' for Inactive)
    1  A    between atoms: C_1  and  O_2
    2  A    between atoms: C_1  and  C_4
    3  A    between atoms: O_2  and  C_22
    4  A    between atoms: C_3  and  C_11
    5  A    between atoms: C_4  and  C_27
    6  A    between atoms: C_6  and  C_8
    7  A    between atoms: C_6  and  C_21
    8  A    between atoms: C_7  and  C_10
    9  A    between atoms: C_7  and  C_15
   10  A    between atoms: C_8  and  C_12
   11  A    between atoms: C_8  and  C_13
   12  A    between atoms: C_10  and  N_25
   13  A    between atoms: C_11  and  N_25
   14  A    between atoms: C_13  and  C_27
                            x       y       z     vdW  Elec       q    Type
                         _______ _______ _______ _____ _____    ______ ____

>  <TORSDO>
F 14

$$$$
=
 OpenBabel11052421483D

 30 30  0  0  1  0  0  0  0  0999 V2000
  161.2280  206.2760  149.7710 C   0  0  2  0  0  0  0  0  0  0  0  0
  162.3310  209.0310  149.6260 C   0  0  0  0  0  2  0  0  0  0  0  0
  162.7060  208.1300  150.7990 C   0  0  0  0  0  2  0  0  0  0  0  0
  161.5610  206.1900  147.3390 C   0  0  0  0  0  1  0  0  0  0  0  0
  161.7420  208.2440  148.4520 C   0  0  0  0  0  2  0  0  0  0  0  0
  161.6270  207.0780  151.0560 C   0  0  1  0  0  3  0  0  0  0  0  0
  161.9780  206.8060  148.5950 N   0  0  0  0  0  0  0  0  0  0  0  0
  159.7060  206.3640  149.5420 C   0  0  0  0  0  1  0  0  0  0  0  0
  161.6150  204.8030  150.0620 C   0  0  1  0  0  3  0  0  0  0  0  0
  161.9030  204.4950  151.5250 C   0  0  0  0  0  1  0  0  0  0  0  0
  160.6120  203.8770  149.5560 N   0  0  0  0  0  2  0  0  0  0  0  0
  161.2580  203.0780  148.5260 C   0  0  0  0  0  2  0  0  0  0  0  0
  160.6220  201.6970  148.4540 C   0  0  2  0  0  3  0  0  0  0  0  0
  160.8310  200.9530  149.7610 C   0  0  0  0  0  1  0  0  0  0  0  0
  161.1270  200.8840  147.2630 C   0  0  0  0  0  2  0  0  0  0  0  0
  160.5080  201.3300  145.9470 C   0  0  0  0  0  1  0  0  0  0  0  0
  160.5260  207.6600  151.7510 O   0  0  0  0  0  0  0  0  0  0  0  0
  160.6130  208.0760  153.0810 C   0  0  0  0  0  0  0  0  0  0  0  0
  160.8660  207.1690  154.0170 C   0  0  0  0  0  2  0  0  0  0  0  0
  160.3970  209.5190  153.4600 C   0  0  2  0  0  3  0  0  0  0  0  0
  161.1890  210.3440  152.6560 O   0  0  0  0  0  1  0  0  0  0  0  0
  160.6850  209.7680  154.9420 C   0  0  1  0  0  3  0  0  0  0  0  0
  161.8810  210.6930  155.1000 C   0  0  0  0  0  1  0  0  0  0  0  0
  159.4780  210.4130  155.6220 C   0  0  0  0  0  2  0  0  0  0  0  0
  158.5990  211.2150  154.6590 C   0  0  1  0  0  3  0  0  0  0  0  0
  156.0120  210.9730  155.3010 C   0  0  0  0  0  3  0  0  0  0  0  0
  157.1780  211.0780  155.0110 C   0  0  0  0  0  0  0  0  0  0  0  0
  159.0150  212.6810  154.6060 C   0  0  0  0  0  2  0  0  0  0  0  0
  158.6520  212.6780  152.1320 C   0  0  0  0  0  1  0  0  0  0  0  0
  158.3720  213.4040  153.4330 C   0  0  0  0  0  2  0  0  0  0  0  0
  1  8  1  6  0  0  0
  1  9  1  0  0  0  0
  1  6  1  0  0  0  0
  2  3  1  0  0  0  0
  3  6  1  0  0  0  0
  4  7  1  0  0  0  0
  5  7  1  0  0  0  0
  5  2  1  0  0  0  0
  6 17  1  6  0  0  0
  7  1  1  0  0  0  0
  9 10  1  1  0  0  0
 11  9  1  0  0  0  0
 12 11  1  0  0  0  0
 13 12  1  0  0  0  0
 13 14  1  1  0  0  0
 15 13  1  0  0  0  0
 16 15  1  0  0  0  0
 17 18  1  0  0  0  0
 18 20  1  0  0  0  0
 18 19  2  0  0  0  0
 20 21  1  6  0  0  0
 20 22  1  0  0  0  0
 22 23  1  6  0  0  0
 22 24  1  0  0  0  0
 25 28  1  1  0  0  0
 25 27  1  0  0  0  0
 25 24  1  0  0  0  0
 27 26  3  0  0  0  0
 29 30  1  0  0  0  0
 30 28  1  0  0  0  0
M  END
>  <MODEL>
4

>  <REMARK>
 VINA RESULT:      -5.5      2.728      8.628
  Name = 
  14 active torsions:
  status: ('A' for Active; 'I' for Inactive)
    1  A    between atoms: C_1  and  O_2
    2  A    between atoms: C_1  and  C_4
    3  A    between atoms: O_2  and  C_22
    4  A    between atoms: C_3  and  C_11
    5  A    between atoms: C_4  and  C_27
    6  A    between atoms: C_6  and  C_8
    7  A    between atoms: C_6  and  C_21
    8  A    between atoms: C_7  and  C_10
    9  A    between atoms: C_7  and  C_15
   10  A    between atoms: C_8  and  C_12
   11  A    between atoms: C_8  and  C_13
   12  A    between atoms: C_10  and  N_25
   13  A    between atoms: C_11  and  N_25
   14  A    between atoms: C_13  and  C_27
                            x       y       z     vdW  Elec       q    Type
                         _______ _______ _______ _____ _____    ______ ____

>  <TORSDO>
F 14

$$$$
=
 OpenBabel11052421483D

 30 30  0  0  1  0  0  0  0  0999 V2000
  159.9330  211.5400  153.9410 C   0  0  2  0  0  0  0  0  0  0  0  0
  161.6720  210.1560  155.9130 C   0  0  0  0  0  2  0  0  0  0  0  0
  162.1460  210.3140  154.4710 C   0  0  0  0  0  2  0  0  0  0  0  0
  159.3740  213.0870  155.7650 C   0  0  0  0  0  1  0  0  0  0  0  0
  160.5150  211.1000  156.2530 C   0  0  0  0  0  2  0  0  0  0  0  0
  160.9620  210.4420  153.5110 C   0  0  1  0  0  3  0  0  0  0  0  0
  160.3560  212.1440  155.2390 N   0  0  0  0  0  0  0  0  0  0  0  0
  158.5200  210.9320  154.0480 C   0  0  0  0  0  1  0  0  0  0  0  0
  159.9490  212.5940  152.8040 C   0  0  1  0  0  3  0  0  0  0  0  0
  160.4060  212.0670  151.4510 C   0  0  0  0  0  1  0  0  0  0  0  0
  158.6550  213.2470  152.6620 N   0  0  0  0  0  2  0  0  0  0  0  0
  158.4890  213.5510  151.2490 C   0  0  0  0  0  2  0  0  0  0  0  0
  157.2820  214.4530  151.0420 C   0  0  2  0  0  3  0  0  0  0  0  0
  156.2130  214.1470  152.0770 C   0  0  0  0  0  1  0  0  0  0  0  0
  156.7240  214.3640  149.6220 C   0  0  0  0  0  2  0  0  0  0  0  0
  156.9770  213.0090  148.9800 C   0  0  0  0  0  1  0  0  0  0  0  0
  160.3860  209.1600  153.2660 O   0  0  0  0  0  0  0  0  0  0  0  0
  161.1590  208.0200  153.0340 C   0  0  0  0  0  0  0  0  0  0  0  0
  161.2080  207.0830  153.9730 C   0  0  0  0  0  2  0  0  0  0  0  0
  161.9480  207.8620  151.7590 C   0  0  2  0  0  3  0  0  0  0  0  0
  162.3370  209.1170  151.2820 O   0  0  0  0  0  1  0  0  0  0  0  0
  161.1590  207.0970  150.6940 C   0  0  1  0  0  3  0  0  0  0  0  0
  161.2900  207.7840  149.3440 C   0  0  0  0  0  1  0  0  0  0  0  0
  161.6830  205.6670  150.5630 C   0  0  0  0  0  2  0  0  0  0  0  0
  160.8240  204.7890  149.6500 C   0  0  1  0  0  3  0  0  0  0  0  0
  161.7990  204.7590  147.1570 C   0  0  0  0  0  3  0  0  0  0  0  0
  161.3630  204.7740  148.2820 C   0  0  0  0  0  0  0  0  0  0  0  0
  160.6830  203.3740  150.2020 C   0  0  0  0  0  2  0  0  0  0  0  0
  160.9400  200.9430  149.6740 C   0  0  0  0  0  1  0  0  0  0  0  0
  160.7530  202.3320  149.0960 C   0  0  0  0  0  2  0  0  0  0  0  0
  1  8  1  1  0  0  0
  1  7  1  0  0  0  0
  2  5  1  0  0  0  0
  3  2  1  0  0  0  0
  6 17  1  1  0  0  0
  6  1  1  0  0  0  0
  6  3  1  0  0  0  0
  7  4  1  0  0  0  0
  7  5  1  0  0  0  0
  9 10  1  6  0  0  0
  9  1  1  0  0  0  0
 11  9  1  0  0  0  0
 12 11  1  0  0  0  0
 13 12  1  0  0  0  0
 13 14  1  1  0  0  0
 15 13  1  0  0  0  0
 16 15  1  0  0  0  0
 18 17  1  0  0  0  0
 18 19  2  0  0  0  0
 20 21  1  6  0  0  0
 20 18  1  0  0  0  0
 22 23  1  6  0  0  0
 22 20  1  0  0  0  0
 24 22  1  0  0  0  0
 25 27  1  6  0  0  0
 25 28  1  0  0  0  0
 25 24  1  0  0  0  0
 26 27  3  0  0  0  0
 30 29  1  0  0  0  0
 30 28  1  0  0  0  0
M  END
>  <MODEL>
5

>  <REMARK>
 VINA RESULT:      -5.5      3.858      6.576
  Name = 
  14 active torsions:
  status: ('A' for Active; 'I' for Inactive)
    1  A    between atoms: C_1  and  O_2
    2  A    between atoms: C_1  and  C_4
    3  A    between atoms: O_2  and  C_22
    4  A    between atoms: C_3  and  C_11
    5  A    between atoms: C_4  and  C_27
    6  A    between atoms: C_6  and  C_8
    7  A    between atoms: C_6  and  C_21
    8  A    between atoms: C_7  and  C_10
    9  A    between atoms: C_7  and  C_15
   10  A    between atoms: C_8  and  C_12
   11  A    between atoms: C_8  and  C_13
   12  A    between atoms: C_10  and  N_25
   13  A    between atoms: C_11  and  N_25
   14  A    between atoms: C_13  and  C_27
                            x       y       z     vdW  Elec       q    Type
                         _______ _______ _______ _____ _____    ______ ____

>  <TORSDO>
F 14

$$$$
=
 OpenBabel11052421483D

 30 30  0  0  1  0  0  0  0  0999 V2000
  159.6060  211.3490  152.9640 C   0  0  2  0  0  0  0  0  0  0  0  0
  161.8880  210.3710  154.5950 C   0  0  0  0  0  2  0  0  0  0  0  0
  161.9970  210.3760  153.0730 C   0  0  0  0  0  2  0  0  0  0  0  0
  159.3210  213.0720  154.6900 C   0  0  0  0  0  1  0  0  0  0  0  0
  160.7470  211.2580  155.1000 C   0  0  0  0  0  2  0  0  0  0  0  0
  160.6180  210.2860  152.4190 C   0  0  1  0  0  3  0  0  0  0  0  0
  160.2490  212.1470  154.0480 N   0  0  0  0  0  0  0  0  0  0  0  0
  158.3280  210.6530  153.4730 C   0  0  0  0  0  1  0  0  0  0  0  0
  159.2470  212.2440  151.7490 C   0  0  1  0  0  3  0  0  0  0  0  0
  158.1790  213.2940  152.0220 C   0  0  0  0  0  1  0  0  0  0  0  0
  160.4290  212.8830  151.1890 N   0  0  0  0  0  2  0  0  0  0  0  0
  159.9790  213.6840  150.0600 C   0  0  0  0  0  2  0  0  0  0  0  0
  160.8400  213.4010  148.8370 C   0  0  2  0  0  3  0  0  0  0  0  0
  159.9750  213.3370  147.5900 C   0  0  0  0  0  1  0  0  0  0  0  0
  161.6820  212.1370  148.9970 C   0  0  0  0  0  2  0  0  0  0  0  0
  162.9850  212.2010  148.2160 C   0  0  0  0  0  1  0  0  0  0  0  0
  160.1400  208.9430  152.4600 O   0  0  0  0  0  0  0  0  0  0  0  0
  160.9830  207.8400  152.3110 C   0  0  0  0  0  0  0  0  0  0  0  0
  161.1970  207.0560  153.3620 C   0  0  0  0  0  2  0  0  0  0  0  0
  161.6630  207.5520  150.9970 C   0  0  2  0  0  3  0  0  0  0  0  0
  161.8530  208.7430  150.2900 O   0  0  0  0  0  1  0  0  0  0  0  0
  160.8760  206.5420  150.1580 C   0  0  1  0  0  3  0  0  0  0  0  0
  160.8290  206.9850  148.7050 C   0  0  0  0  0  1  0  0  0  0  0  0
  161.5310  205.1630  150.2250 C   0  0  0  0  0  2  0  0  0  0  0  0
  160.8390  204.1210  149.3440 C   0  0  1  0  0  3  0  0  0  0  0  0
  161.9690  204.0210  146.9190 C   0  0  0  0  0  3  0  0  0  0  0  0
  161.4580  204.0690  148.0110 C   0  0  0  0  0  0  0  0  0  0  0  0
  160.8310  202.7450  150.0020 C   0  0  0  0  0  2  0  0  0  0  0  0
  161.2060  200.6610  148.6710 C   0  0  0  0  0  1  0  0  0  0  0  0
  160.1890  201.6990  149.1050 C   0  0  0  0  0  2  0  0  0  0  0  0
  1  8  1  1  0  0  0
  1  7  1  0  0  0  0
  2  5  1  0  0  0  0
  3  2  1  0  0  0  0
  6 17  1  1  0  0  0
  6  1  1  0  0  0  0
  6  3  1  0  0  0  0
  7  4  1  0  0  0  0
  7  5  1  0  0  0  0
  9 10  1  1  0  0  0
  9  1  1  0  0  0  0
 11  9  1  0  0  0  0
 12 11  1  0  0  0  0
 13 14  1  6  0  0  0
 13 15  1  0  0  0  0
 13 12  1  0  0  0  0
 16 15  1  0  0  0  0
 18 17  1  0  0  0  0
 18 19  2  0  0  0  0
 20 21  1  6  0  0  0
 20 18  1  0  0  0  0
 22 23  1  6  0  0  0
 22 24  1  0  0  0  0
 22 20  1  0  0  0  0
 25 27  1  6  0  0  0
 25 28  1  0  0  0  0
 25 24  1  0  0  0  0
 26 27  3  0  0  0  0
 29 30  1  0  0  0  0
 30 28  1  0  0  0  0
M  END
>  <MODEL>
6

>  <REMARK>
 VINA RESULT:      -5.3      3.292      6.267
  Name = 
  14 active torsions:
  status: ('A' for Active; 'I' for Inactive)
    1  A    between atoms: C_1  and  O_2
    2  A    between atoms: C_1  and  C_4
    3  A    between atoms: O_2  and  C_22
    4  A    between atoms: C_3  and  C_11
    5  A    between atoms: C_4  and  C_27
    6  A    between atoms: C_6  and  C_8
    7  A    between atoms: C_6  and  C_21
    8  A    between atoms: C_7  and  C_10
    9  A    between atoms: C_7  and  C_15
   10  A    between atoms: C_8  and  C_12
   11  A    between atoms: C_8  and  C_13
   12  A    between atoms: C_10  and  N_25
   13  A    between atoms: C_11  and  N_25
   14  A    between atoms: C_13  and  C_27
                            x       y       z     vdW  Elec       q    Type
                         _______ _______ _______ _____ _____    ______ ____

>  <TORSDO>
F 14

$$$$
=
 OpenBabel11052421483D

 30 30  0  0  1  0  0  0  0  0999 V2000
  160.9810  208.8560  154.8700 C   0  0  2  0  0  0  0  0  0  0  0  0
  162.1210  210.0070  152.3790 C   0  0  0  0  0  2  0  0  0  0  0  0
  160.8750  209.1290  152.3020 C   0  0  0  0  0  2  0  0  0  0  0  0
  161.5270  211.0080  155.9200 C   0  0  0  0  0  1  0  0  0  0  0  0
  162.3900  210.5120  153.7990 C   0  0  0  0  0  2  0  0  0  0  0  0
  160.8100  208.1560  153.4800 C   0  0  1  0  0  3  0  0  0  0  0  0
  161.2310  210.3140  154.6710 N   0  0  0  0  0  0  0  0  0  0  0  0
  162.1330  208.2000  155.6570 C   0  0  0  0  0  1  0  0  0  0  0  0
  159.6480  208.6160  155.6240 C   0  0  1  0  0  3  0  0  0  0  0  0
  159.7210  207.5820  156.7380 C   0  0  0  0  0  1  0  0  0  0  0  0
  159.0980  209.8590  156.1470 N   0  0  0  0  0  2  0  0  0  0  0  0
  157.8960  210.1440  155.3770 C   0  0  0  0  0  2  0  0  0  0  0  0
  157.9100  211.5860  154.8920 C   0  0  2  0  0  3  0  0  0  0  0  0
  156.6070  212.2760  155.2550 C   0  0  0  0  0  1  0  0  0  0  0  0
  158.2010  211.6940  153.3960 C   0  0  0  0  0  2  0  0  0  0  0  0
  159.3450  212.6490  153.0910 C   0  0  0  0  0  1  0  0  0  0  0  0
  161.6940  207.0590  153.2610 O   0  0  0  0  0  0  0  0  0  0  0  0
  161.4330  206.0570  152.3240 C   0  0  0  0  0  0  0  0  0  0  0  0
  160.7250  204.9990  152.7040 C   0  0  0  0  0  2  0  0  0  0  0  0
  161.9610  206.1530  150.9160 C   0  0  2  0  0  3  0  0  0  0  0  0
  163.0990  206.9650  150.8900 O   0  0  0  0  0  1  0  0  0  0  0  0
  160.9000  206.6740  149.9430 C   0  0  1  0  0  3  0  0  0  0  0  0
  161.5040  207.7080  149.0080 C   0  0  0  0  0  1  0  0  0  0  0  0
  160.3360  205.5290  149.1030 C   0  0  0  0  0  2  0  0  0  0  0  0
  161.3310  204.3850  148.8920 C   0  0  1  0  0  3  0  0  0  0  0  0
  160.4830  202.1570  150.1090 C   0  0  0  0  0  3  0  0  0  0  0  0
  160.8680  203.1600  149.5600 C   0  0  0  0  0  0  0  0  0  0  0  0
  161.5970  204.1380  147.4110 C   0  0  0  0  0  2  0  0  0  0  0  0
  162.2490  205.8250  145.6840 C   0  0  0  0  0  1  0  0  0  0  0  0
  162.7140  205.0270  146.8870 C   0  0  0  0  0  2  0  0  0  0  0  0
  1  9  1  0  0  0  0
  1  8  1  1  0  0  0
  2  5  1  0  0  0  0
  3  2  1  0  0  0  0
  3  6  1  0  0  0  0
  5  7  1  0  0  0  0
  6 17  1  6  0  0  0
  6  1  1  0  0  0  0
  7  1  1  0  0  0  0
  7  4  1  0  0  0  0
  9 11  1  0  0  0  0
  9 10  1  1  0  0  0
 12 11  1  0  0  0  0
 13 14  1  6  0  0  0
 13 12  1  0  0  0  0
 15 13  1  0  0  0  0
 16 15  1  0  0  0  0
 18 19  2  0  0  0  0
 18 17  1  0  0  0  0
 20 21  1  1  0  0  0
 20 18  1  0  0  0  0
 22 23  1  6  0  0  0
 22 20  1  0  0  0  0
 24 22  1  0  0  0  0
 25 28  1  6  0  0  0
 25 24  1  0  0  0  0
 25 27  1  0  0  0  0
 27 26  3  0  0  0  0
 29 30  1  0  0  0  0
 30 28  1  0  0  0  0
M  END
>  <MODEL>
7

>  <REMARK>
 VINA RESULT:      -5.3      2.316      4.548
  Name = 
  14 active torsions:
  status: ('A' for Active; 'I' for Inactive)
    1  A    between atoms: C_1  and  O_2
    2  A    between atoms: C_1  and  C_4
    3  A    between atoms: O_2  and  C_22
    4  A    between atoms: C_3  and  C_11
    5  A    between atoms: C_4  and  C_27
    6  A    between atoms: C_6  and  C_8
    7  A    between atoms: C_6  and  C_21
    8  A    between atoms: C_7  and  C_10
    9  A    between atoms: C_7  and  C_15
   10  A    between atoms: C_8  and  C_12
   11  A    between atoms: C_8  and  C_13
   12  A    between atoms: C_10  and  N_25
   13  A    between atoms: C_11  and  N_25
   14  A    between atoms: C_13  and  C_27
                            x       y       z     vdW  Elec       q    Type
                         _______ _______ _______ _____ _____    ______ ____

>  <TORSDO>
F 14

$$$$
=
 OpenBabel11052421483D

 30 30  0  0  1  0  0  0  0  0999 V2000
  158.9510  212.2510  153.3930 C   0  0  2  0  0  0  0  0  0  0  0  0
  160.5970  211.0310  155.5460 C   0  0  0  0  0  2  0  0  0  0  0  0
  161.2340  211.3420  154.1940 C   0  0  0  0  0  2  0  0  0  0  0  0
  157.9100  213.5880  155.1710 C   0  0  0  0  0  1  0  0  0  0  0  0
  159.2700  211.7690  155.7470 C   0  0  0  0  0  2  0  0  0  0  0  0
  160.1890  211.3460  153.0770 C   0  0  1  0  0  3  0  0  0  0  0  0
  159.0910  212.8350  154.7590 N   0  0  0  0  0  0  0  0  0  0  0  0
  157.6500  211.4320  153.2720 C   0  0  0  0  0  1  0  0  0  0  0  0
  158.9580  213.3590  152.3090 C   0  0  1  0  0  3  0  0  0  0  0  0
  160.0620  213.2290  151.2690 C   0  0  0  0  0  1  0  0  0  0  0  0
  157.6680  213.4630  151.6420 N   0  0  0  0  0  2  0  0  0  0  0  0
  157.9330  213.4680  150.2110 C   0  0  0  0  0  2  0  0  0  0  0  0
  156.9310  214.3600  149.4930 C   0  0  2  0  0  3  0  0  0  0  0  0
  155.5430  214.1680  150.0790 C   0  0  0  0  0  1  0  0  0  0  0  0
  156.9330  214.1400  147.9810 C   0  0  0  0  0  2  0  0  0  0  0  0
  157.4580  212.7660  147.5930 C   0  0  0  0  0  1  0  0  0  0  0  0
  159.8600  210.0090  152.7050 O   0  0  0  0  0  0  0  0  0  0  0  0
  160.8260  209.0100  152.5580 C   0  0  0  0  0  0  0  0  0  0  0  0
  160.8340  208.0010  153.4220 C   0  0  0  0  0  2  0  0  0  0  0  0
  161.8580  209.0820  151.4630 C   0  0  2  0  0  3  0  0  0  0  0  0
  161.8730  210.3660  150.9080 O   0  0  0  0  0  1  0  0  0  0  0  0
  161.6150  208.0260  150.3820 C   0  0  1  0  0  3  0  0  0  0  0  0
  161.9550  208.5860  149.0100 C   0  0  0  0  0  1  0  0  0  0  0  0
  162.4840  206.7940  150.6320 C   0  0  0  0  0  2  0  0  0  0  0  0
  161.7760  205.4770  150.3030 C   0  0  1  0  0  3  0  0  0  0  0  0
  160.8410  204.3140  152.5250 C   0  0  0  0  0  3  0  0  0  0  0  0
  161.2610  204.8410  151.5250 C   0  0  0  0  0  0  0  0  0  0  0  0
  160.6660  205.6780  149.2760 C   0  0  0  0  0  2  0  0  0  0  0  0
  161.9570  205.4650  147.1450 C   0  0  0  0  0  1  0  0  0  0  0  0
  160.8980  204.8380  148.0300 C   0  0  0  0  0  2  0  0  0  0  0  0
  1  8  1  6  0  0  0
  1  7  1  0  0  0  0
  2  5  1  0  0  0  0
  3  2  1  0  0  0  0
  6 17  1  1  0  0  0
  6  1  1  0  0  0  0
  6  3  1  0  0  0  0
  7  4  1  0  0  0  0
  7  5  1  0  0  0  0
  9 10  1  6  0  0  0
  9  1  1  0  0  0  0
 11  9  1  0  0  0  0
 12 11  1  0  0  0  0
 13 14  1  1  0  0  0
 13 12  1  0  0  0  0
 15 13  1  0  0  0  0
 16 15  1  0  0  0  0
 18 17  1  0  0  0  0
 18 19  2  0  0  0  0
 20 21  1  6  0  0  0
 20 18  1  0  0  0  0
 22 23  1  6  0  0  0
 22 24  1  0  0  0  0
 22 20  1  0  0  0  0
 25 28  1  6  0  0  0
 25 24  1  0  0  0  0
 25 27  1  0  0  0  0
 27 26  3  0  0  0  0
 29 30  1  0  0  0  0
 30 28  1  0  0  0  0
M  END
>  <MODEL>
8

>  <REMARK>
 VINA RESULT:      -5.2      4.401      7.226
  Name = 
  14 active torsions:
  status: ('A' for Active; 'I' for Inactive)
    1  A    between atoms: C_1  and  O_2
    2  A    between atoms: C_1  and  C_4
    3  A    between atoms: O_2  and  C_22
    4  A    between atoms: C_3  and  C_11
    5  A    between atoms: C_4  and  C_27
    6  A    between atoms: C_6  and  C_8
    7  A    between atoms: C_6  and  C_21
    8  A    between atoms: C_7  and  C_10
    9  A    between atoms: C_7  and  C_15
   10  A    between atoms: C_8  and  C_12
   11  A    between atoms: C_8  and  C_13
   12  A    between atoms: C_10  and  N_25
   13  A    between atoms: C_11  and  N_25
   14  A    between atoms: C_13  and  C_27
                            x       y       z     vdW  Elec       q    Type
                         _______ _______ _______ _____ _____    ______ ____

>  <TORSDO>
F 14

$$$$
=
 OpenBabel11052421483D

 30 30  0  0  1  0  0  0  0  0999 V2000
  160.2600  209.8700  154.1270 C   0  0  2  0  0  0  0  0  0  0  0  0
  160.4110  207.5330  155.9560 C   0  0  0  0  0  2  0  0  0  0  0  0
  161.5810  207.8380  155.0240 C   0  0  0  0  0  2  0  0  0  0  0  0
  159.1670  211.0470  155.9840 C   0  0  0  0  0  1  0  0  0  0  0  0
  159.4630  208.7260  156.1100 C   0  0  0  0  0  2  0  0  0  0  0  0
  161.1160  208.6040  153.7850 C   0  0  1  0  0  3  0  0  0  0  0  0
  160.0650  209.9610  155.6030 N   0  0  0  0  0  0  0  0  0  0  0  0
  158.9050  209.8080  153.3920 C   0  0  0  0  0  1  0  0  0  0  0  0
  161.0720  211.0780  153.5950 C   0  0  1  0  0  3  0  0  0  0  0  0
  162.1550  210.7260  152.5850 C   0  0  0  0  0  1  0  0  0  0  0  0
  160.2020  212.1060  153.0410 N   0  0  0  0  0  2  0  0  0  0  0  0
  160.5550  212.2440  151.6360 C   0  0  0  0  0  2  0  0  0  0  0  0
  159.8650  213.4600  151.0360 C   0  0  2  0  0  3  0  0  0  0  0  0
  158.3580  213.3270  151.1660 C   0  0  0  0  0  1  0  0  0  0  0  0
  160.2800  213.7100  149.5870 C   0  0  0  0  0  2  0  0  0  0  0  0
  161.2120  212.6330  149.0530 C   0  0  0  0  0  1  0  0  0  0  0  0
  160.5040  207.7130  152.8550 O   0  0  0  0  0  0  0  0  0  0  0  0
  161.2200  206.7210  152.1810 C   0  0  0  0  0  0  0  0  0  0  0  0
  162.2990  207.0720  151.4910 C   0  0  0  0  0  2  0  0  0  0  0  0
  160.7690  205.2830  152.2090 C   0  0  2  0  0  3  0  0  0  0  0  0
  160.9830  204.7420  153.4800 O   0  0  0  0  0  1  0  0  0  0  0  0
  161.4730  204.4460  151.1380 C   0  0  1  0  0  3  0  0  0  0  0  0
  161.7440  203.0430  151.6570 C   0  0  0  0  0  1  0  0  0  0  0  0
  160.6050  204.3410  149.8840 C   0  0  0  0  0  2  0  0  0  0  0  0
  161.4080  204.0350  148.6170 C   0  0  1  0  0  3  0  0  0  0  0  0
  160.9980  201.5140  147.8150 C   0  0  0  0  0  3  0  0  0  0  0  0
  161.1790  202.6510  148.1760 C   0  0  0  0  0  0  0  0  0  0  0  0
  161.0970  205.0270  147.5010 C   0  0  0  0  0  2  0  0  0  0  0  0
  162.2920  207.1910  147.8810 C   0  0  0  0  0  1  0  0  0  0  0  0
  160.9790  206.4470  148.0320 C   0  0  0  0  0  2  0  0  0  0  0  0
  1  8  1  6  0  0  0
  1  7  1  0  0  0  0
  2  5  1  0  0  0  0
  3  2  1  0  0  0  0
  6 17  1  6  0  0  0
  6  1  1  0  0  0  0
  6  3  1  0  0  0  0
  7  4  1  0  0  0  0
  7  5  1  0  0  0  0
  9 10  1  6  0  0  0
  9  1  1  0  0  0  0
 11  9  1  0  0  0  0
 12 11  1  0  0  0  0
 13 14  1  6  0  0  0
 13 12  1  0  0  0  0
 15 13  1  0  0  0  0
 16 15  1  0  0  0  0
 18 20  1  0  0  0  0
 18 17  1  0  0  0  0
 19 18  2  0  0  0  0
 20 21  1  1  0  0  0
 22 23  1  1  0  0  0
 22 20  1  0  0  0  0
 24 22  1  0  0  0  0
 25 28  1  6  0  0  0
 25 24  1  0  0  0  0
 26 27  3  0  0  0  0
 27 25  1  0  0  0  0
 28 30  1  0  0  0  0
 29 30  1  0  0  0  0
M  END
>  <MODEL>
9

>  <REMARK>
 VINA RESULT:      -5.2      2.723      5.321
  Name = 
  14 active torsions:
  status: ('A' for Active; 'I' for Inactive)
    1  A    between atoms: C_1  and  O_2
    2  A    between atoms: C_1  and  C_4
    3  A    between atoms: O_2  and  C_22
    4  A    between atoms: C_3  and  C_11
    5  A    between atoms: C_4  and  C_27
    6  A    between atoms: C_6  and  C_8
    7  A    between atoms: C_6  and  C_21
    8  A    between atoms: C_7  and  C_10
    9  A    between atoms: C_7  and  C_15
   10  A    between atoms: C_8  and  C_12
   11  A    between atoms: C_8  and  C_13
   12  A    between atoms: C_10  and  N_25
   13  A    between atoms: C_11  and  N_25
   14  A    between atoms: C_13  and  C_27
                            x       y       z     vdW  Elec       q    Type
                         _______ _______ _______ _____ _____    ______ ____

>  <TORSDO>
F 14

$$$$
