=
 OpenBabel11052422073D

 25 27  0  0  1  0  0  0  0  0999 V2000
  161.0000  205.8920  149.2840 C   0  0  0  0  0  0  0  0  0  0  0  0
  161.9390  208.1280  149.3560 C   0  0  0  0  0  0  0  0  0  0  0  0
  162.4840  209.2130  148.7490 F   0  0  0  0  0  0  0  0  0  0  0  0
  160.8280  205.9600  150.6740 C   0  0  0  0  0  3  0  0  0  0  0  0
  161.7640  208.1470  150.7030 N   0  0  0  0  0  0  0  0  0  0  0  0
  161.2230  207.0980  151.3700 C   0  0  0  0  0  0  0  0  0  0  0  0
  161.5590  207.0050  148.5990 C   0  0  0  0  0  0  0  0  0  0  0  0
  162.2880  205.7890  146.4940 C   0  0  0  0  0  2  0  0  0  0  0  0
  161.7980  207.0890  147.1020 C   0  0  0  0  0  3  0  0  0  0  0  0
  160.8490  206.2310  146.2870 C   0  0  0  0  0  2  0  0  0  0  0  0
  161.0540  207.1620  152.7930 C   0  0  0  0  0  0  0  0  0  0  0  0
  160.9120  207.2160  153.9900 C   0  0  0  0  0  0  0  0  0  0  0  0
  160.7390  207.2820  155.4440 C   0  0  2  0  0  3  0  0  0  0  0  0
  159.3980  207.1660  155.7590 F   0  0  0  0  0  0  0  0  0  0  0  0
  161.2850  208.5670  155.9690 C   0  0  0  0  0  0  0  0  0  0  0  0
  162.1880  208.5650  156.8470 O   0  0  0  0  0  1  0  0  0  0  0  0
  160.7720  209.7720  155.5100 O   0  0  0  0  0  0  0  0  0  0  0  0
  160.5780  204.7510  148.5830 O   0  0  0  0  0  0  0  0  0  0  0  0
  160.8070  203.4270  148.9800 C   0  0  0  0  0  0  0  0  0  0  0  0
  161.2180  200.7950  149.8610 C   0  0  0  0  0  3  0  0  0  0  0  0
  161.0610  202.3980  148.0500 C   0  0  0  0  0  0  0  0  0  0  0  0
  161.2690  201.0890  148.4960 C   0  0  0  0  0  3  0  0  0  0  0  0
  160.9460  201.8080  150.7840 C   0  0  0  0  0  3  0  0  0  0  0  0
  161.0530  202.6440  146.7180 F   0  0  0  0  0  0  0  0  0  0  0  0
  160.7370  203.1160  150.3430 C   0  0  0  0  0  3  0  0  0  0  0  0
  1  4  1  0  0  0  0
  2  5  2  0  0  0  0
  3  2  1  0  0  0  0
  4  6  2  0  0  0  0
  5  6  1  0  0  0  0
  6 11  1  0  0  0  0
  7  1  2  0  0  0  0
  7  2  1  0  0  0  0
  8  9  1  0  0  0  0
  9  7  1  0  0  0  0
 10  8  1  0  0  0  0
 10  9  1  0  0  0  0
 11 12  3  0  0  0  0
 12 13  1  0  0  0  0
 13 14  1  6  0  0  0
 13 15  1  0  0  0  0
 15 16  1  0  0  0  0
 17 15  2  0  0  0  0
 18 19  1  0  0  0  0
 18  1  1  0  0  0  0
 19 25  1  0  0  0  0
 20 23  1  0  0  0  0
 21 22  1  0  0  0  0
 21 19  2  0  0  0  0
 22 20  2  0  0  0  0
 24 21  1  0  0  0  0
 25 23  2  0  0  0  0
M  END
>  <MODEL>
1

>  <REMARK>
 VINA RESULT:      -8.9      0.000      0.000
  Name = 
  6 active torsions:
  status: ('A' for Active; 'I' for Inactive)
    1  A    between atoms: O_1  and  C_3
    2  A    between atoms: O_1  and  C_5
    3  A    between atoms: C_2  and  C_21
    4  A    between atoms: C_6  and  C_23
    5  A    between atoms: C_9  and  C_24
    6  A    between atoms: C_15  and  C_21
                            x       y       z     vdW  Elec       q    Type
                         _______ _______ _______ _____ _____    ______ ____

>  <TORSDO>
F 6

$$$$
=
 OpenBabel11052422073D

 25 27  0  0  1  0  0  0  0  0999 V2000
  161.4330  204.1130  149.5390 C   0  0  0  0  0  0  0  0  0  0  0  0
  160.7580  203.5610  151.8040 C   0  0  0  0  0  0  0  0  0  0  0  0
  160.3710  202.6670  152.7490 F   0  0  0  0  0  0  0  0  0  0  0  0
  161.5460  205.4520  149.9400 C   0  0  0  0  0  3  0  0  0  0  0  0
  160.8710  204.8710  152.1450 N   0  0  0  0  0  0  0  0  0  0  0  0
  161.2550  205.8140  151.2500 C   0  0  0  0  0  0  0  0  0  0  0  0
  161.0390  203.1350  150.4930 C   0  0  0  0  0  0  0  0  0  0  0  0
  159.6700  201.3180  149.3680 C   0  0  0  0  0  2  0  0  0  0  0  0
  160.8800  201.6500  150.2190 C   0  0  0  0  0  3  0  0  0  0  0  0
  161.0620  201.2800  148.7600 C   0  0  0  0  0  2  0  0  0  0  0  0
  161.3640  207.1870  151.6550 C   0  0  0  0  0  0  0  0  0  0  0  0
  161.4560  208.3400  151.9960 C   0  0  0  0  0  0  0  0  0  0  0  0
  161.5680  209.7420  152.4090 C   0  0  2  0  0  3  0  0  0  0  0  0
  162.8150  210.2310  152.0650 F   0  0  0  0  0  0  0  0  0  0  0  0
  161.3530  209.8630  153.8800 C   0  0  0  0  0  0  0  0  0  0  0  0
  161.9740  210.7330  154.5470 O   0  0  0  0  0  1  0  0  0  0  0  0
  160.4870  208.9910  154.5240 O   0  0  0  0  0  0  0  0  0  0  0  0
  161.7510  203.7480  148.2220 O   0  0  0  0  0  0  0  0  0  0  0  0
  161.3260  204.4230  147.0700 C   0  0  0  0  0  0  0  0  0  0  0  0
  160.5010  205.8620  144.8070 C   0  0  0  0  0  3  0  0  0  0  0  0
  161.2230  203.7820  145.8180 C   0  0  0  0  0  0  0  0  0  0  0  0
  160.8080  204.5030  144.6950 C   0  0  0  0  0  3  0  0  0  0  0  0
  160.6210  206.5060  146.0410 C   0  0  0  0  0  3  0  0  0  0  0  0
  161.5760  202.4810  145.6710 F   0  0  0  0  0  0  0  0  0  0  0  0
  161.0370  205.7890  147.1650 C   0  0  0  0  0  3  0  0  0  0  0  0
  1  4  2  0  0  0  0
  1  7  1  0  0  0  0
  2  5  1  0  0  0  0
  2  3  1  0  0  0  0
  4  6  1  0  0  0  0
  6 11  1  0  0  0  0
  6  5  2  0  0  0  0
  7  2  2  0  0  0  0
  8  9  1  0  0  0  0
  9  7  1  0  0  0  0
 10  8  1  0  0  0  0
 10  9  1  0  0  0  0
 11 12  3  0  0  0  0
 12 13  1  0  0  0  0
 13 14  1  1  0  0  0
 13 15  1  0  0  0  0
 15 17  2  0  0  0  0
 15 16  1  0  0  0  0
 18  1  1  0  0  0  0
 19 25  1  0  0  0  0
 19 18  1  0  0  0  0
 20 23  1  0  0  0  0
 21 19  2  0  0  0  0
 22 20  2  0  0  0  0
 22 21  1  0  0  0  0
 23 25  2  0  0  0  0
 24 21  1  0  0  0  0
M  END
>  <MODEL>
2

>  <REMARK>
 VINA RESULT:      -8.7      2.130      4.324
  Name = 
  6 active torsions:
  status: ('A' for Active; 'I' for Inactive)
    1  A    between atoms: O_1  and  C_3
    2  A    between atoms: O_1  and  C_5
    3  A    between atoms: C_2  and  C_21
    4  A    between atoms: C_6  and  C_23
    5  A    between atoms: C_9  and  C_24
    6  A    between atoms: C_15  and  C_21
                            x       y       z     vdW  Elec       q    Type
                         _______ _______ _______ _____ _____    ______ ____

>  <TORSDO>
F 6

$$$$
=
 OpenBabel11052422073D

 25 27  0  0  1  0  0  0  0  0999 V2000
  161.1670  206.3540  149.3810 C   0  0  0  0  0  0  0  0  0  0  0  0
  162.3700  206.9480  151.4030 C   0  0  0  0  0  0  0  0  0  0  0  0
  162.9300  206.6250  152.5960 F   0  0  0  0  0  0  0  0  0  0  0  0
  161.2590  207.6940  148.9790 C   0  0  0  0  0  3  0  0  0  0  0  0
  162.4270  208.2370  150.9780 N   0  0  0  0  0  0  0  0  0  0  0  0
  161.8900  208.6260  149.7950 C   0  0  0  0  0  0  0  0  0  0  0  0
  161.7450  205.9610  150.6190 C   0  0  0  0  0  0  0  0  0  0  0  0
  160.7940  204.3810  152.3630 C   0  0  0  0  0  2  0  0  0  0  0  0
  161.7380  204.5530  151.1880 C   0  0  0  0  0  3  0  0  0  0  0  0
  160.4190  203.8290  150.9980 C   0  0  0  0  0  2  0  0  0  0  0  0
  161.9750  209.9980  149.3840 C   0  0  0  0  0  0  0  0  0  0  0  0
  162.0470  211.1510  149.0390 C   0  0  0  0  0  0  0  0  0  0  0  0
  162.1340  212.5530  148.6200 C   0  0  2  0  0  3  0  0  0  0  0  0
  161.2320  213.3120  149.3430 F   0  0  0  0  0  0  0  0  0  0  0  0
  161.8560  212.6710  147.1590 C   0  0  0  0  0  0  0  0  0  0  0  0
  162.7530  213.0680  146.3680 O   0  0  0  0  0  0  0  0  0  0  0  0
  160.5910  212.3730  146.6730 O   0  0  0  0  0  1  0  0  0  0  0  0
  160.5500  205.4120  148.5430 O   0  0  0  0  0  0  0  0  0  0  0  0
  160.8530  205.2120  147.1890 C   0  0  0  0  0  0  0  0  0  0  0  0
  161.4400  204.9070  144.4630 C   0  0  0  0  0  3  0  0  0  0  0  0
  161.6700  204.1480  146.7530 C   0  0  0  0  0  0  0  0  0  0  0  0
  161.9550  203.9990  145.3920 C   0  0  0  0  0  3  0  0  0  0  0  0
  160.6480  205.9740  144.8930 C   0  0  0  0  0  3  0  0  0  0  0  0
  162.2330  203.2930  147.6400 F   0  0  0  0  0  0  0  0  0  0  0  0
  160.3610  206.1270  146.2520 C   0  0  0  0  0  3  0  0  0  0  0  0
  1  7  1  0  0  0  0
  2  3  1  0  0  0  0
  4  1  2  0  0  0  0
  4  6  1  0  0  0  0
  5  2  1  0  0  0  0
  6  5  2  0  0  0  0
  7  9  1  0  0  0  0
  7  2  2  0  0  0  0
  9  8  1  0  0  0  0
 10  9  1  0  0  0  0
 10  8  1  0  0  0  0
 11  6  1  0  0  0  0
 12 11  3  0  0  0  0
 13 12  1  0  0  0  0
 13 14  1  1  0  0  0
 15 13  1  0  0  0  0
 16 15  2  0  0  0  0
 17 15  1  0  0  0  0
 18  1  1  0  0  0  0
 19 18  1  0  0  0  0
 20 23  2  0  0  0  0
 20 22  1  0  0  0  0
 21 19  1  0  0  0  0
 21 24  1  0  0  0  0
 22 21  2  0  0  0  0
 23 25  1  0  0  0  0
 25 19  2  0  0  0  0
M  END
>  <MODEL>
3

>  <REMARK>
 VINA RESULT:      -8.6      3.456      5.736
  Name = 
  6 active torsions:
  status: ('A' for Active; 'I' for Inactive)
    1  A    between atoms: O_1  and  C_3
    2  A    between atoms: O_1  and  C_5
    3  A    between atoms: C_2  and  C_21
    4  A    between atoms: C_6  and  C_23
    5  A    between atoms: C_9  and  C_24
    6  A    between atoms: C_15  and  C_21
                            x       y       z     vdW  Elec       q    Type
                         _______ _______ _______ _____ _____    ______ ____

>  <TORSDO>
F 6

$$$$
=
 OpenBabel11052422073D

 25 27  0  0  1  0  0  0  0  0999 V2000
  161.7090  206.9990  149.2470 C   0  0  0  0  0  0  0  0  0  0  0  0
  161.1370  208.1860  151.2850 C   0  0  0  0  0  0  0  0  0  0  0  0
  160.7020  208.2070  152.5700 F   0  0  0  0  0  0  0  0  0  0  0  0
  162.0380  208.2330  148.6670 C   0  0  0  0  0  3  0  0  0  0  0  0
  161.4580  209.3590  150.6800 N   0  0  0  0  0  0  0  0  0  0  0  0
  161.9010  209.4060  149.4000 C   0  0  0  0  0  0  0  0  0  0  0  0
  161.2560  206.9660  150.5940 C   0  0  0  0  0  0  0  0  0  0  0  0
  162.0230  204.7510  151.5660 C   0  0  0  0  0  2  0  0  0  0  0  0
  160.8700  205.7150  151.3640 C   0  0  0  0  0  3  0  0  0  0  0  0
  161.5370  205.6100  152.7220 C   0  0  0  0  0  2  0  0  0  0  0  0
  162.2310  210.6680  148.8010 C   0  0  0  0  0  0  0  0  0  0  0  0
  162.5090  211.7280  148.2970 C   0  0  0  0  0  0  0  0  0  0  0  0
  162.8460  213.0170  147.6860 C   0  0  2  0  0  3  0  0  0  0  0  0
  162.4820  214.0450  148.5360 F   0  0  0  0  0  0  0  0  0  0  0  0
  162.1530  213.1610  146.3730 C   0  0  0  0  0  0  0  0  0  0  0  0
  160.8990  213.0580  146.2990 O   0  0  0  0  0  1  0  0  0  0  0  0
  162.8960  213.3780  145.2220 O   0  0  0  0  0  0  0  0  0  0  0  0
  161.8720  205.8150  148.5110 O   0  0  0  0  0  0  0  0  0  0  0  0
  161.6630  205.6840  147.1320 C   0  0  0  0  0  0  0  0  0  0  0  0
  161.1750  205.4930  144.3750 C   0  0  0  0  0  3  0  0  0  0  0  0
  162.6370  205.1330  146.2740 C   0  0  0  0  0  0  0  0  0  0  0  0
  162.3870  205.0370  144.9020 C   0  0  0  0  0  3  0  0  0  0  0  0
  160.2150  206.0570  145.2190 C   0  0  0  0  0  3  0  0  0  0  0  0
  163.8450  204.7440  146.7510 F   0  0  0  0  0  0  0  0  0  0  0  0
  160.4620  206.1560  146.5900 C   0  0  0  0  0  3  0  0  0  0  0  0
  1  7  1  0  0  0  0
  2  3  1  0  0  0  0
  4  1  2  0  0  0  0
  4  6  1  0  0  0  0
  5  2  1  0  0  0  0
  6  5  2  0  0  0  0
  7  2  2  0  0  0  0
  7  9  1  0  0  0  0
  8 10  1  0  0  0  0
  9  8  1  0  0  0  0
  9 10  1  0  0  0  0
 11  6  1  0  0  0  0
 12 11  3  0  0  0  0
 13 12  1  0  0  0  0
 13 14  1  1  0  0  0
 15 13  1  0  0  0  0
 16 15  1  0  0  0  0
 17 15  2  0  0  0  0
 18  1  1  0  0  0  0
 19 18  1  0  0  0  0
 20 22  2  0  0  0  0
 20 23  1  0  0  0  0
 21 24  1  0  0  0  0
 21 19  2  0  0  0  0
 22 21  1  0  0  0  0
 23 25  2  0  0  0  0
 25 19  1  0  0  0  0
M  END
>  <MODEL>
4

>  <REMARK>
 VINA RESULT:      -8.6      3.596      6.309
  Name = 
  6 active torsions:
  status: ('A' for Active; 'I' for Inactive)
    1  A    between atoms: O_1  and  C_3
    2  A    between atoms: O_1  and  C_5
    3  A    between atoms: C_2  and  C_21
    4  A    between atoms: C_6  and  C_23
    5  A    between atoms: C_9  and  C_24
    6  A    between atoms: C_15  and  C_21
                            x       y       z     vdW  Elec       q    Type
                         _______ _______ _______ _____ _____    ______ ____

>  <TORSDO>
F 6

$$$$
=
 OpenBabel11052422073D

 25 27  0  0  1  0  0  0  0  0999 V2000
  160.6880  205.0820  149.6330 C   0  0  0  0  0  0  0  0  0  0  0  0
  161.4730  203.6300  151.4120 C   0  0  0  0  0  0  0  0  0  0  0  0
  161.8550  202.4140  151.8780 F   0  0  0  0  0  0  0  0  0  0  0  0
  160.7130  206.1480  150.5450 C   0  0  0  0  0  3  0  0  0  0  0  0
  161.4720  204.6890  152.2630 N   0  0  0  0  0  0  0  0  0  0  0  0
  161.1040  205.9310  151.8610 C   0  0  0  0  0  0  0  0  0  0  0  0
  161.0870  203.7890  150.0690 C   0  0  0  0  0  0  0  0  0  0  0  0
  160.7770  201.2720  149.9600 C   0  0  0  0  0  2  0  0  0  0  0  0
  161.1240  202.5400  149.2050 C   0  0  0  0  0  3  0  0  0  0  0  0
  159.7650  201.8950  149.0140 C   0  0  0  0  0  2  0  0  0  0  0  0
  161.1210  207.0210  152.7930 C   0  0  0  0  0  0  0  0  0  0  0  0
  161.1360  207.9380  153.5770 C   0  0  0  0  0  0  0  0  0  0  0  0
  161.1530  209.0520  154.5290 C   0  0  2  0  0  3  0  0  0  0  0  0
  159.9290  209.1390  155.1670 F   0  0  0  0  0  0  0  0  0  0  0  0
  161.4590  210.3290  153.8220 C   0  0  0  0  0  0  0  0  0  0  0  0
  160.9330  211.4100  154.1980 O   0  0  0  0  0  1  0  0  0  0  0  0
  162.3060  210.3210  152.7220 O   0  0  0  0  0  0  0  0  0  0  0  0
  160.3150  205.3110  148.3000 O   0  0  0  0  0  0  0  0  0  0  0  0
  161.1860  205.2910  147.2010 C   0  0  0  0  0  0  0  0  0  0  0  0
  162.9820  205.1830  145.0490 C   0  0  0  0  0  3  0  0  0  0  0  0
  160.7870  205.7260  145.9200 C   0  0  0  0  0  0  0  0  0  0  0  0
  161.6880  205.6730  144.8530 C   0  0  0  0  0  3  0  0  0  0  0  0
  163.3750  204.7330  146.3130 C   0  0  0  0  0  3  0  0  0  0  0  0
  159.5190  206.1450  145.6900 F   0  0  0  0  0  0  0  0  0  0  0  0
  162.4770  204.7830  147.3810 C   0  0  0  0  0  3  0  0  0  0  0  0
  1  7  2  0  0  0  0
  1  4  1  0  0  0  0
  2  3  1  0  0  0  0
  2  5  2  0  0  0  0
  4  6  2  0  0  0  0
  6  5  1  0  0  0  0
  6 11  1  0  0  0  0
  7  2  1  0  0  0  0
  9  8  1  0  0  0  0
  9  7  1  0  0  0  0
 10  9  1  0  0  0  0
 10  8  1  0  0  0  0
 11 12  3  0  0  0  0
 12 13  1  0  0  0  0
 13 14  1  6  0  0  0
 15 16  1  0  0  0  0
 15 13  1  0  0  0  0
 17 15  2  0  0  0  0
 18  1  1  0  0  0  0
 19 25  1  0  0  0  0
 19 18  1  0  0  0  0
 20 23  1  0  0  0  0
 21 19  2  0  0  0  0
 22 20  2  0  0  0  0
 22 21  1  0  0  0  0
 23 25  2  0  0  0  0
 24 21  1  0  0  0  0
M  END
>  <MODEL>
5

>  <REMARK>
 VINA RESULT:      -8.3      2.173      4.052
  Name = 
  6 active torsions:
  status: ('A' for Active; 'I' for Inactive)
    1  A    between atoms: O_1  and  C_3
    2  A    between atoms: O_1  and  C_5
    3  A    between atoms: C_2  and  C_21
    4  A    between atoms: C_6  and  C_23
    5  A    between atoms: C_9  and  C_24
    6  A    between atoms: C_15  and  C_21
                            x       y       z     vdW  Elec       q    Type
                         _______ _______ _______ _____ _____    ______ ____

>  <TORSDO>
F 6

$$$$
=
 OpenBabel11052422073D

 25 27  0  0  1  0  0  0  0  0999 V2000
  161.7080  207.2830  151.4800 C   0  0  0  0  0  0  0  0  0  0  0  0
  160.8210  206.5390  149.3470 C   0  0  0  0  0  0  0  0  0  0  0  0
  160.2300  205.6030  148.5620 F   0  0  0  0  0  0  0  0  0  0  0  0
  162.0240  208.5090  150.8780 C   0  0  0  0  0  3  0  0  0  0  0  0
  161.1540  207.7390  148.8030 N   0  0  0  0  0  0  0  0  0  0  0  0
  161.7430  208.7180  149.5320 C   0  0  0  0  0  0  0  0  0  0  0  0
  161.0800  206.2710  150.7040 C   0  0  0  0  0  0  0  0  0  0  0  0
  161.1620  203.7610  150.3380 C   0  0  0  0  0  2  0  0  0  0  0  0
  160.6690  204.8990  151.2090 C   0  0  0  0  0  3  0  0  0  0  0  0
  161.8360  204.0480  151.6700 C   0  0  0  0  0  2  0  0  0  0  0  0
  162.0750  209.9710  148.9170 C   0  0  0  0  0  0  0  0  0  0  0  0
  162.3540  211.0240  148.3990 C   0  0  0  0  0  0  0  0  0  0  0  0
  162.6930  212.3040  147.7700 C   0  0  2  0  0  3  0  0  0  0  0  0
  163.9680  212.6840  148.1460 F   0  0  0  0  0  0  0  0  0  0  0  0
  161.7040  213.3490  148.1640 C   0  0  0  0  0  0  0  0  0  0  0  0
  162.0930  214.4520  148.6330 O   0  0  0  0  0  1  0  0  0  0  0  0
  160.3460  213.0920  148.0430 O   0  0  0  0  0  0  0  0  0  0  0  0
  161.9720  207.0850  152.8440 O   0  0  0  0  0  0  0  0  0  0  0  0
  161.2250  207.6260  153.9000 C   0  0  0  0  0  0  0  0  0  0  0  0
  159.7290  208.6190  156.0560 C   0  0  0  0  0  3  0  0  0  0  0  0
  161.2110  209.0080  154.1780 C   0  0  0  0  0  0  0  0  0  0  0  0
  160.4600  209.4970  155.2520 C   0  0  0  0  0  3  0  0  0  0  0  0
  159.7560  207.2470  155.7960 C   0  0  0  0  0  3  0  0  0  0  0  0
  161.9620  209.8730  153.4530 F   0  0  0  0  0  0  0  0  0  0  0  0
  160.5060  206.7540  154.7250 C   0  0  0  0  0  3  0  0  0  0  0  0
  1 18  1  0  0  0  0
  2  7  1  0  0  0  0
  3  2  1  0  0  0  0
  4  1  1  0  0  0  0
  5  2  2  0  0  0  0
  5  6  1  0  0  0  0
  6  4  2  0  0  0  0
  7  9  1  0  0  0  0
  7  1  2  0  0  0  0
  8  9  1  0  0  0  0
  8 10  1  0  0  0  0
  9 10  1  0  0  0  0
 11  6  1  0  0  0  0
 12 11  3  0  0  0  0
 13 14  1  1  0  0  0
 13 15  1  0  0  0  0
 13 12  1  0  0  0  0
 15 16  1  0  0  0  0
 17 15  2  0  0  0  0
 18 19  1  0  0  0  0
 19 21  2  0  0  0  0
 19 25  1  0  0  0  0
 21 22  1  0  0  0  0
 22 20  2  0  0  0  0
 23 20  1  0  0  0  0
 24 21  1  0  0  0  0
 25 23  2  0  0  0  0
M  END
>  <MODEL>
6

>  <REMARK>
 VINA RESULT:      -8.2      3.385      6.949
  Name = 
  6 active torsions:
  status: ('A' for Active; 'I' for Inactive)
    1  A    between atoms: O_1  and  C_3
    2  A    between atoms: O_1  and  C_5
    3  A    between atoms: C_2  and  C_21
    4  A    between atoms: C_6  and  C_23
    5  A    between atoms: C_9  and  C_24
    6  A    between atoms: C_15  and  C_21
                            x       y       z     vdW  Elec       q    Type
                         _______ _______ _______ _____ _____    ______ ____

>  <TORSDO>
F 6

$$$$
=
 OpenBabel11052422073D

 25 27  0  0  1  0  0  0  0  0999 V2000
  161.0540  205.7070  149.0540 C   0  0  0  0  0  0  0  0  0  0  0  0
  162.3310  207.7670  148.9200 C   0  0  0  0  0  0  0  0  0  0  0  0
  163.0360  208.6890  148.2180 F   0  0  0  0  0  0  0  0  0  0  0  0
  160.9020  205.9360  150.4290 C   0  0  0  0  0  3  0  0  0  0  0  0
  162.1670  207.9430  150.2570 N   0  0  0  0  0  0  0  0  0  0  0  0
  161.4710  207.0600  151.0160 C   0  0  0  0  0  0  0  0  0  0  0  0
  161.7770  206.6480  148.2710 C   0  0  0  0  0  0  0  0  0  0  0  0
  162.6970  205.2560  146.3580 C   0  0  0  0  0  2  0  0  0  0  0  0
  162.0200  206.5480  146.7750 C   0  0  0  0  0  3  0  0  0  0  0  0
  161.2120  205.4560  146.1020 C   0  0  0  0  0  2  0  0  0  0  0  0
  161.3210  207.2880  152.4250 C   0  0  0  0  0  0  0  0  0  0  0  0
  161.1940  207.4800  153.6090 C   0  0  0  0  0  0  0  0  0  0  0  0
  161.0400  207.7120  155.0480 C   0  0  2  0  0  3  0  0  0  0  0  0
  159.9900  206.9540  155.5320 F   0  0  0  0  0  0  0  0  0  0  0  0
  160.7980  209.1600  155.3120 C   0  0  0  0  0  0  0  0  0  0  0  0
  161.7210  210.0020  155.1500 O   0  0  0  0  0  0  0  0  0  0  0  0
  159.5560  209.5780  155.7690 O   0  0  0  0  0  1  0  0  0  0  0  0
  160.4570  204.5830  148.4620 O   0  0  0  0  0  0  0  0  0  0  0  0
  160.6990  203.2520  148.8270 C   0  0  0  0  0  0  0  0  0  0  0  0
  161.2430  200.5780  149.4780 C   0  0  0  0  0  3  0  0  0  0  0  0
  160.4890  202.7830  150.1400 C   0  0  0  0  0  0  0  0  0  0  0  0
  160.7590  201.4490  150.4570 C   0  0  0  0  0  3  0  0  0  0  0  0
  161.4710  201.0430  148.1800 C   0  0  0  0  0  3  0  0  0  0  0  0
  160.0820  203.6230  151.1230 F   0  0  0  0  0  0  0  0  0  0  0  0
  161.2040  202.3760  147.8590 C   0  0  0  0  0  3  0  0  0  0  0  0
  1  4  1  0  0  0  0
  2  5  2  0  0  0  0
  3  2  1  0  0  0  0
  4  6  2  0  0  0  0
  5  6  1  0  0  0  0
  6 11  1  0  0  0  0
  7  2  1  0  0  0  0
  7  1  2  0  0  0  0
  8  9  1  0  0  0  0
  9  7  1  0  0  0  0
 10  8  1  0  0  0  0
 10  9  1  0  0  0  0
 11 12  3  0  0  0  0
 12 13  1  0  0  0  0
 13 15  1  0  0  0  0
 13 14  1  6  0  0  0
 15 17  1  0  0  0  0
 16 15  2  0  0  0  0
 18 19  1  0  0  0  0
 18  1  1  0  0  0  0
 19 21  1  0  0  0  0
 20 22  1  0  0  0  0
 21 22  2  0  0  0  0
 21 24  1  0  0  0  0
 23 20  2  0  0  0  0
 25 23  1  0  0  0  0
 25 19  2  0  0  0  0
M  END
>  <MODEL>
7

>  <REMARK>
 VINA RESULT:      -8.1      1.184      1.530
  Name = 
  6 active torsions:
  status: ('A' for Active; 'I' for Inactive)
    1  A    between atoms: O_1  and  C_3
    2  A    between atoms: O_1  and  C_5
    3  A    between atoms: C_2  and  C_21
    4  A    between atoms: C_6  and  C_23
    5  A    between atoms: C_9  and  C_24
    6  A    between atoms: C_15  and  C_21
                            x       y       z     vdW  Elec       q    Type
                         _______ _______ _______ _____ _____    ______ ____

>  <TORSDO>
F 6

$$$$
=
 OpenBabel11052422073D

 25 27  0  0  1  0  0  0  0  0999 V2000
  161.9630  209.9750  150.0500 C   0  0  0  0  0  0  0  0  0  0  0  0
  161.1090  208.1650  151.4220 C   0  0  0  0  0  0  0  0  0  0  0  0
  160.6300  207.6830  152.5960 F   0  0  0  0  0  0  0  0  0  0  0  0
  162.0720  209.0670  148.9870 C   0  0  0  0  0  3  0  0  0  0  0  0
  161.2410  207.3180  150.3690 N   0  0  0  0  0  0  0  0  0  0  0  0
  161.7110  207.7370  149.1670 C   0  0  0  0  0  0  0  0  0  0  0  0
  161.4590  209.5220  151.3000 C   0  0  0  0  0  0  0  0  0  0  0  0
  160.3470  211.5630  152.3200 C   0  0  0  0  0  2  0  0  0  0  0  0
  161.2710  210.3810  152.5380 C   0  0  0  0  0  3  0  0  0  0  0  0
  159.8600  210.3470  153.0910 C   0  0  0  0  0  2  0  0  0  0  0  0
  161.8320  206.8070  148.0810 C   0  0  0  0  0  0  0  0  0  0  0  0
  161.9330  206.0270  147.1670 C   0  0  0  0  0  0  0  0  0  0  0  0
  162.0560  205.0780  146.0570 C   0  0  2  0  0  3  0  0  0  0  0  0
  163.3720  205.0220  145.6350 F   0  0  0  0  0  0  0  0  0  0  0  0
  161.1690  205.4860  144.9290 C   0  0  0  0  0  0  0  0  0  0  0  0
  161.5130  205.2720  143.7360 O   0  0  0  0  0  0  0  0  0  0  0  0
  159.9720  206.1340  145.1960 O   0  0  0  0  0  1  0  0  0  0  0  0
  162.3070  211.3220  149.8570 O   0  0  0  0  0  0  0  0  0  0  0  0
  161.9090  212.1110  148.7690 C   0  0  0  0  0  0  0  0  0  0  0  0
  161.0390  213.7300  146.6480 C   0  0  0  0  0  3  0  0  0  0  0  0
  162.7780  212.4080  147.6990 C   0  0  0  0  0  0  0  0  0  0  0  0
  162.3370  213.2120  146.6440 C   0  0  0  0  0  3  0  0  0  0  0  0
  160.1810  213.4540  147.7160 C   0  0  0  0  0  3  0  0  0  0  0  0
  164.0610  211.9720  147.7020 F   0  0  0  0  0  0  0  0  0  0  0  0
  160.6180  212.6520  148.7740 C   0  0  0  0  0  3  0  0  0  0  0  0
  1  7  1  0  0  0  0
  2  3  1  0  0  0  0
  4  6  1  0  0  0  0
  4  1  2  0  0  0  0
  5  2  1  0  0  0  0
  6  5  2  0  0  0  0
  7  2  2  0  0  0  0
  7  9  1  0  0  0  0
  8  9  1  0  0  0  0
  8 10  1  0  0  0  0
  9 10  1  0  0  0  0
 11  6  1  0  0  0  0
 12 11  3  0  0  0  0
 13 14  1  6  0  0  0
 13 12  1  0  0  0  0
 15 17  1  0  0  0  0
 15 13  1  0  0  0  0
 16 15  2  0  0  0  0
 18  1  1  0  0  0  0
 19 25  1  0  0  0  0
 19 18  1  0  0  0  0
 20 23  1  0  0  0  0
 21 24  1  0  0  0  0
 21 19  2  0  0  0  0
 22 20  2  0  0  0  0
 22 21  1  0  0  0  0
 23 25  2  0  0  0  0
M  END
>  <MODEL>
8

>  <REMARK>
 VINA RESULT:      -8.1      3.675      8.652
  Name = 
  6 active torsions:
  status: ('A' for Active; 'I' for Inactive)
    1  A    between atoms: O_1  and  C_3
    2  A    between atoms: O_1  and  C_5
    3  A    between atoms: C_2  and  C_21
    4  A    between atoms: C_6  and  C_23
    5  A    between atoms: C_9  and  C_24
    6  A    between atoms: C_15  and  C_21
                            x       y       z     vdW  Elec       q    Type
                         _______ _______ _______ _____ _____    ______ ____

>  <TORSDO>
F 6

$$$$
=
 OpenBabel11052422073D

 25 27  0  0  1  0  0  0  0  0999 V2000
  161.9000  207.2360  152.0070 C   0  0  0  0  0  0  0  0  0  0  0  0
  161.6400  207.8920  149.6850 C   0  0  0  0  0  0  0  0  0  0  0  0
  161.6700  208.8230  148.6980 F   0  0  0  0  0  0  0  0  0  0  0  0
  161.5580  205.9280  151.6360 C   0  0  0  0  0  3  0  0  0  0  0  0
  161.3030  206.6140  149.3730 N   0  0  0  0  0  0  0  0  0  0  0  0
  161.2560  205.6350  150.3110 C   0  0  0  0  0  0  0  0  0  0  0  0
  161.9550  208.2470  151.0100 C   0  0  0  0  0  0  0  0  0  0  0  0
  161.7750  210.6420  150.1890 C   0  0  0  0  0  2  0  0  0  0  0  0
  162.3170  209.7030  151.2480 C   0  0  0  0  0  3  0  0  0  0  0  0
  161.1210  210.5820  151.5590 C   0  0  0  0  0  2  0  0  0  0  0  0
  160.8980  204.2970  149.9360 C   0  0  0  0  0  0  0  0  0  0  0  0
  160.5970  203.1730  149.6210 C   0  0  0  0  0  0  0  0  0  0  0  0
  160.2310  201.8060  149.2380 C   0  0  2  0  0  3  0  0  0  0  0  0
  160.5570  200.9330  150.2590 F   0  0  0  0  0  0  0  0  0  0  0  0
  160.9350  201.4180  147.9810 C   0  0  0  0  0  0  0  0  0  0  0  0
  160.9580  202.2010  146.9940 O   0  0  0  0  0  0  0  0  0  0  0  0
  161.5410  200.1730  147.8880 O   0  0  0  0  0  1  0  0  0  0  0  0
  162.2280  207.5210  153.3420 O   0  0  0  0  0  0  0  0  0  0  0  0
  161.3130  207.8820  154.3400 C   0  0  0  0  0  0  0  0  0  0  0  0
  159.4720  208.5070  156.3630 C   0  0  0  0  0  3  0  0  0  0  0  0
  161.2650  209.1840  154.8800 C   0  0  0  0  0  0  0  0  0  0  0  0
  160.3420  209.4900  155.8850 C   0  0  0  0  0  3  0  0  0  0  0  0
  159.5290  207.2110  155.8450 C   0  0  0  0  0  3  0  0  0  0  0  0
  162.1400  210.1370  154.4790 F   0  0  0  0  0  0  0  0  0  0  0  0
  160.4510  206.9000  154.8420 C   0  0  0  0  0  3  0  0  0  0  0  0
  1 18  1  0  0  0  0
  2  7  1  0  0  0  0
  3  2  1  0  0  0  0
  4  1  1  0  0  0  0
  5  2  2  0  0  0  0
  5  6  1  0  0  0  0
  6  4  2  0  0  0  0
  7  9  1  0  0  0  0
  7  1  2  0  0  0  0
  8  9  1  0  0  0  0
  8 10  1  0  0  0  0
  9 10  1  0  0  0  0
 11  6  1  0  0  0  0
 12 11  3  0  0  0  0
 13 12  1  0  0  0  0
 13 14  1  1  0  0  0
 15 13  1  0  0  0  0
 16 15  2  0  0  0  0
 17 15  1  0  0  0  0
 18 19  1  0  0  0  0
 19 25  2  0  0  0  0
 19 21  1  0  0  0  0
 21 22  2  0  0  0  0
 22 20  1  0  0  0  0
 23 20  2  0  0  0  0
 24 21  1  0  0  0  0
 25 23  1  0  0  0  0
M  END
>  <MODEL>
9

>  <REMARK>
 VINA RESULT:      -7.8      2.257      7.340
  Name = 
  6 active torsions:
  status: ('A' for Active; 'I' for Inactive)
    1  A    between atoms: O_1  and  C_3
    2  A    between atoms: O_1  and  C_5
    3  A    between atoms: C_2  and  C_21
    4  A    between atoms: C_6  and  C_23
    5  A    between atoms: C_9  and  C_24
    6  A    between atoms: C_15  and  C_21
                            x       y       z     vdW  Elec       q    Type
                         _______ _______ _______ _____ _____    ______ ____

>  <TORSDO>
F 6

$$$$
