=
 OpenBabel11062407413D

 27 30  0  0  1  0  0  0  0  0999 V2000
  161.8840  209.3100  151.7220 C   0  0  2  0  0  3  0  0  0  0  0  0
  162.5380  209.5820  150.4930 O   0  0  0  0  0  0  0  0  0  0  0  0
  162.1890  207.4460  150.5170 C   0  0  2  0  0  3  0  0  0  0  0  0
  161.6800  205.5240  152.4020 C   0  0  1  0  0  3  0  0  0  0  0  0
  161.1610  204.6560  153.3640 O   0  0  0  0  0  1  0  0  0  0  0  0
  161.3510  207.9200  151.6290 C   0  0  1  0  0  3  0  0  0  0  0  0
  162.3060  208.5490  149.6750 O   0  0  0  0  0  0  0  0  0  0  0  0
  161.0540  205.2330  151.0190 C   0  0  0  0  0  2  0  0  0  0  0  0
  160.4770  207.1830  153.7180 O   0  0  0  0  0  1  0  0  0  0  0  0
  161.5510  207.0120  152.8420 C   0  0  1  0  0  3  0  0  0  0  0  0
  161.5700  206.1770  149.9060 C   0  0  1  0  0  3  0  0  0  0  0  0
  160.4220  206.4920  148.9520 C   0  0  0  0  0  2  0  0  0  0  0  0
  162.8560  205.1670  146.8240 C   0  0  0  0  0  2  0  0  0  0  0  0
  162.3810  205.2820  145.3660 C   0  0  0  0  0  2  0  0  0  0  0  0
  160.9230  205.7320  145.2270 C   0  0  0  0  0  2  0  0  0  0  0  0
  160.5020  205.6280  147.7030 C   0  0  1  0  0  3  0  0  0  0  0  0
  160.4580  206.5130  146.4490 C   0  0  0  0  0  2  0  0  0  0  0  0
  161.7380  204.7160  147.7760 C   0  0  1  0  0  3  0  0  0  0  0  0
  160.9380  202.5790  148.8070 C   0  0  0  0  0  1  0  0  0  0  0  0
  161.3260  203.2730  147.5140 C   0  0  0  0  0  2  0  0  0  0  0  0
  160.7710  210.3260  151.9890 C   0  0  0  0  0  2  0  0  0  0  0  0
  160.8170  211.7750  156.0060 C   0  0  0  0  0  3  0  0  0  0  0  0
  160.7890  210.8520  153.3900 C   0  0  0  0  0  0  0  0  0  0  0  0
  159.8250  211.7750  153.8020 C   0  0  0  0  0  3  0  0  0  0  0  0
  159.8450  212.2390  155.1180 C   0  0  0  0  0  3  0  0  0  0  0  0
  161.7600  210.8470  155.5590 C   0  0  0  0  0  3  0  0  0  0  0  0
  161.7270  210.4080  154.2730 N   0  0  0  0  0  0  0  0  0  0  0  0
  1 21  1  6  0  0  0
  2  1  1  0  0  0  0
  3  7  1  6  0  0  0
  3  6  1  0  0  0  0
  4 10  1  0  0  0  0
  4  5  1  1  0  0  0
  6  1  1  0  0  0  0
  6 10  1  0  0  0  0
  7  2  1  0  0  0  0
  8  4  1  0  0  0  0
 10  9  1  0  0  0  0
 11  3  1  0  0  0  0
 11  8  1  0  0  0  0
 12 11  1  0  0  0  0
 13 18  1  0  0  0  0
 14 13  1  0  0  0  0
 15 14  1  0  0  0  0
 15 17  1  0  0  0  0
 16 18  1  0  0  0  0
 16 12  1  0  0  0  0
 17 16  1  0  0  0  0
 20 18  1  0  0  0  0
 20 19  1  0  0  0  0
 21 23  1  0  0  0  0
 23 24  2  0  0  0  0
 23 27  1  0  0  0  0
 24 25  1  0  0  0  0
 25 22  2  0  0  0  0
 26 22  1  0  0  0  0
 27 26  2  0  0  0  0
M  END
>  <MODEL>
1

>  <REMARK>
 VINA RESULT:      -8.8      0.000      0.000
  Name = 
  5 active torsions:
  status: ('A' for Active; 'I' for Inactive)
    1  A    between atoms: C_1  and  C_15
    2  A    between atoms: C_9  and  C_15
    3  A    between atoms: C_12  and  C_14
    4  A    between atoms: C_12  and  C_26
    5  A    between atoms: C_17  and  C_21
                            x       y       z     vdW  Elec       q    Type
                         _______ _______ _______ _____ _____    ______ ____

>  <TORSDO>
F 5

$$$$
=
 OpenBabel11062407413D

 27 30  0  0  1  0  0  0  0  0999 V2000
  161.7860  205.2040  150.9640 C   0  0  2  0  0  3  0  0  0  0  0  0
  162.3460  205.0730  152.2600 O   0  0  0  0  0  0  0  0  0  0  0  0
  162.3060  207.1970  151.8450 C   0  0  2  0  0  3  0  0  0  0  0  0
  162.1500  208.7980  149.6280 C   0  0  1  0  0  3  0  0  0  0  0  0
  161.7970  209.5410  148.5000 O   0  0  0  0  0  1  0  0  0  0  0  0
  161.4530  206.6460  150.7810 C   0  0  1  0  0  3  0  0  0  0  0  0
  162.2330  206.2570  152.8710 O   0  0  0  0  0  0  0  0  0  0  0  0
  161.5180  209.4150  150.8980 C   0  0  0  0  0  2  0  0  0  0  0  0
  160.7750  207.1050  148.5450 O   0  0  0  0  0  1  0  0  0  0  0  0
  161.8280  207.2860  149.4450 C   0  0  1  0  0  3  0  0  0  0  0  0
  161.8500  208.6260  152.1870 C   0  0  1  0  0  3  0  0  0  0  0  0
  160.6340  208.6440  153.1070 C   0  0  0  0  0  2  0  0  0  0  0  0
  159.3690  210.6940  155.6360 C   0  0  0  0  0  2  0  0  0  0  0  0
  160.5140  211.5070  156.2610 C   0  0  0  0  0  2  0  0  0  0  0  0
  161.9060  211.0740  155.7860 C   0  0  0  0  0  2  0  0  0  0  0  0
  161.0160  209.1030  154.5050 C   0  0  1  0  0  3  0  0  0  0  0  0
  161.8470  210.3910  154.4260 C   0  0  0  0  0  2  0  0  0  0  0  0
  159.7540  209.2310  155.3750 C   0  0  1  0  0  3  0  0  0  0  0  0
  160.0790  206.9740  156.4100 C   0  0  0  0  0  1  0  0  0  0  0  0
  159.9490  208.4620  156.6770 C   0  0  0  0  0  2  0  0  0  0  0  0
  160.5510  204.3140  150.8060 C   0  0  0  0  0  2  0  0  0  0  0  0
  161.0980  201.1600  147.9800 C   0  0  0  0  0  3  0  0  0  0  0  0
  160.7580  203.2020  149.8260 C   0  0  0  0  0  0  0  0  0  0  0  0
  160.7010  201.8740  150.2550 C   0  0  0  0  0  3  0  0  0  0  0  0
  160.8760  200.8490  149.3230 C   0  0  0  0  0  3  0  0  0  0  0  0
  161.1420  202.4990  147.5890 C   0  0  0  0  0  3  0  0  0  0  0  0
  160.9730  203.4840  148.5100 N   0  0  0  0  0  0  0  0  0  0  0  0
  1 21  1  1  0  0  0
  1  2  1  0  0  0  0
  2  7  1  0  0  0  0
  3 11  1  0  0  0  0
  3  7  1  1  0  0  0
  4  5  1  6  0  0  0
  4  8  1  0  0  0  0
  6  1  1  0  0  0  0
  6  3  1  0  0  0  0
  8 11  1  0  0  0  0
  9 10  1  0  0  0  0
 10  4  1  0  0  0  0
 10  6  1  0  0  0  0
 11 12  1  0  0  0  0
 12 16  1  0  0  0  0
 13 14  1  0  0  0  0
 15 14  1  0  0  0  0
 16 18  1  0  0  0  0
 17 16  1  0  0  0  0
 17 15  1  0  0  0  0
 18 13  1  0  0  0  0
 18 20  1  0  0  0  0
 19 20  1  0  0  0  0
 22 25  1  0  0  0  0
 23 24  1  0  0  0  0
 23 21  1  0  0  0  0
 25 24  2  0  0  0  0
 26 22  2  0  0  0  0
 26 27  1  0  0  0  0
 27 23  2  0  0  0  0
M  END
>  <MODEL>
2

>  <REMARK>
 VINA RESULT:      -8.3      2.633      8.228
  Name = 
  5 active torsions:
  status: ('A' for Active; 'I' for Inactive)
    1  A    between atoms: C_1  and  C_15
    2  A    between atoms: C_9  and  C_15
    3  A    between atoms: C_12  and  C_14
    4  A    between atoms: C_12  and  C_26
    5  A    between atoms: C_17  and  C_21
                            x       y       z     vdW  Elec       q    Type
                         _______ _______ _______ _____ _____    ______ ____

>  <TORSDO>
F 5

$$$$
=
 OpenBabel11062407413D

 27 30  0  0  1  0  0  0  0  0999 V2000
  161.6400  205.0760  151.2590 C   0  0  2  0  0  3  0  0  0  0  0  0
  162.0480  204.8360  152.5960 O   0  0  0  0  0  0  0  0  0  0  0  0
  162.0760  206.9860  152.3470 C   0  0  2  0  0  3  0  0  0  0  0  0
  162.1870  208.7550  150.2590 C   0  0  1  0  0  3  0  0  0  0  0  0
  161.9720  209.5890  149.1590 O   0  0  0  0  0  1  0  0  0  0  0  0
  161.3430  206.5340  151.1540 C   0  0  1  0  0  3  0  0  0  0  0  0
  161.8770  205.9720  153.2810 O   0  0  0  0  0  0  0  0  0  0  0  0
  161.4210  209.2840  151.4930 C   0  0  0  0  0  2  0  0  0  0  0  0
  160.9290  207.1760  148.8980 O   0  0  0  0  0  1  0  0  0  0  0  0
  161.8740  207.2680  149.9220 C   0  0  1  0  0  3  0  0  0  0  0  0
  161.5970  208.3920  152.7470 C   0  0  1  0  0  3  0  0  0  0  0  0
  160.2840  208.3620  153.5220 C   0  0  0  0  0  2  0  0  0  0  0  0
  162.3740  210.6520  155.1300 C   0  0  0  0  0  2  0  0  0  0  0  0
  162.6960  210.1480  156.5460 C   0  0  0  0  0  2  0  0  0  0  0  0
  161.8770  208.9210  156.9640 C   0  0  0  0  0  2  0  0  0  0  0  0
  160.4490  208.9890  154.8960 C   0  0  1  0  0  3  0  0  0  0  0  0
  161.3910  208.1330  155.7540 C   0  0  0  0  0  2  0  0  0  0  0  0
  160.8980  210.4530  154.7520 C   0  0  1  0  0  3  0  0  0  0  0  0
  158.6200  210.7120  155.7570 C   0  0  0  0  0  1  0  0  0  0  0  0
  159.9830  211.3540  155.5710 C   0  0  0  0  0  2  0  0  0  0  0  0
  160.4230  204.2240  150.8930 C   0  0  0  0  0  2  0  0  0  0  0  0
  161.2240  201.3670  147.8220 C   0  0  0  0  0  3  0  0  0  0  0  0
  160.7190  203.2160  149.8280 C   0  0  0  0  0  0  0  0  0  0  0  0
  160.6810  201.8520  150.1270 C   0  0  0  0  0  3  0  0  0  0  0  0
  160.9390  200.9250  149.1150 C   0  0  0  0  0  3  0  0  0  0  0  0
  161.2470  202.7390  147.5600 C   0  0  0  0  0  3  0  0  0  0  0  0
  160.9960  203.6270  148.5590 N   0  0  0  0  0  0  0  0  0  0  0  0
  1 21  1  1  0  0  0
  1  2  1  0  0  0  0
  2  7  1  0  0  0  0
  3 11  1  0  0  0  0
  3  7  1  1  0  0  0
  4  5  1  6  0  0  0
  4  8  1  0  0  0  0
  6  1  1  0  0  0  0
  6  3  1  0  0  0  0
  8 11  1  0  0  0  0
  9 10  1  0  0  0  0
 10  4  1  0  0  0  0
 10  6  1  0  0  0  0
 11 12  1  0  0  0  0
 12 16  1  0  0  0  0
 13 14  1  0  0  0  0
 14 15  1  0  0  0  0
 16 17  1  0  0  0  0
 17 15  1  0  0  0  0
 18 16  1  0  0  0  0
 18 13  1  0  0  0  0
 18 20  1  0  0  0  0
 20 19  1  0  0  0  0
 22 25  1  0  0  0  0
 23 24  1  0  0  0  0
 23 21  1  0  0  0  0
 25 24  2  0  0  0  0
 26 22  2  0  0  0  0
 26 27  1  0  0  0  0
 27 23  2  0  0  0  0
M  END
>  <MODEL>
3

>  <REMARK>
 VINA RESULT:      -8.2      2.530      8.325
  Name = 
  5 active torsions:
  status: ('A' for Active; 'I' for Inactive)
    1  A    between atoms: C_1  and  C_15
    2  A    between atoms: C_9  and  C_15
    3  A    between atoms: C_12  and  C_14
    4  A    between atoms: C_12  and  C_26
    5  A    between atoms: C_17  and  C_21
                            x       y       z     vdW  Elec       q    Type
                         _______ _______ _______ _____ _____    ______ ____

>  <TORSDO>
F 5

$$$$
=
 OpenBabel11062407413D

 27 30  0  0  1  0  0  0  0  0999 V2000
  161.7010  205.3570  151.1480 C   0  0  2  0  0  3  0  0  0  0  0  0
  162.1350  205.3060  152.4970 O   0  0  0  0  0  0  0  0  0  0  0  0
  162.1630  207.4000  151.9460 C   0  0  2  0  0  3  0  0  0  0  0  0
  162.2370  208.8560  149.6280 C   0  0  1  0  0  3  0  0  0  0  0  0
  162.0020  209.5270  148.4260 O   0  0  0  0  0  1  0  0  0  0  0  0
  161.4060  206.7880  150.8430 C   0  0  1  0  0  3  0  0  0  0  0  0
  161.9800  206.5280  153.0180 O   0  0  0  0  0  0  0  0  0  0  0  0
  161.4970  209.5570  150.7900 C   0  0  0  0  0  2  0  0  0  0  0  0
  160.9480  207.1070  148.5290 O   0  0  0  0  0  1  0  0  0  0  0  0
  161.9130  207.3370  149.5100 C   0  0  1  0  0  3  0  0  0  0  0  0
  161.6960  208.8510  152.1530 C   0  0  1  0  0  3  0  0  0  0  0  0
  160.3990  208.9370  152.9500 C   0  0  0  0  0  2  0  0  0  0  0  0
  158.6830  210.4240  155.6050 C   0  0  0  0  0  2  0  0  0  0  0  0
  158.1340  211.7890  155.1610 C   0  0  0  0  0  2  0  0  0  0  0  0
  158.6400  212.2400  153.7860 C   0  0  0  0  0  2  0  0  0  0  0  0
  160.2380  210.3100  153.5820 C   0  0  1  0  0  3  0  0  0  0  0  0
  159.0650  211.0540  152.9290 C   0  0  0  0  0  2  0  0  0  0  0  0
  160.1140  210.1720  155.1080 C   0  0  1  0  0  3  0  0  0  0  0  0
  162.5380  210.6680  155.4870 C   0  0  0  0  0  1  0  0  0  0  0  0
  161.1150  211.0970  155.7900 C   0  0  0  0  0  2  0  0  0  0  0  0
  160.4750  204.4680  150.9300 C   0  0  0  0  0  2  0  0  0  0  0  0
  161.1840  201.2470  148.2180 C   0  0  0  0  0  3  0  0  0  0  0  0
  160.7390  203.3350  149.9900 C   0  0  0  0  0  0  0  0  0  0  0  0
  160.7460  202.0210  150.4660 C   0  0  0  0  0  3  0  0  0  0  0  0
  160.9740  200.9740  149.5710 C   0  0  0  0  0  3  0  0  0  0  0  0
  161.1630  202.5730  147.7800 C   0  0  0  0  0  3  0  0  0  0  0  0
  160.9440  203.5800  148.6660 N   0  0  0  0  0  0  0  0  0  0  0  0
  1 21  1  1  0  0  0
  1  2  1  0  0  0  0
  2  7  1  0  0  0  0
  3 11  1  0  0  0  0
  3  7  1  1  0  0  0
  4  5  1  6  0  0  0
  4  8  1  0  0  0  0
  6  1  1  0  0  0  0
  6  3  1  0  0  0  0
  8 11  1  0  0  0  0
  9 10  1  0  0  0  0
 10  4  1  0  0  0  0
 10  6  1  0  0  0  0
 11 12  1  0  0  0  0
 12 16  1  0  0  0  0
 14 13  1  0  0  0  0
 15 14  1  0  0  0  0
 16 18  1  0  0  0  0
 17 16  1  0  0  0  0
 17 15  1  0  0  0  0
 18 13  1  0  0  0  0
 18 20  1  0  0  0  0
 19 20  1  0  0  0  0
 22 25  1  0  0  0  0
 23 24  1  0  0  0  0
 23 21  1  0  0  0  0
 25 24  2  0  0  0  0
 26 22  2  0  0  0  0
 26 27  1  0  0  0  0
 27 23  2  0  0  0  0
M  END
>  <MODEL>
4

>  <REMARK>
 VINA RESULT:      -8.1      2.577      8.200
  Name = 
  5 active torsions:
  status: ('A' for Active; 'I' for Inactive)
    1  A    between atoms: C_1  and  C_15
    2  A    between atoms: C_9  and  C_15
    3  A    between atoms: C_12  and  C_14
    4  A    between atoms: C_12  and  C_26
    5  A    between atoms: C_17  and  C_21
                            x       y       z     vdW  Elec       q    Type
                         _______ _______ _______ _____ _____    ______ ____

>  <TORSDO>
F 5

$$$$
=
 OpenBabel11062407413D

 27 30  0  0  1  0  0  0  0  0999 V2000
  161.7900  205.8420  150.6800 C   0  0  2  0  0  3  0  0  0  0  0  0
  162.1300  205.3300  151.9580 O   0  0  0  0  0  0  0  0  0  0  0  0
  162.1710  207.4850  152.1560 C   0  0  2  0  0  3  0  0  0  0  0  0
  162.3870  209.6420  150.4820 C   0  0  1  0  0  3  0  0  0  0  0  0
  162.2270  210.6850  149.5670 O   0  0  0  0  0  1  0  0  0  0  0  0
  161.4990  207.2940  150.8610 C   0  0  1  0  0  3  0  0  0  0  0  0
  161.9250  206.3030  152.8520 O   0  0  0  0  0  0  0  0  0  0  0  0
  161.5600  209.9160  151.7590 C   0  0  0  0  0  2  0  0  0  0  0  0
  161.1980  208.3870  148.7670 O   0  0  0  0  0  1  0  0  0  0  0  0
  162.0910  208.2580  149.8330 C   0  0  1  0  0  3  0  0  0  0  0  0
  161.6730  208.7850  152.8110 C   0  0  1  0  0  3  0  0  0  0  0  0
  160.3230  208.6100  153.4980 C   0  0  0  0  0  2  0  0  0  0  0  0
  162.1910  210.7260  155.5550 C   0  0  0  0  0  2  0  0  0  0  0  0
  162.5160  210.0060  156.8740 C   0  0  0  0  0  2  0  0  0  0  0  0
  161.7830  208.6700  157.0430 C   0  0  0  0  0  2  0  0  0  0  0  0
  160.4050  208.9980  154.9660 C   0  0  1  0  0  3  0  0  0  0  0  0
  161.3880  208.0740  155.6980 C   0  0  0  0  0  2  0  0  0  0  0  0
  160.7450  210.4920  155.0930 C   0  0  1  0  0  3  0  0  0  0  0  0
  158.3710  211.2310  155.3780 C   0  0  0  0  0  1  0  0  0  0  0  0
  159.7440  211.1690  156.0210 C   0  0  0  0  0  2  0  0  0  0  0  0
  160.5920  205.0950  150.0890 C   0  0  0  0  0  2  0  0  0  0  0  0
  161.6010  202.9620  146.5300 C   0  0  0  0  0  3  0  0  0  0  0  0
  160.9310  204.3570  148.8320 C   0  0  0  0  0  0  0  0  0  0  0  0
  161.3360  205.0620  147.6960 C   0  0  0  0  0  3  0  0  0  0  0  0
  161.6690  204.3560  146.5390 C   0  0  0  0  0  3  0  0  0  0  0  0
  161.1980  202.2920  147.6870 C   0  0  0  0  0  3  0  0  0  0  0  0
  160.8750  202.9960  148.8040 N   0  0  0  0  0  0  0  0  0  0  0  0
  1 21  1  1  0  0  0
  1  6  1  0  0  0  0
  1  2  1  0  0  0  0
  2  7  1  0  0  0  0
  3 11  1  0  0  0  0
  3  7  1  1  0  0  0
  4  5  1  6  0  0  0
  4  8  1  0  0  0  0
  6  3  1  0  0  0  0
  8 11  1  0  0  0  0
  9 10  1  0  0  0  0
 10  4  1  0  0  0  0
 10  6  1  0  0  0  0
 11 12  1  0  0  0  0
 12 16  1  0  0  0  0
 13 14  1  0  0  0  0
 14 15  1  0  0  0  0
 16 18  1  0  0  0  0
 16 17  1  0  0  0  0
 17 15  1  0  0  0  0
 18 13  1  0  0  0  0
 18 20  1  0  0  0  0
 19 20  1  0  0  0  0
 22 25  2  0  0  0  0
 22 26  1  0  0  0  0
 23 21  1  0  0  0  0
 24 23  2  0  0  0  0
 25 24  1  0  0  0  0
 26 27  2  0  0  0  0
 27 23  1  0  0  0  0
M  END
>  <MODEL>
5

>  <REMARK>
 VINA RESULT:      -7.4      2.322      8.271
  Name = 
  5 active torsions:
  status: ('A' for Active; 'I' for Inactive)
    1  A    between atoms: C_1  and  C_15
    2  A    between atoms: C_9  and  C_15
    3  A    between atoms: C_12  and  C_14
    4  A    between atoms: C_12  and  C_26
    5  A    between atoms: C_17  and  C_21
                            x       y       z     vdW  Elec       q    Type
                         _______ _______ _______ _____ _____    ______ ____

>  <TORSDO>
F 5

$$$$
=
 OpenBabel11062407413D

 27 30  0  0  1  0  0  0  0  0999 V2000
  161.8240  209.6130  151.3160 C   0  0  2  0  0  3  0  0  0  0  0  0
  162.4170  209.7730  150.0380 O   0  0  0  0  0  0  0  0  0  0  0  0
  162.1560  207.6410  150.3070 C   0  0  2  0  0  3  0  0  0  0  0  0
  161.8020  205.9200  152.4070 C   0  0  1  0  0  3  0  0  0  0  0  0
  161.3570  205.1430  153.4790 O   0  0  0  0  0  1  0  0  0  0  0  0
  161.3440  208.2030  151.3970 C   0  0  1  0  0  3  0  0  0  0  0  0
  162.1950  208.6500  149.3460 O   0  0  0  0  0  0  0  0  0  0  0  0
  161.1320  205.4560  151.0930 C   0  0  0  0  0  2  0  0  0  0  0  0
  160.5860  207.6680  153.5890 O   0  0  0  0  0  1  0  0  0  0  0  0
  161.6300  207.4410  152.6910 C   0  0  1  0  0  3  0  0  0  0  0  0
  161.5650  206.2920  149.8630 C   0  0  1  0  0  3  0  0  0  0  0  0
  160.3680  206.4590  148.9320 C   0  0  0  0  0  2  0  0  0  0  0  0
  162.8920  205.2410  146.8460 C   0  0  0  0  0  2  0  0  0  0  0  0
  162.4210  205.2960  145.3840 C   0  0  0  0  0  2  0  0  0  0  0  0
  160.9390  205.6540  145.2270 C   0  0  0  0  0  2  0  0  0  0  0  0
  160.5080  205.5760  147.7030 C   0  0  1  0  0  3  0  0  0  0  0  0
  160.4190  206.4300  146.4300 C   0  0  0  0  0  2  0  0  0  0  0  0
  161.7970  204.7430  147.8020 C   0  0  1  0  0  3  0  0  0  0  0  0
  160.8170  202.6630  148.7920 C   0  0  0  0  0  1  0  0  0  0  0  0
  161.4760  203.2720  147.5680 C   0  0  0  0  0  2  0  0  0  0  0  0
  160.6830  210.6110  151.5220 C   0  0  0  0  0  2  0  0  0  0  0  0
  161.0700  214.0490  149.0190 C   0  0  0  0  0  3  0  0  0  0  0  0
  160.7990  211.8160  150.6420 C   0  0  0  0  0  0  0  0  0  0  0  0
  160.1410  212.9990  150.9880 C   0  0  0  0  0  3  0  0  0  0  0  0
  160.2780  214.1190  150.1660 C   0  0  0  0  0  3  0  0  0  0  0  0
  161.7170  212.8510  148.7100 C   0  0  0  0  0  3  0  0  0  0  0  0
  161.5700  211.7690  149.5200 N   0  0  0  0  0  0  0  0  0  0  0  0
  1  6  1  0  0  0  0
  1 21  1  6  0  0  0
  2  1  1  0  0  0  0
  3  7  1  6  0  0  0
  3  6  1  0  0  0  0
  4 10  1  0  0  0  0
  4  5  1  1  0  0  0
  6 10  1  0  0  0  0
  7  2  1  0  0  0  0
  8  4  1  0  0  0  0
 10  9  1  0  0  0  0
 11  3  1  0  0  0  0
 11  8  1  0  0  0  0
 12 11  1  0  0  0  0
 13 18  1  0  0  0  0
 14 13  1  0  0  0  0
 15 14  1  0  0  0  0
 15 17  1  0  0  0  0
 16 18  1  0  0  0  0
 16 12  1  0  0  0  0
 17 16  1  0  0  0  0
 20 18  1  0  0  0  0
 20 19  1  0  0  0  0
 22 25  1  0  0  0  0
 23 24  1  0  0  0  0
 23 21  1  0  0  0  0
 25 24  2  0  0  0  0
 26 22  2  0  0  0  0
 26 27  1  0  0  0  0
 27 23  2  0  0  0  0
M  END
>  <MODEL>
6

>  <REMARK>
 VINA RESULT:      -6.8      1.906      2.567
  Name = 
  5 active torsions:
  status: ('A' for Active; 'I' for Inactive)
    1  A    between atoms: C_1  and  C_15
    2  A    between atoms: C_9  and  C_15
    3  A    between atoms: C_12  and  C_14
    4  A    between atoms: C_12  and  C_26
    5  A    between atoms: C_17  and  C_21
                            x       y       z     vdW  Elec       q    Type
                         _______ _______ _______ _____ _____    ______ ____

>  <TORSDO>
F 5

$$$$
=
 OpenBabel11062407413D

 27 30  0  0  1  0  0  0  0  0999 V2000
  159.6980  211.8640  153.5070 C   0  0  2  0  0  3  0  0  0  0  0  0
  160.4450  211.9150  152.3030 O   0  0  0  0  0  0  0  0  0  0  0  0
  161.1930  210.1990  153.3900 C   0  0  2  0  0  3  0  0  0  0  0  0
  161.1890  209.3190  155.9840 C   0  0  1  0  0  3  0  0  0  0  0  0
  160.9180  208.8050  157.2530 O   0  0  0  0  0  1  0  0  0  0  0  0
  159.9600  210.5310  154.1220 C   0  0  1  0  0  3  0  0  0  0  0  0
  160.9830  210.7060  152.1090 O   0  0  0  0  0  0  0  0  0  0  0  0
  161.1940  208.1850  154.9330 C   0  0  0  0  0  2  0  0  0  0  0  0
  159.0210  210.3800  156.3050 O   0  0  0  0  0  1  0  0  0  0  0  0
  160.2350  210.4960  155.6250 C   0  0  1  0  0  3  0  0  0  0  0  0
  161.4670  208.6890  153.4950 C   0  0  1  0  0  3  0  0  0  0  0  0
  160.6260  207.8750  152.5170 C   0  0  0  0  0  2  0  0  0  0  0  0
  160.4070  205.8680  149.6660 C   0  0  0  0  0  2  0  0  0  0  0  0
  161.0690  204.5090  149.9430 C   0  0  0  0  0  2  0  0  0  0  0  0
  161.8250  204.4510  151.2750 C   0  0  0  0  0  2  0  0  0  0  0  0
  161.4920  206.9000  151.7360 C   0  0  1  0  0  3  0  0  0  0  0  0
  161.2880  205.4750  152.2680 C   0  0  0  0  0  2  0  0  0  0  0  0
  161.2150  207.0460  150.2300 C   0  0  1  0  0  3  0  0  0  0  0  0
  162.3140  207.1490  147.9830 C   0  0  0  0  0  1  0  0  0  0  0  0
  162.5300  207.2320  149.4830 C   0  0  0  0  0  2  0  0  0  0  0  0
  158.2070  212.0800  153.2390 C   0  0  0  0  0  2  0  0  0  0  0  0
  156.2540  214.0300  156.4970 C   0  0  0  0  0  3  0  0  0  0  0  0
  157.5070  212.7670  154.3690 C   0  0  0  0  0  0  0  0  0  0  0  0
  156.2580  212.3110  154.7980 C   0  0  0  0  0  3  0  0  0  0  0  0
  155.6300  212.9520  155.8670 C   0  0  0  0  0  3  0  0  0  0  0  0
  157.5050  214.4530  156.0440 C   0  0  0  0  0  3  0  0  0  0  0  0
  158.1010  213.8190  154.9990 N   0  0  0  0  0  0  0  0  0  0  0  0
  1 21  1  6  0  0  0
  1  6  1  0  0  0  0
  2  1  1  0  0  0  0
  3  7  1  6  0  0  0
  3 11  1  0  0  0  0
  3  6  1  0  0  0  0
  4  5  1  1  0  0  0
  6 10  1  0  0  0  0
  7  2  1  0  0  0  0
  8  4  1  0  0  0  0
 10  4  1  0  0  0  0
 10  9  1  0  0  0  0
 11  8  1  0  0  0  0
 12 11  1  0  0  0  0
 13 14  1  0  0  0  0
 13 18  1  0  0  0  0
 14 15  1  0  0  0  0
 15 17  1  0  0  0  0
 16 17  1  0  0  0  0
 16 12  1  0  0  0  0
 18 16  1  0  0  0  0
 19 20  1  0  0  0  0
 20 18  1  0  0  0  0
 21 23  1  0  0  0  0
 23 24  2  0  0  0  0
 23 27  1  0  0  0  0
 24 25  1  0  0  0  0
 25 22  2  0  0  0  0
 26 22  1  0  0  0  0
 27 26  2  0  0  0  0
M  END
>  <MODEL>
7

>  <REMARK>
 VINA RESULT:      -6.8      2.576      4.554
  Name = 
  5 active torsions:
  status: ('A' for Active; 'I' for Inactive)
    1  A    between atoms: C_1  and  C_15
    2  A    between atoms: C_9  and  C_15
    3  A    between atoms: C_12  and  C_14
    4  A    between atoms: C_12  and  C_26
    5  A    between atoms: C_17  and  C_21
                            x       y       z     vdW  Elec       q    Type
                         _______ _______ _______ _____ _____    ______ ____

>  <TORSDO>
F 5

$$$$
=
 OpenBabel11062407413D

 27 30  0  0  1  0  0  0  0  0999 V2000
  161.9460  206.8840  149.9970 C   0  0  2  0  0  3  0  0  0  0  0  0
  162.3400  206.5060  151.3050 O   0  0  0  0  0  0  0  0  0  0  0  0
  162.3110  208.6700  151.3000 C   0  0  2  0  0  3  0  0  0  0  0  0
  162.4050  210.6650  149.4260 C   0  0  1  0  0  3  0  0  0  0  0  0
  162.1840  211.6110  148.4230 O   0  0  0  0  0  1  0  0  0  0  0  0
  161.6100  208.3360  150.0500 C   0  0  1  0  0  3  0  0  0  0  0  0
  162.1260  207.5520  152.1110 O   0  0  0  0  0  0  0  0  0  0  0  0
  161.6050  211.0310  150.6980 C   0  0  0  0  0  2  0  0  0  0  0  0
  161.2130  209.2170  147.8740 O   0  0  0  0  0  1  0  0  0  0  0  0
  162.1390  209.2180  148.9190 C   0  0  1  0  0  3  0  0  0  0  0  0
  161.7870  210.0090  151.8460 C   0  0  1  0  0  3  0  0  0  0  0  0
  160.4640  209.8570  152.5890 C   0  0  0  0  0  2  0  0  0  0  0  0
  158.5790  210.2950  155.4970 C   0  0  0  0  0  2  0  0  0  0  0  0
  158.2850  211.7910  155.6990 C   0  0  0  0  0  2  0  0  0  0  0  0
  159.0460  212.7040  154.7310 C   0  0  0  0  0  2  0  0  0  0  0  0
  160.3910  210.8090  153.7720 C   0  0  1  0  0  3  0  0  0  0  0  0
  159.4360  211.9680  153.4550 C   0  0  0  0  0  2  0  0  0  0  0  0
  160.0230  210.0310  155.0460 C   0  0  1  0  0  3  0  0  0  0  0  0
  162.3800  210.6960  155.5650 C   0  0  0  0  0  1  0  0  0  0  0  0
  161.0230  210.3540  156.1500 C   0  0  0  0  0  2  0  0  0  0  0  0
  160.7590  206.0470  149.5150 C   0  0  0  0  0  2  0  0  0  0  0  0
  161.3200  204.3880  145.6210 C   0  0  0  0  0  3  0  0  0  0  0  0
  160.9750  205.4620  148.1550 C   0  0  0  0  0  0  0  0  0  0  0  0
  161.4040  204.1390  148.0230 C   0  0  0  0  0  3  0  0  0  0  0  0
  161.5790  203.6040  146.7460 C   0  0  0  0  0  3  0  0  0  0  0  0
  160.8860  205.7040  145.7930 C   0  0  0  0  0  3  0  0  0  0  0  0
  160.7240  206.2100  147.0440 N   0  0  0  0  0  0  0  0  0  0  0  0
  1 21  1  1  0  0  0
  1  6  1  0  0  0  0
  1  2  1  0  0  0  0
  2  7  1  0  0  0  0
  3 11  1  0  0  0  0
  3  7  1  1  0  0  0
  4  5  1  6  0  0  0
  4  8  1  0  0  0  0
  6  3  1  0  0  0  0
  8 11  1  0  0  0  0
  9 10  1  0  0  0  0
 10  4  1  0  0  0  0
 10  6  1  0  0  0  0
 11 12  1  0  0  0  0
 12 16  1  0  0  0  0
 13 14  1  0  0  0  0
 15 14  1  0  0  0  0
 16 18  1  0  0  0  0
 17 16  1  0  0  0  0
 17 15  1  0  0  0  0
 18 13  1  0  0  0  0
 18 20  1  0  0  0  0
 19 20  1  0  0  0  0
 22 26  2  0  0  0  0
 22 25  1  0  0  0  0
 23 21  1  0  0  0  0
 24 23  1  0  0  0  0
 25 24  2  0  0  0  0
 26 27  1  0  0  0  0
 27 23  2  0  0  0  0
M  END
>  <MODEL>
8

>  <REMARK>
 VINA RESULT:      -6.8      2.250      8.278
  Name = 
  5 active torsions:
  status: ('A' for Active; 'I' for Inactive)
    1  A    between atoms: C_1  and  C_15
    2  A    between atoms: C_9  and  C_15
    3  A    between atoms: C_12  and  C_14
    4  A    between atoms: C_12  and  C_26
    5  A    between atoms: C_17  and  C_21
                            x       y       z     vdW  Elec       q    Type
                         _______ _______ _______ _____ _____    ______ ____

>  <TORSDO>
F 5

$$$$
=
 OpenBabel11062407413D

 27 30  0  0  1  0  0  0  0  0999 V2000
  162.2540  209.2630  149.3260 C   0  0  2  0  0  3  0  0  0  0  0  0
  163.0520  208.2800  148.6870 O   0  0  0  0  0  0  0  0  0  0  0  0
  162.4940  207.4370  150.6010 C   0  0  2  0  0  3  0  0  0  0  0  0
  161.6110  208.3750  153.0180 C   0  0  1  0  0  3  0  0  0  0  0  0
  160.9140  208.8850  154.1160 O   0  0  0  0  0  1  0  0  0  0  0  0
  161.5980  208.5980  150.4890 C   0  0  1  0  0  3  0  0  0  0  0  0
  162.8040  207.1090  149.2830 O   0  0  0  0  0  0  0  0  0  0  0  0
  161.1020  206.9580  152.6680 C   0  0  0  0  0  2  0  0  0  0  0  0
  160.4500  210.1730  151.8560 O   0  0  0  0  0  1  0  0  0  0  0  0
  161.5850  209.3610  151.8130 C   0  0  1  0  0  3  0  0  0  0  0  0
  161.8180  206.3400  151.4420 C   0  0  1  0  0  3  0  0  0  0  0  0
  160.8100  205.5280  150.6360 C   0  0  0  0  0  2  0  0  0  0  0  0
  159.7060  202.4590  149.3860 C   0  0  0  0  0  2  0  0  0  0  0  0
  160.4400  201.3160  150.1060 C   0  0  0  0  0  2  0  0  0  0  0  0
  161.5870  201.7910  151.0060 C   0  0  0  0  0  2  0  0  0  0  0  0
  161.3890  204.1780  150.2430 C   0  0  1  0  0  3  0  0  0  0  0  0
  161.3870  203.2340  151.4530 C   0  0  0  0  0  2  0  0  0  0  0  0
  160.6380  203.6240  149.0210 C   0  0  1  0  0  3  0  0  0  0  0  0
  161.9560  204.4030  147.0400 C   0  0  0  0  0  1  0  0  0  0  0  0
  161.6380  203.2250  147.9420 C   0  0  0  0  0  2  0  0  0  0  0  0
  161.2250  209.8500  148.3570 C   0  0  0  0  0  2  0  0  0  0  0  0
  162.1750  213.8130  147.0830 C   0  0  0  0  0  3  0  0  0  0  0  0
  161.5590  211.2450  147.9300 C   0  0  0  0  0  0  0  0  0  0  0  0
  162.7740  211.8200  148.3120 C   0  0  0  0  0  3  0  0  0  0  0  0
  163.0780  213.1140  147.8860 C   0  0  0  0  0  3  0  0  0  0  0  0
  160.9740  213.2030  146.7170 C   0  0  0  0  0  3  0  0  0  0  0  0
  160.6930  211.9430  147.1430 N   0  0  0  0  0  0  0  0  0  0  0  0
  1 21  1  6  0  0  0
  1  6  1  0  0  0  0
  2  7  1  0  0  0  0
  2  1  1  0  0  0  0
  3  7  1  6  0  0  0
  3 11  1  0  0  0  0
  4  5  1  1  0  0  0
  6  3  1  0  0  0  0
  6 10  1  0  0  0  0
  8  4  1  0  0  0  0
 10  9  1  0  0  0  0
 10  4  1  0  0  0  0
 11  8  1  0  0  0  0
 12 11  1  0  0  0  0
 13 14  1  0  0  0  0
 14 15  1  0  0  0  0
 15 17  1  0  0  0  0
 16 12  1  0  0  0  0
 16 17  1  0  0  0  0
 18 13  1  0  0  0  0
 18 16  1  0  0  0  0
 19 20  1  0  0  0  0
 20 18  1  0  0  0  0
 22 25  1  0  0  0  0
 23 24  1  0  0  0  0
 23 21  1  0  0  0  0
 25 24  2  0  0  0  0
 26 22  2  0  0  0  0
 26 27  1  0  0  0  0
 27 23  2  0  0  0  0
M  END
>  <MODEL>
9

>  <REMARK>
 VINA RESULT:      -6.7      3.047      4.781
  Name = 
  5 active torsions:
  status: ('A' for Active; 'I' for Inactive)
    1  A    between atoms: C_1  and  C_15
    2  A    between atoms: C_9  and  C_15
    3  A    between atoms: C_12  and  C_14
    4  A    between atoms: C_12  and  C_26
    5  A    between atoms: C_17  and  C_21
                            x       y       z     vdW  Elec       q    Type
                         _______ _______ _______ _____ _____    ______ ____

>  <TORSDO>
F 5

$$$$
