=
 OpenBabel11062409443D

 34 39  0  0  1  0  0  0  0  0999 V2000
  161.0420  207.7680  151.6820 N   0  0  0  0  0  0  0  0  0  0  0  0
  160.2930  211.1930  154.1530 C   0  0  0  0  0  2  0  0  0  0  0  0
  161.1660  206.3750  153.6030 N   0  0  0  0  0  2  0  0  0  0  0  0
  161.1660  208.9850  152.4900 C   0  0  2  0  0  3  0  0  0  0  0  0
  160.9350  207.4780  154.4790 C   0  0  0  0  0  0  0  0  0  0  0  0
  160.4350  208.3600  156.6780 C   0  0  0  0  0  3  0  0  0  0  0  0
  160.7500  207.2760  155.8510 C   0  0  0  0  0  3  0  0  0  0  0  0
  161.1160  206.5640  152.1800 C   0  0  0  0  0  0  0  0  0  0  0  0
  160.4720  209.8430  154.7620 C   0  0  0  0  0  0  0  0  0  0  0  0
  160.8140  208.7620  153.9400 C   0  0  0  0  0  0  0  0  0  0  0  0
  160.2900  209.6430  156.1350 C   0  0  0  0  0  3  0  0  0  0  0  0
  159.6190  211.0320  152.7920 C   0  0  0  0  0  2  0  0  0  0  0  0
  160.4750  210.1970  151.8080 C   0  0  1  0  0  3  0  0  0  0  0  0
  160.9040  202.9660  150.9810 C   0  0  0  0  0  3  0  0  0  0  0  0
  161.1660  205.5660  149.8920 C   0  0  0  0  0  3  0  0  0  0  0  0
  161.1300  203.1570  147.1240 C   0  0  0  0  0  0  0  0  0  0  0  0
  160.9800  202.0290  148.3800 S   0  0  0  0  0  0  0  0  0  0  0  0
  160.9960  203.1750  149.6090 C   0  0  0  0  0  0  0  0  0  0  0  0
  161.2040  204.4380  147.6690 C   0  0  0  0  0  0  0  0  0  0  0  0
  161.1240  204.4440  149.0630 C   0  0  0  0  0  0  0  0  0  0  0  0
  161.3440  205.5900  146.9020 O   0  0  0  0  0  1  0  0  0  0  0  0
  161.0760  205.3920  151.2860 C   0  0  0  0  0  0  0  0  0  0  0  0
  160.9440  204.0890  151.8210 C   0  0  0  0  0  3  0  0  0  0  0  0
  161.2180  202.8330  145.6700 C   0  0  1  0  0  3  0  0  0  0  0  0
  160.3650  201.6220  145.3490 C   0  0  0  0  0  1  0  0  0  0  0  0
  160.7940  203.9220  144.9080 O   0  0  0  0  0  1  0  0  0  0  0  0
  161.4630  211.0450  151.1210 N   0  0  2  0  0  0  0  0  0  0  0  0
  160.7810  212.2050  150.5530 C   0  0  0  0  0  2  0  0  0  0  0  0
  161.4990  212.5850  149.2770 C   0  0  1  0  0  3  0  0  0  0  0  0
  162.2880  211.3590  148.8870 C   0  0  0  0  0  2  0  0  0  0  0  0
  161.9830  210.3340  149.9560 C   0  0  0  0  0  2  0  0  0  0  0  0
  160.4800  212.9270  148.2050 C   0  0  0  0  0  2  0  0  0  0  0  0
  160.5780  212.0220  147.1480 O   0  0  0  0  0  0  0  0  0  0  0  0
  159.7000  212.5160  146.1830 C   0  0  0  0  0  1  0  0  0  0  0  0
  1  8  2  0  0  0  0
  2  9  1  0  0  0  0
  3  5  1  0  0  0  0
  4  1  1  6  0  0  0
  4 10  1  0  0  0  0
  5  7  1  0  0  0  0
  7  6  2  0  0  0  0
  8  3  1  0  0  0  0
  9 11  2  0  0  0  0
 10  5  2  0  0  0  0
 10  9  1  0  0  0  0
 11  6  1  0  0  0  0
 12  2  1  0  0  0  0
 13  4  1  0  0  0  0
 13 12  1  1  0  0  0
 14 23  1  0  0  0  0
 15 22  1  0  0  0  0
 16 19  2  0  0  0  0
 16 17  1  0  0  0  0
 17 18  1  0  0  0  0
 18 14  2  0  0  0  0
 19 20  1  0  0  0  0
 20 18  1  0  0  0  0
 20 15  2  0  0  0  0
 21 19  1  0  0  0  0
 22 23  2  0  0  0  0
 22  8  1  0  0  0  0
 24 25  1  1  0  0  0
 24 16  1  0  0  0  0
 26 24  1  0  0  0  0
 27 31  1  6  0  0  0
 27 13  1  0  0  0  0
 28 27  1  0  0  0  0
 29 32  1  6  0  0  0
 29 28  1  0  0  0  0
 30 29  1  0  0  0  0
 30 31  1  0  0  0  0
 33 32  1  0  0  0  0
 34 33  1  0  0  0  0
M  END
>  <MODEL>
1

>  <REMARK>
 VINA RESULT:      -9.8      0.000      0.000
  Name = 
  5 active torsions:
  status: ('A' for Active; 'I' for Inactive)
    1  A    between atoms: N_2  and  C_34
    2  A    between atoms: C_3  and  O_13
    3  A    between atoms: C_3  and  C_25
    4  A    between atoms: C_7  and  C_11
    5  A    between atoms: C_18  and  C_30
                            x       y       z     vdW  Elec       q    Type
                         _______ _______ _______ _____ _____    ______ ____

>  <TORSDO>
F 5

$$$$
=
 OpenBabel11062409443D

 34 39  0  0  1  0  0  0  0  0999 V2000
  160.6740  208.5420  152.2020 N   0  0  0  0  0  0  0  0  0  0  0  0
  159.5680  211.5730  155.0280 C   0  0  0  0  0  2  0  0  0  0  0  0
  161.1780  207.0380  153.9710 N   0  0  0  0  0  2  0  0  0  0  0  0
  160.6590  209.6920  153.1120 C   0  0  2  0  0  3  0  0  0  0  0  0
  160.8380  208.0090  154.9610 C   0  0  0  0  0  0  0  0  0  0  0  0
  160.3760  208.6090  157.2610 C   0  0  0  0  0  3  0  0  0  0  0  0
  160.7980  207.6660  156.3160 C   0  0  0  0  0  3  0  0  0  0  0  0
  160.9840  207.3320  152.5780 C   0  0  0  0  0  0  0  0  0  0  0  0
  160.0150  210.2280  155.4940 C   0  0  0  0  0  0  0  0  0  0  0  0
  160.4650  209.2930  154.5540 C   0  0  0  0  0  0  0  0  0  0  0  0
  159.9790  209.8880  156.8510 C   0  0  0  0  0  3  0  0  0  0  0  0
  158.8240  211.4110  153.7040 C   0  0  0  0  0  2  0  0  0  0  0  0
  159.7260  210.8180  152.5930 C   0  0  1  0  0  3  0  0  0  0  0  0
  161.1590  203.8550  151.0590 C   0  0  0  0  0  3  0  0  0  0  0  0
  161.1310  206.5550  150.2100 C   0  0  0  0  0  3  0  0  0  0  0  0
  161.3440  204.4160  147.2360 C   0  0  0  0  0  0  0  0  0  0  0  0
  161.3230  203.1690  148.3850 S   0  0  0  0  0  0  0  0  0  0  0  0
  161.2200  204.1950  149.7120 C   0  0  0  0  0  0  0  0  0  0  0  0
  161.2800  205.6430  147.8940 C   0  0  0  0  0  0  0  0  0  0  0  0
  161.2070  205.5140  149.2830 C   0  0  0  0  0  0  0  0  0  0  0  0
  161.2900  206.8670  147.2360 O   0  0  0  0  0  1  0  0  0  0  0  0
  161.0680  206.2470  151.5830 C   0  0  0  0  0  0  0  0  0  0  0  0
  161.0810  204.8950  151.9970 C   0  0  0  0  0  3  0  0  0  0  0  0
  161.4590  204.2350  145.7590 C   0  0  1  0  0  3  0  0  0  0  0  0
  162.8920  204.4500  145.3140 C   0  0  0  0  0  1  0  0  0  0  0  0
  161.0420  202.9530  145.3980 O   0  0  0  0  0  1  0  0  0  0  0  0
  160.5020  211.8770  151.9270 N   0  0  2  0  0  0  0  0  0  0  0  0
  159.6030  212.9670  151.5580 C   0  0  0  0  0  2  0  0  0  0  0  0
  160.1220  213.5830  150.2780 C   0  0  1  0  0  3  0  0  0  0  0  0
  161.0390  212.5430  149.6820 C   0  0  0  0  0  2  0  0  0  0  0  0
  160.9990  211.3790  150.6460 C   0  0  0  0  0  2  0  0  0  0  0  0
  158.9590  213.8680  149.3450 C   0  0  0  0  0  2  0  0  0  0  0  0
  157.7680  213.4300  149.9220 O   0  0  0  0  0  0  0  0  0  0  0  0
  156.8960  213.2710  148.8450 C   0  0  0  0  0  1  0  0  0  0  0  0
  1  8  2  0  0  0  0
  2  9  1  0  0  0  0
  3  5  1  0  0  0  0
  4  1  1  6  0  0  0
  4 10  1  0  0  0  0
  5  7  1  0  0  0  0
  7  6  2  0  0  0  0
  8  3  1  0  0  0  0
  9 11  2  0  0  0  0
 10  5  2  0  0  0  0
 10  9  1  0  0  0  0
 11  6  1  0  0  0  0
 12  2  1  0  0  0  0
 13  4  1  0  0  0  0
 13 12  1  1  0  0  0
 14 23  1  0  0  0  0
 15 22  1  0  0  0  0
 16 19  2  0  0  0  0
 16 17  1  0  0  0  0
 17 18  1  0  0  0  0
 18 14  2  0  0  0  0
 19 20  1  0  0  0  0
 20 18  1  0  0  0  0
 20 15  2  0  0  0  0
 21 19  1  0  0  0  0
 22 23  2  0  0  0  0
 22  8  1  0  0  0  0
 24 25  1  1  0  0  0
 24 16  1  0  0  0  0
 26 24  1  0  0  0  0
 27 31  1  6  0  0  0
 27 13  1  0  0  0  0
 28 27  1  0  0  0  0
 29 32  1  6  0  0  0
 29 28  1  0  0  0  0
 30 29  1  0  0  0  0
 30 31  1  0  0  0  0
 32 33  1  0  0  0  0
 34 33  1  0  0  0  0
M  END
>  <MODEL>
2

>  <REMARK>
 VINA RESULT:      -9.5      1.457      1.666
  Name = 
  5 active torsions:
  status: ('A' for Active; 'I' for Inactive)
    1  A    between atoms: N_2  and  C_34
    2  A    between atoms: C_3  and  O_13
    3  A    between atoms: C_3  and  C_25
    4  A    between atoms: C_7  and  C_11
    5  A    between atoms: C_18  and  C_30
                            x       y       z     vdW  Elec       q    Type
                         _______ _______ _______ _____ _____    ______ ____

>  <TORSDO>
F 5

$$$$
=
 OpenBabel11062409443D

 34 39  0  0  1  0  0  0  0  0999 V2000
  160.5510  209.1050  152.0100 N   0  0  0  0  0  0  0  0  0  0  0  0
  159.2780  211.2610  155.4930 C   0  0  0  0  0  2  0  0  0  0  0  0
  161.4190  207.3630  153.3720 N   0  0  0  0  0  2  0  0  0  0  0  0
  160.4530  210.0210  153.1510 C   0  0  2  0  0  3  0  0  0  0  0  0
  161.0320  208.0380  154.5690 C   0  0  0  0  0  0  0  0  0  0  0  0
  160.6950  208.0600  156.9670 C   0  0  0  0  0  3  0  0  0  0  0  0
  161.1620  207.4160  155.8150 C   0  0  0  0  0  3  0  0  0  0  0  0
  161.0630  207.9080  152.0920 C   0  0  0  0  0  0  0  0  0  0  0  0
  159.9520  209.9360  155.6240 C   0  0  0  0  0  0  0  0  0  0  0  0
  160.4460  209.3030  154.4770 C   0  0  0  0  0  0  0  0  0  0  0  0
  160.0840  209.3170  156.8720 C   0  0  0  0  0  3  0  0  0  0  0  0
  158.4510  211.2650  154.2080 C   0  0  0  0  0  2  0  0  0  0  0  0
  159.3260  211.0690  152.9460 C   0  0  1  0  0  3  0  0  0  0  0  0
  161.8150  206.8880  148.5110 C   0  0  0  0  0  3  0  0  0  0  0  0
  160.9010  205.7100  150.9170 C   0  0  0  0  0  3  0  0  0  0  0  0
  161.0360  203.1030  148.3390 C   0  0  0  0  0  0  0  0  0  0  0  0
  161.5750  204.3820  147.3650 S   0  0  0  0  0  0  0  0  0  0  0  0
  161.5000  205.5360  148.5850 C   0  0  0  0  0  0  0  0  0  0  0  0
  160.7860  203.5820  149.6240 C   0  0  0  0  0  0  0  0  0  0  0  0
  161.0520  204.9470  149.7580 C   0  0  0  0  0  0  0  0  0  0  0  0
  160.3200  202.7840  150.6620 O   0  0  0  0  0  1  0  0  0  0  0  0
  161.2120  207.0830  150.8780 C   0  0  0  0  0  0  0  0  0  0  0  0
  161.6690  207.6620  149.6710 C   0  0  0  0  0  3  0  0  0  0  0  0
  160.8180  201.6980  147.8850 C   0  0  1  0  0  3  0  0  0  0  0  0
  160.7720  201.6360  146.3710 C   0  0  0  0  0  1  0  0  0  0  0  0
  161.8410  200.8760  148.3590 O   0  0  0  0  0  1  0  0  0  0  0  0
  159.8820  212.3540  152.4890 N   0  0  2  0  0  0  0  0  0  0  0  0
  158.7900  213.3040  152.2960 C   0  0  0  0  0  2  0  0  0  0  0  0
  159.1680  214.2180  151.1520 C   0  0  1  0  0  3  0  0  0  0  0  0
  160.2540  213.4870  150.4040 C   0  0  0  0  0  2  0  0  0  0  0  0
  160.4460  212.1870  151.1510 C   0  0  0  0  0  2  0  0  0  0  0  0
  157.9600  214.4390  150.2600 C   0  0  0  0  0  2  0  0  0  0  0  0
  157.3430  213.2190  149.9820 O   0  0  0  0  0  0  0  0  0  0  0  0
  157.0920  213.2580  148.6110 C   0  0  0  0  0  1  0  0  0  0  0  0
  1  8  2  0  0  0  0
  2  9  1  0  0  0  0
  3  5  1  0  0  0  0
  4  1  1  6  0  0  0
  4 10  1  0  0  0  0
  5  7  1  0  0  0  0
  7  6  2  0  0  0  0
  8  3  1  0  0  0  0
  9 11  2  0  0  0  0
 10  5  2  0  0  0  0
 10  9  1  0  0  0  0
 11  6  1  0  0  0  0
 12  2  1  0  0  0  0
 13  4  1  0  0  0  0
 13 12  1  1  0  0  0
 14 18  2  0  0  0  0
 14 23  1  0  0  0  0
 16 19  2  0  0  0  0
 17 16  1  0  0  0  0
 17 18  1  0  0  0  0
 18 20  1  0  0  0  0
 19 20  1  0  0  0  0
 19 21  1  0  0  0  0
 20 15  2  0  0  0  0
 22 15  1  0  0  0  0
 22  8  1  0  0  0  0
 23 22  2  0  0  0  0
 24 25  1  6  0  0  0
 24 16  1  0  0  0  0
 24 26  1  0  0  0  0
 27 31  1  6  0  0  0
 27 13  1  0  0  0  0
 28 27  1  0  0  0  0
 29 32  1  6  0  0  0
 29 28  1  0  0  0  0
 30 31  1  0  0  0  0
 30 29  1  0  0  0  0
 33 32  1  0  0  0  0
 34 33  1  0  0  0  0
M  END
>  <MODEL>
3

>  <REMARK>
 VINA RESULT:      -9.4      2.115      2.590
  Name = 
  5 active torsions:
  status: ('A' for Active; 'I' for Inactive)
    1  A    between atoms: N_2  and  C_34
    2  A    between atoms: C_3  and  O_13
    3  A    between atoms: C_3  and  C_25
    4  A    between atoms: C_7  and  C_11
    5  A    between atoms: C_18  and  C_30
                            x       y       z     vdW  Elec       q    Type
                         _______ _______ _______ _____ _____    ______ ____

>  <TORSDO>
F 5

$$$$
=
 OpenBabel11062409443D

 34 39  0  0  1  0  0  0  0  0999 V2000
  161.5200  206.4620  149.4980 N   0  0  0  0  0  0  0  0  0  0  0  0
  162.0020  202.9040  147.1510 C   0  0  0  0  0  2  0  0  0  0  0  0
  160.6870  205.1820  151.3170 N   0  0  0  0  0  2  0  0  0  0  0  0
  161.3390  205.3480  148.5610 C   0  0  2  0  0  3  0  0  0  0  0  0
  160.8100  203.9640  150.5820 C   0  0  0  0  0  0  0  0  0  0  0  0
  160.7940  201.5450  150.4850 C   0  0  0  0  0  3  0  0  0  0  0  0
  160.5800  202.7300  151.1980 C   0  0  0  0  0  3  0  0  0  0  0  0
  161.1530  206.4160  150.7480 C   0  0  0  0  0  0  0  0  0  0  0  0
  161.4850  202.8270  148.5490 C   0  0  0  0  0  0  0  0  0  0  0  0
  161.2440  204.0120  149.2540 C   0  0  0  0  0  0  0  0  0  0  0  0
  161.2520  201.5920  149.1620 C   0  0  0  0  0  3  0  0  0  0  0  0
  162.9990  204.0580  147.0600 C   0  0  0  0  0  2  0  0  0  0  0  0
  162.3460  205.4240  147.3820 C   0  0  1  0  0  3  0  0  0  0  0  0
  161.9950  209.9390  151.8930 C   0  0  0  0  0  3  0  0  0  0  0  0
  160.8230  207.5810  152.9320 C   0  0  0  0  0  3  0  0  0  0  0  0
  160.8170  210.1290  155.5720 C   0  0  0  0  0  0  0  0  0  0  0  0
  161.5570  211.0750  154.3760 S   0  0  0  0  0  0  0  0  0  0  0  0
  161.5290  209.8730  153.2010 C   0  0  0  0  0  0  0  0  0  0  0  0
  160.5550  208.8620  155.0540 C   0  0  0  0  0  0  0  0  0  0  0  0
  160.9530  208.7240  153.7220 C   0  0  0  0  0  0  0  0  0  0  0  0
  159.9620  207.8410  155.7880 O   0  0  0  0  0  1  0  0  0  0  0  0
  161.2830  207.6120  151.6020 C   0  0  0  0  0  0  0  0  0  0  0  0
  161.8660  208.7950  151.0910 C   0  0  0  0  0  3  0  0  0  0  0  0
  160.5320  210.5640  156.9720 C   0  0  1  0  0  3  0  0  0  0  0  0
  161.2180  211.8850  157.2610 C   0  0  0  0  0  1  0  0  0  0  0  0
  159.1570  210.6960  157.1630 O   0  0  0  0  0  1  0  0  0  0  0  0
  161.7080  205.9960  146.1840 N   0  0  2  0  0  0  0  0  0  0  0  0
  160.4190  205.3410  145.9730 C   0  0  0  0  0  2  0  0  0  0  0  0
  160.1700  205.2790  144.4820 C   0  0  1  0  0  3  0  0  0  0  0  0
  161.5250  205.4740  143.8470 C   0  0  0  0  0  2  0  0  0  0  0  0
  162.4860  205.6350  145.0030 C   0  0  0  0  0  2  0  0  0  0  0  0
  159.6010  203.9200  144.1200 C   0  0  0  0  0  2  0  0  0  0  0  0
  160.4550  202.9110  144.5650 O   0  0  0  0  0  0  0  0  0  0  0  0
  159.6620  201.7640  144.5850 C   0  0  0  0  0  1  0  0  0  0  0  0
  1  8  2  0  0  0  0
  2  9  1  0  0  0  0
  4 10  1  1  0  0  0
  4  1  1  0  0  0  0
  5  7  1  0  0  0  0
  5  3  1  0  0  0  0
  6  7  2  0  0  0  0
  8  3  1  0  0  0  0
  8 22  1  0  0  0  0
  9 11  2  0  0  0  0
  9 10  1  0  0  0  0
 10  5  2  0  0  0  0
 11  6  1  0  0  0  0
 12  2  1  0  0  0  0
 13 12  1  6  0  0  0
 13  4  1  0  0  0  0
 14 18  1  0  0  0  0
 15 20  1  0  0  0  0
 16 24  1  0  0  0  0
 17 16  1  0  0  0  0
 18 20  2  0  0  0  0
 18 17  1  0  0  0  0
 19 16  2  0  0  0  0
 19 21  1  0  0  0  0
 20 19  1  0  0  0  0
 22 15  2  0  0  0  0
 23 22  1  0  0  0  0
 23 14  2  0  0  0  0
 24 26  1  0  0  0  0
 24 25  1  6  0  0  0
 27 31  1  6  0  0  0
 27 13  1  0  0  0  0
 28 27  1  0  0  0  0
 29 32  1  1  0  0  0
 29 28  1  0  0  0  0
 30 29  1  0  0  0  0
 30 31  1  0  0  0  0
 32 33  1  0  0  0  0
 33 34  1  0  0  0  0
M  END
>  <MODEL>
4

>  <REMARK>
 VINA RESULT:      -7.5      3.575      8.645
  Name = 
  5 active torsions:
  status: ('A' for Active; 'I' for Inactive)
    1  A    between atoms: N_2  and  C_34
    2  A    between atoms: C_3  and  O_13
    3  A    between atoms: C_3  and  C_25
    4  A    between atoms: C_7  and  C_11
    5  A    between atoms: C_18  and  C_30
                            x       y       z     vdW  Elec       q    Type
                         _______ _______ _______ _____ _____    ______ ____

>  <TORSDO>
F 5

$$$$
=
 OpenBabel11062409443D

 34 39  0  0  1  0  0  0  0  0999 V2000
  161.0460  206.4960  151.3010 N   0  0  0  0  0  0  0  0  0  0  0  0
  161.8600  210.5190  152.5480 C   0  0  0  0  0  2  0  0  0  0  0  0
  161.3010  207.1220  149.0230 N   0  0  0  0  0  2  0  0  0  0  0  0
  160.9400  207.8950  151.7290 C   0  0  2  0  0  3  0  0  0  0  0  0
  161.5650  208.4810  149.3740 C   0  0  0  0  0  0  0  0  0  0  0  0
  162.2940  210.7120  148.7810 C   0  0  0  0  0  3  0  0  0  0  0  0
  161.9550  209.4080  148.4020 C   0  0  0  0  0  3  0  0  0  0  0  0
  161.1380  206.1320  150.0510 C   0  0  0  0  0  0  0  0  0  0  0  0
  161.8750  210.1550  151.1010 C   0  0  0  0  0  0  0  0  0  0  0  0
  161.5070  208.8590  150.7180 C   0  0  0  0  0  0  0  0  0  0  0  0
  162.2610  211.0850  150.1300 C   0  0  0  0  0  3  0  0  0  0  0  0
  162.3480  209.3200  153.3600 C   0  0  0  0  0  2  0  0  0  0  0  0
  161.4320  208.0830  153.1890 C   0  0  1  0  0  3  0  0  0  0  0  0
  161.1390  202.3480  150.3840 C   0  0  0  0  0  3  0  0  0  0  0  0
  161.1620  204.3110  148.3440 C   0  0  0  0  0  3  0  0  0  0  0  0
  161.1830  201.0020  146.7580 C   0  0  0  0  0  0  0  0  0  0  0  0
  161.1700  200.4590  148.3640 S   0  0  0  0  0  0  0  0  0  0  0  0
  161.1550  201.9990  149.0380 C   0  0  0  0  0  0  0  0  0  0  0  0
  161.1860  202.3950  146.7480 C   0  0  0  0  0  0  0  0  0  0  0  0
  161.1660  202.9510  148.0290 C   0  0  0  0  0  0  0  0  0  0  0  0
  161.2080  203.1530  145.5820 O   0  0  0  0  0  1  0  0  0  0  0  0
  161.1450  204.7010  149.6970 C   0  0  0  0  0  0  0  0  0  0  0  0
  161.1330  203.7130  150.7090 C   0  0  0  0  0  3  0  0  0  0  0  0
  161.2320  200.1300  145.5470 C   0  0  1  0  0  3  0  0  0  0  0  0
  161.5700  198.7060  145.9390 C   0  0  0  0  0  1  0  0  0  0  0  0
  160.0030  200.1570  144.8870 O   0  0  0  0  0  1  0  0  0  0  0  0
  160.2940  208.1400  154.1220 N   0  0  2  0  0  0  0  0  0  0  0  0
  160.3400  209.4050  154.8520 C   0  0  0  0  0  2  0  0  0  0  0  0
  159.7870  209.1590  156.2380 C   0  0  1  0  0  3  0  0  0  0  0  0
  159.8690  207.6660  156.4390 C   0  0  0  0  0  2  0  0  0  0  0  0
  160.4690  207.1270  155.1590 C   0  0  0  0  0  2  0  0  0  0  0  0
  160.6440  209.8840  157.2610 C   0  0  0  0  0  2  0  0  0  0  0  0
  161.7180  210.5080  156.6260 O   0  0  0  0  0  0  0  0  0  0  0  0
  162.8470  209.9920  157.2610 C   0  0  0  0  0  1  0  0  0  0  0  0
  1  4  1  0  0  0  0
  2 12  1  0  0  0  0
  3  5  1  0  0  0  0
  3  8  1  0  0  0  0
  4 10  1  6  0  0  0
  4 13  1  0  0  0  0
  5 10  1  0  0  0  0
  6 11  2  0  0  0  0
  7  6  1  0  0  0  0
  7  5  2  0  0  0  0
  8  1  2  0  0  0  0
  9  2  1  0  0  0  0
 10  9  2  0  0  0  0
 11  9  1  0  0  0  0
 13 12  1  6  0  0  0
 13 27  1  0  0  0  0
 14 23  1  0  0  0  0
 15 22  1  0  0  0  0
 16 17  1  0  0  0  0
 17 18  1  0  0  0  0
 18 14  2  0  0  0  0
 19 16  2  0  0  0  0
 19 20  1  0  0  0  0
 20 15  2  0  0  0  0
 20 18  1  0  0  0  0
 21 19  1  0  0  0  0
 22  8  1  0  0  0  0
 22 23  2  0  0  0  0
 24 25  1  1  0  0  0
 24 16  1  0  0  0  0
 26 24  1  0  0  0  0
 27 28  1  1  0  0  0
 27 31  1  0  0  0  0
 28 29  1  0  0  0  0
 29 30  1  0  0  0  0
 29 32  1  1  0  0  0
 31 30  1  0  0  0  0
 33 32  1  0  0  0  0
 33 34  1  0  0  0  0
M  END
>  <MODEL>
5

>  <REMARK>
 VINA RESULT:      -7.5      2.315      5.136
  Name = 
  5 active torsions:
  status: ('A' for Active; 'I' for Inactive)
    1  A    between atoms: N_2  and  C_34
    2  A    between atoms: C_3  and  O_13
    3  A    between atoms: C_3  and  C_25
    4  A    between atoms: C_7  and  C_11
    5  A    between atoms: C_18  and  C_30
                            x       y       z     vdW  Elec       q    Type
                         _______ _______ _______ _____ _____    ______ ____

>  <TORSDO>
F 5

$$$$
=
 OpenBabel11062409443D

 34 39  0  0  1  0  0  0  0  0999 V2000
  161.5670  208.4700  149.9300 N   0  0  0  0  0  0  0  0  0  0  0  0
  160.6570  210.8320  153.3940 C   0  0  0  0  0  2  0  0  0  0  0  0
  161.9300  206.5600  151.2950 N   0  0  0  0  0  2  0  0  0  0  0  0
  161.6280  209.3730  151.0850 C   0  0  2  0  0  3  0  0  0  0  0  0
  161.6520  207.2960  152.4870 C   0  0  0  0  0  0  0  0  0  0  0  0
  161.2050  207.3750  154.8650 C   0  0  0  0  0  3  0  0  0  0  0  0
  161.5670  206.6500  153.7240 C   0  0  0  0  0  3  0  0  0  0  0  0
  161.7780  207.1860  150.0110 C   0  0  0  0  0  0  0  0  0  0  0  0
  160.9940  209.3850  153.5290 C   0  0  0  0  0  0  0  0  0  0  0  0
  161.3840  208.6640  152.3940 C   0  0  0  0  0  0  0  0  0  0  0  0
  160.9130  208.7410  154.7680 C   0  0  0  0  0  3  0  0  0  0  0  0
  159.9220  211.0430  152.0710 C   0  0  0  0  0  2  0  0  0  0  0  0
  160.7900  210.6590  150.8490 C   0  0  1  0  0  3  0  0  0  0  0  0
  162.2480  206.1330  146.3920 C   0  0  0  0  0  3  0  0  0  0  0  0
  161.3700  205.0180  148.8410 C   0  0  0  0  0  3  0  0  0  0  0  0
  161.1470  202.4280  146.2520 C   0  0  0  0  0  0  0  0  0  0  0  0
  161.7370  203.6650  145.2540 S   0  0  0  0  0  0  0  0  0  0  0  0
  161.8250  204.8110  146.4790 C   0  0  0  0  0  0  0  0  0  0  0  0
  161.0070  202.9170  147.5490 C   0  0  0  0  0  0  0  0  0  0  0  0
  161.3930  204.2530  147.6740 C   0  0  0  0  0  0  0  0  0  0  0  0
  160.5320  202.1520  148.6090 O   0  0  0  0  0  1  0  0  0  0  0  0
  161.7920  206.3610  148.7890 C   0  0  0  0  0  0  0  0  0  0  0  0
  162.2300  206.9080  147.5610 C   0  0  0  0  0  3  0  0  0  0  0  0
  160.7870  201.0490  145.8060 C   0  0  1  0  0  3  0  0  0  0  0  0
  161.2250  200.0320  146.8420 C   0  0  0  0  0  1  0  0  0  0  0  0
  159.4100  200.9530  145.6060 O   0  0  0  0  0  1  0  0  0  0  0  0
  161.6550  211.7800  150.4450 N   0  0  2  0  0  0  0  0  0  0  0  0
  160.8180  212.9300  150.1100 C   0  0  0  0  0  2  0  0  0  0  0  0
  161.5110  213.7010  149.0090 C   0  0  1  0  0  3  0  0  0  0  0  0
  162.4970  212.7310  148.4070 C   0  0  0  0  0  2  0  0  0  0  0  0
  162.3210  211.4490  149.1890 C   0  0  0  0  0  2  0  0  0  0  0  0
  160.4890  214.1350  147.9740 C   0  0  0  0  0  2  0  0  0  0  0  0
  159.7190  213.0420  147.5770 O   0  0  0  0  0  0  0  0  0  0  0  0
  158.4830  213.5900  147.2370 C   0  0  0  0  0  1  0  0  0  0  0  0
  1  8  2  0  0  0  0
  2  9  1  0  0  0  0
  3  5  1  0  0  0  0
  4  1  1  6  0  0  0
  4 10  1  0  0  0  0
  5  7  1  0  0  0  0
  7  6  2  0  0  0  0
  8  3  1  0  0  0  0
  9 11  2  0  0  0  0
 10  5  2  0  0  0  0
 10  9  1  0  0  0  0
 11  6  1  0  0  0  0
 12  2  1  0  0  0  0
 13  4  1  0  0  0  0
 13 12  1  1  0  0  0
 14 18  2  0  0  0  0
 14 23  1  0  0  0  0
 16 19  2  0  0  0  0
 17 16  1  0  0  0  0
 17 18  1  0  0  0  0
 18 20  1  0  0  0  0
 19 20  1  0  0  0  0
 19 21  1  0  0  0  0
 20 15  2  0  0  0  0
 22 15  1  0  0  0  0
 22  8  1  0  0  0  0
 23 22  2  0  0  0  0
 24 16  1  0  0  0  0
 24 25  1  1  0  0  0
 26 24  1  0  0  0  0
 27 31  1  6  0  0  0
 27 13  1  0  0  0  0
 28 27  1  0  0  0  0
 29 32  1  6  0  0  0
 29 28  1  0  0  0  0
 30 29  1  0  0  0  0
 30 31  1  0  0  0  0
 33 32  1  0  0  0  0
 34 33  1  0  0  0  0
M  END
>  <MODEL>
6

>  <REMARK>
 VINA RESULT:      -7.1      1.767      2.392
  Name = 
  5 active torsions:
  status: ('A' for Active; 'I' for Inactive)
    1  A    between atoms: N_2  and  C_34
    2  A    between atoms: C_3  and  O_13
    3  A    between atoms: C_3  and  C_25
    4  A    between atoms: C_7  and  C_11
    5  A    between atoms: C_18  and  C_30
                            x       y       z     vdW  Elec       q    Type
                         _______ _______ _______ _____ _____    ______ ____

>  <TORSDO>
F 5

$$$$
=
 OpenBabel11062409443D

 34 39  0  0  1  0  0  0  0  0999 V2000
  159.8460  209.4070  153.2790 N   0  0  0  0  0  0  0  0  0  0  0  0
  158.9860  212.4230  156.2060 C   0  0  0  0  0  2  0  0  0  0  0  0
  162.0000  209.0680  154.2220 N   0  0  0  0  0  2  0  0  0  0  0  0
  159.6710  210.6730  153.9990 C   0  0  2  0  0  3  0  0  0  0  0  0
  161.7790  210.0720  155.2130 C   0  0  0  0  0  0  0  0  0  0  0  0
  162.4280  211.2060  157.2520 C   0  0  0  0  0  3  0  0  0  0  0  0
  162.7050  210.2790  156.2400 C   0  0  0  0  0  3  0  0  0  0  0  0
  160.9430  208.7030  153.3200 C   0  0  0  0  0  0  0  0  0  0  0  0
  160.2930  211.7030  156.2190 C   0  0  0  0  0  0  0  0  0  0  0  0
  160.5850  210.7970  155.1930 C   0  0  0  0  0  0  0  0  0  0  0  0
  161.2200  211.9140  157.2460 C   0  0  0  0  0  3  0  0  0  0  0  0
  157.9040  211.4650  155.7090 C   0  0  0  0  0  2  0  0  0  0  0  0
  158.1710  210.9760  154.2650 C   0  0  1  0  0  3  0  0  0  0  0  0
  161.3020  205.0550  152.3240 C   0  0  0  0  0  3  0  0  0  0  0  0
  161.0910  207.5930  151.0880 C   0  0  0  0  0  3  0  0  0  0  0  0
  161.3770  205.0530  148.4560 C   0  0  0  0  0  0  0  0  0  0  0  0
  161.4560  203.9910  149.7750 S   0  0  0  0  0  0  0  0  0  0  0  0
  161.3160  205.1950  150.9400 C   0  0  0  0  0  0  0  0  0  0  0  0
  161.2510  206.3580  148.9290 C   0  0  0  0  0  0  0  0  0  0  0  0
  161.2130  206.4330  150.3230 C   0  0  0  0  0  0  0  0  0  0  0  0
  161.1730  207.4700  148.0970 O   0  0  0  0  0  1  0  0  0  0  0  0
  161.0740  207.4890  152.4930 C   0  0  0  0  0  0  0  0  0  0  0  0
  161.1780  206.2170  153.1000 C   0  0  0  0  0  3  0  0  0  0  0  0
  161.4740  204.6620  147.0190 C   0  0  1  0  0  3  0  0  0  0  0  0
  162.9200  204.6920  146.5640 C   0  0  0  0  0  1  0  0  0  0  0  0
  160.9490  203.3830  146.8330 O   0  0  0  0  0  1  0  0  0  0  0  0
  157.6490  211.9380  153.2800 N   0  0  2  0  0  0  0  0  0  0  0  0
  158.6930  212.2310  152.3010 C   0  0  0  0  0  2  0  0  0  0  0  0
  158.5210  213.6660  151.8570 C   0  0  1  0  0  3  0  0  0  0  0  0
  157.6790  214.3140  152.9280 C   0  0  0  0  0  2  0  0  0  0  0  0
  157.4100  213.2200  153.9370 C   0  0  0  0  0  2  0  0  0  0  0  0
  159.8810  214.3350  151.7690 C   0  0  0  0  0  2  0  0  0  0  0  0
  160.4100  214.1740  150.4890 O   0  0  0  0  0  0  0  0  0  0  0  0
  159.3440  214.4530  149.6330 C   0  0  0  0  0  1  0  0  0  0  0  0
  1  8  2  0  0  0  0
  2  9  1  0  0  0  0
  3  5  1  0  0  0  0
  4  1  1  1  0  0  0
  4 13  1  0  0  0  0
  4 10  1  0  0  0  0
  5  7  1  0  0  0  0
  7  6  2  0  0  0  0
  8  3  1  0  0  0  0
  9 11  2  0  0  0  0
 10  5  2  0  0  0  0
 10  9  1  0  0  0  0
 11  6  1  0  0  0  0
 12  2  1  0  0  0  0
 13 12  1  1  0  0  0
 14 23  1  0  0  0  0
 15 22  1  0  0  0  0
 16 19  2  0  0  0  0
 16 17  1  0  0  0  0
 17 18  1  0  0  0  0
 18 14  2  0  0  0  0
 19 20  1  0  0  0  0
 20 18  1  0  0  0  0
 20 15  2  0  0  0  0
 21 19  1  0  0  0  0
 22 23  2  0  0  0  0
 22  8  1  0  0  0  0
 24 25  1  1  0  0  0
 24 16  1  0  0  0  0
 26 24  1  0  0  0  0
 27 28  1  6  0  0  0
 27 31  1  0  0  0  0
 27 13  1  0  0  0  0
 29 32  1  1  0  0  0
 29 28  1  0  0  0  0
 29 30  1  0  0  0  0
 30 31  1  0  0  0  0
 33 32  1  0  0  0  0
 34 33  1  0  0  0  0
M  END
>  <MODEL>
7

>  <REMARK>
 VINA RESULT:      -6.8      2.341      3.331
  Name = 
  5 active torsions:
  status: ('A' for Active; 'I' for Inactive)
    1  A    between atoms: N_2  and  C_34
    2  A    between atoms: C_3  and  O_13
    3  A    between atoms: C_3  and  C_25
    4  A    between atoms: C_7  and  C_11
    5  A    between atoms: C_18  and  C_30
                            x       y       z     vdW  Elec       q    Type
                         _______ _______ _______ _____ _____    ______ ____

>  <TORSDO>
F 5

$$$$
