=
 OpenBabel11052422453D

 31 33  0  0  1  0  0  0  0  0999 V2000
  160.5990  202.6410  150.3980 C   0  0  0  0  0  0  0  0  0  0  0  0
  160.2410  206.3430  149.6520 C   0  0  0  0  0  2  0  0  0  0  0  0
  160.7290  205.0580  150.2680 C   0  0  0  0  0  0  0  0  0  0  0  0
  161.5390  202.6410  151.4310 C   0  0  0  0  0  3  0  0  0  0  0  0
  161.5050  207.4950  151.3770 N   0  0  0  0  0  0  0  0  0  0  0  0
  160.0830  201.4720  149.9530 F   0  0  0  0  0  0  0  0  0  0  0  0
  162.3010  206.3390  151.8000 C   0  0  0  0  0  2  0  0  0  0  0  0
  161.1940  207.5060  149.9380 C   0  0  1  0  0  3  0  0  0  0  0  0
  160.1940  203.8470  149.8200 C   0  0  0  0  0  3  0  0  0  0  0  0
  161.6660  205.0590  151.3290 C   0  0  0  0  0  0  0  0  0  0  0  0
  162.0730  203.8470  151.8930 C   0  0  0  0  0  3  0  0  0  0  0  0
  162.4390  207.3690  149.0570 C   0  0  0  0  0  2  0  0  0  0  0  0
  162.1200  207.6600  147.7300 O   0  0  0  0  0  0  0  0  0  0  0  0
  162.3100  206.4570  147.0490 C   0  0  0  0  0  2  0  0  0  0  0  0
  161.0460  206.0790  146.2910 C   0  0  0  0  0  2  0  0  0  0  0  0
  161.4060  203.5220  146.4010 C   0  0  1  0  0  3  0  0  0  0  0  0
  160.5650  204.5960  144.3200 O   0  0  0  0  0  1  0  0  0  0  0  0
  160.9380  202.2560  145.7020 C   0  0  0  0  0  1  0  0  0  0  0  0
  162.5790  204.1200  145.6260 C   0  0  0  0  0  2  0  0  0  0  0  0
  161.2170  204.7650  145.5450 C   0  0  1  0  0  0  0  0  0  0  0  0
  161.9510  208.7680  151.9670 C   0  0  0  0  0  2  0  0  0  0  0  0
  161.1540  209.3160  153.1620 C   0  0  2  0  0  3  0  0  0  0  0  0
  160.8020  208.2660  154.1270 C   0  0  0  0  0  0  0  0  0  0  0  0
  160.5070  207.4020  154.9160 C   0  0  0  0  0  3  0  0  0  0  0  0
  159.9720  210.2050  152.7860 C   0  0  0  0  0  2  0  0  0  0  0  0
  160.1880  211.6510  153.2150 C   0  0  0  0  0  2  0  0  0  0  0  0
  159.1400  212.0910  154.1850 C   0  0  0  0  0  3  0  0  0  0  0  0
  158.3990  211.1970  154.8400 C   0  0  0  0  0  3  0  0  0  0  0  0
  157.3570  211.6340  155.8130 C   0  0  0  0  0  2  0  0  0  0  0  0
  155.4840  210.5870  154.7880 O   0  0  0  0  0  1  0  0  0  0  0  0
  156.0270  211.8290  155.1100 C   0  0  0  0  0  2  0  0  0  0  0  0
  1  4  1  0  0  0  0
  2  8  1  0  0  0  0
  2  3  1  0  0  0  0
  3 10  2  0  0  0  0
  4 11  2  0  0  0  0
  5  7  1  0  0  0  0
  5 21  1  0  0  0  0
  6  1  1  0  0  0  0
  8 12  1  6  0  0  0
  8  5  1  0  0  0  0
  9  3  1  0  0  0  0
  9  1  2  0  0  0  0
 10  7  1  0  0  0  0
 10 11  1  0  0  0  0
 13 12  1  0  0  0  0
 14 13  1  0  0  0  0
 15 14  1  0  0  0  0
 16 18  1  6  0  0  0
 19 16  1  0  0  0  0
 20 17  1  6  0  0  0
 20 19  1  0  0  0  0
 20 15  1  0  0  0  0
 20 16  1  0  0  0  0
 22 21  1  6  0  0  0
 22 23  1  0  0  0  0
 23 24  3  0  0  0  0
 25 22  1  0  0  0  0
 25 26  1  0  0  0  0
 26 27  1  0  0  0  0
 27 28  2  0  0  0  0
 28 29  1  0  0  0  0
 30 31  1  0  0  0  0
 31 29  1  0  0  0  0
M  END
>  <MODEL>
1

>  <REMARK>
 VINA RESULT:      -7.3      0.000      0.000
  Name = 
  13 active torsions:
  status: ('A' for Active; 'I' for Inactive)
    1  A    between atoms: C_1  and  C_11
    2  A    between atoms: C_1  and  C_24
    3  A    between atoms: C_3  and  C_9
    4  A    between atoms: C_5  and  O_14
    5  A    between atoms: C_5  and  C_21
    6  A    between atoms: C_6  and  C_7
    7  A    between atoms: C_6  and  C_19
    8  A    between atoms: C_7  and  C_9
    9  A    between atoms: C_9  and  C_23
   10  A    between atoms: C_10  and  O_14
   11  A    between atoms: C_10  and  C_18
   12  A    between atoms: N_15  and  C_23
   13  A    between atoms: C_18  and  C_31
                            x       y       z     vdW  Elec       q    Type
                         _______ _______ _______ _____ _____    ______ ____

>  <TORSDO>
F 13

$$$$
=
 OpenBabel11052422453D

 31 33  0  0  1  0  0  0  0  0999 V2000
  160.6210  202.5030  150.3560 C   0  0  0  0  0  0  0  0  0  0  0  0
  160.2410  206.2000  149.5950 C   0  0  0  0  0  2  0  0  0  0  0  0
  160.7320  204.9210  150.2210 C   0  0  0  0  0  0  0  0  0  0  0  0
  161.5470  202.5140  151.4020 C   0  0  0  0  0  3  0  0  0  0  0  0
  161.4700  207.3670  151.3350 N   0  0  0  0  0  0  0  0  0  0  0  0
  160.1210  201.3290  149.9070 F   0  0  0  0  0  0  0  0  0  0  0  0
  162.2710  206.2190  151.7720 C   0  0  0  0  0  2  0  0  0  0  0  0
  161.1790  207.3720  149.8910 C   0  0  1  0  0  3  0  0  0  0  0  0
  160.2140  203.7040  149.7690 C   0  0  0  0  0  3  0  0  0  0  0  0
  161.6530  204.9330  151.2950 C   0  0  0  0  0  0  0  0  0  0  0  0
  162.0630  203.7260  151.8680 C   0  0  0  0  0  3  0  0  0  0  0  0
  162.4380  207.2440  149.0280 C   0  0  0  0  0  2  0  0  0  0  0  0
  162.1460  207.5780  147.7050 O   0  0  0  0  0  0  0  0  0  0  0  0
  162.3400  206.3950  146.9900 C   0  0  0  0  0  2  0  0  0  0  0  0
  161.1040  206.0750  146.1620 C   0  0  0  0  0  2  0  0  0  0  0  0
  161.4690  203.5330  146.4490 C   0  0  1  0  0  3  0  0  0  0  0  0
  160.4550  204.4420  144.3660 O   0  0  0  0  0  1  0  0  0  0  0  0
  160.9410  202.2180  145.8970 C   0  0  0  0  0  1  0  0  0  0  0  0
  162.5720  204.0560  145.5300 C   0  0  0  0  0  2  0  0  0  0  0  0
  161.2090  204.7040  145.5140 C   0  0  1  0  0  0  0  0  0  0  0  0
  161.8970  208.6460  151.9270 C   0  0  0  0  0  2  0  0  0  0  0  0
  161.1180  209.1570  153.1500 C   0  0  2  0  0  3  0  0  0  0  0  0
  160.8010  208.0820  154.0990 C   0  0  0  0  0  0  0  0  0  0  0  0
  160.5440  207.1940  154.8750 C   0  0  0  0  0  3  0  0  0  0  0  0
  159.9180  210.0390  152.8180 C   0  0  0  0  0  2  0  0  0  0  0  0
  160.1060  211.4670  153.3160 C   0  0  0  0  0  2  0  0  0  0  0  0
  160.9020  211.5000  154.5810 C   0  0  0  0  0  3  0  0  0  0  0  0
  160.2960  211.4770  155.7680 C   0  0  0  0  0  3  0  0  0  0  0  0
  161.0890  211.5030  157.0310 C   0  0  0  0  0  2  0  0  0  0  0  0
  163.3070  210.6440  157.0450 O   0  0  0  0  0  1  0  0  0  0  0  0
  161.9670  210.2690  157.1290 C   0  0  0  0  0  2  0  0  0  0  0  0
  1  4  1  0  0  0  0
  2  8  1  0  0  0  0
  2  3  1  0  0  0  0
  3 10  2  0  0  0  0
  4 11  2  0  0  0  0
  5  7  1  0  0  0  0
  5 21  1  0  0  0  0
  6  1  1  0  0  0  0
  8 12  1  6  0  0  0
  8  5  1  0  0  0  0
  9  3  1  0  0  0  0
  9  1  2  0  0  0  0
 10  7  1  0  0  0  0
 10 11  1  0  0  0  0
 13 12  1  0  0  0  0
 14 13  1  0  0  0  0
 15 14  1  0  0  0  0
 16 18  1  6  0  0  0
 19 16  1  0  0  0  0
 20 17  1  6  0  0  0
 20 19  1  0  0  0  0
 20 15  1  0  0  0  0
 20 16  1  0  0  0  0
 22 21  1  6  0  0  0
 22 23  1  0  0  0  0
 23 24  3  0  0  0  0
 25 22  1  0  0  0  0
 25 26  1  0  0  0  0
 26 27  1  0  0  0  0
 27 28  2  0  0  0  0
 28 29  1  0  0  0  0
 29 31  1  0  0  0  0
 30 31  1  0  0  0  0
M  END
>  <MODEL>
2

>  <REMARK>
 VINA RESULT:      -7.2      1.805      2.066
  Name = 
  13 active torsions:
  status: ('A' for Active; 'I' for Inactive)
    1  A    between atoms: C_1  and  C_11
    2  A    between atoms: C_1  and  C_24
    3  A    between atoms: C_3  and  C_9
    4  A    between atoms: C_5  and  O_14
    5  A    between atoms: C_5  and  C_21
    6  A    between atoms: C_6  and  C_7
    7  A    between atoms: C_6  and  C_19
    8  A    between atoms: C_7  and  C_9
    9  A    between atoms: C_9  and  C_23
   10  A    between atoms: C_10  and  O_14
   11  A    between atoms: C_10  and  C_18
   12  A    between atoms: N_15  and  C_23
   13  A    between atoms: C_18  and  C_31
                            x       y       z     vdW  Elec       q    Type
                         _______ _______ _______ _____ _____    ______ ____

>  <TORSDO>
F 13

$$$$
=
 OpenBabel11052422453D

 31 33  0  0  1  0  0  0  0  0999 V2000
  160.6330  202.6380  150.4180 C   0  0  0  0  0  0  0  0  0  0  0  0
  160.2540  206.3220  149.5940 C   0  0  0  0  0  2  0  0  0  0  0  0
  160.7440  205.0530  150.2420 C   0  0  0  0  0  0  0  0  0  0  0  0
  161.5570  202.6670  151.4650 C   0  0  0  0  0  3  0  0  0  0  0  0
  161.4800  207.5180  151.3150 N   0  0  0  0  0  0  0  0  0  0  0  0
  160.1340  201.4560  149.9880 F   0  0  0  0  0  0  0  0  0  0  0  0
  162.2800  206.3780  151.7730 C   0  0  0  0  0  2  0  0  0  0  0  0
  161.1920  207.4980  149.8710 C   0  0  1  0  0  3  0  0  0  0  0  0
  160.2260  203.8280  149.8100 C   0  0  0  0  0  3  0  0  0  0  0  0
  161.6640  205.0840  151.3170 C   0  0  0  0  0  0  0  0  0  0  0  0
  162.0730  203.8870  151.9110 C   0  0  0  0  0  3  0  0  0  0  0  0
  162.4510  207.3560  149.0120 C   0  0  0  0  0  2  0  0  0  0  0  0
  162.1470  207.5990  147.6720 O   0  0  0  0  0  0  0  0  0  0  0  0
  162.3250  206.3670  147.0400 C   0  0  0  0  0  2  0  0  0  0  0  0
  161.1590  206.0870  146.1040 C   0  0  0  0  0  2  0  0  0  0  0  0
  161.4940  203.5560  146.5080 C   0  0  1  0  0  3  0  0  0  0  0  0
  160.4720  204.3780  144.3930 O   0  0  0  0  0  1  0  0  0  0  0  0
  160.9450  202.2230  146.0230 C   0  0  0  0  0  1  0  0  0  0  0  0
  162.5950  204.0210  145.5550 C   0  0  0  0  0  2  0  0  0  0  0  0
  161.2410  204.6840  145.5210 C   0  0  1  0  0  0  0  0  0  0  0  0
  161.9060  208.8070  151.8860 C   0  0  0  0  0  2  0  0  0  0  0  0
  161.1130  209.3480  153.0870 C   0  0  2  0  0  3  0  0  0  0  0  0
  160.8350  208.3090  154.0870 C   0  0  0  0  0  0  0  0  0  0  0  0
  160.6000  207.4520  154.9030 C   0  0  0  0  0  3  0  0  0  0  0  0
  159.8820  210.1720  152.7190 C   0  0  0  0  0  2  0  0  0  0  0  0
  159.6060  211.2690  153.7400 C   0  0  0  0  0  2  0  0  0  0  0  0
  159.6810  212.6240  153.1130 C   0  0  0  0  0  3  0  0  0  0  0  0
  159.5660  212.7710  151.7930 C   0  0  0  0  0  3  0  0  0  0  0  0
  159.6340  214.1230  151.1670 C   0  0  0  0  0  2  0  0  0  0  0  0
  160.8470  212.7660  149.6350 O   0  0  0  0  0  1  0  0  0  0  0  0
  160.3270  214.0470  149.8190 C   0  0  0  0  0  2  0  0  0  0  0  0
  1  4  1  0  0  0  0
  2  8  1  0  0  0  0
  2  3  1  0  0  0  0
  3 10  2  0  0  0  0
  4 11  2  0  0  0  0
  5  7  1  0  0  0  0
  5 21  1  0  0  0  0
  6  1  1  0  0  0  0
  8 12  1  6  0  0  0
  8  5  1  0  0  0  0
  9  3  1  0  0  0  0
  9  1  2  0  0  0  0
 10  7  1  0  0  0  0
 10 11  1  0  0  0  0
 13 12  1  0  0  0  0
 14 13  1  0  0  0  0
 15 14  1  0  0  0  0
 16 18  1  6  0  0  0
 19 16  1  0  0  0  0
 20 17  1  6  0  0  0
 20 19  1  0  0  0  0
 20 15  1  0  0  0  0
 20 16  1  0  0  0  0
 22 21  1  6  0  0  0
 22 23  1  0  0  0  0
 23 24  3  0  0  0  0
 25 22  1  0  0  0  0
 25 26  1  0  0  0  0
 27 26  1  0  0  0  0
 28 27  2  0  0  0  0
 29 28  1  0  0  0  0
 30 31  1  0  0  0  0
 31 29  1  0  0  0  0
M  END
>  <MODEL>
3

>  <REMARK>
 VINA RESULT:      -7.2      1.698      2.275
  Name = 
  13 active torsions:
  status: ('A' for Active; 'I' for Inactive)
    1  A    between atoms: C_1  and  C_11
    2  A    between atoms: C_1  and  C_24
    3  A    between atoms: C_3  and  C_9
    4  A    between atoms: C_5  and  O_14
    5  A    between atoms: C_5  and  C_21
    6  A    between atoms: C_6  and  C_7
    7  A    between atoms: C_6  and  C_19
    8  A    between atoms: C_7  and  C_9
    9  A    between atoms: C_9  and  C_23
   10  A    between atoms: C_10  and  O_14
   11  A    between atoms: C_10  and  C_18
   12  A    between atoms: N_15  and  C_23
   13  A    between atoms: C_18  and  C_31
                            x       y       z     vdW  Elec       q    Type
                         _______ _______ _______ _____ _____    ______ ____

>  <TORSDO>
F 13

$$$$
=
 OpenBabel11052422453D

 31 33  0  0  1  0  0  0  0  0999 V2000
  160.6680  202.9710  150.6840 C   0  0  0  0  0  0  0  0  0  0  0  0
  160.2420  206.5240  149.4220 C   0  0  0  0  0  2  0  0  0  0  0  0
  160.7320  205.3520  150.2320 C   0  0  0  0  0  0  0  0  0  0  0  0
  161.5460  203.1460  151.7560 C   0  0  0  0  0  3  0  0  0  0  0  0
  161.3680  207.9430  151.0390 N   0  0  0  0  0  0  0  0  0  0  0  0
  160.2140  201.7340  150.3750 F   0  0  0  0  0  0  0  0  0  0  0  0
  162.1730  206.8860  151.6580 C   0  0  0  0  0  2  0  0  0  0  0  0
  161.1410  207.7490  149.5970 C   0  0  1  0  0  3  0  0  0  0  0  0
  160.2610  204.0720  149.9260 C   0  0  0  0  0  3  0  0  0  0  0  0
  161.6050  205.5310  151.3320 C   0  0  0  0  0  0  0  0  0  0  0  0
  162.0150  204.4220  152.0770 C   0  0  0  0  0  3  0  0  0  0  0  0
  162.4390  207.5420  148.8110 C   0  0  0  0  0  2  0  0  0  0  0  0
  162.1870  207.6270  147.4410 O   0  0  0  0  0  0  0  0  0  0  0  0
  162.4050  206.3340  146.9610 C   0  0  0  0  0  2  0  0  0  0  0  0
  161.4180  206.0160  145.8480 C   0  0  0  0  0  2  0  0  0  0  0  0
  161.5720  203.5990  146.7530 C   0  0  1  0  0  3  0  0  0  0  0  0
  160.5300  204.0620  144.5410 O   0  0  0  0  0  1  0  0  0  0  0  0
  160.9010  202.2480  146.5660 C   0  0  0  0  0  1  0  0  0  0  0  0
  162.6650  203.7680  145.6990 C   0  0  0  0  0  2  0  0  0  0  0  0
  161.3660  204.5230  145.5630 C   0  0  1  0  0  0  0  0  0  0  0  0
  161.7400  209.3000  151.4720 C   0  0  0  0  0  2  0  0  0  0  0  0
  161.0650  209.8520  152.7390 C   0  0  2  0  0  3  0  0  0  0  0  0
  159.9990  210.8140  152.4300 C   0  0  0  0  0  0  0  0  0  0  0  0
  159.1210  211.6000  152.1720 C   0  0  0  0  0  3  0  0  0  0  0  0
  162.0320  210.3510  153.8100 C   0  0  0  0  0  2  0  0  0  0  0  0
  161.3020  211.0220  154.9670 C   0  0  0  0  0  2  0  0  0  0  0  0
  161.2780  210.1440  156.1760 C   0  0  0  0  0  3  0  0  0  0  0  0
  161.3180  208.8170  156.0550 C   0  0  0  0  0  3  0  0  0  0  0  0
  161.3020  207.9390  157.2600 C   0  0  0  0  0  2  0  0  0  0  0  0
  159.3220  207.1780  156.1850 O   0  0  0  0  0  1  0  0  0  0  0  0
  160.3310  206.7900  157.0640 C   0  0  0  0  0  2  0  0  0  0  0  0
  1  4  1  0  0  0  0
  2  8  1  0  0  0  0
  2  3  1  0  0  0  0
  3 10  2  0  0  0  0
  4 11  2  0  0  0  0
  5 21  1  0  0  0  0
  5  7  1  0  0  0  0
  6  1  1  0  0  0  0
  8 12  1  6  0  0  0
  8  5  1  0  0  0  0
  9  3  1  0  0  0  0
  9  1  2  0  0  0  0
 10  7  1  0  0  0  0
 10 11  1  0  0  0  0
 13 12  1  0  0  0  0
 14 13  1  0  0  0  0
 15 14  1  0  0  0  0
 16 18  1  6  0  0  0
 19 16  1  0  0  0  0
 20 17  1  6  0  0  0
 20 19  1  0  0  0  0
 20 15  1  0  0  0  0
 20 16  1  0  0  0  0
 22 21  1  6  0  0  0
 22 25  1  0  0  0  0
 23 22  1  0  0  0  0
 24 23  3  0  0  0  0
 25 26  1  0  0  0  0
 26 27  1  0  0  0  0
 28 27  2  0  0  0  0
 28 29  1  0  0  0  0
 30 31  1  0  0  0  0
 31 29  1  0  0  0  0
M  END
>  <MODEL>
4

>  <REMARK>
 VINA RESULT:      -6.8      1.710      2.463
  Name = 
  13 active torsions:
  status: ('A' for Active; 'I' for Inactive)
    1  A    between atoms: C_1  and  C_11
    2  A    between atoms: C_1  and  C_24
    3  A    between atoms: C_3  and  C_9
    4  A    between atoms: C_5  and  O_14
    5  A    between atoms: C_5  and  C_21
    6  A    between atoms: C_6  and  C_7
    7  A    between atoms: C_6  and  C_19
    8  A    between atoms: C_7  and  C_9
    9  A    between atoms: C_9  and  C_23
   10  A    between atoms: C_10  and  O_14
   11  A    between atoms: C_10  and  C_18
   12  A    between atoms: N_15  and  C_23
   13  A    between atoms: C_18  and  C_31
                            x       y       z     vdW  Elec       q    Type
                         _______ _______ _______ _____ _____    ______ ____

>  <TORSDO>
F 13

$$$$
=
 OpenBabel11052422453D

 31 33  0  0  1  0  0  0  0  0999 V2000
  161.2080  202.1830  150.7650 C   0  0  0  0  0  0  0  0  0  0  0  0
  162.4970  205.2950  152.5100 C   0  0  0  0  0  2  0  0  0  0  0  0
  161.7240  204.4110  151.5650 C   0  0  0  0  0  0  0  0  0  0  0  0
  160.3750  202.7230  149.7820 C   0  0  0  0  0  3  0  0  0  0  0  0
  161.7110  207.1730  151.1860 N   0  0  0  0  0  0  0  0  0  0  0  0
  161.3590  200.8410  150.8610 F   0  0  0  0  0  0  0  0  0  0  0  0
  160.6630  206.4430  150.4660 C   0  0  0  0  0  2  0  0  0  0  0  0
  161.9140  206.7080  152.5680 C   0  0  1  0  0  3  0  0  0  0  0  0
  161.8820  203.0250  151.6520 C   0  0  0  0  0  3  0  0  0  0  0  0
  160.8970  204.9600  150.5560 C   0  0  0  0  0  0  0  0  0  0  0  0
  160.2180  204.1080  149.6800 C   0  0  0  0  0  3  0  0  0  0  0  0
  160.6220  206.6890  153.3890 C   0  0  0  0  0  2  0  0  0  0  0  0
  160.9070  206.9110  154.7360 O   0  0  0  0  0  0  0  0  0  0  0  0
  161.1890  208.2750  154.8190 C   0  0  0  0  0  2  0  0  0  0  0  0
  160.0360  209.0090  155.4860 C   0  0  0  0  0  2  0  0  0  0  0  0
  159.9940  210.4110  153.3140 C   0  0  1  0  0  3  0  0  0  0  0  0
  158.7740  211.1780  155.3430 O   0  0  0  0  0  1  0  0  0  0  0  0
  159.1460  211.4780  152.6420 C   0  0  0  0  0  1  0  0  0  0  0  0
  160.9740  211.0810  154.2770 C   0  0  0  0  0  2  0  0  0  0  0  0
  159.7700  210.3490  154.8170 C   0  0  1  0  0  0  0  0  0  0  0  0
  161.6650  208.6300  150.9790 C   0  0  0  0  0  2  0  0  0  0  0  0
  162.1670  209.1730  149.6310 C   0  0  2  0  0  3  0  0  0  0  0  0
  162.0190  210.6300  149.5250 C   0  0  0  0  0  0  0  0  0  0  0  0
  161.8930  211.8260  149.4320 C   0  0  0  0  0  3  0  0  0  0  0  0
  161.6400  208.4260  148.4090 C   0  0  0  0  0  2  0  0  0  0  0  0
  162.6270  207.3740  147.9160 C   0  0  0  0  0  2  0  0  0  0  0  0
  161.9340  206.3050  147.1340 C   0  0  0  0  0  3  0  0  0  0  0  0
  162.5260  205.1320  146.9100 C   0  0  0  0  0  3  0  0  0  0  0  0
  161.8330  204.0620  146.1360 C   0  0  0  0  0  2  0  0  0  0  0  0
  160.2130  203.8630  144.4060 O   0  0  0  0  0  1  0  0  0  0  0  0
  161.3110  204.6140  144.8230 C   0  0  0  0  0  2  0  0  0  0  0  0
  1  6  1  0  0  0  0
  1  9  1  0  0  0  0
  2  8  1  0  0  0  0
  3  9  2  0  0  0  0
  3  2  1  0  0  0  0
  4  1  2  0  0  0  0
  5  8  1  0  0  0  0
  7 10  1  0  0  0  0
  7  5  1  0  0  0  0
  8 12  1  1  0  0  0
 10  3  1  0  0  0  0
 11  4  1  0  0  0  0
 11 10  2  0  0  0  0
 12 13  1  0  0  0  0
 13 14  1  0  0  0  0
 14 15  1  0  0  0  0
 16 18  1  6  0  0  0
 16 19  1  0  0  0  0
 16 20  1  0  0  0  0
 19 20  1  0  0  0  0
 20 17  1  1  0  0  0
 20 15  1  0  0  0  0
 21  5  1  0  0  0  0
 22 25  1  6  0  0  0
 22 21  1  0  0  0  0
 23 22  1  0  0  0  0
 24 23  3  0  0  0  0
 26 25  1  0  0  0  0
 27 26  1  0  0  0  0
 28 27  2  0  0  0  0
 29 28  1  0  0  0  0
 30 31  1  0  0  0  0
 31 29  1  0  0  0  0
M  END
>  <MODEL>
5

>  <REMARK>
 VINA RESULT:      -6.4      1.910      7.716
  Name = 
  13 active torsions:
  status: ('A' for Active; 'I' for Inactive)
    1  A    between atoms: C_1  and  C_11
    2  A    between atoms: C_1  and  C_24
    3  A    between atoms: C_3  and  C_9
    4  A    between atoms: C_5  and  O_14
    5  A    between atoms: C_5  and  C_21
    6  A    between atoms: C_6  and  C_7
    7  A    between atoms: C_6  and  C_19
    8  A    between atoms: C_7  and  C_9
    9  A    between atoms: C_9  and  C_23
   10  A    between atoms: C_10  and  O_14
   11  A    between atoms: C_10  and  C_18
   12  A    between atoms: N_15  and  C_23
   13  A    between atoms: C_18  and  C_31
                            x       y       z     vdW  Elec       q    Type
                         _______ _______ _______ _____ _____    ______ ____

>  <TORSDO>
F 13

$$$$
=
 OpenBabel11052422453D

 31 33  0  0  1  0  0  0  0  0999 V2000
  160.5820  210.8020  155.9970 C   0  0  0  0  0  0  0  0  0  0  0  0
  162.6490  210.0120  152.9160 C   0  0  0  0  0  2  0  0  0  0  0  0
  161.6140  209.8880  154.0040 C   0  0  0  0  0  0  0  0  0  0  0  0
  159.7620  209.6760  156.0960 C   0  0  0  0  0  3  0  0  0  0  0  0
  162.0960  207.7250  152.3130 N   0  0  0  0  0  0  0  0  0  0  0  0
  160.4780  211.7970  156.9090 F   0  0  0  0  0  0  0  0  0  0  0  0
  160.8490  207.6460  153.0810 C   0  0  0  0  0  2  0  0  0  0  0  0
  162.3640  209.0590  151.7520 C   0  0  1  0  0  3  0  0  0  0  0  0
  161.5060  210.9070  154.9550 C   0  0  0  0  0  3  0  0  0  0  0  0
  160.7980  208.7370  154.1150 C   0  0  0  0  0  0  0  0  0  0  0  0
  159.8680  208.6470  155.1550 C   0  0  0  0  0  3  0  0  0  0  0  0
  161.1970  209.6050  150.9250 C   0  0  0  0  0  2  0  0  0  0  0  0
  161.4100  210.9510  150.6260 O   0  0  0  0  0  0  0  0  0  0  0  0
  162.3110  210.9390  149.5600 C   0  0  0  0  0  2  0  0  0  0  0  0
  161.5600  210.8130  148.2430 C   0  0  0  0  0  2  0  0  0  0  0  0
  162.5110  213.0100  147.2670 C   0  0  1  0  0  3  0  0  0  0  0  0
  160.1550  212.3400  146.8250 O   0  0  0  0  0  1  0  0  0  0  0  0
  162.2370  213.9880  146.1350 C   0  0  0  0  0  1  0  0  0  0  0  0
  161.6410  213.3770  148.4690 C   0  0  0  0  0  2  0  0  0  0  0  0
  161.2900  212.1770  147.6250 C   0  0  1  0  0  0  0  0  0  0  0  0
  162.3120  206.5760  151.4170 C   0  0  0  0  0  2  0  0  0  0  0  0
  161.0760  205.7730  150.9810 C   0  0  2  0  0  3  0  0  0  0  0  0
  161.0350  204.4360  151.5870 C   0  0  0  0  0  0  0  0  0  0  0  0
  161.0080  203.3400  152.0900 C   0  0  0  0  0  3  0  0  0  0  0  0
  160.8270  205.7570  149.4750 C   0  0  0  0  0  2  0  0  0  0  0  0
  161.0370  204.3690  148.8790 C   0  0  0  0  0  2  0  0  0  0  0  0
  161.5740  204.4540  147.4870 C   0  0  0  0  0  3  0  0  0  0  0  0
  161.8240  205.6350  146.9230 C   0  0  0  0  0  3  0  0  0  0  0  0
  162.3650  205.7210  145.5360 C   0  0  0  0  0  2  0  0  0  0  0  0
  160.0790  206.0670  144.9810 O   0  0  0  0  0  1  0  0  0  0  0  0
  161.2610  205.4890  144.5220 C   0  0  0  0  0  2  0  0  0  0  0  0
  1  4  1  0  0  0  0
  1  6  1  0  0  0  0
  2  3  1  0  0  0  0
  3 10  2  0  0  0  0
  3  9  1  0  0  0  0
  5  7  1  0  0  0  0
  7 10  1  0  0  0  0
  8 12  1  1  0  0  0
  8  5  1  0  0  0  0
  8  2  1  0  0  0  0
  9  1  2  0  0  0  0
 10 11  1  0  0  0  0
 11  4  2  0  0  0  0
 13 12  1  0  0  0  0
 14 13  1  0  0  0  0
 15 14  1  0  0  0  0
 16 18  1  6  0  0  0
 16 20  1  0  0  0  0
 16 19  1  0  0  0  0
 20 17  1  6  0  0  0
 20 15  1  0  0  0  0
 20 19  1  0  0  0  0
 21  5  1  0  0  0  0
 22 25  1  6  0  0  0
 22 21  1  0  0  0  0
 22 23  1  0  0  0  0
 23 24  3  0  0  0  0
 26 25  1  0  0  0  0
 27 26  1  0  0  0  0
 28 27  2  0  0  0  0
 29 28  1  0  0  0  0
 31 30  1  0  0  0  0
 31 29  1  0  0  0  0
M  END
>  <MODEL>
6

>  <REMARK>
 VINA RESULT:      -6.0      3.643      7.936
  Name = 
  13 active torsions:
  status: ('A' for Active; 'I' for Inactive)
    1  A    between atoms: C_1  and  C_11
    2  A    between atoms: C_1  and  C_24
    3  A    between atoms: C_3  and  C_9
    4  A    between atoms: C_5  and  O_14
    5  A    between atoms: C_5  and  C_21
    6  A    between atoms: C_6  and  C_7
    7  A    between atoms: C_6  and  C_19
    8  A    between atoms: C_7  and  C_9
    9  A    between atoms: C_9  and  C_23
   10  A    between atoms: C_10  and  O_14
   11  A    between atoms: C_10  and  C_18
   12  A    between atoms: N_15  and  C_23
   13  A    between atoms: C_18  and  C_31
                            x       y       z     vdW  Elec       q    Type
                         _______ _______ _______ _____ _____    ______ ____

>  <TORSDO>
F 13

$$$$
=
 OpenBabel11052422453D

 31 33  0  0  1  0  0  0  0  0999 V2000
  161.6300  205.6280  152.7940 C   0  0  0  0  0  0  0  0  0  0  0  0
  163.1210  207.1930  149.6760 C   0  0  0  0  0  2  0  0  0  0  0  0
  162.1530  206.4820  150.5870 C   0  0  0  0  0  0  0  0  0  0  0  0
  160.4320  205.0980  152.3100 C   0  0  0  0  0  3  0  0  0  0  0  0
  161.6840  206.5140  147.8390 N   0  0  0  0  0  0  0  0  0  0  0  0
  161.9580  205.4800  154.0980 F   0  0  0  0  0  0  0  0  0  0  0  0
  160.5320  206.1300  148.6610 C   0  0  0  0  0  2  0  0  0  0  0  0
  162.4470  207.6510  148.3810 C   0  0  1  0  0  3  0  0  0  0  0  0
  162.4890  206.3170  151.9340 C   0  0  0  0  0  3  0  0  0  0  0  0
  160.9500  205.9260  150.0920 C   0  0  0  0  0  0  0  0  0  0  0  0
  160.0920  205.2490  150.9630 C   0  0  0  0  0  3  0  0  0  0  0  0
  161.5710  208.8740  148.6710 C   0  0  0  0  0  2  0  0  0  0  0  0
  162.3450  210.0340  148.6440 O   0  0  0  0  0  0  0  0  0  0  0  0
  161.8580  210.8090  149.6970 C   0  0  0  0  0  2  0  0  0  0  0  0
  162.2230  210.1710  151.0290 C   0  0  0  0  0  2  0  0  0  0  0  0
  161.5420  210.0750  153.5210 C   0  0  1  0  0  3  0  0  0  0  0  0
  160.4120  211.6460  151.9560 O   0  0  0  0  0  1  0  0  0  0  0  0
  160.8610  210.9410  154.5680 C   0  0  0  0  0  1  0  0  0  0  0  0
  160.4780  209.3230  152.7220 C   0  0  0  0  0  2  0  0  0  0  0  0
  161.1950  210.4970  152.1010 C   0  0  1  0  0  0  0  0  0  0  0  0
  161.3990  206.5380  146.3950 C   0  0  0  0  0  2  0  0  0  0  0  0
  162.2060  205.5880  145.4950 C   0  0  2  0  0  3  0  0  0  0  0  0
  161.6600  205.5110  144.1330 C   0  0  0  0  0  0  0  0  0  0  0  0
  161.2160  205.4530  143.0130 C   0  0  0  0  0  3  0  0  0  0  0  0
  162.4890  204.2190  146.1070 C   0  0  0  0  0  2  0  0  0  0  0  0
  161.2110  203.4160  146.3200 C   0  0  0  0  0  2  0  0  0  0  0  0
  161.1920  202.7760  147.6700 C   0  0  0  0  0  3  0  0  0  0  0  0
  161.2190  201.4500  147.7960 C   0  0  0  0  0  3  0  0  0  0  0  0
  161.2070  200.8100  149.1430 C   0  0  0  0  0  2  0  0  0  0  0  0
  161.3230  202.0410  151.1750 O   0  0  0  0  0  1  0  0  0  0  0  0
  160.4640  201.6830  150.1370 C   0  0  0  0  0  2  0  0  0  0  0  0
  1  6  1  0  0  0  0
  2  3  1  0  0  0  0
  3  9  1  0  0  0  0
  4  1  1  0  0  0  0
  5  8  1  0  0  0  0
  5  7  1  0  0  0  0
  7 10  1  0  0  0  0
  8 12  1  1  0  0  0
  8  2  1  0  0  0  0
  9  1  2  0  0  0  0
 10  3  2  0  0  0  0
 10 11  1  0  0  0  0
 11  4  2  0  0  0  0
 13 12  1  0  0  0  0
 13 14  1  0  0  0  0
 14 15  1  0  0  0  0
 15 20  1  0  0  0  0
 16 18  1  1  0  0  0
 19 16  1  0  0  0  0
 20 17  1  6  0  0  0
 20 19  1  0  0  0  0
 20 16  1  0  0  0  0
 21  5  1  0  0  0  0
 22 23  1  6  0  0  0
 22 25  1  0  0  0  0
 22 21  1  0  0  0  0
 24 23  3  0  0  0  0
 25 26  1  0  0  0  0
 26 27  1  0  0  0  0
 27 28  2  0  0  0  0
 28 29  1  0  0  0  0
 29 31  1  0  0  0  0
 31 30  1  0  0  0  0
M  END
>  <MODEL>
7

>  <REMARK>
 VINA RESULT:      -5.9      2.753      8.066
  Name = 
  13 active torsions:
  status: ('A' for Active; 'I' for Inactive)
    1  A    between atoms: C_1  and  C_11
    2  A    between atoms: C_1  and  C_24
    3  A    between atoms: C_3  and  C_9
    4  A    between atoms: C_5  and  O_14
    5  A    between atoms: C_5  and  C_21
    6  A    between atoms: C_6  and  C_7
    7  A    between atoms: C_6  and  C_19
    8  A    between atoms: C_7  and  C_9
    9  A    between atoms: C_9  and  C_23
   10  A    between atoms: C_10  and  O_14
   11  A    between atoms: C_10  and  C_18
   12  A    between atoms: N_15  and  C_23
   13  A    between atoms: C_18  and  C_31
                            x       y       z     vdW  Elec       q    Type
                         _______ _______ _______ _____ _____    ______ ____

>  <TORSDO>
F 13

$$$$
=
 OpenBabel11052422453D

 31 33  0  0  1  0  0  0  0  0999 V2000
  160.9910  203.4480  149.7550 C   0  0  0  0  0  0  0  0  0  0  0  0
  162.3490  205.8190  152.3860 C   0  0  0  0  0  2  0  0  0  0  0  0
  161.6790  205.3190  151.1320 C   0  0  0  0  0  0  0  0  0  0  0  0
  160.5170  204.3310  148.7830 C   0  0  0  0  0  3  0  0  0  0  0  0
  162.2280  208.0380  151.4070 N   0  0  0  0  0  0  0  0  0  0  0  0
  160.8840  202.1110  149.5660 F   0  0  0  0  0  0  0  0  0  0  0  0
  161.2690  207.7020  150.3500 C   0  0  0  0  0  2  0  0  0  0  0  0
  162.0190  207.2880  152.6570 C   0  0  1  0  0  3  0  0  0  0  0  0
  161.5730  203.9410  150.9250 C   0  0  0  0  0  3  0  0  0  0  0  0
  161.2180  206.2140  150.1380 C   0  0  0  0  0  0  0  0  0  0  0  0
  160.6280  205.7100  148.9750 C   0  0  0  0  0  3  0  0  0  0  0  0
  160.5870  207.3960  153.1870 C   0  0  0  0  0  2  0  0  0  0  0  0
  160.4080  206.5290  154.2650 O   0  0  0  0  0  0  0  0  0  0  0  0
  160.9300  207.2170  155.3620 C   0  0  0  0  0  2  0  0  0  0  0  0
  159.8280  207.9980  156.0620 C   0  0  0  0  0  2  0  0  0  0  0  0
  161.5240  209.9410  155.8720 C   0  0  1  0  0  3  0  0  0  0  0  0
  159.4430  210.1990  157.2120 O   0  0  0  0  0  1  0  0  0  0  0  0
  161.5730  211.4520  156.0230 C   0  0  0  0  0  1  0  0  0  0  0  0
  161.7150  209.2930  157.2430 C   0  0  0  0  0  2  0  0  0  0  0  0
  160.3470  209.3200  156.6090 C   0  0  1  0  0  0  0  0  0  0  0  0
  162.4820  209.4830  151.5380 C   0  0  0  0  0  2  0  0  0  0  0  0
  161.4400  210.4440  150.9430 C   0  0  2  0  0  3  0  0  0  0  0  0
  161.9340  211.1290  149.7410 C   0  0  0  0  0  0  0  0  0  0  0  0
  162.3340  211.6880  148.7500 C   0  0  0  0  0  3  0  0  0  0  0  0
  160.7980  211.3920  151.9520 C   0  0  0  0  0  2  0  0  0  0  0  0
  159.6940  210.7080  152.7520 C   0  0  0  0  0  2  0  0  0  0  0  0
  158.6700  211.6940  153.2120 C   0  0  0  0  0  3  0  0  0  0  0  0
  157.9460  211.4640  154.3080 C   0  0  0  0  0  3  0  0  0  0  0  0
  156.9280  212.4490  154.7720 C   0  0  0  0  0  2  0  0  0  0  0  0
  155.2710  213.7510  153.6700 O   0  0  0  0  0  1  0  0  0  0  0  0
  156.6330  213.4600  153.6790 C   0  0  0  0  0  2  0  0  0  0  0  0
  1  9  1  0  0  0  0
  2  8  1  0  0  0  0
  3  2  1  0  0  0  0
  4 11  1  0  0  0  0
  4  1  2  0  0  0  0
  5 21  1  0  0  0  0
  5  8  1  0  0  0  0
  6  1  1  0  0  0  0
  7  5  1  0  0  0  0
  8 12  1  6  0  0  0
  9  3  2  0  0  0  0
 10  7  1  0  0  0  0
 10  3  1  0  0  0  0
 11 10  2  0  0  0  0
 12 13  1  0  0  0  0
 13 14  1  0  0  0  0
 14 15  1  0  0  0  0
 15 20  1  0  0  0  0
 16 18  1  1  0  0  0
 16 20  1  0  0  0  0
 16 19  1  0  0  0  0
 20 17  1  1  0  0  0
 20 19  1  0  0  0  0
 22 23  1  6  0  0  0
 22 21  1  0  0  0  0
 22 25  1  0  0  0  0
 24 23  3  0  0  0  0
 25 26  1  0  0  0  0
 26 27  1  0  0  0  0
 27 28  2  0  0  0  0
 28 29  1  0  0  0  0
 30 31  1  0  0  0  0
 31 29  1  0  0  0  0
M  END
>  <MODEL>
8

>  <REMARK>
 VINA RESULT:      -5.8      2.839      6.347
  Name = 
  13 active torsions:
  status: ('A' for Active; 'I' for Inactive)
    1  A    between atoms: C_1  and  C_11
    2  A    between atoms: C_1  and  C_24
    3  A    between atoms: C_3  and  C_9
    4  A    between atoms: C_5  and  O_14
    5  A    between atoms: C_5  and  C_21
    6  A    between atoms: C_6  and  C_7
    7  A    between atoms: C_6  and  C_19
    8  A    between atoms: C_7  and  C_9
    9  A    between atoms: C_9  and  C_23
   10  A    between atoms: C_10  and  O_14
   11  A    between atoms: C_10  and  C_18
   12  A    between atoms: N_15  and  C_23
   13  A    between atoms: C_18  and  C_31
                            x       y       z     vdW  Elec       q    Type
                         _______ _______ _______ _____ _____    ______ ____

>  <TORSDO>
F 13

$$$$
=
 OpenBabel11052422453D

 31 33  0  0  1  0  0  0  0  0999 V2000
  161.0440  210.6330  154.2710 C   0  0  0  0  0  0  0  0  0  0  0  0
  162.6640  208.9340  151.2910 C   0  0  0  0  0  2  0  0  0  0  0  0
  161.8380  209.1410  152.5340 C   0  0  0  0  0  0  0  0  0  0  0  0
  160.3840  209.5700  154.8900 C   0  0  0  0  0  3  0  0  0  0  0  0
  162.2840  206.5540  151.5950 N   0  0  0  0  0  0  0  0  0  0  0  0
  160.9770  211.8750  154.8050 F   0  0  0  0  0  0  0  0  0  0  0  0
  161.1940  206.6820  152.5680 C   0  0  0  0  0  2  0  0  0  0  0  0
  162.3050  207.6250  150.5840 C   0  0  1  0  0  3  0  0  0  0  0  0
  161.7700  210.4180  153.0970 C   0  0  0  0  0  3  0  0  0  0  0  0
  161.1870  208.0590  153.1730 C   0  0  0  0  0  0  0  0  0  0  0  0
  160.4530  208.2860  154.3410 C   0  0  0  0  0  3  0  0  0  0  0  0
  160.9660  207.7900  149.8610 C   0  0  0  0  0  2  0  0  0  0  0  0
  161.1800  207.9990  148.4980 O   0  0  0  0  0  0  0  0  0  0  0  0
  161.0110  206.7410  147.9160 C   0  0  0  0  0  2  0  0  0  0  0  0
  162.3340  206.2450  147.3510 C   0  0  0  0  0  2  0  0  0  0  0  0
  161.0370  205.8280  145.1540 C   0  0  1  0  0  3  0  0  0  0  0  0
  163.2170  204.7020  145.5740 O   0  0  0  0  0  1  0  0  0  0  0  0
  161.2920  205.3550  143.7320 C   0  0  0  0  0  1  0  0  0  0  0  0
  160.8190  204.6130  146.0560 C   0  0  0  0  0  2  0  0  0  0  0  0
  162.1200  205.3750  146.1210 C   0  0  1  0  0  0  0  0  0  0  0  0
  162.4820  205.1800  151.1050 C   0  0  0  0  0  2  0  0  0  0  0  0
  161.2260  204.3490  150.7930 C   0  0  2  0  0  3  0  0  0  0  0  0
  160.7910  203.5410  151.9390 C   0  0  0  0  0  0  0  0  0  0  0  0
  160.4410  202.8730  152.8810 C   0  0  0  0  0  3  0  0  0  0  0  0
  161.2950  203.5560  149.4900 C   0  0  0  0  0  2  0  0  0  0  0  0
  160.3740  202.3420  149.5150 C   0  0  0  0  0  2  0  0  0  0  0  0
  160.9310  201.2240  148.6940 C   0  0  0  0  0  3  0  0  0  0  0  0
  160.8360  201.2410  147.3650 C   0  0  0  0  0  3  0  0  0  0  0  0
  161.3970  200.1290  146.5440 C   0  0  0  0  0  2  0  0  0  0  0  0
  160.0640  201.1890  144.8840 O   0  0  0  0  0  1  0  0  0  0  0  0
  160.5970  199.9600  145.2660 C   0  0  0  0  0  2  0  0  0  0  0  0
  1  6  1  0  0  0  0
  1  4  1  0  0  0  0
  2  3  1  0  0  0  0
  3  9  1  0  0  0  0
  3 10  2  0  0  0  0
  5  7  1  0  0  0  0
  7 10  1  0  0  0  0
  8 12  1  1  0  0  0
  8  2  1  0  0  0  0
  8  5  1  0  0  0  0
  9  1  2  0  0  0  0
 10 11  1  0  0  0  0
 11  4  2  0  0  0  0
 13 12  1  0  0  0  0
 14 13  1  0  0  0  0
 15 14  1  0  0  0  0
 16 18  1  6  0  0  0
 16 19  1  0  0  0  0
 16 20  1  0  0  0  0
 19 20  1  0  0  0  0
 20 17  1  6  0  0  0
 20 15  1  0  0  0  0
 21  5  1  0  0  0  0
 22 25  1  6  0  0  0
 22 21  1  0  0  0  0
 22 23  1  0  0  0  0
 23 24  3  0  0  0  0
 25 26  1  0  0  0  0
 27 26  1  0  0  0  0
 28 27  2  0  0  0  0
 29 28  1  0  0  0  0
 30 31  1  0  0  0  0
 31 29  1  0  0  0  0
M  END
>  <MODEL>
9

>  <REMARK>
 VINA RESULT:      -5.8      3.145      7.458
  Name = 
  13 active torsions:
  status: ('A' for Active; 'I' for Inactive)
    1  A    between atoms: C_1  and  C_11
    2  A    between atoms: C_1  and  C_24
    3  A    between atoms: C_3  and  C_9
    4  A    between atoms: C_5  and  O_14
    5  A    between atoms: C_5  and  C_21
    6  A    between atoms: C_6  and  C_7
    7  A    between atoms: C_6  and  C_19
    8  A    between atoms: C_7  and  C_9
    9  A    between atoms: C_9  and  C_23
   10  A    between atoms: C_10  and  O_14
   11  A    between atoms: C_10  and  C_18
   12  A    between atoms: N_15  and  C_23
   13  A    between atoms: C_18  and  C_31
                            x       y       z     vdW  Elec       q    Type
                         _______ _______ _______ _____ _____    ______ ____

>  <TORSDO>
F 13

$$$$
