=
 OpenBabel11062409503D

 34 34  0  0  1  0  0  0  0  0999 V2000
  161.2310  209.9360  151.8770 C   0  0  0  0  0  0  0  0  0  0  0  0
  161.8140  210.5070  150.9190 O   0  0  0  0  0  0  0  0  0  0  0  0
  161.6660  208.6590  152.2570 O   0  0  0  0  0  0  0  0  0  0  0  0
  162.0260  207.6380  151.3340 C   0  0  2  0  0  3  0  0  0  0  0  0
  160.8370  207.3340  150.4320 C   0  0  0  0  0  2  0  0  0  0  0  0
  161.3810  204.7860  146.9730 C   0  0  2  0  0  3  0  0  0  0  0  0
  162.3740  205.9380  147.1030 C   0  0  0  0  0  2  0  0  0  0  0  0
  161.8220  206.9960  148.0560 C   0  0  0  0  0  2  0  0  0  0  0  0
  160.8750  205.1160  149.4030 C   0  0  0  0  0  3  0  0  0  0  0  0
  161.2220  206.4120  149.3180 C   0  0  0  0  0  0  0  0  0  0  0  0
  161.2010  204.1110  148.3320 C   0  0  0  0  0  2  0  0  0  0  0  0
  161.8080  203.8470  145.9890 O   0  0  0  0  0  0  0  0  0  0  0  0
  160.6290  201.8600  145.5390 C   0  0  0  0  0  2  0  0  0  0  0  0
  160.9040  203.1150  145.2200 C   0  0  0  0  0  3  0  0  0  0  0  0
  162.4290  206.3770  152.0870 C   0  0  0  0  0  2  0  0  0  0  0  0
  161.0850  204.4380  152.8770 C   0  0  0  0  0  1  0  0  0  0  0  0
  161.3360  205.9240  153.0400 C   0  0  0  0  0  2  0  0  0  0  0  0
  160.1700  210.6040  152.5040 O   0  0  0  0  0  0  0  0  0  0  0  0
  160.1350  212.0120  152.7110 C   0  0  1  0  0  3  0  0  0  0  0  0
  158.1900  212.8360  151.3420 O   0  0  0  0  0  1  0  0  0  0  0  0
  159.5640  212.7010  151.5060 C   0  0  0  0  0  0  0  0  0  0  0  0
  160.3390  213.1940  150.6460 O   0  0  0  0  0  0  0  0  0  0  0  0
  159.3490  212.3480  153.9790 C   0  0  0  0  0  2  0  0  0  0  0  0
  159.1050  211.1280  154.8790 C   0  0  1  0  0  3  0  0  0  0  0  0
  159.7450  211.3260  156.2600 C   0  0  2  0  0  3  0  0  0  0  0  0
  160.1190  212.7840  156.4820 C   0  0  0  0  0  1  0  0  0  0  0  0
  160.9160  210.4680  156.4690 N   0  0  0  0  0  0  0  0  0  0  0  0
  162.1900  210.8270  155.9140 C   0  0  0  0  0  3  0  0  0  0  0  0
  163.3300  210.6270  156.5650 C   0  0  0  0  0  2  0  0  0  0  0  0
  160.7550  209.1160  156.9980 C   0  0  0  0  0  2  0  0  0  0  0  0
  159.6880  207.0710  156.1290 C   0  0  0  0  0  2  0  0  0  0  0  0
  160.4450  208.1420  155.9040 C   0  0  0  0  0  3  0  0  0  0  0  0
  157.7340  210.8640  154.9900 O   0  0  0  0  0  0  0  0  0  0  0  0
  157.1030  212.0590  154.6340 C   0  0  0  0  0  1  0  0  0  0  0  0
  1  3  1  0  0  0  0
  1 18  1  0  0  0  0
  2  1  2  0  0  0  0
  4  5  1  6  0  0  0
  4 15  1  0  0  0  0
  4  3  1  0  0  0  0
  6 12  1  6  0  0  0
  6  7  1  0  0  0  0
  6 11  1  0  0  0  0
  7  8  1  0  0  0  0
  8 10  1  0  0  0  0
 10  9  2  0  0  0  0
 10  5  1  0  0  0  0
 11  9  1  0  0  0  0
 14 13  2  0  0  0  0
 14 12  1  0  0  0  0
 15 17  1  0  0  0  0
 16 17  1  0  0  0  0
 18 19  1  0  0  0  0
 19 23  1  1  0  0  0
 20 21  1  0  0  0  0
 21 19  1  0  0  0  0
 22 21  2  0  0  0  0
 24 23  1  6  0  0  0
 24 33  1  0  0  0  0
 24 25  1  0  0  0  0
 25 27  1  0  0  0  0
 25 26  1  6  0  0  0
 27 30  1  0  0  0  0
 28 27  1  0  0  0  0
 28 29  2  0  0  0  0
 32 31  2  0  0  0  0
 32 30  1  0  0  0  0
 34 33  1  0  0  0  0
M  END
>  <MODEL>
1

>  <REMARK>
 VINA RESULT:      -6.0      0.000      0.000
  Name = 
  19 active torsions:
  status: ('A' for Active; 'I' for Inactive)
    1  A    between atoms: C_1  and  O_8
    2  A    between atoms: C_1  and  O_34
    3  A    between atoms: C_2  and  N_25
    4  A    between atoms: C_2  and  C_32
    5  A    between atoms: C_3  and  C_24
    6  A    between atoms: C_3  and  N_25
    7  A    between atoms: C_5  and  C_20
    8  A    between atoms: C_5  and  C_32
    9  A    between atoms: C_6  and  C_18
   10  A    between atoms: C_6  and  C_28
   11  A    between atoms: C_7  and  O_11
   12  A    between atoms: O_8  and  C_18
   13  A    between atoms: O_11  and  C_21
   14  A    between atoms: C_12  and  C_20
   15  A    between atoms: C_18  and  C_30
   16  A    between atoms: O_19  and  C_32
   17  A    between atoms: C_20  and  O_34
   18  A    between atoms: N_25  and  C_27
   19  A    between atoms: C_30  and  C_31
                            x       y       z     vdW  Elec       q    Type
                         _______ _______ _______ _____ _____    ______ ____

>  <TORSDO>
F 19

$$$$
=
 OpenBabel11062409503D

 34 34  0  0  1  0  0  0  0  0999 V2000
  161.3170  208.9440  152.5610 C   0  0  0  0  0  0  0  0  0  0  0  0
  160.4280  209.6120  151.9720 O   0  0  0  0  0  0  0  0  0  0  0  0
  162.1900  208.1670  151.7880 O   0  0  0  0  0  0  0  0  0  0  0  0
  161.8110  206.9590  151.1410 C   0  0  2  0  0  3  0  0  0  0  0  0
  161.1800  207.2870  149.7940 C   0  0  0  0  0  2  0  0  0  0  0  0
  161.4070  204.3300  146.6390 C   0  0  2  0  0  3  0  0  0  0  0  0
  162.5260  205.3670  146.6490 C   0  0  0  0  0  2  0  0  0  0  0  0
  162.1050  206.5800  147.4770 C   0  0  0  0  0  2  0  0  0  0  0  0
  160.9560  204.9800  149.0150 C   0  0  0  0  0  3  0  0  0  0  0  0
  161.4500  206.2100  148.7900 C   0  0  0  0  0  0  0  0  0  0  0  0
  161.1580  203.8330  148.0620 C   0  0  0  0  0  2  0  0  0  0  0  0
  161.7170  203.2460  145.7660 O   0  0  0  0  0  0  0  0  0  0  0  0
  159.9210  201.8960  145.0660 C   0  0  0  0  0  2  0  0  0  0  0  0
  161.0140  202.0430  145.7980 C   0  0  0  0  0  3  0  0  0  0  0  0
  160.8090  206.2010  152.0020 C   0  0  0  0  0  2  0  0  0  0  0  0
  160.8380  203.7330  152.3070 C   0  0  0  0  0  1  0  0  0  0  0  0
  161.4660  205.0450  152.7350 C   0  0  0  0  0  2  0  0  0  0  0  0
  161.3770  209.0050  153.9600 O   0  0  0  0  0  0  0  0  0  0  0  0
  160.2700  208.7290  154.8120 C   0  0  1  0  0  3  0  0  0  0  0  0
  159.7160  206.9620  156.5160 O   0  0  0  0  0  1  0  0  0  0  0  0
  160.6660  207.7550  155.8830 C   0  0  0  0  0  0  0  0  0  0  0  0
  161.8800  207.6280  156.1900 O   0  0  0  0  0  0  0  0  0  0  0  0
  159.7130  210.0250  155.4030 C   0  0  0  0  0  2  0  0  0  0  0  0
  160.7750  211.1230  155.5570 C   0  0  1  0  0  3  0  0  0  0  0  0
  160.1370  212.5180  155.4990 C   0  0  2  0  0  3  0  0  0  0  0  0
  159.5180  212.8880  156.8400 C   0  0  0  0  0  1  0  0  0  0  0  0
  159.1380  212.6390  154.4330 N   0  0  0  0  0  0  0  0  0  0  0  0
  159.5380  212.6220  153.0540 C   0  0  0  0  0  3  0  0  0  0  0  0
  159.1750  213.5690  152.1980 C   0  0  0  0  0  2  0  0  0  0  0  0
  157.7730  213.0550  154.7450 C   0  0  0  0  0  2  0  0  0  0  0  0
  156.1870  211.2470  155.2860 C   0  0  0  0  0  2  0  0  0  0  0  0
  156.7850  211.9970  154.3630 C   0  0  0  0  0  3  0  0  0  0  0  0
  161.4980  210.9460  156.7450 O   0  0  0  0  0  0  0  0  0  0  0  0
  162.8400  210.9470  156.3560 C   0  0  0  0  0  1  0  0  0  0  0  0
  1 18  1  0  0  0  0
  2  1  2  0  0  0  0
  3  1  1  0  0  0  0
  4  5  1  6  0  0  0
  4  3  1  0  0  0  0
  4 15  1  0  0  0  0
  6 12  1  6  0  0  0
  6  7  1  0  0  0  0
  6 11  1  0  0  0  0
  7  8  1  0  0  0  0
  8 10  1  0  0  0  0
 10  9  2  0  0  0  0
 10  5  1  0  0  0  0
 11  9  1  0  0  0  0
 12 14  1  0  0  0  0
 13 14  2  0  0  0  0
 15 17  1  0  0  0  0
 16 17  1  0  0  0  0
 18 19  1  0  0  0  0
 19 23  1  1  0  0  0
 19 21  1  0  0  0  0
 21 22  2  0  0  0  0
 21 20  1  0  0  0  0
 24 23  1  1  0  0  0
 24 33  1  0  0  0  0
 25 24  1  0  0  0  0
 25 26  1  1  0  0  0
 27 30  1  0  0  0  0
 27 25  1  0  0  0  0
 28 27  1  0  0  0  0
 29 28  2  0  0  0  0
 32 30  1  0  0  0  0
 32 31  2  0  0  0  0
 34 33  1  0  0  0  0
M  END
>  <MODEL>
2

>  <REMARK>
 VINA RESULT:      -5.9      1.666      3.614
  Name = 
  19 active torsions:
  status: ('A' for Active; 'I' for Inactive)
    1  A    between atoms: C_1  and  O_8
    2  A    between atoms: C_1  and  O_34
    3  A    between atoms: C_2  and  N_25
    4  A    between atoms: C_2  and  C_32
    5  A    between atoms: C_3  and  C_24
    6  A    between atoms: C_3  and  N_25
    7  A    between atoms: C_5  and  C_20
    8  A    between atoms: C_5  and  C_32
    9  A    between atoms: C_6  and  C_18
   10  A    between atoms: C_6  and  C_28
   11  A    between atoms: C_7  and  O_11
   12  A    between atoms: O_8  and  C_18
   13  A    between atoms: O_11  and  C_21
   14  A    between atoms: C_12  and  C_20
   15  A    between atoms: C_18  and  C_30
   16  A    between atoms: O_19  and  C_32
   17  A    between atoms: C_20  and  O_34
   18  A    between atoms: N_25  and  C_27
   19  A    between atoms: C_30  and  C_31
                            x       y       z     vdW  Elec       q    Type
                         _______ _______ _______ _____ _____    ______ ____

>  <TORSDO>
F 19

$$$$
=
 OpenBabel11062409503D

 34 34  0  0  1  0  0  0  0  0999 V2000
  161.6600  206.5080  151.5330 C   0  0  0  0  0  0  0  0  0  0  0  0
  162.8610  206.2150  151.7680 O   0  0  0  0  0  0  0  0  0  0  0  0
  161.2090  207.7940  151.8610 O   0  0  0  0  0  0  0  0  0  0  0  0
  160.6220  208.1310  153.1110 C   0  0  2  0  0  3  0  0  0  0  0  0
  161.2440  209.4210  153.6280 C   0  0  0  0  0  2  0  0  0  0  0  0
  157.8610  212.0640  154.1900 C   0  0  2  0  0  3  0  0  0  0  0  0
  159.0170  212.2610  155.1660 C   0  0  0  0  0  2  0  0  0  0  0  0
  159.9100  211.0220  155.1720 C   0  0  0  0  0  2  0  0  0  0  0  0
  159.4780  210.8450  152.7170 C   0  0  0  0  0  3  0  0  0  0  0  0
  160.2150  210.4960  153.7850 C   0  0  0  0  0  0  0  0  0  0  0  0
  158.4090  211.9030  152.7730 C   0  0  0  0  0  2  0  0  0  0  0  0
  156.9380  213.1470  154.2600 O   0  0  0  0  0  0  0  0  0  0  0  0
  155.7620  212.2350  156.0840 C   0  0  0  0  0  2  0  0  0  0  0  0
  155.8310  213.1280  155.1090 C   0  0  0  0  0  3  0  0  0  0  0  0
  160.8640  207.0110  154.1160 C   0  0  0  0  0  2  0  0  0  0  0  0
  159.9100  207.2290  156.4030 C   0  0  0  0  0  1  0  0  0  0  0  0
  161.0930  207.5590  155.5150 C   0  0  0  0  0  2  0  0  0  0  0  0
  160.8340  205.5260  150.9660 O   0  0  0  0  0  0  0  0  0  0  0  0
  161.3200  204.3110  150.4060 C   0  0  1  0  0  3  0  0  0  0  0  0
  160.8830  201.8580  150.7610 O   0  0  0  0  0  0  0  0  0  0  0  0
  160.9400  203.1480  151.2760 C   0  0  0  0  0  0  0  0  0  0  0  0
  160.7020  203.3360  152.4970 O   0  0  0  0  0  1  0  0  0  0  0  0
  160.8090  204.1380  148.9750 C   0  0  0  0  0  2  0  0  0  0  0  0
  161.5580  205.0090  147.9570 C   0  0  1  0  0  3  0  0  0  0  0  0
  162.1480  204.1520  146.8280 C   0  0  2  0  0  3  0  0  0  0  0  0
  163.5060  204.6860  146.3950 C   0  0  0  0  0  1  0  0  0  0  0  0
  161.2550  204.0500  145.6690 N   0  0  0  0  0  0  0  0  0  0  0  0
  160.8170  205.2300  144.9800 C   0  0  0  0  0  3  0  0  0  0  0  0
  161.2020  205.5140  143.7420 C   0  0  0  0  0  2  0  0  0  0  0  0
  160.5790  202.7900  145.3690 C   0  0  0  0  0  2  0  0  0  0  0  0
  161.0210  200.4840  146.1180 C   0  0  0  0  0  2  0  0  0  0  0  0
  160.8470  201.7670  146.4280 C   0  0  0  0  0  3  0  0  0  0  0  0
  160.7160  206.0060  147.4470 O   0  0  0  0  0  0  0  0  0  0  0  0
  161.2160  207.2030  147.9670 C   0  0  0  0  0  1  0  0  0  0  0  0
  1  2  2  0  0  0  0
  1  3  1  0  0  0  0
  3  4  1  0  0  0  0
  4  5  1  1  0  0  0
  4 15  1  0  0  0  0
  5 10  1  0  0  0  0
  6 12  1  6  0  0  0
  6  7  1  0  0  0  0
  7  8  1  0  0  0  0
  9 11  1  0  0  0  0
  9 10  2  0  0  0  0
 10  8  1  0  0  0  0
 11  6  1  0  0  0  0
 12 14  1  0  0  0  0
 14 13  2  0  0  0  0
 15 17  1  0  0  0  0
 17 16  1  0  0  0  0
 18  1  1  0  0  0  0
 19 23  1  6  0  0  0
 19 18  1  0  0  0  0
 19 21  1  0  0  0  0
 20 21  2  0  0  0  0
 21 22  1  0  0  0  0
 24 23  1  1  0  0  0
 25 26  1  6  0  0  0
 25 24  1  0  0  0  0
 27 25  1  0  0  0  0
 28 27  1  0  0  0  0
 29 28  2  0  0  0  0
 30 27  1  0  0  0  0
 30 32  1  0  0  0  0
 31 32  2  0  0  0  0
 33 24  1  0  0  0  0
 33 34  1  0  0  0  0
M  END
>  <MODEL>
3

>  <REMARK>
 VINA RESULT:      -5.7      3.013      9.808
  Name = 
  19 active torsions:
  status: ('A' for Active; 'I' for Inactive)
    1  A    between atoms: C_1  and  O_8
    2  A    between atoms: C_1  and  O_34
    3  A    between atoms: C_2  and  N_25
    4  A    between atoms: C_2  and  C_32
    5  A    between atoms: C_3  and  C_24
    6  A    between atoms: C_3  and  N_25
    7  A    between atoms: C_5  and  C_20
    8  A    between atoms: C_5  and  C_32
    9  A    between atoms: C_6  and  C_18
   10  A    between atoms: C_6  and  C_28
   11  A    between atoms: C_7  and  O_11
   12  A    between atoms: O_8  and  C_18
   13  A    between atoms: O_11  and  C_21
   14  A    between atoms: C_12  and  C_20
   15  A    between atoms: C_18  and  C_30
   16  A    between atoms: O_19  and  C_32
   17  A    between atoms: C_20  and  O_34
   18  A    between atoms: N_25  and  C_27
   19  A    between atoms: C_30  and  C_31
                            x       y       z     vdW  Elec       q    Type
                         _______ _______ _______ _____ _____    ______ ____

>  <TORSDO>
F 19

$$$$
=
 OpenBabel11062409503D

 34 34  0  0  1  0  0  0  0  0999 V2000
  161.3500  209.2250  152.4760 C   0  0  0  0  0  0  0  0  0  0  0  0
  160.1750  209.3940  152.0610 O   0  0  0  0  0  0  0  0  0  0  0  0
  162.2900  208.6530  151.6080 O   0  0  0  0  0  0  0  0  0  0  0  0
  162.3220  207.2700  151.2780 C   0  0  2  0  0  3  0  0  0  0  0  0
  161.0500  206.9020  150.5260 C   0  0  0  0  0  2  0  0  0  0  0  0
  161.3130  204.4650  146.9570 C   0  0  2  0  0  3  0  0  0  0  0  0
  162.2630  205.6590  147.0080 C   0  0  0  0  0  2  0  0  0  0  0  0
  161.7750  206.6670  148.0470 C   0  0  0  0  0  2  0  0  0  0  0  0
  161.0690  204.7140  149.4360 C   0  0  0  0  0  3  0  0  0  0  0  0
  161.3480  206.0250  149.3500 C   0  0  0  0  0  0  0  0  0  0  0  0
  161.3180  203.7500  148.3070 C   0  0  0  0  0  2  0  0  0  0  0  0
  161.6680  203.5710  145.9050 O   0  0  0  0  0  0  0  0  0  0  0  0
  160.4240  201.6140  145.4990 C   0  0  0  0  0  2  0  0  0  0  0  0
  160.7110  202.8650  145.1760 C   0  0  0  0  0  3  0  0  0  0  0  0
  162.4200  206.4360  152.5490 C   0  0  0  0  0  2  0  0  0  0  0  0
  160.6660  206.3010  154.3080 C   0  0  0  0  0  1  0  0  0  0  0  0
  161.0770  205.8340  152.9260 C   0  0  0  0  0  2  0  0  0  0  0  0
  161.6540  209.6090  153.7900 O   0  0  0  0  0  0  0  0  0  0  0  0
  160.6970  210.1430  154.6980 C   0  0  1  0  0  3  0  0  0  0  0  0
  162.0270  208.7940  156.3560 O   0  0  0  0  0  0  0  0  0  0  0  0
  160.9260  209.5970  156.0780 C   0  0  0  0  0  0  0  0  0  0  0  0
  160.1310  209.8970  157.0060 O   0  0  0  0  0  1  0  0  0  0  0  0
  160.7360  211.6720  154.6810 C   0  0  0  0  0  2  0  0  0  0  0  0
  159.4900  212.3010  154.0420 C   0  0  1  0  0  3  0  0  0  0  0  0
  158.8860  213.3770  154.9550 C   0  0  2  0  0  3  0  0  0  0  0  0
  159.5760  213.3870  156.3120 C   0  0  0  0  0  1  0  0  0  0  0  0
  157.4380  213.2240  155.1280 N   0  0  0  0  0  0  0  0  0  0  0  0
  156.5360  214.2340  154.6510 C   0  0  0  0  0  3  0  0  0  0  0  0
  155.2730  214.3050  155.0530 C   0  0  0  0  0  2  0  0  0  0  0  0
  156.9060  212.1970  156.0220 C   0  0  0  0  0  2  0  0  0  0  0  0
  155.4060  210.3600  155.3520 C   0  0  0  0  0  2  0  0  0  0  0  0
  156.6040  210.9360  155.2760 C   0  0  0  0  0  3  0  0  0  0  0  0
  159.7950  212.8230  152.7780 O   0  0  0  0  0  0  0  0  0  0  0  0
  158.6750  212.5430  151.9900 C   0  0  0  0  0  1  0  0  0  0  0  0
  1 18  1  0  0  0  0
  2  1  2  0  0  0  0
  3  1  1  0  0  0  0
  4  5  1  1  0  0  0
  4  3  1  0  0  0  0
  4 15  1  0  0  0  0
  6 12  1  6  0  0  0
  6  7  1  0  0  0  0
  6 11  1  0  0  0  0
  7  8  1  0  0  0  0
  8 10  1  0  0  0  0
 10  9  2  0  0  0  0
 10  5  1  0  0  0  0
 11  9  1  0  0  0  0
 14 13  2  0  0  0  0
 14 12  1  0  0  0  0
 15 17  1  0  0  0  0
 17 16  1  0  0  0  0
 18 19  1  0  0  0  0
 19 23  1  1  0  0  0
 19 21  1  0  0  0  0
 21 20  2  0  0  0  0
 21 22  1  0  0  0  0
 24 23  1  1  0  0  0
 24 25  1  0  0  0  0
 25 27  1  0  0  0  0
 25 26  1  1  0  0  0
 27 30  1  0  0  0  0
 28 29  2  0  0  0  0
 28 27  1  0  0  0  0
 32 31  2  0  0  0  0
 32 30  1  0  0  0  0
 33 24  1  0  0  0  0
 34 33  1  0  0  0  0
M  END
>  <MODEL>
4

>  <REMARK>
 VINA RESULT:      -5.6      1.714      3.546
  Name = 
  19 active torsions:
  status: ('A' for Active; 'I' for Inactive)
    1  A    between atoms: C_1  and  O_8
    2  A    between atoms: C_1  and  O_34
    3  A    between atoms: C_2  and  N_25
    4  A    between atoms: C_2  and  C_32
    5  A    between atoms: C_3  and  C_24
    6  A    between atoms: C_3  and  N_25
    7  A    between atoms: C_5  and  C_20
    8  A    between atoms: C_5  and  C_32
    9  A    between atoms: C_6  and  C_18
   10  A    between atoms: C_6  and  C_28
   11  A    between atoms: C_7  and  O_11
   12  A    between atoms: O_8  and  C_18
   13  A    between atoms: O_11  and  C_21
   14  A    between atoms: C_12  and  C_20
   15  A    between atoms: C_18  and  C_30
   16  A    between atoms: O_19  and  C_32
   17  A    between atoms: C_20  and  O_34
   18  A    between atoms: N_25  and  C_27
   19  A    between atoms: C_30  and  C_31
                            x       y       z     vdW  Elec       q    Type
                         _______ _______ _______ _____ _____    ______ ____

>  <TORSDO>
F 19

$$$$
=
 OpenBabel11062409503D

 34 34  0  0  1  0  0  0  0  0999 V2000
  161.6030  209.4900  153.0270 C   0  0  0  0  0  0  0  0  0  0  0  0
  162.1200  210.1040  152.0590 O   0  0  0  0  0  0  0  0  0  0  0  0
  161.5390  208.0910  152.9750 O   0  0  0  0  0  0  0  0  0  0  0  0
  161.9080  207.3250  151.8350 C   0  0  2  0  0  3  0  0  0  0  0  0
  160.7110  207.2050  150.9010 C   0  0  0  0  0  2  0  0  0  0  0  0
  161.3400  205.9230  146.8140 C   0  0  2  0  0  3  0  0  0  0  0  0
  162.3760  206.9000  147.3620 C   0  0  0  0  0  2  0  0  0  0  0  0
  161.8180  207.6140  148.5920 C   0  0  0  0  0  2  0  0  0  0  0  0
  160.7060  205.4580  149.1910 C   0  0  0  0  0  3  0  0  0  0  0  0
  161.1180  206.6830  149.5590 C   0  0  0  0  0  0  0  0  0  0  0  0
  161.0480  204.8470  147.8580 C   0  0  0  0  0  2  0  0  0  0  0  0
  161.7800  205.3390  145.5900 O   0  0  0  0  0  0  0  0  0  0  0  0
  161.0610  203.1280  145.2240 C   0  0  0  0  0  2  0  0  0  0  0  0
  161.0110  204.4080  144.8920 C   0  0  0  0  0  3  0  0  0  0  0  0
  162.3570  205.9350  152.2670 C   0  0  0  0  0  2  0  0  0  0  0  0
  161.0750  203.8030  152.2870 C   0  0  0  0  0  1  0  0  0  0  0  0
  161.2270  205.1660  152.9310 C   0  0  0  0  0  2  0  0  0  0  0  0
  161.1060  210.2410  154.1030 O   0  0  0  0  0  0  0  0  0  0  0  0
  160.8790  209.7060  155.4020 C   0  0  1  0  0  3  0  0  0  0  0  0
  163.0190  210.8500  156.0720 O   0  0  0  0  0  0  0  0  0  0  0  0
  162.1300  209.7920  156.2270 C   0  0  0  0  0  0  0  0  0  0  0  0
  162.3640  208.9120  157.0960 O   0  0  0  0  0  1  0  0  0  0  0  0
  159.7060  210.4180  156.0770 C   0  0  0  0  0  2  0  0  0  0  0  0
  159.6320  211.9130  155.7390 C   0  0  1  0  0  3  0  0  0  0  0  0
  158.2010  212.3230  155.3650 C   0  0  2  0  0  3  0  0  0  0  0  0
  157.2370  211.1610  155.5520 C   0  0  0  0  0  1  0  0  0  0  0  0
  158.1010  212.8450  153.9970 N   0  0  0  0  0  0  0  0  0  0  0  0
  157.2720  213.9800  153.7090 C   0  0  0  0  0  3  0  0  0  0  0  0
  156.0020  213.8560  153.3420 C   0  0  0  0  0  2  0  0  0  0  0  0
  158.6120  212.0660  152.8720 C   0  0  0  0  0  2  0  0  0  0  0  0
  159.4890  213.3900  150.9870 C   0  0  0  0  0  2  0  0  0  0  0  0
  159.7060  212.7990  152.1590 C   0  0  0  0  0  3  0  0  0  0  0  0
  160.1170  212.6840  156.8040 O   0  0  0  0  0  0  0  0  0  0  0  0
  159.8900  214.0100  156.4260 C   0  0  0  0  0  1  0  0  0  0  0  0
  1 18  1  0  0  0  0
  2  1  2  0  0  0  0
  3  1  1  0  0  0  0
  4  5  1  6  0  0  0
  4 15  1  0  0  0  0
  4  3  1  0  0  0  0
  6 12  1  6  0  0  0
  6  7  1  0  0  0  0
  6 11  1  0  0  0  0
  7  8  1  0  0  0  0
  8 10  1  0  0  0  0
  9 10  2  0  0  0  0
 10  5  1  0  0  0  0
 11  9  1  0  0  0  0
 14 13  2  0  0  0  0
 14 12  1  0  0  0  0
 15 17  1  0  0  0  0
 16 17  1  0  0  0  0
 18 19  1  0  0  0  0
 19 23  1  1  0  0  0
 19 21  1  0  0  0  0
 20 21  2  0  0  0  0
 21 22  1  0  0  0  0
 24 23  1  1  0  0  0
 24 33  1  0  0  0  0
 25 26  1  6  0  0  0
 25 24  1  0  0  0  0
 27 25  1  0  0  0  0
 28 27  1  0  0  0  0
 29 28  2  0  0  0  0
 30 27  1  0  0  0  0
 31 32  2  0  0  0  0
 32 30  1  0  0  0  0
 34 33  1  0  0  0  0
M  END
>  <MODEL>
5

>  <REMARK>
 VINA RESULT:      -5.5      1.870      3.847
  Name = 
  19 active torsions:
  status: ('A' for Active; 'I' for Inactive)
    1  A    between atoms: C_1  and  O_8
    2  A    between atoms: C_1  and  O_34
    3  A    between atoms: C_2  and  N_25
    4  A    between atoms: C_2  and  C_32
    5  A    between atoms: C_3  and  C_24
    6  A    between atoms: C_3  and  N_25
    7  A    between atoms: C_5  and  C_20
    8  A    between atoms: C_5  and  C_32
    9  A    between atoms: C_6  and  C_18
   10  A    between atoms: C_6  and  C_28
   11  A    between atoms: C_7  and  O_11
   12  A    between atoms: O_8  and  C_18
   13  A    between atoms: O_11  and  C_21
   14  A    between atoms: C_12  and  C_20
   15  A    between atoms: C_18  and  C_30
   16  A    between atoms: O_19  and  C_32
   17  A    between atoms: C_20  and  O_34
   18  A    between atoms: N_25  and  C_27
   19  A    between atoms: C_30  and  C_31
                            x       y       z     vdW  Elec       q    Type
                         _______ _______ _______ _____ _____    ______ ____

>  <TORSDO>
F 19

$$$$
=
 OpenBabel11062409503D

 34 34  0  0  1  0  0  0  0  0999 V2000
  161.5500  206.9400  151.3100 C   0  0  0  0  0  0  0  0  0  0  0  0
  162.5570  206.7070  152.0280 O   0  0  0  0  0  0  0  0  0  0  0  0
  161.2490  208.2720  150.9930 O   0  0  0  0  0  0  0  0  0  0  0  0
  162.2200  209.2270  150.5840 C   0  0  2  0  0  3  0  0  0  0  0  0
  162.4200  210.2480  151.6950 C   0  0  0  0  0  2  0  0  0  0  0  0
  159.2460  210.9460  154.5570 C   0  0  2  0  0  3  0  0  0  0  0  0
  158.8700  211.1620  153.0940 C   0  0  0  0  0  2  0  0  0  0  0  0
  160.1330  211.3370  152.2530 C   0  0  0  0  0  2  0  0  0  0  0  0
  161.2080  209.6300  153.7270 C   0  0  0  0  0  3  0  0  0  0  0  0
  161.2160  210.3310  152.5810 C   0  0  0  0  0  0  0  0  0  0  0  0
  160.0530  209.6560  154.6920 C   0  0  0  0  0  2  0  0  0  0  0  0
  158.0870  210.9120  155.3870 O   0  0  0  0  0  0  0  0  0  0  0  0
  155.7590  210.6420  155.1680 C   0  0  0  0  0  2  0  0  0  0  0  0
  156.8450  211.3660  154.9460 C   0  0  0  0  0  3  0  0  0  0  0  0
  161.7500  209.9360  149.3200 C   0  0  0  0  0  2  0  0  0  0  0  0
  161.3330  212.2560  148.5260 C   0  0  0  0  0  1  0  0  0  0  0  0
  162.3180  211.3410  149.2260 C   0  0  0  0  0  2  0  0  0  0  0  0
  160.7780  205.8540  150.8740 O   0  0  0  0  0  0  0  0  0  0  0  0
  161.3250  204.5920  150.5060 C   0  0  1  0  0  3  0  0  0  0  0  0
  160.7540  203.9210  152.8640 O   0  0  0  0  0  1  0  0  0  0  0  0
  160.9930  203.5590  151.5430 C   0  0  0  0  0  0  0  0  0  0  0  0
  160.8970  202.3490  151.2080 O   0  0  0  0  0  0  0  0  0  0  0  0
  160.8330  204.1790  149.1190 C   0  0  0  0  0  2  0  0  0  0  0  0
  161.5230  204.9440  147.9800 C   0  0  1  0  0  3  0  0  0  0  0  0
  162.2810  203.9860  147.0520 C   0  0  2  0  0  3  0  0  0  0  0  0
  163.3650  204.7230  146.2780 C   0  0  0  0  0  1  0  0  0  0  0  0
  161.3940  203.2770  146.1240 N   0  0  0  0  0  0  0  0  0  0  0  0
  161.1590  203.7900  144.8050 C   0  0  0  0  0  3  0  0  0  0  0  0
  159.9560  204.1750  144.3960 C   0  0  0  0  0  2  0  0  0  0  0  0
  160.5260  202.2050  146.6070 C   0  0  0  0  0  2  0  0  0  0  0  0
  161.3640  200.6270  148.3040 C   0  0  0  0  0  2  0  0  0  0  0  0
  161.3240  201.0130  147.0310 C   0  0  0  0  0  3  0  0  0  0  0  0
  160.5920  205.7090  147.2660 O   0  0  0  0  0  0  0  0  0  0  0  0
  160.9760  207.0370  147.4750 C   0  0  0  0  0  1  0  0  0  0  0  0
  1  2  2  0  0  0  0
  3  1  1  0  0  0  0
  4 15  1  6  0  0  0
  4  3  1  0  0  0  0
  4  5  1  0  0  0  0
  5 10  1  0  0  0  0
  6 11  1  0  0  0  0
  6 12  1  1  0  0  0
  7  6  1  0  0  0  0
  8 10  1  0  0  0  0
  8  7  1  0  0  0  0
  9 11  1  0  0  0  0
 10  9  2  0  0  0  0
 14 13  2  0  0  0  0
 14 12  1  0  0  0  0
 16 17  1  0  0  0  0
 17 15  1  0  0  0  0
 18  1  1  0  0  0  0
 19 23  1  6  0  0  0
 19 18  1  0  0  0  0
 19 21  1  0  0  0  0
 21 20  1  0  0  0  0
 22 21  2  0  0  0  0
 24 23  1  1  0  0  0
 25 26  1  6  0  0  0
 25 24  1  0  0  0  0
 27 30  1  0  0  0  0
 27 25  1  0  0  0  0
 28 27  1  0  0  0  0
 29 28  2  0  0  0  0
 30 32  1  0  0  0  0
 32 31  2  0  0  0  0
 33 34  1  0  0  0  0
 33 24  1  0  0  0  0
M  END
>  <MODEL>
6

>  <REMARK>
 VINA RESULT:      -5.4      3.049      9.496
  Name = 
  19 active torsions:
  status: ('A' for Active; 'I' for Inactive)
    1  A    between atoms: C_1  and  O_8
    2  A    between atoms: C_1  and  O_34
    3  A    between atoms: C_2  and  N_25
    4  A    between atoms: C_2  and  C_32
    5  A    between atoms: C_3  and  C_24
    6  A    between atoms: C_3  and  N_25
    7  A    between atoms: C_5  and  C_20
    8  A    between atoms: C_5  and  C_32
    9  A    between atoms: C_6  and  C_18
   10  A    between atoms: C_6  and  C_28
   11  A    between atoms: C_7  and  O_11
   12  A    between atoms: O_8  and  C_18
   13  A    between atoms: O_11  and  C_21
   14  A    between atoms: C_12  and  C_20
   15  A    between atoms: C_18  and  C_30
   16  A    between atoms: O_19  and  C_32
   17  A    between atoms: C_20  and  O_34
   18  A    between atoms: N_25  and  C_27
   19  A    between atoms: C_30  and  C_31
                            x       y       z     vdW  Elec       q    Type
                         _______ _______ _______ _____ _____    ______ ____

>  <TORSDO>
F 19

$$$$
=
 OpenBabel11062409503D

 34 34  0  0  1  0  0  0  0  0999 V2000
  160.7440  208.3960  153.5070 C   0  0  0  0  0  0  0  0  0  0  0  0
  160.5630  207.1640  153.6840 O   0  0  0  0  0  0  0  0  0  0  0  0
  160.9590  208.8590  152.2010 O   0  0  0  0  0  0  0  0  0  0  0  0
  161.2710  208.0120  151.1030 C   0  0  2  0  0  3  0  0  0  0  0  0
  162.2010  206.9010  151.5730 C   0  0  0  0  0  2  0  0  0  0  0  0
  160.4080  203.2060  150.2030 C   0  0  2  0  0  3  0  0  0  0  0  0
  161.0410  204.0710  149.1170 C   0  0  0  0  0  2  0  0  0  0  0  0
  161.2160  205.5000  149.6250 C   0  0  0  0  0  2  0  0  0  0  0  0
  161.7610  204.5130  151.8550 C   0  0  0  0  0  3  0  0  0  0  0  0
  161.7800  205.5720  151.0290 C   0  0  0  0  0  0  0  0  0  0  0  0
  161.3410  203.1370  151.4110 C   0  0  0  0  0  2  0  0  0  0  0  0
  160.1110  201.9010  149.7130 O   0  0  0  0  0  0  0  0  0  0  0  0
  161.4110  200.5910  148.2520 C   0  0  0  0  0  2  0  0  0  0  0  0
  160.4580  201.4930  148.4250 C   0  0  0  0  0  3  0  0  0  0  0  0
  161.9550  208.8160  150.0050 C   0  0  0  0  0  2  0  0  0  0  0  0
  162.1160  211.1570  149.1790 C   0  0  0  0  0  1  0  0  0  0  0  0
  162.1320  210.2700  150.4080 C   0  0  0  0  0  2  0  0  0  0  0  0
  160.7330  209.2390  154.6280 O   0  0  0  0  0  0  0  0  0  0  0  0
  160.0280  208.9460  155.8290 C   0  0  1  0  0  3  0  0  0  0  0  0
  162.1880  208.1930  156.8800 O   0  0  0  0  0  0  0  0  0  0  0  0
  160.8240  208.0030  156.6840 C   0  0  0  0  0  0  0  0  0  0  0  0
  160.2460  207.0450  157.2590 O   0  0  0  0  0  1  0  0  0  0  0  0
  159.6860  210.2350  156.5770 C   0  0  0  0  0  2  0  0  0  0  0  0
  159.8680  211.4970  155.7220 C   0  0  1  0  0  3  0  0  0  0  0  0
  158.5120  212.0590  155.2730 C   0  0  2  0  0  3  0  0  0  0  0  0
  157.4310  210.9910  155.3450 C   0  0  0  0  0  1  0  0  0  0  0  0
  158.5580  212.6400  153.9270 N   0  0  0  0  0  0  0  0  0  0  0  0
  159.2600  211.9720  152.8690 C   0  0  0  0  0  3  0  0  0  0  0  0
  159.8190  212.6310  151.8610 C   0  0  0  0  0  2  0  0  0  0  0  0
  158.1370  214.0210  153.7050 C   0  0  0  0  0  2  0  0  0  0  0  0
  155.6820  214.2370  153.7470 C   0  0  0  0  0  2  0  0  0  0  0  0
  156.8420  214.3090  154.3970 C   0  0  0  0  0  3  0  0  0  0  0  0
  160.6110  212.4600  156.4170 O   0  0  0  0  0  0  0  0  0  0  0  0
  161.4930  211.7310  157.2180 C   0  0  0  0  0  1  0  0  0  0  0  0
  1  2  2  0  0  0  0
  1 18  1  0  0  0  0
  3  1  1  0  0  0  0
  4 15  1  6  0  0  0
  4  5  1  0  0  0  0
  4  3  1  0  0  0  0
  6 12  1  6  0  0  0
  6 11  1  0  0  0  0
  7  8  1  0  0  0  0
  7  6  1  0  0  0  0
  8 10  1  0  0  0  0
 10  5  1  0  0  0  0
 10  9  2  0  0  0  0
 11  9  1  0  0  0  0
 13 14  2  0  0  0  0
 14 12  1  0  0  0  0
 15 17  1  0  0  0  0
 16 17  1  0  0  0  0
 18 19  1  0  0  0  0
 19 23  1  1  0  0  0
 19 21  1  0  0  0  0
 21 20  2  0  0  0  0
 21 22  1  0  0  0  0
 24 33  1  0  0  0  0
 24 23  1  1  0  0  0
 25 26  1  6  0  0  0
 25 24  1  0  0  0  0
 27 25  1  0  0  0  0
 28 27  1  0  0  0  0
 29 28  2  0  0  0  0
 30 27  1  0  0  0  0
 30 32  1  0  0  0  0
 31 32  2  0  0  0  0
 33 34  1  0  0  0  0
M  END
>  <MODEL>
7

>  <REMARK>
 VINA RESULT:      -5.3      2.368      4.713
  Name = 
  19 active torsions:
  status: ('A' for Active; 'I' for Inactive)
    1  A    between atoms: C_1  and  O_8
    2  A    between atoms: C_1  and  O_34
    3  A    between atoms: C_2  and  N_25
    4  A    between atoms: C_2  and  C_32
    5  A    between atoms: C_3  and  C_24
    6  A    between atoms: C_3  and  N_25
    7  A    between atoms: C_5  and  C_20
    8  A    between atoms: C_5  and  C_32
    9  A    between atoms: C_6  and  C_18
   10  A    between atoms: C_6  and  C_28
   11  A    between atoms: C_7  and  O_11
   12  A    between atoms: O_8  and  C_18
   13  A    between atoms: O_11  and  C_21
   14  A    between atoms: C_12  and  C_20
   15  A    between atoms: C_18  and  C_30
   16  A    between atoms: O_19  and  C_32
   17  A    between atoms: C_20  and  O_34
   18  A    between atoms: N_25  and  C_27
   19  A    between atoms: C_30  and  C_31
                            x       y       z     vdW  Elec       q    Type
                         _______ _______ _______ _____ _____    ______ ____

>  <TORSDO>
F 19

$$$$
=
 OpenBabel11062409503D

 34 34  0  0  1  0  0  0  0  0999 V2000
  162.1080  206.9900  151.4730 C   0  0  0  0  0  0  0  0  0  0  0  0
  162.8190  206.1340  152.0580 O   0  0  0  0  0  0  0  0  0  0  0  0
  160.8460  207.2880  152.0060 O   0  0  0  0  0  0  0  0  0  0  0  0
  160.6480  207.9370  153.2550 C   0  0  2  0  0  3  0  0  0  0  0  0
  161.4040  209.2590  153.2600 C   0  0  0  0  0  2  0  0  0  0  0  0
  158.4160  212.1140  154.5520 C   0  0  2  0  0  3  0  0  0  0  0  0
  159.7940  212.2720  155.1890 C   0  0  0  0  0  2  0  0  0  0  0  0
  160.5960  210.9830  155.0220 C   0  0  0  0  0  2  0  0  0  0  0  0
  159.5350  210.7570  152.7700 C   0  0  0  0  0  3  0  0  0  0  0  0
  160.5050  210.3980  153.6280 C   0  0  0  0  0  0  0  0  0  0  0  0
  158.5710  211.8780  153.0510 C   0  0  0  0  0  2  0  0  0  0  0  0
  157.5970  213.2530  154.8080 O   0  0  0  0  0  0  0  0  0  0  0  0
  156.0470  212.0400  156.0990 C   0  0  0  0  0  2  0  0  0  0  0  0
  156.5150  213.2070  155.6860 C   0  0  0  0  0  3  0  0  0  0  0  0
  161.1620  207.0530  154.3860 C   0  0  0  0  0  2  0  0  0  0  0  0
  160.3090  207.7250  156.6240 C   0  0  0  0  0  1  0  0  0  0  0  0
  160.0900  206.8120  155.4340 C   0  0  0  0  0  2  0  0  0  0  0  0
  162.6120  207.5930  150.3110 O   0  0  0  0  0  0  0  0  0  0  0  0
  161.7940  208.2110  149.3230 C   0  0  1  0  0  3  0  0  0  0  0  0
  162.3010  210.3680  150.5170 O   0  0  0  0  0  1  0  0  0  0  0  0
  161.9930  209.6980  149.3380 C   0  0  0  0  0  0  0  0  0  0  0  0
  161.9150  210.3470  148.2620 O   0  0  0  0  0  0  0  0  0  0  0  0
  162.0780  207.6160  147.9440 C   0  0  0  0  0  2  0  0  0  0  0  0
  162.3310  206.1020  147.9790 C   0  0  1  0  0  3  0  0  0  0  0  0
  161.0100  205.3230  148.0190 C   0  0  2  0  0  3  0  0  0  0  0  0
  159.8740  206.2070  148.5130 C   0  0  0  0  0  1  0  0  0  0  0  0
  161.0940  204.1080  148.8370 N   0  0  0  0  0  0  0  0  0  0  0  0
  161.5460  202.8730  148.2620 C   0  0  0  0  0  3  0  0  0  0  0  0
  160.7050  201.9390  147.8350 C   0  0  0  0  0  2  0  0  0  0  0  0
  160.4670  204.0610  150.1550 C   0  0  0  0  0  2  0  0  0  0  0  0
  161.5810  202.8590  151.9960 C   0  0  0  0  0  2  0  0  0  0  0  0
  160.8430  202.8120  150.8890 C   0  0  0  0  0  3  0  0  0  0  0  0
  163.1180  205.7080  146.8880 O   0  0  0  0  0  0  0  0  0  0  0  0
  162.2210  205.5650  145.8260 C   0  0  0  0  0  1  0  0  0  0  0  0
  1  3  1  0  0  0  0
  1  2  2  0  0  0  0
  3  4  1  0  0  0  0
  4  5  1  6  0  0  0
  4 15  1  0  0  0  0
  5 10  1  0  0  0  0
  6 12  1  6  0  0  0
  6  7  1  0  0  0  0
  8  7  1  0  0  0  0
  9 11  1  0  0  0  0
  9 10  2  0  0  0  0
 10  8  1  0  0  0  0
 11  6  1  0  0  0  0
 12 14  1  0  0  0  0
 14 13  2  0  0  0  0
 15 17  1  0  0  0  0
 17 16  1  0  0  0  0
 18  1  1  0  0  0  0
 19 23  1  6  0  0  0
 19 21  1  0  0  0  0
 19 18  1  0  0  0  0
 21 20  1  0  0  0  0
 22 21  2  0  0  0  0
 24 23  1  6  0  0  0
 24 25  1  0  0  0  0
 25 26  1  1  0  0  0
 25 27  1  0  0  0  0
 27 30  1  0  0  0  0
 28 27  1  0  0  0  0
 29 28  2  0  0  0  0
 30 32  1  0  0  0  0
 32 31  2  0  0  0  0
 33 24  1  0  0  0  0
 34 33  1  0  0  0  0
M  END
>  <MODEL>
8

>  <REMARK>
 VINA RESULT:      -5.1      2.505      8.561
  Name = 
  19 active torsions:
  status: ('A' for Active; 'I' for Inactive)
    1  A    between atoms: C_1  and  O_8
    2  A    between atoms: C_1  and  O_34
    3  A    between atoms: C_2  and  N_25
    4  A    between atoms: C_2  and  C_32
    5  A    between atoms: C_3  and  C_24
    6  A    between atoms: C_3  and  N_25
    7  A    between atoms: C_5  and  C_20
    8  A    between atoms: C_5  and  C_32
    9  A    between atoms: C_6  and  C_18
   10  A    between atoms: C_6  and  C_28
   11  A    between atoms: C_7  and  O_11
   12  A    between atoms: O_8  and  C_18
   13  A    between atoms: O_11  and  C_21
   14  A    between atoms: C_12  and  C_20
   15  A    between atoms: C_18  and  C_30
   16  A    between atoms: O_19  and  C_32
   17  A    between atoms: C_20  and  O_34
   18  A    between atoms: N_25  and  C_27
   19  A    between atoms: C_30  and  C_31
                            x       y       z     vdW  Elec       q    Type
                         _______ _______ _______ _____ _____    ______ ____

>  <TORSDO>
F 19

$$$$
=
 OpenBabel11062409503D

 34 34  0  0  1  0  0  0  0  0999 V2000
  161.8260  209.6480  150.2940 C   0  0  0  0  0  0  0  0  0  0  0  0
  162.3300  209.8490  149.1590 O   0  0  0  0  0  0  0  0  0  0  0  0
  162.3080  208.5780  151.0590 O   0  0  0  0  0  0  0  0  0  0  0  0
  162.4360  207.2490  150.5680 C   0  0  2  0  0  3  0  0  0  0  0  0
  161.1500  206.8490  149.8590 C   0  0  0  0  0  2  0  0  0  0  0  0
  161.2910  203.8860  146.7040 C   0  0  2  0  0  3  0  0  0  0  0  0
  162.3130  205.0130  146.5920 C   0  0  0  0  0  2  0  0  0  0  0  0
  161.8810  206.1960  147.4570 C   0  0  0  0  0  2  0  0  0  0  0  0
  161.0410  204.5230  149.1130 C   0  0  0  0  0  3  0  0  0  0  0  0
  161.4020  205.7870  148.8340 C   0  0  0  0  0  0  0  0  0  0  0  0
  161.2380  203.3860  148.1470 C   0  0  0  0  0  2  0  0  0  0  0  0
  161.5970  202.8220  145.8060 O   0  0  0  0  0  0  0  0  0  0  0  0
  159.7190  201.7280  144.9040 C   0  0  0  0  0  2  0  0  0  0  0  0
  160.7860  201.6940  145.6860 C   0  0  0  0  0  3  0  0  0  0  0  0
  162.6980  206.2920  151.7250 C   0  0  0  0  0  2  0  0  0  0  0  0
  161.1080  204.6760  152.7470 C   0  0  0  0  0  1  0  0  0  0  0  0
  161.4730  206.1410  152.6100 C   0  0  0  0  0  2  0  0  0  0  0  0
  160.8000  210.5000  150.7260 O   0  0  0  0  0  0  0  0  0  0  0  0
  160.9810  211.8880  150.9860 C   0  0  1  0  0  3  0  0  0  0  0  0
  159.4010  213.2680  149.5960 O   0  0  0  0  0  1  0  0  0  0  0  0
  160.6560  212.6940  149.7630 C   0  0  0  0  0  0  0  0  0  0  0  0
  161.5420  212.8830  148.8880 O   0  0  0  0  0  0  0  0  0  0  0  0
  160.1430  212.3220  152.1890 C   0  0  0  0  0  2  0  0  0  0  0  0
  159.7700  211.1580  153.1170 C   0  0  1  0  0  3  0  0  0  0  0  0
  160.6820  211.1220  154.3510 C   0  0  2  0  0  3  0  0  0  0  0  0
  161.9480  210.3270  154.0670 C   0  0  0  0  0  1  0  0  0  0  0  0
  160.0070  210.5870  155.5380 N   0  0  0  0  0  0  0  0  0  0  0  0
  159.6380  209.2010  155.6040 C   0  0  0  0  0  3  0  0  0  0  0  0
  160.3410  208.3110  156.2940 C   0  0  0  0  0  2  0  0  0  0  0  0
  159.4540  211.4920  156.5430 C   0  0  0  0  0  2  0  0  0  0  0  0
  159.4960  213.9530  156.4240 C   0  0  0  0  0  2  0  0  0  0  0  0
  160.1650  212.8080  156.5350 C   0  0  0  0  0  3  0  0  0  0  0  0
  158.4200  211.2360  153.4880 O   0  0  0  0  0  0  0  0  0  0  0  0
  158.0300  212.5390  153.1660 C   0  0  0  0  0  1  0  0  0  0  0  0
  1 18  1  0  0  0  0
  1  3  1  0  0  0  0
  2  1  2  0  0  0  0
  4  5  1  1  0  0  0
  4  3  1  0  0  0  0
  4 15  1  0  0  0  0
  6 12  1  6  0  0  0
  6 11  1  0  0  0  0
  7  6  1  0  0  0  0
  7  8  1  0  0  0  0
  8 10  1  0  0  0  0
 10  9  2  0  0  0  0
 10  5  1  0  0  0  0
 11  9  1  0  0  0  0
 13 14  2  0  0  0  0
 14 12  1  0  0  0  0
 15 17  1  0  0  0  0
 17 16  1  0  0  0  0
 18 19  1  0  0  0  0
 19 23  1  1  0  0  0
 20 21  1  0  0  0  0
 21 19  1  0  0  0  0
 22 21  2  0  0  0  0
 24 23  1  6  0  0  0
 24 33  1  0  0  0  0
 24 25  1  0  0  0  0
 25 26  1  6  0  0  0
 25 27  1  0  0  0  0
 27 28  1  0  0  0  0
 27 30  1  0  0  0  0
 28 29  2  0  0  0  0
 31 32  2  0  0  0  0
 32 30  1  0  0  0  0
 34 33  1  0  0  0  0
M  END
>  <MODEL>
9

>  <REMARK>
 VINA RESULT:      -5.0      1.276      2.280
  Name = 
  19 active torsions:
  status: ('A' for Active; 'I' for Inactive)
    1  A    between atoms: C_1  and  O_8
    2  A    between atoms: C_1  and  O_34
    3  A    between atoms: C_2  and  N_25
    4  A    between atoms: C_2  and  C_32
    5  A    between atoms: C_3  and  C_24
    6  A    between atoms: C_3  and  N_25
    7  A    between atoms: C_5  and  C_20
    8  A    between atoms: C_5  and  C_32
    9  A    between atoms: C_6  and  C_18
   10  A    between atoms: C_6  and  C_28
   11  A    between atoms: C_7  and  O_11
   12  A    between atoms: O_8  and  C_18
   13  A    between atoms: O_11  and  C_21
   14  A    between atoms: C_12  and  C_20
   15  A    between atoms: C_18  and  C_30
   16  A    between atoms: O_19  and  C_32
   17  A    between atoms: C_20  and  O_34
   18  A    between atoms: N_25  and  C_27
   19  A    between atoms: C_30  and  C_31
                            x       y       z     vdW  Elec       q    Type
                         _______ _______ _______ _____ _____    ______ ____

>  <TORSDO>
F 19

$$$$
